data_SUSRUV_clean_PM
_symmetry_space_group_name_H-M	'P1'
_cell_length_a	26.630000
_cell_length_b	35.928000
_cell_length_c	13.001000
_cell_angle_alpha	90.000000
_cell_angle_beta	90.000000
_cell_angle_gamma	90.000000
_symmetry_Int_Tables_number 1

loop_
_symmetry_equiv_pos_as_xyz
'x,y,z'

loop_
_atom_site_label
_atom_site_type_symbol
_atom_site_fract_x
_atom_site_fract_y
_atom_site_fract_z
Zn11	Zn1	0.354690	0.118940	0.585370
Zn21	Zn2	0.226890	0.061100	0.494990
O11	O1	0.301140	0.096290	0.496850
O21	O2	0.378260	0.149210	0.460580
O31	O3	0.397050	0.158150	0.297100
O41	O4	0.402170	0.139960	0.688270
O51	O5	0.325300	0.083680	0.699620
O61	O6	0.291740	0.078710	0.855030
N11	N1	0.263040	0.073770	0.360420
N21	N2	0.440530	0.151640	0.836780
N31	N3	0.169090	0.024800	0.461080
N41	N4	0.953470	0.913290	0.373460
C11	C1	0.300100	0.095920	0.398100
C21	C2	0.331730	0.116120	0.330500
C31	C3	0.324130	0.110940	0.225200
H11	H1	0.344500	0.124200	0.177800
C41	C4	0.287590	0.086880	0.188100
H21	H2	0.283400	0.082900	0.116400
C51	C5	0.257560	0.068970	0.259100
H31	H3	0.232100	0.052600	0.235100
C61	C6	0.372040	0.142890	0.366400
C71	C7	0.402860	0.133810	0.784700
C81	C8	0.368310	0.111550	0.842200
C91	C9	0.375290	0.108170	0.947500
H41	H4	0.351800	0.094300	0.986800
C101	C10	0.415870	0.124570	0.996600
H51	H5	0.421800	0.120900	0.067900
C111	C11	0.447310	0.146430	0.937700
H61	H6	0.475000	0.158300	0.970200
C121	C12	0.325250	0.090050	0.795800
C131	C13	0.144350	0.026420	0.371000
H71	H7	0.156200	0.043000	0.319400
C141	C14	0.102540	0.005050	0.350700
H81	H8	0.086700	0.006400	0.285300
C151	C15	0.083510	0.981380	0.426300
C161	C16	0.109240	0.979820	0.519200
H91	H9	0.097700	0.964100	0.572900
C171	C17	0.151810	0.001360	0.532900
H101	H10	0.169500	0.999400	0.596100
C181	C18	0.984220	0.923330	0.296700
H111	H11	0.977000	0.914600	0.229400
C191	C19	0.025840	0.945740	0.310200
H121	H12	0.046300	0.952200	0.253100
C201	C20	0.037520	0.958750	0.408000
C211	C21	0.005120	0.949220	0.488100
H131	H13	0.011200	0.957900	0.555900
C221	C22	0.963890	0.926800	0.467100
H141	H14	0.941900	0.920700	0.522100
Zn31	Zn3	0.854690	0.118940	0.085370
Zn41	Zn4	0.726890	0.061100	0.994990
O71	O7	0.801140	0.096290	0.996850
O81	O8	0.878260	0.149210	0.960580
O91	O9	0.897050	0.158150	0.797100
O101	O10	0.902170	0.139960	0.188270
O111	O11	0.825300	0.083680	0.199620
O121	O12	0.791740	0.078710	0.355030
N51	N5	0.763040	0.073770	0.860420
N61	N6	0.940530	0.151640	0.336780
N71	N7	0.669090	0.024800	0.961080
N81	N8	0.453470	0.913290	0.873460
C231	C23	0.800100	0.095920	0.898100
C241	C24	0.831730	0.116120	0.830500
C251	C25	0.824130	0.110940	0.725200
H151	H15	0.844500	0.124200	0.677800
C261	C26	0.787590	0.086880	0.688100
H161	H16	0.783400	0.082900	0.616400
C271	C27	0.757560	0.068970	0.759100
H171	H17	0.732100	0.052600	0.735100
C281	C28	0.872040	0.142890	0.866400
C291	C29	0.902860	0.133810	0.284700
C301	C30	0.868310	0.111550	0.342200
C311	C31	0.875290	0.108170	0.447500
H181	H18	0.851800	0.094300	0.486800
C321	C32	0.915870	0.124570	0.496600
H191	H19	0.921800	0.120900	0.567900
C331	C33	0.947310	0.146430	0.437700
H201	H20	0.975000	0.158300	0.470200
C341	C34	0.825250	0.090050	0.295800
C351	C35	0.644350	0.026420	0.871000
H211	H21	0.656200	0.043000	0.819400
C361	C36	0.602540	0.005050	0.850700
H221	H22	0.586700	0.006400	0.785300
C371	C37	0.583510	0.981380	0.926300
C381	C38	0.609240	0.979820	0.019200
H231	H23	0.597700	0.964100	0.072900
C391	C39	0.651810	0.001360	0.032900
H241	H24	0.669500	0.999400	0.096100
C401	C40	0.484220	0.923330	0.796700
H251	H25	0.477000	0.914600	0.729400
C411	C41	0.525840	0.945740	0.810200
H261	H26	0.546300	0.952200	0.753100
C421	C42	0.537520	0.958750	0.908000
C431	C43	0.505120	0.949220	0.988100
H271	H27	0.511200	0.957900	0.055900
C441	C44	0.463890	0.926800	0.967100
H281	H28	0.441900	0.920700	0.022100
Zn51	Zn5	0.604690	0.131060	0.835370
Zn61	Zn6	0.476890	0.188900	0.744990
O131	O13	0.551140	0.153710	0.746850
O141	O14	0.628260	0.100790	0.710580
O151	O15	0.647050	0.091850	0.547100
O161	O16	0.652170	0.110040	0.938270
O171	O17	0.575300	0.166320	0.949620
O181	O18	0.541740	0.171290	0.105030
N91	N9	0.513040	0.176230	0.610420
N101	N10	0.690530	0.098360	0.086780
N111	N11	0.419090	0.225200	0.711080
N121	N12	0.203470	0.336710	0.623460
C451	C45	0.550100	0.154080	0.648100
C461	C46	0.581730	0.133880	0.580500
C471	C47	0.574130	0.139060	0.475200
H291	H29	0.594500	0.125800	0.427800
C481	C48	0.537590	0.163120	0.438100
H301	H30	0.533400	0.167100	0.366400
C491	C49	0.507560	0.181030	0.509100
H311	H31	0.482100	0.197400	0.485100
C501	C50	0.622040	0.107110	0.616400
C511	C51	0.652860	0.116190	0.034700
C521	C52	0.618310	0.138450	0.092200
C531	C53	0.625290	0.141830	0.197500
H321	H32	0.601800	0.155700	0.236800
C541	C54	0.665870	0.125430	0.246600
H331	H33	0.671800	0.129100	0.317900
C551	C55	0.697310	0.103570	0.187700
H341	H34	0.725000	0.091700	0.220200
C561	C56	0.575250	0.159950	0.045800
C571	C57	0.394350	0.223580	0.621000
H351	H35	0.406200	0.207000	0.569400
C581	C58	0.352540	0.244950	0.600700
H361	H36	0.336700	0.243600	0.535300
C591	C59	0.333510	0.268620	0.676300
C601	C60	0.359240	0.270180	0.769200
H371	H37	0.347700	0.285900	0.822900
C611	C61	0.401810	0.248640	0.782900
H381	H38	0.419500	0.250600	0.846100
C621	C62	0.234220	0.326670	0.546700
H391	H39	0.227000	0.335400	0.479400
C631	C63	0.275840	0.304260	0.560200
H401	H40	0.296300	0.297800	0.503100
C641	C64	0.287520	0.291250	0.658000
C651	C65	0.255120	0.300780	0.738100
H411	H41	0.261200	0.292100	0.805900
C661	C66	0.213890	0.323200	0.717100
H421	H42	0.191900	0.329300	0.772100
Zn71	Zn7	0.104690	0.131060	0.335370
Zn81	Zn8	0.976890	0.188900	0.244990
O191	O19	0.051140	0.153710	0.246850
O201	O20	0.128260	0.100790	0.210580
O211	O21	0.147050	0.091850	0.047100
O221	O22	0.152170	0.110040	0.438270
O231	O23	0.075300	0.166320	0.449620
O241	O24	0.041740	0.171290	0.605030
N131	N13	0.013040	0.176230	0.110420
N141	N14	0.190530	0.098360	0.586780
N151	N15	0.919090	0.225200	0.211080
N161	N16	0.703470	0.336710	0.123460
C671	C67	0.050100	0.154080	0.148100
C681	C68	0.081730	0.133880	0.080500
C691	C69	0.074130	0.139060	0.975200
H431	H43	0.094500	0.125800	0.927800
C701	C70	0.037590	0.163120	0.938100
H441	H44	0.033400	0.167100	0.866400
C711	C71	0.007560	0.181030	0.009100
H451	H45	0.982100	0.197400	0.985100
C721	C72	0.122040	0.107110	0.116400
C731	C73	0.152860	0.116190	0.534700
C741	C74	0.118310	0.138450	0.592200
C751	C75	0.125290	0.141830	0.697500
H461	H46	0.101800	0.155700	0.736800
C761	C76	0.165870	0.125430	0.746600
H471	H47	0.171800	0.129100	0.817900
C771	C77	0.197310	0.103570	0.687700
H481	H48	0.225000	0.091700	0.720200
C781	C78	0.075250	0.159950	0.545800
C791	C79	0.894350	0.223580	0.121000
H491	H49	0.906200	0.207000	0.069400
C801	C80	0.852540	0.244950	0.100700
H501	H50	0.836700	0.243600	0.035300
C811	C81	0.833510	0.268620	0.176300
C821	C82	0.859240	0.270180	0.269200
H511	H51	0.847700	0.285900	0.322900
C831	C83	0.901810	0.248640	0.282900
H521	H52	0.919500	0.250600	0.346100
C841	C84	0.734220	0.326670	0.046700
H531	H53	0.727000	0.335400	0.979400
C851	C85	0.775840	0.304260	0.060200
H541	H54	0.796300	0.297800	0.003100
C861	C86	0.787520	0.291250	0.158000
C871	C87	0.755120	0.300780	0.238100
H551	H55	0.761200	0.292100	0.305900
C881	C88	0.713890	0.323200	0.217100
H561	H56	0.691900	0.329300	0.272100
Zn91	Zn9	0.354690	0.618940	0.085370
Zn101	Zn10	0.226890	0.561100	0.994990
O251	O25	0.301140	0.596290	0.996850
O261	O26	0.378260	0.649210	0.960580
O271	O27	0.397050	0.658150	0.797100
O281	O28	0.402170	0.639960	0.188270
O291	O29	0.325300	0.583680	0.199620
O301	O30	0.291740	0.578710	0.355030
N171	N17	0.263040	0.573770	0.860420
N181	N18	0.440530	0.651640	0.336780
N191	N19	0.169090	0.524800	0.961080
N201	N20	0.953470	0.413290	0.873460
C891	C89	0.300100	0.595920	0.898100
C901	C90	0.331730	0.616120	0.830500
C911	C91	0.324130	0.610940	0.725200
H571	H57	0.344500	0.624200	0.677800
C921	C92	0.287590	0.586880	0.688100
H581	H58	0.283400	0.582900	0.616400
C931	C93	0.257560	0.568970	0.759100
H591	H59	0.232100	0.552600	0.735100
C941	C94	0.372040	0.642890	0.866400
C951	C95	0.402860	0.633810	0.284700
C961	C96	0.368310	0.611550	0.342200
C971	C97	0.375290	0.608170	0.447500
H601	H60	0.351800	0.594300	0.486800
C981	C98	0.415870	0.624570	0.496600
H611	H61	0.421800	0.620900	0.567900
C991	C99	0.447310	0.646430	0.437700
H621	H62	0.475000	0.658300	0.470200
C1001	C100	0.325250	0.590050	0.295800
C1011	C101	0.144350	0.526420	0.871000
H631	H63	0.156200	0.543000	0.819400
C1021	C102	0.102540	0.505050	0.850700
H641	H64	0.086700	0.506400	0.785300
C1031	C103	0.083510	0.481380	0.926300
C1041	C104	0.109240	0.479820	0.019200
H651	H65	0.097700	0.464100	0.072900
C1051	C105	0.151810	0.501360	0.032900
H661	H66	0.169500	0.499400	0.096100
C1061	C106	0.984220	0.423330	0.796700
H671	H67	0.977000	0.414600	0.729400
C1071	C107	0.025840	0.445740	0.810200
H681	H68	0.046300	0.452200	0.753100
C1081	C108	0.037520	0.458750	0.908000
C1091	C109	0.005120	0.449220	0.988100
H691	H69	0.011200	0.457900	0.055900
C1101	C110	0.963890	0.426800	0.967100
H701	H70	0.941900	0.420700	0.022100
Zn111	Zn11	0.854690	0.618940	0.585370
Zn121	Zn12	0.726890	0.561100	0.494990
O311	O31	0.801140	0.596290	0.496850
O321	O32	0.878260	0.649210	0.460580
O331	O33	0.897050	0.658150	0.297100
O341	O34	0.902170	0.639960	0.688270
O351	O35	0.825300	0.583680	0.699620
O361	O36	0.791740	0.578710	0.855030
N211	N21	0.763040	0.573770	0.360420
N221	N22	0.940530	0.651640	0.836780
N231	N23	0.669090	0.524800	0.461080
N241	N24	0.453470	0.413290	0.373460
C1111	C111	0.800100	0.595920	0.398100
C1121	C112	0.831730	0.616120	0.330500
C1131	C113	0.824130	0.610940	0.225200
H711	H71	0.844500	0.624200	0.177800
C1141	C114	0.787590	0.586880	0.188100
H721	H72	0.783400	0.582900	0.116400
C1151	C115	0.757560	0.568970	0.259100
H731	H73	0.732100	0.552600	0.235100
C1161	C116	0.872040	0.642890	0.366400
C1171	C117	0.902860	0.633810	0.784700
C1181	C118	0.868310	0.611550	0.842200
C1191	C119	0.875290	0.608170	0.947500
H741	H74	0.851800	0.594300	0.986800
C1201	C120	0.915870	0.624570	0.996600
H751	H75	0.921800	0.620900	0.067900
C1211	C121	0.947310	0.646430	0.937700
H761	H76	0.975000	0.658300	0.970200
C1221	C122	0.825250	0.590050	0.795800
C1231	C123	0.644350	0.526420	0.371000
H771	H77	0.656200	0.543000	0.319400
C1241	C124	0.602540	0.505050	0.350700
H781	H78	0.586700	0.506400	0.285300
C1251	C125	0.583510	0.481380	0.426300
C1261	C126	0.609240	0.479820	0.519200
H791	H79	0.597700	0.464100	0.572900
C1271	C127	0.651810	0.501360	0.532900
H801	H80	0.669500	0.499400	0.596100
C1281	C128	0.484220	0.423330	0.296700
H811	H81	0.477000	0.414600	0.229400
C1291	C129	0.525840	0.445740	0.310200
H821	H82	0.546300	0.452200	0.253100
C1301	C130	0.537520	0.458750	0.408000
C1311	C131	0.505120	0.449220	0.488100
H831	H83	0.511200	0.457900	0.555900
C1321	C132	0.463890	0.426800	0.467100
H841	H84	0.441900	0.420700	0.522100
Zn131	Zn13	0.604690	0.631060	0.335370
Zn141	Zn14	0.476890	0.688900	0.244990
O371	O37	0.551140	0.653710	0.246850
O381	O38	0.628260	0.600790	0.210580
O391	O39	0.647050	0.591850	0.047100
O401	O40	0.652170	0.610040	0.438270
O411	O41	0.575300	0.666320	0.449620
O421	O42	0.541740	0.671290	0.605030
N251	N25	0.513040	0.676230	0.110420
N261	N26	0.690530	0.598360	0.586780
N271	N27	0.419090	0.725200	0.211080
N281	N28	0.203470	0.836710	0.123460
C1331	C133	0.550100	0.654080	0.148100
C1341	C134	0.581730	0.633880	0.080500
C1351	C135	0.574130	0.639060	0.975200
H851	H85	0.594500	0.625800	0.927800
C1361	C136	0.537590	0.663120	0.938100
H861	H86	0.533400	0.667100	0.866400
C1371	C137	0.507560	0.681030	0.009100
H871	H87	0.482100	0.697400	0.985100
C1381	C138	0.622040	0.607110	0.116400
C1391	C139	0.652860	0.616190	0.534700
C1401	C140	0.618310	0.638450	0.592200
C1411	C141	0.625290	0.641830	0.697500
H881	H88	0.601800	0.655700	0.736800
C1421	C142	0.665870	0.625430	0.746600
H891	H89	0.671800	0.629100	0.817900
C1431	C143	0.697310	0.603570	0.687700
H901	H90	0.725000	0.591700	0.720200
C1441	C144	0.575250	0.659950	0.545800
C1451	C145	0.394350	0.723580	0.121000
H911	H91	0.406200	0.707000	0.069400
C1461	C146	0.352540	0.744950	0.100700
H921	H92	0.336700	0.743600	0.035300
C1471	C147	0.333510	0.768620	0.176300
C1481	C148	0.359240	0.770180	0.269200
H931	H93	0.347700	0.785900	0.322900
C1491	C149	0.401810	0.748640	0.282900
H941	H94	0.419500	0.750600	0.346100
C1501	C150	0.234220	0.826670	0.046700
H951	H95	0.227000	0.835400	0.979400
C1511	C151	0.275840	0.804260	0.060200
H961	H96	0.296300	0.797800	0.003100
C1521	C152	0.287520	0.791250	0.158000
C1531	C153	0.255120	0.800780	0.238100
H971	H97	0.261200	0.792100	0.305900
C1541	C154	0.213890	0.823200	0.217100
H981	H98	0.191900	0.829300	0.272100
Zn151	Zn15	0.104690	0.631060	0.835370
Zn161	Zn16	0.976890	0.688900	0.744990
O431	O43	0.051140	0.653710	0.746850
O441	O44	0.128260	0.600790	0.710580
O451	O45	0.147050	0.591850	0.547100
O461	O46	0.152170	0.610040	0.938270
O471	O47	0.075300	0.666320	0.949620
O481	O48	0.041740	0.671290	0.105030
N291	N29	0.013040	0.676230	0.610420
N301	N30	0.190530	0.598360	0.086780
N311	N31	0.919090	0.725200	0.711080
N321	N32	0.703470	0.836710	0.623460
C1551	C155	0.050100	0.654080	0.648100
C1561	C156	0.081730	0.633880	0.580500
C1571	C157	0.074130	0.639060	0.475200
H991	H99	0.094500	0.625800	0.427800
C1581	C158	0.037590	0.663120	0.438100
H1001	H100	0.033400	0.667100	0.366400
C1591	C159	0.007560	0.681030	0.509100
H1011	H101	0.982100	0.697400	0.485100
C1601	C160	0.122040	0.607110	0.616400
C1611	C161	0.152860	0.616190	0.034700
C1621	C162	0.118310	0.638450	0.092200
C1631	C163	0.125290	0.641830	0.197500
H1021	H102	0.101800	0.655700	0.236800
C1641	C164	0.165870	0.625430	0.246600
H1031	H103	0.171800	0.629100	0.317900
C1651	C165	0.197310	0.603570	0.187700
H1041	H104	0.225000	0.591700	0.220200
C1661	C166	0.075250	0.659950	0.045800
C1671	C167	0.894350	0.723580	0.621000
H1051	H105	0.906200	0.707000	0.569400
C1681	C168	0.852540	0.744950	0.600700
H1061	H106	0.836700	0.743600	0.535300
C1691	C169	0.833510	0.768620	0.676300
C1701	C170	0.859240	0.770180	0.769200
H1071	H107	0.847700	0.785900	0.822900
C1711	C171	0.901810	0.748640	0.782900
H1081	H108	0.919500	0.750600	0.846100
C1721	C172	0.734220	0.826670	0.546700
H1091	H109	0.727000	0.835400	0.479400
C1731	C173	0.775840	0.804260	0.560200
H1101	H110	0.796300	0.797800	0.503100
C1741	C174	0.787520	0.791250	0.658000
C1751	C175	0.755120	0.800780	0.738100
H1111	H111	0.761200	0.792100	0.805900
C1761	C176	0.713890	0.823200	0.717100
H1121	H112	0.691900	0.829300	0.772100
Zn171	Zn17	0.645310	0.881060	0.585370
Zn181	Zn18	0.773110	0.938900	0.494990
O491	O49	0.698860	0.903710	0.496850
O501	O50	0.621740	0.850790	0.460580
O511	O51	0.602950	0.841850	0.297100
O521	O52	0.597830	0.860040	0.688270
O531	O53	0.674700	0.916320	0.699620
O541	O54	0.708260	0.921290	0.855030
N331	N33	0.736960	0.926230	0.360420
N341	N34	0.559470	0.848360	0.836780
N351	N35	0.830910	0.975200	0.461080
N361	N36	0.046530	0.086710	0.373460
C1771	C177	0.699900	0.904080	0.398100
C1781	C178	0.668270	0.883880	0.330500
C1791	C179	0.675870	0.889060	0.225200
H1131	H113	0.655500	0.875800	0.177800
C1801	C180	0.712410	0.913120	0.188100
H1141	H114	0.716600	0.917100	0.116400
C1811	C181	0.742440	0.931030	0.259100
H1151	H115	0.767900	0.947400	0.235100
C1821	C182	0.627960	0.857110	0.366400
C1831	C183	0.597140	0.866190	0.784700
C1841	C184	0.631690	0.888450	0.842200
C1851	C185	0.624710	0.891830	0.947500
H1161	H116	0.648200	0.905700	0.986800
C1861	C186	0.584130	0.875430	0.996600
H1171	H117	0.578200	0.879100	0.067900
C1871	C187	0.552690	0.853570	0.937700
H1181	H118	0.525000	0.841700	0.970200
C1881	C188	0.674750	0.909950	0.795800
C1891	C189	0.855650	0.973580	0.371000
H1191	H119	0.843800	0.957000	0.319400
C1901	C190	0.897460	0.994950	0.350700
H1201	H120	0.913300	0.993600	0.285300
C1911	C191	0.916490	0.018620	0.426300
C1921	C192	0.890760	0.020180	0.519200
H1211	H121	0.902300	0.035900	0.572900
C1931	C193	0.848190	0.998640	0.532900
H1221	H122	0.830500	0.000600	0.596100
C1941	C194	0.015780	0.076670	0.296700
H1231	H123	0.023000	0.085400	0.229400
C1951	C195	0.974160	0.054260	0.310200
H1241	H124	0.953700	0.047800	0.253100
C1961	C196	0.962480	0.041250	0.408000
C1971	C197	0.994880	0.050780	0.488100
H1251	H125	0.988800	0.042100	0.555900
C1981	C198	0.036110	0.073200	0.467100
H1261	H126	0.058100	0.079300	0.522100
Zn191	Zn19	0.145310	0.881060	0.085370
Zn201	Zn20	0.273110	0.938900	0.994990
O551	O55	0.198860	0.903710	0.996850
O561	O56	0.121740	0.850790	0.960580
O571	O57	0.102950	0.841850	0.797100
O581	O58	0.097830	0.860040	0.188270
O591	O59	0.174700	0.916320	0.199620
O601	O60	0.208260	0.921290	0.355030
N371	N37	0.236960	0.926230	0.860420
N381	N38	0.059470	0.848360	0.336780
N391	N39	0.330910	0.975200	0.961080
N401	N40	0.546530	0.086710	0.873460
C1991	C199	0.199900	0.904080	0.898100
C2001	C200	0.168270	0.883880	0.830500
C2011	C201	0.175870	0.889060	0.725200
H1271	H127	0.155500	0.875800	0.677800
C2021	C202	0.212410	0.913120	0.688100
H1281	H128	0.216600	0.917100	0.616400
C2031	C203	0.242440	0.931030	0.759100
H1291	H129	0.267900	0.947400	0.735100
C2041	C204	0.127960	0.857110	0.866400
C2051	C205	0.097140	0.866190	0.284700
C2061	C206	0.131690	0.888450	0.342200
C2071	C207	0.124710	0.891830	0.447500
H1301	H130	0.148200	0.905700	0.486800
C2081	C208	0.084130	0.875430	0.496600
H1311	H131	0.078200	0.879100	0.567900
C2091	C209	0.052690	0.853570	0.437700
H1321	H132	0.025000	0.841700	0.470200
C2101	C210	0.174750	0.909950	0.295800
C2111	C211	0.355650	0.973580	0.871000
H1331	H133	0.343800	0.957000	0.819400
C2121	C212	0.397460	0.994950	0.850700
H1341	H134	0.413300	0.993600	0.785300
C2131	C213	0.416490	0.018620	0.926300
C2141	C214	0.390760	0.020180	0.019200
H1351	H135	0.402300	0.035900	0.072900
C2151	C215	0.348190	0.998640	0.032900
H1361	H136	0.330500	0.000600	0.096100
C2161	C216	0.515780	0.076670	0.796700
H1371	H137	0.523000	0.085400	0.729400
C2171	C217	0.474160	0.054260	0.810200
H1381	H138	0.453700	0.047800	0.753100
C2181	C218	0.462480	0.041250	0.908000
C2191	C219	0.494880	0.050780	0.988100
H1391	H139	0.488800	0.042100	0.055900
C2201	C220	0.536110	0.073200	0.967100
H1401	H140	0.558100	0.079300	0.022100
Zn211	Zn21	0.895310	0.868940	0.335370
Zn221	Zn22	0.023110	0.811100	0.244990
O611	O61	0.948860	0.846290	0.246850
O621	O62	0.871740	0.899210	0.210580
O631	O63	0.852950	0.908150	0.047100
O641	O64	0.847830	0.889960	0.438270
O651	O65	0.924700	0.833680	0.449620
O661	O66	0.958260	0.828710	0.605030
N411	N41	0.986960	0.823770	0.110420
N421	N42	0.809470	0.901640	0.586780
N431	N43	0.080910	0.774800	0.211080
N441	N44	0.296530	0.663290	0.123460
C2211	C221	0.949900	0.845920	0.148100
C2221	C222	0.918270	0.866120	0.080500
C2231	C223	0.925870	0.860940	0.975200
H1411	H141	0.905500	0.874200	0.927800
C2241	C224	0.962410	0.836880	0.938100
H1421	H142	0.966600	0.832900	0.866400
C2251	C225	0.992440	0.818970	0.009100
H1431	H143	0.017900	0.802600	0.985100
C2261	C226	0.877960	0.892890	0.116400
C2271	C227	0.847140	0.883810	0.534700
C2281	C228	0.881690	0.861550	0.592200
C2291	C229	0.874710	0.858170	0.697500
H1441	H144	0.898200	0.844300	0.736800
C2301	C230	0.834130	0.874570	0.746600
H1451	H145	0.828200	0.870900	0.817900
C2311	C231	0.802690	0.896430	0.687700
H1461	H146	0.775000	0.908300	0.720200
C2321	C232	0.924750	0.840050	0.545800
C2331	C233	0.105650	0.776420	0.121000
H1471	H147	0.093800	0.793000	0.069400
C2341	C234	0.147460	0.755050	0.100700
H1481	H148	0.163300	0.756400	0.035300
C2351	C235	0.166490	0.731380	0.176300
C2361	C236	0.140760	0.729820	0.269200
H1491	H149	0.152300	0.714100	0.322900
C2371	C237	0.098190	0.751360	0.282900
H1501	H150	0.080500	0.749400	0.346100
C2381	C238	0.265780	0.673330	0.046700
H1511	H151	0.273000	0.664600	0.979400
C2391	C239	0.224160	0.695740	0.060200
H1521	H152	0.203700	0.702200	0.003100
C2401	C240	0.212480	0.708750	0.158000
C2411	C241	0.244880	0.699220	0.238100
H1531	H153	0.238800	0.707900	0.305900
C2421	C242	0.286110	0.676800	0.217100
H1541	H154	0.308100	0.670700	0.272100
Zn231	Zn23	0.395310	0.868940	0.835370
Zn241	Zn24	0.523110	0.811100	0.744990
O671	O67	0.448860	0.846290	0.746850
O681	O68	0.371740	0.899210	0.710580
O691	O69	0.352950	0.908150	0.547100
O701	O70	0.347830	0.889960	0.938270
O711	O71	0.424700	0.833680	0.949620
O721	O72	0.458260	0.828710	0.105030
N451	N45	0.486960	0.823770	0.610420
N461	N46	0.309470	0.901640	0.086780
N471	N47	0.580910	0.774800	0.711080
N481	N48	0.796530	0.663290	0.623460
C2431	C243	0.449900	0.845920	0.648100
C2441	C244	0.418270	0.866120	0.580500
C2451	C245	0.425870	0.860940	0.475200
H1551	H155	0.405500	0.874200	0.427800
C2461	C246	0.462410	0.836880	0.438100
H1561	H156	0.466600	0.832900	0.366400
C2471	C247	0.492440	0.818970	0.509100
H1571	H157	0.517900	0.802600	0.485100
C2481	C248	0.377960	0.892890	0.616400
C2491	C249	0.347140	0.883810	0.034700
C2501	C250	0.381690	0.861550	0.092200
C2511	C251	0.374710	0.858170	0.197500
H1581	H158	0.398200	0.844300	0.236800
C2521	C252	0.334130	0.874570	0.246600
H1591	H159	0.328200	0.870900	0.317900
C2531	C253	0.302690	0.896430	0.187700
H1601	H160	0.275000	0.908300	0.220200
C2541	C254	0.424750	0.840050	0.045800
C2551	C255	0.605650	0.776420	0.621000
H1611	H161	0.593800	0.793000	0.569400
C2561	C256	0.647460	0.755050	0.600700
H1621	H162	0.663300	0.756400	0.535300
C2571	C257	0.666490	0.731380	0.676300
C2581	C258	0.640760	0.729820	0.769200
H1631	H163	0.652300	0.714100	0.822900
C2591	C259	0.598190	0.751360	0.782900
H1641	H164	0.580500	0.749400	0.846100
C2601	C260	0.765780	0.673330	0.546700
H1651	H165	0.773000	0.664600	0.479400
C2611	C261	0.724160	0.695740	0.560200
H1661	H166	0.703700	0.702200	0.503100
C2621	C262	0.712480	0.708750	0.658000
C2631	C263	0.744880	0.699220	0.738100
H1671	H167	0.738800	0.707900	0.805900
C2641	C264	0.786110	0.676800	0.717100
H1681	H168	0.808100	0.670700	0.772100
Zn251	Zn25	0.645310	0.381060	0.085370
Zn261	Zn26	0.773110	0.438900	0.994990
O731	O73	0.698860	0.403710	0.996850
O741	O74	0.621740	0.350790	0.960580
O751	O75	0.602950	0.341850	0.797100
O761	O76	0.597830	0.360040	0.188270
O771	O77	0.674700	0.416320	0.199620
O781	O78	0.708260	0.421290	0.355030
N491	N49	0.736960	0.426230	0.860420
N501	N50	0.559470	0.348360	0.336780
N511	N51	0.830910	0.475200	0.961080
N521	N52	0.046530	0.586710	0.873460
C2651	C265	0.699900	0.404080	0.898100
C2661	C266	0.668270	0.383880	0.830500
C2671	C267	0.675870	0.389060	0.725200
H1691	H169	0.655500	0.375800	0.677800
C2681	C268	0.712410	0.413120	0.688100
H1701	H170	0.716600	0.417100	0.616400
C2691	C269	0.742440	0.431030	0.759100
H1711	H171	0.767900	0.447400	0.735100
C2701	C270	0.627960	0.357110	0.866400
C2711	C271	0.597140	0.366190	0.284700
C2721	C272	0.631690	0.388450	0.342200
C2731	C273	0.624710	0.391830	0.447500
H1721	H172	0.648200	0.405700	0.486800
C2741	C274	0.584130	0.375430	0.496600
H1731	H173	0.578200	0.379100	0.567900
C2751	C275	0.552690	0.353570	0.437700
H1741	H174	0.525000	0.341700	0.470200
C2761	C276	0.674750	0.409950	0.295800
C2771	C277	0.855650	0.473580	0.871000
H1751	H175	0.843800	0.457000	0.819400
C2781	C278	0.897460	0.494950	0.850700
H1761	H176	0.913300	0.493600	0.785300
C2791	C279	0.916490	0.518620	0.926300
C2801	C280	0.890760	0.520180	0.019200
H1771	H177	0.902300	0.535900	0.072900
C2811	C281	0.848190	0.498640	0.032900
H1781	H178	0.830500	0.500600	0.096100
C2821	C282	0.015780	0.576670	0.796700
H1791	H179	0.023000	0.585400	0.729400
C2831	C283	0.974160	0.554260	0.810200
H1801	H180	0.953700	0.547800	0.753100
C2841	C284	0.962480	0.541250	0.908000
C2851	C285	0.994880	0.550780	0.988100
H1811	H181	0.988800	0.542100	0.055900
C2861	C286	0.036110	0.573200	0.967100
H1821	H182	0.058100	0.579300	0.022100
Zn271	Zn27	0.145310	0.381060	0.585370
Zn281	Zn28	0.273110	0.438900	0.494990
O791	O79	0.198860	0.403710	0.496850
O801	O80	0.121740	0.350790	0.460580
O811	O81	0.102950	0.341850	0.297100
O821	O82	0.097830	0.360040	0.688270
O831	O83	0.174700	0.416320	0.699620
O841	O84	0.208260	0.421290	0.855030
N531	N53	0.236960	0.426230	0.360420
N541	N54	0.059470	0.348360	0.836780
N551	N55	0.330910	0.475200	0.461080
N561	N56	0.546530	0.586710	0.373460
C2871	C287	0.199900	0.404080	0.398100
C2881	C288	0.168270	0.383880	0.330500
C2891	C289	0.175870	0.389060	0.225200
H1831	H183	0.155500	0.375800	0.177800
C2901	C290	0.212410	0.413120	0.188100
H1841	H184	0.216600	0.417100	0.116400
C2911	C291	0.242440	0.431030	0.259100
H1851	H185	0.267900	0.447400	0.235100
C2921	C292	0.127960	0.357110	0.366400
C2931	C293	0.097140	0.366190	0.784700
C2941	C294	0.131690	0.388450	0.842200
C2951	C295	0.124710	0.391830	0.947500
H1861	H186	0.148200	0.405700	0.986800
C2961	C296	0.084130	0.375430	0.996600
H1871	H187	0.078200	0.379100	0.067900
C2971	C297	0.052690	0.353570	0.937700
H1881	H188	0.025000	0.341700	0.970200
C2981	C298	0.174750	0.409950	0.795800
C2991	C299	0.355650	0.473580	0.371000
H1891	H189	0.343800	0.457000	0.319400
C3001	C300	0.397460	0.494950	0.350700
H1901	H190	0.413300	0.493600	0.285300
C3011	C301	0.416490	0.518620	0.426300
C3021	C302	0.390760	0.520180	0.519200
H1911	H191	0.402300	0.535900	0.572900
C3031	C303	0.348190	0.498640	0.532900
H1921	H192	0.330500	0.500600	0.596100
C3041	C304	0.515780	0.576670	0.296700
H1931	H193	0.523000	0.585400	0.229400
C3051	C305	0.474160	0.554260	0.310200
H1941	H194	0.453700	0.547800	0.253100
C3061	C306	0.462480	0.541250	0.408000
C3071	C307	0.494880	0.550780	0.488100
H1951	H195	0.488800	0.542100	0.555900
C3081	C308	0.536110	0.573200	0.467100
H1961	H196	0.558100	0.579300	0.522100
Zn291	Zn29	0.895310	0.368940	0.835370
Zn301	Zn30	0.023110	0.311100	0.744990
O851	O85	0.948860	0.346290	0.746850
O861	O86	0.871740	0.399210	0.710580
O871	O87	0.852950	0.408150	0.547100
O881	O88	0.847830	0.389960	0.938270
O891	O89	0.924700	0.333680	0.949620
O901	O90	0.958260	0.328710	0.105030
N571	N57	0.986960	0.323770	0.610420
N581	N58	0.809470	0.401640	0.086780
N591	N59	0.080910	0.274800	0.711080
N601	N60	0.296530	0.163290	0.623460
C3091	C309	0.949900	0.345920	0.648100
C3101	C310	0.918270	0.366120	0.580500
C3111	C311	0.925870	0.360940	0.475200
H1971	H197	0.905500	0.374200	0.427800
C3121	C312	0.962410	0.336880	0.438100
H1981	H198	0.966600	0.332900	0.366400
C3131	C313	0.992440	0.318970	0.509100
H1991	H199	0.017900	0.302600	0.485100
C3141	C314	0.877960	0.392890	0.616400
C3151	C315	0.847140	0.383810	0.034700
C3161	C316	0.881690	0.361550	0.092200
C3171	C317	0.874710	0.358170	0.197500
H2001	H200	0.898200	0.344300	0.236800
C3181	C318	0.834130	0.374570	0.246600
H2011	H201	0.828200	0.370900	0.317900
C3191	C319	0.802690	0.396430	0.187700
H2021	H202	0.775000	0.408300	0.220200
C3201	C320	0.924750	0.340050	0.045800
C3211	C321	0.105650	0.276420	0.621000
H2031	H203	0.093800	0.293000	0.569400
C3221	C322	0.147460	0.255050	0.600700
H2041	H204	0.163300	0.256400	0.535300
C3231	C323	0.166490	0.231380	0.676300
C3241	C324	0.140760	0.229820	0.769200
H2051	H205	0.152300	0.214100	0.822900
C3251	C325	0.098190	0.251360	0.782900
H2061	H206	0.080500	0.249400	0.846100
C3261	C326	0.265780	0.173330	0.546700
H2071	H207	0.273000	0.164600	0.479400
C3271	C327	0.224160	0.195740	0.560200
H2081	H208	0.203700	0.202200	0.503100
C3281	C328	0.212480	0.208750	0.658000
C3291	C329	0.244880	0.199220	0.738100
H2091	H209	0.238800	0.207900	0.805900
C3301	C330	0.286110	0.176800	0.717100
H2101	H210	0.308100	0.170700	0.772100
Zn311	Zn31	0.395310	0.368940	0.335370
Zn321	Zn32	0.523110	0.311100	0.244990
O911	O91	0.448860	0.346290	0.246850
O921	O92	0.371740	0.399210	0.210580
O931	O93	0.352950	0.408150	0.047100
O941	O94	0.347830	0.389960	0.438270
O951	O95	0.424700	0.333680	0.449620
O961	O96	0.458260	0.328710	0.605030
N611	N61	0.486960	0.323770	0.110420
N621	N62	0.309470	0.401640	0.586780
N631	N63	0.580910	0.274800	0.211080
N641	N64	0.796530	0.163290	0.123460
C3311	C331	0.449900	0.345920	0.148100
C3321	C332	0.418270	0.366120	0.080500
C3331	C333	0.425870	0.360940	0.975200
H2111	H211	0.405500	0.374200	0.927800
C3341	C334	0.462410	0.336880	0.938100
H2121	H212	0.466600	0.332900	0.866400
C3351	C335	0.492440	0.318970	0.009100
H2131	H213	0.517900	0.302600	0.985100
C3361	C336	0.377960	0.392890	0.116400
C3371	C337	0.347140	0.383810	0.534700
C3381	C338	0.381690	0.361550	0.592200
C3391	C339	0.374710	0.358170	0.697500
H2141	H214	0.398200	0.344300	0.736800
C3401	C340	0.334130	0.374570	0.746600
H2151	H215	0.328200	0.370900	0.817900
C3411	C341	0.302690	0.396430	0.687700
H2161	H216	0.275000	0.408300	0.720200
C3421	C342	0.424750	0.340050	0.545800
C3431	C343	0.605650	0.276420	0.121000
H2171	H217	0.593800	0.293000	0.069400
C3441	C344	0.647460	0.255050	0.100700
H2181	H218	0.663300	0.256400	0.035300
C3451	C345	0.666490	0.231380	0.176300
C3461	C346	0.640760	0.229820	0.269200
H2191	H219	0.652300	0.214100	0.322900
C3471	C347	0.598190	0.251360	0.282900
H2201	H220	0.580500	0.249400	0.346100
C3481	C348	0.765780	0.173330	0.046700
H2211	H221	0.773000	0.164600	0.979400
C3491	C349	0.724160	0.195740	0.060200
H2221	H222	0.703700	0.202200	0.003100
C3501	C350	0.712480	0.208750	0.158000
C3511	C351	0.744880	0.199220	0.238100
H2231	H223	0.738800	0.207900	0.305900
C3521	C352	0.786110	0.176800	0.217100
H2241	H224	0.808100	0.170700	0.272100
