data_SUVNEE_clean_PM
_symmetry_space_group_name_H-M	'P1'
_cell_length_a	41.469400
_cell_length_b	41.469400
_cell_length_c	41.469400
_cell_angle_alpha	90.000000
_cell_angle_beta	90.000000
_cell_angle_gamma	90.000000
_symmetry_Int_Tables_number 1

loop_
_symmetry_equiv_pos_as_xyz
'x,y,z'

loop_
_atom_site_label
_atom_site_type_symbol
_atom_site_fract_x
_atom_site_fract_y
_atom_site_fract_z
O11	O1	0.170050	0.132080	0.083370
C11	C1	0.169680	0.128190	0.016770
H11	H1	0.183000	0.114100	0.028000
O21	O2	0.209800	0.124060	0.172640
C21	C2	0.218200	0.123300	0.257700
H21	H2	0.196500	0.123700	0.263700
O31	O3	0.170050	0.632080	0.583370
C31	C3	0.169680	0.628190	0.516770
H31	H3	0.183000	0.614100	0.528000
O41	O4	0.209800	0.624060	0.672640
C41	C4	0.218200	0.623300	0.757700
H41	H4	0.196500	0.623700	0.763700
O51	O5	0.670050	0.132080	0.583370
C51	C5	0.669680	0.128190	0.516770
H51	H5	0.683000	0.114100	0.528000
O61	O6	0.709800	0.124060	0.672640
C61	C6	0.718200	0.123300	0.757700
H61	H6	0.696500	0.123700	0.763700
O71	O7	0.670050	0.632080	0.083370
C71	C7	0.669680	0.628190	0.016770
H71	H7	0.683000	0.614100	0.028000
O81	O8	0.709800	0.624060	0.172640
C81	C8	0.718200	0.623300	0.257700
H81	H8	0.696500	0.623700	0.263700
O91	O9	0.829950	0.867920	0.083370
C91	C9	0.830320	0.871810	0.016770
H91	H9	0.817000	0.885900	0.028000
O101	O10	0.790200	0.875940	0.172640
C101	C10	0.781800	0.876700	0.257700
H101	H10	0.803500	0.876300	0.263700
O111	O11	0.829950	0.367920	0.583370
C111	C11	0.830320	0.371810	0.516770
H111	H11	0.817000	0.385900	0.528000
O121	O12	0.790200	0.375940	0.672640
C121	C12	0.781800	0.376700	0.757700
H121	H12	0.803500	0.376300	0.763700
O131	O13	0.329950	0.867920	0.583370
C131	C13	0.330320	0.871810	0.516770
H131	H13	0.317000	0.885900	0.528000
O141	O14	0.290200	0.875940	0.672640
C141	C14	0.281800	0.876700	0.757700
H141	H14	0.303500	0.876300	0.763700
O151	O15	0.329950	0.367920	0.083370
C151	C15	0.330320	0.371810	0.016770
H151	H15	0.317000	0.385900	0.028000
O161	O16	0.290200	0.375940	0.172640
C161	C16	0.281800	0.376700	0.257700
H161	H16	0.303500	0.376300	0.263700
O171	O17	0.829950	0.132080	0.916630
C171	C17	0.830320	0.128190	0.983230
H171	H17	0.817000	0.114100	0.972000
O181	O18	0.790200	0.124060	0.827360
C181	C18	0.781800	0.123300	0.742300
H181	H18	0.803500	0.123700	0.736300
O191	O19	0.829950	0.632080	0.416630
C191	C19	0.830320	0.628190	0.483230
H191	H19	0.817000	0.614100	0.472000
O201	O20	0.790200	0.624060	0.327360
C201	C20	0.781800	0.623300	0.242300
H201	H20	0.803500	0.623700	0.236300
O211	O21	0.329950	0.132080	0.416630
C211	C21	0.330320	0.128190	0.483230
H211	H21	0.317000	0.114100	0.472000
O221	O22	0.290200	0.124060	0.327360
C221	C22	0.281800	0.123300	0.242300
H221	H22	0.303500	0.123700	0.236300
O231	O23	0.329950	0.632080	0.916630
C231	C23	0.330320	0.628190	0.983230
H231	H23	0.317000	0.614100	0.972000
O241	O24	0.290200	0.624060	0.827360
C241	C24	0.281800	0.623300	0.742300
H241	H24	0.303500	0.623700	0.736300
O251	O25	0.170050	0.867920	0.916630
C251	C25	0.169680	0.871810	0.983230
H251	H25	0.183000	0.885900	0.972000
O261	O26	0.209800	0.875940	0.827360
C261	C26	0.218200	0.876700	0.742300
H261	H26	0.196500	0.876300	0.736300
O271	O27	0.170050	0.367920	0.416630
C271	C27	0.169680	0.371810	0.483230
H271	H27	0.183000	0.385900	0.472000
O281	O28	0.209800	0.375940	0.327360
C281	C28	0.218200	0.376700	0.242300
H281	H28	0.196500	0.376300	0.236300
O291	O29	0.670050	0.867920	0.416630
C291	C29	0.669680	0.871810	0.483230
H291	H29	0.683000	0.885900	0.472000
O301	O30	0.709800	0.875940	0.327360
C301	C30	0.718200	0.876700	0.242300
H301	H30	0.696500	0.876300	0.236300
O311	O31	0.670050	0.367920	0.916630
C311	C31	0.669680	0.371810	0.983230
H311	H31	0.683000	0.385900	0.972000
O321	O32	0.709800	0.375940	0.827360
C321	C32	0.718200	0.376700	0.742300
H321	H32	0.696500	0.376300	0.736300
O331	O33	0.083370	0.170050	0.132080
C331	C33	0.016770	0.169680	0.128190
H331	H33	0.028000	0.183000	0.114100
O341	O34	0.172640	0.209800	0.124060
C341	C34	0.257700	0.218200	0.123300
H341	H34	0.263700	0.196500	0.123700
O351	O35	0.083370	0.670050	0.632080
C351	C35	0.016770	0.669680	0.628190
H351	H35	0.028000	0.683000	0.614100
O361	O36	0.172640	0.709800	0.624060
C361	C36	0.257700	0.718200	0.623300
H361	H36	0.263700	0.696500	0.623700
O371	O37	0.583370	0.170050	0.632080
C371	C37	0.516770	0.169680	0.628190
H371	H37	0.528000	0.183000	0.614100
O381	O38	0.672640	0.209800	0.624060
C381	C38	0.757700	0.218200	0.623300
H381	H38	0.763700	0.196500	0.623700
O391	O39	0.583370	0.670050	0.132080
C391	C39	0.516770	0.669680	0.128190
H391	H39	0.528000	0.683000	0.114100
O401	O40	0.672640	0.709800	0.124060
C401	C40	0.757700	0.718200	0.123300
H401	H40	0.763700	0.696500	0.123700
O411	O41	0.083370	0.829950	0.867920
C411	C41	0.016770	0.830320	0.871810
H411	H41	0.028000	0.817000	0.885900
O421	O42	0.172640	0.790200	0.875940
C421	C42	0.257700	0.781800	0.876700
H421	H42	0.263700	0.803500	0.876300
O431	O43	0.083370	0.329950	0.367920
C431	C43	0.016770	0.330320	0.371810
H431	H43	0.028000	0.317000	0.385900
O441	O44	0.172640	0.290200	0.375940
C441	C44	0.257700	0.281800	0.376700
H441	H44	0.263700	0.303500	0.376300
O451	O45	0.583370	0.829950	0.367920
C451	C45	0.516770	0.830320	0.371810
H451	H45	0.528000	0.817000	0.385900
O461	O46	0.672640	0.790200	0.375940
C461	C46	0.757700	0.781800	0.376700
H461	H46	0.763700	0.803500	0.376300
O471	O47	0.583370	0.329950	0.867920
C471	C47	0.516770	0.330320	0.871810
H471	H47	0.528000	0.317000	0.885900
O481	O48	0.672640	0.290200	0.875940
C481	C48	0.757700	0.281800	0.876700
H481	H48	0.763700	0.303500	0.876300
O491	O49	0.916630	0.829950	0.132080
C491	C49	0.983230	0.830320	0.128190
H491	H49	0.972000	0.817000	0.114100
O501	O50	0.827360	0.790200	0.124060
C501	C50	0.742300	0.781800	0.123300
H501	H50	0.736300	0.803500	0.123700
O511	O51	0.916630	0.329950	0.632080
C511	C51	0.983230	0.330320	0.628190
H511	H51	0.972000	0.317000	0.614100
O521	O52	0.827360	0.290200	0.624060
C521	C52	0.742300	0.281800	0.623300
H521	H52	0.736300	0.303500	0.623700
O531	O53	0.416630	0.829950	0.632080
C531	C53	0.483230	0.830320	0.628190
H531	H53	0.472000	0.817000	0.614100
O541	O54	0.327360	0.790200	0.624060
C541	C54	0.242300	0.781800	0.623300
H541	H54	0.236300	0.803500	0.623700
O551	O55	0.416630	0.329950	0.132080
C551	C55	0.483230	0.330320	0.128190
H551	H55	0.472000	0.317000	0.114100
O561	O56	0.327360	0.290200	0.124060
C561	C56	0.242300	0.281800	0.123300
H561	H56	0.236300	0.303500	0.123700
O571	O57	0.916630	0.170050	0.867920
C571	C57	0.983230	0.169680	0.871810
H571	H57	0.972000	0.183000	0.885900
O581	O58	0.827360	0.209800	0.875940
C581	C58	0.742300	0.218200	0.876700
H581	H58	0.736300	0.196500	0.876300
O591	O59	0.916630	0.670050	0.367920
C591	C59	0.983230	0.669680	0.371810
H591	H59	0.972000	0.683000	0.385900
O601	O60	0.827360	0.709800	0.375940
C601	C60	0.742300	0.718200	0.376700
H601	H60	0.736300	0.696500	0.376300
O611	O61	0.416630	0.170050	0.367920
C611	C61	0.483230	0.169680	0.371810
H611	H61	0.472000	0.183000	0.385900
O621	O62	0.327360	0.209800	0.375940
C621	C62	0.242300	0.218200	0.376700
H621	H62	0.236300	0.196500	0.376300
O631	O63	0.416630	0.670050	0.867920
C631	C63	0.483230	0.669680	0.871810
H631	H63	0.472000	0.683000	0.885900
O641	O64	0.327360	0.709800	0.875940
C641	C64	0.242300	0.718200	0.876700
H641	H64	0.236300	0.696500	0.876300
O651	O65	0.132080	0.083370	0.170050
C651	C65	0.128190	0.016770	0.169680
H651	H65	0.114100	0.028000	0.183000
O661	O66	0.124060	0.172640	0.209800
C661	C66	0.123300	0.257700	0.218200
H661	H66	0.123700	0.263700	0.196500
O671	O67	0.132080	0.583370	0.670050
C671	C67	0.128190	0.516770	0.669680
H671	H67	0.114100	0.528000	0.683000
O681	O68	0.124060	0.672640	0.709800
C681	C68	0.123300	0.757700	0.718200
H681	H68	0.123700	0.763700	0.696500
O691	O69	0.632080	0.083370	0.670050
C691	C69	0.628190	0.016770	0.669680
H691	H69	0.614100	0.028000	0.683000
O701	O70	0.624060	0.172640	0.709800
C701	C70	0.623300	0.257700	0.718200
H701	H70	0.623700	0.263700	0.696500
O711	O71	0.632080	0.583370	0.170050
C711	C71	0.628190	0.516770	0.169680
H711	H71	0.614100	0.528000	0.183000
O721	O72	0.624060	0.672640	0.209800
C721	C72	0.623300	0.757700	0.218200
H721	H72	0.623700	0.763700	0.196500
O731	O73	0.867920	0.083370	0.829950
C731	C73	0.871810	0.016770	0.830320
H731	H73	0.885900	0.028000	0.817000
O741	O74	0.875940	0.172640	0.790200
C741	C74	0.876700	0.257700	0.781800
H741	H74	0.876300	0.263700	0.803500
O751	O75	0.867920	0.583370	0.329950
C751	C75	0.871810	0.516770	0.330320
H751	H75	0.885900	0.528000	0.317000
O761	O76	0.875940	0.672640	0.290200
C761	C76	0.876700	0.757700	0.281800
H761	H76	0.876300	0.763700	0.303500
O771	O77	0.367920	0.083370	0.329950
C771	C77	0.371810	0.016770	0.330320
H771	H77	0.385900	0.028000	0.317000
O781	O78	0.375940	0.172640	0.290200
C781	C78	0.376700	0.257700	0.281800
H781	H78	0.376300	0.263700	0.303500
O791	O79	0.367920	0.583370	0.829950
C791	C79	0.371810	0.516770	0.830320
H791	H79	0.385900	0.528000	0.817000
O801	O80	0.375940	0.672640	0.790200
C801	C80	0.376700	0.757700	0.781800
H801	H80	0.376300	0.763700	0.803500
O811	O81	0.132080	0.916630	0.829950
C811	C81	0.128190	0.983230	0.830320
H811	H81	0.114100	0.972000	0.817000
O821	O82	0.124060	0.827360	0.790200
C821	C82	0.123300	0.742300	0.781800
H821	H82	0.123700	0.736300	0.803500
O831	O83	0.132080	0.416630	0.329950
C831	C83	0.128190	0.483230	0.330320
H831	H83	0.114100	0.472000	0.317000
O841	O84	0.124060	0.327360	0.290200
C841	C84	0.123300	0.242300	0.281800
H841	H84	0.123700	0.236300	0.303500
O851	O85	0.632080	0.916630	0.329950
C851	C85	0.628190	0.983230	0.330320
H851	H85	0.614100	0.972000	0.317000
O861	O86	0.624060	0.827360	0.290200
C861	C86	0.623300	0.742300	0.281800
H861	H86	0.623700	0.736300	0.303500
O871	O87	0.632080	0.416630	0.829950
C871	C87	0.628190	0.483230	0.830320
H871	H87	0.614100	0.472000	0.817000
O881	O88	0.624060	0.327360	0.790200
C881	C88	0.623300	0.242300	0.781800
H881	H88	0.623700	0.236300	0.803500
O891	O89	0.867920	0.916630	0.170050
C891	C89	0.871810	0.983230	0.169680
H891	H89	0.885900	0.972000	0.183000
O901	O90	0.875940	0.827360	0.209800
C901	C90	0.876700	0.742300	0.218200
H901	H90	0.876300	0.736300	0.196500
O911	O91	0.867920	0.416630	0.670050
C911	C91	0.871810	0.483230	0.669680
H911	H91	0.885900	0.472000	0.683000
O921	O92	0.875940	0.327360	0.709800
C921	C92	0.876700	0.242300	0.718200
H921	H92	0.876300	0.236300	0.696500
O931	O93	0.367920	0.916630	0.670050
C931	C93	0.371810	0.983230	0.669680
H931	H93	0.385900	0.972000	0.683000
O941	O94	0.375940	0.827360	0.709800
C941	C94	0.376700	0.742300	0.718200
H941	H94	0.376300	0.736300	0.696500
O951	O95	0.367920	0.416630	0.170050
C951	C95	0.371810	0.483230	0.169680
H951	H95	0.385900	0.472000	0.183000
O961	O96	0.375940	0.327360	0.209800
C961	C96	0.376700	0.242300	0.218200
H961	H96	0.376300	0.236300	0.196500
O971	O97	0.132080	0.170050	0.916630
C971	C97	0.128190	0.169680	0.983230
H971	H97	0.114100	0.183000	0.972000
O981	O98	0.124060	0.209800	0.827360
C981	C98	0.123300	0.218200	0.742300
H981	H98	0.123700	0.196500	0.736300
O991	O99	0.132080	0.670050	0.416630
C991	C99	0.128190	0.669680	0.483230
H991	H99	0.114100	0.683000	0.472000
O1001	O100	0.124060	0.709800	0.327360
C1001	C100	0.123300	0.718200	0.242300
H1001	H100	0.123700	0.696500	0.236300
O1011	O101	0.632080	0.170050	0.416630
C1011	C101	0.628190	0.169680	0.483230
H1011	H101	0.614100	0.183000	0.472000
O1021	O102	0.624060	0.209800	0.327360
C1021	C102	0.623300	0.218200	0.242300
H1021	H102	0.623700	0.196500	0.236300
O1031	O103	0.632080	0.670050	0.916630
C1031	C103	0.628190	0.669680	0.983230
H1031	H103	0.614100	0.683000	0.972000
O1041	O104	0.624060	0.709800	0.827360
C1041	C104	0.623300	0.718200	0.742300
H1041	H104	0.623700	0.696500	0.736300
O1051	O105	0.867920	0.829950	0.916630
C1051	C105	0.871810	0.830320	0.983230
H1051	H105	0.885900	0.817000	0.972000
O1061	O106	0.875940	0.790200	0.827360
C1061	C106	0.876700	0.781800	0.742300
H1061	H106	0.876300	0.803500	0.736300
O1071	O107	0.867920	0.329950	0.416630
C1071	C107	0.871810	0.330320	0.483230
H1071	H107	0.885900	0.317000	0.472000
O1081	O108	0.875940	0.290200	0.327360
C1081	C108	0.876700	0.281800	0.242300
H1081	H108	0.876300	0.303500	0.236300
O1091	O109	0.367920	0.829950	0.416630
C1091	C109	0.371810	0.830320	0.483230
H1091	H109	0.385900	0.817000	0.472000
O1101	O110	0.375940	0.790200	0.327360
C1101	C110	0.376700	0.781800	0.242300
H1101	H110	0.376300	0.803500	0.236300
O1111	O111	0.367920	0.329950	0.916630
C1111	C111	0.371810	0.330320	0.983230
H1111	H111	0.385900	0.317000	0.972000
O1121	O112	0.375940	0.290200	0.827360
C1121	C112	0.376700	0.281800	0.742300
H1121	H112	0.376300	0.303500	0.736300
O1131	O113	0.132080	0.829950	0.083370
C1131	C113	0.128190	0.830320	0.016770
H1131	H113	0.114100	0.817000	0.028000
O1141	O114	0.124060	0.790200	0.172640
C1141	C114	0.123300	0.781800	0.257700
H1141	H114	0.123700	0.803500	0.263700
O1151	O115	0.132080	0.329950	0.583370
C1151	C115	0.128190	0.330320	0.516770
H1151	H115	0.114100	0.317000	0.528000
O1161	O116	0.124060	0.290200	0.672640
C1161	C116	0.123300	0.281800	0.757700
H1161	H116	0.123700	0.303500	0.763700
O1171	O117	0.632080	0.829950	0.583370
C1171	C117	0.628190	0.830320	0.516770
H1171	H117	0.614100	0.817000	0.528000
O1181	O118	0.624060	0.790200	0.672640
C1181	C118	0.623300	0.781800	0.757700
H1181	H118	0.623700	0.803500	0.763700
O1191	O119	0.632080	0.329950	0.083370
C1191	C119	0.628190	0.330320	0.016770
H1191	H119	0.614100	0.317000	0.028000
O1201	O120	0.624060	0.290200	0.172640
C1201	C120	0.623300	0.281800	0.257700
H1201	H120	0.623700	0.303500	0.263700
O1211	O121	0.867920	0.170050	0.083370
C1211	C121	0.871810	0.169680	0.016770
H1211	H121	0.885900	0.183000	0.028000
O1221	O122	0.875940	0.209800	0.172640
C1221	C122	0.876700	0.218200	0.257700
H1221	H122	0.876300	0.196500	0.263700
O1231	O123	0.867920	0.670050	0.583370
C1231	C123	0.871810	0.669680	0.516770
H1231	H123	0.885900	0.683000	0.528000
O1241	O124	0.875940	0.709800	0.672640
C1241	C124	0.876700	0.718200	0.757700
H1241	H124	0.876300	0.696500	0.763700
O1251	O125	0.367920	0.170050	0.583370
C1251	C125	0.371810	0.169680	0.516770
H1251	H125	0.385900	0.183000	0.528000
O1261	O126	0.375940	0.209800	0.672640
C1261	C126	0.376700	0.218200	0.757700
H1261	H126	0.376300	0.196500	0.763700
O1271	O127	0.367920	0.670050	0.083370
C1271	C127	0.371810	0.669680	0.016770
H1271	H127	0.385900	0.683000	0.028000
O1281	O128	0.375940	0.709800	0.172640
C1281	C128	0.376700	0.718200	0.257700
H1281	H128	0.376300	0.696500	0.263700
O1291	O129	0.170050	0.083370	0.867920
C1291	C129	0.169680	0.016770	0.871810
H1291	H129	0.183000	0.028000	0.885900
O1301	O130	0.209800	0.172640	0.875940
C1301	C130	0.218200	0.257700	0.876700
H1301	H130	0.196500	0.263700	0.876300
O1311	O131	0.170050	0.583370	0.367920
C1311	C131	0.169680	0.516770	0.371810
H1311	H131	0.183000	0.528000	0.385900
O1321	O132	0.209800	0.672640	0.375940
C1321	C132	0.218200	0.757700	0.376700
H1321	H132	0.196500	0.763700	0.376300
O1331	O133	0.670050	0.083370	0.367920
C1331	C133	0.669680	0.016770	0.371810
H1331	H133	0.683000	0.028000	0.385900
O1341	O134	0.709800	0.172640	0.375940
C1341	C134	0.718200	0.257700	0.376700
H1341	H134	0.696500	0.263700	0.376300
O1351	O135	0.670050	0.583370	0.867920
C1351	C135	0.669680	0.516770	0.871810
H1351	H135	0.683000	0.528000	0.885900
O1361	O136	0.709800	0.672640	0.875940
C1361	C136	0.718200	0.757700	0.876700
H1361	H136	0.696500	0.763700	0.876300
O1371	O137	0.829950	0.083370	0.132080
C1371	C137	0.830320	0.016770	0.128190
H1371	H137	0.817000	0.028000	0.114100
O1381	O138	0.790200	0.172640	0.124060
C1381	C138	0.781800	0.257700	0.123300
H1381	H138	0.803500	0.263700	0.123700
O1391	O139	0.829950	0.583370	0.632080
C1391	C139	0.830320	0.516770	0.628190
H1391	H139	0.817000	0.528000	0.614100
O1401	O140	0.790200	0.672640	0.624060
C1401	C140	0.781800	0.757700	0.623300
H1401	H140	0.803500	0.763700	0.623700
O1411	O141	0.329950	0.083370	0.632080
C1411	C141	0.330320	0.016770	0.628190
H1411	H141	0.317000	0.028000	0.614100
O1421	O142	0.290200	0.172640	0.624060
C1421	C142	0.281800	0.257700	0.623300
H1421	H142	0.303500	0.263700	0.623700
O1431	O143	0.329950	0.583370	0.132080
C1431	C143	0.330320	0.516770	0.128190
H1431	H143	0.317000	0.528000	0.114100
O1441	O144	0.290200	0.672640	0.124060
C1441	C144	0.281800	0.757700	0.123300
H1441	H144	0.303500	0.763700	0.123700
O1451	O145	0.829950	0.916630	0.867920
C1451	C145	0.830320	0.983230	0.871810
H1451	H145	0.817000	0.972000	0.885900
O1461	O146	0.790200	0.827360	0.875940
C1461	C146	0.781800	0.742300	0.876700
H1461	H146	0.803500	0.736300	0.876300
O1471	O147	0.829950	0.416630	0.367920
C1471	C147	0.830320	0.483230	0.371810
H1471	H147	0.817000	0.472000	0.385900
O1481	O148	0.790200	0.327360	0.375940
C1481	C148	0.781800	0.242300	0.376700
H1481	H148	0.803500	0.236300	0.376300
O1491	O149	0.329950	0.916630	0.367920
C1491	C149	0.330320	0.983230	0.371810
H1491	H149	0.317000	0.972000	0.385900
O1501	O150	0.290200	0.827360	0.375940
C1501	C150	0.281800	0.742300	0.376700
H1501	H150	0.303500	0.736300	0.376300
O1511	O151	0.329950	0.416630	0.867920
C1511	C151	0.330320	0.483230	0.871810
H1511	H151	0.317000	0.472000	0.885900
O1521	O152	0.290200	0.327360	0.875940
C1521	C152	0.281800	0.242300	0.876700
H1521	H152	0.303500	0.236300	0.876300
O1531	O153	0.170050	0.916630	0.132080
C1531	C153	0.169680	0.983230	0.128190
H1531	H153	0.183000	0.972000	0.114100
O1541	O154	0.209800	0.827360	0.124060
C1541	C154	0.218200	0.742300	0.123300
H1541	H154	0.196500	0.736300	0.123700
O1551	O155	0.170050	0.416630	0.632080
C1551	C155	0.169680	0.483230	0.628190
H1551	H155	0.183000	0.472000	0.614100
O1561	O156	0.209800	0.327360	0.624060
C1561	C156	0.218200	0.242300	0.623300
H1561	H156	0.196500	0.236300	0.623700
O1571	O157	0.670050	0.916630	0.632080
C1571	C157	0.669680	0.983230	0.628190
H1571	H157	0.683000	0.972000	0.614100
O1581	O158	0.709800	0.827360	0.624060
C1581	C158	0.718200	0.742300	0.623300
H1581	H158	0.696500	0.736300	0.623700
O1591	O159	0.670050	0.416630	0.132080
C1591	C159	0.669680	0.483230	0.128190
H1591	H159	0.683000	0.472000	0.114100
O1601	O160	0.709800	0.327360	0.124060
C1601	C160	0.718200	0.242300	0.123300
H1601	H160	0.696500	0.236300	0.123700
O1611	O161	0.083370	0.132080	0.829950
C1611	C161	0.016770	0.128190	0.830320
H1611	H161	0.028000	0.114100	0.817000
O1621	O162	0.172640	0.124060	0.790200
C1621	C162	0.257700	0.123300	0.781800
H1621	H162	0.263700	0.123700	0.803500
O1631	O163	0.083370	0.632080	0.329950
C1631	C163	0.016770	0.628190	0.330320
H1631	H163	0.028000	0.614100	0.317000
O1641	O164	0.172640	0.624060	0.290200
C1641	C164	0.257700	0.623300	0.281800
H1641	H164	0.263700	0.623700	0.303500
O1651	O165	0.583370	0.132080	0.329950
C1651	C165	0.516770	0.128190	0.330320
H1651	H165	0.528000	0.114100	0.317000
O1661	O166	0.672640	0.124060	0.290200
C1661	C166	0.757700	0.123300	0.281800
H1661	H166	0.763700	0.123700	0.303500
O1671	O167	0.583370	0.632080	0.829950
C1671	C167	0.516770	0.628190	0.830320
H1671	H167	0.528000	0.614100	0.817000
O1681	O168	0.672640	0.624060	0.790200
C1681	C168	0.757700	0.623300	0.781800
H1681	H168	0.763700	0.623700	0.803500
O1691	O169	0.083370	0.867920	0.170050
C1691	C169	0.016770	0.871810	0.169680
H1691	H169	0.028000	0.885900	0.183000
O1701	O170	0.172640	0.875940	0.209800
C1701	C170	0.257700	0.876700	0.218200
H1701	H170	0.263700	0.876300	0.196500
O1711	O171	0.083370	0.367920	0.670050
C1711	C171	0.016770	0.371810	0.669680
H1711	H171	0.028000	0.385900	0.683000
O1721	O172	0.172640	0.375940	0.709800
C1721	C172	0.257700	0.376700	0.718200
H1721	H172	0.263700	0.376300	0.696500
O1731	O173	0.583370	0.867920	0.670050
C1731	C173	0.516770	0.871810	0.669680
H1731	H173	0.528000	0.885900	0.683000
O1741	O174	0.672640	0.875940	0.709800
C1741	C174	0.757700	0.876700	0.718200
H1741	H174	0.763700	0.876300	0.696500
O1751	O175	0.583370	0.367920	0.170050
C1751	C175	0.516770	0.371810	0.169680
H1751	H175	0.528000	0.385900	0.183000
O1761	O176	0.672640	0.375940	0.209800
C1761	C176	0.757700	0.376700	0.218200
H1761	H176	0.763700	0.376300	0.196500
O1771	O177	0.916630	0.132080	0.170050
C1771	C177	0.983230	0.128190	0.169680
H1771	H177	0.972000	0.114100	0.183000
O1781	O178	0.827360	0.124060	0.209800
C1781	C178	0.742300	0.123300	0.218200
H1781	H178	0.736300	0.123700	0.196500
O1791	O179	0.916630	0.632080	0.670050
C1791	C179	0.983230	0.628190	0.669680
H1791	H179	0.972000	0.614100	0.683000
O1801	O180	0.827360	0.624060	0.709800
C1801	C180	0.742300	0.623300	0.718200
H1801	H180	0.736300	0.623700	0.696500
O1811	O181	0.416630	0.132080	0.670050
C1811	C181	0.483230	0.128190	0.669680
H1811	H181	0.472000	0.114100	0.683000
O1821	O182	0.327360	0.124060	0.709800
C1821	C182	0.242300	0.123300	0.718200
H1821	H182	0.236300	0.123700	0.696500
O1831	O183	0.416630	0.632080	0.170050
C1831	C183	0.483230	0.628190	0.169680
H1831	H183	0.472000	0.614100	0.183000
O1841	O184	0.327360	0.624060	0.209800
C1841	C184	0.242300	0.623300	0.218200
H1841	H184	0.236300	0.623700	0.196500
O1851	O185	0.916630	0.867920	0.829950
C1851	C185	0.983230	0.871810	0.830320
H1851	H185	0.972000	0.885900	0.817000
O1861	O186	0.827360	0.875940	0.790200
C1861	C186	0.742300	0.876700	0.781800
H1861	H186	0.736300	0.876300	0.803500
O1871	O187	0.916630	0.367920	0.329950
C1871	C187	0.983230	0.371810	0.330320
H1871	H187	0.972000	0.385900	0.317000
O1881	O188	0.827360	0.375940	0.290200
C1881	C188	0.742300	0.376700	0.281800
H1881	H188	0.736300	0.376300	0.303500
O1891	O189	0.416630	0.867920	0.329950
C1891	C189	0.483230	0.871810	0.330320
H1891	H189	0.472000	0.885900	0.317000
O1901	O190	0.327360	0.875940	0.290200
C1901	C190	0.242300	0.876700	0.281800
H1901	H190	0.236300	0.876300	0.303500
O1911	O191	0.416630	0.367920	0.829950
C1911	C191	0.483230	0.371810	0.830320
H1911	H191	0.472000	0.385900	0.817000
O1921	O192	0.327360	0.375940	0.790200
C1921	C192	0.242300	0.376700	0.781800
H1921	H192	0.236300	0.376300	0.803500
O1931	O193	0.829950	0.867920	0.916630
C1931	C193	0.830320	0.871810	0.983230
H1931	H193	0.817000	0.885900	0.972000
O1941	O194	0.790200	0.875940	0.827360
C1941	C194	0.781800	0.876700	0.742300
H1941	H194	0.803500	0.876300	0.736300
O1951	O195	0.829950	0.367920	0.416630
C1951	C195	0.830320	0.371810	0.483230
H1951	H195	0.817000	0.385900	0.472000
O1961	O196	0.790200	0.375940	0.327360
C1961	C196	0.781800	0.376700	0.242300
H1961	H196	0.803500	0.376300	0.236300
O1971	O197	0.329950	0.867920	0.416630
C1971	C197	0.330320	0.871810	0.483230
H1971	H197	0.317000	0.885900	0.472000
O1981	O198	0.290200	0.875940	0.327360
C1981	C198	0.281800	0.876700	0.242300
H1981	H198	0.303500	0.876300	0.236300
O1991	O199	0.329950	0.367920	0.916630
C1991	C199	0.330320	0.371810	0.983230
H1991	H199	0.317000	0.385900	0.972000
O2001	O200	0.290200	0.375940	0.827360
C2001	C200	0.281800	0.376700	0.742300
H2001	H200	0.303500	0.376300	0.736300
O2011	O201	0.170050	0.132080	0.916630
C2011	C201	0.169680	0.128190	0.983230
H2011	H201	0.183000	0.114100	0.972000
O2021	O202	0.209800	0.124060	0.827360
C2021	C202	0.218200	0.123300	0.742300
H2021	H202	0.196500	0.123700	0.736300
O2031	O203	0.170050	0.632080	0.416630
C2031	C203	0.169680	0.628190	0.483230
H2031	H203	0.183000	0.614100	0.472000
O2041	O204	0.209800	0.624060	0.327360
C2041	C204	0.218200	0.623300	0.242300
H2041	H204	0.196500	0.623700	0.236300
O2051	O205	0.670050	0.132080	0.416630
C2051	C205	0.669680	0.128190	0.483230
H2051	H205	0.683000	0.114100	0.472000
O2061	O206	0.709800	0.124060	0.327360
C2061	C206	0.718200	0.123300	0.242300
H2061	H206	0.696500	0.123700	0.236300
O2071	O207	0.670050	0.632080	0.916630
C2071	C207	0.669680	0.628190	0.983230
H2071	H207	0.683000	0.614100	0.972000
O2081	O208	0.709800	0.624060	0.827360
C2081	C208	0.718200	0.623300	0.742300
H2081	H208	0.696500	0.623700	0.736300
O2091	O209	0.170050	0.867920	0.083370
C2091	C209	0.169680	0.871810	0.016770
H2091	H209	0.183000	0.885900	0.028000
O2101	O210	0.209800	0.875940	0.172640
C2101	C210	0.218200	0.876700	0.257700
H2101	H210	0.196500	0.876300	0.263700
O2111	O211	0.170050	0.367920	0.583370
C2111	C211	0.169680	0.371810	0.516770
H2111	H211	0.183000	0.385900	0.528000
O2121	O212	0.209800	0.375940	0.672640
C2121	C212	0.218200	0.376700	0.757700
H2121	H212	0.196500	0.376300	0.763700
O2131	O213	0.670050	0.867920	0.583370
C2131	C213	0.669680	0.871810	0.516770
H2131	H213	0.683000	0.885900	0.528000
O2141	O214	0.709800	0.875940	0.672640
C2141	C214	0.718200	0.876700	0.757700
H2141	H214	0.696500	0.876300	0.763700
O2151	O215	0.670050	0.367920	0.083370
C2151	C215	0.669680	0.371810	0.016770
H2151	H215	0.683000	0.385900	0.028000
O2161	O216	0.709800	0.375940	0.172640
C2161	C216	0.718200	0.376700	0.257700
H2161	H216	0.696500	0.376300	0.263700
O2171	O217	0.829950	0.132080	0.083370
C2171	C217	0.830320	0.128190	0.016770
H2171	H217	0.817000	0.114100	0.028000
O2181	O218	0.790200	0.124060	0.172640
C2181	C218	0.781800	0.123300	0.257700
H2181	H218	0.803500	0.123700	0.263700
O2191	O219	0.829950	0.632080	0.583370
C2191	C219	0.830320	0.628190	0.516770
H2191	H219	0.817000	0.614100	0.528000
O2201	O220	0.790200	0.624060	0.672640
C2201	C220	0.781800	0.623300	0.757700
H2201	H220	0.803500	0.623700	0.763700
O2211	O221	0.329950	0.132080	0.583370
C2211	C221	0.330320	0.128190	0.516770
H2211	H221	0.317000	0.114100	0.528000
O2221	O222	0.290200	0.124060	0.672640
C2221	C222	0.281800	0.123300	0.757700
H2221	H222	0.303500	0.123700	0.763700
O2231	O223	0.329950	0.632080	0.083370
C2231	C223	0.330320	0.628190	0.016770
H2231	H223	0.317000	0.614100	0.028000
O2241	O224	0.290200	0.624060	0.172640
C2241	C224	0.281800	0.623300	0.257700
H2241	H224	0.303500	0.623700	0.263700
O2251	O225	0.916630	0.829950	0.867920
C2251	C225	0.983230	0.830320	0.871810
H2251	H225	0.972000	0.817000	0.885900
O2261	O226	0.827360	0.790200	0.875940
C2261	C226	0.742300	0.781800	0.876700
H2261	H226	0.736300	0.803500	0.876300
O2271	O227	0.916630	0.329950	0.367920
C2271	C227	0.983230	0.330320	0.371810
H2271	H227	0.972000	0.317000	0.385900
O2281	O228	0.827360	0.290200	0.375940
C2281	C228	0.742300	0.281800	0.376700
H2281	H228	0.736300	0.303500	0.376300
O2291	O229	0.416630	0.829950	0.367920
C2291	C229	0.483230	0.830320	0.371810
H2291	H229	0.472000	0.817000	0.385900
O2301	O230	0.327360	0.790200	0.375940
C2301	C230	0.242300	0.781800	0.376700
H2301	H230	0.236300	0.803500	0.376300
O2311	O231	0.416630	0.329950	0.867920
C2311	C231	0.483230	0.330320	0.871810
H2311	H231	0.472000	0.317000	0.885900
O2321	O232	0.327360	0.290200	0.875940
C2321	C232	0.242300	0.281800	0.876700
H2321	H232	0.236300	0.303500	0.876300
O2331	O233	0.916630	0.170050	0.132080
C2331	C233	0.983230	0.169680	0.128190
H2331	H233	0.972000	0.183000	0.114100
O2341	O234	0.827360	0.209800	0.124060
C2341	C234	0.742300	0.218200	0.123300
H2341	H234	0.736300	0.196500	0.123700
O2351	O235	0.916630	0.670050	0.632080
C2351	C235	0.983230	0.669680	0.628190
H2351	H235	0.972000	0.683000	0.614100
O2361	O236	0.827360	0.709800	0.624060
C2361	C236	0.742300	0.718200	0.623300
H2361	H236	0.736300	0.696500	0.623700
O2371	O237	0.416630	0.170050	0.632080
C2371	C237	0.483230	0.169680	0.628190
H2371	H237	0.472000	0.183000	0.614100
O2381	O238	0.327360	0.209800	0.624060
C2381	C238	0.242300	0.218200	0.623300
H2381	H238	0.236300	0.196500	0.623700
O2391	O239	0.416630	0.670050	0.132080
C2391	C239	0.483230	0.669680	0.128190
H2391	H239	0.472000	0.683000	0.114100
O2401	O240	0.327360	0.709800	0.124060
C2401	C240	0.242300	0.718200	0.123300
H2401	H240	0.236300	0.696500	0.123700
O2411	O241	0.083370	0.170050	0.867920
C2411	C241	0.016770	0.169680	0.871810
H2411	H241	0.028000	0.183000	0.885900
O2421	O242	0.172640	0.209800	0.875940
C2421	C242	0.257700	0.218200	0.876700
H2421	H242	0.263700	0.196500	0.876300
O2431	O243	0.083370	0.670050	0.367920
C2431	C243	0.016770	0.669680	0.371810
H2431	H243	0.028000	0.683000	0.385900
O2441	O244	0.172640	0.709800	0.375940
C2441	C244	0.257700	0.718200	0.376700
H2441	H244	0.263700	0.696500	0.376300
O2451	O245	0.583370	0.170050	0.367920
C2451	C245	0.516770	0.169680	0.371810
H2451	H245	0.528000	0.183000	0.385900
O2461	O246	0.672640	0.209800	0.375940
C2461	C246	0.757700	0.218200	0.376700
H2461	H246	0.763700	0.196500	0.376300
O2471	O247	0.583370	0.670050	0.867920
C2471	C247	0.516770	0.669680	0.871810
H2471	H247	0.528000	0.683000	0.885900
O2481	O248	0.672640	0.709800	0.875940
C2481	C248	0.757700	0.718200	0.876700
H2481	H248	0.763700	0.696500	0.876300
O2491	O249	0.083370	0.829950	0.132080
C2491	C249	0.016770	0.830320	0.128190
H2491	H249	0.028000	0.817000	0.114100
O2501	O250	0.172640	0.790200	0.124060
C2501	C250	0.257700	0.781800	0.123300
H2501	H250	0.263700	0.803500	0.123700
O2511	O251	0.083370	0.329950	0.632080
C2511	C251	0.016770	0.330320	0.628190
H2511	H251	0.028000	0.317000	0.614100
O2521	O252	0.172640	0.290200	0.624060
C2521	C252	0.257700	0.281800	0.623300
H2521	H252	0.263700	0.303500	0.623700
O2531	O253	0.583370	0.829950	0.632080
C2531	C253	0.516770	0.830320	0.628190
H2531	H253	0.528000	0.817000	0.614100
O2541	O254	0.672640	0.790200	0.624060
C2541	C254	0.757700	0.781800	0.623300
H2541	H254	0.763700	0.803500	0.623700
O2551	O255	0.583370	0.329950	0.132080
C2551	C255	0.516770	0.330320	0.128190
H2551	H255	0.528000	0.317000	0.114100
O2561	O256	0.672640	0.290200	0.124060
C2561	C256	0.757700	0.281800	0.123300
H2561	H256	0.763700	0.303500	0.123700
O2571	O257	0.867920	0.916630	0.829950
C2571	C257	0.871810	0.983230	0.830320
H2571	H257	0.885900	0.972000	0.817000
O2581	O258	0.875940	0.827360	0.790200
C2581	C258	0.876700	0.742300	0.781800
H2581	H258	0.876300	0.736300	0.803500
O2591	O259	0.867920	0.416630	0.329950
C2591	C259	0.871810	0.483230	0.330320
H2591	H259	0.885900	0.472000	0.317000
O2601	O260	0.875940	0.327360	0.290200
C2601	C260	0.876700	0.242300	0.281800
H2601	H260	0.876300	0.236300	0.303500
O2611	O261	0.367920	0.916630	0.329950
C2611	C261	0.371810	0.983230	0.330320
H2611	H261	0.385900	0.972000	0.317000
O2621	O262	0.375940	0.827360	0.290200
C2621	C262	0.376700	0.742300	0.281800
H2621	H262	0.376300	0.736300	0.303500
O2631	O263	0.367920	0.416630	0.829950
C2631	C263	0.371810	0.483230	0.830320
H2631	H263	0.385900	0.472000	0.817000
O2641	O264	0.375940	0.327360	0.790200
C2641	C264	0.376700	0.242300	0.781800
H2641	H264	0.376300	0.236300	0.803500
O2651	O265	0.132080	0.916630	0.170050
C2651	C265	0.128190	0.983230	0.169680
H2651	H265	0.114100	0.972000	0.183000
O2661	O266	0.124060	0.827360	0.209800
C2661	C266	0.123300	0.742300	0.218200
H2661	H266	0.123700	0.736300	0.196500
O2671	O267	0.132080	0.416630	0.670050
C2671	C267	0.128190	0.483230	0.669680
H2671	H267	0.114100	0.472000	0.683000
O2681	O268	0.124060	0.327360	0.709800
C2681	C268	0.123300	0.242300	0.718200
H2681	H268	0.123700	0.236300	0.696500
O2691	O269	0.632080	0.916630	0.670050
C2691	C269	0.628190	0.983230	0.669680
H2691	H269	0.614100	0.972000	0.683000
O2701	O270	0.624060	0.827360	0.709800
C2701	C270	0.623300	0.742300	0.718200
H2701	H270	0.623700	0.736300	0.696500
O2711	O271	0.632080	0.416630	0.170050
C2711	C271	0.628190	0.483230	0.169680
H2711	H271	0.614100	0.472000	0.183000
O2721	O272	0.624060	0.327360	0.209800
C2721	C272	0.623300	0.242300	0.218200
H2721	H272	0.623700	0.236300	0.196500
O2731	O273	0.867920	0.083370	0.170050
C2731	C273	0.871810	0.016770	0.169680
H2731	H273	0.885900	0.028000	0.183000
O2741	O274	0.875940	0.172640	0.209800
C2741	C274	0.876700	0.257700	0.218200
H2741	H274	0.876300	0.263700	0.196500
O2751	O275	0.867920	0.583370	0.670050
C2751	C275	0.871810	0.516770	0.669680
H2751	H275	0.885900	0.528000	0.683000
O2761	O276	0.875940	0.672640	0.709800
C2761	C276	0.876700	0.757700	0.718200
H2761	H276	0.876300	0.763700	0.696500
O2771	O277	0.367920	0.083370	0.670050
C2771	C277	0.371810	0.016770	0.669680
H2771	H277	0.385900	0.028000	0.683000
O2781	O278	0.375940	0.172640	0.709800
C2781	C278	0.376700	0.257700	0.718200
H2781	H278	0.376300	0.263700	0.696500
O2791	O279	0.367920	0.583370	0.170050
C2791	C279	0.371810	0.516770	0.169680
H2791	H279	0.385900	0.528000	0.183000
O2801	O280	0.375940	0.672640	0.209800
C2801	C280	0.376700	0.757700	0.218200
H2801	H280	0.376300	0.763700	0.196500
O2811	O281	0.132080	0.083370	0.829950
C2811	C281	0.128190	0.016770	0.830320
H2811	H281	0.114100	0.028000	0.817000
O2821	O282	0.124060	0.172640	0.790200
C2821	C282	0.123300	0.257700	0.781800
H2821	H282	0.123700	0.263700	0.803500
O2831	O283	0.132080	0.583370	0.329950
C2831	C283	0.128190	0.516770	0.330320
H2831	H283	0.114100	0.528000	0.317000
O2841	O284	0.124060	0.672640	0.290200
C2841	C284	0.123300	0.757700	0.281800
H2841	H284	0.123700	0.763700	0.303500
O2851	O285	0.632080	0.083370	0.329950
C2851	C285	0.628190	0.016770	0.330320
H2851	H285	0.614100	0.028000	0.317000
O2861	O286	0.624060	0.172640	0.290200
C2861	C286	0.623300	0.257700	0.281800
H2861	H286	0.623700	0.263700	0.303500
O2871	O287	0.632080	0.583370	0.829950
C2871	C287	0.628190	0.516770	0.830320
H2871	H287	0.614100	0.528000	0.817000
O2881	O288	0.624060	0.672640	0.790200
C2881	C288	0.623300	0.757700	0.781800
H2881	H288	0.623700	0.763700	0.803500
O2891	O289	0.867920	0.829950	0.083370
C2891	C289	0.871810	0.830320	0.016770
H2891	H289	0.885900	0.817000	0.028000
O2901	O290	0.875940	0.790200	0.172640
C2901	C290	0.876700	0.781800	0.257700
H2901	H290	0.876300	0.803500	0.263700
O2911	O291	0.867920	0.329950	0.583370
C2911	C291	0.871810	0.330320	0.516770
H2911	H291	0.885900	0.317000	0.528000
O2921	O292	0.875940	0.290200	0.672640
C2921	C292	0.876700	0.281800	0.757700
H2921	H292	0.876300	0.303500	0.763700
O2931	O293	0.367920	0.829950	0.583370
C2931	C293	0.371810	0.830320	0.516770
H2931	H293	0.385900	0.817000	0.528000
O2941	O294	0.375940	0.790200	0.672640
C2941	C294	0.376700	0.781800	0.757700
H2941	H294	0.376300	0.803500	0.763700
O2951	O295	0.367920	0.329950	0.083370
C2951	C295	0.371810	0.330320	0.016770
H2951	H295	0.385900	0.317000	0.028000
O2961	O296	0.375940	0.290200	0.172640
C2961	C296	0.376700	0.281800	0.257700
H2961	H296	0.376300	0.303500	0.263700
O2971	O297	0.132080	0.170050	0.083370
C2971	C297	0.128190	0.169680	0.016770
H2971	H297	0.114100	0.183000	0.028000
O2981	O298	0.124060	0.209800	0.172640
C2981	C298	0.123300	0.218200	0.257700
H2981	H298	0.123700	0.196500	0.263700
O2991	O299	0.132080	0.670050	0.583370
C2991	C299	0.128190	0.669680	0.516770
H2991	H299	0.114100	0.683000	0.528000
O3001	O300	0.124060	0.709800	0.672640
C3001	C300	0.123300	0.718200	0.757700
H3001	H300	0.123700	0.696500	0.763700
O3011	O301	0.632080	0.170050	0.583370
C3011	C301	0.628190	0.169680	0.516770
H3011	H301	0.614100	0.183000	0.528000
O3021	O302	0.624060	0.209800	0.672640
C3021	C302	0.623300	0.218200	0.757700
H3021	H302	0.623700	0.196500	0.763700
O3031	O303	0.632080	0.670050	0.083370
C3031	C303	0.628190	0.669680	0.016770
H3031	H303	0.614100	0.683000	0.028000
O3041	O304	0.624060	0.709800	0.172640
C3041	C304	0.623300	0.718200	0.257700
H3041	H304	0.623700	0.696500	0.263700
O3051	O305	0.867920	0.170050	0.916630
C3051	C305	0.871810	0.169680	0.983230
H3051	H305	0.885900	0.183000	0.972000
O3061	O306	0.875940	0.209800	0.827360
C3061	C306	0.876700	0.218200	0.742300
H3061	H306	0.876300	0.196500	0.736300
O3071	O307	0.867920	0.670050	0.416630
C3071	C307	0.871810	0.669680	0.483230
H3071	H307	0.885900	0.683000	0.472000
O3081	O308	0.875940	0.709800	0.327360
C3081	C308	0.876700	0.718200	0.242300
H3081	H308	0.876300	0.696500	0.236300
O3091	O309	0.367920	0.170050	0.416630
C3091	C309	0.371810	0.169680	0.483230
H3091	H309	0.385900	0.183000	0.472000
O3101	O310	0.375940	0.209800	0.327360
C3101	C310	0.376700	0.218200	0.242300
H3101	H310	0.376300	0.196500	0.236300
O3111	O311	0.367920	0.670050	0.916630
C3111	C311	0.371810	0.669680	0.983230
H3111	H311	0.385900	0.683000	0.972000
O3121	O312	0.375940	0.709800	0.827360
C3121	C312	0.376700	0.718200	0.742300
H3121	H312	0.376300	0.696500	0.736300
O3131	O313	0.132080	0.829950	0.916630
C3131	C313	0.128190	0.830320	0.983230
H3131	H313	0.114100	0.817000	0.972000
O3141	O314	0.124060	0.790200	0.827360
C3141	C314	0.123300	0.781800	0.742300
H3141	H314	0.123700	0.803500	0.736300
O3151	O315	0.132080	0.329950	0.416630
C3151	C315	0.128190	0.330320	0.483230
H3151	H315	0.114100	0.317000	0.472000
O3161	O316	0.124060	0.290200	0.327360
C3161	C316	0.123300	0.281800	0.242300
H3161	H316	0.123700	0.303500	0.236300
O3171	O317	0.632080	0.829950	0.416630
C3171	C317	0.628190	0.830320	0.483230
H3171	H317	0.614100	0.817000	0.472000
O3181	O318	0.624060	0.790200	0.327360
C3181	C318	0.623300	0.781800	0.242300
H3181	H318	0.623700	0.803500	0.236300
O3191	O319	0.632080	0.329950	0.916630
C3191	C319	0.628190	0.330320	0.983230
H3191	H319	0.614100	0.317000	0.972000
O3201	O320	0.624060	0.290200	0.827360
C3201	C320	0.623300	0.281800	0.742300
H3201	H320	0.623700	0.303500	0.736300
O3211	O321	0.829950	0.916630	0.132080
C3211	C321	0.830320	0.983230	0.128190
H3211	H321	0.817000	0.972000	0.114100
O3221	O322	0.790200	0.827360	0.124060
C3221	C322	0.781800	0.742300	0.123300
H3221	H322	0.803500	0.736300	0.123700
O3231	O323	0.829950	0.416630	0.632080
C3231	C323	0.830320	0.483230	0.628190
H3231	H323	0.817000	0.472000	0.614100
O3241	O324	0.790200	0.327360	0.624060
C3241	C324	0.781800	0.242300	0.623300
H3241	H324	0.803500	0.236300	0.623700
O3251	O325	0.329950	0.916630	0.632080
C3251	C325	0.330320	0.983230	0.628190
H3251	H325	0.317000	0.972000	0.614100
O3261	O326	0.290200	0.827360	0.624060
C3261	C326	0.281800	0.742300	0.623300
H3261	H326	0.303500	0.736300	0.623700
O3271	O327	0.329950	0.416630	0.132080
C3271	C327	0.330320	0.483230	0.128190
H3271	H327	0.317000	0.472000	0.114100
O3281	O328	0.290200	0.327360	0.124060
C3281	C328	0.281800	0.242300	0.123300
H3281	H328	0.303500	0.236300	0.123700
O3291	O329	0.170050	0.916630	0.867920
C3291	C329	0.169680	0.983230	0.871810
H3291	H329	0.183000	0.972000	0.885900
O3301	O330	0.209800	0.827360	0.875940
C3301	C330	0.218200	0.742300	0.876700
H3301	H330	0.196500	0.736300	0.876300
O3311	O331	0.170050	0.416630	0.367920
C3311	C331	0.169680	0.483230	0.371810
H3311	H331	0.183000	0.472000	0.385900
O3321	O332	0.209800	0.327360	0.375940
C3321	C332	0.218200	0.242300	0.376700
H3321	H332	0.196500	0.236300	0.376300
O3331	O333	0.670050	0.916630	0.367920
C3331	C333	0.669680	0.983230	0.371810
H3331	H333	0.683000	0.972000	0.385900
O3341	O334	0.709800	0.827360	0.375940
C3341	C334	0.718200	0.742300	0.376700
H3341	H334	0.696500	0.736300	0.376300
O3351	O335	0.670050	0.416630	0.867920
C3351	C335	0.669680	0.483230	0.871810
H3351	H335	0.683000	0.472000	0.885900
O3361	O336	0.709800	0.327360	0.875940
C3361	C336	0.718200	0.242300	0.876700
H3361	H336	0.696500	0.236300	0.876300
O3371	O337	0.170050	0.083370	0.132080
C3371	C337	0.169680	0.016770	0.128190
H3371	H337	0.183000	0.028000	0.114100
O3381	O338	0.209800	0.172640	0.124060
C3381	C338	0.218200	0.257700	0.123300
H3381	H338	0.196500	0.263700	0.123700
O3391	O339	0.170050	0.583370	0.632080
C3391	C339	0.169680	0.516770	0.628190
H3391	H339	0.183000	0.528000	0.614100
O3401	O340	0.209800	0.672640	0.624060
C3401	C340	0.218200	0.757700	0.623300
H3401	H340	0.196500	0.763700	0.623700
O3411	O341	0.670050	0.083370	0.632080
C3411	C341	0.669680	0.016770	0.628190
H3411	H341	0.683000	0.028000	0.614100
O3421	O342	0.709800	0.172640	0.624060
C3421	C342	0.718200	0.257700	0.623300
H3421	H342	0.696500	0.263700	0.623700
O3431	O343	0.670050	0.583370	0.132080
C3431	C343	0.669680	0.516770	0.128190
H3431	H343	0.683000	0.528000	0.114100
O3441	O344	0.709800	0.672640	0.124060
C3441	C344	0.718200	0.757700	0.123300
H3441	H344	0.696500	0.763700	0.123700
O3451	O345	0.829950	0.083370	0.867920
C3451	C345	0.830320	0.016770	0.871810
H3451	H345	0.817000	0.028000	0.885900
O3461	O346	0.790200	0.172640	0.875940
C3461	C346	0.781800	0.257700	0.876700
H3461	H346	0.803500	0.263700	0.876300
O3471	O347	0.829950	0.583370	0.367920
C3471	C347	0.830320	0.516770	0.371810
H3471	H347	0.817000	0.528000	0.385900
O3481	O348	0.790200	0.672640	0.375940
C3481	C348	0.781800	0.757700	0.376700
H3481	H348	0.803500	0.763700	0.376300
O3491	O349	0.329950	0.083370	0.367920
C3491	C349	0.330320	0.016770	0.371810
H3491	H349	0.317000	0.028000	0.385900
O3501	O350	0.290200	0.172640	0.375940
C3501	C350	0.281800	0.257700	0.376700
H3501	H350	0.303500	0.263700	0.376300
O3511	O351	0.329950	0.583370	0.867920
C3511	C351	0.330320	0.516770	0.871810
H3511	H351	0.317000	0.528000	0.885900
O3521	O352	0.290200	0.672640	0.875940
C3521	C352	0.281800	0.757700	0.876700
H3521	H352	0.303500	0.763700	0.876300
O3531	O353	0.916630	0.867920	0.170050
C3531	C353	0.983230	0.871810	0.169680
H3531	H353	0.972000	0.885900	0.183000
O3541	O354	0.827360	0.875940	0.209800
C3541	C354	0.742300	0.876700	0.218200
H3541	H354	0.736300	0.876300	0.196500
O3551	O355	0.916630	0.367920	0.670050
C3551	C355	0.983230	0.371810	0.669680
H3551	H355	0.972000	0.385900	0.683000
O3561	O356	0.827360	0.375940	0.709800
C3561	C356	0.742300	0.376700	0.718200
H3561	H356	0.736300	0.376300	0.696500
O3571	O357	0.416630	0.867920	0.670050
C3571	C357	0.483230	0.871810	0.669680
H3571	H357	0.472000	0.885900	0.683000
O3581	O358	0.327360	0.875940	0.709800
C3581	C358	0.242300	0.876700	0.718200
H3581	H358	0.236300	0.876300	0.696500
O3591	O359	0.416630	0.367920	0.170050
C3591	C359	0.483230	0.371810	0.169680
H3591	H359	0.472000	0.385900	0.183000
O3601	O360	0.327360	0.375940	0.209800
C3601	C360	0.242300	0.376700	0.218200
H3601	H360	0.236300	0.376300	0.196500
O3611	O361	0.916630	0.132080	0.829950
C3611	C361	0.983230	0.128190	0.830320
H3611	H361	0.972000	0.114100	0.817000
O3621	O362	0.827360	0.124060	0.790200
C3621	C362	0.742300	0.123300	0.781800
H3621	H362	0.736300	0.123700	0.803500
O3631	O363	0.916630	0.632080	0.329950
C3631	C363	0.983230	0.628190	0.330320
H3631	H363	0.972000	0.614100	0.317000
O3641	O364	0.827360	0.624060	0.290200
C3641	C364	0.742300	0.623300	0.281800
H3641	H364	0.736300	0.623700	0.303500
O3651	O365	0.416630	0.132080	0.329950
C3651	C365	0.483230	0.128190	0.330320
H3651	H365	0.472000	0.114100	0.317000
O3661	O366	0.327360	0.124060	0.290200
C3661	C366	0.242300	0.123300	0.281800
H3661	H366	0.236300	0.123700	0.303500
O3671	O367	0.416630	0.632080	0.829950
C3671	C367	0.483230	0.628190	0.830320
H3671	H367	0.472000	0.614100	0.817000
O3681	O368	0.327360	0.624060	0.790200
C3681	C368	0.242300	0.623300	0.781800
H3681	H368	0.236300	0.623700	0.803500
O3691	O369	0.083370	0.867920	0.829950
C3691	C369	0.016770	0.871810	0.830320
H3691	H369	0.028000	0.885900	0.817000
O3701	O370	0.172640	0.875940	0.790200
C3701	C370	0.257700	0.876700	0.781800
H3701	H370	0.263700	0.876300	0.803500
O3711	O371	0.083370	0.367920	0.329950
C3711	C371	0.016770	0.371810	0.330320
H3711	H371	0.028000	0.385900	0.317000
O3721	O372	0.172640	0.375940	0.290200
C3721	C372	0.257700	0.376700	0.281800
H3721	H372	0.263700	0.376300	0.303500
O3731	O373	0.583370	0.867920	0.329950
C3731	C373	0.516770	0.871810	0.330320
H3731	H373	0.528000	0.885900	0.317000
O3741	O374	0.672640	0.875940	0.290200
C3741	C374	0.757700	0.876700	0.281800
H3741	H374	0.763700	0.876300	0.303500
O3751	O375	0.583370	0.367920	0.829950
C3751	C375	0.516770	0.371810	0.830320
H3751	H375	0.528000	0.385900	0.817000
O3761	O376	0.672640	0.375940	0.790200
C3761	C376	0.757700	0.376700	0.781800
H3761	H376	0.763700	0.376300	0.803500
O3771	O377	0.083370	0.132080	0.170050
C3771	C377	0.016770	0.128190	0.169680
H3771	H377	0.028000	0.114100	0.183000
O3781	O378	0.172640	0.124060	0.209800
C3781	C378	0.257700	0.123300	0.218200
H3781	H378	0.263700	0.123700	0.196500
O3791	O379	0.083370	0.632080	0.670050
C3791	C379	0.016770	0.628190	0.669680
H3791	H379	0.028000	0.614100	0.683000
O3801	O380	0.172640	0.624060	0.709800
C3801	C380	0.257700	0.623300	0.718200
H3801	H380	0.263700	0.623700	0.696500
O3811	O381	0.583370	0.132080	0.670050
C3811	C381	0.516770	0.128190	0.669680
H3811	H381	0.528000	0.114100	0.683000
O3821	O382	0.672640	0.124060	0.709800
C3821	C382	0.757700	0.123300	0.718200
H3821	H382	0.763700	0.123700	0.696500
O3831	O383	0.583370	0.632080	0.170050
C3831	C383	0.516770	0.628190	0.169680
H3831	H383	0.528000	0.614100	0.183000
O3841	O384	0.672640	0.624060	0.209800
C3841	C384	0.757700	0.623300	0.218200
H3841	H384	0.763700	0.623700	0.196500
Ni11	Ni1	0.187730	0.128990	0.128990
N11	N1	0.229100	0.108400	0.108400
O3851	O385	0.221900	0.037800	0.037800
C3851	C385	0.282500	0.079600	0.079600
H3851	H385	0.300600	0.070200	0.070200
C3861	C386	0.225100	0.084500	0.084500
H3861	H386	0.204400	0.078300	0.078300
C3871	C387	0.252000	0.069900	0.069900
O3861	O386	0.268900	0.033000	0.033000
C3881	C388	0.248300	0.050000	0.050000
C3891	C389	0.286400	0.102900	0.102900
H3871	H387	0.307000	0.109100	0.109100
C3901	C390	0.259900	0.117100	0.117100
H3881	H388	0.262900	0.132900	0.132900
Ni21	Ni2	0.187730	0.628990	0.628990
N21	N2	0.229100	0.608400	0.608400
O3871	O387	0.221900	0.537800	0.537800
C3911	C391	0.282500	0.579600	0.579600
H3891	H389	0.300600	0.570200	0.570200
C3921	C392	0.225100	0.584500	0.584500
H3901	H390	0.204400	0.578300	0.578300
C3931	C393	0.252000	0.569900	0.569900
O3881	O388	0.268900	0.533000	0.533000
C3941	C394	0.248300	0.550000	0.550000
C3951	C395	0.286400	0.602900	0.602900
H3911	H391	0.307000	0.609100	0.609100
C3961	C396	0.259900	0.617100	0.617100
H3921	H392	0.262900	0.632900	0.632900
Ni31	Ni3	0.687730	0.128990	0.628990
N31	N3	0.729100	0.108400	0.608400
O3891	O389	0.721900	0.037800	0.537800
C3971	C397	0.782500	0.079600	0.579600
H3931	H393	0.800600	0.070200	0.570200
C3981	C398	0.725100	0.084500	0.584500
H3941	H394	0.704400	0.078300	0.578300
C3991	C399	0.752000	0.069900	0.569900
O3901	O390	0.768900	0.033000	0.533000
C4001	C400	0.748300	0.050000	0.550000
C4011	C401	0.786400	0.102900	0.602900
H3951	H395	0.807000	0.109100	0.609100
C4021	C402	0.759900	0.117100	0.617100
H3961	H396	0.762900	0.132900	0.632900
Ni41	Ni4	0.687730	0.628990	0.128990
N41	N4	0.729100	0.608400	0.108400
O3911	O391	0.721900	0.537800	0.037800
C4031	C403	0.782500	0.579600	0.079600
H3971	H397	0.800600	0.570200	0.070200
C4041	C404	0.725100	0.584500	0.084500
H3981	H398	0.704400	0.578300	0.078300
C4051	C405	0.752000	0.569900	0.069900
O3921	O392	0.768900	0.533000	0.033000
C4061	C406	0.748300	0.550000	0.050000
C4071	C407	0.786400	0.602900	0.102900
H3991	H399	0.807000	0.609100	0.109100
C4081	C408	0.759900	0.617100	0.117100
H4001	H400	0.762900	0.632900	0.132900
Ni51	Ni5	0.812270	0.871010	0.128990
N51	N5	0.770900	0.891600	0.108400
O3931	O393	0.778100	0.962200	0.037800
C4091	C409	0.717500	0.920400	0.079600
H4011	H401	0.699400	0.929800	0.070200
C4101	C410	0.774900	0.915500	0.084500
H4021	H402	0.795600	0.921700	0.078300
C4111	C411	0.748000	0.930100	0.069900
O3941	O394	0.731100	0.967000	0.033000
C4121	C412	0.751700	0.950000	0.050000
C4131	C413	0.713600	0.897100	0.102900
H4031	H403	0.693000	0.890900	0.109100
C4141	C414	0.740100	0.882900	0.117100
H4041	H404	0.737100	0.867100	0.132900
Ni61	Ni6	0.812270	0.371010	0.628990
N61	N6	0.770900	0.391600	0.608400
O3951	O395	0.778100	0.462200	0.537800
C4151	C415	0.717500	0.420400	0.579600
H4051	H405	0.699400	0.429800	0.570200
C4161	C416	0.774900	0.415500	0.584500
H4061	H406	0.795600	0.421700	0.578300
C4171	C417	0.748000	0.430100	0.569900
O3961	O396	0.731100	0.467000	0.533000
C4181	C418	0.751700	0.450000	0.550000
C4191	C419	0.713600	0.397100	0.602900
H4071	H407	0.693000	0.390900	0.609100
C4201	C420	0.740100	0.382900	0.617100
H4081	H408	0.737100	0.367100	0.632900
Ni71	Ni7	0.312270	0.871010	0.628990
N71	N7	0.270900	0.891600	0.608400
O3971	O397	0.278100	0.962200	0.537800
C4211	C421	0.217500	0.920400	0.579600
H4091	H409	0.199400	0.929800	0.570200
C4221	C422	0.274900	0.915500	0.584500
H4101	H410	0.295600	0.921700	0.578300
C4231	C423	0.248000	0.930100	0.569900
O3981	O398	0.231100	0.967000	0.533000
C4241	C424	0.251700	0.950000	0.550000
C4251	C425	0.213600	0.897100	0.602900
H4111	H411	0.193000	0.890900	0.609100
C4261	C426	0.240100	0.882900	0.617100
H4121	H412	0.237100	0.867100	0.632900
Ni81	Ni8	0.312270	0.371010	0.128990
N81	N8	0.270900	0.391600	0.108400
O3991	O399	0.278100	0.462200	0.037800
C4271	C427	0.217500	0.420400	0.079600
H4131	H413	0.199400	0.429800	0.070200
C4281	C428	0.274900	0.415500	0.084500
H4141	H414	0.295600	0.421700	0.078300
C4291	C429	0.248000	0.430100	0.069900
O4001	O400	0.231100	0.467000	0.033000
C4301	C430	0.251700	0.450000	0.050000
C4311	C431	0.213600	0.397100	0.102900
H4151	H415	0.193000	0.390900	0.109100
C4321	C432	0.240100	0.382900	0.117100
H4161	H416	0.237100	0.367100	0.132900
Ni91	Ni9	0.812270	0.128990	0.871010
N91	N9	0.770900	0.108400	0.891600
O4011	O401	0.778100	0.037800	0.962200
C4331	C433	0.717500	0.079600	0.920400
H4171	H417	0.699400	0.070200	0.929800
C4341	C434	0.774900	0.084500	0.915500
H4181	H418	0.795600	0.078300	0.921700
C4351	C435	0.748000	0.069900	0.930100
O4021	O402	0.731100	0.033000	0.967000
C4361	C436	0.751700	0.050000	0.950000
C4371	C437	0.713600	0.102900	0.897100
H4191	H419	0.693000	0.109100	0.890900
C4381	C438	0.740100	0.117100	0.882900
H4201	H420	0.737100	0.132900	0.867100
Ni101	Ni10	0.812270	0.628990	0.371010
N101	N10	0.770900	0.608400	0.391600
O4031	O403	0.778100	0.537800	0.462200
C4391	C439	0.717500	0.579600	0.420400
H4211	H421	0.699400	0.570200	0.429800
C4401	C440	0.774900	0.584500	0.415500
H4221	H422	0.795600	0.578300	0.421700
C4411	C441	0.748000	0.569900	0.430100
O4041	O404	0.731100	0.533000	0.467000
C4421	C442	0.751700	0.550000	0.450000
C4431	C443	0.713600	0.602900	0.397100
H4231	H423	0.693000	0.609100	0.390900
C4441	C444	0.740100	0.617100	0.382900
H4241	H424	0.737100	0.632900	0.367100
Ni111	Ni11	0.312270	0.128990	0.371010
N111	N11	0.270900	0.108400	0.391600
O4051	O405	0.278100	0.037800	0.462200
C4451	C445	0.217500	0.079600	0.420400
H4251	H425	0.199400	0.070200	0.429800
C4461	C446	0.274900	0.084500	0.415500
H4261	H426	0.295600	0.078300	0.421700
C4471	C447	0.248000	0.069900	0.430100
O4061	O406	0.231100	0.033000	0.467000
C4481	C448	0.251700	0.050000	0.450000
C4491	C449	0.213600	0.102900	0.397100
H4271	H427	0.193000	0.109100	0.390900
C4501	C450	0.240100	0.117100	0.382900
H4281	H428	0.237100	0.132900	0.367100
Ni121	Ni12	0.312270	0.628990	0.871010
N121	N12	0.270900	0.608400	0.891600
O4071	O407	0.278100	0.537800	0.962200
C4511	C451	0.217500	0.579600	0.920400
H4291	H429	0.199400	0.570200	0.929800
C4521	C452	0.274900	0.584500	0.915500
H4301	H430	0.295600	0.578300	0.921700
C4531	C453	0.248000	0.569900	0.930100
O4081	O408	0.231100	0.533000	0.967000
C4541	C454	0.251700	0.550000	0.950000
C4551	C455	0.213600	0.602900	0.897100
H4311	H431	0.193000	0.609100	0.890900
C4561	C456	0.240100	0.617100	0.882900
H4321	H432	0.237100	0.632900	0.867100
Ni131	Ni13	0.187730	0.871010	0.871010
N131	N13	0.229100	0.891600	0.891600
O4091	O409	0.221900	0.962200	0.962200
C4571	C457	0.282500	0.920400	0.920400
H4331	H433	0.300600	0.929800	0.929800
C4581	C458	0.225100	0.915500	0.915500
H4341	H434	0.204400	0.921700	0.921700
C4591	C459	0.252000	0.930100	0.930100
O4101	O410	0.268900	0.967000	0.967000
C4601	C460	0.248300	0.950000	0.950000
C4611	C461	0.286400	0.897100	0.897100
H4351	H435	0.307000	0.890900	0.890900
C4621	C462	0.259900	0.882900	0.882900
H4361	H436	0.262900	0.867100	0.867100
Ni141	Ni14	0.187730	0.371010	0.371010
N141	N14	0.229100	0.391600	0.391600
O4111	O411	0.221900	0.462200	0.462200
C4631	C463	0.282500	0.420400	0.420400
H4371	H437	0.300600	0.429800	0.429800
C4641	C464	0.225100	0.415500	0.415500
H4381	H438	0.204400	0.421700	0.421700
C4651	C465	0.252000	0.430100	0.430100
O4121	O412	0.268900	0.467000	0.467000
C4661	C466	0.248300	0.450000	0.450000
C4671	C467	0.286400	0.397100	0.397100
H4391	H439	0.307000	0.390900	0.390900
C4681	C468	0.259900	0.382900	0.382900
H4401	H440	0.262900	0.367100	0.367100
Ni151	Ni15	0.687730	0.871010	0.371010
N151	N15	0.729100	0.891600	0.391600
O4131	O413	0.721900	0.962200	0.462200
C4691	C469	0.782500	0.920400	0.420400
H4411	H441	0.800600	0.929800	0.429800
C4701	C470	0.725100	0.915500	0.415500
H4421	H442	0.704400	0.921700	0.421700
C4711	C471	0.752000	0.930100	0.430100
O4141	O414	0.768900	0.967000	0.467000
C4721	C472	0.748300	0.950000	0.450000
C4731	C473	0.786400	0.897100	0.397100
H4431	H443	0.807000	0.890900	0.390900
C4741	C474	0.759900	0.882900	0.382900
H4441	H444	0.762900	0.867100	0.367100
Ni161	Ni16	0.687730	0.371010	0.871010
N161	N16	0.729100	0.391600	0.891600
O4151	O415	0.721900	0.462200	0.962200
C4751	C475	0.782500	0.420400	0.920400
H4451	H445	0.800600	0.429800	0.929800
C4761	C476	0.725100	0.415500	0.915500
H4461	H446	0.704400	0.421700	0.921700
C4771	C477	0.752000	0.430100	0.930100
O4161	O416	0.768900	0.467000	0.967000
C4781	C478	0.748300	0.450000	0.950000
C4791	C479	0.786400	0.397100	0.897100
H4471	H447	0.807000	0.390900	0.890900
C4801	C480	0.759900	0.382900	0.882900
H4481	H448	0.762900	0.367100	0.867100
Ni171	Ni17	0.128990	0.187730	0.128990
N171	N17	0.108400	0.229100	0.108400
O4171	O417	0.037800	0.221900	0.037800
C4811	C481	0.079600	0.282500	0.079600
H4491	H449	0.070200	0.300600	0.070200
C4821	C482	0.084500	0.225100	0.084500
H4501	H450	0.078300	0.204400	0.078300
C4831	C483	0.069900	0.252000	0.069900
O4181	O418	0.033000	0.268900	0.033000
C4841	C484	0.050000	0.248300	0.050000
C4851	C485	0.102900	0.286400	0.102900
H4511	H451	0.109100	0.307000	0.109100
C4861	C486	0.117100	0.259900	0.117100
H4521	H452	0.132900	0.262900	0.132900
Ni181	Ni18	0.128990	0.687730	0.628990
N181	N18	0.108400	0.729100	0.608400
O4191	O419	0.037800	0.721900	0.537800
C4871	C487	0.079600	0.782500	0.579600
H4531	H453	0.070200	0.800600	0.570200
C4881	C488	0.084500	0.725100	0.584500
H4541	H454	0.078300	0.704400	0.578300
C4891	C489	0.069900	0.752000	0.569900
O4201	O420	0.033000	0.768900	0.533000
C4901	C490	0.050000	0.748300	0.550000
C4911	C491	0.102900	0.786400	0.602900
H4551	H455	0.109100	0.807000	0.609100
C4921	C492	0.117100	0.759900	0.617100
H4561	H456	0.132900	0.762900	0.632900
Ni191	Ni19	0.628990	0.187730	0.628990
N191	N19	0.608400	0.229100	0.608400
O4211	O421	0.537800	0.221900	0.537800
C4931	C493	0.579600	0.282500	0.579600
H4571	H457	0.570200	0.300600	0.570200
C4941	C494	0.584500	0.225100	0.584500
H4581	H458	0.578300	0.204400	0.578300
C4951	C495	0.569900	0.252000	0.569900
O4221	O422	0.533000	0.268900	0.533000
C4961	C496	0.550000	0.248300	0.550000
C4971	C497	0.602900	0.286400	0.602900
H4591	H459	0.609100	0.307000	0.609100
C4981	C498	0.617100	0.259900	0.617100
H4601	H460	0.632900	0.262900	0.632900
Ni201	Ni20	0.628990	0.687730	0.128990
N201	N20	0.608400	0.729100	0.108400
O4231	O423	0.537800	0.721900	0.037800
C4991	C499	0.579600	0.782500	0.079600
H4611	H461	0.570200	0.800600	0.070200
C5001	C500	0.584500	0.725100	0.084500
H4621	H462	0.578300	0.704400	0.078300
C5011	C501	0.569900	0.752000	0.069900
O4241	O424	0.533000	0.768900	0.033000
C5021	C502	0.550000	0.748300	0.050000
C5031	C503	0.602900	0.786400	0.102900
H4631	H463	0.609100	0.807000	0.109100
C5041	C504	0.617100	0.759900	0.117100
H4641	H464	0.632900	0.762900	0.132900
Ni211	Ni21	0.128990	0.812270	0.871010
N211	N21	0.108400	0.770900	0.891600
O4251	O425	0.037800	0.778100	0.962200
C5051	C505	0.079600	0.717500	0.920400
H4651	H465	0.070200	0.699400	0.929800
C5061	C506	0.084500	0.774900	0.915500
H4661	H466	0.078300	0.795600	0.921700
C5071	C507	0.069900	0.748000	0.930100
O4261	O426	0.033000	0.731100	0.967000
C5081	C508	0.050000	0.751700	0.950000
C5091	C509	0.102900	0.713600	0.897100
H4671	H467	0.109100	0.693000	0.890900
C5101	C510	0.117100	0.740100	0.882900
H4681	H468	0.132900	0.737100	0.867100
Ni221	Ni22	0.128990	0.312270	0.371010
N221	N22	0.108400	0.270900	0.391600
O4271	O427	0.037800	0.278100	0.462200
C5111	C511	0.079600	0.217500	0.420400
H4691	H469	0.070200	0.199400	0.429800
C5121	C512	0.084500	0.274900	0.415500
H4701	H470	0.078300	0.295600	0.421700
C5131	C513	0.069900	0.248000	0.430100
O4281	O428	0.033000	0.231100	0.467000
C5141	C514	0.050000	0.251700	0.450000
C5151	C515	0.102900	0.213600	0.397100
H4711	H471	0.109100	0.193000	0.390900
C5161	C516	0.117100	0.240100	0.382900
H4721	H472	0.132900	0.237100	0.367100
Ni231	Ni23	0.628990	0.812270	0.371010
N231	N23	0.608400	0.770900	0.391600
O4291	O429	0.537800	0.778100	0.462200
C5171	C517	0.579600	0.717500	0.420400
H4731	H473	0.570200	0.699400	0.429800
C5181	C518	0.584500	0.774900	0.415500
H4741	H474	0.578300	0.795600	0.421700
C5191	C519	0.569900	0.748000	0.430100
O4301	O430	0.533000	0.731100	0.467000
C5201	C520	0.550000	0.751700	0.450000
C5211	C521	0.602900	0.713600	0.397100
H4751	H475	0.609100	0.693000	0.390900
C5221	C522	0.617100	0.740100	0.382900
H4761	H476	0.632900	0.737100	0.367100
Ni241	Ni24	0.628990	0.312270	0.871010
N241	N24	0.608400	0.270900	0.891600
O4311	O431	0.537800	0.278100	0.962200
C5231	C523	0.579600	0.217500	0.920400
H4771	H477	0.570200	0.199400	0.929800
C5241	C524	0.584500	0.274900	0.915500
H4781	H478	0.578300	0.295600	0.921700
C5251	C525	0.569900	0.248000	0.930100
O4321	O432	0.533000	0.231100	0.967000
C5261	C526	0.550000	0.251700	0.950000
C5271	C527	0.602900	0.213600	0.897100
H4791	H479	0.609100	0.193000	0.890900
C5281	C528	0.617100	0.240100	0.882900
H4801	H480	0.632900	0.237100	0.867100
Ni251	Ni25	0.871010	0.812270	0.128990
N251	N25	0.891600	0.770900	0.108400
O4331	O433	0.962200	0.778100	0.037800
C5291	C529	0.920400	0.717500	0.079600
H4811	H481	0.929800	0.699400	0.070200
C5301	C530	0.915500	0.774900	0.084500
H4821	H482	0.921700	0.795600	0.078300
C5311	C531	0.930100	0.748000	0.069900
O4341	O434	0.967000	0.731100	0.033000
C5321	C532	0.950000	0.751700	0.050000
C5331	C533	0.897100	0.713600	0.102900
H4831	H483	0.890900	0.693000	0.109100
C5341	C534	0.882900	0.740100	0.117100
H4841	H484	0.867100	0.737100	0.132900
Ni261	Ni26	0.871010	0.312270	0.628990
N261	N26	0.891600	0.270900	0.608400
O4351	O435	0.962200	0.278100	0.537800
C5351	C535	0.920400	0.217500	0.579600
H4851	H485	0.929800	0.199400	0.570200
C5361	C536	0.915500	0.274900	0.584500
H4861	H486	0.921700	0.295600	0.578300
C5371	C537	0.930100	0.248000	0.569900
O4361	O436	0.967000	0.231100	0.533000
C5381	C538	0.950000	0.251700	0.550000
C5391	C539	0.897100	0.213600	0.602900
H4871	H487	0.890900	0.193000	0.609100
C5401	C540	0.882900	0.240100	0.617100
H4881	H488	0.867100	0.237100	0.632900
Ni271	Ni27	0.371010	0.812270	0.628990
N271	N27	0.391600	0.770900	0.608400
O4371	O437	0.462200	0.778100	0.537800
C5411	C541	0.420400	0.717500	0.579600
H4891	H489	0.429800	0.699400	0.570200
C5421	C542	0.415500	0.774900	0.584500
H4901	H490	0.421700	0.795600	0.578300
C5431	C543	0.430100	0.748000	0.569900
O4381	O438	0.467000	0.731100	0.533000
C5441	C544	0.450000	0.751700	0.550000
C5451	C545	0.397100	0.713600	0.602900
H4911	H491	0.390900	0.693000	0.609100
C5461	C546	0.382900	0.740100	0.617100
H4921	H492	0.367100	0.737100	0.632900
Ni281	Ni28	0.371010	0.312270	0.128990
N281	N28	0.391600	0.270900	0.108400
O4391	O439	0.462200	0.278100	0.037800
C5471	C547	0.420400	0.217500	0.079600
H4931	H493	0.429800	0.199400	0.070200
C5481	C548	0.415500	0.274900	0.084500
H4941	H494	0.421700	0.295600	0.078300
C5491	C549	0.430100	0.248000	0.069900
O4401	O440	0.467000	0.231100	0.033000
C5501	C550	0.450000	0.251700	0.050000
C5511	C551	0.397100	0.213600	0.102900
H4951	H495	0.390900	0.193000	0.109100
C5521	C552	0.382900	0.240100	0.117100
H4961	H496	0.367100	0.237100	0.132900
Ni291	Ni29	0.871010	0.187730	0.871010
N291	N29	0.891600	0.229100	0.891600
O4411	O441	0.962200	0.221900	0.962200
C5531	C553	0.920400	0.282500	0.920400
H4971	H497	0.929800	0.300600	0.929800
C5541	C554	0.915500	0.225100	0.915500
H4981	H498	0.921700	0.204400	0.921700
C5551	C555	0.930100	0.252000	0.930100
O4421	O442	0.967000	0.268900	0.967000
C5561	C556	0.950000	0.248300	0.950000
C5571	C557	0.897100	0.286400	0.897100
H4991	H499	0.890900	0.307000	0.890900
C5581	C558	0.882900	0.259900	0.882900
H5001	H500	0.867100	0.262900	0.867100
Ni301	Ni30	0.871010	0.687730	0.371010
N301	N30	0.891600	0.729100	0.391600
O4431	O443	0.962200	0.721900	0.462200
C5591	C559	0.920400	0.782500	0.420400
H5011	H501	0.929800	0.800600	0.429800
C5601	C560	0.915500	0.725100	0.415500
H5021	H502	0.921700	0.704400	0.421700
C5611	C561	0.930100	0.752000	0.430100
O4441	O444	0.967000	0.768900	0.467000
C5621	C562	0.950000	0.748300	0.450000
C5631	C563	0.897100	0.786400	0.397100
H5031	H503	0.890900	0.807000	0.390900
C5641	C564	0.882900	0.759900	0.382900
H5041	H504	0.867100	0.762900	0.367100
Ni311	Ni31	0.371010	0.187730	0.371010
N311	N31	0.391600	0.229100	0.391600
O4451	O445	0.462200	0.221900	0.462200
C5651	C565	0.420400	0.282500	0.420400
H5051	H505	0.429800	0.300600	0.429800
C5661	C566	0.415500	0.225100	0.415500
H5061	H506	0.421700	0.204400	0.421700
C5671	C567	0.430100	0.252000	0.430100
O4461	O446	0.467000	0.268900	0.467000
C5681	C568	0.450000	0.248300	0.450000
C5691	C569	0.397100	0.286400	0.397100
H5071	H507	0.390900	0.307000	0.390900
C5701	C570	0.382900	0.259900	0.382900
H5081	H508	0.367100	0.262900	0.367100
Ni321	Ni32	0.371010	0.687730	0.871010
N321	N32	0.391600	0.729100	0.891600
O4471	O447	0.462200	0.721900	0.962200
C5711	C571	0.420400	0.782500	0.920400
H5091	H509	0.429800	0.800600	0.929800
C5721	C572	0.415500	0.725100	0.915500
H5101	H510	0.421700	0.704400	0.921700
C5731	C573	0.430100	0.752000	0.930100
O4481	O448	0.467000	0.768900	0.967000
C5741	C574	0.450000	0.748300	0.950000
C5751	C575	0.397100	0.786400	0.897100
H5111	H511	0.390900	0.807000	0.890900
C5761	C576	0.382900	0.759900	0.882900
H5121	H512	0.367100	0.762900	0.867100
Ni331	Ni33	0.128990	0.128990	0.187730
N331	N33	0.108400	0.108400	0.229100
O4491	O449	0.037800	0.037800	0.221900
C5771	C577	0.079600	0.079600	0.282500
H5131	H513	0.070200	0.070200	0.300600
C5781	C578	0.084500	0.084500	0.225100
H5141	H514	0.078300	0.078300	0.204400
C5791	C579	0.069900	0.069900	0.252000
O4501	O450	0.033000	0.033000	0.268900
C5801	C580	0.050000	0.050000	0.248300
C5811	C581	0.102900	0.102900	0.286400
H5151	H515	0.109100	0.109100	0.307000
C5821	C582	0.117100	0.117100	0.259900
H5161	H516	0.132900	0.132900	0.262900
Ni341	Ni34	0.128990	0.628990	0.687730
N341	N34	0.108400	0.608400	0.729100
O4511	O451	0.037800	0.537800	0.721900
C5831	C583	0.079600	0.579600	0.782500
H5171	H517	0.070200	0.570200	0.800600
C5841	C584	0.084500	0.584500	0.725100
H5181	H518	0.078300	0.578300	0.704400
C5851	C585	0.069900	0.569900	0.752000
O4521	O452	0.033000	0.533000	0.768900
C5861	C586	0.050000	0.550000	0.748300
C5871	C587	0.102900	0.602900	0.786400
H5191	H519	0.109100	0.609100	0.807000
C5881	C588	0.117100	0.617100	0.759900
H5201	H520	0.132900	0.632900	0.762900
Ni351	Ni35	0.628990	0.128990	0.687730
N351	N35	0.608400	0.108400	0.729100
O4531	O453	0.537800	0.037800	0.721900
C5891	C589	0.579600	0.079600	0.782500
H5211	H521	0.570200	0.070200	0.800600
C5901	C590	0.584500	0.084500	0.725100
H5221	H522	0.578300	0.078300	0.704400
C5911	C591	0.569900	0.069900	0.752000
O4541	O454	0.533000	0.033000	0.768900
C5921	C592	0.550000	0.050000	0.748300
C5931	C593	0.602900	0.102900	0.786400
H5231	H523	0.609100	0.109100	0.807000
C5941	C594	0.617100	0.117100	0.759900
H5241	H524	0.632900	0.132900	0.762900
Ni361	Ni36	0.628990	0.628990	0.187730
N361	N36	0.608400	0.608400	0.229100
O4551	O455	0.537800	0.537800	0.221900
C5951	C595	0.579600	0.579600	0.282500
H5251	H525	0.570200	0.570200	0.300600
C5961	C596	0.584500	0.584500	0.225100
H5261	H526	0.578300	0.578300	0.204400
C5971	C597	0.569900	0.569900	0.252000
O4561	O456	0.533000	0.533000	0.268900
C5981	C598	0.550000	0.550000	0.248300
C5991	C599	0.602900	0.602900	0.286400
H5271	H527	0.609100	0.609100	0.307000
C6001	C600	0.617100	0.617100	0.259900
H5281	H528	0.632900	0.632900	0.262900
Ni371	Ni37	0.871010	0.128990	0.812270
N371	N37	0.891600	0.108400	0.770900
O4571	O457	0.962200	0.037800	0.778100
C6011	C601	0.920400	0.079600	0.717500
H5291	H529	0.929800	0.070200	0.699400
C6021	C602	0.915500	0.084500	0.774900
H5301	H530	0.921700	0.078300	0.795600
C6031	C603	0.930100	0.069900	0.748000
O4581	O458	0.967000	0.033000	0.731100
C6041	C604	0.950000	0.050000	0.751700
C6051	C605	0.897100	0.102900	0.713600
H5311	H531	0.890900	0.109100	0.693000
C6061	C606	0.882900	0.117100	0.740100
H5321	H532	0.867100	0.132900	0.737100
Ni381	Ni38	0.871010	0.628990	0.312270
N381	N38	0.891600	0.608400	0.270900
O4591	O459	0.962200	0.537800	0.278100
C6071	C607	0.920400	0.579600	0.217500
H5331	H533	0.929800	0.570200	0.199400
C6081	C608	0.915500	0.584500	0.274900
H5341	H534	0.921700	0.578300	0.295600
C6091	C609	0.930100	0.569900	0.248000
O4601	O460	0.967000	0.533000	0.231100
C6101	C610	0.950000	0.550000	0.251700
C6111	C611	0.897100	0.602900	0.213600
H5351	H535	0.890900	0.609100	0.193000
C6121	C612	0.882900	0.617100	0.240100
H5361	H536	0.867100	0.632900	0.237100
Ni391	Ni39	0.371010	0.128990	0.312270
N391	N39	0.391600	0.108400	0.270900
O4611	O461	0.462200	0.037800	0.278100
C6131	C613	0.420400	0.079600	0.217500
H5371	H537	0.429800	0.070200	0.199400
C6141	C614	0.415500	0.084500	0.274900
H5381	H538	0.421700	0.078300	0.295600
C6151	C615	0.430100	0.069900	0.248000
O4621	O462	0.467000	0.033000	0.231100
C6161	C616	0.450000	0.050000	0.251700
C6171	C617	0.397100	0.102900	0.213600
H5391	H539	0.390900	0.109100	0.193000
C6181	C618	0.382900	0.117100	0.240100
H5401	H540	0.367100	0.132900	0.237100
Ni401	Ni40	0.371010	0.628990	0.812270
N401	N40	0.391600	0.608400	0.770900
O4631	O463	0.462200	0.537800	0.778100
C6191	C619	0.420400	0.579600	0.717500
H5411	H541	0.429800	0.570200	0.699400
C6201	C620	0.415500	0.584500	0.774900
H5421	H542	0.421700	0.578300	0.795600
C6211	C621	0.430100	0.569900	0.748000
O4641	O464	0.467000	0.533000	0.731100
C6221	C622	0.450000	0.550000	0.751700
C6231	C623	0.397100	0.602900	0.713600
H5431	H543	0.390900	0.609100	0.693000
C6241	C624	0.382900	0.617100	0.740100
H5441	H544	0.367100	0.632900	0.737100
Ni411	Ni41	0.128990	0.871010	0.812270
N411	N41	0.108400	0.891600	0.770900
O4651	O465	0.037800	0.962200	0.778100
C6251	C625	0.079600	0.920400	0.717500
H5451	H545	0.070200	0.929800	0.699400
C6261	C626	0.084500	0.915500	0.774900
H5461	H546	0.078300	0.921700	0.795600
C6271	C627	0.069900	0.930100	0.748000
O4661	O466	0.033000	0.967000	0.731100
C6281	C628	0.050000	0.950000	0.751700
C6291	C629	0.102900	0.897100	0.713600
H5471	H547	0.109100	0.890900	0.693000
C6301	C630	0.117100	0.882900	0.740100
H5481	H548	0.132900	0.867100	0.737100
Ni421	Ni42	0.128990	0.371010	0.312270
N421	N42	0.108400	0.391600	0.270900
O4671	O467	0.037800	0.462200	0.278100
C6311	C631	0.079600	0.420400	0.217500
H5491	H549	0.070200	0.429800	0.199400
C6321	C632	0.084500	0.415500	0.274900
H5501	H550	0.078300	0.421700	0.295600
C6331	C633	0.069900	0.430100	0.248000
O4681	O468	0.033000	0.467000	0.231100
C6341	C634	0.050000	0.450000	0.251700
C6351	C635	0.102900	0.397100	0.213600
H5511	H551	0.109100	0.390900	0.193000
C6361	C636	0.117100	0.382900	0.240100
H5521	H552	0.132900	0.367100	0.237100
Ni431	Ni43	0.628990	0.871010	0.312270
N431	N43	0.608400	0.891600	0.270900
O4691	O469	0.537800	0.962200	0.278100
C6371	C637	0.579600	0.920400	0.217500
H5531	H553	0.570200	0.929800	0.199400
C6381	C638	0.584500	0.915500	0.274900
H5541	H554	0.578300	0.921700	0.295600
C6391	C639	0.569900	0.930100	0.248000
O4701	O470	0.533000	0.967000	0.231100
C6401	C640	0.550000	0.950000	0.251700
C6411	C641	0.602900	0.897100	0.213600
H5551	H555	0.609100	0.890900	0.193000
C6421	C642	0.617100	0.882900	0.240100
H5561	H556	0.632900	0.867100	0.237100
Ni441	Ni44	0.628990	0.371010	0.812270
N441	N44	0.608400	0.391600	0.770900
O4711	O471	0.537800	0.462200	0.778100
C6431	C643	0.579600	0.420400	0.717500
H5571	H557	0.570200	0.429800	0.699400
C6441	C644	0.584500	0.415500	0.774900
H5581	H558	0.578300	0.421700	0.795600
C6451	C645	0.569900	0.430100	0.748000
O4721	O472	0.533000	0.467000	0.731100
C6461	C646	0.550000	0.450000	0.751700
C6471	C647	0.602900	0.397100	0.713600
H5591	H559	0.609100	0.390900	0.693000
C6481	C648	0.617100	0.382900	0.740100
H5601	H560	0.632900	0.367100	0.737100
Ni451	Ni45	0.871010	0.871010	0.187730
N451	N45	0.891600	0.891600	0.229100
O4731	O473	0.962200	0.962200	0.221900
C6491	C649	0.920400	0.920400	0.282500
H5611	H561	0.929800	0.929800	0.300600
C6501	C650	0.915500	0.915500	0.225100
H5621	H562	0.921700	0.921700	0.204400
C6511	C651	0.930100	0.930100	0.252000
O4741	O474	0.967000	0.967000	0.268900
C6521	C652	0.950000	0.950000	0.248300
C6531	C653	0.897100	0.897100	0.286400
H5631	H563	0.890900	0.890900	0.307000
C6541	C654	0.882900	0.882900	0.259900
H5641	H564	0.867100	0.867100	0.262900
Ni461	Ni46	0.871010	0.371010	0.687730
N461	N46	0.891600	0.391600	0.729100
O4751	O475	0.962200	0.462200	0.721900
C6551	C655	0.920400	0.420400	0.782500
H5651	H565	0.929800	0.429800	0.800600
C6561	C656	0.915500	0.415500	0.725100
H5661	H566	0.921700	0.421700	0.704400
C6571	C657	0.930100	0.430100	0.752000
O4761	O476	0.967000	0.467000	0.768900
C6581	C658	0.950000	0.450000	0.748300
C6591	C659	0.897100	0.397100	0.786400
H5671	H567	0.890900	0.390900	0.807000
C6601	C660	0.882900	0.382900	0.759900
H5681	H568	0.867100	0.367100	0.762900
Ni471	Ni47	0.371010	0.871010	0.687730
N471	N47	0.391600	0.891600	0.729100
O4771	O477	0.462200	0.962200	0.721900
C6611	C661	0.420400	0.920400	0.782500
H5691	H569	0.429800	0.929800	0.800600
C6621	C662	0.415500	0.915500	0.725100
H5701	H570	0.421700	0.921700	0.704400
C6631	C663	0.430100	0.930100	0.752000
O4781	O478	0.467000	0.967000	0.768900
C6641	C664	0.450000	0.950000	0.748300
C6651	C665	0.397100	0.897100	0.786400
H5711	H571	0.390900	0.890900	0.807000
C6661	C666	0.382900	0.882900	0.759900
H5721	H572	0.367100	0.867100	0.762900
Ni481	Ni48	0.371010	0.371010	0.187730
N481	N48	0.391600	0.391600	0.229100
O4791	O479	0.462200	0.462200	0.221900
C6671	C667	0.420400	0.420400	0.282500
H5731	H573	0.429800	0.429800	0.300600
C6681	C668	0.415500	0.415500	0.225100
H5741	H574	0.421700	0.421700	0.204400
C6691	C669	0.430100	0.430100	0.252000
O4801	O480	0.467000	0.467000	0.268900
C6701	C670	0.450000	0.450000	0.248300
C6711	C671	0.397100	0.397100	0.286400
H5751	H575	0.390900	0.390900	0.307000
C6721	C672	0.382900	0.382900	0.259900
H5761	H576	0.367100	0.367100	0.262900
Ni491	Ni49	0.128990	0.187730	0.871010
N491	N49	0.108400	0.229100	0.891600
O4811	O481	0.037800	0.221900	0.962200
C6731	C673	0.079600	0.282500	0.920400
H5771	H577	0.070200	0.300600	0.929800
C6741	C674	0.084500	0.225100	0.915500
H5781	H578	0.078300	0.204400	0.921700
C6751	C675	0.069900	0.252000	0.930100
O4821	O482	0.033000	0.268900	0.967000
C6761	C676	0.050000	0.248300	0.950000
C6771	C677	0.102900	0.286400	0.897100
H5791	H579	0.109100	0.307000	0.890900
C6781	C678	0.117100	0.259900	0.882900
H5801	H580	0.132900	0.262900	0.867100
Ni501	Ni50	0.128990	0.687730	0.371010
N501	N50	0.108400	0.729100	0.391600
O4831	O483	0.037800	0.721900	0.462200
C6791	C679	0.079600	0.782500	0.420400
H5811	H581	0.070200	0.800600	0.429800
C6801	C680	0.084500	0.725100	0.415500
H5821	H582	0.078300	0.704400	0.421700
C6811	C681	0.069900	0.752000	0.430100
O4841	O484	0.033000	0.768900	0.467000
C6821	C682	0.050000	0.748300	0.450000
C6831	C683	0.102900	0.786400	0.397100
H5831	H583	0.109100	0.807000	0.390900
C6841	C684	0.117100	0.759900	0.382900
H5841	H584	0.132900	0.762900	0.367100
Ni511	Ni51	0.628990	0.187730	0.371010
N511	N51	0.608400	0.229100	0.391600
O4851	O485	0.537800	0.221900	0.462200
C6851	C685	0.579600	0.282500	0.420400
H5851	H585	0.570200	0.300600	0.429800
C6861	C686	0.584500	0.225100	0.415500
H5861	H586	0.578300	0.204400	0.421700
C6871	C687	0.569900	0.252000	0.430100
O4861	O486	0.533000	0.268900	0.467000
C6881	C688	0.550000	0.248300	0.450000
C6891	C689	0.602900	0.286400	0.397100
H5871	H587	0.609100	0.307000	0.390900
C6901	C690	0.617100	0.259900	0.382900
H5881	H588	0.632900	0.262900	0.367100
Ni521	Ni52	0.628990	0.687730	0.871010
N521	N52	0.608400	0.729100	0.891600
O4871	O487	0.537800	0.721900	0.962200
C6911	C691	0.579600	0.782500	0.920400
H5891	H589	0.570200	0.800600	0.929800
C6921	C692	0.584500	0.725100	0.915500
H5901	H590	0.578300	0.704400	0.921700
C6931	C693	0.569900	0.752000	0.930100
O4881	O488	0.533000	0.768900	0.967000
C6941	C694	0.550000	0.748300	0.950000
C6951	C695	0.602900	0.786400	0.897100
H5911	H591	0.609100	0.807000	0.890900
C6961	C696	0.617100	0.759900	0.882900
H5921	H592	0.632900	0.762900	0.867100
Ni531	Ni53	0.871010	0.812270	0.871010
N531	N53	0.891600	0.770900	0.891600
O4891	O489	0.962200	0.778100	0.962200
C6971	C697	0.920400	0.717500	0.920400
H5931	H593	0.929800	0.699400	0.929800
C6981	C698	0.915500	0.774900	0.915500
H5941	H594	0.921700	0.795600	0.921700
C6991	C699	0.930100	0.748000	0.930100
O4901	O490	0.967000	0.731100	0.967000
C7001	C700	0.950000	0.751700	0.950000
C7011	C701	0.897100	0.713600	0.897100
H5951	H595	0.890900	0.693000	0.890900
C7021	C702	0.882900	0.740100	0.882900
H5961	H596	0.867100	0.737100	0.867100
Ni541	Ni54	0.871010	0.312270	0.371010
N541	N54	0.891600	0.270900	0.391600
O4911	O491	0.962200	0.278100	0.462200
C7031	C703	0.920400	0.217500	0.420400
H5971	H597	0.929800	0.199400	0.429800
C7041	C704	0.915500	0.274900	0.415500
H5981	H598	0.921700	0.295600	0.421700
C7051	C705	0.930100	0.248000	0.430100
O4921	O492	0.967000	0.231100	0.467000
C7061	C706	0.950000	0.251700	0.450000
C7071	C707	0.897100	0.213600	0.397100
H5991	H599	0.890900	0.193000	0.390900
C7081	C708	0.882900	0.240100	0.382900
H6001	H600	0.867100	0.237100	0.367100
Ni551	Ni55	0.371010	0.812270	0.371010
N551	N55	0.391600	0.770900	0.391600
O4931	O493	0.462200	0.778100	0.462200
C7091	C709	0.420400	0.717500	0.420400
H6011	H601	0.429800	0.699400	0.429800
C7101	C710	0.415500	0.774900	0.415500
H6021	H602	0.421700	0.795600	0.421700
C7111	C711	0.430100	0.748000	0.430100
O4941	O494	0.467000	0.731100	0.467000
C7121	C712	0.450000	0.751700	0.450000
C7131	C713	0.397100	0.713600	0.397100
H6031	H603	0.390900	0.693000	0.390900
C7141	C714	0.382900	0.740100	0.382900
H6041	H604	0.367100	0.737100	0.367100
Ni561	Ni56	0.371010	0.312270	0.871010
N561	N56	0.391600	0.270900	0.891600
O4951	O495	0.462200	0.278100	0.962200
C7151	C715	0.420400	0.217500	0.920400
H6051	H605	0.429800	0.199400	0.929800
C7161	C716	0.415500	0.274900	0.915500
H6061	H606	0.421700	0.295600	0.921700
C7171	C717	0.430100	0.248000	0.930100
O4961	O496	0.467000	0.231100	0.967000
C7181	C718	0.450000	0.251700	0.950000
C7191	C719	0.397100	0.213600	0.897100
H6071	H607	0.390900	0.193000	0.890900
C7201	C720	0.382900	0.240100	0.882900
H6081	H608	0.367100	0.237100	0.867100
Ni571	Ni57	0.128990	0.812270	0.128990
N571	N57	0.108400	0.770900	0.108400
O4971	O497	0.037800	0.778100	0.037800
C7211	C721	0.079600	0.717500	0.079600
H6091	H609	0.070200	0.699400	0.070200
C7221	C722	0.084500	0.774900	0.084500
H6101	H610	0.078300	0.795600	0.078300
C7231	C723	0.069900	0.748000	0.069900
O4981	O498	0.033000	0.731100	0.033000
C7241	C724	0.050000	0.751700	0.050000
C7251	C725	0.102900	0.713600	0.102900
H6111	H611	0.109100	0.693000	0.109100
C7261	C726	0.117100	0.740100	0.117100
H6121	H612	0.132900	0.737100	0.132900
Ni581	Ni58	0.128990	0.312270	0.628990
N581	N58	0.108400	0.270900	0.608400
O4991	O499	0.037800	0.278100	0.537800
C7271	C727	0.079600	0.217500	0.579600
H6131	H613	0.070200	0.199400	0.570200
C7281	C728	0.084500	0.274900	0.584500
H6141	H614	0.078300	0.295600	0.578300
C7291	C729	0.069900	0.248000	0.569900
O5001	O500	0.033000	0.231100	0.533000
C7301	C730	0.050000	0.251700	0.550000
C7311	C731	0.102900	0.213600	0.602900
H6151	H615	0.109100	0.193000	0.609100
C7321	C732	0.117100	0.240100	0.617100
H6161	H616	0.132900	0.237100	0.632900
Ni591	Ni59	0.628990	0.812270	0.628990
N591	N59	0.608400	0.770900	0.608400
O5011	O501	0.537800	0.778100	0.537800
C7331	C733	0.579600	0.717500	0.579600
H6171	H617	0.570200	0.699400	0.570200
C7341	C734	0.584500	0.774900	0.584500
H6181	H618	0.578300	0.795600	0.578300
C7351	C735	0.569900	0.748000	0.569900
O5021	O502	0.533000	0.731100	0.533000
C7361	C736	0.550000	0.751700	0.550000
C7371	C737	0.602900	0.713600	0.602900
H6191	H619	0.609100	0.693000	0.609100
C7381	C738	0.617100	0.740100	0.617100
H6201	H620	0.632900	0.737100	0.632900
Ni601	Ni60	0.628990	0.312270	0.128990
N601	N60	0.608400	0.270900	0.108400
O5031	O503	0.537800	0.278100	0.037800
C7391	C739	0.579600	0.217500	0.079600
H6211	H621	0.570200	0.199400	0.070200
C7401	C740	0.584500	0.274900	0.084500
H6221	H622	0.578300	0.295600	0.078300
C7411	C741	0.569900	0.248000	0.069900
O5041	O504	0.533000	0.231100	0.033000
C7421	C742	0.550000	0.251700	0.050000
C7431	C743	0.602900	0.213600	0.102900
H6231	H623	0.609100	0.193000	0.109100
C7441	C744	0.617100	0.240100	0.117100
H6241	H624	0.632900	0.237100	0.132900
Ni611	Ni61	0.871010	0.187730	0.128990
N611	N61	0.891600	0.229100	0.108400
O5051	O505	0.962200	0.221900	0.037800
C7451	C745	0.920400	0.282500	0.079600
H6251	H625	0.929800	0.300600	0.070200
C7461	C746	0.915500	0.225100	0.084500
H6261	H626	0.921700	0.204400	0.078300
C7471	C747	0.930100	0.252000	0.069900
O5061	O506	0.967000	0.268900	0.033000
C7481	C748	0.950000	0.248300	0.050000
C7491	C749	0.897100	0.286400	0.102900
H6271	H627	0.890900	0.307000	0.109100
C7501	C750	0.882900	0.259900	0.117100
H6281	H628	0.867100	0.262900	0.132900
Ni621	Ni62	0.871010	0.687730	0.628990
N621	N62	0.891600	0.729100	0.608400
O5071	O507	0.962200	0.721900	0.537800
C7511	C751	0.920400	0.782500	0.579600
H6291	H629	0.929800	0.800600	0.570200
C7521	C752	0.915500	0.725100	0.584500
H6301	H630	0.921700	0.704400	0.578300
C7531	C753	0.930100	0.752000	0.569900
O5081	O508	0.967000	0.768900	0.533000
C7541	C754	0.950000	0.748300	0.550000
C7551	C755	0.897100	0.786400	0.602900
H6311	H631	0.890900	0.807000	0.609100
C7561	C756	0.882900	0.759900	0.617100
H6321	H632	0.867100	0.762900	0.632900
Ni631	Ni63	0.371010	0.187730	0.628990
N631	N63	0.391600	0.229100	0.608400
O5091	O509	0.462200	0.221900	0.537800
C7571	C757	0.420400	0.282500	0.579600
H6331	H633	0.429800	0.300600	0.570200
C7581	C758	0.415500	0.225100	0.584500
H6341	H634	0.421700	0.204400	0.578300
C7591	C759	0.430100	0.252000	0.569900
O5101	O510	0.467000	0.268900	0.533000
C7601	C760	0.450000	0.248300	0.550000
C7611	C761	0.397100	0.286400	0.602900
H6351	H635	0.390900	0.307000	0.609100
C7621	C762	0.382900	0.259900	0.617100
H6361	H636	0.367100	0.262900	0.632900
Ni641	Ni64	0.371010	0.687730	0.128990
N641	N64	0.391600	0.729100	0.108400
O5111	O511	0.462200	0.721900	0.037800
C7631	C763	0.420400	0.782500	0.079600
H6371	H637	0.429800	0.800600	0.070200
C7641	C764	0.415500	0.725100	0.084500
H6381	H638	0.421700	0.704400	0.078300
C7651	C765	0.430100	0.752000	0.069900
O5121	O512	0.467000	0.768900	0.033000
C7661	C766	0.450000	0.748300	0.050000
C7671	C767	0.397100	0.786400	0.102900
H6391	H639	0.390900	0.807000	0.109100
C7681	C768	0.382900	0.759900	0.117100
H6401	H640	0.367100	0.762900	0.132900
Ni651	Ni65	0.187730	0.128990	0.871010
N651	N65	0.229100	0.108400	0.891600
O5131	O513	0.221900	0.037800	0.962200
C7691	C769	0.282500	0.079600	0.920400
H6411	H641	0.300600	0.070200	0.929800
C7701	C770	0.225100	0.084500	0.915500
H6421	H642	0.204400	0.078300	0.921700
C7711	C771	0.252000	0.069900	0.930100
O5141	O514	0.268900	0.033000	0.967000
C7721	C772	0.248300	0.050000	0.950000
C7731	C773	0.286400	0.102900	0.897100
H6431	H643	0.307000	0.109100	0.890900
C7741	C774	0.259900	0.117100	0.882900
H6441	H644	0.262900	0.132900	0.867100
Ni661	Ni66	0.187730	0.628990	0.371010
N661	N66	0.229100	0.608400	0.391600
O5151	O515	0.221900	0.537800	0.462200
C7751	C775	0.282500	0.579600	0.420400
H6451	H645	0.300600	0.570200	0.429800
C7761	C776	0.225100	0.584500	0.415500
H6461	H646	0.204400	0.578300	0.421700
C7771	C777	0.252000	0.569900	0.430100
O5161	O516	0.268900	0.533000	0.467000
C7781	C778	0.248300	0.550000	0.450000
C7791	C779	0.286400	0.602900	0.397100
H6471	H647	0.307000	0.609100	0.390900
C7801	C780	0.259900	0.617100	0.382900
H6481	H648	0.262900	0.632900	0.367100
Ni671	Ni67	0.687730	0.128990	0.371010
N671	N67	0.729100	0.108400	0.391600
O5171	O517	0.721900	0.037800	0.462200
C7811	C781	0.782500	0.079600	0.420400
H6491	H649	0.800600	0.070200	0.429800
C7821	C782	0.725100	0.084500	0.415500
H6501	H650	0.704400	0.078300	0.421700
C7831	C783	0.752000	0.069900	0.430100
O5181	O518	0.768900	0.033000	0.467000
C7841	C784	0.748300	0.050000	0.450000
C7851	C785	0.786400	0.102900	0.397100
H6511	H651	0.807000	0.109100	0.390900
C7861	C786	0.759900	0.117100	0.382900
H6521	H652	0.762900	0.132900	0.367100
Ni681	Ni68	0.687730	0.628990	0.871010
N681	N68	0.729100	0.608400	0.891600
O5191	O519	0.721900	0.537800	0.962200
C7871	C787	0.782500	0.579600	0.920400
H6531	H653	0.800600	0.570200	0.929800
C7881	C788	0.725100	0.584500	0.915500
H6541	H654	0.704400	0.578300	0.921700
C7891	C789	0.752000	0.569900	0.930100
O5201	O520	0.768900	0.533000	0.967000
C7901	C790	0.748300	0.550000	0.950000
C7911	C791	0.786400	0.602900	0.897100
H6551	H655	0.807000	0.609100	0.890900
C7921	C792	0.759900	0.617100	0.882900
H6561	H656	0.762900	0.632900	0.867100
Ni691	Ni69	0.812270	0.128990	0.128990
N691	N69	0.770900	0.108400	0.108400
O5211	O521	0.778100	0.037800	0.037800
C7931	C793	0.717500	0.079600	0.079600
H6571	H657	0.699400	0.070200	0.070200
C7941	C794	0.774900	0.084500	0.084500
H6581	H658	0.795600	0.078300	0.078300
C7951	C795	0.748000	0.069900	0.069900
O5221	O522	0.731100	0.033000	0.033000
C7961	C796	0.751700	0.050000	0.050000
C7971	C797	0.713600	0.102900	0.102900
H6591	H659	0.693000	0.109100	0.109100
C7981	C798	0.740100	0.117100	0.117100
H6601	H660	0.737100	0.132900	0.132900
Ni701	Ni70	0.812270	0.628990	0.628990
N701	N70	0.770900	0.608400	0.608400
O5231	O523	0.778100	0.537800	0.537800
C7991	C799	0.717500	0.579600	0.579600
H6611	H661	0.699400	0.570200	0.570200
C8001	C800	0.774900	0.584500	0.584500
H6621	H662	0.795600	0.578300	0.578300
C8011	C801	0.748000	0.569900	0.569900
O5241	O524	0.731100	0.533000	0.533000
C8021	C802	0.751700	0.550000	0.550000
C8031	C803	0.713600	0.602900	0.602900
H6631	H663	0.693000	0.609100	0.609100
C8041	C804	0.740100	0.617100	0.617100
H6641	H664	0.737100	0.632900	0.632900
Ni711	Ni71	0.312270	0.128990	0.628990
N711	N71	0.270900	0.108400	0.608400
O5251	O525	0.278100	0.037800	0.537800
C8051	C805	0.217500	0.079600	0.579600
H6651	H665	0.199400	0.070200	0.570200
C8061	C806	0.274900	0.084500	0.584500
H6661	H666	0.295600	0.078300	0.578300
C8071	C807	0.248000	0.069900	0.569900
O5261	O526	0.231100	0.033000	0.533000
C8081	C808	0.251700	0.050000	0.550000
C8091	C809	0.213600	0.102900	0.602900
H6671	H667	0.193000	0.109100	0.609100
C8101	C810	0.240100	0.117100	0.617100
H6681	H668	0.237100	0.132900	0.632900
Ni721	Ni72	0.312270	0.628990	0.128990
N721	N72	0.270900	0.608400	0.108400
O5271	O527	0.278100	0.537800	0.037800
C8111	C811	0.217500	0.579600	0.079600
H6691	H669	0.199400	0.570200	0.070200
C8121	C812	0.274900	0.584500	0.084500
H6701	H670	0.295600	0.578300	0.078300
C8131	C813	0.248000	0.569900	0.069900
O5281	O528	0.231100	0.533000	0.033000
C8141	C814	0.251700	0.550000	0.050000
C8151	C815	0.213600	0.602900	0.102900
H6711	H671	0.193000	0.609100	0.109100
C8161	C816	0.240100	0.617100	0.117100
H6721	H672	0.237100	0.632900	0.132900
Ni731	Ni73	0.812270	0.871010	0.871010
N731	N73	0.770900	0.891600	0.891600
O5291	O529	0.778100	0.962200	0.962200
C8171	C817	0.717500	0.920400	0.920400
H6731	H673	0.699400	0.929800	0.929800
C8181	C818	0.774900	0.915500	0.915500
H6741	H674	0.795600	0.921700	0.921700
C8191	C819	0.748000	0.930100	0.930100
O5301	O530	0.731100	0.967000	0.967000
C8201	C820	0.751700	0.950000	0.950000
C8211	C821	0.713600	0.897100	0.897100
H6751	H675	0.693000	0.890900	0.890900
C8221	C822	0.740100	0.882900	0.882900
H6761	H676	0.737100	0.867100	0.867100
Ni741	Ni74	0.812270	0.371010	0.371010
N741	N74	0.770900	0.391600	0.391600
O5311	O531	0.778100	0.462200	0.462200
C8231	C823	0.717500	0.420400	0.420400
H6771	H677	0.699400	0.429800	0.429800
C8241	C824	0.774900	0.415500	0.415500
H6781	H678	0.795600	0.421700	0.421700
C8251	C825	0.748000	0.430100	0.430100
O5321	O532	0.731100	0.467000	0.467000
C8261	C826	0.751700	0.450000	0.450000
C8271	C827	0.713600	0.397100	0.397100
H6791	H679	0.693000	0.390900	0.390900
C8281	C828	0.740100	0.382900	0.382900
H6801	H680	0.737100	0.367100	0.367100
Ni751	Ni75	0.312270	0.871010	0.371010
N751	N75	0.270900	0.891600	0.391600
O5331	O533	0.278100	0.962200	0.462200
C8291	C829	0.217500	0.920400	0.420400
H6811	H681	0.199400	0.929800	0.429800
C8301	C830	0.274900	0.915500	0.415500
H6821	H682	0.295600	0.921700	0.421700
C8311	C831	0.248000	0.930100	0.430100
O5341	O534	0.231100	0.967000	0.467000
C8321	C832	0.251700	0.950000	0.450000
C8331	C833	0.213600	0.897100	0.397100
H6831	H683	0.193000	0.890900	0.390900
C8341	C834	0.240100	0.882900	0.382900
H6841	H684	0.237100	0.867100	0.367100
Ni761	Ni76	0.312270	0.371010	0.871010
N761	N76	0.270900	0.391600	0.891600
O5351	O535	0.278100	0.462200	0.962200
C8351	C835	0.217500	0.420400	0.920400
H6851	H685	0.199400	0.429800	0.929800
C8361	C836	0.274900	0.415500	0.915500
H6861	H686	0.295600	0.421700	0.921700
C8371	C837	0.248000	0.430100	0.930100
O5361	O536	0.231100	0.467000	0.967000
C8381	C838	0.251700	0.450000	0.950000
C8391	C839	0.213600	0.397100	0.897100
H6871	H687	0.193000	0.390900	0.890900
C8401	C840	0.240100	0.382900	0.882900
H6881	H688	0.237100	0.367100	0.867100
Ni771	Ni77	0.187730	0.871010	0.128990
N771	N77	0.229100	0.891600	0.108400
O5371	O537	0.221900	0.962200	0.037800
C8411	C841	0.282500	0.920400	0.079600
H6891	H689	0.300600	0.929800	0.070200
C8421	C842	0.225100	0.915500	0.084500
H6901	H690	0.204400	0.921700	0.078300
C8431	C843	0.252000	0.930100	0.069900
O5381	O538	0.268900	0.967000	0.033000
C8441	C844	0.248300	0.950000	0.050000
C8451	C845	0.286400	0.897100	0.102900
H6911	H691	0.307000	0.890900	0.109100
C8461	C846	0.259900	0.882900	0.117100
H6921	H692	0.262900	0.867100	0.132900
Ni781	Ni78	0.187730	0.371010	0.628990
N781	N78	0.229100	0.391600	0.608400
O5391	O539	0.221900	0.462200	0.537800
C8471	C847	0.282500	0.420400	0.579600
H6931	H693	0.300600	0.429800	0.570200
C8481	C848	0.225100	0.415500	0.584500
H6941	H694	0.204400	0.421700	0.578300
C8491	C849	0.252000	0.430100	0.569900
O5401	O540	0.268900	0.467000	0.533000
C8501	C850	0.248300	0.450000	0.550000
C8511	C851	0.286400	0.397100	0.602900
H6951	H695	0.307000	0.390900	0.609100
C8521	C852	0.259900	0.382900	0.617100
H6961	H696	0.262900	0.367100	0.632900
Ni791	Ni79	0.687730	0.871010	0.628990
N791	N79	0.729100	0.891600	0.608400
O5411	O541	0.721900	0.962200	0.537800
C8531	C853	0.782500	0.920400	0.579600
H6971	H697	0.800600	0.929800	0.570200
C8541	C854	0.725100	0.915500	0.584500
H6981	H698	0.704400	0.921700	0.578300
C8551	C855	0.752000	0.930100	0.569900
O5421	O542	0.768900	0.967000	0.533000
C8561	C856	0.748300	0.950000	0.550000
C8571	C857	0.786400	0.897100	0.602900
H6991	H699	0.807000	0.890900	0.609100
C8581	C858	0.759900	0.882900	0.617100
H7001	H700	0.762900	0.867100	0.632900
Ni801	Ni80	0.687730	0.371010	0.128990
N801	N80	0.729100	0.391600	0.108400
O5431	O543	0.721900	0.462200	0.037800
C8591	C859	0.782500	0.420400	0.079600
H7011	H701	0.800600	0.429800	0.070200
C8601	C860	0.725100	0.415500	0.084500
H7021	H702	0.704400	0.421700	0.078300
C8611	C861	0.752000	0.430100	0.069900
O5441	O544	0.768900	0.467000	0.033000
C8621	C862	0.748300	0.450000	0.050000
C8631	C863	0.786400	0.397100	0.102900
H7031	H703	0.807000	0.390900	0.109100
C8641	C864	0.759900	0.382900	0.117100
H7041	H704	0.762900	0.367100	0.132900
Ni811	Ni81	0.128990	0.128990	0.812270
N811	N81	0.108400	0.108400	0.770900
O5451	O545	0.037800	0.037800	0.778100
C8651	C865	0.079600	0.079600	0.717500
H7051	H705	0.070200	0.070200	0.699400
C8661	C866	0.084500	0.084500	0.774900
H7061	H706	0.078300	0.078300	0.795600
C8671	C867	0.069900	0.069900	0.748000
O5461	O546	0.033000	0.033000	0.731100
C8681	C868	0.050000	0.050000	0.751700
C8691	C869	0.102900	0.102900	0.713600
H7071	H707	0.109100	0.109100	0.693000
C8701	C870	0.117100	0.117100	0.740100
H7081	H708	0.132900	0.132900	0.737100
Ni821	Ni82	0.128990	0.628990	0.312270
N821	N82	0.108400	0.608400	0.270900
O5471	O547	0.037800	0.537800	0.278100
C8711	C871	0.079600	0.579600	0.217500
H7091	H709	0.070200	0.570200	0.199400
C8721	C872	0.084500	0.584500	0.274900
H7101	H710	0.078300	0.578300	0.295600
C8731	C873	0.069900	0.569900	0.248000
O5481	O548	0.033000	0.533000	0.231100
C8741	C874	0.050000	0.550000	0.251700
C8751	C875	0.102900	0.602900	0.213600
H7111	H711	0.109100	0.609100	0.193000
C8761	C876	0.117100	0.617100	0.240100
H7121	H712	0.132900	0.632900	0.237100
Ni831	Ni83	0.628990	0.128990	0.312270
N831	N83	0.608400	0.108400	0.270900
O5491	O549	0.537800	0.037800	0.278100
C8771	C877	0.579600	0.079600	0.217500
H7131	H713	0.570200	0.070200	0.199400
C8781	C878	0.584500	0.084500	0.274900
H7141	H714	0.578300	0.078300	0.295600
C8791	C879	0.569900	0.069900	0.248000
O5501	O550	0.533000	0.033000	0.231100
C8801	C880	0.550000	0.050000	0.251700
C8811	C881	0.602900	0.102900	0.213600
H7151	H715	0.609100	0.109100	0.193000
C8821	C882	0.617100	0.117100	0.240100
H7161	H716	0.632900	0.132900	0.237100
Ni841	Ni84	0.628990	0.628990	0.812270
N841	N84	0.608400	0.608400	0.770900
O5511	O551	0.537800	0.537800	0.778100
C8831	C883	0.579600	0.579600	0.717500
H7171	H717	0.570200	0.570200	0.699400
C8841	C884	0.584500	0.584500	0.774900
H7181	H718	0.578300	0.578300	0.795600
C8851	C885	0.569900	0.569900	0.748000
O5521	O552	0.533000	0.533000	0.731100
C8861	C886	0.550000	0.550000	0.751700
C8871	C887	0.602900	0.602900	0.713600
H7191	H719	0.609100	0.609100	0.693000
C8881	C888	0.617100	0.617100	0.740100
H7201	H720	0.632900	0.632900	0.737100
Ni851	Ni85	0.128990	0.871010	0.187730
N851	N85	0.108400	0.891600	0.229100
O5531	O553	0.037800	0.962200	0.221900
C8891	C889	0.079600	0.920400	0.282500
H7211	H721	0.070200	0.929800	0.300600
C8901	C890	0.084500	0.915500	0.225100
H7221	H722	0.078300	0.921700	0.204400
C8911	C891	0.069900	0.930100	0.252000
O5541	O554	0.033000	0.967000	0.268900
C8921	C892	0.050000	0.950000	0.248300
C8931	C893	0.102900	0.897100	0.286400
H7231	H723	0.109100	0.890900	0.307000
C8941	C894	0.117100	0.882900	0.259900
H7241	H724	0.132900	0.867100	0.262900
Ni861	Ni86	0.128990	0.371010	0.687730
N861	N86	0.108400	0.391600	0.729100
O5551	O555	0.037800	0.462200	0.721900
C8951	C895	0.079600	0.420400	0.782500
H7251	H725	0.070200	0.429800	0.800600
C8961	C896	0.084500	0.415500	0.725100
H7261	H726	0.078300	0.421700	0.704400
C8971	C897	0.069900	0.430100	0.752000
O5561	O556	0.033000	0.467000	0.768900
C8981	C898	0.050000	0.450000	0.748300
C8991	C899	0.102900	0.397100	0.786400
H7271	H727	0.109100	0.390900	0.807000
C9001	C900	0.117100	0.382900	0.759900
H7281	H728	0.132900	0.367100	0.762900
Ni871	Ni87	0.628990	0.871010	0.687730
N871	N87	0.608400	0.891600	0.729100
O5571	O557	0.537800	0.962200	0.721900
C9011	C901	0.579600	0.920400	0.782500
H7291	H729	0.570200	0.929800	0.800600
C9021	C902	0.584500	0.915500	0.725100
H7301	H730	0.578300	0.921700	0.704400
C9031	C903	0.569900	0.930100	0.752000
O5581	O558	0.533000	0.967000	0.768900
C9041	C904	0.550000	0.950000	0.748300
C9051	C905	0.602900	0.897100	0.786400
H7311	H731	0.609100	0.890900	0.807000
C9061	C906	0.617100	0.882900	0.759900
H7321	H732	0.632900	0.867100	0.762900
Ni881	Ni88	0.628990	0.371010	0.187730
N881	N88	0.608400	0.391600	0.229100
O5591	O559	0.537800	0.462200	0.221900
C9071	C907	0.579600	0.420400	0.282500
H7331	H733	0.570200	0.429800	0.300600
C9081	C908	0.584500	0.415500	0.225100
H7341	H734	0.578300	0.421700	0.204400
C9091	C909	0.569900	0.430100	0.252000
O5601	O560	0.533000	0.467000	0.268900
C9101	C910	0.550000	0.450000	0.248300
C9111	C911	0.602900	0.397100	0.286400
H7351	H735	0.609100	0.390900	0.307000
C9121	C912	0.617100	0.382900	0.259900
H7361	H736	0.632900	0.367100	0.262900
Ni891	Ni89	0.871010	0.128990	0.187730
N891	N89	0.891600	0.108400	0.229100
O5611	O561	0.962200	0.037800	0.221900
C9131	C913	0.920400	0.079600	0.282500
H7371	H737	0.929800	0.070200	0.300600
C9141	C914	0.915500	0.084500	0.225100
H7381	H738	0.921700	0.078300	0.204400
C9151	C915	0.930100	0.069900	0.252000
O5621	O562	0.967000	0.033000	0.268900
C9161	C916	0.950000	0.050000	0.248300
C9171	C917	0.897100	0.102900	0.286400
H7391	H739	0.890900	0.109100	0.307000
C9181	C918	0.882900	0.117100	0.259900
H7401	H740	0.867100	0.132900	0.262900
Ni901	Ni90	0.871010	0.628990	0.687730
N901	N90	0.891600	0.608400	0.729100
O5631	O563	0.962200	0.537800	0.721900
C9191	C919	0.920400	0.579600	0.782500
H7411	H741	0.929800	0.570200	0.800600
C9201	C920	0.915500	0.584500	0.725100
H7421	H742	0.921700	0.578300	0.704400
C9211	C921	0.930100	0.569900	0.752000
O5641	O564	0.967000	0.533000	0.768900
C9221	C922	0.950000	0.550000	0.748300
C9231	C923	0.897100	0.602900	0.786400
H7431	H743	0.890900	0.609100	0.807000
C9241	C924	0.882900	0.617100	0.759900
H7441	H744	0.867100	0.632900	0.762900
Ni911	Ni91	0.371010	0.128990	0.687730
N911	N91	0.391600	0.108400	0.729100
O5651	O565	0.462200	0.037800	0.721900
C9251	C925	0.420400	0.079600	0.782500
H7451	H745	0.429800	0.070200	0.800600
C9261	C926	0.415500	0.084500	0.725100
H7461	H746	0.421700	0.078300	0.704400
C9271	C927	0.430100	0.069900	0.752000
O5661	O566	0.467000	0.033000	0.768900
C9281	C928	0.450000	0.050000	0.748300
C9291	C929	0.397100	0.102900	0.786400
H7471	H747	0.390900	0.109100	0.807000
C9301	C930	0.382900	0.117100	0.759900
H7481	H748	0.367100	0.132900	0.762900
Ni921	Ni92	0.371010	0.628990	0.187730
N921	N92	0.391600	0.608400	0.229100
O5671	O567	0.462200	0.537800	0.221900
C9311	C931	0.420400	0.579600	0.282500
H7491	H749	0.429800	0.570200	0.300600
C9321	C932	0.415500	0.584500	0.225100
H7501	H750	0.421700	0.578300	0.204400
C9331	C933	0.430100	0.569900	0.252000
O5681	O568	0.467000	0.533000	0.268900
C9341	C934	0.450000	0.550000	0.248300
C9351	C935	0.397100	0.602900	0.286400
H7511	H751	0.390900	0.609100	0.307000
C9361	C936	0.382900	0.617100	0.259900
H7521	H752	0.367100	0.632900	0.262900
Ni931	Ni93	0.871010	0.871010	0.812270
N931	N93	0.891600	0.891600	0.770900
O5691	O569	0.962200	0.962200	0.778100
C9371	C937	0.920400	0.920400	0.717500
H7531	H753	0.929800	0.929800	0.699400
C9381	C938	0.915500	0.915500	0.774900
H7541	H754	0.921700	0.921700	0.795600
C9391	C939	0.930100	0.930100	0.748000
O5701	O570	0.967000	0.967000	0.731100
C9401	C940	0.950000	0.950000	0.751700
C9411	C941	0.897100	0.897100	0.713600
H7551	H755	0.890900	0.890900	0.693000
C9421	C942	0.882900	0.882900	0.740100
H7561	H756	0.867100	0.867100	0.737100
Ni941	Ni94	0.871010	0.371010	0.312270
N941	N94	0.891600	0.391600	0.270900
O5711	O571	0.962200	0.462200	0.278100
C9431	C943	0.920400	0.420400	0.217500
H7571	H757	0.929800	0.429800	0.199400
C9441	C944	0.915500	0.415500	0.274900
H7581	H758	0.921700	0.421700	0.295600
C9451	C945	0.930100	0.430100	0.248000
O5721	O572	0.967000	0.467000	0.231100
C9461	C946	0.950000	0.450000	0.251700
C9471	C947	0.897100	0.397100	0.213600
H7591	H759	0.890900	0.390900	0.193000
C9481	C948	0.882900	0.382900	0.240100
H7601	H760	0.867100	0.367100	0.237100
Ni951	Ni95	0.371010	0.871010	0.312270
N951	N95	0.391600	0.891600	0.270900
O5731	O573	0.462200	0.962200	0.278100
C9491	C949	0.420400	0.920400	0.217500
H7611	H761	0.429800	0.929800	0.199400
C9501	C950	0.415500	0.915500	0.274900
H7621	H762	0.421700	0.921700	0.295600
C9511	C951	0.430100	0.930100	0.248000
O5741	O574	0.467000	0.967000	0.231100
C9521	C952	0.450000	0.950000	0.251700
C9531	C953	0.397100	0.897100	0.213600
H7631	H763	0.390900	0.890900	0.193000
C9541	C954	0.382900	0.882900	0.240100
H7641	H764	0.367100	0.867100	0.237100
Ni961	Ni96	0.371010	0.371010	0.812270
N961	N96	0.391600	0.391600	0.770900
O5751	O575	0.462200	0.462200	0.778100
C9551	C955	0.420400	0.420400	0.717500
H7651	H765	0.429800	0.429800	0.699400
C9561	C956	0.415500	0.415500	0.774900
H7661	H766	0.421700	0.421700	0.795600
C9571	C957	0.430100	0.430100	0.748000
O5761	O576	0.467000	0.467000	0.731100
C9581	C958	0.450000	0.450000	0.751700
C9591	C959	0.397100	0.397100	0.713600
H7671	H767	0.390900	0.390900	0.693000
C9601	C960	0.382900	0.382900	0.740100
H7681	H768	0.367100	0.367100	0.737100
O5771	O577	0.146590	0.146590	0.146590
O5781	O578	0.146590	0.646590	0.646590
O5791	O579	0.646590	0.146590	0.646590
O5801	O580	0.646590	0.646590	0.146590
O5811	O581	0.853410	0.853410	0.146590
O5821	O582	0.853410	0.353410	0.646590
O5831	O583	0.353410	0.853410	0.646590
O5841	O584	0.353410	0.353410	0.146590
O5851	O585	0.853410	0.146590	0.853410
O5861	O586	0.853410	0.646590	0.353410
O5871	O587	0.353410	0.146590	0.353410
O5881	O588	0.353410	0.646590	0.853410
O5891	O589	0.146590	0.853410	0.853410
O5901	O590	0.146590	0.353410	0.353410
O5911	O591	0.646590	0.853410	0.353410
O5921	O592	0.646590	0.353410	0.853410
O5931	O593	0.146590	0.146590	0.853410
O5941	O594	0.146590	0.646590	0.353410
O5951	O595	0.646590	0.146590	0.353410
O5961	O596	0.646590	0.646590	0.853410
O5971	O597	0.853410	0.853410	0.853410
O5981	O598	0.853410	0.353410	0.353410
O5991	O599	0.353410	0.853410	0.353410
O6001	O600	0.353410	0.353410	0.853410
O6011	O601	0.146590	0.853410	0.146590
O6021	O602	0.146590	0.353410	0.646590
O6031	O603	0.646590	0.853410	0.646590
O6041	O604	0.646590	0.353410	0.146590
O6051	O605	0.853410	0.146590	0.146590
O6061	O606	0.853410	0.646590	0.646590
O6071	O607	0.353410	0.146590	0.646590
O6081	O608	0.353410	0.646590	0.146590
C9611	C961	0.149490	0.149490	0.033490
C9621	C962	0.150340	0.150340	0.069830
C9631	C963	0.149490	0.649490	0.533490
C9641	C964	0.150340	0.650340	0.569830
C9651	C965	0.649490	0.149490	0.533490
C9661	C966	0.650340	0.150340	0.569830
C9671	C967	0.649490	0.649490	0.033490
C9681	C968	0.650340	0.650340	0.069830
C9691	C969	0.850510	0.850510	0.033490
C9701	C970	0.849660	0.849660	0.069830
C9711	C971	0.850510	0.350510	0.533490
C9721	C972	0.849660	0.349660	0.569830
C9731	C973	0.350510	0.850510	0.533490
C9741	C974	0.349660	0.849660	0.569830
C9751	C975	0.350510	0.350510	0.033490
C9761	C976	0.349660	0.349660	0.069830
C9771	C977	0.850510	0.149490	0.966510
C9781	C978	0.849660	0.150340	0.930170
C9791	C979	0.850510	0.649490	0.466510
C9801	C980	0.849660	0.650340	0.430170
C9811	C981	0.350510	0.149490	0.466510
C9821	C982	0.349660	0.150340	0.430170
C9831	C983	0.350510	0.649490	0.966510
C9841	C984	0.349660	0.650340	0.930170
C9851	C985	0.149490	0.850510	0.966510
C9861	C986	0.150340	0.849660	0.930170
C9871	C987	0.149490	0.350510	0.466510
C9881	C988	0.150340	0.349660	0.430170
C9891	C989	0.649490	0.850510	0.466510
C9901	C990	0.650340	0.849660	0.430170
C9911	C991	0.649490	0.350510	0.966510
C9921	C992	0.650340	0.349660	0.930170
C9931	C993	0.033490	0.149490	0.149490
C9941	C994	0.069830	0.150340	0.150340
C9951	C995	0.033490	0.649490	0.649490
C9961	C996	0.069830	0.650340	0.650340
C9971	C997	0.533490	0.149490	0.649490
C9981	C998	0.569830	0.150340	0.650340
C9991	C999	0.533490	0.649490	0.149490
C10001	C1000	0.569830	0.650340	0.150340
C10011	C1001	0.033490	0.850510	0.850510
C10021	C1002	0.069830	0.849660	0.849660
C10031	C1003	0.033490	0.350510	0.350510
C10041	C1004	0.069830	0.349660	0.349660
C10051	C1005	0.533490	0.850510	0.350510
C10061	C1006	0.569830	0.849660	0.349660
C10071	C1007	0.533490	0.350510	0.850510
C10081	C1008	0.569830	0.349660	0.849660
C10091	C1009	0.966510	0.850510	0.149490
C10101	C1010	0.930170	0.849660	0.150340
C10111	C1011	0.966510	0.350510	0.649490
C10121	C1012	0.930170	0.349660	0.650340
C10131	C1013	0.466510	0.850510	0.649490
C10141	C1014	0.430170	0.849660	0.650340
C10151	C1015	0.466510	0.350510	0.149490
C10161	C1016	0.430170	0.349660	0.150340
C10171	C1017	0.966510	0.149490	0.850510
C10181	C1018	0.930170	0.150340	0.849660
C10191	C1019	0.966510	0.649490	0.350510
C10201	C1020	0.930170	0.650340	0.349660
C10211	C1021	0.466510	0.149490	0.350510
C10221	C1022	0.430170	0.150340	0.349660
C10231	C1023	0.466510	0.649490	0.850510
C10241	C1024	0.430170	0.650340	0.849660
C10251	C1025	0.149490	0.033490	0.149490
C10261	C1026	0.150340	0.069830	0.150340
C10271	C1027	0.149490	0.533490	0.649490
C10281	C1028	0.150340	0.569830	0.650340
C10291	C1029	0.649490	0.033490	0.649490
C10301	C1030	0.650340	0.069830	0.650340
C10311	C1031	0.649490	0.533490	0.149490
C10321	C1032	0.650340	0.569830	0.150340
C10331	C1033	0.850510	0.033490	0.850510
C10341	C1034	0.849660	0.069830	0.849660
C10351	C1035	0.850510	0.533490	0.350510
C10361	C1036	0.849660	0.569830	0.349660
C10371	C1037	0.350510	0.033490	0.350510
C10381	C1038	0.349660	0.069830	0.349660
C10391	C1039	0.350510	0.533490	0.850510
C10401	C1040	0.349660	0.569830	0.849660
C10411	C1041	0.149490	0.966510	0.850510
C10421	C1042	0.150340	0.930170	0.849660
C10431	C1043	0.149490	0.466510	0.350510
C10441	C1044	0.150340	0.430170	0.349660
C10451	C1045	0.649490	0.966510	0.350510
C10461	C1046	0.650340	0.930170	0.349660
C10471	C1047	0.649490	0.466510	0.850510
C10481	C1048	0.650340	0.430170	0.849660
C10491	C1049	0.850510	0.966510	0.149490
C10501	C1050	0.849660	0.930170	0.150340
C10511	C1051	0.850510	0.466510	0.649490
C10521	C1052	0.849660	0.430170	0.650340
C10531	C1053	0.350510	0.966510	0.649490
C10541	C1054	0.349660	0.930170	0.650340
C10551	C1055	0.350510	0.466510	0.149490
C10561	C1056	0.349660	0.430170	0.150340
C10571	C1057	0.149490	0.149490	0.966510
C10581	C1058	0.150340	0.150340	0.930170
C10591	C1059	0.149490	0.649490	0.466510
C10601	C1060	0.150340	0.650340	0.430170
C10611	C1061	0.649490	0.149490	0.466510
C10621	C1062	0.650340	0.150340	0.430170
C10631	C1063	0.649490	0.649490	0.966510
C10641	C1064	0.650340	0.650340	0.930170
C10651	C1065	0.850510	0.850510	0.966510
C10661	C1066	0.849660	0.849660	0.930170
C10671	C1067	0.850510	0.350510	0.466510
C10681	C1068	0.849660	0.349660	0.430170
C10691	C1069	0.350510	0.850510	0.466510
C10701	C1070	0.349660	0.849660	0.430170
C10711	C1071	0.350510	0.350510	0.966510
C10721	C1072	0.349660	0.349660	0.930170
C10731	C1073	0.149490	0.850510	0.033490
C10741	C1074	0.150340	0.849660	0.069830
C10751	C1075	0.149490	0.350510	0.533490
C10761	C1076	0.150340	0.349660	0.569830
C10771	C1077	0.649490	0.850510	0.533490
C10781	C1078	0.650340	0.849660	0.569830
C10791	C1079	0.649490	0.350510	0.033490
C10801	C1080	0.650340	0.349660	0.069830
C10811	C1081	0.850510	0.149490	0.033490
C10821	C1082	0.849660	0.150340	0.069830
C10831	C1083	0.850510	0.649490	0.533490
C10841	C1084	0.849660	0.650340	0.569830
C10851	C1085	0.350510	0.149490	0.533490
C10861	C1086	0.349660	0.150340	0.569830
C10871	C1087	0.350510	0.649490	0.033490
C10881	C1088	0.349660	0.650340	0.069830
C10891	C1089	0.149490	0.033490	0.850510
C10901	C1090	0.150340	0.069830	0.849660
C10911	C1091	0.149490	0.533490	0.350510
C10921	C1092	0.150340	0.569830	0.349660
C10931	C1093	0.649490	0.033490	0.350510
C10941	C1094	0.650340	0.069830	0.349660
C10951	C1095	0.649490	0.533490	0.850510
C10961	C1096	0.650340	0.569830	0.849660
C10971	C1097	0.850510	0.033490	0.149490
C10981	C1098	0.849660	0.069830	0.150340
C10991	C1099	0.850510	0.533490	0.649490
C11001	C1100	0.849660	0.569830	0.650340
C11011	C1101	0.350510	0.033490	0.649490
C11021	C1102	0.349660	0.069830	0.650340
C11031	C1103	0.350510	0.533490	0.149490
C11041	C1104	0.349660	0.569830	0.150340
C11051	C1105	0.850510	0.966510	0.850510
C11061	C1106	0.849660	0.930170	0.849660
C11071	C1107	0.850510	0.466510	0.350510
C11081	C1108	0.849660	0.430170	0.349660
C11091	C1109	0.350510	0.966510	0.350510
C11101	C1110	0.349660	0.930170	0.349660
C11111	C1111	0.350510	0.466510	0.850510
C11121	C1112	0.349660	0.430170	0.849660
C11131	C1113	0.149490	0.966510	0.149490
C11141	C1114	0.150340	0.930170	0.150340
C11151	C1115	0.149490	0.466510	0.649490
C11161	C1116	0.150340	0.430170	0.650340
C11171	C1117	0.649490	0.966510	0.649490
C11181	C1118	0.650340	0.930170	0.650340
C11191	C1119	0.649490	0.466510	0.149490
C11201	C1120	0.650340	0.430170	0.150340
C11211	C1121	0.033490	0.149490	0.850510
C11221	C1122	0.069830	0.150340	0.849660
C11231	C1123	0.033490	0.649490	0.350510
C11241	C1124	0.069830	0.650340	0.349660
C11251	C1125	0.533490	0.149490	0.350510
C11261	C1126	0.569830	0.150340	0.349660
C11271	C1127	0.533490	0.649490	0.850510
C11281	C1128	0.569830	0.650340	0.849660
C11291	C1129	0.033490	0.850510	0.149490
C11301	C1130	0.069830	0.849660	0.150340
C11311	C1131	0.033490	0.350510	0.649490
C11321	C1132	0.069830	0.349660	0.650340
C11331	C1133	0.533490	0.850510	0.649490
C11341	C1134	0.569830	0.849660	0.650340
C11351	C1135	0.533490	0.350510	0.149490
C11361	C1136	0.569830	0.349660	0.150340
C11371	C1137	0.966510	0.149490	0.149490
C11381	C1138	0.930170	0.150340	0.150340
C11391	C1139	0.966510	0.649490	0.649490
C11401	C1140	0.930170	0.650340	0.650340
C11411	C1141	0.466510	0.149490	0.649490
C11421	C1142	0.430170	0.150340	0.650340
C11431	C1143	0.466510	0.649490	0.149490
C11441	C1144	0.430170	0.650340	0.150340
C11451	C1145	0.966510	0.850510	0.850510
C11461	C1146	0.930170	0.849660	0.849660
C11471	C1147	0.966510	0.350510	0.350510
C11481	C1148	0.930170	0.349660	0.349660
C11491	C1149	0.466510	0.850510	0.350510
C11501	C1150	0.430170	0.849660	0.349660
C11511	C1151	0.466510	0.350510	0.850510
C11521	C1152	0.430170	0.349660	0.849660
C11531	C1153	0.199540	0.124000	0.199540
C11541	C1154	0.226180	0.122700	0.226180
C11551	C1155	0.199540	0.624000	0.699540
C11561	C1156	0.226180	0.622700	0.726180
C11571	C1157	0.699540	0.124000	0.699540
C11581	C1158	0.726180	0.122700	0.726180
C11591	C1159	0.699540	0.624000	0.199540
C11601	C1160	0.726180	0.622700	0.226180
C11611	C1161	0.800460	0.876000	0.199540
C11621	C1162	0.773820	0.877300	0.226180
C11631	C1163	0.800460	0.376000	0.699540
C11641	C1164	0.773820	0.377300	0.726180
C11651	C1165	0.300460	0.876000	0.699540
C11661	C1166	0.273820	0.877300	0.726180
C11671	C1167	0.300460	0.376000	0.199540
C11681	C1168	0.273820	0.377300	0.226180
C11691	C1169	0.800460	0.124000	0.800460
C11701	C1170	0.773820	0.122700	0.773820
C11711	C1171	0.800460	0.624000	0.300460
C11721	C1172	0.773820	0.622700	0.273820
C11731	C1173	0.300460	0.124000	0.300460
C11741	C1174	0.273820	0.122700	0.273820
C11751	C1175	0.300460	0.624000	0.800460
C11761	C1176	0.273820	0.622700	0.773820
C11771	C1177	0.199540	0.876000	0.800460
C11781	C1178	0.226180	0.877300	0.773820
C11791	C1179	0.199540	0.376000	0.300460
C11801	C1180	0.226180	0.377300	0.273820
C11811	C1181	0.699540	0.876000	0.300460
C11821	C1182	0.726180	0.877300	0.273820
C11831	C1183	0.699540	0.376000	0.800460
C11841	C1184	0.726180	0.377300	0.773820
C11851	C1185	0.199540	0.199540	0.124000
C11861	C1186	0.226180	0.226180	0.122700
C11871	C1187	0.199540	0.699540	0.624000
C11881	C1188	0.226180	0.726180	0.622700
C11891	C1189	0.699540	0.199540	0.624000
C11901	C1190	0.726180	0.226180	0.622700
C11911	C1191	0.699540	0.699540	0.124000
C11921	C1192	0.726180	0.726180	0.122700
C11931	C1193	0.199540	0.800460	0.876000
C11941	C1194	0.226180	0.773820	0.877300
C11951	C1195	0.199540	0.300460	0.376000
C11961	C1196	0.226180	0.273820	0.377300
C11971	C1197	0.699540	0.800460	0.376000
C11981	C1198	0.726180	0.773820	0.377300
C11991	C1199	0.699540	0.300460	0.876000
C12001	C1200	0.726180	0.273820	0.877300
C12011	C1201	0.800460	0.800460	0.124000
C12021	C1202	0.773820	0.773820	0.122700
C12031	C1203	0.800460	0.300460	0.624000
C12041	C1204	0.773820	0.273820	0.622700
C12051	C1205	0.300460	0.800460	0.624000
C12061	C1206	0.273820	0.773820	0.622700
C12071	C1207	0.300460	0.300460	0.124000
C12081	C1208	0.273820	0.273820	0.122700
C12091	C1209	0.800460	0.199540	0.876000
C12101	C1210	0.773820	0.226180	0.877300
C12111	C1211	0.800460	0.699540	0.376000
C12121	C1212	0.773820	0.726180	0.377300
C12131	C1213	0.300460	0.199540	0.376000
C12141	C1214	0.273820	0.226180	0.377300
C12151	C1215	0.300460	0.699540	0.876000
C12161	C1216	0.273820	0.726180	0.877300
C12171	C1217	0.124000	0.199540	0.199540
C12181	C1218	0.122700	0.226180	0.226180
C12191	C1219	0.124000	0.699540	0.699540
C12201	C1220	0.122700	0.726180	0.726180
C12211	C1221	0.624000	0.199540	0.699540
C12221	C1222	0.622700	0.226180	0.726180
C12231	C1223	0.624000	0.699540	0.199540
C12241	C1224	0.622700	0.726180	0.226180
C12251	C1225	0.876000	0.199540	0.800460
C12261	C1226	0.877300	0.226180	0.773820
C12271	C1227	0.876000	0.699540	0.300460
C12281	C1228	0.877300	0.726180	0.273820
C12291	C1229	0.376000	0.199540	0.300460
C12301	C1230	0.377300	0.226180	0.273820
C12311	C1231	0.376000	0.699540	0.800460
C12321	C1232	0.377300	0.726180	0.773820
C12331	C1233	0.124000	0.800460	0.800460
C12341	C1234	0.122700	0.773820	0.773820
C12351	C1235	0.124000	0.300460	0.300460
C12361	C1236	0.122700	0.273820	0.273820
C12371	C1237	0.624000	0.800460	0.300460
C12381	C1238	0.622700	0.773820	0.273820
C12391	C1239	0.624000	0.300460	0.800460
C12401	C1240	0.622700	0.273820	0.773820
C12411	C1241	0.876000	0.800460	0.199540
C12421	C1242	0.877300	0.773820	0.226180
C12431	C1243	0.876000	0.300460	0.699540
C12441	C1244	0.877300	0.273820	0.726180
C12451	C1245	0.376000	0.800460	0.699540
C12461	C1246	0.377300	0.773820	0.726180
C12471	C1247	0.376000	0.300460	0.199540
C12481	C1248	0.377300	0.273820	0.226180
C12491	C1249	0.124000	0.199540	0.800460
C12501	C1250	0.122700	0.226180	0.773820
C12511	C1251	0.124000	0.699540	0.300460
C12521	C1252	0.122700	0.726180	0.273820
C12531	C1253	0.624000	0.199540	0.300460
C12541	C1254	0.622700	0.226180	0.273820
C12551	C1255	0.624000	0.699540	0.800460
C12561	C1256	0.622700	0.726180	0.773820
C12571	C1257	0.876000	0.800460	0.800460
C12581	C1258	0.877300	0.773820	0.773820
C12591	C1259	0.876000	0.300460	0.300460
C12601	C1260	0.877300	0.273820	0.273820
C12611	C1261	0.376000	0.800460	0.300460
C12621	C1262	0.377300	0.773820	0.273820
C12631	C1263	0.376000	0.300460	0.800460
C12641	C1264	0.377300	0.273820	0.773820
C12651	C1265	0.124000	0.800460	0.199540
C12661	C1266	0.122700	0.773820	0.226180
C12671	C1267	0.124000	0.300460	0.699540
C12681	C1268	0.122700	0.273820	0.726180
C12691	C1269	0.624000	0.800460	0.699540
C12701	C1270	0.622700	0.773820	0.726180
C12711	C1271	0.624000	0.300460	0.199540
C12721	C1272	0.622700	0.273820	0.226180
C12731	C1273	0.876000	0.199540	0.199540
C12741	C1274	0.877300	0.226180	0.226180
C12751	C1275	0.876000	0.699540	0.699540
C12761	C1276	0.877300	0.726180	0.726180
C12771	C1277	0.376000	0.199540	0.699540
C12781	C1278	0.377300	0.226180	0.726180
C12791	C1279	0.376000	0.699540	0.199540
C12801	C1280	0.377300	0.726180	0.226180
C12811	C1281	0.199540	0.199540	0.876000
C12821	C1282	0.226180	0.226180	0.877300
C12831	C1283	0.199540	0.699540	0.376000
C12841	C1284	0.226180	0.726180	0.377300
C12851	C1285	0.699540	0.199540	0.376000
C12861	C1286	0.726180	0.226180	0.377300
C12871	C1287	0.699540	0.699540	0.876000
C12881	C1288	0.726180	0.726180	0.877300
C12891	C1289	0.800460	0.199540	0.124000
C12901	C1290	0.773820	0.226180	0.122700
C12911	C1291	0.800460	0.699540	0.624000
C12921	C1292	0.773820	0.726180	0.622700
C12931	C1293	0.300460	0.199540	0.624000
C12941	C1294	0.273820	0.226180	0.622700
C12951	C1295	0.300460	0.699540	0.124000
C12961	C1296	0.273820	0.726180	0.122700
C12971	C1297	0.800460	0.800460	0.876000
C12981	C1298	0.773820	0.773820	0.877300
C12991	C1299	0.800460	0.300460	0.376000
C13001	C1300	0.773820	0.273820	0.377300
C13011	C1301	0.300460	0.800460	0.376000
C13021	C1302	0.273820	0.773820	0.377300
C13031	C1303	0.300460	0.300460	0.876000
C13041	C1304	0.273820	0.273820	0.877300
C13051	C1305	0.199540	0.800460	0.124000
C13061	C1306	0.226180	0.773820	0.122700
C13071	C1307	0.199540	0.300460	0.624000
C13081	C1308	0.226180	0.273820	0.622700
C13091	C1309	0.699540	0.800460	0.624000
C13101	C1310	0.726180	0.773820	0.622700
C13111	C1311	0.699540	0.300460	0.124000
C13121	C1312	0.726180	0.273820	0.122700
C13131	C1313	0.199540	0.124000	0.800460
C13141	C1314	0.226180	0.122700	0.773820
C13151	C1315	0.199540	0.624000	0.300460
C13161	C1316	0.226180	0.622700	0.273820
C13171	C1317	0.699540	0.124000	0.300460
C13181	C1318	0.726180	0.122700	0.273820
C13191	C1319	0.699540	0.624000	0.800460
C13201	C1320	0.726180	0.622700	0.773820
C13211	C1321	0.199540	0.876000	0.199540
C13221	C1322	0.226180	0.877300	0.226180
C13231	C1323	0.199540	0.376000	0.699540
C13241	C1324	0.226180	0.377300	0.726180
C13251	C1325	0.699540	0.876000	0.699540
C13261	C1326	0.726180	0.877300	0.726180
C13271	C1327	0.699540	0.376000	0.199540
C13281	C1328	0.726180	0.377300	0.226180
C13291	C1329	0.800460	0.124000	0.199540
C13301	C1330	0.773820	0.122700	0.226180
C13311	C1331	0.800460	0.624000	0.699540
C13321	C1332	0.773820	0.622700	0.726180
C13331	C1333	0.300460	0.124000	0.699540
C13341	C1334	0.273820	0.122700	0.726180
C13351	C1335	0.300460	0.624000	0.199540
C13361	C1336	0.273820	0.622700	0.226180
C13371	C1337	0.800460	0.876000	0.800460
C13381	C1338	0.773820	0.877300	0.773820
C13391	C1339	0.800460	0.376000	0.300460
C13401	C1340	0.773820	0.377300	0.273820
C13411	C1341	0.300460	0.876000	0.300460
C13421	C1342	0.273820	0.877300	0.273820
C13431	C1343	0.300460	0.376000	0.800460
C13441	C1344	0.273820	0.377300	0.773820
Ni971	Ni97	0.272200	0.000000	0.000000
Ni981	Ni98	0.272200	0.500000	0.500000
Ni991	Ni99	0.772200	0.000000	0.500000
Ni1001	Ni100	0.772200	0.500000	0.000000
Ni1011	Ni101	0.727800	0.000000	0.000000
Ni1021	Ni102	0.727800	0.500000	0.500000
Ni1031	Ni103	0.227800	0.000000	0.500000
Ni1041	Ni104	0.227800	0.500000	0.000000
Ni1051	Ni105	0.000000	0.272200	0.000000
Ni1061	Ni106	0.000000	0.772200	0.500000
Ni1071	Ni107	0.500000	0.272200	0.500000
Ni1081	Ni108	0.500000	0.772200	0.000000
Ni1091	Ni109	0.000000	0.727800	0.000000
Ni1101	Ni110	0.000000	0.227800	0.500000
Ni1111	Ni111	0.500000	0.727800	0.500000
Ni1121	Ni112	0.500000	0.227800	0.000000
Ni1131	Ni113	0.000000	0.000000	0.272200
Ni1141	Ni114	0.000000	0.500000	0.772200
Ni1151	Ni115	0.500000	0.000000	0.772200
Ni1161	Ni116	0.500000	0.500000	0.272200
Ni1171	Ni117	0.000000	0.000000	0.727800
Ni1181	Ni118	0.000000	0.500000	0.227800
Ni1191	Ni119	0.500000	0.000000	0.227800
Ni1201	Ni120	0.500000	0.500000	0.727800
