data_SUVZUG_clean_PM
_symmetry_space_group_name_H-M	'P1'
_cell_length_a	8.971100
_cell_length_b	14.143900
_cell_length_c	19.878200
_cell_angle_alpha	82.151000
_cell_angle_beta	82.397000
_cell_angle_gamma	74.901000
_symmetry_Int_Tables_number 1

loop_
_symmetry_equiv_pos_as_xyz
'x,y,z'

loop_
_atom_site_label
_atom_site_type_symbol
_atom_site_fract_x
_atom_site_fract_y
_atom_site_fract_z
Zn11	Zn1	0.382890	0.481840	0.636630
Zn21	Zn2	0.490460	0.026070	0.883110
V11	V1	0.991300	0.559900	0.582550
V21	V2	0.779080	0.414810	0.692760
V31	V3	0.972730	0.196680	0.747610
V41	V4	0.832820	0.109770	0.900500
V51	V5	0.843900	0.071870	0.063920
C11	C1	0.979300	0.532100	0.931500
C21	C2	0.999700	0.432600	0.954800
C31	C3	0.018200	0.401100	0.024000
C41	C4	0.393000	0.063200	0.542400
C51	C5	0.454100	0.965300	0.566500
C61	C6	0.559900	0.901600	0.524600
C71	C7	0.951200	0.567700	0.858800
H11	H1	0.882700	0.533100	0.844400
H21	H2	0.899800	0.637400	0.855300
C81	C8	0.320400	0.559000	0.775100
H31	H3	0.418900	0.570400	0.770200
C91	C9	0.130000	0.514900	0.754600
H41	H4	0.063500	0.488800	0.734700
C101	C10	0.002300	0.357300	0.905700
H51	H5	0.931700	0.317000	0.925200
H61	H6	0.966300	0.391900	0.863000
C111	C11	0.392500	0.251300	0.859400
H71	H7	0.493000	0.253600	0.841900
C121	C12	0.202400	0.198700	0.902300
H81	H8	0.138100	0.157800	0.921200
C131	C13	0.027300	0.294200	0.051200
H91	H9	0.969800	0.291800	0.096000
H101	H10	0.978100	0.265400	0.021400
C141	C14	0.427200	0.188800	0.041600
H111	H11	0.530700	0.188300	0.028200
C151	C15	0.232700	0.141000	0.081200
H121	H12	0.166000	0.102100	0.100900
C161	C16	0.281500	0.130900	0.588400
H131	H13	0.190500	0.164600	0.565300
H141	H14	0.248100	0.092700	0.629200
C171	C17	0.305200	0.300900	0.601400
H151	H15	0.216200	0.336900	0.581700
C181	C18	0.510400	0.258400	0.649500
H161	H16	0.595700	0.262700	0.669800
C191	C19	0.398700	0.924600	0.637800
H171	H17	0.286900	0.948600	0.645800
H181	H18	0.422800	0.853300	0.640700
C201	C20	0.409200	0.989700	0.747700
H191	H19	0.303200	0.007300	0.760900
C211	C21	0.646700	0.966800	0.742500
H201	H20	0.744500	0.964700	0.754300
C221	C22	0.635000	0.798600	0.553900
H211	H21	0.730800	0.773700	0.525900
H221	H22	0.661100	0.800700	0.599400
N11	N1	0.439600	0.603500	0.580800
N21	N2	0.410300	0.749500	0.520200
N31	N3	0.097100	0.552300	0.812500
N41	N4	0.222000	0.580500	0.827900
N51	N5	0.269700	0.519100	0.728300
N61	N6	0.157600	0.293900	0.892200
N71	N7	0.277600	0.331300	0.863900
N81	N8	0.352900	0.167100	0.881800
N91	N9	0.187900	0.234800	0.056300
N101	N10	0.312100	0.267200	0.029800
N111	N11	0.383100	0.111400	0.074100
N121	N12	0.354800	0.203900	0.607500
N131	N13	0.485400	0.174900	0.639900
N141	N14	0.401000	0.338500	0.627400
N151	N15	0.471700	0.953600	0.690400
N161	N16	0.628000	0.940500	0.686500
N171	N17	0.516300	0.997800	0.783900
N181	N18	0.532800	0.730000	0.557500
C231	C23	0.547000	0.645400	0.591400
H231	H23	0.624300	0.617000	0.620100
C241	C24	0.359700	0.670000	0.536300
H241	H24	0.274900	0.660600	0.518200
O11	O1	0.176800	0.517900	0.587300
O21	O2	0.939100	0.595600	0.509100
O31	O3	0.894300	0.478900	0.632600
O41	O4	0.846800	0.284500	0.694400
O51	O5	0.890600	0.194100	0.836100
O61	O6	0.673700	0.080000	0.892400
O71	O7	0.984200	0.003400	0.901300
O81	O8	0.836200	0.147400	0.980600
O91	O9	0.704000	0.019700	0.079500
O101	O10	0.942900	0.666500	0.609100
O111	O11	0.601200	0.444900	0.673400
V61	V6	0.013100	0.515600	0.560890
Zn31	Zn3	0.617110	0.518160	0.363370
Zn41	Zn4	0.509540	0.973930	0.116890
V71	V7	0.008700	0.440100	0.417450
V81	V8	0.220920	0.585190	0.307240
V91	V9	0.027270	0.803320	0.252390
V101	V10	0.167180	0.890230	0.099500
V111	V11	0.156100	0.928130	0.936080
C251	C25	0.020700	0.467900	0.068500
C261	C26	0.000300	0.567400	0.045200
C271	C27	0.981800	0.598900	0.976000
C281	C28	0.607000	0.936800	0.457600
C291	C29	0.545900	0.034700	0.433500
C301	C30	0.440100	0.098400	0.475400
C311	C31	0.048800	0.432300	0.141200
H251	H25	0.117300	0.466900	0.155600
H261	H26	0.100200	0.362600	0.144700
C321	C32	0.679600	0.441000	0.224900
H271	H27	0.581100	0.429600	0.229800
C331	C33	0.870000	0.485100	0.245400
H281	H28	0.936500	0.511200	0.265300
C341	C34	0.997700	0.642700	0.094300
H291	H29	0.068300	0.683000	0.074800
H301	H30	0.033700	0.608100	0.137000
C351	C35	0.607500	0.748700	0.140600
H311	H31	0.507000	0.746400	0.158100
C361	C36	0.797600	0.801300	0.097700
H321	H32	0.861900	0.842200	0.078800
C371	C37	0.972700	0.705800	0.948800
H331	H33	0.030200	0.708200	0.904000
H341	H34	0.021900	0.734600	0.978600
C381	C38	0.572800	0.811200	0.958400
H351	H35	0.469300	0.811700	0.971800
C391	C39	0.767300	0.859000	0.918800
H361	H36	0.834000	0.897900	0.899100
C401	C40	0.718500	0.869100	0.411600
H371	H37	0.809500	0.835400	0.434700
H381	H38	0.751900	0.907300	0.370800
C411	C41	0.694800	0.699100	0.398600
H391	H39	0.783800	0.663100	0.418300
C421	C42	0.489600	0.741600	0.350500
H401	H40	0.404300	0.737300	0.330200
C431	C43	0.601300	0.075400	0.362200
H411	H41	0.713100	0.051400	0.354200
H421	H42	0.577200	0.146700	0.359300
C441	C44	0.590800	0.010300	0.252300
H431	H43	0.696800	0.992700	0.239100
C451	C45	0.353300	0.033200	0.257500
H441	H44	0.255500	0.035300	0.245700
C461	C46	0.365000	0.201400	0.446100
H451	H45	0.269200	0.226300	0.474100
H461	H46	0.338900	0.199300	0.400600
N191	N19	0.560400	0.396500	0.419200
N201	N20	0.589700	0.250500	0.479800
N211	N21	0.902900	0.447700	0.187500
N221	N22	0.778000	0.419500	0.172100
N231	N23	0.730300	0.480900	0.271700
N241	N24	0.842400	0.706100	0.107800
N251	N25	0.722400	0.668700	0.136100
N261	N26	0.647100	0.832900	0.118200
N271	N27	0.812100	0.765200	0.943700
N281	N28	0.687900	0.732800	0.970200
N291	N29	0.616900	0.888600	0.925900
N301	N30	0.645200	0.796100	0.392500
N311	N31	0.514600	0.825100	0.360100
N321	N32	0.599000	0.661500	0.372600
N331	N33	0.528300	0.046400	0.309600
N341	N34	0.372000	0.059500	0.313500
N351	N35	0.483700	0.002200	0.216100
N361	N36	0.467200	0.270000	0.442500
C471	C47	0.453000	0.354600	0.408600
H471	H47	0.375700	0.383000	0.379900
C481	C48	0.640300	0.330000	0.463700
H481	H48	0.725100	0.339400	0.481800
O121	O12	0.823200	0.482100	0.412700
O131	O13	0.060900	0.404400	0.490900
O141	O14	0.105700	0.521100	0.367400
O151	O15	0.153200	0.715500	0.305600
O161	O16	0.109400	0.805900	0.163900
O171	O17	0.326300	0.920000	0.107600
O181	O18	0.015800	0.996600	0.098700
O191	O19	0.163800	0.852600	0.019400
O201	O20	0.296000	0.980300	0.920500
O211	O21	0.057100	0.333500	0.390900
O221	O22	0.398800	0.555100	0.326600
V121	V12	0.986900	0.484400	0.439110
