data_SUXYOA_clean_PM
_symmetry_space_group_name_H-M	'P1'
_cell_length_a	15.177700
_cell_length_b	15.177700
_cell_length_c	22.509400
_cell_angle_alpha	90.000000
_cell_angle_beta	90.000000
_cell_angle_gamma	90.000000
_symmetry_Int_Tables_number 1

loop_
_symmetry_equiv_pos_as_xyz
'x,y,z'

loop_
_atom_site_label
_atom_site_type_symbol
_atom_site_fract_x
_atom_site_fract_y
_atom_site_fract_z
O11	O1	0.590520	0.218400	0.295940
O21	O2	0.532020	0.393230	0.344400
N11	N1	0.669160	0.233900	0.274910
N21	N2	0.526170	0.444270	0.297950
C11	C1	0.709080	0.171640	0.241230
H11	H1	0.681000	0.116400	0.235100
C21	C2	0.789670	0.187590	0.215860
H21	H2	0.816800	0.143800	0.191800
C31	C3	0.525310	0.411390	0.242100
H31	H3	0.524900	0.349400	0.236100
C41	C4	0.525040	0.467180	0.194150
H41	H4	0.524000	0.443600	0.155100
O31	O3	0.090520	0.718400	0.795940
O41	O4	0.032020	0.893230	0.844400
N31	N3	0.169160	0.733900	0.774910
N41	N4	0.026170	0.944270	0.797950
C51	C5	0.209080	0.671640	0.741230
H51	H5	0.181000	0.616400	0.735100
C61	C6	0.289670	0.687590	0.715860
H61	H6	0.316800	0.643800	0.691800
C71	C7	0.025310	0.911390	0.742100
H71	H7	0.024900	0.849400	0.736100
C81	C8	0.025040	0.967180	0.694150
H81	H8	0.024000	0.943600	0.655100
O51	O5	0.909480	0.781600	0.795940
O61	O6	0.967980	0.606770	0.844400
N51	N5	0.830840	0.766100	0.774910
N61	N6	0.973830	0.555730	0.797950
C91	C9	0.790920	0.828360	0.741230
H91	H9	0.819000	0.883600	0.735100
C101	C10	0.710330	0.812410	0.715860
H101	H10	0.683200	0.856200	0.691800
C111	C11	0.974690	0.588610	0.742100
H111	H11	0.975100	0.650600	0.736100
C121	C12	0.974960	0.532820	0.694150
H121	H12	0.976000	0.556400	0.655100
O71	O7	0.409480	0.281600	0.295940
O81	O8	0.467980	0.106770	0.344400
N71	N7	0.330840	0.266100	0.274910
N81	N8	0.473830	0.055730	0.297950
C131	C13	0.290920	0.328360	0.241230
H131	H13	0.319000	0.383600	0.235100
C141	C14	0.210330	0.312410	0.215860
H141	H14	0.183200	0.356200	0.191800
C151	C15	0.474690	0.088610	0.242100
H151	H15	0.475100	0.150600	0.236100
C161	C16	0.474960	0.032820	0.194150
H161	H16	0.476000	0.056400	0.155100
O91	O9	0.031600	0.340520	0.545940
O101	O10	0.856770	0.282020	0.594400
N91	N9	0.016100	0.419160	0.524910
N101	N10	0.805730	0.276170	0.547950
C171	C17	0.078360	0.459080	0.491230
H171	H17	0.133600	0.431000	0.485100
C181	C18	0.062410	0.539670	0.465860
H181	H18	0.106200	0.566800	0.441800
C191	C19	0.838610	0.275310	0.492100
H191	H19	0.900600	0.274900	0.486100
C201	C20	0.782820	0.275040	0.444150
H201	H20	0.806400	0.274000	0.405100
O111	O11	0.531600	0.840520	0.045940
O121	O12	0.356770	0.782020	0.094400
N111	N11	0.516100	0.919160	0.024910
N121	N12	0.305730	0.776170	0.047950
C211	C21	0.578360	0.959080	0.991230
H211	H21	0.633600	0.931000	0.985100
C221	C22	0.562410	0.039670	0.965860
H221	H22	0.606200	0.066800	0.941800
C231	C23	0.338610	0.775310	0.992100
H231	H23	0.400600	0.774900	0.986100
C241	C24	0.282820	0.775040	0.944150
H241	H24	0.306400	0.774000	0.905100
O131	O13	0.468400	0.659480	0.045940
O141	O14	0.643230	0.717980	0.094400
N131	N13	0.483900	0.580840	0.024910
N141	N14	0.694270	0.723830	0.047950
C251	C25	0.421640	0.540920	0.991230
H251	H25	0.366400	0.569000	0.985100
C261	C26	0.437590	0.460330	0.965860
H261	H26	0.393800	0.433200	0.941800
C271	C27	0.661390	0.724690	0.992100
H271	H27	0.599400	0.725100	0.986100
C281	C28	0.717180	0.724960	0.944150
H281	H28	0.693600	0.726000	0.905100
O151	O15	0.968400	0.159480	0.545940
O161	O16	0.143230	0.217980	0.594400
N151	N15	0.983900	0.080840	0.524910
N161	N16	0.194270	0.223830	0.547950
C291	C29	0.921640	0.040920	0.491230
H291	H29	0.866400	0.069000	0.485100
C301	C30	0.937590	0.960330	0.465860
H301	H30	0.893800	0.933200	0.441800
C311	C31	0.161390	0.224690	0.492100
H311	H31	0.099400	0.225100	0.486100
C321	C32	0.217180	0.224960	0.444150
H321	H32	0.193600	0.226000	0.405100
O171	O17	0.909480	0.218400	0.704060
O181	O18	0.967980	0.393230	0.655600
N171	N17	0.830840	0.233900	0.725090
N181	N18	0.973830	0.444270	0.702050
C331	C33	0.790920	0.171640	0.758770
H331	H33	0.819000	0.116400	0.764900
C341	C34	0.710330	0.187590	0.784140
H341	H34	0.683200	0.143800	0.808200
C351	C35	0.974690	0.411390	0.757900
H351	H35	0.975100	0.349400	0.763900
C361	C36	0.974960	0.467180	0.805850
H361	H36	0.976000	0.443600	0.844900
O191	O19	0.409480	0.718400	0.204060
O201	O20	0.467980	0.893230	0.155600
N191	N19	0.330840	0.733900	0.225090
N201	N20	0.473830	0.944270	0.202050
C371	C37	0.290920	0.671640	0.258770
H371	H37	0.319000	0.616400	0.264900
C381	C38	0.210330	0.687590	0.284140
H381	H38	0.183200	0.643800	0.308200
C391	C39	0.474690	0.911390	0.257900
H391	H39	0.475100	0.849400	0.263900
C401	C40	0.474960	0.967180	0.305850
H401	H40	0.476000	0.943600	0.344900
O211	O21	0.590520	0.781600	0.204060
O221	O22	0.532020	0.606770	0.155600
N211	N21	0.669160	0.766100	0.225090
N221	N22	0.526170	0.555730	0.202050
C411	C41	0.709080	0.828360	0.258770
H411	H41	0.681000	0.883600	0.264900
C421	C42	0.789670	0.812410	0.284140
H421	H42	0.816800	0.856200	0.308200
C431	C43	0.525310	0.588610	0.257900
H431	H43	0.524900	0.650600	0.263900
C441	C44	0.525040	0.532820	0.305850
H441	H44	0.524000	0.556400	0.344900
O231	O23	0.090520	0.281600	0.704060
O241	O24	0.032020	0.106770	0.655600
N231	N23	0.169160	0.266100	0.725090
N241	N24	0.026170	0.055730	0.702050
C451	C45	0.209080	0.328360	0.758770
H451	H45	0.181000	0.383600	0.764900
C461	C46	0.289670	0.312410	0.784140
H461	H46	0.316800	0.356200	0.808200
C471	C47	0.025310	0.088610	0.757900
H471	H47	0.024900	0.150600	0.763900
C481	C48	0.025040	0.032820	0.805850
H481	H48	0.024000	0.056400	0.844900
O251	O25	0.468400	0.340520	0.454060
O261	O26	0.643230	0.282020	0.405600
N251	N25	0.483900	0.419160	0.475090
N261	N26	0.694270	0.276170	0.452050
C491	C49	0.421640	0.459080	0.508770
H491	H49	0.366400	0.431000	0.514900
C501	C50	0.437590	0.539670	0.534140
H501	H50	0.393800	0.566800	0.558200
C511	C51	0.661390	0.275310	0.507900
H511	H51	0.599400	0.274900	0.513900
C521	C52	0.717180	0.275040	0.555850
H521	H52	0.693600	0.274000	0.594900
O271	O27	0.968400	0.840520	0.954060
O281	O28	0.143230	0.782020	0.905600
N271	N27	0.983900	0.919160	0.975090
N281	N28	0.194270	0.776170	0.952050
C531	C53	0.921640	0.959080	0.008770
H531	H53	0.866400	0.931000	0.014900
C541	C54	0.937590	0.039670	0.034140
H541	H54	0.893800	0.066800	0.058200
C551	C55	0.161390	0.775310	0.007900
H551	H55	0.099400	0.774900	0.013900
C561	C56	0.217180	0.775040	0.055850
H561	H56	0.193600	0.774000	0.094900
O291	O29	0.031600	0.659480	0.954060
O301	O30	0.856770	0.717980	0.905600
N291	N29	0.016100	0.580840	0.975090
N301	N30	0.805730	0.723830	0.952050
C571	C57	0.078360	0.540920	0.008770
H571	H57	0.133600	0.569000	0.014900
C581	C58	0.062410	0.460330	0.034140
H581	H58	0.106200	0.433200	0.058200
C591	C59	0.838610	0.724690	0.007900
H591	H59	0.900600	0.725100	0.013900
C601	C60	0.782820	0.724960	0.055850
H601	H60	0.806400	0.726000	0.094900
O311	O31	0.531600	0.159480	0.454060
O321	O32	0.356770	0.217980	0.405600
N311	N31	0.516100	0.080840	0.475090
N321	N32	0.305730	0.223830	0.452050
C611	C61	0.578360	0.040920	0.508770
H611	H61	0.633600	0.069000	0.514900
C621	C62	0.562410	0.960330	0.534140
H621	H62	0.606200	0.933200	0.558200
C631	C63	0.338610	0.224690	0.507900
H631	H63	0.400600	0.225100	0.513900
C641	C64	0.282820	0.224960	0.555850
H641	H64	0.306400	0.226000	0.594900
O331	O33	0.409480	0.781600	0.704060
O341	O34	0.467980	0.606770	0.655600
N331	N33	0.330840	0.766100	0.725090
N341	N34	0.473830	0.555730	0.702050
C651	C65	0.290920	0.828360	0.758770
H651	H65	0.319000	0.883600	0.764900
C661	C66	0.210330	0.812410	0.784140
H661	H66	0.183200	0.856200	0.808200
C671	C67	0.474690	0.588610	0.757900
H671	H67	0.475100	0.650600	0.763900
C681	C68	0.474960	0.532820	0.805850
H681	H68	0.476000	0.556400	0.844900
O351	O35	0.909480	0.281600	0.204060
O361	O36	0.967980	0.106770	0.155600
N351	N35	0.830840	0.266100	0.225090
N361	N36	0.973830	0.055730	0.202050
C691	C69	0.790920	0.328360	0.258770
H691	H69	0.819000	0.383600	0.264900
C701	C70	0.710330	0.312410	0.284140
H701	H70	0.683200	0.356200	0.308200
C711	C71	0.974690	0.088610	0.257900
H711	H71	0.975100	0.150600	0.263900
C721	C72	0.974960	0.032820	0.305850
H721	H72	0.976000	0.056400	0.344900
O371	O37	0.090520	0.218400	0.204060
O381	O38	0.032020	0.393230	0.155600
N371	N37	0.169160	0.233900	0.225090
N381	N38	0.026170	0.444270	0.202050
C731	C73	0.209080	0.171640	0.258770
H731	H73	0.181000	0.116400	0.264900
C741	C74	0.289670	0.187590	0.284140
H741	H74	0.316800	0.143800	0.308200
C751	C75	0.025310	0.411390	0.257900
H751	H75	0.024900	0.349400	0.263900
C761	C76	0.025040	0.467180	0.305850
H761	H76	0.024000	0.443600	0.344900
O391	O39	0.590520	0.718400	0.704060
O401	O40	0.532020	0.893230	0.655600
N391	N39	0.669160	0.733900	0.725090
N401	N40	0.526170	0.944270	0.702050
C771	C77	0.709080	0.671640	0.758770
H771	H77	0.681000	0.616400	0.764900
C781	C78	0.789670	0.687590	0.784140
H781	H78	0.816800	0.643800	0.808200
C791	C79	0.525310	0.911390	0.757900
H791	H79	0.524900	0.849400	0.763900
C801	C80	0.525040	0.967180	0.805850
H801	H80	0.524000	0.943600	0.844900
O411	O41	0.968400	0.659480	0.454060
O421	O42	0.143230	0.717980	0.405600
N411	N41	0.983900	0.580840	0.475090
N421	N42	0.194270	0.723830	0.452050
C811	C81	0.921640	0.540920	0.508770
H811	H81	0.866400	0.569000	0.514900
C821	C82	0.937590	0.460330	0.534140
H821	H82	0.893800	0.433200	0.558200
C831	C83	0.161390	0.724690	0.507900
H831	H83	0.099400	0.725100	0.513900
C841	C84	0.217180	0.724960	0.555850
H841	H84	0.193600	0.726000	0.594900
O431	O43	0.468400	0.159480	0.954060
O441	O44	0.643230	0.217980	0.905600
N431	N43	0.483900	0.080840	0.975090
N441	N44	0.694270	0.223830	0.952050
C851	C85	0.421640	0.040920	0.008770
H851	H85	0.366400	0.069000	0.014900
C861	C86	0.437590	0.960330	0.034140
H861	H86	0.393800	0.933200	0.058200
C871	C87	0.661390	0.224690	0.007900
H871	H87	0.599400	0.225100	0.013900
C881	C88	0.717180	0.224960	0.055850
H881	H88	0.693600	0.226000	0.094900
O451	O45	0.531600	0.340520	0.954060
O461	O46	0.356770	0.282020	0.905600
N451	N45	0.516100	0.419160	0.975090
N461	N46	0.305730	0.276170	0.952050
C891	C89	0.578360	0.459080	0.008770
H891	H89	0.633600	0.431000	0.014900
C901	C90	0.562410	0.539670	0.034140
H901	H90	0.606200	0.566800	0.058200
C911	C91	0.338610	0.275310	0.007900
H911	H91	0.400600	0.274900	0.013900
C921	C92	0.282820	0.275040	0.055850
H921	H92	0.306400	0.274000	0.094900
O471	O47	0.031600	0.840520	0.454060
O481	O48	0.856770	0.782020	0.405600
N471	N47	0.016100	0.919160	0.475090
N481	N48	0.805730	0.776170	0.452050
C931	C93	0.078360	0.959080	0.508770
H931	H93	0.133600	0.931000	0.514900
C941	C94	0.062410	0.039670	0.534140
H941	H94	0.106200	0.066800	0.558200
C951	C95	0.838610	0.775310	0.507900
H951	H95	0.900600	0.774900	0.513900
C961	C96	0.782820	0.775040	0.555850
H961	H96	0.806400	0.774000	0.594900
O491	O49	0.090520	0.781600	0.295940
O501	O50	0.032020	0.606770	0.344400
N491	N49	0.169160	0.766100	0.274910
N501	N50	0.026170	0.555730	0.297950
C971	C97	0.209080	0.828360	0.241230
H971	H97	0.181000	0.883600	0.235100
C981	C98	0.289670	0.812410	0.215860
H981	H98	0.316800	0.856200	0.191800
C991	C99	0.025310	0.588610	0.242100
H991	H99	0.024900	0.650600	0.236100
C1001	C100	0.025040	0.532820	0.194150
H1001	H100	0.024000	0.556400	0.155100
O511	O51	0.590520	0.281600	0.795940
O521	O52	0.532020	0.106770	0.844400
N511	N51	0.669160	0.266100	0.774910
N521	N52	0.526170	0.055730	0.797950
C1011	C101	0.709080	0.328360	0.741230
H1011	H101	0.681000	0.383600	0.735100
C1021	C102	0.789670	0.312410	0.715860
H1021	H102	0.816800	0.356200	0.691800
C1031	C103	0.525310	0.088610	0.742100
H1031	H103	0.524900	0.150600	0.736100
C1041	C104	0.525040	0.032820	0.694150
H1041	H104	0.524000	0.056400	0.655100
O531	O53	0.409480	0.218400	0.795940
O541	O54	0.467980	0.393230	0.844400
N531	N53	0.330840	0.233900	0.774910
N541	N54	0.473830	0.444270	0.797950
C1051	C105	0.290920	0.171640	0.741230
H1051	H105	0.319000	0.116400	0.735100
C1061	C106	0.210330	0.187590	0.715860
H1061	H106	0.183200	0.143800	0.691800
C1071	C107	0.474690	0.411390	0.742100
H1071	H107	0.475100	0.349400	0.736100
C1081	C108	0.474960	0.467180	0.694150
H1081	H108	0.476000	0.443600	0.655100
O551	O55	0.909480	0.718400	0.295940
O561	O56	0.967980	0.893230	0.344400
N551	N55	0.830840	0.733900	0.274910
N561	N56	0.973830	0.944270	0.297950
C1091	C109	0.790920	0.671640	0.241230
H1091	H109	0.819000	0.616400	0.235100
C1101	C110	0.710330	0.687590	0.215860
H1101	H110	0.683200	0.643800	0.191800
C1111	C111	0.974690	0.911390	0.242100
H1111	H111	0.975100	0.849400	0.236100
C1121	C112	0.974960	0.967180	0.194150
H1121	H112	0.976000	0.943600	0.155100
O571	O57	0.531600	0.659480	0.545940
O581	O58	0.356770	0.717980	0.594400
N571	N57	0.516100	0.580840	0.524910
N581	N58	0.305730	0.723830	0.547950
C1131	C113	0.578360	0.540920	0.491230
H1131	H113	0.633600	0.569000	0.485100
C1141	C114	0.562410	0.460330	0.465860
H1141	H114	0.606200	0.433200	0.441800
C1151	C115	0.338610	0.724690	0.492100
H1151	H115	0.400600	0.725100	0.486100
C1161	C116	0.282820	0.724960	0.444150
H1161	H116	0.306400	0.726000	0.405100
O591	O59	0.031600	0.159480	0.045940
O601	O60	0.856770	0.217980	0.094400
N591	N59	0.016100	0.080840	0.024910
N601	N60	0.805730	0.223830	0.047950
C1171	C117	0.078360	0.040920	0.991230
H1171	H117	0.133600	0.069000	0.985100
C1181	C118	0.062410	0.960330	0.965860
H1181	H118	0.106200	0.933200	0.941800
C1191	C119	0.838610	0.224690	0.992100
H1191	H119	0.900600	0.225100	0.986100
C1201	C120	0.782820	0.224960	0.944150
H1201	H120	0.806400	0.226000	0.905100
O611	O61	0.968400	0.340520	0.045940
O621	O62	0.143230	0.282020	0.094400
N611	N61	0.983900	0.419160	0.024910
N621	N62	0.194270	0.276170	0.047950
C1211	C121	0.921640	0.459080	0.991230
H1211	H121	0.866400	0.431000	0.985100
C1221	C122	0.937590	0.539670	0.965860
H1221	H122	0.893800	0.566800	0.941800
C1231	C123	0.161390	0.275310	0.992100
H1231	H123	0.099400	0.274900	0.986100
C1241	C124	0.217180	0.275040	0.944150
H1241	H124	0.193600	0.274000	0.905100
O631	O63	0.468400	0.840520	0.545940
O641	O64	0.643230	0.782020	0.594400
N631	N63	0.483900	0.919160	0.524910
N641	N64	0.694270	0.776170	0.547950
C1251	C125	0.421640	0.959080	0.491230
H1251	H125	0.366400	0.931000	0.485100
C1261	C126	0.437590	0.039670	0.465860
H1261	H126	0.393800	0.066800	0.441800
C1271	C127	0.661390	0.775310	0.492100
H1271	H127	0.599400	0.774900	0.486100
C1281	C128	0.717180	0.775040	0.444150
H1281	H128	0.693600	0.774000	0.405100
Er11	Er1	0.500000	0.250000	0.375000
Er21	Er2	0.000000	0.750000	0.875000
Er31	Er3	0.000000	0.250000	0.625000
Er41	Er4	0.500000	0.750000	0.125000
Er51	Er5	0.500000	0.750000	0.625000
Er61	Er6	0.000000	0.250000	0.125000
Er71	Er7	0.000000	0.750000	0.375000
Er81	Er8	0.500000	0.250000	0.875000
