data_TACFIN_clean_PM
_symmetry_space_group_name_H-M	'P1'
_cell_length_a	14.723600
_cell_length_b	14.723600
_cell_length_c	8.954400
_cell_angle_alpha	90.000000
_cell_angle_beta	90.000000
_cell_angle_gamma	90.000000
_symmetry_Int_Tables_number 1

loop_
_symmetry_equiv_pos_as_xyz
'x,y,z'

loop_
_atom_site_label
_atom_site_type_symbol
_atom_site_fract_x
_atom_site_fract_y
_atom_site_fract_z
Co11	Co1	0.988290	0.131480	0.349720
Co21	Co2	0.131460	0.498830	0.163410
P11	P1	0.999810	0.352670	0.305500
P21	P2	0.987490	0.146630	0.708800
O11	O1	0.083800	0.390400	0.234000
O21	O2	0.003500	0.247800	0.753400
O31	O3	0.946200	0.138900	0.553700
O41	O4	0.994500	0.252500	0.264400
O51	O5	0.080000	0.099600	0.715800
O61	O6	0.923200	0.109000	0.827800
O71	O7	0.921100	0.401800	0.244000
O81	O8	0.993000	0.363700	0.460900
Zn11	Zn1	0.001170	0.368540	0.663410
Zn21	Zn2	0.131480	0.011710	0.849720
Co31	Co3	0.011710	0.868520	0.349720
Co41	Co4	0.868540	0.501170	0.163410
P31	P3	0.000190	0.647330	0.305500
P41	P4	0.012510	0.853370	0.708800
O91	O9	0.916200	0.609600	0.234000
O101	O10	0.996500	0.752200	0.753400
O111	O11	0.053800	0.861100	0.553700
O121	O12	0.005500	0.747500	0.264400
O131	O13	0.920000	0.900400	0.715800
O141	O14	0.076800	0.891000	0.827800
O151	O15	0.078900	0.598200	0.244000
O161	O16	0.007000	0.636300	0.460900
Zn31	Zn3	0.998830	0.631460	0.663410
Zn41	Zn4	0.868520	0.988290	0.849720
Co51	Co5	0.501170	0.131460	0.663410
P51	P5	0.647330	0.999810	0.805500
P61	P6	0.853370	0.987490	0.208800
O171	O17	0.609600	0.083800	0.734000
O181	O18	0.752200	0.003500	0.253400
O191	O19	0.861100	0.946200	0.053700
O201	O20	0.747500	0.994500	0.764400
O211	O21	0.900400	0.080000	0.215800
O221	O22	0.891000	0.923200	0.327800
O231	O23	0.598200	0.921100	0.744000
O241	O24	0.636300	0.993000	0.960900
Zn51	Zn5	0.631460	0.001170	0.163410
Co61	Co6	0.498830	0.868540	0.663410
P71	P7	0.352670	0.000190	0.805500
P81	P8	0.146630	0.012510	0.208800
O251	O25	0.390400	0.916200	0.734000
O261	O26	0.247800	0.996500	0.253400
O271	O27	0.138900	0.053800	0.053700
O281	O28	0.252500	0.005500	0.764400
O291	O29	0.099600	0.920000	0.215800
O301	O30	0.109000	0.076800	0.327800
O311	O31	0.401800	0.078900	0.744000
O321	O32	0.363700	0.007000	0.960900
Zn61	Zn6	0.368540	0.998830	0.163410
Co71	Co7	0.488290	0.368520	0.349720
P91	P9	0.499810	0.147330	0.305500
P101	P10	0.487490	0.353370	0.708800
O331	O33	0.583800	0.109600	0.234000
O341	O34	0.503500	0.252200	0.753400
O351	O35	0.446200	0.361100	0.553700
O361	O36	0.494500	0.247500	0.264400
O371	O37	0.580000	0.400400	0.715800
O381	O38	0.423200	0.391000	0.827800
O391	O39	0.421100	0.098200	0.244000
O401	O40	0.493000	0.136300	0.460900
Zn71	Zn7	0.631480	0.488290	0.849720
Co81	Co8	0.511710	0.631480	0.349720
P111	P11	0.500190	0.852670	0.305500
P121	P12	0.512510	0.646630	0.708800
O411	O41	0.416200	0.890400	0.234000
O421	O42	0.496500	0.747800	0.753400
O431	O43	0.553800	0.638900	0.553700
O441	O44	0.505500	0.752500	0.264400
O451	O45	0.420000	0.599600	0.715800
O461	O46	0.576800	0.609000	0.827800
O471	O47	0.578900	0.901800	0.244000
O481	O48	0.507000	0.863700	0.460900
Zn81	Zn8	0.368520	0.511710	0.849720
P131	P13	0.147330	0.500190	0.805500
P141	P14	0.353370	0.512510	0.208800
O491	O49	0.109600	0.416200	0.734000
O501	O50	0.252200	0.496500	0.253400
O511	O51	0.361100	0.553800	0.053700
O521	O52	0.247500	0.505500	0.764400
O531	O53	0.400400	0.420000	0.215800
O541	O54	0.391000	0.576800	0.327800
O551	O55	0.098200	0.578900	0.744000
O561	O56	0.136300	0.507000	0.960900
P151	P15	0.852670	0.499810	0.805500
P161	P16	0.646630	0.487490	0.208800
O571	O57	0.890400	0.583800	0.734000
O581	O58	0.747800	0.503500	0.253400
O591	O59	0.638900	0.446200	0.053700
O601	O60	0.752500	0.494500	0.764400
O611	O61	0.599600	0.580000	0.215800
O621	O62	0.609000	0.423200	0.327800
O631	O63	0.901800	0.421100	0.744000
O641	O64	0.863700	0.493000	0.960900
