data_TACJIS_clean_PM
_symmetry_space_group_name_H-M	'P1'
_cell_length_a	8.896200
_cell_length_b	16.578200
_cell_length_c	16.578200
_cell_angle_alpha	85.871700
_cell_angle_beta	74.436300
_cell_angle_gamma	74.436200
_symmetry_Int_Tables_number 1

loop_
_symmetry_equiv_pos_as_xyz
'x,y,z'

loop_
_atom_site_label
_atom_site_type_symbol
_atom_site_fract_x
_atom_site_fract_y
_atom_site_fract_z
Cd11	Cd1	0.009310	0.097950	0.535950
Cd21	Cd2	0.643210	0.902050	0.464050
Cd31	Cd3	0.454740	0.535950	0.902050
Cd41	Cd4	0.892740	0.464050	0.097950
H11	H1	0.784000	0.372300	0.494900
H21	H2	0.668200	0.421800	0.440800
H31	H3	0.656000	0.277900	0.479300
H41	H4	0.504500	0.183800	0.481400
H51	H5	0.128900	0.331900	0.646300
H61	H6	0.280800	0.423500	0.644900
H71	H7	0.128600	0.087500	0.952300
H81	H8	0.064000	0.055300	0.884500
H91	H9	0.252000	0.101500	0.797100
H101	H10	0.470700	0.128800	0.694400
H111	H11	0.775500	0.934800	0.778600
H121	H12	0.555400	0.905700	0.877100
H131	H13	0.651200	0.627700	0.505100
H141	H14	0.530800	0.578200	0.559200
H151	H15	0.413200	0.722100	0.520700
H161	H16	0.169700	0.816200	0.518600
H171	H17	0.107100	0.668100	0.353700
H181	H18	0.349200	0.576500	0.355100
H191	H19	0.168400	0.912500	0.047700
H201	H20	0.003800	0.944700	0.115500
H211	H21	0.150600	0.898500	0.202900
H221	H22	0.293900	0.871200	0.305600
H231	H23	0.488900	0.065200	0.221400
H241	H24	0.338200	0.094300	0.122900
H251	H25	0.721100	0.494900	0.627700
H261	H26	0.891000	0.440800	0.578200
H271	H27	0.864700	0.479300	0.722100
H281	H28	0.014100	0.481400	0.816200
H291	H29	0.224800	0.646300	0.668100
H301	H30	0.074300	0.644900	0.576500
H311	H31	0.919100	0.952300	0.912500
H321	H32	0.051500	0.884500	0.944700
H331	H33	0.950900	0.797100	0.898500
H341	H34	0.834900	0.694400	0.871200
H351	H35	0.445900	0.778600	0.065200
H361	H36	0.567500	0.877100	0.094300
H371	H37	0.843700	0.505100	0.372300
H381	H38	0.910000	0.559200	0.421800
H391	H39	0.066100	0.520700	0.277900
H401	H40	0.311700	0.518600	0.183800
H411	H41	0.539200	0.353700	0.331900
H421	H42	0.295700	0.355100	0.423500
H431	H43	0.783900	0.047700	0.087500
H441	H44	0.880700	0.115500	0.055300
H451	H45	0.646500	0.202900	0.101500
H461	H46	0.400500	0.305600	0.128800
H471	H47	0.289700	0.221400	0.934800
H481	H48	0.538900	0.122900	0.905700
C11	C1	0.696800	0.421700	0.493300
C21	C2	0.480500	0.361300	0.560500
C31	C3	0.550100	0.288400	0.512000
C41	C4	0.459100	0.232200	0.513600
C51	C5	0.299000	0.247200	0.563000
C61	C6	0.234200	0.321000	0.612600
C71	C7	0.324200	0.376000	0.611400
C81	C8	0.194700	0.191900	0.559100
C91	C9	0.111700	0.038400	0.931200
C101	C10	0.383800	0.998600	0.845400
C111	C11	0.356000	0.067500	0.792100
C121	C12	0.487800	0.084300	0.731300
C131	C13	0.641300	0.035900	0.725900
C141	C14	0.671100	0.967200	0.781600
C151	C15	0.538900	0.950400	0.840400
C161	C16	0.780300	0.054400	0.660000
C171	C17	0.611800	0.578300	0.506700
C181	C18	0.402300	0.638700	0.439500
C191	C19	0.350500	0.711600	0.488000
C201	C20	0.204900	0.767800	0.486400
C211	C21	0.109200	0.752800	0.437000
C221	C22	0.167800	0.679000	0.387400
C231	C23	0.311600	0.624000	0.388600
C241	C24	0.945700	0.808100	0.440900
C251	C25	0.081300	0.961600	0.068800
C261	C26	0.227800	0.001400	0.154600
C271	C27	0.215600	0.932500	0.207900
C281	C28	0.303400	0.915700	0.268700
C291	C29	0.403100	0.964100	0.274100
C301	C30	0.419900	0.032800	0.218400
C311	C31	0.329700	0.049600	0.159600
C321	C32	0.494700	0.945600	0.340000
C331	C33	0.809900	0.493300	0.578300
C341	C34	0.959000	0.560500	0.638700
C351	C35	0.937900	0.512000	0.711600
C361	C36	0.027300	0.513600	0.767800
C371	C37	0.138000	0.563000	0.752800
C381	C38	0.153200	0.612600	0.679000
C391	C39	0.064400	0.611400	0.624000
C401	C40	0.246200	0.559100	0.808100
C411	C41	0.957100	0.931200	0.961600
C421	C42	0.770800	0.845400	0.001400
C431	C43	0.851900	0.792100	0.932500
C441	C44	0.780900	0.731300	0.915700
C451	C45	0.632800	0.725900	0.964100
C461	C46	0.547300	0.781600	0.032800
C471	C47	0.620700	0.840400	0.049600
C481	C48	0.559700	0.660000	0.945600
C491	C49	0.881500	0.506700	0.421700
C501	C50	0.158200	0.439500	0.361300
C511	C51	0.161500	0.488000	0.288400
C521	C52	0.308700	0.486400	0.232200
C531	C53	0.453800	0.437000	0.247200
C541	C54	0.444800	0.387400	0.321000
C551	C55	0.299800	0.388600	0.376000
C561	C56	0.613400	0.440900	0.191900
C571	C57	0.849900	0.068800	0.038400
C581	C58	0.617600	0.154600	0.998600
C591	C59	0.576500	0.207900	0.067500
C601	C60	0.427900	0.268700	0.084300
C611	C61	0.322800	0.274100	0.035900
C621	C62	0.361700	0.218400	0.967200
C631	C63	0.510700	0.159600	0.950400
C641	C64	0.165300	0.340000	0.054400
C651	C65	0.750000	0.500000	0.500000
C661	C66	0.000000	0.000000	0.000000
O11	O1	0.560340	0.420660	0.561860
O21	O2	0.262400	0.119100	0.527700
O31	O3	0.047400	0.216700	0.583900
O41	O4	0.263100	0.976250	0.904550
O51	O5	0.751000	0.090700	0.593500
O61	O6	0.919200	0.035200	0.671800
O71	O7	0.542860	0.579340	0.438140
O81	O8	0.909200	0.880900	0.472300
O91	O9	0.848000	0.783300	0.416100
O101	O10	0.143900	0.023750	0.095450
O111	O11	0.435200	0.909300	0.406500
O121	O12	0.626200	0.964800	0.328200
O131	O13	0.877800	0.561860	0.579340
O141	O14	0.209900	0.527700	0.880900
O151	O15	0.368700	0.583900	0.783300
O161	O16	0.832350	0.904550	0.023750
O171	O17	0.655500	0.593500	0.909300
O181	O18	0.409000	0.671800	0.964800
O191	O19	0.019000	0.438140	0.420660
O201	O20	0.618500	0.472300	0.119100
O211	O21	0.735900	0.416100	0.216700
O221	O22	0.760650	0.095450	0.976250
O231	O23	0.158300	0.406500	0.090700
O241	O24	0.045600	0.328200	0.035200
