data_TACPIX_clean_PM
_symmetry_space_group_name_H-M	'P1'
_cell_length_a	19.042700
_cell_length_b	19.042700
_cell_length_c	5.810800
_cell_angle_alpha	90.000000
_cell_angle_beta	90.000000
_cell_angle_gamma	90.000000
_symmetry_Int_Tables_number 1

loop_
_symmetry_equiv_pos_as_xyz
'x,y,z'

loop_
_atom_site_label
_atom_site_type_symbol
_atom_site_fract_x
_atom_site_fract_y
_atom_site_fract_z
O11	O1	0.315500	0.756200	0.060000
O21	O2	0.410500	0.769300	0.262000
C11	C1	0.381000	0.759200	0.089000
O31	O3	0.375500	0.734100	0.682600
H11	H1	0.397000	0.732000	0.565000
C21	C2	0.475500	0.686300	0.888000
H21	H2	0.504900	0.694700	0.023500
O41	O4	0.439700	0.626100	0.925200
O51	O5	0.570300	0.621000	0.709300
C31	C3	0.569900	0.743700	0.627000
H31	H3	0.539800	0.784200	0.592800
O61	O6	0.613600	0.728800	0.424400
H41	H4	0.611000	0.748000	0.303000
C41	C4	0.617200	0.762000	0.832000
O71	O7	0.682200	0.753400	0.805900
O81	O8	0.585600	0.786400	0.009000
C51	C5	0.425700	0.749600	0.864000
H51	H5	0.452100	0.792500	0.828200
C61	C6	0.524600	0.682000	0.678000
H61	H6	0.495400	0.673300	0.542300
O91	O9	0.684500	0.243800	0.560000
O101	O10	0.589500	0.230700	0.762000
C71	C7	0.619000	0.240800	0.589000
O111	O11	0.624500	0.265900	0.182600
H71	H7	0.603000	0.268000	0.065000
C81	C8	0.524500	0.313700	0.388000
H81	H8	0.495100	0.305300	0.523500
O121	O12	0.560300	0.373900	0.425200
O131	O13	0.429700	0.379000	0.209300
C91	C9	0.430100	0.256300	0.127000
H91	H9	0.460200	0.215800	0.092800
O141	O14	0.386400	0.271200	0.924400
H101	H10	0.389000	0.252000	0.803000
C101	C10	0.382800	0.238000	0.332000
O151	O15	0.317800	0.246600	0.305900
O161	O16	0.414400	0.213600	0.509000
C111	C11	0.574300	0.250400	0.364000
H111	H11	0.547900	0.207500	0.328200
C121	C12	0.475400	0.318000	0.178000
H121	H12	0.504600	0.326700	0.042300
O171	O17	0.743800	0.815500	0.310000
O181	O18	0.730700	0.910500	0.512000
C131	C13	0.740800	0.881000	0.339000
O191	O19	0.765900	0.875500	0.932600
H131	H13	0.768000	0.897000	0.815000
C141	C14	0.813700	0.975500	0.138000
H141	H14	0.805300	0.004900	0.273500
O201	O20	0.873900	0.939700	0.175200
O211	O21	0.879000	0.070300	0.959300
C151	C15	0.756300	0.069900	0.877000
H151	H15	0.715800	0.039800	0.842800
O221	O22	0.771200	0.113600	0.674400
H161	H16	0.752000	0.111000	0.553000
C161	C16	0.738000	0.117200	0.082000
O231	O23	0.746600	0.182200	0.055900
O241	O24	0.713600	0.085600	0.259000
C171	C17	0.750400	0.925700	0.114000
H171	H17	0.707500	0.952100	0.078200
C181	C18	0.818000	0.024600	0.928000
H181	H18	0.826700	0.995400	0.792300
O251	O25	0.256200	0.184500	0.810000
O261	O26	0.269300	0.089500	0.012000
C191	C19	0.259200	0.119000	0.839000
O271	O27	0.234100	0.124500	0.432600
H191	H19	0.232000	0.103000	0.315000
C201	C20	0.186300	0.024500	0.638000
H201	H20	0.194700	0.995100	0.773500
O281	O28	0.126100	0.060300	0.675200
O291	O29	0.121000	0.929700	0.459300
C211	C21	0.243700	0.930100	0.377000
H211	H21	0.284200	0.960200	0.342800
O301	O30	0.228800	0.886400	0.174400
H221	H22	0.248000	0.889000	0.053000
C221	C22	0.262000	0.882800	0.582000
O311	O31	0.253400	0.817800	0.555900
O321	O32	0.286400	0.914400	0.759000
C231	C23	0.249600	0.074300	0.614000
H231	H23	0.292500	0.047900	0.578200
C241	C24	0.182000	0.975400	0.428000
H241	H24	0.173300	0.004600	0.292300
O331	O33	0.184500	0.256200	0.190000
O341	O34	0.089500	0.269300	0.988000
C251	C25	0.119000	0.259200	0.161000
O351	O35	0.124500	0.234100	0.567400
H251	H25	0.103000	0.232000	0.685000
C261	C26	0.024500	0.186300	0.362000
H261	H26	0.995100	0.194700	0.226500
O361	O36	0.060300	0.126100	0.324800
O371	O37	0.929700	0.121000	0.540700
C271	C27	0.930100	0.243700	0.623000
H271	H27	0.960200	0.284200	0.657200
O381	O38	0.886400	0.228800	0.825600
H281	H28	0.889000	0.248000	0.947000
C281	C28	0.882800	0.262000	0.418000
O391	O39	0.817800	0.253400	0.444100
O401	O40	0.914400	0.286400	0.241000
C291	C29	0.074300	0.249600	0.386000
H291	H29	0.047900	0.292500	0.421800
C301	C30	0.975400	0.182000	0.572000
H301	H30	0.004600	0.173300	0.707700
O411	O41	0.815500	0.743800	0.690000
O421	O42	0.910500	0.730700	0.488000
C311	C31	0.881000	0.740800	0.661000
O431	O43	0.875500	0.765900	0.067400
H311	H31	0.897000	0.768000	0.185000
C321	C32	0.975500	0.813700	0.862000
H321	H32	0.004900	0.805300	0.726500
O441	O44	0.939700	0.873900	0.824800
O451	O45	0.070300	0.879000	0.040700
C331	C33	0.069900	0.756300	0.123000
H331	H33	0.039800	0.715800	0.157200
O461	O46	0.113600	0.771200	0.325600
H341	H34	0.111000	0.752000	0.447000
C341	C34	0.117200	0.738000	0.918000
O471	O47	0.182200	0.746600	0.944100
O481	O48	0.085600	0.713600	0.741000
C351	C35	0.925700	0.750400	0.886000
H351	H35	0.952100	0.707500	0.921800
C361	C36	0.024600	0.818000	0.072000
H361	H36	0.995400	0.826700	0.207700
O491	O49	0.756200	0.315500	0.940000
O501	O50	0.769300	0.410500	0.738000
C371	C37	0.759200	0.381000	0.911000
O511	O51	0.734100	0.375500	0.317400
H371	H37	0.732000	0.397000	0.435000
C381	C38	0.686300	0.475500	0.112000
H381	H38	0.694700	0.504900	0.976500
O521	O52	0.626100	0.439700	0.074800
O531	O53	0.621000	0.570300	0.290700
C391	C39	0.743700	0.569900	0.373000
H391	H39	0.784200	0.539800	0.407200
O541	O54	0.728800	0.613600	0.575600
H401	H40	0.748000	0.611000	0.697000
C401	C40	0.762000	0.617200	0.168000
O551	O55	0.753400	0.682200	0.194100
O561	O56	0.786400	0.585600	0.991000
C411	C41	0.749600	0.425700	0.136000
H411	H41	0.792500	0.452100	0.171800
C421	C42	0.682000	0.524600	0.322000
H421	H42	0.673300	0.495400	0.457700
O571	O57	0.243800	0.684500	0.440000
O581	O58	0.230700	0.589500	0.238000
C431	C43	0.240800	0.619000	0.411000
O591	O59	0.265900	0.624500	0.817400
H431	H43	0.268000	0.603000	0.935000
C441	C44	0.313700	0.524500	0.612000
H441	H44	0.305300	0.495100	0.476500
O601	O60	0.373900	0.560300	0.574800
O611	O61	0.379000	0.429700	0.790700
C451	C45	0.256300	0.430100	0.873000
H451	H45	0.215800	0.460200	0.907200
O621	O62	0.271200	0.386400	0.075600
H461	H46	0.252000	0.389000	0.197000
C461	C46	0.238000	0.382800	0.668000
O631	O63	0.246600	0.317800	0.694100
O641	O64	0.213600	0.414400	0.491000
C471	C47	0.250400	0.574300	0.636000
H471	H47	0.207500	0.547900	0.671800
C481	C48	0.318000	0.475400	0.822000
H481	H48	0.326700	0.504600	0.957700
Zn11	Zn1	0.270420	0.729580	0.750000
Zn21	Zn2	0.729580	0.270420	0.250000
Zn31	Zn3	0.770420	0.770420	0.000000
Zn41	Zn4	0.229580	0.229580	0.500000
Zn51	Zn5	0.222520	0.777480	0.250000
Zn61	Zn6	0.777480	0.222520	0.750000
Zn71	Zn7	0.722520	0.722520	0.500000
Zn81	Zn8	0.277480	0.277480	0.000000
