data_TACWOM_clean_PM
_symmetry_space_group_name_H-M	'P1'
_cell_length_a	15.770900
_cell_length_b	23.107000
_cell_length_c	18.326900
_cell_angle_alpha	90.000000
_cell_angle_beta	106.271000
_cell_angle_gamma	90.000000
_symmetry_Int_Tables_number 1

loop_
_symmetry_equiv_pos_as_xyz
'x,y,z'

loop_
_atom_site_label
_atom_site_type_symbol
_atom_site_fract_x
_atom_site_fract_y
_atom_site_fract_z
Ni11	Ni1	0.436890	0.706700	0.192770
Ni21	Ni2	0.938060	0.573460	0.251690
N11	N1	0.471300	0.647370	0.283200
N21	N2	0.453900	0.571200	0.349700
N31	N3	0.041500	0.518300	0.305800
N41	N4	0.176500	0.483170	0.352100
N51	N5	0.445700	0.426980	0.540900
N61	N6	0.836200	0.622900	0.183900
N71	N7	0.757700	0.666500	0.079200
N81	N8	0.888300	0.732750	0.757000
N91	N9	0.813300	0.699940	0.833500
N101	N10	0.480000	0.859230	0.829000
N111	N11	0.559300	0.784940	0.888500
C11	C1	0.450900	0.497400	0.444000
H11	H1	0.511200	0.502100	0.465800
C21	C2	0.407400	0.528800	0.380900
C31	C3	0.317300	0.520700	0.347100
H21	H2	0.289100	0.539900	0.302300
C41	C4	0.270800	0.484600	0.380100
C51	C5	0.312000	0.452000	0.443900
H31	H3	0.279900	0.426800	0.465400
C61	C6	0.402600	0.458300	0.474700
C71	C7	0.541700	0.586300	0.374200
H41	H4	0.585700	0.568300	0.412000
C81	C8	0.551100	0.632600	0.332000
H51	H5	0.604100	0.651500	0.335600
C91	C9	0.415700	0.610400	0.295600
H61	H6	0.355800	0.610700	0.270000
C101	C10	0.125700	0.529500	0.319100
H71	H7	0.148200	0.564400	0.307500
C111	C11	0.037500	0.463100	0.332900
H81	H8	0.985700	0.443700	0.332500
C121	C12	0.118600	0.441400	0.359900
H91	H9	0.133000	0.404700	0.380200
C131	C13	0.524200	0.440800	0.593300
H101	H10	0.560300	0.472400	0.592100
C141	C14	0.419500	0.375600	0.563500
H111	H11	0.368800	0.355900	0.537000
N121	N12	0.473700	0.357300	0.626700
C151	C15	0.538300	0.398500	0.647500
H121	H12	0.584100	0.391700	0.701000
C161	C16	0.731400	0.687500	0.003800
C171	C17	0.783200	0.678100	0.955200
H131	H13	0.834300	0.655900	0.970600
C181	C18	0.757300	0.702400	0.882800
C191	C19	0.679700	0.734300	0.857600
H141	H14	0.660300	0.747500	0.807700
C201	C20	0.632300	0.745800	0.909500
C211	C21	0.656300	0.721900	0.981800
H151	H15	0.622500	0.728800	0.015100
C221	C22	0.824400	0.629700	0.110800
H161	H16	0.858300	0.611300	0.083600
C231	C23	0.729500	0.686700	0.139200
H171	H17	0.685800	0.714100	0.137200
C241	C24	0.778200	0.658600	0.201800
H181	H18	0.772200	0.663400	0.250500
C251	C25	0.874700	0.658400	0.831000
H191	H19	0.883800	0.623200	0.856600
C261	C26	0.919100	0.679300	0.783600
H201	H20	0.964600	0.660000	0.770800
C271	C27	0.825300	0.742500	0.788700
H211	H21	0.791800	0.776300	0.780700
C281	C28	0.545200	0.823200	0.829600
H221	H22	0.577500	0.823900	0.794200
C291	C29	0.451900	0.843400	0.891200
H231	H23	0.406000	0.861100	0.905500
C301	C30	0.499700	0.799500	0.927600
H241	H24	0.493900	0.781800	0.971500
Ni31	Ni3	0.936890	0.206700	0.192770
Ni41	Ni4	0.438060	0.073460	0.251690
N131	N13	0.971300	0.147370	0.283200
N141	N14	0.953900	0.071200	0.349700
N151	N15	0.541500	0.018300	0.305800
N161	N16	0.676500	0.983170	0.352100
N171	N17	0.945700	0.926980	0.540900
N181	N18	0.336200	0.122900	0.183900
N191	N19	0.257700	0.166500	0.079200
N201	N20	0.388300	0.232750	0.757000
N211	N21	0.313300	0.199940	0.833500
N221	N22	0.980000	0.359230	0.829000
N231	N23	0.059300	0.284940	0.888500
C311	C31	0.950900	0.997400	0.444000
H251	H25	0.011200	0.002100	0.465800
C321	C32	0.907400	0.028800	0.380900
C331	C33	0.817300	0.020700	0.347100
H261	H26	0.789100	0.039900	0.302300
C341	C34	0.770800	0.984600	0.380100
C351	C35	0.812000	0.952000	0.443900
H271	H27	0.779900	0.926800	0.465400
C361	C36	0.902600	0.958300	0.474700
C371	C37	0.041700	0.086300	0.374200
H281	H28	0.085700	0.068300	0.412000
C381	C38	0.051100	0.132600	0.332000
H291	H29	0.104100	0.151500	0.335600
C391	C39	0.915700	0.110400	0.295600
H301	H30	0.855800	0.110700	0.270000
C401	C40	0.625700	0.029500	0.319100
H311	H31	0.648200	0.064400	0.307500
C411	C41	0.537500	0.963100	0.332900
H321	H32	0.485700	0.943700	0.332500
C421	C42	0.618600	0.941400	0.359900
H331	H33	0.633000	0.904700	0.380200
C431	C43	0.024200	0.940800	0.593300
H341	H34	0.060300	0.972400	0.592100
C441	C44	0.919500	0.875600	0.563500
H351	H35	0.868800	0.855900	0.537000
N241	N24	0.973700	0.857300	0.626700
C451	C45	0.038300	0.898500	0.647500
H361	H36	0.084100	0.891700	0.701000
C461	C46	0.231400	0.187500	0.003800
C471	C47	0.283200	0.178100	0.955200
H371	H37	0.334300	0.155900	0.970600
C481	C48	0.257300	0.202400	0.882800
C491	C49	0.179700	0.234300	0.857600
H381	H38	0.160300	0.247500	0.807700
C501	C50	0.132300	0.245800	0.909500
C511	C51	0.156300	0.221900	0.981800
H391	H39	0.122500	0.228800	0.015100
C521	C52	0.324400	0.129700	0.110800
H401	H40	0.358300	0.111300	0.083600
C531	C53	0.229500	0.186700	0.139200
H411	H41	0.185800	0.214100	0.137200
C541	C54	0.278200	0.158600	0.201800
H421	H42	0.272200	0.163400	0.250500
C551	C55	0.374700	0.158400	0.831000
H431	H43	0.383800	0.123200	0.856600
C561	C56	0.419100	0.179300	0.783600
H441	H44	0.464600	0.160000	0.770800
C571	C57	0.325300	0.242500	0.788700
H451	H45	0.291800	0.276300	0.780700
C581	C58	0.045200	0.323200	0.829600
H461	H46	0.077500	0.323900	0.794200
C591	C59	0.951900	0.343400	0.891200
H471	H47	0.906000	0.361100	0.905500
C601	C60	0.999700	0.299500	0.927600
H481	H48	0.993900	0.281800	0.971500
Ni51	Ni5	0.436890	0.293300	0.692770
Ni61	Ni6	0.938060	0.426540	0.751690
N251	N25	0.471300	0.352630	0.783200
N261	N26	0.453900	0.428800	0.849700
N271	N27	0.041500	0.481700	0.805800
N281	N28	0.176500	0.516830	0.852100
N291	N29	0.445700	0.573020	0.040900
N301	N30	0.836200	0.377100	0.683900
N311	N31	0.757700	0.333500	0.579200
N321	N32	0.888300	0.267250	0.257000
N331	N33	0.813300	0.300060	0.333500
N341	N34	0.480000	0.140770	0.329000
N351	N35	0.559300	0.215060	0.388500
C611	C61	0.450900	0.502600	0.944000
H491	H49	0.511200	0.497900	0.965800
C621	C62	0.407400	0.471200	0.880900
C631	C63	0.317300	0.479300	0.847100
H501	H50	0.289100	0.460100	0.802300
C641	C64	0.270800	0.515400	0.880100
C651	C65	0.312000	0.548000	0.943900
H511	H51	0.279900	0.573200	0.965400
C661	C66	0.402600	0.541700	0.974700
C671	C67	0.541700	0.413700	0.874200
H521	H52	0.585700	0.431700	0.912000
C681	C68	0.551100	0.367400	0.832000
H531	H53	0.604100	0.348500	0.835600
C691	C69	0.415700	0.389600	0.795600
H541	H54	0.355800	0.389300	0.770000
C701	C70	0.125700	0.470500	0.819100
H551	H55	0.148200	0.435600	0.807500
C711	C71	0.037500	0.536900	0.832900
H561	H56	0.985700	0.556300	0.832500
C721	C72	0.118600	0.558600	0.859900
H571	H57	0.133000	0.595300	0.880200
C731	C73	0.524200	0.559200	0.093300
H581	H58	0.560300	0.527600	0.092100
C741	C74	0.419500	0.624400	0.063500
H591	H59	0.368800	0.644100	0.037000
N361	N36	0.473700	0.642700	0.126700
C751	C75	0.538300	0.601500	0.147500
H601	H60	0.584100	0.608300	0.201000
C761	C76	0.731400	0.312500	0.503800
C771	C77	0.783200	0.321900	0.455200
H611	H61	0.834300	0.344100	0.470600
C781	C78	0.757300	0.297600	0.382800
C791	C79	0.679700	0.265700	0.357600
H621	H62	0.660300	0.252500	0.307700
C801	C80	0.632300	0.254200	0.409500
C811	C81	0.656300	0.278100	0.481800
H631	H63	0.622500	0.271200	0.515100
C821	C82	0.824400	0.370300	0.610800
H641	H64	0.858300	0.388700	0.583600
C831	C83	0.729500	0.313300	0.639200
H651	H65	0.685800	0.285900	0.637200
C841	C84	0.778200	0.341400	0.701800
H661	H66	0.772200	0.336600	0.750500
C851	C85	0.874700	0.341600	0.331000
H671	H67	0.883800	0.376800	0.356600
C861	C86	0.919100	0.320700	0.283600
H681	H68	0.964600	0.340000	0.270800
C871	C87	0.825300	0.257500	0.288700
H691	H69	0.791800	0.223700	0.280700
C881	C88	0.545200	0.176800	0.329600
H701	H70	0.577500	0.176100	0.294200
C891	C89	0.451900	0.156600	0.391200
H711	H71	0.406000	0.138900	0.405500
C901	C90	0.499700	0.200500	0.427600
H721	H72	0.493900	0.218200	0.471500
Ni71	Ni7	0.936890	0.793300	0.692770
Ni81	Ni8	0.438060	0.926540	0.751690
N371	N37	0.971300	0.852630	0.783200
N381	N38	0.953900	0.928800	0.849700
N391	N39	0.541500	0.981700	0.805800
N401	N40	0.676500	0.016830	0.852100
N411	N41	0.945700	0.073020	0.040900
N421	N42	0.336200	0.877100	0.683900
N431	N43	0.257700	0.833500	0.579200
N441	N44	0.388300	0.767250	0.257000
N451	N45	0.313300	0.800060	0.333500
N461	N46	0.980000	0.640770	0.329000
N471	N47	0.059300	0.715060	0.388500
C911	C91	0.950900	0.002600	0.944000
H731	H73	0.011200	0.997900	0.965800
C921	C92	0.907400	0.971200	0.880900
C931	C93	0.817300	0.979300	0.847100
H741	H74	0.789100	0.960100	0.802300
C941	C94	0.770800	0.015400	0.880100
C951	C95	0.812000	0.048000	0.943900
H751	H75	0.779900	0.073200	0.965400
C961	C96	0.902600	0.041700	0.974700
C971	C97	0.041700	0.913700	0.874200
H761	H76	0.085700	0.931700	0.912000
C981	C98	0.051100	0.867400	0.832000
H771	H77	0.104100	0.848500	0.835600
C991	C99	0.915700	0.889600	0.795600
H781	H78	0.855800	0.889300	0.770000
C1001	C100	0.625700	0.970500	0.819100
H791	H79	0.648200	0.935600	0.807500
C1011	C101	0.537500	0.036900	0.832900
H801	H80	0.485700	0.056300	0.832500
C1021	C102	0.618600	0.058600	0.859900
H811	H81	0.633000	0.095300	0.880200
C1031	C103	0.024200	0.059200	0.093300
H821	H82	0.060300	0.027600	0.092100
C1041	C104	0.919500	0.124400	0.063500
H831	H83	0.868800	0.144100	0.037000
N481	N48	0.973700	0.142700	0.126700
C1051	C105	0.038300	0.101500	0.147500
H841	H84	0.084100	0.108300	0.201000
C1061	C106	0.231400	0.812500	0.503800
C1071	C107	0.283200	0.821900	0.455200
H851	H85	0.334300	0.844100	0.470600
C1081	C108	0.257300	0.797600	0.382800
C1091	C109	0.179700	0.765700	0.357600
H861	H86	0.160300	0.752500	0.307700
C1101	C110	0.132300	0.754200	0.409500
C1111	C111	0.156300	0.778100	0.481800
H871	H87	0.122500	0.771200	0.515100
C1121	C112	0.324400	0.870300	0.610800
H881	H88	0.358300	0.888700	0.583600
C1131	C113	0.229500	0.813300	0.639200
H891	H89	0.185800	0.785900	0.637200
C1141	C114	0.278200	0.841400	0.701800
H901	H90	0.272200	0.836600	0.750500
C1151	C115	0.374700	0.841600	0.331000
H911	H91	0.383800	0.876800	0.356600
C1161	C116	0.419100	0.820700	0.283600
H921	H92	0.464600	0.840000	0.270800
C1171	C117	0.325300	0.757500	0.288700
H931	H93	0.291800	0.723700	0.280700
C1181	C118	0.045200	0.676800	0.329600
H941	H94	0.077500	0.676100	0.294200
C1191	C119	0.951900	0.656600	0.391200
H951	H95	0.906000	0.638900	0.405500
C1201	C120	0.999700	0.700500	0.427600
H961	H96	0.993900	0.718200	0.471500
