data_TACYAX_clean_PM
_symmetry_space_group_name_H-M	'P1'
_cell_length_a	19.610000
_cell_length_b	9.409000
_cell_length_c	20.320000
_cell_angle_alpha	90.000000
_cell_angle_beta	125.310000
_cell_angle_gamma	90.000000
_symmetry_Int_Tables_number 1

loop_
_symmetry_equiv_pos_as_xyz
'x,y,z'

loop_
_atom_site_label
_atom_site_type_symbol
_atom_site_fract_x
_atom_site_fract_y
_atom_site_fract_z
Cu11	Cu1	0.249500	0.999100	0.066700
Cu21	Cu2	0.751700	0.744100	0.427100
C11	C1	0.976200	0.060800	0.888300
C21	C2	0.067300	0.051100	0.920200
C31	C3	0.119700	0.994800	0.005200
C41	C4	0.146100	0.958300	0.072700
C51	C5	0.151400	0.916100	0.145200
C61	C6	0.938000	0.914500	0.873700
C71	C7	0.380200	0.995600	0.145000
C81	C8	0.357000	0.918000	0.173100
C91	C9	0.354300	0.814200	0.226000
C101	C10	0.441400	0.762400	0.294600
C111	C11	0.476400	0.662600	0.262900
C121	C12	0.570000	0.627800	0.327300
C131	C13	0.624100	0.750500	0.338400
C141	C14	0.648100	0.865800	0.333800
C151	C15	0.654300	0.011000	0.314900
C161	C16	0.569100	0.077500	0.260000
C171	C17	0.520600	0.033100	0.172600
C181	C18	0.429800	0.083700	0.123300
C191	C19	0.882800	0.781500	0.497700
C201	C20	0.856400	0.820000	0.431500
C211	C21	0.851900	0.871500	0.359300
C221	C22	0.937800	0.879300	0.374900
C231	C23	0.973900	0.733200	0.382000
C241	C24	0.932800	0.735800	0.583500
S11	S1	0.739000	0.883900	0.576800
O11	O1	0.744300	0.766500	0.534100
O21	O2	0.796900	0.878500	0.663100
O31	O3	0.731100	0.022400	0.541100
C251	C25	0.636500	0.855200	0.557700
F11	F1	0.634000	0.729900	0.583100
F21	F2	0.624700	0.950500	0.598300
F31	F3	0.576800	0.870200	0.481500
Cu31	Cu3	0.749500	0.499100	0.066700
Cu41	Cu4	0.251700	0.244100	0.427100
C261	C26	0.476200	0.560800	0.888300
C271	C27	0.567300	0.551100	0.920200
C281	C28	0.619700	0.494800	0.005200
C291	C29	0.646100	0.458300	0.072700
C301	C30	0.651400	0.416100	0.145200
C311	C31	0.438000	0.414500	0.873700
C321	C32	0.880200	0.495600	0.145000
C331	C33	0.857000	0.418000	0.173100
C341	C34	0.854300	0.314200	0.226000
C351	C35	0.941400	0.262400	0.294600
C361	C36	0.976400	0.162600	0.262900
C371	C37	0.070000	0.127800	0.327300
C381	C38	0.124100	0.250500	0.338400
C391	C39	0.148100	0.365800	0.333800
C401	C40	0.154300	0.511000	0.314900
C411	C41	0.069100	0.577500	0.260000
C421	C42	0.020600	0.533100	0.172600
C431	C43	0.929800	0.583700	0.123300
C441	C44	0.382800	0.281500	0.497700
C451	C45	0.356400	0.320000	0.431500
C461	C46	0.351900	0.371500	0.359300
C471	C47	0.437800	0.379300	0.374900
C481	C48	0.473900	0.233200	0.382000
C491	C49	0.432800	0.235800	0.583500
S21	S2	0.239000	0.383900	0.576800
O41	O4	0.244300	0.266500	0.534100
O51	O5	0.296900	0.378500	0.663100
O61	O6	0.231100	0.522400	0.541100
C501	C50	0.136500	0.355200	0.557700
F41	F4	0.134000	0.229900	0.583100
F51	F5	0.124700	0.450500	0.598300
F61	F6	0.076800	0.370200	0.481500
Cu51	Cu5	0.750500	0.999100	0.933300
Cu61	Cu6	0.248300	0.744100	0.572900
C511	C51	0.023800	0.060800	0.111700
C521	C52	0.932700	0.051100	0.079800
C531	C53	0.880300	0.994800	0.994800
C541	C54	0.853900	0.958300	0.927300
C551	C55	0.848600	0.916100	0.854800
C561	C56	0.062000	0.914500	0.126300
C571	C57	0.619800	0.995600	0.855000
C581	C58	0.643000	0.918000	0.826900
C591	C59	0.645700	0.814200	0.774000
C601	C60	0.558600	0.762400	0.705400
C611	C61	0.523600	0.662600	0.737100
C621	C62	0.430000	0.627800	0.672700
C631	C63	0.375900	0.750500	0.661600
C641	C64	0.351900	0.865800	0.666200
C651	C65	0.345700	0.011000	0.685100
C661	C66	0.430900	0.077500	0.740000
C671	C67	0.479400	0.033100	0.827400
C681	C68	0.570200	0.083700	0.876700
C691	C69	0.117200	0.781500	0.502300
C701	C70	0.143600	0.820000	0.568500
C711	C71	0.148100	0.871500	0.640700
C721	C72	0.062200	0.879300	0.625100
C731	C73	0.026100	0.733200	0.618000
C741	C74	0.067200	0.735800	0.416500
S31	S3	0.261000	0.883900	0.423200
O71	O7	0.255700	0.766500	0.465900
O81	O8	0.203100	0.878500	0.336900
O91	O9	0.268900	0.022400	0.458900
C751	C75	0.363500	0.855200	0.442300
F71	F7	0.366000	0.729900	0.416900
F81	F8	0.375300	0.950500	0.401700
F91	F9	0.423200	0.870200	0.518500
Cu71	Cu7	0.250500	0.499100	0.933300
Cu81	Cu8	0.748300	0.244100	0.572900
C761	C76	0.523800	0.560800	0.111700
C771	C77	0.432700	0.551100	0.079800
C781	C78	0.380300	0.494800	0.994800
C791	C79	0.353900	0.458300	0.927300
C801	C80	0.348600	0.416100	0.854800
C811	C81	0.562000	0.414500	0.126300
C821	C82	0.119800	0.495600	0.855000
C831	C83	0.143000	0.418000	0.826900
C841	C84	0.145700	0.314200	0.774000
C851	C85	0.058600	0.262400	0.705400
C861	C86	0.023600	0.162600	0.737100
C871	C87	0.930000	0.127800	0.672700
C881	C88	0.875900	0.250500	0.661600
C891	C89	0.851900	0.365800	0.666200
C901	C90	0.845700	0.511000	0.685100
C911	C91	0.930900	0.577500	0.740000
C921	C92	0.979400	0.533100	0.827400
C931	C93	0.070200	0.583700	0.876700
C941	C94	0.617200	0.281500	0.502300
C951	C95	0.643600	0.320000	0.568500
C961	C96	0.648100	0.371500	0.640700
C971	C97	0.562200	0.379300	0.625100
C981	C98	0.526100	0.233200	0.618000
C991	C99	0.567200	0.235800	0.416500
S41	S4	0.761000	0.383900	0.423200
O101	O10	0.755700	0.266500	0.465900
O111	O11	0.703100	0.378500	0.336900
O121	O12	0.768900	0.522400	0.458900
C1001	C100	0.863500	0.355200	0.442300
F101	F10	0.866000	0.229900	0.416900
F111	F11	0.875300	0.450500	0.401700
F121	F12	0.923200	0.370200	0.518500
