data_TADCAE_clean_PM
_symmetry_space_group_name_H-M	'P1'
_cell_length_a	14.471100
_cell_length_b	14.616100
_cell_length_c	17.874500
_cell_angle_alpha	90.000000
_cell_angle_beta	90.238000
_cell_angle_gamma	90.000000
_symmetry_Int_Tables_number 1

loop_
_symmetry_equiv_pos_as_xyz
'x,y,z'

loop_
_atom_site_label
_atom_site_type_symbol
_atom_site_fract_x
_atom_site_fract_y
_atom_site_fract_z
Zn11	Zn1	0.157210	0.598570	0.968960
Zn21	Zn2	0.612880	0.845960	0.685310
Zn31	Zn3	0.648350	0.892770	0.968620
Zn41	Zn4	0.888430	0.365930	0.321890
Zn51	Zn5	0.842790	0.098570	0.531040
Zn61	Zn6	0.387120	0.345960	0.814690
Zn71	Zn7	0.351650	0.392770	0.531380
Zn81	Zn8	0.111570	0.865930	0.178110
Zn91	Zn9	0.842790	0.401430	0.031040
Zn101	Zn10	0.387120	0.154040	0.314690
Zn111	Zn11	0.351650	0.107230	0.031380
Zn121	Zn12	0.111570	0.634070	0.678110
Zn131	Zn13	0.157210	0.901430	0.468960
Zn141	Zn14	0.612880	0.654040	0.185310
Zn151	Zn15	0.648350	0.607230	0.468620
Zn161	Zn16	0.888430	0.134070	0.821890
H11	H1	0.074300	0.256900	0.104900
H21	H2	0.375200	0.774500	0.870100
H31	H3	0.718200	0.252900	0.851700
H41	H4	0.656000	0.393200	0.827400
H51	H5	0.878800	0.450000	0.706100
H61	H6	0.931400	0.306600	0.730200
H71	H7	0.579900	0.686000	0.801600
H81	H8	0.632500	0.543600	0.829600
H91	H9	0.795600	0.557100	0.653300
H101	H10	0.736500	0.697900	0.629300
H111	H11	0.925700	0.756900	0.395100
H121	H12	0.624800	0.274500	0.629900
H131	H13	0.281800	0.752900	0.648300
H141	H14	0.344000	0.893200	0.672600
H151	H15	0.121200	0.950000	0.793900
H161	H16	0.068600	0.806600	0.769800
H171	H17	0.420100	0.186000	0.698400
H181	H18	0.367500	0.043600	0.670400
H191	H19	0.204400	0.057100	0.846700
H201	H20	0.263500	0.197900	0.870700
H211	H21	0.925700	0.743100	0.895100
H221	H22	0.624800	0.225500	0.129900
H231	H23	0.281800	0.747100	0.148300
H241	H24	0.344000	0.606800	0.172600
H251	H25	0.121200	0.550000	0.293900
H261	H26	0.068600	0.693400	0.269800
H271	H27	0.420100	0.314000	0.198400
H281	H28	0.367500	0.456400	0.170400
H291	H29	0.204400	0.442900	0.346700
H301	H30	0.263500	0.302100	0.370700
H311	H31	0.074300	0.243100	0.604900
H321	H32	0.375200	0.725500	0.370100
H331	H33	0.718200	0.247100	0.351700
H341	H34	0.656000	0.106800	0.327400
H351	H35	0.878800	0.050000	0.206100
H361	H36	0.931400	0.193400	0.230200
H371	H37	0.579900	0.814000	0.301600
H381	H38	0.632500	0.956400	0.329600
H391	H39	0.795600	0.942900	0.153300
H401	H40	0.736500	0.802100	0.129300
C11	C1	0.031800	0.567730	0.093140
C21	C2	0.071910	0.474040	0.074580
C31	C3	0.046310	0.392140	0.108110
C41	C4	0.968400	0.384500	0.162560
C51	C5	0.089700	0.312720	0.083230
C61	C6	0.154800	0.314830	0.027550
C71	C7	0.200700	0.226110	0.005740
C81	C8	0.176500	0.399480	0.995680
C91	C9	0.245060	0.417530	0.933460
C101	C10	0.480500	0.067180	0.910280
C111	C11	0.425630	0.979940	0.923060
C121	C12	0.436630	0.897980	0.884610
C131	C13	0.519200	0.877980	0.835750
C141	C14	0.372000	0.828630	0.897270
C151	C15	0.302720	0.840140	0.950440
C161	C16	0.227600	0.769140	0.958400
C171	C17	0.302400	0.920570	0.991890
C181	C18	0.243120	0.940070	0.059800
C191	C19	0.751100	0.293100	0.821500
C201	C20	0.713100	0.377800	0.807400
C211	C21	0.760600	0.440200	0.763200
C221	C22	0.843700	0.411000	0.735600
C231	C23	0.875600	0.324600	0.751300
C241	C24	0.625100	0.660500	0.771300
C251	C25	0.656900	0.574200	0.788600
C261	C26	0.723600	0.532800	0.746750
C271	C27	0.752000	0.581800	0.685600
C281	C28	0.716100	0.667300	0.671700
C291	C29	0.968200	0.067730	0.406860
C301	C30	0.928090	0.974040	0.425420
C311	C31	0.953690	0.892140	0.391890
C321	C32	0.031600	0.884500	0.337440
C331	C33	0.910300	0.812720	0.416770
C341	C34	0.845200	0.814830	0.472450
C351	C35	0.799300	0.726110	0.494260
C361	C36	0.823500	0.899480	0.504320
C371	C37	0.754940	0.917530	0.566540
C381	C38	0.519500	0.567180	0.589720
C391	C39	0.574370	0.479940	0.576940
C401	C40	0.563370	0.397980	0.615390
C411	C41	0.480800	0.377980	0.664250
C421	C42	0.628000	0.328630	0.602730
C431	C43	0.697280	0.340140	0.549560
C441	C44	0.772400	0.269140	0.541600
C451	C45	0.697600	0.420570	0.508110
C461	C46	0.756880	0.440070	0.440200
C471	C47	0.248900	0.793100	0.678500
C481	C48	0.286900	0.877800	0.692600
C491	C49	0.239400	0.940200	0.736800
C501	C50	0.156300	0.911000	0.764400
C511	C51	0.124400	0.824600	0.748700
C521	C52	0.374900	0.160500	0.728700
C531	C53	0.343100	0.074200	0.711400
C541	C54	0.276400	0.032800	0.753250
C551	C55	0.248000	0.081800	0.814400
C561	C56	0.283900	0.167300	0.828300
C571	C57	0.968200	0.432270	0.906860
C581	C58	0.928090	0.525960	0.925420
C591	C59	0.953690	0.607860	0.891890
C601	C60	0.031600	0.615500	0.837440
C611	C61	0.910300	0.687280	0.916770
C621	C62	0.845200	0.685170	0.972450
C631	C63	0.799300	0.773890	0.994260
C641	C64	0.823500	0.600520	0.004320
C651	C65	0.754940	0.582470	0.066540
C661	C66	0.519500	0.932820	0.089720
C671	C67	0.574370	0.020060	0.076940
C681	C68	0.563370	0.102020	0.115390
C691	C69	0.480800	0.122020	0.164250
C701	C70	0.628000	0.171370	0.102730
C711	C71	0.697280	0.159860	0.049560
C721	C72	0.772400	0.230860	0.041600
C731	C73	0.697600	0.079430	0.008110
C741	C74	0.756880	0.059930	0.940200
C751	C75	0.248900	0.706900	0.178500
C761	C76	0.286900	0.622200	0.192600
C771	C77	0.239400	0.559800	0.236800
C781	C78	0.156300	0.589000	0.264400
C791	C79	0.124400	0.675400	0.248700
C801	C80	0.374900	0.339500	0.228700
C811	C81	0.343100	0.425800	0.211400
C821	C82	0.276400	0.467200	0.253250
C831	C83	0.248000	0.418200	0.314400
C841	C84	0.283900	0.332700	0.328300
C851	C85	0.031800	0.932270	0.593140
C861	C86	0.071910	0.025960	0.574580
C871	C87	0.046310	0.107860	0.608110
C881	C88	0.968400	0.115500	0.662560
C891	C89	0.089700	0.187280	0.583230
C901	C90	0.154800	0.185170	0.527550
C911	C91	0.200700	0.273890	0.505740
C921	C92	0.176500	0.100520	0.495680
C931	C93	0.245060	0.082470	0.433460
C941	C94	0.480500	0.432820	0.410280
C951	C95	0.425630	0.520060	0.423060
C961	C96	0.436630	0.602020	0.384610
C971	C97	0.519200	0.622020	0.335750
C981	C98	0.372000	0.671370	0.397270
C991	C99	0.302720	0.659860	0.450440
C1001	C100	0.227600	0.730860	0.458400
C1011	C101	0.302400	0.579430	0.491890
C1021	C102	0.243120	0.559930	0.559800
C1031	C103	0.751100	0.206900	0.321500
C1041	C104	0.713100	0.122200	0.307400
C1051	C105	0.760600	0.059800	0.263200
C1061	C106	0.843700	0.089000	0.235600
C1071	C107	0.875600	0.175400	0.251300
C1081	C108	0.625100	0.839500	0.271300
C1091	C109	0.656900	0.925800	0.288600
C1101	C110	0.723600	0.967200	0.246750
C1111	C111	0.752000	0.918200	0.185600
C1121	C112	0.716100	0.832700	0.171700
N11	N1	0.134970	0.475630	0.020560
N21	N2	0.361110	0.987960	0.975710
N31	N3	0.831880	0.265060	0.794720
N41	N4	0.654940	0.708970	0.714360
N51	N5	0.865030	0.975630	0.479440
N61	N6	0.638890	0.487960	0.524290
N71	N7	0.168120	0.765060	0.705280
N81	N8	0.345060	0.208970	0.785640
N91	N9	0.865030	0.524370	0.979440
N101	N10	0.638890	0.012040	0.024290
N111	N11	0.168120	0.734940	0.205280
N121	N12	0.345060	0.291030	0.285640
N131	N13	0.134970	0.024370	0.520560
N141	N14	0.361110	0.512040	0.475710
N151	N15	0.831880	0.234940	0.294720
N161	N16	0.654940	0.791030	0.214360
O11	O1	0.975540	0.572670	0.143590
O21	O2	0.061090	0.633330	0.052180
O31	O3	0.888220	0.389470	0.135110
O41	O4	0.985540	0.368480	0.229520
O51	O5	0.156590	0.166770	0.972620
O61	O6	0.283880	0.220510	0.028100
O71	O7	0.281210	0.350330	0.902100
O81	O8	0.259970	0.500620	0.919380
O91	O9	0.459120	0.133660	0.953340
O101	O10	0.539030	0.067220	0.861420
O111	O11	0.507690	0.866370	0.768150
O121	O12	0.595650	0.868840	0.869280
O131	O13	0.147990	0.789870	0.943400
O141	O14	0.255290	0.689250	0.977150
O151	O15	0.244480	0.020480	0.083910
O161	O16	0.199660	0.873460	0.086100
O171	O17	0.024460	0.072670	0.356410
O181	O18	0.938910	0.133330	0.447820
O191	O19	0.111780	0.889470	0.364890
O201	O20	0.014460	0.868480	0.270480
O211	O21	0.843410	0.666770	0.527380
O221	O22	0.716120	0.720510	0.471900
O231	O23	0.718790	0.850330	0.597900
O241	O24	0.740030	0.000620	0.580620
O251	O25	0.540880	0.633660	0.546660
O261	O26	0.460970	0.567220	0.638580
O271	O27	0.492310	0.366370	0.731850
O281	O28	0.404350	0.368840	0.630720
O291	O29	0.852010	0.289870	0.556600
O301	O30	0.744710	0.189250	0.522850
O311	O31	0.755520	0.520480	0.416090
O321	O32	0.800340	0.373460	0.413900
O331	O33	0.024460	0.427330	0.856410
O341	O34	0.938910	0.366670	0.947820
O351	O35	0.111780	0.610530	0.864890
O361	O36	0.014460	0.631520	0.770480
O371	O37	0.843410	0.833230	0.027380
O381	O38	0.716120	0.779490	0.971900
O391	O39	0.718790	0.649670	0.097900
O401	O40	0.740030	0.499380	0.080620
O411	O41	0.540880	0.866340	0.046660
O421	O42	0.460970	0.932780	0.138580
O431	O43	0.492310	0.133630	0.231850
O441	O44	0.404350	0.131160	0.130720
O451	O45	0.852010	0.210130	0.056600
O461	O46	0.744710	0.310750	0.022850
O471	O47	0.755520	0.979520	0.916090
O481	O48	0.800340	0.126540	0.913900
O491	O49	0.975540	0.927330	0.643590
O501	O50	0.061090	0.866670	0.552180
O511	O51	0.888220	0.110530	0.635110
O521	O52	0.985540	0.131520	0.729520
O531	O53	0.156590	0.333230	0.472620
O541	O54	0.283880	0.279490	0.528100
O551	O55	0.281210	0.149670	0.402100
O561	O56	0.259970	0.999380	0.419380
O571	O57	0.459120	0.366340	0.453340
O581	O58	0.539030	0.432780	0.361420
O591	O59	0.507690	0.633630	0.268150
O601	O60	0.595650	0.631160	0.369280
O611	O61	0.147990	0.710130	0.443400
O621	O62	0.255290	0.810750	0.477150
O631	O63	0.244480	0.479520	0.583910
O641	O64	0.199660	0.626540	0.586100
