data_TADYEE_clean_PM
_symmetry_space_group_name_H-M	'P1'
_cell_length_a	15.224600
_cell_length_b	15.224600
_cell_length_c	16.686000
_cell_angle_alpha	106.342000
_cell_angle_beta	106.342000
_cell_angle_gamma	110.907000
_symmetry_Int_Tables_number 1

loop_
_symmetry_equiv_pos_as_xyz
'x,y,z'

loop_
_atom_site_label
_atom_site_type_symbol
_atom_site_fract_x
_atom_site_fract_y
_atom_site_fract_z
Ni11	Ni1	0.000000	0.500000	0.000000
Ni21	Ni2	0.500000	0.000000	0.500000
Ni31	Ni3	0.000000	0.000000	0.500000
Ni41	Ni4	0.000000	0.000000	0.000000
Mo11	Mo1	0.871290	0.128710	0.750000
Mo21	Mo2	0.128710	0.871290	0.250000
H11	H1	0.128300	0.422100	0.901500
H21	H2	0.238500	0.519500	0.965700
H31	H3	0.097100	0.352700	0.018000
H41	H4	0.215200	0.427200	0.081000
H51	H5	0.006100	0.396500	0.189700
H61	H6	0.968800	0.331400	0.084000
H71	H7	0.168600	0.630200	0.955700
H81	H8	0.140400	0.554600	0.855500
H91	H9	0.838400	0.026200	0.404500
H101	H10	0.793900	0.961900	0.298000
H111	H11	0.752400	0.860200	0.411100
H121	H12	0.725900	0.785100	0.310700
H131	H13	0.878100	0.748700	0.528900
H141	H14	0.850200	0.840000	0.545800
H151	H15	0.942500	0.101900	0.327800
H161	H16	0.982600	0.021200	0.334000
H171	H17	0.152600	0.544400	0.264300
H181	H18	0.219900	0.584300	0.214000
H191	H19	0.260200	0.479400	0.323100
H201	H20	0.325500	0.513300	0.269300
H211	H21	0.872500	0.663700	0.397300
H221	H22	0.897600	0.732800	0.344900
H231	H23	0.697300	0.569500	0.280400
H241	H24	0.737300	0.630300	0.225100
H251	H25	0.190400	0.563400	0.072900
H261	H26	0.978000	0.459600	0.836200
H271	H27	0.893700	0.877300	0.332800
H281	H28	0.977500	0.152700	0.483400
H291	H29	0.408600	0.654600	0.364000
H301	H30	0.853400	0.574400	0.231500
H311	H31	0.577900	0.871700	0.598500
H321	H32	0.480500	0.761500	0.534300
H331	H33	0.647300	0.902900	0.482000
H341	H34	0.572800	0.784800	0.419000
H351	H35	0.603500	0.993900	0.310300
H361	H36	0.668600	0.031200	0.416000
H371	H37	0.369800	0.831400	0.544300
H381	H38	0.445400	0.859600	0.644500
H391	H39	0.973800	0.161600	0.095500
H401	H40	0.038100	0.206100	0.202000
H411	H41	0.139800	0.247600	0.088900
H421	H42	0.214900	0.274100	0.189300
H431	H43	0.251300	0.121900	0.971100
H441	H44	0.160000	0.149800	0.954200
H451	H45	0.898100	0.057500	0.172200
H461	H46	0.978800	0.017400	0.166000
H471	H47	0.455600	0.847400	0.235700
H481	H48	0.415700	0.780100	0.286000
H491	H49	0.520600	0.739800	0.176900
H501	H50	0.486700	0.674500	0.230700
H511	H51	0.336300	0.127500	0.102700
H521	H52	0.267200	0.102400	0.155100
H531	H53	0.430500	0.302700	0.219600
H541	H54	0.369700	0.262700	0.274900
H551	H55	0.436600	0.809600	0.427100
H561	H56	0.540400	0.022000	0.663800
H571	H57	0.122700	0.106300	0.167200
H581	H58	0.847300	0.022500	0.016600
H591	H59	0.345400	0.591400	0.136000
H601	H60	0.425600	0.146600	0.268500
H611	H61	0.871700	0.577900	0.098500
H621	H62	0.761500	0.480500	0.034300
H631	H63	0.902900	0.647300	0.982000
H641	H64	0.784800	0.572800	0.919000
H651	H65	0.993900	0.603500	0.810300
H661	H66	0.031200	0.668600	0.916000
H671	H67	0.831400	0.369800	0.044300
H681	H68	0.859600	0.445400	0.144500
H691	H69	0.161600	0.973800	0.595500
H701	H70	0.206100	0.038100	0.702000
H711	H71	0.247600	0.139800	0.588900
H721	H72	0.274100	0.214900	0.689300
H731	H73	0.121900	0.251300	0.471100
H741	H74	0.149800	0.160000	0.454200
H751	H75	0.057500	0.898100	0.672200
H761	H76	0.017400	0.978800	0.666000
H771	H77	0.847400	0.455600	0.735700
H781	H78	0.780100	0.415700	0.786000
H791	H79	0.739800	0.520600	0.676900
H801	H80	0.674500	0.486700	0.730700
H811	H81	0.127500	0.336300	0.602700
H821	H82	0.102400	0.267200	0.655100
H831	H83	0.302700	0.430500	0.719600
H841	H84	0.262700	0.369700	0.774900
H851	H85	0.809600	0.436600	0.927100
H861	H86	0.022000	0.540400	0.163800
H871	H87	0.106300	0.122700	0.667200
H881	H88	0.022500	0.847300	0.516600
H891	H89	0.591400	0.345400	0.636000
H901	H90	0.146600	0.425600	0.768500
H911	H91	0.422100	0.128300	0.401500
H921	H92	0.519500	0.238500	0.465700
H931	H93	0.352700	0.097100	0.518000
H941	H94	0.427200	0.215200	0.581000
H951	H95	0.396500	0.006100	0.689700
H961	H96	0.331400	0.968800	0.584000
H971	H97	0.630200	0.168600	0.455700
H981	H98	0.554600	0.140400	0.355500
H991	H99	0.026200	0.838400	0.904500
H1001	H100	0.961900	0.793900	0.798000
H1011	H101	0.860200	0.752400	0.911100
H1021	H102	0.785100	0.725900	0.810700
H1031	H103	0.748700	0.878100	0.028900
H1041	H104	0.840000	0.850200	0.045800
H1051	H105	0.101900	0.942500	0.827800
H1061	H106	0.021200	0.982600	0.834000
H1071	H107	0.544400	0.152600	0.764300
H1081	H108	0.584300	0.219900	0.714000
H1091	H109	0.479400	0.260200	0.823100
H1101	H110	0.513300	0.325500	0.769300
H1111	H111	0.663700	0.872500	0.897300
H1121	H112	0.732800	0.897600	0.844900
H1131	H113	0.569500	0.697300	0.780400
H1141	H114	0.630300	0.737300	0.725100
H1151	H115	0.563400	0.190400	0.572900
H1161	H116	0.459600	0.978000	0.336200
H1171	H117	0.877300	0.893700	0.832800
H1181	H118	0.152700	0.977500	0.983400
H1191	H119	0.654600	0.408600	0.864000
H1201	H120	0.574400	0.853400	0.731500
C11	C1	0.902350	0.266250	0.855900
C21	C2	0.921160	0.255440	0.713800
C31	C3	0.894170	0.070030	0.629400
C41	C4	0.814720	0.963880	0.701800
C51	C5	0.164530	0.493470	0.947600
C61	C6	0.146640	0.421760	0.066300
C71	C7	0.014220	0.399780	0.134800
C81	C8	0.128760	0.558240	0.910300
C91	C9	0.851640	0.989360	0.356300
C101	C10	0.779680	0.827120	0.373400
C111	C11	0.879650	0.805150	0.512200
C121	C12	0.951850	0.060150	0.359700
C131	C13	0.193900	0.529300	0.232900
C141	C14	0.285490	0.531310	0.300800
C151	C15	0.843340	0.692460	0.358700
C161	C16	0.757400	0.604400	0.270300
C171	C17	0.733750	0.097650	0.644100
C181	C18	0.744560	0.078840	0.786200
C191	C19	0.929970	0.105830	0.870600
C201	C20	0.036120	0.185280	0.798200
C211	C21	0.506530	0.835470	0.552400
C221	C22	0.578240	0.853360	0.433700
C231	C23	0.600220	0.985780	0.365200
C241	C24	0.441760	0.871240	0.589700
C251	C25	0.010640	0.148360	0.143700
C261	C26	0.172880	0.220320	0.126600
C271	C27	0.194850	0.120350	0.987800
C281	C28	0.939850	0.048150	0.140300
C291	C29	0.470700	0.806100	0.267100
C301	C30	0.468690	0.714510	0.199200
C311	C31	0.307540	0.156660	0.141300
C321	C32	0.395600	0.242600	0.229700
C331	C33	0.097650	0.733750	0.144100
C341	C34	0.078840	0.744560	0.286200
C351	C35	0.105830	0.929970	0.370600
C361	C36	0.185280	0.036120	0.298200
C371	C37	0.835470	0.506530	0.052400
C381	C38	0.853360	0.578240	0.933700
C391	C39	0.985780	0.600220	0.865200
C401	C40	0.871240	0.441760	0.089700
C411	C41	0.148360	0.010640	0.643700
C421	C42	0.220320	0.172880	0.626600
C431	C43	0.120350	0.194850	0.487800
C441	C44	0.048150	0.939850	0.640300
C451	C45	0.806100	0.470700	0.767100
C461	C46	0.714510	0.468690	0.699200
C471	C47	0.156660	0.307540	0.641300
C481	C48	0.242600	0.395600	0.729700
C491	C49	0.266250	0.902350	0.355900
C501	C50	0.255440	0.921160	0.213800
C511	C51	0.070030	0.894170	0.129400
C521	C52	0.963880	0.814720	0.201800
C531	C53	0.493470	0.164530	0.447600
C541	C54	0.421760	0.146640	0.566300
C551	C55	0.399780	0.014220	0.634800
C561	C56	0.558240	0.128760	0.410300
C571	C57	0.989360	0.851640	0.856300
C581	C58	0.827120	0.779680	0.873400
C591	C59	0.805150	0.879650	0.012200
C601	C60	0.060150	0.951850	0.859700
C611	C61	0.529300	0.193900	0.732900
C621	C62	0.531310	0.285490	0.800800
C631	C63	0.692460	0.843340	0.858700
C641	C64	0.604400	0.757400	0.770300
N11	N1	0.921060	0.341680	0.916400
N21	N2	0.944780	0.324020	0.697700
N31	N3	0.909780	0.036760	0.566600
N41	N4	0.789300	0.879300	0.680600
N51	N5	0.141580	0.499620	0.026900
N61	N6	0.126130	0.430870	0.150200
N71	N7	0.015860	0.521740	0.886700
N81	N8	0.874680	0.907640	0.375400
N91	N9	0.815220	0.761780	0.411200
N101	N10	0.009820	0.119380	0.460000
N111	N11	0.658320	0.078940	0.583600
N121	N12	0.675980	0.055220	0.802300
N131	N13	0.963240	0.090220	0.933400
N141	N14	0.120700	0.210700	0.819400
N151	N15	0.500380	0.858420	0.473100
N161	N16	0.569130	0.873870	0.349800
N171	N17	0.478260	0.984140	0.613300
N181	N18	0.092360	0.125320	0.124600
N191	N19	0.238220	0.184780	0.088800
N201	N20	0.880620	0.990180	0.040000
N211	N21	0.078940	0.658320	0.083600
N221	N22	0.055220	0.675980	0.302300
N231	N23	0.090220	0.963240	0.433400
N241	N24	0.210700	0.120700	0.319400
N251	N25	0.858420	0.500380	0.973100
N261	N26	0.873870	0.569130	0.849800
N271	N27	0.984140	0.478260	0.113300
N281	N28	0.125320	0.092360	0.624600
N291	N29	0.184780	0.238220	0.588800
N301	N30	0.990180	0.880620	0.540000
N311	N31	0.341680	0.921060	0.416400
N321	N32	0.324020	0.944780	0.197700
N331	N33	0.036760	0.909780	0.066600
N341	N34	0.879300	0.789300	0.180600
N351	N35	0.499620	0.141580	0.526900
N361	N36	0.430870	0.126130	0.650200
N371	N37	0.521740	0.015860	0.386700
N381	N38	0.907640	0.874680	0.875400
N391	N39	0.761780	0.815220	0.911200
N401	N40	0.119380	0.009820	0.960000
O11	O1	0.346420	0.622740	0.371600
O21	O2	0.792810	0.536450	0.238700
O31	O3	0.377260	0.653580	0.128400
O41	O4	0.463550	0.207190	0.261300
O51	O5	0.653580	0.377260	0.628400
O61	O6	0.207190	0.463550	0.761300
O71	O7	0.622740	0.346420	0.871600
O81	O8	0.536450	0.792810	0.738700
