data_TADYII_clean_PM
_symmetry_space_group_name_H-M	'P1'
_cell_length_a	15.900700
_cell_length_b	15.900700
_cell_length_c	15.900700
_cell_angle_alpha	63.156300
_cell_angle_beta	74.084400
_cell_angle_gamma	105.916000
_symmetry_Int_Tables_number 1

loop_
_symmetry_equiv_pos_as_xyz
'x,y,z'

loop_
_atom_site_label
_atom_site_type_symbol
_atom_site_fract_x
_atom_site_fract_y
_atom_site_fract_z
Ni11	Ni1	0.000000	0.500000	0.500000
Ni21	Ni2	0.500000	0.000000	0.500000
Ni31	Ni3	0.000000	0.500000	0.000000
Ni41	Ni4	0.500000	0.500000	0.500000
H11	H1	0.159200	0.544200	0.297400
H21	H2	0.255800	0.615800	0.289400
H31	H3	0.086800	0.663900	0.257900
H41	H4	0.186900	0.753700	0.223800
H51	H5	0.936600	0.731900	0.387700
H61	H6	0.934800	0.654300	0.352300
H71	H7	0.201400	0.432900	0.418500
H81	H8	0.200000	0.494500	0.472900
H91	H9	0.117900	0.753500	0.419800
H101	H10	0.198700	0.839000	0.300900
H111	H11	0.147700	0.928000	0.366300
H121	H12	0.107600	0.936400	0.284600
H131	H13	0.036700	0.854800	0.407100
H141	H14	0.170600	0.655000	0.387800
H151	H15	0.040200	0.369400	0.475800
H161	H16	0.340800	0.043400	0.615000
H171	H17	0.244200	0.954800	0.640000
H181	H18	0.413200	0.155300	0.422900
H191	H19	0.313100	0.089300	0.433200
H201	H20	0.563400	0.175700	0.204700
H211	H21	0.565200	0.212900	0.280500
H221	H22	0.298600	0.880100	0.768500
H231	H23	0.300000	0.827100	0.705500
H241	H24	0.382100	0.962300	0.364400
H251	H25	0.301300	0.000400	0.359700
H261	H26	0.352300	0.986000	0.219700
H271	H27	0.392400	0.107800	0.171200
H281	H28	0.463300	0.056200	0.181900
H291	H29	0.329400	0.941600	0.515600
H301	H30	0.459800	0.984000	0.670800
H311	H31	0.158400	0.702600	0.956600
H321	H32	0.094800	0.710600	0.045200
H331	H33	0.078200	0.742100	0.844700
H341	H34	0.022500	0.776200	0.910700
H351	H35	0.880400	0.612300	0.824300
H361	H36	0.993400	0.647700	0.787100
H371	H37	0.148600	0.581500	0.119900
H381	H38	0.032600	0.527100	0.172900
H391	H39	0.826700	0.580200	0.037700
H401	H40	0.860100	0.699100	0.999600
H411	H41	0.705700	0.633700	0.014000
H421	H42	0.779000	0.715400	0.892200
H431	H43	0.738100	0.592900	0.943800
H441	H44	0.957200	0.612200	0.058400
H451	H45	0.154800	0.524200	0.016000
H461	H46	0.341600	0.385000	0.455800
H471	H47	0.405200	0.360000	0.384200
H481	H48	0.421800	0.577100	0.336100
H491	H49	0.477500	0.566800	0.246300
H501	H50	0.619600	0.795300	0.268100
H511	H51	0.506600	0.719500	0.345700
H521	H52	0.351400	0.231500	0.567100
H531	H53	0.467400	0.294500	0.505500
H541	H54	0.673300	0.635600	0.246500
H551	H55	0.639900	0.640300	0.161000
H561	H56	0.794300	0.780300	0.072000
H571	H57	0.721000	0.828800	0.063600
H581	H58	0.761900	0.818100	0.145200
H591	H59	0.542800	0.484400	0.345000
H601	H60	0.345200	0.329200	0.630600
H611	H61	0.840800	0.455800	0.702600
H621	H62	0.744200	0.384200	0.710600
H631	H63	0.913200	0.336100	0.742100
H641	H64	0.813100	0.246300	0.776200
H651	H65	0.063400	0.268100	0.612300
H661	H66	0.065200	0.345700	0.647700
H671	H67	0.798600	0.567100	0.581500
H681	H68	0.800000	0.505500	0.527100
H691	H69	0.882100	0.246500	0.580200
H701	H70	0.801300	0.161000	0.699100
H711	H71	0.852300	0.072000	0.633700
H721	H72	0.892400	0.063600	0.715400
H731	H73	0.963300	0.145200	0.592900
H741	H74	0.829400	0.345000	0.612200
H751	H75	0.959800	0.630600	0.524200
H761	H76	0.659200	0.956600	0.385000
H771	H77	0.755800	0.045200	0.360000
H781	H78	0.586800	0.844700	0.577100
H791	H79	0.686900	0.910700	0.566800
H801	H80	0.436600	0.824300	0.795300
H811	H81	0.434800	0.787100	0.719500
H821	H82	0.701400	0.119900	0.231500
H831	H83	0.700000	0.172900	0.294500
H841	H84	0.617900	0.037700	0.635600
H851	H85	0.698700	0.999600	0.640300
H861	H86	0.647700	0.014000	0.780300
H871	H87	0.607600	0.892200	0.828800
H881	H88	0.536700	0.943800	0.818100
H891	H89	0.670600	0.058400	0.484400
H901	H90	0.540200	0.016000	0.329200
H911	H91	0.841600	0.297400	0.043400
H921	H92	0.905200	0.289400	0.954800
H931	H93	0.921800	0.257900	0.155300
H941	H94	0.977500	0.223800	0.089300
H951	H95	0.119600	0.387700	0.175700
H961	H96	0.006600	0.352300	0.212900
H971	H97	0.851400	0.418500	0.880100
H981	H98	0.967400	0.472900	0.827100
H991	H99	0.173300	0.419800	0.962300
H1001	H100	0.139900	0.300900	0.000400
H1011	H101	0.294300	0.366300	0.986000
H1021	H102	0.221000	0.284600	0.107800
H1031	H103	0.261900	0.407100	0.056200
H1041	H104	0.042800	0.387800	0.941600
H1051	H105	0.845200	0.475800	0.984000
H1061	H106	0.658400	0.615000	0.544200
H1071	H107	0.594800	0.640000	0.615800
H1081	H108	0.578200	0.422900	0.663900
H1091	H109	0.522500	0.433200	0.753700
H1101	H110	0.380400	0.204700	0.731900
H1111	H111	0.493400	0.280500	0.654300
H1121	H112	0.648600	0.768500	0.432900
H1131	H113	0.532600	0.705500	0.494500
H1141	H114	0.326700	0.364400	0.753500
H1151	H115	0.360100	0.359700	0.839000
H1161	H116	0.205700	0.219700	0.928000
H1171	H117	0.279000	0.171200	0.936400
H1181	H118	0.238100	0.181900	0.854800
H1191	H119	0.457200	0.515600	0.655000
H1201	H120	0.654800	0.670800	0.369400
W11	W1	0.750000	0.375000	0.375000
W21	W2	0.250000	0.625000	0.625000
C11	C1	0.878020	0.438220	0.391200
C21	C2	0.700910	0.289100	0.545390
C31	C3	0.185800	0.567100	0.335700
C41	C4	0.122200	0.698900	0.283100
C51	C5	0.964300	0.685700	0.383600
C61	C6	0.170500	0.471300	0.436400
C71	C7	0.129000	0.805400	0.349400
C81	C8	0.102800	0.888600	0.352200
C91	C9	0.621980	0.230780	0.439800
C101	C10	0.799090	0.253700	0.411810
C111	C11	0.314200	0.978500	0.618700
C121	C12	0.377800	0.094700	0.423300
C131	C13	0.535700	0.152100	0.278600
C141	C14	0.329500	0.893100	0.699200
C151	C15	0.371000	0.021600	0.323600
C161	C16	0.397200	0.045000	0.214200
C171	C17	0.170580	0.608800	0.769220
C181	C18	0.165510	0.454610	0.746300
C191	C19	0.097200	0.664300	0.021500
C201	C20	0.018000	0.716900	0.905300
C211	C21	0.930700	0.616400	0.847900
C221	C22	0.092300	0.563600	0.106900
C231	C23	0.845200	0.650600	0.978400
C241	C24	0.759200	0.647800	0.955000
C251	C25	0.329420	0.560200	0.561780
C261	C26	0.334490	0.588190	0.710900
C271	C27	0.402800	0.381300	0.432900
C281	C28	0.482000	0.576700	0.301100
C291	C29	0.569300	0.721400	0.314300
C301	C30	0.407700	0.300800	0.528700
C311	C31	0.654800	0.676400	0.194600
C321	C32	0.740800	0.785800	0.111400
C331	C33	0.121980	0.561780	0.608800
C341	C34	0.299090	0.710900	0.454610
C351	C35	0.814200	0.432900	0.664300
C361	C36	0.877800	0.301100	0.716900
C371	C37	0.035700	0.314300	0.616400
C381	C38	0.829500	0.528700	0.563600
C391	C39	0.871000	0.194600	0.650600
C401	C40	0.897200	0.111400	0.647800
C411	C41	0.378020	0.769220	0.560200
C421	C42	0.200910	0.746300	0.588190
C431	C43	0.685800	0.021500	0.381300
C441	C44	0.622200	0.905300	0.576700
C451	C45	0.464300	0.847900	0.721400
C461	C46	0.670500	0.106900	0.300800
C471	C47	0.629000	0.978400	0.676400
C481	C48	0.602800	0.955000	0.785800
C491	C49	0.829420	0.391200	0.230780
C501	C50	0.834490	0.545390	0.253700
C511	C51	0.902800	0.335700	0.978500
C521	C52	0.982000	0.283100	0.094700
C531	C53	0.069300	0.383600	0.152100
C541	C54	0.907700	0.436400	0.893100
C551	C55	0.154800	0.349400	0.021600
C561	C56	0.240800	0.352200	0.045000
C571	C57	0.670580	0.439800	0.438220
C581	C58	0.665510	0.411810	0.289100
C591	C59	0.597200	0.618700	0.567100
C601	C60	0.518000	0.423300	0.698900
C611	C61	0.430700	0.278600	0.685700
C621	C62	0.592300	0.699200	0.471300
C631	C63	0.345200	0.323600	0.805400
C641	C64	0.259200	0.214200	0.888600
N11	N1	0.942990	0.469260	0.406330
N21	N2	0.676950	0.245420	0.636370
N31	N3	0.134750	0.620640	0.367090
N41	N4	0.070150	0.749260	0.314910
N51	N5	0.062560	0.401210	0.506050
N61	N6	0.557010	0.150680	0.473730
N71	N7	0.823050	0.186680	0.431530
N81	N8	0.365250	0.998160	0.514110
N91	N9	0.429850	0.114940	0.320890
N101	N10	0.437440	0.931390	0.661350
N111	N11	0.124410	0.593670	0.849320
N121	N12	0.118210	0.363630	0.813320
N131	N13	0.012270	0.632910	0.001840
N141	N14	0.935830	0.685090	0.885060
N151	N15	0.092740	0.493950	0.068610
N161	N16	0.375590	0.526270	0.530740
N171	N17	0.381790	0.568470	0.754580
N181	N18	0.487730	0.485890	0.379360
N191	N19	0.564170	0.679110	0.250740
N201	N20	0.407260	0.338650	0.598790
N211	N21	0.057010	0.530740	0.593670
N221	N22	0.323050	0.754580	0.363630
N231	N23	0.865250	0.379360	0.632910
N241	N24	0.929850	0.250740	0.685090
N251	N25	0.937440	0.598790	0.493950
N261	N26	0.442990	0.849320	0.526270
N271	N27	0.176950	0.813320	0.568470
N281	N28	0.634750	0.001840	0.485890
N291	N29	0.570150	0.885060	0.679110
N301	N30	0.562560	0.068610	0.338650
N311	N31	0.875590	0.406330	0.150680
N321	N32	0.881790	0.636370	0.186680
N331	N33	0.987730	0.367090	0.998160
N341	N34	0.064170	0.314910	0.114940
N351	N35	0.907260	0.506050	0.931390
N361	N36	0.624410	0.473730	0.469260
N371	N37	0.618210	0.431530	0.245420
N381	N38	0.512270	0.514110	0.620640
N391	N39	0.435830	0.320890	0.749260
N401	N40	0.592740	0.661350	0.401210
