data_TAFBIN_clean_PM
_symmetry_space_group_name_H-M	'P1'
_cell_length_a	16.006900
_cell_length_b	16.006900
_cell_length_c	16.552600
_cell_angle_alpha	118.915000
_cell_angle_beta	118.915000
_cell_angle_gamma	90.000000
_symmetry_Int_Tables_number 1

loop_
_symmetry_equiv_pos_as_xyz
'x,y,z'

loop_
_atom_site_label
_atom_site_type_symbol
_atom_site_fract_x
_atom_site_fract_y
_atom_site_fract_z
Cd11	Cd1	0.535340	0.733720	0.818930
Cd21	Cd2	0.283580	0.085210	0.818920
Cd31	Cd3	0.266290	0.716420	0.181090
Cd41	Cd4	0.914790	0.464660	0.181070
Cd51	Cd5	0.966420	0.016280	0.681080
Cd61	Cd6	0.714660	0.664800	0.681080
Cd71	Cd7	0.335210	0.033580	0.318920
Cd81	Cd8	0.983720	0.285340	0.318930
H11	H1	0.166400	0.560600	0.356400
H21	H2	0.265700	0.648500	0.557600
H31	H3	0.102000	0.608600	0.646400
H41	H4	0.181000	0.704800	0.694200
H51	H5	0.230800	0.528300	0.664000
H61	H6	0.244100	0.610100	0.775400
H71	H7	0.784800	0.333100	0.352200
H81	H8	0.773300	0.500700	0.453800
H91	H9	0.991500	0.690600	0.552200
H101	H10	0.930600	0.685500	0.601400
H111	H11	0.787600	0.677900	0.459000
H121	H12	0.842100	0.672000	0.400000
H131	H13	0.190000	0.795800	0.356400
H141	H14	0.291900	0.909100	0.557600
H151	H15	0.544400	0.037800	0.646400
H161	H16	0.513200	0.989400	0.694200
H171	H17	0.433200	0.135700	0.664000
H181	H18	0.531300	0.165300	0.775400
H191	H19	0.567400	0.019100	0.352200
H201	H20	0.680500	0.953100	0.453800
H211	H21	0.560700	0.861600	0.552200
H221	H22	0.670800	0.915900	0.601400
H231	H23	0.671400	0.781100	0.459000
H241	H24	0.557900	0.728000	0.400000
H251	H25	0.439400	0.810000	0.643600
H261	H26	0.351500	0.708100	0.442400
H271	H27	0.391400	0.455600	0.353600
H281	H28	0.295200	0.486800	0.305800
H291	H29	0.471700	0.566800	0.336000
H301	H30	0.389900	0.468700	0.224600
H311	H31	0.666900	0.432600	0.647800
H321	H32	0.499300	0.319500	0.546200
H331	H33	0.309400	0.439300	0.447800
H341	H34	0.314500	0.329200	0.398600
H351	H35	0.322100	0.328600	0.541000
H361	H36	0.328000	0.442100	0.600000
H371	H37	0.204200	0.833600	0.643600
H381	H38	0.090900	0.734300	0.442400
H391	H39	0.962200	0.898000	0.353600
H401	H40	0.010600	0.819000	0.305800
H411	H41	0.864300	0.769200	0.336000
H421	H42	0.834700	0.755900	0.224600
H431	H43	0.980900	0.215200	0.647800
H441	H44	0.046900	0.226700	0.546200
H451	H45	0.138400	0.008500	0.447800
H461	H46	0.084100	0.069400	0.398600
H471	H47	0.218900	0.212400	0.541000
H481	H48	0.272000	0.157900	0.600000
H491	H49	0.060000	0.189400	0.143600
H501	H50	0.958100	0.101500	0.942400
H511	H51	0.705600	0.141400	0.853600
H521	H52	0.736800	0.045200	0.805800
H531	H53	0.816800	0.221700	0.836000
H541	H54	0.718700	0.139900	0.724600
H551	H55	0.682600	0.416900	0.147800
H561	H56	0.569500	0.249300	0.046200
H571	H57	0.689300	0.059400	0.947800
H581	H58	0.579200	0.064500	0.898600
H591	H59	0.578600	0.072100	0.041000
H601	H60	0.692100	0.078000	0.100000
H611	H61	0.083600	0.954200	0.143600
H621	H62	0.984300	0.840900	0.942400
H631	H63	0.148000	0.712200	0.853600
H641	H64	0.069000	0.760600	0.805800
H651	H65	0.019200	0.614300	0.836000
H661	H66	0.005900	0.584700	0.724600
H671	H67	0.465200	0.730900	0.147800
H681	H68	0.476700	0.796900	0.046200
H691	H69	0.258500	0.888400	0.947800
H701	H70	0.319400	0.834100	0.898600
H711	H71	0.462400	0.968900	0.041000
H721	H72	0.407900	0.022000	0.100000
H731	H73	0.045800	0.940000	0.856400
H741	H74	0.159100	0.041900	0.057600
H751	H75	0.287800	0.294400	0.146400
H761	H76	0.239400	0.263200	0.194200
H771	H77	0.385700	0.183200	0.164000
H781	H78	0.415300	0.281300	0.275400
H791	H79	0.269100	0.317400	0.852200
H801	H80	0.203100	0.430500	0.953800
H811	H81	0.111600	0.310700	0.052200
H821	H82	0.165900	0.420800	0.101400
H831	H83	0.031100	0.421400	0.959000
H841	H84	0.978000	0.307900	0.900000
H851	H85	0.810600	0.916400	0.856400
H861	H86	0.898500	0.015700	0.057600
H871	H87	0.858600	0.852000	0.146400
H881	H88	0.954800	0.931000	0.194200
H891	H89	0.778300	0.980800	0.164000
H901	H90	0.860100	0.994100	0.275400
H911	H91	0.583100	0.534800	0.852200
H921	H92	0.750700	0.523300	0.953800
H931	H93	0.940600	0.741500	0.052200
H941	H94	0.935500	0.680600	0.101400
H951	H95	0.927900	0.537600	0.959000
H961	H96	0.922000	0.592100	0.900000
C11	C1	0.043930	0.539330	0.444460
C21	C2	0.142780	0.563280	0.398760
C31	C3	0.198300	0.611500	0.510000
C41	C4	0.161300	0.632200	0.651600
C51	C5	0.244730	0.599630	0.712860
C61	C6	0.349190	0.653090	0.755180
C71	C7	0.955210	0.498910	0.434220
C81	C8	0.829700	0.393100	0.383600
C91	C9	0.822700	0.485800	0.439600
C101	C10	0.926150	0.662050	0.532900
C111	C11	0.851550	0.699850	0.471500
C121	C12	0.887430	0.814330	0.536860
C131	C13	0.400530	0.905130	0.444460
C141	C14	0.255980	0.835480	0.398760
C151	C15	0.311700	0.898500	0.510000
C161	C16	0.490300	0.019400	0.651600
C171	C17	0.468130	0.113230	0.712860
C181	C18	0.405990	0.102090	0.755180
C191	C19	0.479010	0.935310	0.434220
C201	C20	0.553900	0.990500	0.383600
C211	C21	0.616900	0.953800	0.439600
C221	C22	0.606750	0.870850	0.532900
C231	C23	0.619950	0.771650	0.471500
C241	C24	0.649430	0.722530	0.536860
C251	C25	0.460670	0.599470	0.555540
C261	C26	0.436720	0.744020	0.601240
C271	C27	0.388500	0.688300	0.490000
C281	C28	0.367800	0.509700	0.348400
C291	C29	0.400370	0.531870	0.287140
C301	C30	0.346910	0.594010	0.244820
C311	C31	0.501090	0.520990	0.565780
C321	C32	0.606900	0.446100	0.616400
C331	C33	0.514200	0.383100	0.560400
C341	C34	0.337950	0.393250	0.467100
C351	C35	0.300150	0.380050	0.528500
C361	C36	0.185670	0.350570	0.463140
C371	C37	0.094870	0.956070	0.555540
C381	C38	0.164520	0.857220	0.601240
C391	C39	0.101500	0.801700	0.490000
C401	C40	0.980600	0.838700	0.348400
C411	C41	0.886770	0.755270	0.287140
C421	C42	0.897910	0.650810	0.244820
C431	C43	0.064690	0.044790	0.565780
C441	C44	0.009500	0.170300	0.616400
C451	C45	0.046200	0.177300	0.560400
C461	C46	0.129150	0.073850	0.467100
C471	C47	0.228350	0.148450	0.528500
C481	C48	0.277470	0.112570	0.463140
C491	C49	0.849470	0.210670	0.055540
C501	C50	0.994020	0.186720	0.101240
C511	C51	0.938300	0.138500	0.990000
C521	C52	0.759700	0.117800	0.848400
C531	C53	0.781870	0.150370	0.787140
C541	C54	0.844010	0.096910	0.744820
C551	C55	0.770990	0.251090	0.065780
C561	C56	0.696100	0.356900	0.116400
C571	C57	0.633100	0.264200	0.060400
C581	C58	0.643250	0.087950	0.967100
C591	C59	0.630050	0.050150	0.028500
C601	C60	0.600570	0.935670	0.963140
C611	C61	0.206070	0.844870	0.055540
C621	C62	0.107220	0.914520	0.101240
C631	C63	0.051700	0.851500	0.990000
C641	C64	0.088700	0.730600	0.848400
C651	C65	0.005270	0.636770	0.787140
C661	C66	0.900810	0.647910	0.744820
C671	C67	0.294790	0.814690	0.065780
C681	C68	0.420300	0.759500	0.116400
C691	C69	0.427300	0.796200	0.060400
C701	C70	0.323850	0.879150	0.967100
C711	C71	0.398450	0.978350	0.028500
C721	C72	0.362570	0.027470	0.963140
C731	C73	0.155130	0.150530	0.944460
C741	C74	0.085480	0.005980	0.898760
C751	C75	0.148500	0.061700	0.010000
C761	C76	0.269400	0.240300	0.151600
C771	C77	0.363230	0.218130	0.212860
C781	C78	0.352090	0.155990	0.255180
C791	C79	0.185310	0.229010	0.934220
C801	C80	0.240500	0.303900	0.883600
C811	C81	0.203800	0.366900	0.939600
C821	C82	0.120850	0.356750	0.032900
C831	C83	0.021650	0.369950	0.971500
C841	C84	0.972530	0.399430	0.036860
C851	C85	0.789330	0.793930	0.944460
C861	C86	0.813280	0.892780	0.898760
C871	C87	0.861500	0.948300	0.010000
C881	C88	0.882200	0.911300	0.151600
C891	C89	0.849630	0.994730	0.212860
C901	C90	0.903090	0.099190	0.255180
C911	C91	0.748910	0.705210	0.934220
C921	C92	0.643100	0.579700	0.883600
C931	C93	0.735800	0.572700	0.939600
C941	C94	0.912050	0.676150	0.032900
C951	C95	0.949850	0.601550	0.971500
C961	C96	0.064330	0.637430	0.036860
N11	N1	0.045380	0.518580	0.357360
N21	N2	0.135850	0.595120	0.539440
N31	N3	0.913060	0.401760	0.380520
N41	N4	0.901990	0.552590	0.470780
N51	N5	0.311980	0.838780	0.357360
N61	N6	0.403590	0.944320	0.539440
N71	N7	0.467460	0.978760	0.380520
N81	N8	0.568790	0.918190	0.470780
N91	N9	0.481420	0.688020	0.642640
N101	N10	0.404880	0.596410	0.460560
N111	N11	0.598240	0.532540	0.619480
N121	N12	0.447410	0.431210	0.529220
N131	N13	0.161220	0.954620	0.642640
N141	N14	0.055680	0.864150	0.460560
N151	N15	0.021240	0.086940	0.619480
N161	N16	0.081810	0.098010	0.529220
N171	N17	0.938020	0.231420	0.142640
N181	N18	0.846410	0.154880	0.960560
N191	N19	0.782540	0.348240	0.119480
N201	N20	0.681210	0.197410	0.029220
N211	N21	0.204620	0.911220	0.142640
N221	N22	0.114150	0.805680	0.960560
N231	N23	0.336940	0.771240	0.119480
N241	N24	0.348010	0.831810	0.029220
N251	N25	0.088780	0.061980	0.857360
N261	N26	0.194320	0.153590	0.039440
N271	N27	0.228760	0.217460	0.880520
N281	N28	0.168190	0.318790	0.970780
N291	N29	0.768580	0.795380	0.857360
N301	N30	0.845120	0.885850	0.039440
N311	N31	0.651760	0.663060	0.880520
N321	N32	0.802590	0.651990	0.970780
O11	O1	0.416230	0.612930	0.781060
O21	O2	0.366170	0.733770	0.764740
O31	O3	0.966680	0.858580	0.630960
O41	O4	0.839840	0.859640	0.497280
O51	O5	0.364830	0.168130	0.781060
O61	O6	0.398570	0.030970	0.764740
O71	O7	0.664280	0.772380	0.630960
O81	O8	0.657440	0.637640	0.497280
O91	O9	0.387070	0.635170	0.218940
O101	O10	0.266230	0.601430	0.235260
O111	O11	0.141420	0.335720	0.369040
O121	O12	0.140360	0.342560	0.502720
O131	O13	0.831870	0.583770	0.218940
O141	O14	0.969030	0.633830	0.235260
O151	O15	0.227620	0.033320	0.369040
O161	O16	0.362360	0.160160	0.502720
O171	O17	0.885170	0.137070	0.718940
O181	O18	0.851430	0.016230	0.735260
O191	O19	0.585720	0.891420	0.869040
O201	O20	0.592560	0.890360	0.002720
O211	O21	0.833770	0.581870	0.718940
O221	O22	0.883830	0.719030	0.735260
O231	O23	0.283320	0.977620	0.869040
O241	O24	0.410160	0.112360	0.002720
O251	O25	0.418130	0.114830	0.281060
O261	O26	0.280970	0.148570	0.264740
O271	O27	0.022380	0.414280	0.130960
O281	O28	0.887640	0.407440	0.997280
O291	O29	0.862930	0.166230	0.281060
O301	O30	0.983770	0.116170	0.264740
O311	O31	0.108580	0.716680	0.130960
O321	O32	0.109640	0.589840	0.997280
