data_TAGTUT_clean_PM
_symmetry_space_group_name_H-M	'P1'
_cell_length_a	53.598000
_cell_length_b	16.409000
_cell_length_c	21.672000
_cell_angle_alpha	90.000000
_cell_angle_beta	113.850000
_cell_angle_gamma	90.000000
_symmetry_Int_Tables_number 1

loop_
_symmetry_equiv_pos_as_xyz
'x,y,z'

loop_
_atom_site_label
_atom_site_type_symbol
_atom_site_fract_x
_atom_site_fract_y
_atom_site_fract_z
Mg11	Mg1	0.052050	0.862300	0.807820
Mg21	Mg2	0.059540	0.655110	0.797590
Mg31	Mg3	0.190000	0.643640	0.428200
C11	C1	0.111240	0.788400	0.723400
C21	C2	0.006790	0.895300	0.672300
C31	C3	0.092730	0.775400	0.761600
C41	C4	0.999000	0.929400	0.601600
C51	C5	0.157060	0.768400	0.326600
C61	C6	0.157960	0.655700	0.601800
H11	H1	0.164400	0.608000	0.590200
C71	C7	0.135460	0.720300	0.668400
C81	C8	0.174080	0.734300	0.524400
C91	C9	0.153430	0.803200	0.596700
H21	H2	0.156700	0.853400	0.581500
C101	C10	0.161410	0.732300	0.576200
C111	C11	0.139600	0.798600	0.642800
C121	C12	0.140130	0.782100	0.249700
C131	C13	0.121840	0.717900	0.708100
H31	H3	0.119400	0.668300	0.725700
C141	C14	0.132370	0.713400	0.210200
H41	H4	0.137300	0.662300	0.230000
C151	C15	0.117050	0.719400	0.140200
C161	C16	0.111250	0.799800	0.113100
C171	C17	0.120570	0.868400	0.155700
H51	H5	0.117400	0.920700	0.137700
C181	C18	0.076520	0.746300	0.925700
C191	C19	0.090020	0.740800	0.001600
C201	C20	0.097370	0.807500	0.041200
H61	H6	0.093400	0.859000	0.021800
C211	C21	0.095960	0.665500	0.031000
H71	H7	0.090500	0.620000	0.003100
C221	C22	0.018070	0.972400	0.591300
H81	H8	0.035100	0.979400	0.626400
C231	C23	0.012380	0.008400	0.525800
C241	C24	0.973730	0.910800	0.550200
H91	H9	0.960800	0.879300	0.557800
C251	C25	0.969130	0.941900	0.487900
H101	H10	0.952700	0.929300	0.452300
C261	C26	0.143800	0.654700	0.647400
H111	H11	0.140600	0.604400	0.662400
C271	C27	0.130010	0.868500	0.661300
H121	H12	0.133400	0.919000	0.646800
C281	C28	0.115160	0.864300	0.702100
H131	H13	0.108300	0.910900	0.714100
C291	C29	0.134160	0.856800	0.223200
H141	H14	0.139400	0.901800	0.251600
C301	C30	0.109300	0.653100	0.098400
H151	H15	0.113100	0.600600	0.115900
C311	C31	0.990400	0.624500	0.830500
C321	C32	0.998600	0.576400	0.898700
C331	C33	0.019300	0.475500	0.091500
H161	H16	0.035000	0.492700	0.127300
C341	C34	0.012900	0.503000	0.023500
C351	C35	0.022900	0.599900	0.949900
H171	H17	0.034200	0.636300	0.940400
C361	C36	0.031100	0.569900	0.015800
H181	H18	0.046300	0.589400	0.051900
O11	O1	0.006270	0.670500	0.823600
O21	O2	0.084090	0.844600	0.778300
O31	O3	0.965890	0.604300	0.787900
O41	O4	0.071930	0.817900	0.902300
O51	O5	0.087760	0.705500	0.775800
O61	O6	0.071290	0.679100	0.893600
O71	O7	0.988090	0.849100	0.679100
O81	O8	0.028920	0.910600	0.716100
O91	O9	0.038260	0.756200	0.770560
O101	O10	0.163650	0.831200	0.361400
O111	O11	0.163160	0.694200	0.344500
O121	O12	0.178760	0.805900	0.508600
O131	O13	0.178030	0.668000	0.501900
Mg41	Mg4	0.196850	0.851880	0.449340
C371	C37	0.262100	0.370600	0.112200
C381	C38	0.284210	0.550200	0.312200
H191	H19	0.299800	0.568400	0.307600
C391	C39	0.273100	0.459600	0.212100
H201	H20	0.288500	0.476900	0.206000
C401	C40	0.278090	0.578200	0.361800
H211	H21	0.290400	0.613700	0.392700
C411	C41	0.232330	0.379800	0.178000
H221	H22	0.219900	0.344000	0.147700
C421	C42	0.245400	0.599800	0.418000
C431	C43	0.236870	0.503000	0.326100
H231	H23	0.220500	0.490000	0.328800
C441	C44	0.266870	0.492500	0.266000
C451	C45	0.244010	0.465800	0.275100
C461	C46	0.255810	0.401600	0.169400
C471	C47	0.254600	0.558300	0.371000
C481	C48	0.227420	0.409400	0.229200
H241	H24	0.212000	0.391300	0.234400
O141	O14	0.211590	0.741600	0.446280
O151	O15	0.221730	0.588400	0.413600
O161	O16	0.245740	0.319200	0.075500
O171	O17	0.283540	0.396500	0.106800
O181	O18	0.262690	0.646900	0.462400
Mg51	Mg5	0.552050	0.362300	0.807820
Mg61	Mg6	0.559540	0.155110	0.797590
Mg71	Mg7	0.690000	0.143640	0.428200
C491	C49	0.611240	0.288400	0.723400
C501	C50	0.506790	0.395300	0.672300
C511	C51	0.592730	0.275400	0.761600
C521	C52	0.499000	0.429400	0.601600
C531	C53	0.657060	0.268400	0.326600
C541	C54	0.657960	0.155700	0.601800
H251	H25	0.664400	0.108000	0.590200
C551	C55	0.635460	0.220300	0.668400
C561	C56	0.674080	0.234300	0.524400
C571	C57	0.653430	0.303200	0.596700
H261	H26	0.656700	0.353400	0.581500
C581	C58	0.661410	0.232300	0.576200
C591	C59	0.639600	0.298600	0.642800
C601	C60	0.640130	0.282100	0.249700
C611	C61	0.621840	0.217900	0.708100
H271	H27	0.619400	0.168300	0.725700
C621	C62	0.632370	0.213400	0.210200
H281	H28	0.637300	0.162300	0.230000
C631	C63	0.617050	0.219400	0.140200
C641	C64	0.611250	0.299800	0.113100
C651	C65	0.620570	0.368400	0.155700
H291	H29	0.617400	0.420700	0.137700
C661	C66	0.576520	0.246300	0.925700
C671	C67	0.590020	0.240800	0.001600
C681	C68	0.597370	0.307500	0.041200
H301	H30	0.593400	0.359000	0.021800
C691	C69	0.595960	0.165500	0.031000
H311	H31	0.590500	0.120000	0.003100
C701	C70	0.518070	0.472400	0.591300
H321	H32	0.535100	0.479400	0.626400
C711	C71	0.512380	0.508400	0.525800
C721	C72	0.473730	0.410800	0.550200
H331	H33	0.460800	0.379300	0.557800
C731	C73	0.469130	0.441900	0.487900
H341	H34	0.452700	0.429300	0.452300
C741	C74	0.643800	0.154700	0.647400
H351	H35	0.640600	0.104400	0.662400
C751	C75	0.630010	0.368500	0.661300
H361	H36	0.633400	0.419000	0.646800
C761	C76	0.615160	0.364300	0.702100
H371	H37	0.608300	0.410900	0.714100
C771	C77	0.634160	0.356800	0.223200
H381	H38	0.639400	0.401800	0.251600
C781	C78	0.609300	0.153100	0.098400
H391	H39	0.613100	0.100600	0.115900
C791	C79	0.490400	0.124500	0.830500
C801	C80	0.498600	0.076400	0.898700
C811	C81	0.519300	0.975500	0.091500
H401	H40	0.535000	0.992700	0.127300
C821	C82	0.512900	0.003000	0.023500
C831	C83	0.522900	0.099900	0.949900
H411	H41	0.534200	0.136300	0.940400
C841	C84	0.531100	0.069900	0.015800
H421	H42	0.546300	0.089400	0.051900
O191	O19	0.506270	0.170500	0.823600
O201	O20	0.584090	0.344600	0.778300
O211	O21	0.465890	0.104300	0.787900
O221	O22	0.571930	0.317900	0.902300
O231	O23	0.587760	0.205500	0.775800
O241	O24	0.571290	0.179100	0.893600
O251	O25	0.488090	0.349100	0.679100
O261	O26	0.528920	0.410600	0.716100
O271	O27	0.538260	0.256200	0.770560
O281	O28	0.663650	0.331200	0.361400
O291	O29	0.663160	0.194200	0.344500
O301	O30	0.678760	0.305900	0.508600
O311	O31	0.678030	0.168000	0.501900
Mg81	Mg8	0.696850	0.351880	0.449340
C851	C85	0.762100	0.870600	0.112200
C861	C86	0.784210	0.050200	0.312200
H431	H43	0.799800	0.068400	0.307600
C871	C87	0.773100	0.959600	0.212100
H441	H44	0.788500	0.976900	0.206000
C881	C88	0.778090	0.078200	0.361800
H451	H45	0.790400	0.113700	0.392700
C891	C89	0.732330	0.879800	0.178000
H461	H46	0.719900	0.844000	0.147700
C901	C90	0.745400	0.099800	0.418000
C911	C91	0.736870	0.003000	0.326100
H471	H47	0.720500	0.990000	0.328800
C921	C92	0.766870	0.992500	0.266000
C931	C93	0.744010	0.965800	0.275100
C941	C94	0.755810	0.901600	0.169400
C951	C95	0.754600	0.058300	0.371000
C961	C96	0.727420	0.909400	0.229200
H481	H48	0.712000	0.891300	0.234400
O321	O32	0.711590	0.241600	0.446280
O331	O33	0.721730	0.088400	0.413600
O341	O34	0.745740	0.819200	0.075500
O351	O35	0.783540	0.896500	0.106800
O361	O36	0.762690	0.146900	0.462400
Mg91	Mg9	0.947950	0.862300	0.692180
Mg101	Mg10	0.940460	0.655110	0.702410
Mg111	Mg11	0.810000	0.643640	0.071800
C971	C97	0.888760	0.788400	0.776600
C981	C98	0.993210	0.895300	0.827700
C991	C99	0.907270	0.775400	0.738400
C1001	C100	0.001000	0.929400	0.898400
C1011	C101	0.842940	0.768400	0.173400
C1021	C102	0.842040	0.655700	0.898200
H491	H49	0.835600	0.608000	0.909800
C1031	C103	0.864540	0.720300	0.831600
C1041	C104	0.825920	0.734300	0.975600
C1051	C105	0.846570	0.803200	0.903300
H501	H50	0.843300	0.853400	0.918500
C1061	C106	0.838590	0.732300	0.923800
C1071	C107	0.860400	0.798600	0.857200
C1081	C108	0.859870	0.782100	0.250300
C1091	C109	0.878160	0.717900	0.791900
H511	H51	0.880600	0.668300	0.774300
C1101	C110	0.867630	0.713400	0.289800
H521	H52	0.862700	0.662300	0.270000
C1111	C111	0.882950	0.719400	0.359800
C1121	C112	0.888750	0.799800	0.386900
C1131	C113	0.879430	0.868400	0.344300
H531	H53	0.882600	0.920700	0.362300
C1141	C114	0.923480	0.746300	0.574300
C1151	C115	0.909980	0.740800	0.498400
C1161	C116	0.902630	0.807500	0.458800
H541	H54	0.906600	0.859000	0.478200
C1171	C117	0.904040	0.665500	0.469000
H551	H55	0.909500	0.620000	0.496900
C1181	C118	0.981930	0.972400	0.908700
H561	H56	0.964900	0.979400	0.873600
C1191	C119	0.987620	0.008400	0.974200
C1201	C120	0.026270	0.910800	0.949800
H571	H57	0.039200	0.879300	0.942200
C1211	C121	0.030870	0.941900	0.012100
H581	H58	0.047300	0.929300	0.047700
C1221	C122	0.856200	0.654700	0.852600
H591	H59	0.859400	0.604400	0.837600
C1231	C123	0.869990	0.868500	0.838700
H601	H60	0.866600	0.919000	0.853200
C1241	C124	0.884840	0.864300	0.797900
H611	H61	0.891700	0.910900	0.785900
C1251	C125	0.865840	0.856800	0.276800
H621	H62	0.860600	0.901800	0.248400
C1261	C126	0.890700	0.653100	0.401600
H631	H63	0.886900	0.600600	0.384100
C1271	C127	0.009600	0.624500	0.669500
C1281	C128	0.001400	0.576400	0.601300
C1291	C129	0.980700	0.475500	0.408500
H641	H64	0.965000	0.492700	0.372700
C1301	C130	0.987100	0.503000	0.476500
C1311	C131	0.977100	0.599900	0.550100
H651	H65	0.965800	0.636300	0.559600
C1321	C132	0.968900	0.569900	0.484200
H661	H66	0.953700	0.589400	0.448100
O371	O37	0.993730	0.670500	0.676400
O381	O38	0.915910	0.844600	0.721700
O391	O39	0.034110	0.604300	0.712100
O401	O40	0.928070	0.817900	0.597700
O411	O41	0.912240	0.705500	0.724200
O421	O42	0.928710	0.679100	0.606400
O431	O43	0.011910	0.849100	0.820900
O441	O44	0.971080	0.910600	0.783900
O451	O45	0.961740	0.756200	0.729440
O461	O46	0.836350	0.831200	0.138600
O471	O47	0.836840	0.694200	0.155500
O481	O48	0.821240	0.805900	0.991400
O491	O49	0.821970	0.668000	0.998100
Mg121	Mg12	0.803150	0.851880	0.050660
C1331	C133	0.737900	0.370600	0.387800
C1341	C134	0.715790	0.550200	0.187800
H671	H67	0.700200	0.568400	0.192400
C1351	C135	0.726900	0.459600	0.287900
H681	H68	0.711500	0.476900	0.294000
C1361	C136	0.721910	0.578200	0.138200
H691	H69	0.709600	0.613700	0.107300
C1371	C137	0.767670	0.379800	0.322000
H701	H70	0.780100	0.344000	0.352300
C1381	C138	0.754600	0.599800	0.082000
C1391	C139	0.763130	0.503000	0.173900
H711	H71	0.779500	0.490000	0.171200
C1401	C140	0.733130	0.492500	0.234000
C1411	C141	0.755990	0.465800	0.224900
C1421	C142	0.744190	0.401600	0.330600
C1431	C143	0.745400	0.558300	0.129000
C1441	C144	0.772580	0.409400	0.270800
H721	H72	0.788000	0.391300	0.265600
O501	O50	0.788410	0.741600	0.053720
O511	O51	0.778270	0.588400	0.086400
O521	O52	0.754260	0.319200	0.424500
O531	O53	0.716460	0.396500	0.393200
O541	O54	0.737310	0.646900	0.037600
Mg131	Mg13	0.447950	0.362300	0.692180
Mg141	Mg14	0.440460	0.155110	0.702410
Mg151	Mg15	0.310000	0.143640	0.071800
C1451	C145	0.388760	0.288400	0.776600
C1461	C146	0.493210	0.395300	0.827700
C1471	C147	0.407270	0.275400	0.738400
C1481	C148	0.501000	0.429400	0.898400
C1491	C149	0.342940	0.268400	0.173400
C1501	C150	0.342040	0.155700	0.898200
H731	H73	0.335600	0.108000	0.909800
C1511	C151	0.364540	0.220300	0.831600
C1521	C152	0.325920	0.234300	0.975600
C1531	C153	0.346570	0.303200	0.903300
H741	H74	0.343300	0.353400	0.918500
C1541	C154	0.338590	0.232300	0.923800
C1551	C155	0.360400	0.298600	0.857200
C1561	C156	0.359870	0.282100	0.250300
C1571	C157	0.378160	0.217900	0.791900
H751	H75	0.380600	0.168300	0.774300
C1581	C158	0.367630	0.213400	0.289800
H761	H76	0.362700	0.162300	0.270000
C1591	C159	0.382950	0.219400	0.359800
C1601	C160	0.388750	0.299800	0.386900
C1611	C161	0.379430	0.368400	0.344300
H771	H77	0.382600	0.420700	0.362300
C1621	C162	0.423480	0.246300	0.574300
C1631	C163	0.409980	0.240800	0.498400
C1641	C164	0.402630	0.307500	0.458800
H781	H78	0.406600	0.359000	0.478200
C1651	C165	0.404040	0.165500	0.469000
H791	H79	0.409500	0.120000	0.496900
C1661	C166	0.481930	0.472400	0.908700
H801	H80	0.464900	0.479400	0.873600
C1671	C167	0.487620	0.508400	0.974200
C1681	C168	0.526270	0.410800	0.949800
H811	H81	0.539200	0.379300	0.942200
C1691	C169	0.530870	0.441900	0.012100
H821	H82	0.547300	0.429300	0.047700
C1701	C170	0.356200	0.154700	0.852600
H831	H83	0.359400	0.104400	0.837600
C1711	C171	0.369990	0.368500	0.838700
H841	H84	0.366600	0.419000	0.853200
C1721	C172	0.384840	0.364300	0.797900
H851	H85	0.391700	0.410900	0.785900
C1731	C173	0.365840	0.356800	0.276800
H861	H86	0.360600	0.401800	0.248400
C1741	C174	0.390700	0.153100	0.401600
H871	H87	0.386900	0.100600	0.384100
C1751	C175	0.509600	0.124500	0.669500
C1761	C176	0.501400	0.076400	0.601300
C1771	C177	0.480700	0.975500	0.408500
H881	H88	0.465000	0.992700	0.372700
C1781	C178	0.487100	0.003000	0.476500
C1791	C179	0.477100	0.099900	0.550100
H891	H89	0.465800	0.136300	0.559600
C1801	C180	0.468900	0.069900	0.484200
H901	H90	0.453700	0.089400	0.448100
O551	O55	0.493730	0.170500	0.676400
O561	O56	0.415910	0.344600	0.721700
O571	O57	0.534110	0.104300	0.712100
O581	O58	0.428070	0.317900	0.597700
O591	O59	0.412240	0.205500	0.724200
O601	O60	0.428710	0.179100	0.606400
O611	O61	0.511910	0.349100	0.820900
O621	O62	0.471080	0.410600	0.783900
O631	O63	0.461740	0.256200	0.729440
O641	O64	0.336350	0.331200	0.138600
O651	O65	0.336840	0.194200	0.155500
O661	O66	0.321240	0.305900	0.991400
O671	O67	0.321970	0.168000	0.998100
Mg161	Mg16	0.303150	0.351880	0.050660
C1811	C181	0.237900	0.870600	0.387800
C1821	C182	0.215790	0.050200	0.187800
H911	H91	0.200200	0.068400	0.192400
C1831	C183	0.226900	0.959600	0.287900
H921	H92	0.211500	0.976900	0.294000
C1841	C184	0.221910	0.078200	0.138200
H931	H93	0.209600	0.113700	0.107300
C1851	C185	0.267670	0.879800	0.322000
H941	H94	0.280100	0.844000	0.352300
C1861	C186	0.254600	0.099800	0.082000
C1871	C187	0.263130	0.003000	0.173900
H951	H95	0.279500	0.990000	0.171200
C1881	C188	0.233130	0.992500	0.234000
C1891	C189	0.255990	0.965800	0.224900
C1901	C190	0.244190	0.901600	0.330600
C1911	C191	0.245400	0.058300	0.129000
C1921	C192	0.272580	0.909400	0.270800
H961	H96	0.288000	0.891300	0.265600
O681	O68	0.288410	0.241600	0.053720
O691	O69	0.278270	0.088400	0.086400
O701	O70	0.254260	0.819200	0.424500
O711	O71	0.216460	0.896500	0.393200
O721	O72	0.237310	0.146900	0.037600
Mg171	Mg17	0.947950	0.137700	0.192180
Mg181	Mg18	0.940460	0.344890	0.202410
Mg191	Mg19	0.810000	0.356360	0.571800
C1931	C193	0.888760	0.211600	0.276600
C1941	C194	0.993210	0.104700	0.327700
C1951	C195	0.907270	0.224600	0.238400
C1961	C196	0.001000	0.070600	0.398400
C1971	C197	0.842940	0.231600	0.673400
C1981	C198	0.842040	0.344300	0.398200
H971	H97	0.835600	0.392000	0.409800
C1991	C199	0.864540	0.279700	0.331600
C2001	C200	0.825920	0.265700	0.475600
C2011	C201	0.846570	0.196800	0.403300
H981	H98	0.843300	0.146600	0.418500
C2021	C202	0.838590	0.267700	0.423800
C2031	C203	0.860400	0.201400	0.357200
C2041	C204	0.859870	0.217900	0.750300
C2051	C205	0.878160	0.282100	0.291900
H991	H99	0.880600	0.331700	0.274300
C2061	C206	0.867630	0.286600	0.789800
H1001	H100	0.862700	0.337700	0.770000
C2071	C207	0.882950	0.280600	0.859800
C2081	C208	0.888750	0.200200	0.886900
C2091	C209	0.879430	0.131600	0.844300
H1011	H101	0.882600	0.079300	0.862300
C2101	C210	0.923480	0.253700	0.074300
C2111	C211	0.909980	0.259200	0.998400
C2121	C212	0.902630	0.192500	0.958800
H1021	H102	0.906600	0.141000	0.978200
C2131	C213	0.904040	0.334500	0.969000
H1031	H103	0.909500	0.380000	0.996900
C2141	C214	0.981930	0.027600	0.408700
H1041	H104	0.964900	0.020600	0.373600
C2151	C215	0.987620	0.991600	0.474200
C2161	C216	0.026270	0.089200	0.449800
H1051	H105	0.039200	0.120700	0.442200
C2171	C217	0.030870	0.058100	0.512100
H1061	H106	0.047300	0.070700	0.547700
C2181	C218	0.856200	0.345300	0.352600
H1071	H107	0.859400	0.395600	0.337600
C2191	C219	0.869990	0.131500	0.338700
H1081	H108	0.866600	0.081000	0.353200
C2201	C220	0.884840	0.135700	0.297900
H1091	H109	0.891700	0.089100	0.285900
C2211	C221	0.865840	0.143200	0.776800
H1101	H110	0.860600	0.098200	0.748400
C2221	C222	0.890700	0.346900	0.901600
H1111	H111	0.886900	0.399400	0.884100
C2231	C223	0.009600	0.375500	0.169500
C2241	C224	0.001400	0.423600	0.101300
C2251	C225	0.980700	0.524500	0.908500
H1121	H112	0.965000	0.507300	0.872700
C2261	C226	0.987100	0.497000	0.976500
C2271	C227	0.977100	0.400100	0.050100
H1131	H113	0.965800	0.363700	0.059600
C2281	C228	0.968900	0.430100	0.984200
H1141	H114	0.953700	0.410600	0.948100
O731	O73	0.993730	0.329500	0.176400
O741	O74	0.915910	0.155400	0.221700
O751	O75	0.034110	0.395700	0.212100
O761	O76	0.928070	0.182100	0.097700
O771	O77	0.912240	0.294500	0.224200
O781	O78	0.928710	0.320900	0.106400
O791	O79	0.011910	0.150900	0.320900
O801	O80	0.971080	0.089400	0.283900
O811	O81	0.961740	0.243800	0.229440
O821	O82	0.836350	0.168800	0.638600
O831	O83	0.836840	0.305800	0.655500
O841	O84	0.821240	0.194100	0.491400
O851	O85	0.821970	0.332000	0.498100
Mg201	Mg20	0.803150	0.148120	0.550660
C2291	C229	0.737900	0.629400	0.887800
C2301	C230	0.715790	0.449800	0.687800
H1151	H115	0.700200	0.431600	0.692400
C2311	C231	0.726900	0.540400	0.787900
H1161	H116	0.711500	0.523100	0.794000
C2321	C232	0.721910	0.421800	0.638200
H1171	H117	0.709600	0.386300	0.607300
C2331	C233	0.767670	0.620200	0.822000
H1181	H118	0.780100	0.656000	0.852300
C2341	C234	0.754600	0.400200	0.582000
C2351	C235	0.763130	0.497000	0.673900
H1191	H119	0.779500	0.510000	0.671200
C2361	C236	0.733130	0.507500	0.734000
C2371	C237	0.755990	0.534200	0.724900
C2381	C238	0.744190	0.598400	0.830600
C2391	C239	0.745400	0.441700	0.629000
C2401	C240	0.772580	0.590600	0.770800
H1201	H120	0.788000	0.608700	0.765600
O861	O86	0.788410	0.258400	0.553720
O871	O87	0.778270	0.411600	0.586400
O881	O88	0.754260	0.680800	0.924500
O891	O89	0.716460	0.603500	0.893200
O901	O90	0.737310	0.353100	0.537600
Mg211	Mg21	0.447950	0.637700	0.192180
Mg221	Mg22	0.440460	0.844890	0.202410
Mg231	Mg23	0.310000	0.856360	0.571800
C2411	C241	0.388760	0.711600	0.276600
C2421	C242	0.493210	0.604700	0.327700
C2431	C243	0.407270	0.724600	0.238400
C2441	C244	0.501000	0.570600	0.398400
C2451	C245	0.342940	0.731600	0.673400
C2461	C246	0.342040	0.844300	0.398200
H1211	H121	0.335600	0.892000	0.409800
C2471	C247	0.364540	0.779700	0.331600
C2481	C248	0.325920	0.765700	0.475600
C2491	C249	0.346570	0.696800	0.403300
H1221	H122	0.343300	0.646600	0.418500
C2501	C250	0.338590	0.767700	0.423800
C2511	C251	0.360400	0.701400	0.357200
C2521	C252	0.359870	0.717900	0.750300
C2531	C253	0.378160	0.782100	0.291900
H1231	H123	0.380600	0.831700	0.274300
C2541	C254	0.367630	0.786600	0.789800
H1241	H124	0.362700	0.837700	0.770000
C2551	C255	0.382950	0.780600	0.859800
C2561	C256	0.388750	0.700200	0.886900
C2571	C257	0.379430	0.631600	0.844300
H1251	H125	0.382600	0.579300	0.862300
C2581	C258	0.423480	0.753700	0.074300
C2591	C259	0.409980	0.759200	0.998400
C2601	C260	0.402630	0.692500	0.958800
H1261	H126	0.406600	0.641000	0.978200
C2611	C261	0.404040	0.834500	0.969000
H1271	H127	0.409500	0.880000	0.996900
C2621	C262	0.481930	0.527600	0.408700
H1281	H128	0.464900	0.520600	0.373600
C2631	C263	0.487620	0.491600	0.474200
C2641	C264	0.526270	0.589200	0.449800
H1291	H129	0.539200	0.620700	0.442200
C2651	C265	0.530870	0.558100	0.512100
H1301	H130	0.547300	0.570700	0.547700
C2661	C266	0.356200	0.845300	0.352600
H1311	H131	0.359400	0.895600	0.337600
C2671	C267	0.369990	0.631500	0.338700
H1321	H132	0.366600	0.581000	0.353200
C2681	C268	0.384840	0.635700	0.297900
H1331	H133	0.391700	0.589100	0.285900
C2691	C269	0.365840	0.643200	0.776800
H1341	H134	0.360600	0.598200	0.748400
C2701	C270	0.390700	0.846900	0.901600
H1351	H135	0.386900	0.899400	0.884100
C2711	C271	0.509600	0.875500	0.169500
C2721	C272	0.501400	0.923600	0.101300
C2731	C273	0.480700	0.024500	0.908500
H1361	H136	0.465000	0.007300	0.872700
C2741	C274	0.487100	0.997000	0.976500
C2751	C275	0.477100	0.900100	0.050100
H1371	H137	0.465800	0.863700	0.059600
C2761	C276	0.468900	0.930100	0.984200
H1381	H138	0.453700	0.910600	0.948100
O911	O91	0.493730	0.829500	0.176400
O921	O92	0.415910	0.655400	0.221700
O931	O93	0.534110	0.895700	0.212100
O941	O94	0.428070	0.682100	0.097700
O951	O95	0.412240	0.794500	0.224200
O961	O96	0.428710	0.820900	0.106400
O971	O97	0.511910	0.650900	0.320900
O981	O98	0.471080	0.589400	0.283900
O991	O99	0.461740	0.743800	0.229440
O1001	O100	0.336350	0.668800	0.638600
O1011	O101	0.336840	0.805800	0.655500
O1021	O102	0.321240	0.694100	0.491400
O1031	O103	0.321970	0.832000	0.498100
Mg241	Mg24	0.303150	0.648120	0.550660
C2771	C277	0.237900	0.129400	0.887800
C2781	C278	0.215790	0.949800	0.687800
H1391	H139	0.200200	0.931600	0.692400
C2791	C279	0.226900	0.040400	0.787900
H1401	H140	0.211500	0.023100	0.794000
C2801	C280	0.221910	0.921800	0.638200
H1411	H141	0.209600	0.886300	0.607300
C2811	C281	0.267670	0.120200	0.822000
H1421	H142	0.280100	0.156000	0.852300
C2821	C282	0.254600	0.900200	0.582000
C2831	C283	0.263130	0.997000	0.673900
H1431	H143	0.279500	0.010000	0.671200
C2841	C284	0.233130	0.007500	0.734000
C2851	C285	0.255990	0.034200	0.724900
C2861	C286	0.244190	0.098400	0.830600
C2871	C287	0.245400	0.941700	0.629000
C2881	C288	0.272580	0.090600	0.770800
H1441	H144	0.288000	0.108700	0.765600
O1041	O104	0.288410	0.758400	0.553720
O1051	O105	0.278270	0.911600	0.586400
O1061	O106	0.254260	0.180800	0.924500
O1071	O107	0.216460	0.103500	0.893200
O1081	O108	0.237310	0.853100	0.537600
Mg251	Mg25	0.052050	0.137700	0.307820
Mg261	Mg26	0.059540	0.344890	0.297590
Mg271	Mg27	0.190000	0.356360	0.928200
C2891	C289	0.111240	0.211600	0.223400
C2901	C290	0.006790	0.104700	0.172300
C2911	C291	0.092730	0.224600	0.261600
C2921	C292	0.999000	0.070600	0.101600
C2931	C293	0.157060	0.231600	0.826600
C2941	C294	0.157960	0.344300	0.101800
H1451	H145	0.164400	0.392000	0.090200
C2951	C295	0.135460	0.279700	0.168400
C2961	C296	0.174080	0.265700	0.024400
C2971	C297	0.153430	0.196800	0.096700
H1461	H146	0.156700	0.146600	0.081500
C2981	C298	0.161410	0.267700	0.076200
C2991	C299	0.139600	0.201400	0.142800
C3001	C300	0.140130	0.217900	0.749700
C3011	C301	0.121840	0.282100	0.208100
H1471	H147	0.119400	0.331700	0.225700
C3021	C302	0.132370	0.286600	0.710200
H1481	H148	0.137300	0.337700	0.730000
C3031	C303	0.117050	0.280600	0.640200
C3041	C304	0.111250	0.200200	0.613100
C3051	C305	0.120570	0.131600	0.655700
H1491	H149	0.117400	0.079300	0.637700
C3061	C306	0.076520	0.253700	0.425700
C3071	C307	0.090020	0.259200	0.501600
C3081	C308	0.097370	0.192500	0.541200
H1501	H150	0.093400	0.141000	0.521800
C3091	C309	0.095960	0.334500	0.531000
H1511	H151	0.090500	0.380000	0.503100
C3101	C310	0.018070	0.027600	0.091300
H1521	H152	0.035100	0.020600	0.126400
C3111	C311	0.012380	0.991600	0.025800
C3121	C312	0.973730	0.089200	0.050200
H1531	H153	0.960800	0.120700	0.057800
C3131	C313	0.969130	0.058100	0.987900
H1541	H154	0.952700	0.070700	0.952300
C3141	C314	0.143800	0.345300	0.147400
H1551	H155	0.140600	0.395600	0.162400
C3151	C315	0.130010	0.131500	0.161300
H1561	H156	0.133400	0.081000	0.146800
C3161	C316	0.115160	0.135700	0.202100
H1571	H157	0.108300	0.089100	0.214100
C3171	C317	0.134160	0.143200	0.723200
H1581	H158	0.139400	0.098200	0.751600
C3181	C318	0.109300	0.346900	0.598400
H1591	H159	0.113100	0.399400	0.615900
C3191	C319	0.990400	0.375500	0.330500
C3201	C320	0.998600	0.423600	0.398700
C3211	C321	0.019300	0.524500	0.591500
H1601	H160	0.035000	0.507300	0.627300
C3221	C322	0.012900	0.497000	0.523500
C3231	C323	0.022900	0.400100	0.449900
H1611	H161	0.034200	0.363700	0.440400
C3241	C324	0.031100	0.430100	0.515800
H1621	H162	0.046300	0.410600	0.551900
O1091	O109	0.006270	0.329500	0.323600
O1101	O110	0.084090	0.155400	0.278300
O1111	O111	0.965890	0.395700	0.287900
O1121	O112	0.071930	0.182100	0.402300
O1131	O113	0.087760	0.294500	0.275800
O1141	O114	0.071290	0.320900	0.393600
O1151	O115	0.988090	0.150900	0.179100
O1161	O116	0.028920	0.089400	0.216100
O1171	O117	0.038260	0.243800	0.270560
O1181	O118	0.163650	0.168800	0.861400
O1191	O119	0.163160	0.305800	0.844500
O1201	O120	0.178760	0.194100	0.008600
O1211	O121	0.178030	0.332000	0.001900
Mg281	Mg28	0.196850	0.148120	0.949340
C3251	C325	0.262100	0.629400	0.612200
C3261	C326	0.284210	0.449800	0.812200
H1631	H163	0.299800	0.431600	0.807600
C3271	C327	0.273100	0.540400	0.712100
H1641	H164	0.288500	0.523100	0.706000
C3281	C328	0.278090	0.421800	0.861800
H1651	H165	0.290400	0.386300	0.892700
C3291	C329	0.232330	0.620200	0.678000
H1661	H166	0.219900	0.656000	0.647700
C3301	C330	0.245400	0.400200	0.918000
C3311	C331	0.236870	0.497000	0.826100
H1671	H167	0.220500	0.510000	0.828800
C3321	C332	0.266870	0.507500	0.766000
C3331	C333	0.244010	0.534200	0.775100
C3341	C334	0.255810	0.598400	0.669400
C3351	C335	0.254600	0.441700	0.871000
C3361	C336	0.227420	0.590600	0.729200
H1681	H168	0.212000	0.608700	0.734400
O1221	O122	0.211590	0.258400	0.946280
O1231	O123	0.221730	0.411600	0.913600
O1241	O124	0.245740	0.680800	0.575500
O1251	O125	0.283540	0.603500	0.606800
O1261	O126	0.262690	0.353100	0.962400
Mg291	Mg29	0.552050	0.637700	0.307820
Mg301	Mg30	0.559540	0.844890	0.297590
Mg311	Mg31	0.690000	0.856360	0.928200
C3371	C337	0.611240	0.711600	0.223400
C3381	C338	0.506790	0.604700	0.172300
C3391	C339	0.592730	0.724600	0.261600
C3401	C340	0.499000	0.570600	0.101600
C3411	C341	0.657060	0.731600	0.826600
C3421	C342	0.657960	0.844300	0.101800
H1691	H169	0.664400	0.892000	0.090200
C3431	C343	0.635460	0.779700	0.168400
C3441	C344	0.674080	0.765700	0.024400
C3451	C345	0.653430	0.696800	0.096700
H1701	H170	0.656700	0.646600	0.081500
C3461	C346	0.661410	0.767700	0.076200
C3471	C347	0.639600	0.701400	0.142800
C3481	C348	0.640130	0.717900	0.749700
C3491	C349	0.621840	0.782100	0.208100
H1711	H171	0.619400	0.831700	0.225700
C3501	C350	0.632370	0.786600	0.710200
H1721	H172	0.637300	0.837700	0.730000
C3511	C351	0.617050	0.780600	0.640200
C3521	C352	0.611250	0.700200	0.613100
C3531	C353	0.620570	0.631600	0.655700
H1731	H173	0.617400	0.579300	0.637700
C3541	C354	0.576520	0.753700	0.425700
C3551	C355	0.590020	0.759200	0.501600
C3561	C356	0.597370	0.692500	0.541200
H1741	H174	0.593400	0.641000	0.521800
C3571	C357	0.595960	0.834500	0.531000
H1751	H175	0.590500	0.880000	0.503100
C3581	C358	0.518070	0.527600	0.091300
H1761	H176	0.535100	0.520600	0.126400
C3591	C359	0.512380	0.491600	0.025800
C3601	C360	0.473730	0.589200	0.050200
H1771	H177	0.460800	0.620700	0.057800
C3611	C361	0.469130	0.558100	0.987900
H1781	H178	0.452700	0.570700	0.952300
C3621	C362	0.643800	0.845300	0.147400
H1791	H179	0.640600	0.895600	0.162400
C3631	C363	0.630010	0.631500	0.161300
H1801	H180	0.633400	0.581000	0.146800
C3641	C364	0.615160	0.635700	0.202100
H1811	H181	0.608300	0.589100	0.214100
C3651	C365	0.634160	0.643200	0.723200
H1821	H182	0.639400	0.598200	0.751600
C3661	C366	0.609300	0.846900	0.598400
H1831	H183	0.613100	0.899400	0.615900
C3671	C367	0.490400	0.875500	0.330500
C3681	C368	0.498600	0.923600	0.398700
C3691	C369	0.519300	0.024500	0.591500
H1841	H184	0.535000	0.007300	0.627300
C3701	C370	0.512900	0.997000	0.523500
C3711	C371	0.522900	0.900100	0.449900
H1851	H185	0.534200	0.863700	0.440400
C3721	C372	0.531100	0.930100	0.515800
H1861	H186	0.546300	0.910600	0.551900
O1271	O127	0.506270	0.829500	0.323600
O1281	O128	0.584090	0.655400	0.278300
O1291	O129	0.465890	0.895700	0.287900
O1301	O130	0.571930	0.682100	0.402300
O1311	O131	0.587760	0.794500	0.275800
O1321	O132	0.571290	0.820900	0.393600
O1331	O133	0.488090	0.650900	0.179100
O1341	O134	0.528920	0.589400	0.216100
O1351	O135	0.538260	0.743800	0.270560
O1361	O136	0.663650	0.668800	0.861400
O1371	O137	0.663160	0.805800	0.844500
O1381	O138	0.678760	0.694100	0.008600
O1391	O139	0.678030	0.832000	0.001900
Mg321	Mg32	0.696850	0.648120	0.949340
C3731	C373	0.762100	0.129400	0.612200
C3741	C374	0.784210	0.949800	0.812200
H1871	H187	0.799800	0.931600	0.807600
C3751	C375	0.773100	0.040400	0.712100
H1881	H188	0.788500	0.023100	0.706000
C3761	C376	0.778090	0.921800	0.861800
H1891	H189	0.790400	0.886300	0.892700
C3771	C377	0.732330	0.120200	0.678000
H1901	H190	0.719900	0.156000	0.647700
C3781	C378	0.745400	0.900200	0.918000
C3791	C379	0.736870	0.997000	0.826100
H1911	H191	0.720500	0.010000	0.828800
C3801	C380	0.766870	0.007500	0.766000
C3811	C381	0.744010	0.034200	0.775100
C3821	C382	0.755810	0.098400	0.669400
C3831	C383	0.754600	0.941700	0.871000
C3841	C384	0.727420	0.090600	0.729200
H1921	H192	0.712000	0.108700	0.734400
O1401	O140	0.711590	0.758400	0.946280
O1411	O141	0.721730	0.911600	0.913600
O1421	O142	0.745740	0.180800	0.575500
O1431	O143	0.783540	0.103500	0.606800
O1441	O144	0.762690	0.853100	0.962400
Mg331	Mg33	0.000000	0.752880	0.750000
Mg341	Mg34	0.500000	0.252880	0.750000
Mg351	Mg35	0.000000	0.247120	0.250000
Mg361	Mg36	0.500000	0.747120	0.250000
Mg371	Mg37	0.250000	0.750000	0.500000
Mg381	Mg38	0.750000	0.750000	0.000000
Mg391	Mg39	0.750000	0.250000	0.500000
Mg401	Mg40	0.250000	0.250000	0.000000
