data_TAGTIH_clean_PM
_symmetry_space_group_name_H-M	'P1'
_cell_length_a	14.138100
_cell_length_b	14.138100
_cell_length_c	21.558000
_cell_angle_alpha	90.000000
_cell_angle_beta	90.000000
_cell_angle_gamma	120.000000
_symmetry_Int_Tables_number 1

loop_
_symmetry_equiv_pos_as_xyz
'x,y,z'

loop_
_atom_site_label
_atom_site_type_symbol
_atom_site_fract_x
_atom_site_fract_y
_atom_site_fract_z
C11	C1	0.193500	0.003200	0.084800
C21	C2	0.270800	0.999000	0.131100
C31	C3	0.295500	0.918600	0.144200
H11	H1	0.265200	0.850400	0.125400
O11	O1	0.202300	0.093900	0.075570
O21	O2	0.129900	0.916200	0.061000
C41	C4	0.860170	0.336530	0.418130
C51	C5	0.937470	0.332330	0.464430
C61	C6	0.962170	0.251930	0.477530
H21	H2	0.931870	0.183730	0.458730
O31	O3	0.868970	0.427230	0.408900
O41	O4	0.796570	0.249530	0.394330
C71	C7	0.526830	0.669870	0.751470
C81	C8	0.604130	0.665670	0.797770
C91	C9	0.628830	0.585270	0.810870
H31	H3	0.598530	0.517070	0.792070
O51	O5	0.535630	0.760570	0.742240
O61	O6	0.463230	0.582870	0.727670
C101	C10	0.996800	0.190300	0.084800
C111	C11	0.001000	0.271800	0.131100
C121	C12	0.081400	0.376900	0.144200
H41	H4	0.149600	0.414800	0.125400
O71	O7	0.906100	0.108400	0.075570
O81	O8	0.083800	0.213700	0.061000
C131	C13	0.663470	0.523630	0.418130
C141	C14	0.667670	0.605130	0.464430
C151	C15	0.748070	0.710230	0.477530
H51	H5	0.816270	0.748130	0.458730
O91	O9	0.572770	0.441730	0.408900
O101	O10	0.750470	0.547030	0.394330
C161	C16	0.330130	0.856970	0.751470
C171	C17	0.334330	0.938470	0.797770
C181	C18	0.414730	0.043570	0.810870
H61	H6	0.482930	0.081470	0.792070
O111	O11	0.239430	0.775070	0.742240
O121	O12	0.417130	0.880370	0.727670
C191	C19	0.809700	0.806500	0.084800
C201	C20	0.728200	0.729200	0.131100
C211	C21	0.623100	0.704500	0.144200
H71	H7	0.585200	0.734800	0.125400
O131	O13	0.891600	0.797700	0.075570
O141	O14	0.786300	0.870100	0.061000
C221	C22	0.476370	0.139830	0.418130
C231	C23	0.394870	0.062530	0.464430
C241	C24	0.289770	0.037830	0.477530
H81	H8	0.251870	0.068130	0.458730
O151	O15	0.558270	0.131030	0.408900
O161	O16	0.452970	0.203430	0.394330
C251	C25	0.143030	0.473170	0.751470
C261	C26	0.061530	0.395870	0.797770
C271	C27	0.956430	0.371170	0.810870
H91	H9	0.918530	0.401470	0.792070
O171	O17	0.224930	0.464370	0.742240
O181	O18	0.119630	0.536770	0.727670
C281	C28	0.003200	0.193500	0.915200
C291	C29	0.999000	0.270800	0.868900
C301	C30	0.918600	0.295500	0.855800
H101	H10	0.850400	0.265200	0.874600
O191	O19	0.093900	0.202300	0.924430
O201	O20	0.916200	0.129900	0.939000
C311	C31	0.669870	0.526830	0.248530
C321	C32	0.665670	0.604130	0.202230
C331	C33	0.585270	0.628830	0.189130
H111	H11	0.517070	0.598530	0.207930
O211	O21	0.760570	0.535630	0.257760
O221	O22	0.582870	0.463230	0.272330
C341	C34	0.336530	0.860170	0.581870
C351	C35	0.332330	0.937470	0.535570
C361	C36	0.251930	0.962170	0.522470
H121	H12	0.183730	0.931870	0.541270
O231	O23	0.427230	0.868970	0.591100
O241	O24	0.249530	0.796570	0.605670
C371	C37	0.190300	0.996800	0.915200
C381	C38	0.271800	0.001000	0.868900
C391	C39	0.376900	0.081400	0.855800
H131	H13	0.414800	0.149600	0.874600
O251	O25	0.108400	0.906100	0.924430
O261	O26	0.213700	0.083800	0.939000
C401	C40	0.856970	0.330130	0.248530
C411	C41	0.938470	0.334330	0.202230
C421	C42	0.043570	0.414730	0.189130
H141	H14	0.081470	0.482930	0.207930
O271	O27	0.775070	0.239430	0.257760
O281	O28	0.880370	0.417130	0.272330
C431	C43	0.523630	0.663470	0.581870
C441	C44	0.605130	0.667670	0.535570
C451	C45	0.710230	0.748070	0.522470
H151	H15	0.748130	0.816270	0.541270
O291	O29	0.441730	0.572770	0.591100
O301	O30	0.547030	0.750470	0.605670
C461	C46	0.806500	0.809700	0.915200
C471	C47	0.729200	0.728200	0.868900
C481	C48	0.704500	0.623100	0.855800
H161	H16	0.734800	0.585200	0.874600
O311	O31	0.797700	0.891600	0.924430
O321	O32	0.870100	0.786300	0.939000
C491	C49	0.473170	0.143030	0.248530
C501	C50	0.395870	0.061530	0.202230
C511	C51	0.371170	0.956430	0.189130
H171	H17	0.401470	0.918530	0.207930
O331	O33	0.464370	0.224930	0.257760
O341	O34	0.536770	0.119630	0.272330
C521	C52	0.139830	0.476370	0.581870
C531	C53	0.062530	0.394870	0.535570
C541	C54	0.037830	0.289770	0.522470
H181	H18	0.068130	0.251870	0.541270
O351	O35	0.131030	0.558270	0.591100
O361	O36	0.203430	0.452970	0.605670
Mg11	Mg1	0.142890	0.142890	0.000000
Mg21	Mg2	0.809560	0.476220	0.333330
Mg31	Mg3	0.476220	0.809560	0.666670
Mg41	Mg4	0.857110	0.000000	0.000000
Mg51	Mg5	0.523780	0.333330	0.333330
Mg61	Mg6	0.190440	0.666670	0.666670
Mg71	Mg7	0.000000	0.857110	0.000000
Mg81	Mg8	0.666670	0.190440	0.333330
Mg91	Mg9	0.333330	0.523780	0.666670
O371	O37	0.333330	0.087220	0.166670
O381	O38	0.000000	0.420550	0.500000
O391	O39	0.912780	0.246120	0.166670
O401	O40	0.579450	0.579450	0.500000
O411	O41	0.753880	0.666670	0.166670
O421	O42	0.420550	0.000000	0.500000
O431	O43	0.087220	0.333330	0.833330
O441	O44	0.246120	0.912780	0.833330
O451	O45	0.666670	0.753880	0.833330
O461	O46	0.000000	0.000000	0.000000
O471	O47	0.666670	0.333330	0.333330
O481	O48	0.333330	0.666670	0.666670
