data_TAGVAB_clean_PM
_symmetry_space_group_name_H-M	'P1'
_cell_length_a	22.810400
_cell_length_b	22.810400
_cell_length_c	16.809900
_cell_angle_alpha	90.000000
_cell_angle_beta	90.000000
_cell_angle_gamma	120.000000
_symmetry_Int_Tables_number 1

loop_
_symmetry_equiv_pos_as_xyz
'x,y,z'

loop_
_atom_site_label
_atom_site_type_symbol
_atom_site_fract_x
_atom_site_fract_y
_atom_site_fract_z
Mg11	Mg1	0.734820	0.961720	0.706700
Mg21	Mg2	0.560310	0.931670	0.732320
Mg31	Mg3	0.706160	0.107650	0.712000
C11	C1	0.604500	0.761700	0.053200
C21	C2	0.554300	0.776800	0.029700
H11	H1	0.515200	0.761300	0.060200
C31	C3	0.562500	0.815400	0.960500
H21	H2	0.528100	0.823100	0.943700
C41	C4	0.622300	0.841500	0.918200
C51	C5	0.672200	0.830200	0.944800
H31	H3	0.713700	0.851000	0.918600
C61	C6	0.663600	0.789100	0.009200
H41	H4	0.697600	0.779700	0.023000
C71	C7	0.594000	0.718800	0.124000
C81	C8	0.630900	0.879500	0.840500
C91	C9	0.816800	0.098300	0.511200
C101	C10	0.819400	0.158200	0.483300
H51	H5	0.797000	0.176900	0.510200
C111	C11	0.856800	0.188700	0.414100
H61	H6	0.856600	0.226400	0.393300
C121	C12	0.892300	0.165100	0.378000
C131	C13	0.887600	0.106100	0.402900
H71	H7	0.908300	0.086800	0.373600
C141	C14	0.851900	0.074300	0.472200
H81	H8	0.852400	0.036300	0.491500
C151	C15	0.776100	0.069200	0.582400
C161	C16	0.941500	0.199200	0.301400
C171	C17	0.546600	0.048800	0.540600
C181	C18	0.564500	0.115300	0.509900
H91	H9	0.597900	0.153800	0.535100
C191	C19	0.531900	0.121900	0.442500
H101	H10	0.542200	0.164400	0.423600
C201	C20	0.483200	0.062300	0.404600
C211	C21	0.457200	0.000500	0.433800
H111	H11	0.419900	0.963700	0.410800
C221	C22	0.489200	0.993500	0.501900
H121	H12	0.472300	0.950400	0.523200
C231	C23	0.579700	0.040900	0.608900
C241	C24	0.445700	0.071500	0.330600
O11	O1	0.643600	0.719200	0.155300
O21	O2	0.534200	0.683900	0.149300
O31	O3	0.686100	0.908200	0.808500
O41	O4	0.577500	0.882800	0.817900
O51	O5	0.747300	0.098300	0.614700
O61	O6	0.781300	0.021000	0.608100
O71	O7	0.979600	0.182300	0.281300
O81	O8	0.940800	0.251500	0.271900
O91	O9	0.624900	0.091500	0.640400
O101	O10	0.553000	0.982000	0.639500
O111	O11	0.460600	0.128500	0.311200
O121	O12	0.407200	0.020600	0.291000
Mg41	Mg4	0.038280	0.773100	0.706700
Mg51	Mg5	0.068330	0.628640	0.732320
Mg61	Mg6	0.892350	0.598510	0.712000
C251	C25	0.238300	0.842800	0.053200
C261	C26	0.223200	0.777500	0.029700
H131	H13	0.238700	0.753900	0.060200
C271	C27	0.184600	0.747100	0.960500
H141	H14	0.176900	0.705000	0.943700
C281	C28	0.158500	0.780800	0.918200
C291	C29	0.169800	0.842000	0.944800
H151	H15	0.149000	0.862700	0.918600
C301	C30	0.210900	0.874500	0.009200
H161	H16	0.220300	0.917900	0.023000
C311	C31	0.281200	0.875200	0.124000
C321	C32	0.120500	0.751400	0.840500
C331	C33	0.901700	0.718500	0.511200
C341	C34	0.841800	0.661200	0.483300
H171	H17	0.823100	0.620100	0.510200
C351	C35	0.811300	0.668100	0.414100
H181	H18	0.773600	0.630200	0.393300
C361	C36	0.834900	0.727200	0.378000
C371	C37	0.893900	0.781500	0.402900
H191	H19	0.913200	0.821500	0.373600
C381	C38	0.925700	0.777600	0.472200
H201	H20	0.963700	0.816100	0.491500
C391	C39	0.930800	0.706900	0.582400
C401	C40	0.800800	0.742300	0.301400
C411	C41	0.951200	0.497800	0.540600
C421	C42	0.884700	0.449200	0.509900
H211	H21	0.846200	0.444100	0.535100
C431	C43	0.878100	0.410000	0.442500
H221	H22	0.835600	0.377800	0.423600
C441	C44	0.937700	0.420900	0.404600
C451	C45	0.999500	0.456700	0.433800
H231	H23	0.036300	0.456200	0.410800
C461	C46	0.006500	0.495700	0.501900
H241	H24	0.049600	0.521900	0.523200
C471	C47	0.959100	0.538800	0.608900
C481	C48	0.928500	0.374200	0.330600
O131	O13	0.280800	0.924400	0.155300
O141	O14	0.316100	0.850300	0.149300
O151	O15	0.091800	0.777900	0.808500
O161	O16	0.117200	0.694700	0.817900
O171	O17	0.901700	0.649000	0.614700
O181	O18	0.979000	0.760300	0.608100
O191	O19	0.817700	0.797300	0.281300
O201	O20	0.748500	0.689300	0.271900
O211	O21	0.908500	0.533400	0.640400
O221	O22	0.018000	0.571000	0.639500
O231	O23	0.871500	0.332100	0.311200
O241	O24	0.979400	0.386600	0.291000
Mg71	Mg7	0.226900	0.265180	0.706700
Mg81	Mg8	0.371360	0.439690	0.732320
Mg91	Mg9	0.401490	0.293840	0.712000
C491	C49	0.157200	0.395500	0.053200
C501	C50	0.222500	0.445700	0.029700
H251	H25	0.246100	0.484800	0.060200
C511	C51	0.252900	0.437500	0.960500
H261	H26	0.295000	0.471900	0.943700
C521	C52	0.219200	0.377700	0.918200
C531	C53	0.158000	0.327800	0.944800
H271	H27	0.137300	0.286300	0.918600
C541	C54	0.125500	0.336400	0.009200
H281	H28	0.082100	0.302400	0.023000
C551	C55	0.124800	0.406000	0.124000
C561	C56	0.248600	0.369100	0.840500
C571	C57	0.281500	0.183200	0.511200
C581	C58	0.338800	0.180600	0.483300
H291	H29	0.379900	0.203000	0.510200
C591	C59	0.331900	0.143200	0.414100
H301	H30	0.369800	0.143400	0.393300
C601	C60	0.272800	0.107700	0.378000
C611	C61	0.218500	0.112400	0.402900
H311	H31	0.178500	0.091700	0.373600
C621	C62	0.222400	0.148100	0.472200
H321	H32	0.183900	0.147600	0.491500
C631	C63	0.293100	0.223900	0.582400
C641	C64	0.257700	0.058500	0.301400
C651	C65	0.502200	0.453400	0.540600
C661	C66	0.550800	0.435500	0.509900
H331	H33	0.555900	0.402100	0.535100
C671	C67	0.590000	0.468100	0.442500
H341	H34	0.622200	0.457800	0.423600
C681	C68	0.579100	0.516800	0.404600
C691	C69	0.543300	0.542800	0.433800
H351	H35	0.543800	0.580100	0.410800
C701	C70	0.504300	0.510800	0.501900
H361	H36	0.478100	0.527700	0.523200
C711	C71	0.461200	0.420300	0.608900
C721	C72	0.625800	0.554300	0.330600
O251	O25	0.075600	0.356400	0.155300
O261	O26	0.149700	0.465800	0.149300
O271	O27	0.222100	0.313900	0.808500
O281	O28	0.305300	0.422500	0.817900
O291	O29	0.351000	0.252700	0.614700
O301	O30	0.239700	0.218700	0.608100
O311	O31	0.202700	0.020400	0.281300
O321	O32	0.310700	0.059200	0.271900
O331	O33	0.466600	0.375100	0.640400
O341	O34	0.429000	0.447000	0.639500
O351	O35	0.667900	0.539400	0.311200
O361	O36	0.613400	0.592800	0.291000
Mg101	Mg10	0.038280	0.265180	0.206700
Mg111	Mg11	0.068330	0.439690	0.232320
Mg121	Mg12	0.892350	0.293840	0.212000
C731	C73	0.238300	0.395500	0.553200
C741	C74	0.223200	0.445700	0.529700
H371	H37	0.238700	0.484800	0.560200
C751	C75	0.184600	0.437500	0.460500
H381	H38	0.176900	0.471900	0.443700
C761	C76	0.158500	0.377700	0.418200
C771	C77	0.169800	0.327800	0.444800
H391	H39	0.149000	0.286300	0.418600
C781	C78	0.210900	0.336400	0.509200
H401	H40	0.220300	0.302400	0.523000
C791	C79	0.281200	0.406000	0.624000
C801	C80	0.120500	0.369100	0.340500
C811	C81	0.901700	0.183200	0.011200
C821	C82	0.841800	0.180600	0.983300
H411	H41	0.823100	0.203000	0.010200
C831	C83	0.811300	0.143200	0.914100
H421	H42	0.773600	0.143400	0.893300
C841	C84	0.834900	0.107700	0.878000
C851	C85	0.893900	0.112400	0.902900
H431	H43	0.913200	0.091700	0.873600
C861	C86	0.925700	0.148100	0.972200
H441	H44	0.963700	0.147600	0.991500
C871	C87	0.930800	0.223900	0.082400
C881	C88	0.800800	0.058500	0.801400
C891	C89	0.951200	0.453400	0.040600
C901	C90	0.884700	0.435500	0.009900
H451	H45	0.846200	0.402100	0.035100
C911	C91	0.878100	0.468100	0.942500
H461	H46	0.835600	0.457800	0.923600
C921	C92	0.937700	0.516800	0.904600
C931	C93	0.999500	0.542800	0.933800
H471	H47	0.036300	0.580100	0.910800
C941	C94	0.006500	0.510800	0.001900
H481	H48	0.049600	0.527700	0.023200
C951	C95	0.959100	0.420300	0.108900
C961	C96	0.928500	0.554300	0.830600
O371	O37	0.280800	0.356400	0.655300
O381	O38	0.316100	0.465800	0.649300
O391	O39	0.091800	0.313900	0.308500
O401	O40	0.117200	0.422500	0.317900
O411	O41	0.901700	0.252700	0.114700
O421	O42	0.979000	0.218700	0.108100
O431	O43	0.817700	0.020400	0.781300
O441	O44	0.748500	0.059200	0.771900
O451	O45	0.908500	0.375100	0.140400
O461	O46	0.018000	0.447000	0.139500
O471	O47	0.871500	0.539400	0.811200
O481	O48	0.979400	0.592800	0.791000
Mg131	Mg13	0.226900	0.961720	0.206700
Mg141	Mg14	0.371360	0.931670	0.232320
Mg151	Mg15	0.401490	0.107650	0.212000
C971	C97	0.157200	0.761700	0.553200
C981	C98	0.222500	0.776800	0.529700
H491	H49	0.246100	0.761300	0.560200
C991	C99	0.252900	0.815400	0.460500
H501	H50	0.295000	0.823100	0.443700
C1001	C100	0.219200	0.841500	0.418200
C1011	C101	0.158000	0.830200	0.444800
H511	H51	0.137300	0.851000	0.418600
C1021	C102	0.125500	0.789100	0.509200
H521	H52	0.082100	0.779700	0.523000
C1031	C103	0.124800	0.718800	0.624000
C1041	C104	0.248600	0.879500	0.340500
C1051	C105	0.281500	0.098300	0.011200
C1061	C106	0.338800	0.158200	0.983300
H531	H53	0.379900	0.176900	0.010200
C1071	C107	0.331900	0.188700	0.914100
H541	H54	0.369800	0.226400	0.893300
C1081	C108	0.272800	0.165100	0.878000
C1091	C109	0.218500	0.106100	0.902900
H551	H55	0.178500	0.086800	0.873600
C1101	C110	0.222400	0.074300	0.972200
H561	H56	0.183900	0.036300	0.991500
C1111	C111	0.293100	0.069200	0.082400
C1121	C112	0.257700	0.199200	0.801400
C1131	C113	0.502200	0.048800	0.040600
C1141	C114	0.550800	0.115300	0.009900
H571	H57	0.555900	0.153800	0.035100
C1151	C115	0.590000	0.121900	0.942500
H581	H58	0.622200	0.164400	0.923600
C1161	C116	0.579100	0.062300	0.904600
C1171	C117	0.543300	0.000500	0.933800
H591	H59	0.543800	0.963700	0.910800
C1181	C118	0.504300	0.993500	0.001900
H601	H60	0.478100	0.950400	0.023200
C1191	C119	0.461200	0.040900	0.108900
C1201	C120	0.625800	0.071500	0.830600
O491	O49	0.075600	0.719200	0.655300
O501	O50	0.149700	0.683900	0.649300
O511	O51	0.222100	0.908200	0.308500
O521	O52	0.305300	0.882800	0.317900
O531	O53	0.351000	0.098300	0.114700
O541	O54	0.239700	0.021000	0.108100
O551	O55	0.202700	0.182300	0.781300
O561	O56	0.310700	0.251500	0.771900
O571	O57	0.466600	0.091500	0.140400
O581	O58	0.429000	0.982000	0.139500
O591	O59	0.667900	0.128500	0.811200
O601	O60	0.613400	0.020600	0.791000
Mg161	Mg16	0.734820	0.773100	0.206700
Mg171	Mg17	0.560310	0.628640	0.232320
Mg181	Mg18	0.706160	0.598510	0.212000
C1211	C121	0.604500	0.842800	0.553200
C1221	C122	0.554300	0.777500	0.529700
H611	H61	0.515200	0.753900	0.560200
C1231	C123	0.562500	0.747100	0.460500
H621	H62	0.528100	0.705000	0.443700
C1241	C124	0.622300	0.780800	0.418200
C1251	C125	0.672200	0.842000	0.444800
H631	H63	0.713700	0.862700	0.418600
C1261	C126	0.663600	0.874500	0.509200
H641	H64	0.697600	0.917900	0.523000
C1271	C127	0.594000	0.875200	0.624000
C1281	C128	0.630900	0.751400	0.340500
C1291	C129	0.816800	0.718500	0.011200
C1301	C130	0.819400	0.661200	0.983300
H651	H65	0.797000	0.620100	0.010200
C1311	C131	0.856800	0.668100	0.914100
H661	H66	0.856600	0.630200	0.893300
C1321	C132	0.892300	0.727200	0.878000
C1331	C133	0.887600	0.781500	0.902900
H671	H67	0.908300	0.821500	0.873600
C1341	C134	0.851900	0.777600	0.972200
H681	H68	0.852400	0.816100	0.991500
C1351	C135	0.776100	0.706900	0.082400
C1361	C136	0.941500	0.742300	0.801400
C1371	C137	0.546600	0.497800	0.040600
C1381	C138	0.564500	0.449200	0.009900
H691	H69	0.597900	0.444100	0.035100
C1391	C139	0.531900	0.410000	0.942500
H701	H70	0.542200	0.377800	0.923600
C1401	C140	0.483200	0.420900	0.904600
C1411	C141	0.457200	0.456700	0.933800
H711	H71	0.419900	0.456200	0.910800
C1421	C142	0.489200	0.495700	0.001900
H721	H72	0.472300	0.521900	0.023200
C1431	C143	0.579700	0.538800	0.108900
C1441	C144	0.445700	0.374200	0.830600
O611	O61	0.643600	0.924400	0.655300
O621	O62	0.534200	0.850300	0.649300
O631	O63	0.686100	0.777900	0.308500
O641	O64	0.577500	0.694700	0.317900
O651	O65	0.747300	0.649000	0.114700
O661	O66	0.781300	0.760300	0.108100
O671	O67	0.979600	0.797300	0.781300
O681	O68	0.940800	0.689300	0.771900
O691	O69	0.624900	0.533400	0.140400
O701	O70	0.553000	0.571000	0.139500
O711	O71	0.460600	0.332100	0.811200
O721	O72	0.407200	0.386600	0.791000
