data_TAHNEY_clean_PM
_symmetry_space_group_name_H-M	'P1'
_cell_length_a	16.682000
_cell_length_b	21.662000
_cell_length_c	27.674000
_cell_angle_alpha	90.000000
_cell_angle_beta	96.490000
_cell_angle_gamma	90.000000
_symmetry_Int_Tables_number 1

loop_
_symmetry_equiv_pos_as_xyz
'x,y,z'

loop_
_atom_site_label
_atom_site_type_symbol
_atom_site_fract_x
_atom_site_fract_y
_atom_site_fract_z
W11	W1	0.763000	0.904000	0.135300
W21	W2	0.143380	0.002190	0.415600
Cu11	Cu1	0.882600	0.984640	0.170320
Cu21	Cu2	0.692460	0.931860	0.213190
Cu31	Cu3	0.841010	0.881660	0.059280
Cu41	Cu4	0.252490	0.020450	0.492080
Cu51	Cu5	0.045780	0.986790	0.333770
Cu61	Cu6	0.259730	0.025940	0.355120
Cu71	Cu7	0.139490	0.166340	0.221660
Cu81	Cu8	0.036850	0.152740	0.094000
Cu91	Cu9	0.550920	0.971480	0.358890
S11	S1	0.744080	0.999040	0.163630
S21	S2	0.708100	0.838100	0.182350
S31	S3	0.708340	0.896700	0.058910
S41	S4	0.895550	0.887010	0.136580
S51	S5	0.157600	0.946880	0.482950
S61	S6	0.233810	0.079300	0.425330
S71	S7	0.168540	0.944050	0.352100
S81	S8	0.020610	0.039750	0.399650
S91	S9	0.161750	0.165600	0.143540
N11	N1	0.935200	0.052700	0.138400
N21	N2	0.638300	0.949100	0.268400
N31	N3	0.927200	0.858000	0.970100
N41	N4	0.373500	0.031300	0.581500
N51	N5	0.935300	0.975800	0.239400
N61	N6	0.372400	0.002100	0.353900
N71	N7	0.213300	0.081700	0.301200
C11	C1	0.972000	0.089800	0.119800
C21	C2	0.605600	0.958600	0.302300
C31	C3	0.894100	0.867100	0.004600
C41	C4	0.328500	0.029300	0.547800
C51	C5	0.975600	0.978300	0.275500
C61	C6	0.440100	0.989700	0.356000
C71	C7	0.181800	0.111500	0.271100
W31	W3	0.237000	0.404000	0.864700
W41	W4	0.856620	0.502190	0.584400
Cu101	Cu10	0.117400	0.484640	0.829680
Cu111	Cu11	0.307540	0.431860	0.786810
Cu121	Cu12	0.158990	0.381660	0.940720
Cu131	Cu13	0.747510	0.520450	0.507920
Cu141	Cu14	0.954220	0.486790	0.666230
Cu151	Cu15	0.740270	0.525940	0.644880
Cu161	Cu16	0.860510	0.666340	0.778340
Cu171	Cu17	0.963150	0.652740	0.906000
Cu181	Cu18	0.449080	0.471480	0.641110
S101	S10	0.255920	0.499040	0.836370
S111	S11	0.291900	0.338100	0.817650
S121	S12	0.291660	0.396700	0.941090
S131	S13	0.104450	0.387010	0.863420
S141	S14	0.842400	0.446880	0.517050
S151	S15	0.766190	0.579300	0.574670
S161	S16	0.831460	0.444050	0.647900
S171	S17	0.979390	0.539750	0.600350
S181	S18	0.838250	0.665600	0.856460
N81	N8	0.064800	0.552700	0.861600
N91	N9	0.361700	0.449100	0.731600
N101	N10	0.072800	0.358000	0.029900
N111	N11	0.626500	0.531300	0.418500
N121	N12	0.064700	0.475800	0.760600
N131	N13	0.627600	0.502100	0.646100
N141	N14	0.786700	0.581700	0.698800
C81	C8	0.028000	0.589800	0.880200
C91	C9	0.394400	0.458600	0.697700
C101	C10	0.105900	0.367100	0.995400
C111	C11	0.671500	0.529300	0.452200
C121	C12	0.024400	0.478300	0.724500
C131	C13	0.559900	0.489700	0.644000
C141	C14	0.818200	0.611500	0.728900
W51	W5	0.237000	0.096000	0.864700
W61	W6	0.856620	0.997810	0.584400
Cu191	Cu19	0.117400	0.015360	0.829680
Cu201	Cu20	0.307540	0.068140	0.786810
Cu211	Cu21	0.158990	0.118340	0.940720
Cu221	Cu22	0.747510	0.979550	0.507920
Cu231	Cu23	0.954220	0.013210	0.666230
Cu241	Cu24	0.740270	0.974060	0.644880
Cu251	Cu25	0.860510	0.833660	0.778340
Cu261	Cu26	0.963150	0.847260	0.906000
Cu271	Cu27	0.449080	0.028520	0.641110
S191	S19	0.255920	0.000960	0.836370
S201	S20	0.291900	0.161900	0.817650
S211	S21	0.291660	0.103300	0.941090
S221	S22	0.104450	0.112990	0.863420
S231	S23	0.842400	0.053120	0.517050
S241	S24	0.766190	0.920700	0.574670
S251	S25	0.831460	0.055950	0.647900
S261	S26	0.979390	0.960250	0.600350
S271	S27	0.838250	0.834400	0.856460
N151	N15	0.064800	0.947300	0.861600
N161	N16	0.361700	0.050900	0.731600
N171	N17	0.072800	0.142000	0.029900
N181	N18	0.626500	0.968700	0.418500
N191	N19	0.064700	0.024200	0.760600
N201	N20	0.627600	0.997900	0.646100
N211	N21	0.786700	0.918300	0.698800
C151	C15	0.028000	0.910200	0.880200
C161	C16	0.394400	0.041400	0.697700
C171	C17	0.105900	0.132900	0.995400
C181	C18	0.671500	0.970700	0.452200
C191	C19	0.024400	0.021700	0.724500
C201	C20	0.559900	0.010300	0.644000
C211	C21	0.818200	0.888500	0.728900
W71	W7	0.763000	0.596000	0.135300
W81	W8	0.143380	0.497810	0.415600
Cu281	Cu28	0.882600	0.515360	0.170320
Cu291	Cu29	0.692460	0.568140	0.213190
Cu301	Cu30	0.841010	0.618340	0.059280
Cu311	Cu31	0.252490	0.479550	0.492080
Cu321	Cu32	0.045780	0.513210	0.333770
Cu331	Cu33	0.259730	0.474060	0.355120
Cu341	Cu34	0.139490	0.333660	0.221660
Cu351	Cu35	0.036850	0.347260	0.094000
Cu361	Cu36	0.550920	0.528520	0.358890
S281	S28	0.744080	0.500960	0.163630
S291	S29	0.708100	0.661900	0.182350
S301	S30	0.708340	0.603300	0.058910
S311	S31	0.895550	0.612990	0.136580
S321	S32	0.157600	0.553120	0.482950
S331	S33	0.233810	0.420700	0.425330
S341	S34	0.168540	0.555950	0.352100
S351	S35	0.020610	0.460250	0.399650
S361	S36	0.161750	0.334400	0.143540
N221	N22	0.935200	0.447300	0.138400
N231	N23	0.638300	0.550900	0.268400
N241	N24	0.927200	0.642000	0.970100
N251	N25	0.373500	0.468700	0.581500
N261	N26	0.935300	0.524200	0.239400
N271	N27	0.372400	0.497900	0.353900
N281	N28	0.213300	0.418300	0.301200
C221	C22	0.972000	0.410200	0.119800
C231	C23	0.605600	0.541400	0.302300
C241	C24	0.894100	0.632900	0.004600
C251	C25	0.328500	0.470700	0.547800
C261	C26	0.975600	0.521700	0.275500
C271	C27	0.440100	0.510300	0.356000
C281	C28	0.181800	0.388500	0.271100
W91	W9	0.090510	0.250000	0.155210
S371	S37	0.064200	0.250000	0.233380
S381	S38	0.977600	0.250000	0.105440
W101	W10	0.909490	0.750000	0.844790
S391	S39	0.935800	0.750000	0.766620
S401	S40	0.022400	0.750000	0.894560
