data_TAJXIO03_clean_PM
_symmetry_space_group_name_H-M	'P1'
_cell_length_a	7.172800
_cell_length_b	23.753700
_cell_length_c	30.701000
_cell_angle_alpha	90.000000
_cell_angle_beta	90.000000
_cell_angle_gamma	90.000000
_symmetry_Int_Tables_number 1

loop_
_symmetry_equiv_pos_as_xyz
'x,y,z'

loop_
_atom_site_label
_atom_site_type_symbol
_atom_site_fract_x
_atom_site_fract_y
_atom_site_fract_z
Ag11	Ag1	0.195370	0.769970	0.290770
Ag21	Ag2	0.530580	0.442860	0.484300
O11	O1	0.345000	0.695830	0.314010
O21	O2	0.453800	0.667200	0.249190
O31	O3	0.482300	0.587810	0.446420
O41	O4	0.661200	0.511250	0.441560
N11	N1	0.107600	0.812580	0.357640
N21	N2	0.017200	0.874250	0.431580
C11	C1	0.999600	0.858300	0.355580
H11	H1	0.952600	0.870300	0.328200
C21	C2	0.955000	0.888510	0.392640
H21	H2	0.876800	0.920600	0.390000
C31	C3	0.124300	0.828180	0.433720
H31	H3	0.170500	0.816300	0.461200
C41	C4	0.169100	0.797560	0.396990
H41	H4	0.245400	0.765100	0.399800
C51	C5	0.435000	0.663480	0.289820
C61	C6	0.530700	0.614530	0.311730
C71	C7	0.639400	0.577060	0.287680
H51	H5	0.650100	0.581400	0.257000
C81	C8	0.732100	0.533380	0.308650
H61	H6	0.806700	0.507900	0.292400
C91	C9	0.715700	0.527090	0.352850
H71	H7	0.781300	0.497600	0.367000
C101	C10	0.604700	0.563220	0.377330
C111	C11	0.513400	0.607240	0.356450
H81	H8	0.438700	0.632500	0.372900
C121	C12	0.581000	0.553660	0.425400
Ag31	Ag3	0.695370	0.269970	0.790770
Ag41	Ag4	0.030580	0.942860	0.984300
O51	O5	0.845000	0.195830	0.814010
O61	O6	0.953800	0.167200	0.749190
O71	O7	0.982300	0.087810	0.946420
O81	O8	0.161200	0.011250	0.941560
N31	N3	0.607600	0.312580	0.857640
N41	N4	0.517200	0.374250	0.931580
C131	C13	0.499600	0.358300	0.855580
H91	H9	0.452600	0.370300	0.828200
C141	C14	0.455000	0.388510	0.892640
H101	H10	0.376800	0.420600	0.890000
C151	C15	0.624300	0.328180	0.933720
H111	H11	0.670500	0.316300	0.961200
C161	C16	0.669100	0.297560	0.896990
H121	H12	0.745400	0.265100	0.899800
C171	C17	0.935000	0.163480	0.789820
C181	C18	0.030700	0.114530	0.811730
C191	C19	0.139400	0.077060	0.787680
H131	H13	0.150100	0.081400	0.757000
C201	C20	0.232100	0.033380	0.808650
H141	H14	0.306700	0.007900	0.792400
C211	C21	0.215700	0.027090	0.852850
H151	H15	0.281300	0.997600	0.867000
C221	C22	0.104700	0.063220	0.877330
C231	C23	0.013400	0.107240	0.856450
H161	H16	0.938700	0.132500	0.872900
C241	C24	0.081000	0.053660	0.925400
Ag51	Ag5	0.304630	0.230030	0.790770
Ag61	Ag6	0.969420	0.557140	0.984300
O91	O9	0.155000	0.304170	0.814010
O101	O10	0.046200	0.332800	0.749190
O111	O11	0.017700	0.412190	0.946420
O121	O12	0.838800	0.488750	0.941560
N51	N5	0.392400	0.187420	0.857640
N61	N6	0.482800	0.125750	0.931580
C251	C25	0.500400	0.141700	0.855580
H171	H17	0.547400	0.129700	0.828200
C261	C26	0.545000	0.111490	0.892640
H181	H18	0.623200	0.079400	0.890000
C271	C27	0.375700	0.171820	0.933720
H191	H19	0.329500	0.183700	0.961200
C281	C28	0.330900	0.202440	0.896990
H201	H20	0.254600	0.234900	0.899800
C291	C29	0.065000	0.336520	0.789820
C301	C30	0.969300	0.385470	0.811730
C311	C31	0.860600	0.422940	0.787680
H211	H21	0.849900	0.418600	0.757000
C321	C32	0.767900	0.466620	0.808650
H221	H22	0.693300	0.492100	0.792400
C331	C33	0.784300	0.472910	0.852850
H231	H23	0.718700	0.502400	0.867000
C341	C34	0.895300	0.436780	0.877330
C351	C35	0.986600	0.392760	0.856450
H241	H24	0.061300	0.367500	0.872900
C361	C36	0.919000	0.446340	0.925400
Ag71	Ag7	0.804630	0.730030	0.290770
Ag81	Ag8	0.469420	0.057140	0.484300
O131	O13	0.655000	0.804170	0.314010
O141	O14	0.546200	0.832800	0.249190
O151	O15	0.517700	0.912190	0.446420
O161	O16	0.338800	0.988750	0.441560
N71	N7	0.892400	0.687420	0.357640
N81	N8	0.982800	0.625750	0.431580
C371	C37	0.000400	0.641700	0.355580
H251	H25	0.047400	0.629700	0.328200
C381	C38	0.045000	0.611490	0.392640
H261	H26	0.123200	0.579400	0.390000
C391	C39	0.875700	0.671820	0.433720
H271	H27	0.829500	0.683700	0.461200
C401	C40	0.830900	0.702440	0.396990
H281	H28	0.754600	0.734900	0.399800
C411	C41	0.565000	0.836520	0.289820
C421	C42	0.469300	0.885470	0.311730
C431	C43	0.360600	0.922940	0.287680
H291	H29	0.349900	0.918600	0.257000
C441	C44	0.267900	0.966620	0.308650
H301	H30	0.193300	0.992100	0.292400
C451	C45	0.284300	0.972910	0.352850
H311	H31	0.218700	0.002400	0.367000
C461	C46	0.395300	0.936780	0.377330
C471	C47	0.486600	0.892760	0.356450
H321	H32	0.561300	0.867500	0.372900
C481	C48	0.419000	0.946340	0.425400
Ag91	Ag9	0.804630	0.269970	0.209230
Ag101	Ag10	0.469420	0.942860	0.015700
O171	O17	0.655000	0.195830	0.185990
O181	O18	0.546200	0.167200	0.250810
O191	O19	0.517700	0.087810	0.053580
O201	O20	0.338800	0.011250	0.058440
N91	N9	0.892400	0.312580	0.142360
N101	N10	0.982800	0.374250	0.068420
C491	C49	0.000400	0.358300	0.144420
H331	H33	0.047400	0.370300	0.171800
C501	C50	0.045000	0.388510	0.107360
H341	H34	0.123200	0.420600	0.110000
C511	C51	0.875700	0.328180	0.066280
H351	H35	0.829500	0.316300	0.038800
C521	C52	0.830900	0.297560	0.103010
H361	H36	0.754600	0.265100	0.100200
C531	C53	0.565000	0.163480	0.210180
C541	C54	0.469300	0.114530	0.188270
C551	C55	0.360600	0.077060	0.212320
H371	H37	0.349900	0.081400	0.243000
C561	C56	0.267900	0.033380	0.191350
H381	H38	0.193300	0.007900	0.207600
C571	C57	0.284300	0.027090	0.147150
H391	H39	0.218700	0.997600	0.133000
C581	C58	0.395300	0.063220	0.122670
C591	C59	0.486600	0.107240	0.143550
H401	H40	0.561300	0.132500	0.127100
C601	C60	0.419000	0.053660	0.074600
Ag111	Ag11	0.304630	0.769970	0.709230
Ag121	Ag12	0.969420	0.442860	0.515700
O211	O21	0.155000	0.695830	0.685990
O221	O22	0.046200	0.667200	0.750810
O231	O23	0.017700	0.587810	0.553580
O241	O24	0.838800	0.511250	0.558440
N111	N11	0.392400	0.812580	0.642360
N121	N12	0.482800	0.874250	0.568420
C611	C61	0.500400	0.858300	0.644420
H411	H41	0.547400	0.870300	0.671800
C621	C62	0.545000	0.888510	0.607360
H421	H42	0.623200	0.920600	0.610000
C631	C63	0.375700	0.828180	0.566280
H431	H43	0.329500	0.816300	0.538800
C641	C64	0.330900	0.797560	0.603010
H441	H44	0.254600	0.765100	0.600200
C651	C65	0.065000	0.663480	0.710180
C661	C66	0.969300	0.614530	0.688270
C671	C67	0.860600	0.577060	0.712320
H451	H45	0.849900	0.581400	0.743000
C681	C68	0.767900	0.533380	0.691350
H461	H46	0.693300	0.507900	0.707600
C691	C69	0.784300	0.527090	0.647150
H471	H47	0.718700	0.497600	0.633000
C701	C70	0.895300	0.563220	0.622670
C711	C71	0.986600	0.607240	0.643550
H481	H48	0.061300	0.632500	0.627100
C721	C72	0.919000	0.553660	0.574600
Ag131	Ag13	0.695370	0.730030	0.709230
Ag141	Ag14	0.030580	0.057140	0.515700
O251	O25	0.845000	0.804170	0.685990
O261	O26	0.953800	0.832800	0.750810
O271	O27	0.982300	0.912190	0.553580
O281	O28	0.161200	0.988750	0.558440
N131	N13	0.607600	0.687420	0.642360
N141	N14	0.517200	0.625750	0.568420
C731	C73	0.499600	0.641700	0.644420
H491	H49	0.452600	0.629700	0.671800
C741	C74	0.455000	0.611490	0.607360
H501	H50	0.376800	0.579400	0.610000
C751	C75	0.624300	0.671820	0.566280
H511	H51	0.670500	0.683700	0.538800
C761	C76	0.669100	0.702440	0.603010
H521	H52	0.745400	0.734900	0.600200
C771	C77	0.935000	0.836520	0.710180
C781	C78	0.030700	0.885470	0.688270
C791	C79	0.139400	0.922940	0.712320
H531	H53	0.150100	0.918600	0.743000
C801	C80	0.232100	0.966620	0.691350
H541	H54	0.306700	0.992100	0.707600
C811	C81	0.215700	0.972910	0.647150
H551	H55	0.281300	0.002400	0.633000
C821	C82	0.104700	0.936780	0.622670
C831	C83	0.013400	0.892760	0.643550
H561	H56	0.938700	0.867500	0.627100
C841	C84	0.081000	0.946340	0.574600
Ag151	Ag15	0.195370	0.230030	0.209230
Ag161	Ag16	0.530580	0.557140	0.015700
O291	O29	0.345000	0.304170	0.185990
O301	O30	0.453800	0.332800	0.250810
O311	O31	0.482300	0.412190	0.053580
O321	O32	0.661200	0.488750	0.058440
N151	N15	0.107600	0.187420	0.142360
N161	N16	0.017200	0.125750	0.068420
C851	C85	0.999600	0.141700	0.144420
H571	H57	0.952600	0.129700	0.171800
C861	C86	0.955000	0.111490	0.107360
H581	H58	0.876800	0.079400	0.110000
C871	C87	0.124300	0.171820	0.066280
H591	H59	0.170500	0.183700	0.038800
C881	C88	0.169100	0.202440	0.103010
H601	H60	0.245400	0.234900	0.100200
C891	C89	0.435000	0.336520	0.210180
C901	C90	0.530700	0.385470	0.188270
C911	C91	0.639400	0.422940	0.212320
H611	H61	0.650100	0.418600	0.243000
C921	C92	0.732100	0.466620	0.191350
H621	H62	0.806700	0.492100	0.207600
C931	C93	0.715700	0.472910	0.147150
H631	H63	0.781300	0.502400	0.133000
C941	C94	0.604700	0.436780	0.122670
C951	C95	0.513400	0.392760	0.143550
H641	H64	0.438700	0.367500	0.127100
C961	C96	0.581000	0.446340	0.074600
Ag171	Ag17	0.804630	0.230030	0.709230
Ag181	Ag18	0.469420	0.557140	0.515700
O331	O33	0.655000	0.304170	0.685990
O341	O34	0.546200	0.332800	0.750810
O351	O35	0.517700	0.412190	0.553580
O361	O36	0.338800	0.488750	0.558440
N171	N17	0.892400	0.187420	0.642360
N181	N18	0.982800	0.125750	0.568420
C971	C97	0.000400	0.141700	0.644420
H651	H65	0.047400	0.129700	0.671800
C981	C98	0.045000	0.111490	0.607360
H661	H66	0.123200	0.079400	0.610000
C991	C99	0.875700	0.171820	0.566280
H671	H67	0.829500	0.183700	0.538800
C1001	C100	0.830900	0.202440	0.603010
H681	H68	0.754600	0.234900	0.600200
C1011	C101	0.565000	0.336520	0.710180
C1021	C102	0.469300	0.385470	0.688270
C1031	C103	0.360600	0.422940	0.712320
H691	H69	0.349900	0.418600	0.743000
C1041	C104	0.267900	0.466620	0.691350
H701	H70	0.193300	0.492100	0.707600
C1051	C105	0.284300	0.472910	0.647150
H711	H71	0.218700	0.502400	0.633000
C1061	C106	0.395300	0.436780	0.622670
C1071	C107	0.486600	0.392760	0.643550
H721	H72	0.561300	0.367500	0.627100
C1081	C108	0.419000	0.446340	0.574600
Ag191	Ag19	0.304630	0.730030	0.209230
Ag201	Ag20	0.969420	0.057140	0.015700
O371	O37	0.155000	0.804170	0.185990
O381	O38	0.046200	0.832800	0.250810
O391	O39	0.017700	0.912190	0.053580
O401	O40	0.838800	0.988750	0.058440
N191	N19	0.392400	0.687420	0.142360
N201	N20	0.482800	0.625750	0.068420
C1091	C109	0.500400	0.641700	0.144420
H731	H73	0.547400	0.629700	0.171800
C1101	C110	0.545000	0.611490	0.107360
H741	H74	0.623200	0.579400	0.110000
C1111	C111	0.375700	0.671820	0.066280
H751	H75	0.329500	0.683700	0.038800
C1121	C112	0.330900	0.702440	0.103010
H761	H76	0.254600	0.734900	0.100200
C1131	C113	0.065000	0.836520	0.210180
C1141	C114	0.969300	0.885470	0.188270
C1151	C115	0.860600	0.922940	0.212320
H771	H77	0.849900	0.918600	0.243000
C1161	C116	0.767900	0.966620	0.191350
H781	H78	0.693300	0.992100	0.207600
C1171	C117	0.784300	0.972910	0.147150
H791	H79	0.718700	0.002400	0.133000
C1181	C118	0.895300	0.936780	0.122670
C1191	C119	0.986600	0.892760	0.143550
H801	H80	0.061300	0.867500	0.127100
C1201	C120	0.919000	0.946340	0.074600
Ag211	Ag21	0.695370	0.769970	0.209230
Ag221	Ag22	0.030580	0.442860	0.015700
O411	O41	0.845000	0.695830	0.185990
O421	O42	0.953800	0.667200	0.250810
O431	O43	0.982300	0.587810	0.053580
O441	O44	0.161200	0.511250	0.058440
N211	N21	0.607600	0.812580	0.142360
N221	N22	0.517200	0.874250	0.068420
C1211	C121	0.499600	0.858300	0.144420
H811	H81	0.452600	0.870300	0.171800
C1221	C122	0.455000	0.888510	0.107360
H821	H82	0.376800	0.920600	0.110000
C1231	C123	0.624300	0.828180	0.066280
H831	H83	0.670500	0.816300	0.038800
C1241	C124	0.669100	0.797560	0.103010
H841	H84	0.745400	0.765100	0.100200
C1251	C125	0.935000	0.663480	0.210180
C1261	C126	0.030700	0.614530	0.188270
C1271	C127	0.139400	0.577060	0.212320
H851	H85	0.150100	0.581400	0.243000
C1281	C128	0.232100	0.533380	0.191350
H861	H86	0.306700	0.507900	0.207600
C1291	C129	0.215700	0.527090	0.147150
H871	H87	0.281300	0.497600	0.133000
C1301	C130	0.104700	0.563220	0.122670
C1311	C131	0.013400	0.607240	0.143550
H881	H88	0.938700	0.632500	0.127100
C1321	C132	0.081000	0.553660	0.074600
Ag231	Ag23	0.195370	0.269970	0.709230
Ag241	Ag24	0.530580	0.942860	0.515700
O451	O45	0.345000	0.195830	0.685990
O461	O46	0.453800	0.167200	0.750810
O471	O47	0.482300	0.087810	0.553580
O481	O48	0.661200	0.011250	0.558440
N231	N23	0.107600	0.312580	0.642360
N241	N24	0.017200	0.374250	0.568420
C1331	C133	0.999600	0.358300	0.644420
H891	H89	0.952600	0.370300	0.671800
C1341	C134	0.955000	0.388510	0.607360
H901	H90	0.876800	0.420600	0.610000
C1351	C135	0.124300	0.328180	0.566280
H911	H91	0.170500	0.316300	0.538800
C1361	C136	0.169100	0.297560	0.603010
H921	H92	0.245400	0.265100	0.600200
C1371	C137	0.435000	0.163480	0.710180
C1381	C138	0.530700	0.114530	0.688270
C1391	C139	0.639400	0.077060	0.712320
H931	H93	0.650100	0.081400	0.743000
C1401	C140	0.732100	0.033380	0.691350
H941	H94	0.806700	0.007900	0.707600
C1411	C141	0.715700	0.027090	0.647150
H951	H95	0.781300	0.997600	0.633000
C1421	C142	0.604700	0.063220	0.622670
C1431	C143	0.513400	0.107240	0.643550
H961	H96	0.438700	0.132500	0.627100
C1441	C144	0.581000	0.053660	0.574600
Ag251	Ag25	0.195370	0.730030	0.790770
Ag261	Ag26	0.530580	0.057140	0.984300
O491	O49	0.345000	0.804170	0.814010
O501	O50	0.453800	0.832800	0.749190
O511	O51	0.482300	0.912190	0.946420
O521	O52	0.661200	0.988750	0.941560
N251	N25	0.107600	0.687420	0.857640
N261	N26	0.017200	0.625750	0.931580
C1451	C145	0.999600	0.641700	0.855580
H971	H97	0.952600	0.629700	0.828200
C1461	C146	0.955000	0.611490	0.892640
H981	H98	0.876800	0.579400	0.890000
C1471	C147	0.124300	0.671820	0.933720
H991	H99	0.170500	0.683700	0.961200
C1481	C148	0.169100	0.702440	0.896990
H1001	H100	0.245400	0.734900	0.899800
C1491	C149	0.435000	0.836520	0.789820
C1501	C150	0.530700	0.885470	0.811730
C1511	C151	0.639400	0.922940	0.787680
H1011	H101	0.650100	0.918600	0.757000
C1521	C152	0.732100	0.966620	0.808650
H1021	H102	0.806700	0.992100	0.792400
C1531	C153	0.715700	0.972910	0.852850
H1031	H103	0.781300	0.002400	0.867000
C1541	C154	0.604700	0.936780	0.877330
C1551	C155	0.513400	0.892760	0.856450
H1041	H104	0.438700	0.867500	0.872900
C1561	C156	0.581000	0.946340	0.925400
Ag271	Ag27	0.695370	0.230030	0.290770
Ag281	Ag28	0.030580	0.557140	0.484300
O531	O53	0.845000	0.304170	0.314010
O541	O54	0.953800	0.332800	0.249190
O551	O55	0.982300	0.412190	0.446420
O561	O56	0.161200	0.488750	0.441560
N271	N27	0.607600	0.187420	0.357640
N281	N28	0.517200	0.125750	0.431580
C1571	C157	0.499600	0.141700	0.355580
H1051	H105	0.452600	0.129700	0.328200
C1581	C158	0.455000	0.111490	0.392640
H1061	H106	0.376800	0.079400	0.390000
C1591	C159	0.624300	0.171820	0.433720
H1071	H107	0.670500	0.183700	0.461200
C1601	C160	0.669100	0.202440	0.396990
H1081	H108	0.745400	0.234900	0.399800
C1611	C161	0.935000	0.336520	0.289820
C1621	C162	0.030700	0.385470	0.311730
C1631	C163	0.139400	0.422940	0.287680
H1091	H109	0.150100	0.418600	0.257000
C1641	C164	0.232100	0.466620	0.308650
H1101	H110	0.306700	0.492100	0.292400
C1651	C165	0.215700	0.472910	0.352850
H1111	H111	0.281300	0.502400	0.367000
C1661	C166	0.104700	0.436780	0.377330
C1671	C167	0.013400	0.392760	0.356450
H1121	H112	0.938700	0.367500	0.372900
C1681	C168	0.081000	0.446340	0.425400
Ag291	Ag29	0.304630	0.269970	0.290770
Ag301	Ag30	0.969420	0.942860	0.484300
O571	O57	0.155000	0.195830	0.314010
O581	O58	0.046200	0.167200	0.249190
O591	O59	0.017700	0.087810	0.446420
O601	O60	0.838800	0.011250	0.441560
N291	N29	0.392400	0.312580	0.357640
N301	N30	0.482800	0.374250	0.431580
C1691	C169	0.500400	0.358300	0.355580
H1131	H113	0.547400	0.370300	0.328200
C1701	C170	0.545000	0.388510	0.392640
H1141	H114	0.623200	0.420600	0.390000
C1711	C171	0.375700	0.328180	0.433720
H1151	H115	0.329500	0.316300	0.461200
C1721	C172	0.330900	0.297560	0.396990
H1161	H116	0.254600	0.265100	0.399800
C1731	C173	0.065000	0.163480	0.289820
C1741	C174	0.969300	0.114530	0.311730
C1751	C175	0.860600	0.077060	0.287680
H1171	H117	0.849900	0.081400	0.257000
C1761	C176	0.767900	0.033380	0.308650
H1181	H118	0.693300	0.007900	0.292400
C1771	C177	0.784300	0.027090	0.352850
H1191	H119	0.718700	0.997600	0.367000
C1781	C178	0.895300	0.063220	0.377330
C1791	C179	0.986600	0.107240	0.356450
H1201	H120	0.061300	0.132500	0.372900
C1801	C180	0.919000	0.053660	0.425400
Ag311	Ag31	0.804630	0.769970	0.790770
Ag321	Ag32	0.469420	0.442860	0.984300
O611	O61	0.655000	0.695830	0.814010
O621	O62	0.546200	0.667200	0.749190
O631	O63	0.517700	0.587810	0.946420
O641	O64	0.338800	0.511250	0.941560
N311	N31	0.892400	0.812580	0.857640
N321	N32	0.982800	0.874250	0.931580
C1811	C181	0.000400	0.858300	0.855580
H1211	H121	0.047400	0.870300	0.828200
C1821	C182	0.045000	0.888510	0.892640
H1221	H122	0.123200	0.920600	0.890000
C1831	C183	0.875700	0.828180	0.933720
H1231	H123	0.829500	0.816300	0.961200
C1841	C184	0.830900	0.797560	0.896990
H1241	H124	0.754600	0.765100	0.899800
C1851	C185	0.565000	0.663480	0.789820
C1861	C186	0.469300	0.614530	0.811730
C1871	C187	0.360600	0.577060	0.787680
H1251	H125	0.349900	0.581400	0.757000
C1881	C188	0.267900	0.533380	0.808650
H1261	H126	0.193300	0.507900	0.792400
C1891	C189	0.284300	0.527090	0.852850
H1271	H127	0.218700	0.497600	0.867000
C1901	C190	0.395300	0.563220	0.877330
C1911	C191	0.486600	0.607240	0.856450
H1281	H128	0.561300	0.632500	0.872900
C1921	C192	0.419000	0.553660	0.925400
