data_TAJXIO07_clean_PM
_symmetry_space_group_name_H-M	'P1'
_cell_length_a	14.232700
_cell_length_b	23.828000
_cell_length_c	30.749000
_cell_angle_alpha	90.000000
_cell_angle_beta	90.000000
_cell_angle_gamma	90.000000
_symmetry_Int_Tables_number 1

loop_
_symmetry_equiv_pos_as_xyz
'x,y,z'

loop_
_atom_site_label
_atom_site_type_symbol
_atom_site_fract_x
_atom_site_fract_y
_atom_site_fract_z
O11	O1	0.282400	0.909500	0.949700
Ag11	Ag1	0.300400	0.934580	0.019330
N11	N1	0.242200	0.873100	0.071800
O21	O2	0.347200	0.004200	0.068400
C11	C1	0.268700	0.887400	0.112200
C21	C2	0.193900	0.826300	0.069100
C31	C3	0.242300	0.857500	0.148800
H11	H1	0.307500	0.919500	0.115900
C41	C4	0.166300	0.796200	0.104700
H21	H2	0.177400	0.812700	0.041100
N21	N2	0.189600	0.809900	0.144400
H31	H3	0.260700	0.870100	0.176800
H41	H4	0.128400	0.763800	0.100400
Ag21	Ag2	0.148670	0.766270	0.211150
O31	O3	0.070200	0.695300	0.183800
O41	O4	0.224100	0.826600	0.253400
C51	C5	0.028300	0.658600	0.205500
C61	C6	0.208300	0.829700	0.293500
O51	O5	0.019000	0.658100	0.245800
C71	C7	0.985600	0.612700	0.179400
O61	O6	0.159300	0.797100	0.316200
C81	C8	0.259400	0.879100	0.316600
Ag31	Ag3	0.086860	0.721920	0.289240
C91	C9	0.927200	0.571400	0.199800
C101	C10	0.995300	0.610700	0.134500
C111	C11	0.314500	0.913600	0.293800
C121	C12	0.243100	0.886000	0.360800
N31	N3	0.045700	0.683100	0.356100
H51	H5	0.917200	0.571800	0.230400
C131	C13	0.885400	0.530600	0.173600
H61	H6	0.032000	0.638400	0.120200
C141	C14	0.953100	0.569400	0.110300
C151	C15	0.363400	0.957500	0.313600
H71	H7	0.320500	0.908200	0.263300
H81	H8	0.202400	0.861400	0.376100
C161	C16	0.288800	0.930800	0.382200
Ag41	Ag4	0.977280	0.555440	0.485560
C171	C17	0.987300	0.639700	0.356700
C181	C18	0.083200	0.698400	0.395800
C191	C19	0.895600	0.529300	0.130100
H91	H9	0.848100	0.502500	0.187100
C201	C20	0.968900	0.566300	0.062800
H101	H10	0.404500	0.981100	0.297600
C211	C21	0.348900	0.965200	0.359200
C221	C22	0.272000	0.941400	0.429800
O71	O7	0.991400	0.584000	0.552800
H111	H11	0.962100	0.626900	0.329900
C231	C23	0.961000	0.611900	0.394600
H121	H12	0.125200	0.729300	0.397300
C241	C24	0.060800	0.669700	0.433000
H131	H13	0.864400	0.501700	0.113100
O81	O8	0.928400	0.529300	0.039300
O91	O9	0.025700	0.602800	0.044200
H141	H14	0.381100	0.994600	0.373900
O101	O10	0.316300	0.983500	0.445800
C251	C25	0.039500	0.551000	0.576800
N41	N4	0.002200	0.625700	0.432200
H151	H15	0.914200	0.583500	0.393700
H161	H16	0.087300	0.681300	0.459900
Ag51	Ag5	0.999130	0.439760	0.029260
Ag61	Ag6	0.251710	0.048490	0.493590
O111	O11	0.074200	0.506300	0.562300
C261	C26	0.047300	0.563500	0.625000
N51	N5	0.984100	0.626800	0.919500
C271	C27	0.099800	0.528300	0.651400
C281	C28	0.002500	0.608600	0.642800
C291	C29	0.935400	0.674000	0.925000
C301	C30	0.006200	0.613100	0.879600
C311	C31	0.105500	0.537300	0.695400
H171	H17	0.132300	0.497500	0.638900
H181	H18	0.967900	0.633300	0.624500
C321	C32	0.006700	0.618900	0.687100
C331	C33	0.906500	0.706600	0.889500
H191	H19	0.919900	0.685800	0.953600
C341	C34	0.984700	0.647500	0.844300
H201	H20	0.037800	0.578600	0.874600
H211	H21	0.140900	0.512400	0.713100
C351	C35	0.060500	0.581900	0.713600
C361	C36	0.956800	0.669200	0.705900
N61	N6	0.935800	0.693300	0.848500
H221	H22	0.866500	0.737900	0.894000
H231	H23	0.006700	0.637100	0.816200
H241	H24	0.065000	0.588300	0.744100
O121	O12	0.915300	0.700300	0.679900
O131	O13	0.965200	0.676500	0.747000
Ag71	Ag7	0.888010	0.739150	0.783300
Ag81	Ag8	0.841520	0.777540	0.700190
O141	O14	0.813900	0.811500	0.805500
O151	O15	0.773100	0.844500	0.739300
N71	N7	0.797000	0.816000	0.632400
C371	C37	0.774000	0.846600	0.780000
C381	C38	0.826900	0.800500	0.593100
C391	C39	0.742100	0.863700	0.634100
C401	C40	0.725900	0.896900	0.801600
H251	H25	0.861500	0.766600	0.590600
C411	C41	0.810400	0.830900	0.556600
H261	H26	0.716800	0.876400	0.660900
C421	C42	0.724800	0.892300	0.596700
C431	C43	0.733900	0.902600	0.845800
C441	C44	0.677000	0.934000	0.777400
N81	N8	0.758000	0.877300	0.557900
H271	H27	0.836400	0.819000	0.529700
H281	H28	0.686700	0.924900	0.598300
H291	H29	0.769800	0.876300	0.862100
C451	C45	0.689300	0.947100	0.867100
H301	H30	0.675100	0.930300	0.746600
C461	C46	0.628600	0.978300	0.797900
C471	C47	0.699400	0.956900	0.915200
C481	C48	0.635600	0.984000	0.841700
H311	H31	0.591800	0.003700	0.781400
O161	O16	0.754900	0.920100	0.436700
H321	H32	0.603100	0.013900	0.855500
O171	O17	0.217600	0.590500	0.949700
Ag91	Ag9	0.199600	0.565420	0.019330
N91	N9	0.257800	0.626900	0.071800
O181	O18	0.152800	0.495800	0.068400
C491	C49	0.231300	0.612600	0.112200
C501	C50	0.306100	0.673700	0.069100
C511	C51	0.257700	0.642500	0.148800
H331	H33	0.192500	0.580500	0.115900
C521	C52	0.333700	0.703800	0.104700
H341	H34	0.322600	0.687300	0.041100
N101	N10	0.310400	0.690100	0.144400
H351	H35	0.239300	0.629900	0.176800
H361	H36	0.371600	0.736200	0.100400
Ag101	Ag10	0.351330	0.733730	0.211150
O191	O19	0.429800	0.804700	0.183800
O201	O20	0.275900	0.673400	0.253400
C531	C53	0.471700	0.841400	0.205500
C541	C54	0.291700	0.670300	0.293500
O211	O21	0.481000	0.841900	0.245800
C551	C55	0.514400	0.887300	0.179400
O221	O22	0.340700	0.702900	0.316200
C561	C56	0.240600	0.620900	0.316600
Ag111	Ag11	0.413140	0.778080	0.289240
C571	C57	0.572800	0.928600	0.199800
C581	C58	0.504700	0.889300	0.134500
C591	C59	0.185500	0.586400	0.293800
C601	C60	0.256900	0.614000	0.360800
N111	N11	0.454300	0.816900	0.356100
H371	H37	0.582800	0.928200	0.230400
C611	C61	0.614600	0.969400	0.173600
H381	H38	0.468000	0.861600	0.120200
C621	C62	0.546900	0.930600	0.110300
C631	C63	0.136600	0.542500	0.313600
H391	H39	0.179500	0.591800	0.263300
H401	H40	0.297600	0.638600	0.376100
C641	C64	0.211200	0.569200	0.382200
Ag121	Ag12	0.522720	0.944560	0.485560
C651	C65	0.512700	0.860300	0.356700
C661	C66	0.416800	0.801600	0.395800
C671	C67	0.604400	0.970700	0.130100
H411	H41	0.651900	0.997500	0.187100
C681	C68	0.531100	0.933700	0.062800
H421	H42	0.095500	0.518900	0.297600
C691	C69	0.151100	0.534800	0.359200
C701	C70	0.228000	0.558600	0.429800
O231	O23	0.508600	0.916000	0.552800
H431	H43	0.537900	0.873100	0.329900
C711	C71	0.539000	0.888100	0.394600
H441	H44	0.374800	0.770700	0.397300
C721	C72	0.439200	0.830300	0.433000
H451	H45	0.635600	0.998300	0.113100
O241	O24	0.571600	0.970700	0.039300
O251	O25	0.474300	0.897200	0.044200
H461	H46	0.118900	0.505400	0.373900
O261	O26	0.183700	0.516500	0.445800
C731	C73	0.460500	0.949000	0.576800
N121	N12	0.497800	0.874300	0.432200
H471	H47	0.585800	0.916500	0.393700
H481	H48	0.412700	0.818700	0.459900
Ag131	Ag13	0.500870	0.060240	0.029260
Ag141	Ag14	0.248290	0.451510	0.493590
O271	O27	0.425800	0.993700	0.562300
C741	C74	0.452700	0.936500	0.625000
N131	N13	0.515900	0.873200	0.919500
C751	C75	0.400200	0.971700	0.651400
C761	C76	0.497500	0.891400	0.642800
C771	C77	0.564600	0.826000	0.925000
C781	C78	0.493800	0.886900	0.879600
C791	C79	0.394500	0.962700	0.695400
H491	H49	0.367700	0.002500	0.638900
H501	H50	0.532100	0.866700	0.624500
C801	C80	0.493300	0.881100	0.687100
C811	C81	0.593500	0.793400	0.889500
H511	H51	0.580100	0.814200	0.953600
C821	C82	0.515300	0.852500	0.844300
H521	H52	0.462200	0.921400	0.874600
H531	H53	0.359100	0.987600	0.713100
C831	C83	0.439500	0.918100	0.713600
C841	C84	0.543200	0.830800	0.705900
N141	N14	0.564200	0.806700	0.848500
H541	H54	0.633500	0.762100	0.894000
H551	H55	0.493300	0.862900	0.816200
H561	H56	0.435000	0.911700	0.744100
O281	O28	0.584700	0.799700	0.679900
O291	O29	0.534800	0.823500	0.747000
Ag151	Ag15	0.611990	0.760850	0.783300
Ag161	Ag16	0.658480	0.722460	0.700190
O301	O30	0.686100	0.688500	0.805500
O311	O31	0.726900	0.655500	0.739300
N151	N15	0.703000	0.684000	0.632400
C851	C85	0.726000	0.653400	0.780000
C861	C86	0.673100	0.699500	0.593100
C871	C87	0.757900	0.636300	0.634100
C881	C88	0.774100	0.603100	0.801600
H571	H57	0.638500	0.733400	0.590600
C891	C89	0.689600	0.669100	0.556600
H581	H58	0.783200	0.623600	0.660900
C901	C90	0.775200	0.607700	0.596700
C911	C91	0.766100	0.597400	0.845800
C921	C92	0.823000	0.566000	0.777400
N161	N16	0.742000	0.622700	0.557900
H591	H59	0.663600	0.681000	0.529700
H601	H60	0.813300	0.575100	0.598300
H611	H61	0.730200	0.623700	0.862100
C931	C93	0.810700	0.552900	0.867100
H621	H62	0.824900	0.569700	0.746600
C941	C94	0.871400	0.521700	0.797900
C951	C95	0.800600	0.543100	0.915200
C961	C96	0.864400	0.516000	0.841700
H631	H63	0.908200	0.496300	0.781400
O321	O32	0.745100	0.579900	0.436700
H641	H64	0.896900	0.486100	0.855500
O331	O33	0.717600	0.409500	0.550300
Ag171	Ag17	0.699600	0.434580	0.480670
N171	N17	0.757800	0.373100	0.428200
O341	O34	0.652800	0.504200	0.431600
C971	C97	0.731300	0.387400	0.387800
C981	C98	0.806100	0.326300	0.430900
C991	C99	0.757700	0.357500	0.351200
H651	H65	0.692500	0.419500	0.384100
C1001	C100	0.833700	0.296200	0.395300
H661	H66	0.822600	0.312700	0.458900
N181	N18	0.810400	0.309900	0.355600
H671	H67	0.739300	0.370100	0.323200
H681	H68	0.871600	0.263800	0.399600
Ag181	Ag18	0.851330	0.266270	0.288850
O351	O35	0.929800	0.195300	0.316200
O361	O36	0.775900	0.326600	0.246600
C1011	C101	0.971700	0.158600	0.294500
C1021	C102	0.791700	0.329700	0.206500
O371	O37	0.981000	0.158100	0.254200
C1031	C103	0.014400	0.112700	0.320600
O381	O38	0.840700	0.297100	0.183800
C1041	C104	0.740600	0.379100	0.183400
Ag191	Ag19	0.913140	0.221920	0.210760
C1051	C105	0.072800	0.071400	0.300200
C1061	C106	0.004700	0.110700	0.365500
C1071	C107	0.685500	0.413600	0.206200
C1081	C108	0.756900	0.386000	0.139200
N191	N19	0.954300	0.183100	0.143900
H691	H69	0.082800	0.071800	0.269600
C1091	C109	0.114600	0.030600	0.326400
H701	H70	0.968000	0.138400	0.379800
C1101	C110	0.046900	0.069400	0.389700
C1111	C111	0.636600	0.457500	0.186400
H711	H71	0.679500	0.408200	0.236700
H721	H72	0.797600	0.361400	0.123900
C1121	C112	0.711200	0.430800	0.117800
Ag201	Ag20	0.022720	0.055440	0.014440
C1131	C113	0.012700	0.139700	0.143300
C1141	C114	0.916800	0.198400	0.104200
C1151	C115	0.104400	0.029300	0.369900
H731	H73	0.151900	0.002500	0.312900
C1161	C116	0.031100	0.066300	0.437200
H741	H74	0.595500	0.481100	0.202400
C1171	C117	0.651100	0.465200	0.140800
C1181	C118	0.728000	0.441400	0.070200
O391	O39	0.008600	0.084000	0.947200
H751	H75	0.037900	0.126900	0.170100
C1191	C119	0.039000	0.111900	0.105400
H761	H76	0.874800	0.229300	0.102700
C1201	C120	0.939200	0.169700	0.067000
H771	H77	0.135600	0.001700	0.386900
O401	O40	0.071600	0.029300	0.460700
O411	O41	0.974300	0.102800	0.455800
H781	H78	0.618900	0.494600	0.126100
O421	O42	0.683700	0.483500	0.054200
C1211	C121	0.960500	0.051000	0.923200
N201	N20	0.997800	0.125700	0.067800
H791	H79	0.085800	0.083500	0.106300
H801	H80	0.912700	0.181300	0.040100
Ag211	Ag21	0.000870	0.939760	0.470740
Ag221	Ag22	0.748290	0.548490	0.006410
O431	O43	0.925800	0.006300	0.937700
C1221	C122	0.952700	0.063500	0.875000
N211	N21	0.015900	0.126800	0.580500
C1231	C123	0.900200	0.028300	0.848600
C1241	C124	0.997500	0.108600	0.857200
C1251	C125	0.064600	0.174000	0.575000
C1261	C126	0.993800	0.113100	0.620400
C1271	C127	0.894500	0.037300	0.804600
H811	H81	0.867700	0.997500	0.861100
H821	H82	0.032100	0.133300	0.875500
C1281	C128	0.993300	0.118900	0.812900
C1291	C129	0.093500	0.206600	0.610500
H831	H83	0.080100	0.185800	0.546400
C1301	C130	0.015300	0.147500	0.655700
H841	H84	0.962200	0.078600	0.625400
H851	H85	0.859100	0.012400	0.786900
C1311	C131	0.939500	0.081900	0.786400
C1321	C132	0.043200	0.169200	0.794100
N221	N22	0.064200	0.193300	0.651500
H861	H86	0.133500	0.237900	0.606000
H871	H87	0.993300	0.137100	0.683800
H881	H88	0.935000	0.088300	0.755900
O441	O44	0.084700	0.200300	0.820100
O451	O45	0.034800	0.176500	0.753000
Ag231	Ag23	0.111990	0.239150	0.716700
Ag241	Ag24	0.158480	0.277540	0.799810
O461	O46	0.186100	0.311500	0.694500
O471	O47	0.226900	0.344500	0.760700
N231	N23	0.203000	0.316000	0.867600
C1331	C133	0.226000	0.346600	0.720000
C1341	C134	0.173100	0.300500	0.906900
C1351	C135	0.257900	0.363700	0.865900
C1361	C136	0.274100	0.396900	0.698400
H891	H89	0.138500	0.266600	0.909400
C1371	C137	0.189600	0.330900	0.943400
H901	H90	0.283200	0.376400	0.839100
C1381	C138	0.275200	0.392300	0.903300
C1391	C139	0.266100	0.402600	0.654200
C1401	C140	0.323000	0.434000	0.722600
N241	N24	0.242000	0.377300	0.942100
H911	H91	0.163600	0.319000	0.970300
H921	H92	0.313300	0.424900	0.901700
H931	H93	0.230200	0.376300	0.637900
C1411	C141	0.310700	0.447100	0.632900
H941	H94	0.324900	0.430300	0.753400
C1421	C142	0.371400	0.478300	0.702100
C1431	C143	0.300600	0.456900	0.584800
C1441	C144	0.364400	0.484000	0.658300
H951	H95	0.408200	0.503700	0.718600
O481	O48	0.245100	0.420100	0.063300
H961	H96	0.396900	0.513900	0.644500
O491	O49	0.782400	0.090500	0.550300
Ag251	Ag25	0.800400	0.065420	0.480670
N251	N25	0.742200	0.126900	0.428200
O501	O50	0.847200	0.995800	0.431600
C1451	C145	0.768700	0.112600	0.387800
C1461	C146	0.693900	0.173700	0.430900
C1471	C147	0.742300	0.142500	0.351200
H971	H97	0.807500	0.080500	0.384100
C1481	C148	0.666300	0.203800	0.395300
H981	H98	0.677400	0.187300	0.458900
N261	N26	0.689600	0.190100	0.355600
H991	H99	0.760700	0.129900	0.323200
H1001	H100	0.628400	0.236200	0.399600
Ag261	Ag26	0.648670	0.233730	0.288850
O511	O51	0.570200	0.304700	0.316200
O521	O52	0.724100	0.173400	0.246600
C1491	C149	0.528300	0.341400	0.294500
C1501	C150	0.708300	0.170300	0.206500
O531	O53	0.519000	0.341900	0.254200
C1511	C151	0.485600	0.387300	0.320600
O541	O54	0.659300	0.202900	0.183800
C1521	C152	0.759400	0.120900	0.183400
Ag271	Ag27	0.586860	0.278080	0.210760
C1531	C153	0.427200	0.428600	0.300200
C1541	C154	0.495300	0.389300	0.365500
C1551	C155	0.814500	0.086400	0.206200
C1561	C156	0.743100	0.114000	0.139200
N271	N27	0.545700	0.316900	0.143900
H1011	H101	0.417200	0.428200	0.269600
C1571	C157	0.385400	0.469400	0.326400
H1021	H102	0.532000	0.361600	0.379800
C1581	C158	0.453100	0.430600	0.389700
C1591	C159	0.863400	0.042500	0.186400
H1031	H103	0.820500	0.091800	0.236700
H1041	H104	0.702400	0.138600	0.123900
C1601	C160	0.788800	0.069200	0.117800
Ag281	Ag28	0.477280	0.444560	0.014440
C1611	C161	0.487300	0.360300	0.143300
C1621	C162	0.583200	0.301600	0.104200
C1631	C163	0.395600	0.470700	0.369900
H1051	H105	0.348100	0.497500	0.312900
C1641	C164	0.468900	0.433700	0.437200
H1061	H106	0.904500	0.018900	0.202400
C1651	C165	0.848900	0.034800	0.140800
C1661	C166	0.772000	0.058600	0.070200
O551	O55	0.491400	0.416000	0.947200
H1071	H107	0.462100	0.373100	0.170100
C1671	C167	0.461000	0.388100	0.105400
H1081	H108	0.625200	0.270700	0.102700
C1681	C168	0.560800	0.330300	0.067000
H1091	H109	0.364400	0.498300	0.386900
O561	O56	0.428400	0.470700	0.460700
O571	O57	0.525700	0.397200	0.455800
H1101	H110	0.881100	0.005400	0.126100
O581	O58	0.816300	0.016500	0.054200
C1691	C169	0.539500	0.449000	0.923200
N281	N28	0.502200	0.374300	0.067800
H1111	H111	0.414200	0.416500	0.106300
H1121	H112	0.587300	0.318700	0.040100
Ag291	Ag29	0.499130	0.560240	0.470740
Ag301	Ag30	0.751710	0.951510	0.006410
O591	O59	0.574200	0.493700	0.937700
C1701	C170	0.547300	0.436500	0.875000
N291	N29	0.484100	0.373200	0.580500
C1711	C171	0.599800	0.471700	0.848600
C1721	C172	0.502500	0.391400	0.857200
C1731	C173	0.435400	0.326000	0.575000
C1741	C174	0.506200	0.386900	0.620400
C1751	C175	0.605500	0.462700	0.804600
H1131	H113	0.632300	0.502500	0.861100
H1141	H114	0.467900	0.366700	0.875500
C1761	C176	0.506700	0.381100	0.812900
C1771	C177	0.406500	0.293400	0.610500
H1151	H115	0.419900	0.314200	0.546400
C1781	C178	0.484700	0.352500	0.655700
H1161	H116	0.537800	0.421400	0.625400
H1171	H117	0.640900	0.487600	0.786900
C1791	C179	0.560500	0.418100	0.786400
C1801	C180	0.456800	0.330800	0.794100
N301	N30	0.435800	0.306700	0.651500
H1181	H118	0.366500	0.262100	0.606000
H1191	H119	0.506700	0.362900	0.683800
H1201	H120	0.565000	0.411700	0.755900
O601	O60	0.415300	0.299700	0.820100
O611	O61	0.465200	0.323500	0.753000
Ag311	Ag31	0.388010	0.260850	0.716700
Ag321	Ag32	0.341520	0.222460	0.799810
O621	O62	0.313900	0.188500	0.694500
O631	O63	0.273100	0.155500	0.760700
N311	N31	0.297000	0.184000	0.867600
C1811	C181	0.274000	0.153400	0.720000
C1821	C182	0.326900	0.199500	0.906900
C1831	C183	0.242100	0.136300	0.865900
C1841	C184	0.225900	0.103100	0.698400
H1211	H121	0.361500	0.233400	0.909400
C1851	C185	0.310400	0.169100	0.943400
H1221	H122	0.216800	0.123600	0.839100
C1861	C186	0.224800	0.107700	0.903300
C1871	C187	0.233900	0.097400	0.654200
C1881	C188	0.177000	0.066000	0.722600
N321	N32	0.258000	0.122700	0.942100
H1231	H123	0.336400	0.181000	0.970300
H1241	H124	0.186700	0.075100	0.901700
H1251	H125	0.269800	0.123700	0.637900
C1891	C189	0.189300	0.052900	0.632900
H1261	H126	0.175100	0.069700	0.753400
C1901	C190	0.128600	0.021700	0.702100
C1911	C191	0.199400	0.043100	0.584800
C1921	C192	0.135600	0.016000	0.658300
H1271	H127	0.091800	0.996300	0.718600
O641	O64	0.254900	0.079900	0.063300
H1281	H128	0.103100	0.986100	0.644500
O651	O65	0.717600	0.090500	0.050300
Ag331	Ag33	0.699600	0.065420	0.980670
N331	N33	0.757800	0.126900	0.928200
O661	O66	0.652800	0.995800	0.931600
C1931	C193	0.731300	0.112600	0.887800
C1941	C194	0.806100	0.173700	0.930900
C1951	C195	0.757700	0.142500	0.851200
H1291	H129	0.692500	0.080500	0.884100
C1961	C196	0.833700	0.203800	0.895300
H1301	H130	0.822600	0.187300	0.958900
N341	N34	0.810400	0.190100	0.855600
H1311	H131	0.739300	0.129900	0.823200
H1321	H132	0.871600	0.236200	0.899600
Ag341	Ag34	0.851330	0.233730	0.788850
O671	O67	0.929800	0.304700	0.816200
O681	O68	0.775900	0.173400	0.746600
C1971	C197	0.971700	0.341400	0.794500
C1981	C198	0.791700	0.170300	0.706500
O691	O69	0.981000	0.341900	0.754200
C1991	C199	0.014400	0.387300	0.820600
O701	O70	0.840700	0.202900	0.683800
C2001	C200	0.740600	0.120900	0.683400
Ag351	Ag35	0.913140	0.278080	0.710760
C2011	C201	0.072800	0.428600	0.800200
C2021	C202	0.004700	0.389300	0.865500
C2031	C203	0.685500	0.086400	0.706200
C2041	C204	0.756900	0.114000	0.639200
N351	N35	0.954300	0.316900	0.643900
H1331	H133	0.082800	0.428200	0.769600
C2051	C205	0.114600	0.469400	0.826400
H1341	H134	0.968000	0.361600	0.879800
C2061	C206	0.046900	0.430600	0.889700
C2071	C207	0.636600	0.042500	0.686400
H1351	H135	0.679500	0.091800	0.736700
H1361	H136	0.797600	0.138600	0.623900
C2081	C208	0.711200	0.069200	0.617800
Ag361	Ag36	0.022720	0.444560	0.514440
C2091	C209	0.012700	0.360300	0.643300
C2101	C210	0.916800	0.301600	0.604200
C2111	C211	0.104400	0.470700	0.869900
H1371	H137	0.151900	0.497500	0.812900
C2121	C212	0.031100	0.433700	0.937200
H1381	H138	0.595500	0.018900	0.702400
C2131	C213	0.651100	0.034800	0.640800
C2141	C214	0.728000	0.058600	0.570200
O711	O71	0.008600	0.416000	0.447200
H1391	H139	0.037900	0.373100	0.670100
C2151	C215	0.039000	0.388100	0.605400
H1401	H140	0.874800	0.270700	0.602700
C2161	C216	0.939200	0.330300	0.567000
H1411	H141	0.135600	0.498300	0.886900
O721	O72	0.071600	0.470700	0.960700
O731	O73	0.974300	0.397200	0.955800
H1421	H142	0.618900	0.005400	0.626100
O741	O74	0.683700	0.016500	0.554200
C2171	C217	0.960500	0.449000	0.423200
N361	N36	0.997800	0.374300	0.567800
H1431	H143	0.085800	0.416500	0.606300
H1441	H144	0.912700	0.318700	0.540100
Ag371	Ag37	0.000870	0.560240	0.970740
Ag381	Ag38	0.748290	0.951510	0.506410
O751	O75	0.925800	0.493700	0.437700
C2181	C218	0.952700	0.436500	0.375000
N371	N37	0.015900	0.373200	0.080500
C2191	C219	0.900200	0.471700	0.348600
C2201	C220	0.997500	0.391400	0.357200
C2211	C221	0.064600	0.326000	0.075000
C2221	C222	0.993800	0.386900	0.120400
C2231	C223	0.894500	0.462700	0.304600
H1451	H145	0.867700	0.502500	0.361100
H1461	H146	0.032100	0.366700	0.375500
C2241	C224	0.993300	0.381100	0.312900
C2251	C225	0.093500	0.293400	0.110500
H1471	H147	0.080100	0.314200	0.046400
C2261	C226	0.015300	0.352500	0.155700
H1481	H148	0.962200	0.421400	0.125400
H1491	H149	0.859100	0.487600	0.286900
C2271	C227	0.939500	0.418100	0.286400
C2281	C228	0.043200	0.330800	0.294100
N381	N38	0.064200	0.306700	0.151500
H1501	H150	0.133500	0.262100	0.106000
H1511	H151	0.993300	0.362900	0.183800
H1521	H152	0.935000	0.411700	0.255900
O761	O76	0.084700	0.299700	0.320100
O771	O77	0.034800	0.323500	0.253000
Ag391	Ag39	0.111990	0.260850	0.216700
Ag401	Ag40	0.158480	0.222460	0.299810
O781	O78	0.186100	0.188500	0.194500
O791	O79	0.226900	0.155500	0.260700
N391	N39	0.203000	0.184000	0.367600
C2291	C229	0.226000	0.153400	0.220000
C2301	C230	0.173100	0.199500	0.406900
C2311	C231	0.257900	0.136300	0.365900
C2321	C232	0.274100	0.103100	0.198400
H1531	H153	0.138500	0.233400	0.409400
C2331	C233	0.189600	0.169100	0.443400
H1541	H154	0.283200	0.123600	0.339100
C2341	C234	0.275200	0.107700	0.403300
C2351	C235	0.266100	0.097400	0.154200
C2361	C236	0.323000	0.066000	0.222600
N401	N40	0.242000	0.122700	0.442100
H1551	H155	0.163600	0.181000	0.470300
H1561	H156	0.313300	0.075100	0.401700
H1571	H157	0.230200	0.123700	0.137900
C2371	C237	0.310700	0.052900	0.132900
H1581	H158	0.324900	0.069700	0.253400
C2381	C238	0.371400	0.021700	0.202100
C2391	C239	0.300600	0.043100	0.084800
C2401	C240	0.364400	0.016000	0.158300
H1591	H159	0.408200	0.996300	0.218600
O801	O80	0.245100	0.079900	0.563300
H1601	H160	0.396900	0.986100	0.144500
O811	O81	0.782400	0.409500	0.050300
Ag411	Ag41	0.800400	0.434580	0.980670
N411	N41	0.742200	0.373100	0.928200
O821	O82	0.847200	0.504200	0.931600
C2411	C241	0.768700	0.387400	0.887800
C2421	C242	0.693900	0.326300	0.930900
C2431	C243	0.742300	0.357500	0.851200
H1611	H161	0.807500	0.419500	0.884100
C2441	C244	0.666300	0.296200	0.895300
H1621	H162	0.677400	0.312700	0.958900
N421	N42	0.689600	0.309900	0.855600
H1631	H163	0.760700	0.370100	0.823200
H1641	H164	0.628400	0.263800	0.899600
Ag421	Ag42	0.648670	0.266270	0.788850
O831	O83	0.570200	0.195300	0.816200
O841	O84	0.724100	0.326600	0.746600
C2451	C245	0.528300	0.158600	0.794500
C2461	C246	0.708300	0.329700	0.706500
O851	O85	0.519000	0.158100	0.754200
C2471	C247	0.485600	0.112700	0.820600
O861	O86	0.659300	0.297100	0.683800
C2481	C248	0.759400	0.379100	0.683400
Ag431	Ag43	0.586860	0.221920	0.710760
C2491	C249	0.427200	0.071400	0.800200
C2501	C250	0.495300	0.110700	0.865500
C2511	C251	0.814500	0.413600	0.706200
C2521	C252	0.743100	0.386000	0.639200
N431	N43	0.545700	0.183100	0.643900
H1651	H165	0.417200	0.071800	0.769600
C2531	C253	0.385400	0.030600	0.826400
H1661	H166	0.532000	0.138400	0.879800
C2541	C254	0.453100	0.069400	0.889700
C2551	C255	0.863400	0.457500	0.686400
H1671	H167	0.820500	0.408200	0.736700
H1681	H168	0.702400	0.361400	0.623900
C2561	C256	0.788800	0.430800	0.617800
Ag441	Ag44	0.477280	0.055440	0.514440
C2571	C257	0.487300	0.139700	0.643300
C2581	C258	0.583200	0.198400	0.604200
C2591	C259	0.395600	0.029300	0.869900
H1691	H169	0.348100	0.002500	0.812900
C2601	C260	0.468900	0.066300	0.937200
H1701	H170	0.904500	0.481100	0.702400
C2611	C261	0.848900	0.465200	0.640800
C2621	C262	0.772000	0.441400	0.570200
O871	O87	0.491400	0.084000	0.447200
H1711	H171	0.462100	0.126900	0.670100
C2631	C263	0.461000	0.111900	0.605400
H1721	H172	0.625200	0.229300	0.602700
C2641	C264	0.560800	0.169700	0.567000
H1731	H173	0.364400	0.001700	0.886900
O881	O88	0.428400	0.029300	0.960700
O891	O89	0.525700	0.102800	0.955800
H1741	H174	0.881100	0.494600	0.626100
O901	O90	0.816300	0.483500	0.554200
C2651	C265	0.539500	0.051000	0.423200
N441	N44	0.502200	0.125700	0.567800
H1751	H175	0.414200	0.083500	0.606300
H1761	H176	0.587300	0.181300	0.540100
Ag451	Ag45	0.499130	0.939760	0.970740
Ag461	Ag46	0.751710	0.548490	0.506410
O911	O91	0.574200	0.006300	0.437700
C2661	C266	0.547300	0.063500	0.375000
N451	N45	0.484100	0.126800	0.080500
C2671	C267	0.599800	0.028300	0.348600
C2681	C268	0.502500	0.108600	0.357200
C2691	C269	0.435400	0.174000	0.075000
C2701	C270	0.506200	0.113100	0.120400
C2711	C271	0.605500	0.037300	0.304600
H1771	H177	0.632300	0.997500	0.361100
H1781	H178	0.467900	0.133300	0.375500
C2721	C272	0.506700	0.118900	0.312900
C2731	C273	0.406500	0.206600	0.110500
H1791	H179	0.419900	0.185800	0.046400
C2741	C274	0.484700	0.147500	0.155700
H1801	H180	0.537800	0.078600	0.125400
H1811	H181	0.640900	0.012400	0.286900
C2751	C275	0.560500	0.081900	0.286400
C2761	C276	0.456800	0.169200	0.294100
N461	N46	0.435800	0.193300	0.151500
H1821	H182	0.366500	0.237900	0.106000
H1831	H183	0.506700	0.137100	0.183800
H1841	H184	0.565000	0.088300	0.255900
O921	O92	0.415300	0.200300	0.320100
O931	O93	0.465200	0.176500	0.253000
Ag471	Ag47	0.388010	0.239150	0.216700
Ag481	Ag48	0.341520	0.277540	0.299810
O941	O94	0.313900	0.311500	0.194500
O951	O95	0.273100	0.344500	0.260700
N471	N47	0.297000	0.316000	0.367600
C2771	C277	0.274000	0.346600	0.220000
C2781	C278	0.326900	0.300500	0.406900
C2791	C279	0.242100	0.363700	0.365900
C2801	C280	0.225900	0.396900	0.198400
H1851	H185	0.361500	0.266600	0.409400
C2811	C281	0.310400	0.330900	0.443400
H1861	H186	0.216800	0.376400	0.339100
C2821	C282	0.224800	0.392300	0.403300
C2831	C283	0.233900	0.402600	0.154200
C2841	C284	0.177000	0.434000	0.222600
N481	N48	0.258000	0.377300	0.442100
H1871	H187	0.336400	0.319000	0.470300
H1881	H188	0.186700	0.424900	0.401700
H1891	H189	0.269800	0.376300	0.137900
C2851	C285	0.189300	0.447100	0.132900
H1901	H190	0.175100	0.430300	0.253400
C2861	C286	0.128600	0.478300	0.202100
C2871	C287	0.199400	0.456900	0.084800
C2881	C288	0.135600	0.484000	0.158300
H1911	H191	0.091800	0.503700	0.218600
O961	O96	0.254900	0.420100	0.563300
H1921	H192	0.103100	0.513900	0.144500
O971	O97	0.282400	0.590500	0.449700
Ag491	Ag49	0.300400	0.565420	0.519330
N491	N49	0.242200	0.626900	0.571800
O981	O98	0.347200	0.495800	0.568400
C2891	C289	0.268700	0.612600	0.612200
C2901	C290	0.193900	0.673700	0.569100
C2911	C291	0.242300	0.642500	0.648800
H1931	H193	0.307500	0.580500	0.615900
C2921	C292	0.166300	0.703800	0.604700
H1941	H194	0.177400	0.687300	0.541100
N501	N50	0.189600	0.690100	0.644400
H1951	H195	0.260700	0.629900	0.676800
H1961	H196	0.128400	0.736200	0.600400
Ag501	Ag50	0.148670	0.733730	0.711150
O991	O99	0.070200	0.804700	0.683800
O1001	O100	0.224100	0.673400	0.753400
C2931	C293	0.028300	0.841400	0.705500
C2941	C294	0.208300	0.670300	0.793500
O1011	O101	0.019000	0.841900	0.745800
C2951	C295	0.985600	0.887300	0.679400
O1021	O102	0.159300	0.702900	0.816200
C2961	C296	0.259400	0.620900	0.816600
Ag511	Ag51	0.086860	0.778080	0.789240
C2971	C297	0.927200	0.928600	0.699800
C2981	C298	0.995300	0.889300	0.634500
C2991	C299	0.314500	0.586400	0.793800
C3001	C300	0.243100	0.614000	0.860800
N511	N51	0.045700	0.816900	0.856100
H1971	H197	0.917200	0.928200	0.730400
C3011	C301	0.885400	0.969400	0.673600
H1981	H198	0.032000	0.861600	0.620200
C3021	C302	0.953100	0.930600	0.610300
C3031	C303	0.363400	0.542500	0.813600
H1991	H199	0.320500	0.591800	0.763300
H2001	H200	0.202400	0.638600	0.876100
C3041	C304	0.288800	0.569200	0.882200
Ag521	Ag52	0.977280	0.944560	0.985560
C3051	C305	0.987300	0.860300	0.856700
C3061	C306	0.083200	0.801600	0.895800
C3071	C307	0.895600	0.970700	0.630100
H2011	H201	0.848100	0.997500	0.687100
C3081	C308	0.968900	0.933700	0.562800
H2021	H202	0.404500	0.518900	0.797600
C3091	C309	0.348900	0.534800	0.859200
C3101	C310	0.272000	0.558600	0.929800
O1031	O103	0.991400	0.916000	0.052800
H2031	H203	0.962100	0.873100	0.829900
C3111	C311	0.961000	0.888100	0.894600
H2041	H204	0.125200	0.770700	0.897300
C3121	C312	0.060800	0.830300	0.933000
H2051	H205	0.864400	0.998300	0.613100
O1041	O104	0.928400	0.970700	0.539300
O1051	O105	0.025700	0.897200	0.544200
H2061	H206	0.381100	0.505400	0.873900
O1061	O106	0.316300	0.516500	0.945800
C3131	C313	0.039500	0.949000	0.076800
N521	N52	0.002200	0.874300	0.932200
H2071	H207	0.914200	0.916500	0.893700
H2081	H208	0.087300	0.818700	0.959900
Ag531	Ag53	0.999130	0.060240	0.529260
Ag541	Ag54	0.251710	0.451510	0.993590
O1071	O107	0.074200	0.993700	0.062300
C3141	C314	0.047300	0.936500	0.125000
N531	N53	0.984100	0.873200	0.419500
C3151	C315	0.099800	0.971700	0.151400
C3161	C316	0.002500	0.891400	0.142800
C3171	C317	0.935400	0.826000	0.425000
C3181	C318	0.006200	0.886900	0.379600
C3191	C319	0.105500	0.962700	0.195400
H2091	H209	0.132300	0.002500	0.138900
H2101	H210	0.967900	0.866700	0.124500
C3201	C320	0.006700	0.881100	0.187100
C3211	C321	0.906500	0.793400	0.389500
H2111	H211	0.919900	0.814200	0.453600
C3221	C322	0.984700	0.852500	0.344300
H2121	H212	0.037800	0.921400	0.374600
H2131	H213	0.140900	0.987600	0.213100
C3231	C323	0.060500	0.918100	0.213600
C3241	C324	0.956800	0.830800	0.205900
N541	N54	0.935800	0.806700	0.348500
H2141	H214	0.866500	0.762100	0.394000
H2151	H215	0.006700	0.862900	0.316200
H2161	H216	0.065000	0.911700	0.244100
O1081	O108	0.915300	0.799700	0.179900
O1091	O109	0.965200	0.823500	0.247000
Ag551	Ag55	0.888010	0.760850	0.283300
Ag561	Ag56	0.841520	0.722460	0.200190
O1101	O110	0.813900	0.688500	0.305500
O1111	O111	0.773100	0.655500	0.239300
N551	N55	0.797000	0.684000	0.132400
C3251	C325	0.774000	0.653400	0.280000
C3261	C326	0.826900	0.699500	0.093100
C3271	C327	0.742100	0.636300	0.134100
C3281	C328	0.725900	0.603100	0.301600
H2171	H217	0.861500	0.733400	0.090600
C3291	C329	0.810400	0.669100	0.056600
H2181	H218	0.716800	0.623600	0.160900
C3301	C330	0.724800	0.607700	0.096700
C3311	C331	0.733900	0.597400	0.345800
C3321	C332	0.677000	0.566000	0.277400
N561	N56	0.758000	0.622700	0.057900
H2191	H219	0.836400	0.681000	0.029700
H2201	H220	0.686700	0.575100	0.098300
H2211	H221	0.769800	0.623700	0.362100
C3331	C333	0.689300	0.552900	0.367100
H2221	H222	0.675100	0.569700	0.246600
C3341	C334	0.628600	0.521700	0.297900
C3351	C335	0.699400	0.543100	0.415200
C3361	C336	0.635600	0.516000	0.341700
H2231	H223	0.591800	0.496300	0.281400
O1121	O112	0.754900	0.579900	0.936700
H2241	H224	0.603100	0.486100	0.355500
O1131	O113	0.217600	0.909500	0.449700
Ag571	Ag57	0.199600	0.934580	0.519330
N571	N57	0.257800	0.873100	0.571800
O1141	O114	0.152800	0.004200	0.568400
C3371	C337	0.231300	0.887400	0.612200
C3381	C338	0.306100	0.826300	0.569100
C3391	C339	0.257700	0.857500	0.648800
H2251	H225	0.192500	0.919500	0.615900
C3401	C340	0.333700	0.796200	0.604700
H2261	H226	0.322600	0.812700	0.541100
N581	N58	0.310400	0.809900	0.644400
H2271	H227	0.239300	0.870100	0.676800
H2281	H228	0.371600	0.763800	0.600400
Ag581	Ag58	0.351330	0.766270	0.711150
O1151	O115	0.429800	0.695300	0.683800
O1161	O116	0.275900	0.826600	0.753400
C3411	C341	0.471700	0.658600	0.705500
C3421	C342	0.291700	0.829700	0.793500
O1171	O117	0.481000	0.658100	0.745800
C3431	C343	0.514400	0.612700	0.679400
O1181	O118	0.340700	0.797100	0.816200
C3441	C344	0.240600	0.879100	0.816600
Ag591	Ag59	0.413140	0.721920	0.789240
C3451	C345	0.572800	0.571400	0.699800
C3461	C346	0.504700	0.610700	0.634500
C3471	C347	0.185500	0.913600	0.793800
C3481	C348	0.256900	0.886000	0.860800
N591	N59	0.454300	0.683100	0.856100
H2291	H229	0.582800	0.571800	0.730400
C3491	C349	0.614600	0.530600	0.673600
H2301	H230	0.468000	0.638400	0.620200
C3501	C350	0.546900	0.569400	0.610300
C3511	C351	0.136600	0.957500	0.813600
H2311	H231	0.179500	0.908200	0.763300
H2321	H232	0.297600	0.861400	0.876100
C3521	C352	0.211200	0.930800	0.882200
Ag601	Ag60	0.522720	0.555440	0.985560
C3531	C353	0.512700	0.639700	0.856700
C3541	C354	0.416800	0.698400	0.895800
C3551	C355	0.604400	0.529300	0.630100
H2331	H233	0.651900	0.502500	0.687100
C3561	C356	0.531100	0.566300	0.562800
H2341	H234	0.095500	0.981100	0.797600
C3571	C357	0.151100	0.965200	0.859200
C3581	C358	0.228000	0.941400	0.929800
O1191	O119	0.508600	0.584000	0.052800
H2351	H235	0.537900	0.626900	0.829900
C3591	C359	0.539000	0.611900	0.894600
H2361	H236	0.374800	0.729300	0.897300
C3601	C360	0.439200	0.669700	0.933000
H2371	H237	0.635600	0.501700	0.613100
O1201	O120	0.571600	0.529300	0.539300
O1211	O121	0.474300	0.602800	0.544200
H2381	H238	0.118900	0.994600	0.873900
O1221	O122	0.183700	0.983500	0.945800
C3611	C361	0.460500	0.551000	0.076800
N601	N60	0.497800	0.625700	0.932200
H2391	H239	0.585800	0.583500	0.893700
H2401	H240	0.412700	0.681300	0.959900
Ag611	Ag61	0.500870	0.439760	0.529260
Ag621	Ag62	0.248290	0.048490	0.993590
O1231	O123	0.425800	0.506300	0.062300
C3621	C362	0.452700	0.563500	0.125000
N611	N61	0.515900	0.626800	0.419500
C3631	C363	0.400200	0.528300	0.151400
C3641	C364	0.497500	0.608600	0.142800
C3651	C365	0.564600	0.674000	0.425000
C3661	C366	0.493800	0.613100	0.379600
C3671	C367	0.394500	0.537300	0.195400
H2411	H241	0.367700	0.497500	0.138900
H2421	H242	0.532100	0.633300	0.124500
C3681	C368	0.493300	0.618900	0.187100
C3691	C369	0.593500	0.706600	0.389500
H2431	H243	0.580100	0.685800	0.453600
C3701	C370	0.515300	0.647500	0.344300
H2441	H244	0.462200	0.578600	0.374600
H2451	H245	0.359100	0.512400	0.213100
C3711	C371	0.439500	0.581900	0.213600
C3721	C372	0.543200	0.669200	0.205900
N621	N62	0.564200	0.693300	0.348500
H2461	H246	0.633500	0.737900	0.394000
H2471	H247	0.493300	0.637100	0.316200
H2481	H248	0.435000	0.588300	0.244100
O1241	O124	0.584700	0.700300	0.179900
O1251	O125	0.534800	0.676500	0.247000
Ag631	Ag63	0.611990	0.739150	0.283300
Ag641	Ag64	0.658480	0.777540	0.200190
O1261	O126	0.686100	0.811500	0.305500
O1271	O127	0.726900	0.844500	0.239300
N631	N63	0.703000	0.816000	0.132400
C3731	C373	0.726000	0.846600	0.280000
C3741	C374	0.673100	0.800500	0.093100
C3751	C375	0.757900	0.863700	0.134100
C3761	C376	0.774100	0.896900	0.301600
H2491	H249	0.638500	0.766600	0.090600
C3771	C377	0.689600	0.830900	0.056600
H2501	H250	0.783200	0.876400	0.160900
C3781	C378	0.775200	0.892300	0.096700
C3791	C379	0.766100	0.902600	0.345800
C3801	C380	0.823000	0.934000	0.277400
N641	N64	0.742000	0.877300	0.057900
H2511	H251	0.663600	0.819000	0.029700
H2521	H252	0.813300	0.924900	0.098300
H2531	H253	0.730200	0.876300	0.362100
C3811	C381	0.810700	0.947100	0.367100
H2541	H254	0.824900	0.930300	0.246600
C3821	C382	0.871400	0.978300	0.297900
C3831	C383	0.800600	0.956900	0.415200
C3841	C384	0.864400	0.984000	0.341700
H2551	H255	0.908200	0.003700	0.281400
O1281	O128	0.745100	0.920100	0.936700
H2561	H256	0.896900	0.013900	0.355500
