data_TAJXIO06_clean_PM
_symmetry_space_group_name_H-M	'P1'
_cell_length_a	14.262400
_cell_length_b	23.826000
_cell_length_c	30.750000
_cell_angle_alpha	90.000000
_cell_angle_beta	90.000000
_cell_angle_gamma	90.000000
_symmetry_Int_Tables_number 1

loop_
_symmetry_equiv_pos_as_xyz
'x,y,z'

loop_
_atom_site_label
_atom_site_type_symbol
_atom_site_fract_x
_atom_site_fract_y
_atom_site_fract_z
O11	O1	0.282800	0.909600	0.949800
Ag11	Ag1	0.299830	0.934760	0.019290
N11	N1	0.243200	0.873200	0.071800
O21	O2	0.346100	0.004200	0.068100
C11	C1	0.192900	0.826600	0.069000
C21	C2	0.268800	0.887600	0.112000
C31	C3	0.165100	0.796000	0.104900
H11	H1	0.175100	0.813600	0.041000
C41	C4	0.242800	0.857400	0.148300
H21	H2	0.306600	0.920100	0.115800
N21	N2	0.189600	0.810300	0.144400
H31	H3	0.127100	0.763600	0.100700
H41	H4	0.262100	0.869600	0.176300
Ag21	Ag2	0.148910	0.766420	0.211140
O31	O3	0.223900	0.826500	0.253400
O41	O4	0.071500	0.695000	0.184000
C51	C5	0.208900	0.830100	0.293500
C61	C6	0.028400	0.659100	0.205700
O51	O5	0.159500	0.797500	0.316100
C71	C7	0.257700	0.879200	0.316600
O61	O6	0.019000	0.658800	0.246200
C81	C8	0.985500	0.613000	0.179700
Ag31	Ag3	0.087460	0.722170	0.289380
C91	C9	0.315300	0.913900	0.293700
C101	C10	0.243400	0.886500	0.360700
C111	C11	0.927500	0.571300	0.200000
C121	C12	0.994900	0.610700	0.134900
N31	N3	0.045300	0.683300	0.356300
H51	H5	0.323400	0.908000	0.263400
C131	C13	0.362500	0.957900	0.313600
C141	C14	0.288800	0.931000	0.382300
H61	H6	0.203400	0.861800	0.376200
C151	C15	0.885600	0.530700	0.174300
H71	H7	0.918000	0.571600	0.230500
C161	C16	0.953300	0.569200	0.110700
H81	H8	0.031100	0.638600	0.120600
Ag41	Ag4	0.977750	0.555540	0.485560
C171	C17	0.986700	0.639900	0.356800
C181	C18	0.083100	0.698600	0.396000
C191	C19	0.348700	0.965800	0.358900
H91	H9	0.402800	0.981900	0.297500
C201	C20	0.273300	0.941500	0.429700
C211	C21	0.895800	0.529800	0.130600
H101	H10	0.848500	0.502500	0.187800
C221	C22	0.969400	0.566000	0.062900
O71	O7	0.991200	0.584100	0.553000
C231	C23	0.962200	0.612100	0.395000
H111	H11	0.960500	0.627400	0.330100
C241	C24	0.060800	0.669800	0.432900
H121	H12	0.125100	0.729500	0.397600
H131	H13	0.380800	0.995300	0.373500
O81	O8	0.315300	0.983900	0.445800
H141	H14	0.864000	0.502400	0.113700
O91	O9	0.024900	0.602300	0.044500
O101	O10	0.929000	0.529100	0.039900
C251	C25	0.039200	0.550500	0.576900
N41	N4	0.003500	0.625700	0.432300
H151	H15	0.916000	0.583400	0.394400
H161	H16	0.086800	0.681600	0.459900
Ag51	Ag5	0.251620	0.048870	0.493370
Ag61	Ag6	0.000580	0.560290	0.971170
O111	O11	0.076200	0.506900	0.562500
C261	C26	0.047200	0.563200	0.624800
N51	N5	0.983200	0.627200	0.919900
C271	C27	0.100200	0.528300	0.651500
C281	C28	0.002800	0.608400	0.642600
C291	C29	0.935000	0.674200	0.925100
C301	C30	0.007600	0.613400	0.879800
C311	C31	0.105900	0.537400	0.695100
H171	H17	0.133000	0.497600	0.639000
C321	C32	0.007900	0.618900	0.687100
H181	H18	0.968000	0.633000	0.624400
C331	C33	0.908000	0.706500	0.889700
H191	H19	0.918400	0.685900	0.953600
C341	C34	0.984200	0.647200	0.844600
H201	H20	0.041800	0.579700	0.874900
C351	C35	0.059400	0.581600	0.713900
H211	H21	0.142500	0.512900	0.712600
C361	C36	0.957700	0.669300	0.706100
N61	N6	0.936400	0.693200	0.848900
H221	H22	0.869300	0.738400	0.894200
H231	H23	0.004000	0.636300	0.816300
H241	H24	0.061600	0.587000	0.744500
O121	O12	0.966400	0.676300	0.747000
O131	O13	0.915800	0.700200	0.680100
Ag71	Ag7	0.888740	0.738910	0.783500
Ag81	Ag8	0.841760	0.777210	0.700430
O141	O14	0.813700	0.811400	0.805700
O151	O15	0.773200	0.844200	0.739400
N71	N7	0.797100	0.816100	0.632600
C371	C37	0.774700	0.846200	0.780000
C381	C38	0.827400	0.800700	0.593600
C391	C39	0.743000	0.863000	0.634500
C401	C40	0.726100	0.896200	0.801700
C411	C41	0.811500	0.830800	0.556800
H251	H25	0.862100	0.766900	0.591300
C421	C42	0.725900	0.892100	0.597000
H261	H26	0.717500	0.875400	0.661300
C431	C43	0.735500	0.901900	0.846200
C441	C44	0.677300	0.933300	0.777400
H271	H27	0.838200	0.819000	0.530000
N81	N8	0.757600	0.877500	0.558100
H281	H28	0.688800	0.925100	0.599000
C451	C45	0.689700	0.947200	0.867300
H291	H29	0.772100	0.876000	0.862400
C461	C46	0.629700	0.977900	0.798200
H301	H30	0.675000	0.929500	0.746700
C471	C47	0.636300	0.983900	0.841900
C481	C48	0.699300	0.956000	0.915600
H311	H31	0.593300	0.003600	0.781700
O161	O16	0.754500	0.920000	0.437000
H321	H32	0.603800	0.013800	0.855700
O171	O17	0.217200	0.590400	0.949800
Ag91	Ag9	0.200170	0.565240	0.019290
N91	N9	0.256800	0.626800	0.071800
O181	O18	0.153900	0.495800	0.068100
C491	C49	0.307100	0.673400	0.069000
C501	C50	0.231200	0.612400	0.112000
C511	C51	0.334900	0.704000	0.104900
H331	H33	0.324900	0.686400	0.041000
C521	C52	0.257200	0.642600	0.148300
H341	H34	0.193400	0.579900	0.115800
N101	N10	0.310400	0.689700	0.144400
H351	H35	0.372900	0.736400	0.100700
H361	H36	0.237900	0.630400	0.176300
Ag101	Ag10	0.351090	0.733580	0.211140
O191	O19	0.276100	0.673500	0.253400
O201	O20	0.428500	0.805000	0.184000
C531	C53	0.291100	0.669900	0.293500
C541	C54	0.471600	0.840900	0.205700
O211	O21	0.340500	0.702500	0.316100
C551	C55	0.242300	0.620800	0.316600
O221	O22	0.481000	0.841200	0.246200
C561	C56	0.514500	0.887000	0.179700
Ag111	Ag11	0.412540	0.777830	0.289380
C571	C57	0.184700	0.586100	0.293700
C581	C58	0.256600	0.613500	0.360700
C591	C59	0.572500	0.928700	0.200000
C601	C60	0.505100	0.889300	0.134900
N111	N11	0.454700	0.816700	0.356300
H371	H37	0.176600	0.592000	0.263400
C611	C61	0.137500	0.542100	0.313600
C621	C62	0.211200	0.569000	0.382300
H381	H38	0.296600	0.638200	0.376200
C631	C63	0.614400	0.969300	0.174300
H391	H39	0.582000	0.928400	0.230500
C641	C64	0.546700	0.930800	0.110700
H401	H40	0.468900	0.861400	0.120600
Ag121	Ag12	0.522250	0.944460	0.485560
C651	C65	0.513300	0.860100	0.356800
C661	C66	0.416900	0.801400	0.396000
C671	C67	0.151300	0.534200	0.358900
H411	H41	0.097200	0.518100	0.297500
C681	C68	0.226700	0.558500	0.429700
C691	C69	0.604200	0.970200	0.130600
H421	H42	0.651500	0.997500	0.187800
C701	C70	0.530600	0.934000	0.062900
O231	O23	0.508800	0.915900	0.553000
C711	C71	0.537800	0.887900	0.395000
H431	H43	0.539500	0.872600	0.330100
C721	C72	0.439200	0.830200	0.432900
H441	H44	0.374900	0.770500	0.397600
H451	H45	0.119200	0.504700	0.373500
O241	O24	0.184700	0.516100	0.445800
H461	H46	0.636000	0.997600	0.113700
O251	O25	0.475100	0.897700	0.044500
O261	O26	0.571000	0.970900	0.039900
C731	C73	0.460800	0.949500	0.576900
N121	N12	0.496500	0.874300	0.432300
H471	H47	0.584000	0.916600	0.394400
H481	H48	0.413200	0.818400	0.459900
Ag131	Ag13	0.248380	0.451130	0.493370
Ag141	Ag14	0.499420	0.939710	0.971170
O271	O27	0.423800	0.993100	0.562500
C741	C74	0.452800	0.936800	0.624800
N131	N13	0.516800	0.872800	0.919900
C751	C75	0.399800	0.971700	0.651500
C761	C76	0.497200	0.891600	0.642600
C771	C77	0.565000	0.825800	0.925100
C781	C78	0.492400	0.886600	0.879800
C791	C79	0.394100	0.962600	0.695100
H491	H49	0.367000	0.002400	0.639000
C801	C80	0.492100	0.881100	0.687100
H501	H50	0.532000	0.867000	0.624400
C811	C81	0.592000	0.793500	0.889700
H511	H51	0.581600	0.814100	0.953600
C821	C82	0.515800	0.852800	0.844600
H521	H52	0.458200	0.920300	0.874900
C831	C83	0.440600	0.918400	0.713900
H531	H53	0.357500	0.987100	0.712600
C841	C84	0.542300	0.830700	0.706100
N141	N14	0.563600	0.806800	0.848900
H541	H54	0.630700	0.761600	0.894200
H551	H55	0.496000	0.863700	0.816300
H561	H56	0.438400	0.913000	0.744500
O281	O28	0.533600	0.823700	0.747000
O291	O29	0.584200	0.799800	0.680100
Ag151	Ag15	0.611260	0.761090	0.783500
Ag161	Ag16	0.658240	0.722790	0.700430
O301	O30	0.686300	0.688600	0.805700
O311	O31	0.726800	0.655800	0.739400
N151	N15	0.702900	0.683900	0.632600
C851	C85	0.725300	0.653800	0.780000
C861	C86	0.672600	0.699300	0.593600
C871	C87	0.757000	0.637000	0.634500
C881	C88	0.773900	0.603800	0.801700
C891	C89	0.688500	0.669200	0.556800
H571	H57	0.637900	0.733100	0.591300
C901	C90	0.774100	0.607900	0.597000
H581	H58	0.782500	0.624600	0.661300
C911	C91	0.764500	0.598100	0.846200
C921	C92	0.822700	0.566700	0.777400
H591	H59	0.661800	0.681000	0.530000
N161	N16	0.742400	0.622500	0.558100
H601	H60	0.811200	0.574900	0.599000
C931	C93	0.810300	0.552800	0.867300
H611	H61	0.727900	0.624000	0.862400
C941	C94	0.870300	0.522100	0.798200
H621	H62	0.825000	0.570500	0.746700
C951	C95	0.863700	0.516100	0.841900
C961	C96	0.800700	0.544000	0.915600
H631	H63	0.906700	0.496400	0.781700
O321	O32	0.745500	0.580000	0.437000
H641	H64	0.896200	0.486200	0.855700
O331	O33	0.717200	0.409600	0.550200
Ag171	Ag17	0.700170	0.434760	0.480710
N171	N17	0.756800	0.373200	0.428200
O341	O34	0.653900	0.504200	0.431900
C971	C97	0.807100	0.326600	0.431000
C981	C98	0.731200	0.387600	0.388000
C991	C99	0.834900	0.296000	0.395100
H651	H65	0.824900	0.313600	0.459000
C1001	C100	0.757200	0.357400	0.351700
H661	H66	0.693400	0.420100	0.384200
N181	N18	0.810400	0.310300	0.355600
H671	H67	0.872900	0.263600	0.399300
H681	H68	0.737900	0.369600	0.323700
Ag181	Ag18	0.851090	0.266420	0.288860
O351	O35	0.776100	0.326500	0.246600
O361	O36	0.928500	0.195000	0.316000
C1011	C101	0.791100	0.330100	0.206500
C1021	C102	0.971600	0.159100	0.294300
O371	O37	0.840500	0.297500	0.183900
C1031	C103	0.742300	0.379200	0.183400
O381	O38	0.981000	0.158800	0.253800
C1041	C104	0.014500	0.113000	0.320300
Ag191	Ag19	0.912540	0.222170	0.210620
C1051	C105	0.684700	0.413900	0.206300
C1061	C106	0.756600	0.386500	0.139300
C1071	C107	0.072500	0.071300	0.300000
C1081	C108	0.005100	0.110700	0.365100
N191	N19	0.954700	0.183300	0.143700
H691	H69	0.676600	0.408000	0.236600
C1091	C109	0.637500	0.457900	0.186400
C1101	C110	0.711200	0.431000	0.117700
H701	H70	0.796600	0.361800	0.123800
C1111	C111	0.114400	0.030700	0.325700
H711	H71	0.082000	0.071600	0.269500
C1121	C112	0.046700	0.069200	0.389300
H721	H72	0.968900	0.138600	0.379400
Ag201	Ag20	0.022250	0.055540	0.014440
C1131	C113	0.013300	0.139900	0.143200
C1141	C114	0.916900	0.198600	0.104000
C1151	C115	0.651300	0.465800	0.141100
H731	H73	0.597200	0.481900	0.202500
C1161	C116	0.726700	0.441500	0.070300
C1171	C117	0.104200	0.029800	0.369400
H741	H74	0.151500	0.002500	0.312200
C1181	C118	0.030600	0.066000	0.437100
O391	O39	0.008800	0.084100	0.947000
C1191	C119	0.037800	0.112100	0.105000
H751	H75	0.039500	0.127400	0.169900
C1201	C120	0.939200	0.169800	0.067100
H761	H76	0.874900	0.229500	0.102400
H771	H77	0.619200	0.495300	0.126500
O401	O40	0.684700	0.483900	0.054200
H781	H78	0.136000	0.002400	0.386300
O411	O41	0.975100	0.102300	0.455500
O421	O42	0.071000	0.029100	0.460100
C1211	C121	0.960800	0.050500	0.923100
N201	N20	0.996500	0.125700	0.067700
H791	H79	0.084000	0.083400	0.105600
H801	H80	0.913200	0.181600	0.040100
Ag211	Ag21	0.748380	0.548870	0.006630
Ag221	Ag22	0.999420	0.060290	0.528830
O431	O43	0.923800	0.006900	0.937500
C1221	C122	0.952800	0.063200	0.875200
N211	N21	0.016800	0.127200	0.580100
C1231	C123	0.899800	0.028300	0.848500
C1241	C124	0.997200	0.108400	0.857400
C1251	C125	0.065000	0.174200	0.574900
C1261	C126	0.992400	0.113400	0.620200
C1271	C127	0.894100	0.037400	0.804900
H811	H81	0.867000	0.997600	0.861000
C1281	C128	0.992100	0.118900	0.812900
H821	H82	0.032000	0.133000	0.875600
C1291	C129	0.092000	0.206500	0.610300
H831	H83	0.081600	0.185900	0.546400
C1301	C130	0.015800	0.147200	0.655400
H841	H84	0.958200	0.079700	0.625100
C1311	C131	0.940600	0.081600	0.786100
H851	H85	0.857500	0.012900	0.787400
C1321	C132	0.042300	0.169300	0.793900
N221	N22	0.063600	0.193200	0.651100
H861	H86	0.130700	0.238400	0.605800
H871	H87	0.996000	0.136300	0.683700
H881	H88	0.938400	0.087000	0.755500
O441	O44	0.033600	0.176300	0.753000
O451	O45	0.084200	0.200200	0.819900
Ag231	Ag23	0.111260	0.238910	0.716500
Ag241	Ag24	0.158240	0.277210	0.799570
O461	O46	0.186300	0.311400	0.694300
O471	O47	0.226800	0.344200	0.760600
N231	N23	0.202900	0.316100	0.867400
C1331	C133	0.225300	0.346200	0.720000
C1341	C134	0.172600	0.300700	0.906400
C1351	C135	0.257000	0.363000	0.865500
C1361	C136	0.273900	0.396200	0.698300
C1371	C137	0.188500	0.330800	0.943200
H891	H89	0.137900	0.266900	0.908700
C1381	C138	0.274100	0.392100	0.903000
H901	H90	0.282500	0.375400	0.838700
C1391	C139	0.264500	0.401900	0.653800
C1401	C140	0.322700	0.433300	0.722600
H911	H91	0.161800	0.319000	0.970000
N241	N24	0.242400	0.377500	0.941900
H921	H92	0.311200	0.425100	0.901000
C1411	C141	0.310300	0.447200	0.632700
H931	H93	0.227900	0.376000	0.637600
C1421	C142	0.370300	0.477900	0.701800
H941	H94	0.325000	0.429500	0.753300
C1431	C143	0.363700	0.483900	0.658100
C1441	C144	0.300700	0.456000	0.584400
H951	H95	0.406700	0.503600	0.718300
O481	O48	0.245500	0.420000	0.063000
H961	H96	0.396200	0.513800	0.644300
O491	O49	0.782800	0.090400	0.550200
Ag251	Ag25	0.799830	0.065240	0.480710
N251	N25	0.743200	0.126800	0.428200
O501	O50	0.846100	0.995800	0.431900
C1451	C145	0.692900	0.173400	0.431000
C1461	C146	0.768800	0.112400	0.388000
C1471	C147	0.665100	0.204000	0.395100
H971	H97	0.675100	0.186400	0.459000
C1481	C148	0.742800	0.142600	0.351700
H981	H98	0.806600	0.079900	0.384200
N261	N26	0.689600	0.189700	0.355600
H991	H99	0.627100	0.236400	0.399300
H1001	H100	0.762100	0.130400	0.323700
Ag261	Ag26	0.648910	0.233580	0.288860
O511	O51	0.723900	0.173500	0.246600
O521	O52	0.571500	0.305000	0.316000
C1491	C149	0.708900	0.169900	0.206500
C1501	C150	0.528400	0.340900	0.294300
O531	O53	0.659500	0.202500	0.183900
C1511	C151	0.757700	0.120800	0.183400
O541	O54	0.519000	0.341200	0.253800
C1521	C152	0.485500	0.387000	0.320300
Ag271	Ag27	0.587460	0.277830	0.210620
C1531	C153	0.815300	0.086100	0.206300
C1541	C154	0.743400	0.113500	0.139300
C1551	C155	0.427500	0.428700	0.300000
C1561	C156	0.494900	0.389300	0.365100
N271	N27	0.545300	0.316700	0.143700
H1011	H101	0.823400	0.092000	0.236600
C1571	C157	0.862500	0.042100	0.186400
C1581	C158	0.788800	0.069000	0.117700
H1021	H102	0.703400	0.138200	0.123800
C1591	C159	0.385600	0.469300	0.325700
H1031	H103	0.418000	0.428400	0.269500
C1601	C160	0.453300	0.430800	0.389300
H1041	H104	0.531100	0.361400	0.379400
Ag281	Ag28	0.477750	0.444460	0.014440
C1611	C161	0.486700	0.360100	0.143200
C1621	C162	0.583100	0.301400	0.104000
C1631	C163	0.848700	0.034200	0.141100
H1051	H105	0.902800	0.018100	0.202500
C1641	C164	0.773300	0.058500	0.070300
C1651	C165	0.395800	0.470200	0.369400
H1061	H106	0.348500	0.497500	0.312200
C1661	C166	0.469400	0.434000	0.437100
O551	O55	0.491200	0.415900	0.947000
C1671	C167	0.462200	0.387900	0.105000
H1071	H107	0.460500	0.372600	0.169900
C1681	C168	0.560800	0.330200	0.067100
H1081	H108	0.625100	0.270500	0.102400
H1091	H109	0.880800	0.004700	0.126500
O561	O56	0.815300	0.016100	0.054200
H1101	H110	0.364000	0.497600	0.386300
O571	O57	0.524900	0.397700	0.455500
O581	O58	0.429000	0.470900	0.460100
C1691	C169	0.539200	0.449500	0.923100
N281	N28	0.503500	0.374300	0.067700
H1111	H111	0.416000	0.416600	0.105600
H1121	H112	0.586800	0.318400	0.040100
Ag291	Ag29	0.751620	0.951130	0.006630
Ag301	Ag30	0.500580	0.439710	0.528830
O591	O59	0.576200	0.493100	0.937500
C1701	C170	0.547200	0.436800	0.875200
N291	N29	0.483200	0.372800	0.580100
C1711	C171	0.600200	0.471700	0.848500
C1721	C172	0.502800	0.391600	0.857400
C1731	C173	0.435000	0.325800	0.574900
C1741	C174	0.507600	0.386600	0.620200
C1751	C175	0.605900	0.462600	0.804900
H1131	H113	0.633000	0.502400	0.861000
C1761	C176	0.507900	0.381100	0.812900
H1141	H114	0.468000	0.367000	0.875600
C1771	C177	0.408000	0.293500	0.610300
H1151	H115	0.418400	0.314100	0.546400
C1781	C178	0.484200	0.352800	0.655400
H1161	H116	0.541800	0.420300	0.625100
C1791	C179	0.559400	0.418400	0.786100
H1171	H117	0.642500	0.487100	0.787400
C1801	C180	0.457700	0.330700	0.793900
N301	N30	0.436400	0.306800	0.651100
H1181	H118	0.369300	0.261600	0.605800
H1191	H119	0.504000	0.363700	0.683700
H1201	H120	0.561600	0.413000	0.755500
O601	O60	0.466400	0.323700	0.753000
O611	O61	0.415800	0.299800	0.819900
Ag311	Ag31	0.388740	0.261090	0.716500
Ag321	Ag32	0.341760	0.222790	0.799570
O621	O62	0.313700	0.188600	0.694300
O631	O63	0.273200	0.155800	0.760600
N311	N31	0.297100	0.183900	0.867400
C1811	C181	0.274700	0.153800	0.720000
C1821	C182	0.327400	0.199300	0.906400
C1831	C183	0.243000	0.137000	0.865500
C1841	C184	0.226100	0.103800	0.698300
C1851	C185	0.311500	0.169200	0.943200
H1211	H121	0.362100	0.233100	0.908700
C1861	C186	0.225900	0.107900	0.903000
H1221	H122	0.217500	0.124600	0.838700
C1871	C187	0.235500	0.098100	0.653800
C1881	C188	0.177300	0.066700	0.722600
H1231	H123	0.338200	0.181000	0.970000
N321	N32	0.257600	0.122500	0.941900
H1241	H124	0.188800	0.074900	0.901000
C1891	C189	0.189700	0.052800	0.632700
H1251	H125	0.272100	0.124000	0.637600
C1901	C190	0.129700	0.022100	0.701800
H1261	H126	0.175000	0.070500	0.753300
C1911	C191	0.136300	0.016100	0.658100
C1921	C192	0.199300	0.044000	0.584400
H1271	H127	0.093300	0.996400	0.718300
O641	O64	0.254500	0.080000	0.063000
H1281	H128	0.103800	0.986200	0.644300
O651	O65	0.717200	0.090400	0.050200
Ag331	Ag33	0.700170	0.065240	0.980710
N331	N33	0.756800	0.126800	0.928200
O661	O66	0.653900	0.995800	0.931900
C1931	C193	0.807100	0.173400	0.931000
C1941	C194	0.731200	0.112400	0.888000
C1951	C195	0.834900	0.204000	0.895100
H1291	H129	0.824900	0.186400	0.959000
C1961	C196	0.757200	0.142600	0.851700
H1301	H130	0.693400	0.079900	0.884200
N341	N34	0.810400	0.189700	0.855600
H1311	H131	0.872900	0.236400	0.899300
H1321	H132	0.737900	0.130400	0.823700
Ag341	Ag34	0.851090	0.233580	0.788860
O671	O67	0.776100	0.173500	0.746600
O681	O68	0.928500	0.305000	0.816000
C1971	C197	0.791100	0.169900	0.706500
C1981	C198	0.971600	0.340900	0.794300
O691	O69	0.840500	0.202500	0.683900
C1991	C199	0.742300	0.120800	0.683400
O701	O70	0.981000	0.341200	0.753800
C2001	C200	0.014500	0.387000	0.820300
Ag351	Ag35	0.912540	0.277830	0.710620
C2011	C201	0.684700	0.086100	0.706300
C2021	C202	0.756600	0.113500	0.639300
C2031	C203	0.072500	0.428700	0.800000
C2041	C204	0.005100	0.389300	0.865100
N351	N35	0.954700	0.316700	0.643700
H1331	H133	0.676600	0.092000	0.736600
C2051	C205	0.637500	0.042100	0.686400
C2061	C206	0.711200	0.069000	0.617700
H1341	H134	0.796600	0.138200	0.623800
C2071	C207	0.114400	0.469300	0.825700
H1351	H135	0.082000	0.428400	0.769500
C2081	C208	0.046700	0.430800	0.889300
H1361	H136	0.968900	0.361400	0.879400
Ag361	Ag36	0.022250	0.444460	0.514440
C2091	C209	0.013300	0.360100	0.643200
C2101	C210	0.916900	0.301400	0.604000
C2111	C211	0.651300	0.034200	0.641100
H1371	H137	0.597200	0.018100	0.702500
C2121	C212	0.726700	0.058500	0.570300
C2131	C213	0.104200	0.470200	0.869400
H1381	H138	0.151500	0.497500	0.812200
C2141	C214	0.030600	0.434000	0.937100
O711	O71	0.008800	0.415900	0.447000
C2151	C215	0.037800	0.387900	0.605000
H1391	H139	0.039500	0.372600	0.669900
C2161	C216	0.939200	0.330200	0.567100
H1401	H140	0.874900	0.270500	0.602400
H1411	H141	0.619200	0.004700	0.626500
O721	O72	0.684700	0.016100	0.554200
H1421	H142	0.136000	0.497600	0.886300
O731	O73	0.975100	0.397700	0.955500
O741	O74	0.071000	0.470900	0.960100
C2171	C217	0.960800	0.449500	0.423100
N361	N36	0.996500	0.374300	0.567700
H1431	H143	0.084000	0.416600	0.605600
H1441	H144	0.913200	0.318400	0.540100
Ag371	Ag37	0.748380	0.951130	0.506630
Ag381	Ag38	0.999420	0.439710	0.028830
O751	O75	0.923800	0.493100	0.437500
C2181	C218	0.952800	0.436800	0.375200
N371	N37	0.016800	0.372800	0.080100
C2191	C219	0.899800	0.471700	0.348500
C2201	C220	0.997200	0.391600	0.357400
C2211	C221	0.065000	0.325800	0.074900
C2221	C222	0.992400	0.386600	0.120200
C2231	C223	0.894100	0.462600	0.304900
H1451	H145	0.867000	0.502400	0.361000
C2241	C224	0.992100	0.381100	0.312900
H1461	H146	0.032000	0.367000	0.375600
C2251	C225	0.092000	0.293500	0.110300
H1471	H147	0.081600	0.314100	0.046400
C2261	C226	0.015800	0.352800	0.155400
H1481	H148	0.958200	0.420300	0.125100
C2271	C227	0.940600	0.418400	0.286100
H1491	H149	0.857500	0.487100	0.287400
C2281	C228	0.042300	0.330700	0.293900
N381	N38	0.063600	0.306800	0.151100
H1501	H150	0.130700	0.261600	0.105800
H1511	H151	0.996000	0.363700	0.183700
H1521	H152	0.938400	0.413000	0.255500
O761	O76	0.033600	0.323700	0.253000
O771	O77	0.084200	0.299800	0.319900
Ag391	Ag39	0.111260	0.261090	0.216500
Ag401	Ag40	0.158240	0.222790	0.299570
O781	O78	0.186300	0.188600	0.194300
O791	O79	0.226800	0.155800	0.260600
N391	N39	0.202900	0.183900	0.367400
C2291	C229	0.225300	0.153800	0.220000
C2301	C230	0.172600	0.199300	0.406400
C2311	C231	0.257000	0.137000	0.365500
C2321	C232	0.273900	0.103800	0.198300
C2331	C233	0.188500	0.169200	0.443200
H1531	H153	0.137900	0.233100	0.408700
C2341	C234	0.274100	0.107900	0.403000
H1541	H154	0.282500	0.124600	0.338700
C2351	C235	0.264500	0.098100	0.153800
C2361	C236	0.322700	0.066700	0.222600
H1551	H155	0.161800	0.181000	0.470000
N401	N40	0.242400	0.122500	0.441900
H1561	H156	0.311200	0.074900	0.401000
C2371	C237	0.310300	0.052800	0.132700
H1571	H157	0.227900	0.124000	0.137600
C2381	C238	0.370300	0.022100	0.201800
H1581	H158	0.325000	0.070500	0.253300
C2391	C239	0.363700	0.016100	0.158100
C2401	C240	0.300700	0.044000	0.084400
H1591	H159	0.406700	0.996400	0.218300
O801	O80	0.245500	0.080000	0.563000
H1601	H160	0.396200	0.986200	0.144300
O811	O81	0.782800	0.409600	0.050200
Ag411	Ag41	0.799830	0.434760	0.980710
N411	N41	0.743200	0.373200	0.928200
O821	O82	0.846100	0.504200	0.931900
C2411	C241	0.692900	0.326600	0.931000
C2421	C242	0.768800	0.387600	0.888000
C2431	C243	0.665100	0.296000	0.895100
H1611	H161	0.675100	0.313600	0.959000
C2441	C244	0.742800	0.357400	0.851700
H1621	H162	0.806600	0.420100	0.884200
N421	N42	0.689600	0.310300	0.855600
H1631	H163	0.627100	0.263600	0.899300
H1641	H164	0.762100	0.369600	0.823700
Ag421	Ag42	0.648910	0.266420	0.788860
O831	O83	0.723900	0.326500	0.746600
O841	O84	0.571500	0.195000	0.816000
C2451	C245	0.708900	0.330100	0.706500
C2461	C246	0.528400	0.159100	0.794300
O851	O85	0.659500	0.297500	0.683900
C2471	C247	0.757700	0.379200	0.683400
O861	O86	0.519000	0.158800	0.753800
C2481	C248	0.485500	0.113000	0.820300
Ag431	Ag43	0.587460	0.222170	0.710620
C2491	C249	0.815300	0.413900	0.706300
C2501	C250	0.743400	0.386500	0.639300
C2511	C251	0.427500	0.071300	0.800000
C2521	C252	0.494900	0.110700	0.865100
N431	N43	0.545300	0.183300	0.643700
H1651	H165	0.823400	0.408000	0.736600
C2531	C253	0.862500	0.457900	0.686400
C2541	C254	0.788800	0.431000	0.617700
H1661	H166	0.703400	0.361800	0.623800
C2551	C255	0.385600	0.030700	0.825700
H1671	H167	0.418000	0.071600	0.769500
C2561	C256	0.453300	0.069200	0.889300
H1681	H168	0.531100	0.138600	0.879400
Ag441	Ag44	0.477750	0.055540	0.514440
C2571	C257	0.486700	0.139900	0.643200
C2581	C258	0.583100	0.198600	0.604000
C2591	C259	0.848700	0.465800	0.641100
H1691	H169	0.902800	0.481900	0.702500
C2601	C260	0.773300	0.441500	0.570300
C2611	C261	0.395800	0.029800	0.869400
H1701	H170	0.348500	0.002500	0.812200
C2621	C262	0.469400	0.066000	0.937100
O871	O87	0.491200	0.084100	0.447000
C2631	C263	0.462200	0.112100	0.605000
H1711	H171	0.460500	0.127400	0.669900
C2641	C264	0.560800	0.169800	0.567100
H1721	H172	0.625100	0.229500	0.602400
H1731	H173	0.880800	0.495300	0.626500
O881	O88	0.815300	0.483900	0.554200
H1741	H174	0.364000	0.002400	0.886300
O891	O89	0.524900	0.102300	0.955500
O901	O90	0.429000	0.029100	0.960100
C2651	C265	0.539200	0.050500	0.423100
N441	N44	0.503500	0.125700	0.567700
H1751	H175	0.416000	0.083400	0.605600
H1761	H176	0.586800	0.181600	0.540100
Ag451	Ag45	0.751620	0.548870	0.506630
Ag461	Ag46	0.500580	0.060290	0.028830
O911	O91	0.576200	0.006900	0.437500
C2661	C266	0.547200	0.063200	0.375200
N451	N45	0.483200	0.127200	0.080100
C2671	C267	0.600200	0.028300	0.348500
C2681	C268	0.502800	0.108400	0.357400
C2691	C269	0.435000	0.174200	0.074900
C2701	C270	0.507600	0.113400	0.120200
C2711	C271	0.605900	0.037400	0.304900
H1771	H177	0.633000	0.997600	0.361000
C2721	C272	0.507900	0.118900	0.312900
H1781	H178	0.468000	0.133000	0.375600
C2731	C273	0.408000	0.206500	0.110300
H1791	H179	0.418400	0.185900	0.046400
C2741	C274	0.484200	0.147200	0.155400
H1801	H180	0.541800	0.079700	0.125100
C2751	C275	0.559400	0.081600	0.286100
H1811	H181	0.642500	0.012900	0.287400
C2761	C276	0.457700	0.169300	0.293900
N461	N46	0.436400	0.193200	0.151100
H1821	H182	0.369300	0.238400	0.105800
H1831	H183	0.504000	0.136300	0.183700
H1841	H184	0.561600	0.087000	0.255500
O921	O92	0.466400	0.176300	0.253000
O931	O93	0.415800	0.200200	0.319900
Ag471	Ag47	0.388740	0.238910	0.216500
Ag481	Ag48	0.341760	0.277210	0.299570
O941	O94	0.313700	0.311400	0.194300
O951	O95	0.273200	0.344200	0.260600
N471	N47	0.297100	0.316100	0.367400
C2771	C277	0.274700	0.346200	0.220000
C2781	C278	0.327400	0.300700	0.406400
C2791	C279	0.243000	0.363000	0.365500
C2801	C280	0.226100	0.396200	0.198300
C2811	C281	0.311500	0.330800	0.443200
H1851	H185	0.362100	0.266900	0.408700
C2821	C282	0.225900	0.392100	0.403000
H1861	H186	0.217500	0.375400	0.338700
C2831	C283	0.235500	0.401900	0.153800
C2841	C284	0.177300	0.433300	0.222600
H1871	H187	0.338200	0.319000	0.470000
N481	N48	0.257600	0.377500	0.441900
H1881	H188	0.188800	0.425100	0.401000
C2851	C285	0.189700	0.447200	0.132700
H1891	H189	0.272100	0.376000	0.137600
C2861	C286	0.129700	0.477900	0.201800
H1901	H190	0.175000	0.429500	0.253300
C2871	C287	0.136300	0.483900	0.158100
C2881	C288	0.199300	0.456000	0.084400
H1911	H191	0.093300	0.503600	0.218300
O961	O96	0.254500	0.420000	0.563000
H1921	H192	0.103800	0.513800	0.144300
O971	O97	0.282800	0.590400	0.449800
Ag491	Ag49	0.299830	0.565240	0.519290
N491	N49	0.243200	0.626800	0.571800
O981	O98	0.346100	0.495800	0.568100
C2891	C289	0.192900	0.673400	0.569000
C2901	C290	0.268800	0.612400	0.612000
C2911	C291	0.165100	0.704000	0.604900
H1931	H193	0.175100	0.686400	0.541000
C2921	C292	0.242800	0.642600	0.648300
H1941	H194	0.306600	0.579900	0.615800
N501	N50	0.189600	0.689700	0.644400
H1951	H195	0.127100	0.736400	0.600700
H1961	H196	0.262100	0.630400	0.676300
Ag501	Ag50	0.148910	0.733580	0.711140
O991	O99	0.223900	0.673500	0.753400
O1001	O100	0.071500	0.805000	0.684000
C2931	C293	0.208900	0.669900	0.793500
C2941	C294	0.028400	0.840900	0.705700
O1011	O101	0.159500	0.702500	0.816100
C2951	C295	0.257700	0.620800	0.816600
O1021	O102	0.019000	0.841200	0.746200
C2961	C296	0.985500	0.887000	0.679700
Ag511	Ag51	0.087460	0.777830	0.789380
C2971	C297	0.315300	0.586100	0.793700
C2981	C298	0.243400	0.613500	0.860700
C2991	C299	0.927500	0.928700	0.700000
C3001	C300	0.994900	0.889300	0.634900
N511	N51	0.045300	0.816700	0.856300
H1971	H197	0.323400	0.592000	0.763400
C3011	C301	0.362500	0.542100	0.813600
C3021	C302	0.288800	0.569000	0.882300
H1981	H198	0.203400	0.638200	0.876200
C3031	C303	0.885600	0.969300	0.674300
H1991	H199	0.918000	0.928400	0.730500
C3041	C304	0.953300	0.930800	0.610700
H2001	H200	0.031100	0.861400	0.620600
Ag521	Ag52	0.977750	0.944460	0.985560
C3051	C305	0.986700	0.860100	0.856800
C3061	C306	0.083100	0.801400	0.896000
C3071	C307	0.348700	0.534200	0.858900
H2011	H201	0.402800	0.518100	0.797500
C3081	C308	0.273300	0.558500	0.929700
C3091	C309	0.895800	0.970200	0.630600
H2021	H202	0.848500	0.997500	0.687800
C3101	C310	0.969400	0.934000	0.562900
O1031	O103	0.991200	0.915900	0.053000
C3111	C311	0.962200	0.887900	0.895000
H2031	H203	0.960500	0.872600	0.830100
C3121	C312	0.060800	0.830200	0.932900
H2041	H204	0.125100	0.770500	0.897600
H2051	H205	0.380800	0.504700	0.873500
O1041	O104	0.315300	0.516100	0.945800
H2061	H206	0.864000	0.997600	0.613700
O1051	O105	0.024900	0.897700	0.544500
O1061	O106	0.929000	0.970900	0.539900
C3131	C313	0.039200	0.949500	0.076900
N521	N52	0.003500	0.874300	0.932300
H2071	H207	0.916000	0.916600	0.894400
H2081	H208	0.086800	0.818400	0.959900
Ag531	Ag53	0.251620	0.451130	0.993370
Ag541	Ag54	0.000580	0.939710	0.471170
O1071	O107	0.076200	0.993100	0.062500
C3141	C314	0.047200	0.936800	0.124800
N531	N53	0.983200	0.872800	0.419900
C3151	C315	0.100200	0.971700	0.151500
C3161	C316	0.002800	0.891600	0.142600
C3171	C317	0.935000	0.825800	0.425100
C3181	C318	0.007600	0.886600	0.379800
C3191	C319	0.105900	0.962600	0.195100
H2091	H209	0.133000	0.002400	0.139000
C3201	C320	0.007900	0.881100	0.187100
H2101	H210	0.968000	0.867000	0.124400
C3211	C321	0.908000	0.793500	0.389700
H2111	H211	0.918400	0.814100	0.453600
C3221	C322	0.984200	0.852800	0.344600
H2121	H212	0.041800	0.920300	0.374900
C3231	C323	0.059400	0.918400	0.213900
H2131	H213	0.142500	0.987100	0.212600
C3241	C324	0.957700	0.830700	0.206100
N541	N54	0.936400	0.806800	0.348900
H2141	H214	0.869300	0.761600	0.394200
H2151	H215	0.004000	0.863700	0.316300
H2161	H216	0.061600	0.913000	0.244500
O1081	O108	0.966400	0.823700	0.247000
O1091	O109	0.915800	0.799800	0.180100
Ag551	Ag55	0.888740	0.761090	0.283500
Ag561	Ag56	0.841760	0.722790	0.200430
O1101	O110	0.813700	0.688600	0.305700
O1111	O111	0.773200	0.655800	0.239400
N551	N55	0.797100	0.683900	0.132600
C3251	C325	0.774700	0.653800	0.280000
C3261	C326	0.827400	0.699300	0.093600
C3271	C327	0.743000	0.637000	0.134500
C3281	C328	0.726100	0.603800	0.301700
C3291	C329	0.811500	0.669200	0.056800
H2171	H217	0.862100	0.733100	0.091300
C3301	C330	0.725900	0.607900	0.097000
H2181	H218	0.717500	0.624600	0.161300
C3311	C331	0.735500	0.598100	0.346200
C3321	C332	0.677300	0.566700	0.277400
H2191	H219	0.838200	0.681000	0.030000
N561	N56	0.757600	0.622500	0.058100
H2201	H220	0.688800	0.574900	0.099000
C3331	C333	0.689700	0.552800	0.367300
H2211	H221	0.772100	0.624000	0.362400
C3341	C334	0.629700	0.522100	0.298200
H2221	H222	0.675000	0.570500	0.246700
C3351	C335	0.636300	0.516100	0.341900
C3361	C336	0.699300	0.544000	0.415600
H2231	H223	0.593300	0.496400	0.281700
O1121	O112	0.754500	0.580000	0.937000
H2241	H224	0.603800	0.486200	0.355700
O1131	O113	0.217200	0.909600	0.449800
Ag571	Ag57	0.200170	0.934760	0.519290
N571	N57	0.256800	0.873200	0.571800
O1141	O114	0.153900	0.004200	0.568100
C3371	C337	0.307100	0.826600	0.569000
C3381	C338	0.231200	0.887600	0.612000
C3391	C339	0.334900	0.796000	0.604900
H2251	H225	0.324900	0.813600	0.541000
C3401	C340	0.257200	0.857400	0.648300
H2261	H226	0.193400	0.920100	0.615800
N581	N58	0.310400	0.810300	0.644400
H2271	H227	0.372900	0.763600	0.600700
H2281	H228	0.237900	0.869600	0.676300
Ag581	Ag58	0.351090	0.766420	0.711140
O1151	O115	0.276100	0.826500	0.753400
O1161	O116	0.428500	0.695000	0.684000
C3411	C341	0.291100	0.830100	0.793500
C3421	C342	0.471600	0.659100	0.705700
O1171	O117	0.340500	0.797500	0.816100
C3431	C343	0.242300	0.879200	0.816600
O1181	O118	0.481000	0.658800	0.746200
C3441	C344	0.514500	0.613000	0.679700
Ag591	Ag59	0.412540	0.722170	0.789380
C3451	C345	0.184700	0.913900	0.793700
C3461	C346	0.256600	0.886500	0.860700
C3471	C347	0.572500	0.571300	0.700000
C3481	C348	0.505100	0.610700	0.634900
N591	N59	0.454700	0.683300	0.856300
H2291	H229	0.176600	0.908000	0.763400
C3491	C349	0.137500	0.957900	0.813600
C3501	C350	0.211200	0.931000	0.882300
H2301	H230	0.296600	0.861800	0.876200
C3511	C351	0.614400	0.530700	0.674300
H2311	H231	0.582000	0.571600	0.730500
C3521	C352	0.546700	0.569200	0.610700
H2321	H232	0.468900	0.638600	0.620600
Ag601	Ag60	0.522250	0.555540	0.985560
C3531	C353	0.513300	0.639900	0.856800
C3541	C354	0.416900	0.698600	0.896000
C3551	C355	0.151300	0.965800	0.858900
H2331	H233	0.097200	0.981900	0.797500
C3561	C356	0.226700	0.941500	0.929700
C3571	C357	0.604200	0.529800	0.630600
H2341	H234	0.651500	0.502500	0.687800
C3581	C358	0.530600	0.566000	0.562900
O1191	O119	0.508800	0.584100	0.053000
C3591	C359	0.537800	0.612100	0.895000
H2351	H235	0.539500	0.627400	0.830100
C3601	C360	0.439200	0.669800	0.932900
H2361	H236	0.374900	0.729500	0.897600
H2371	H237	0.119200	0.995300	0.873500
O1201	O120	0.184700	0.983900	0.945800
H2381	H238	0.636000	0.502400	0.613700
O1211	O121	0.475100	0.602300	0.544500
O1221	O122	0.571000	0.529100	0.539900
C3611	C361	0.460800	0.550500	0.076900
N601	N60	0.496500	0.625700	0.932300
H2391	H239	0.584000	0.583400	0.894400
H2401	H240	0.413200	0.681600	0.959900
Ag611	Ag61	0.248380	0.048870	0.993370
Ag621	Ag62	0.499420	0.560290	0.471170
O1231	O123	0.423800	0.506900	0.062500
C3621	C362	0.452800	0.563200	0.124800
N611	N61	0.516800	0.627200	0.419900
C3631	C363	0.399800	0.528300	0.151500
C3641	C364	0.497200	0.608400	0.142600
C3651	C365	0.565000	0.674200	0.425100
C3661	C366	0.492400	0.613400	0.379800
C3671	C367	0.394100	0.537400	0.195100
H2411	H241	0.367000	0.497600	0.139000
C3681	C368	0.492100	0.618900	0.187100
H2421	H242	0.532000	0.633000	0.124400
C3691	C369	0.592000	0.706500	0.389700
H2431	H243	0.581600	0.685900	0.453600
C3701	C370	0.515800	0.647200	0.344600
H2441	H244	0.458200	0.579700	0.374900
C3711	C371	0.440600	0.581600	0.213900
H2451	H245	0.357500	0.512900	0.212600
C3721	C372	0.542300	0.669300	0.206100
N621	N62	0.563600	0.693200	0.348900
H2461	H246	0.630700	0.738400	0.394200
H2471	H247	0.496000	0.636300	0.316300
H2481	H248	0.438400	0.587000	0.244500
O1241	O124	0.533600	0.676300	0.247000
O1251	O125	0.584200	0.700200	0.180100
Ag631	Ag63	0.611260	0.738910	0.283500
Ag641	Ag64	0.658240	0.777210	0.200430
O1261	O126	0.686300	0.811400	0.305700
O1271	O127	0.726800	0.844200	0.239400
N631	N63	0.702900	0.816100	0.132600
C3731	C373	0.725300	0.846200	0.280000
C3741	C374	0.672600	0.800700	0.093600
C3751	C375	0.757000	0.863000	0.134500
C3761	C376	0.773900	0.896200	0.301700
C3771	C377	0.688500	0.830800	0.056800
H2491	H249	0.637900	0.766900	0.091300
C3781	C378	0.774100	0.892100	0.097000
H2501	H250	0.782500	0.875400	0.161300
C3791	C379	0.764500	0.901900	0.346200
C3801	C380	0.822700	0.933300	0.277400
H2511	H251	0.661800	0.819000	0.030000
N641	N64	0.742400	0.877500	0.058100
H2521	H252	0.811200	0.925100	0.099000
C3811	C381	0.810300	0.947200	0.367300
H2531	H253	0.727900	0.876000	0.362400
C3821	C382	0.870300	0.977900	0.298200
H2541	H254	0.825000	0.929500	0.246700
C3831	C383	0.863700	0.983900	0.341900
C3841	C384	0.800700	0.956000	0.415600
H2551	H255	0.906700	0.003600	0.281700
O1281	O128	0.745500	0.920000	0.937000
H2561	H256	0.896200	0.013800	0.355700
