data_TAJXIO01_clean_PM
_symmetry_space_group_name_H-M	'P1'
_cell_length_a	7.249900
_cell_length_b	23.762500
_cell_length_c	30.735000
_cell_angle_alpha	90.000000
_cell_angle_beta	90.000000
_cell_angle_gamma	90.000000
_symmetry_Int_Tables_number 1

loop_
_symmetry_equiv_pos_as_xyz
'x,y,z'

loop_
_atom_site_label
_atom_site_type_symbol
_atom_site_fract_x
_atom_site_fract_y
_atom_site_fract_z
Ag11	Ag1	0.195130	0.770050	0.290630
Ag21	Ag2	0.525260	0.442310	0.484020
O11	O1	0.342400	0.695810	0.313890
O21	O2	0.451700	0.667700	0.249740
O31	O3	0.476100	0.588000	0.446470
O41	O4	0.654700	0.512040	0.441850
N11	N1	0.109500	0.812740	0.357510
N21	N2	0.021600	0.874110	0.431500
C11	C1	0.002000	0.858150	0.355830
H11	H1	0.954800	0.869700	0.329200
C21	C2	0.959400	0.888340	0.392600
H21	H2	0.884300	0.919900	0.390000
C31	C3	0.126400	0.828310	0.433130
H31	H3	0.171200	0.816400	0.460000
C41	C4	0.170900	0.797950	0.396700
H41	H4	0.245600	0.766300	0.399400
C51	C5	0.432400	0.663410	0.290110
C61	C6	0.526500	0.614560	0.311920
C71	C7	0.634100	0.577410	0.288300
H51	H5	0.645300	0.581700	0.258300
C81	C8	0.724700	0.533930	0.309040
H61	H6	0.796800	0.509000	0.293000
C91	C9	0.708600	0.527360	0.353240
H71	H7	0.772300	0.498500	0.367100
C101	C10	0.598700	0.563200	0.377560
C111	C11	0.509100	0.607270	0.356730
H81	H8	0.437000	0.632100	0.372800
C121	C12	0.575000	0.553810	0.425450
Ag31	Ag3	0.695130	0.270050	0.790630
Ag41	Ag4	0.025260	0.942320	0.984020
O51	O5	0.842400	0.195810	0.813890
O61	O6	0.951700	0.167700	0.749740
O71	O7	0.976100	0.088000	0.946470
O81	O8	0.154700	0.012040	0.941850
N31	N3	0.609500	0.312740	0.857510
N41	N4	0.521600	0.374110	0.931500
C131	C13	0.502000	0.358150	0.855830
H91	H9	0.454800	0.369700	0.829200
C141	C14	0.459400	0.388340	0.892600
H101	H10	0.384300	0.419900	0.890000
C151	C15	0.626400	0.328310	0.933130
H111	H11	0.671200	0.316400	0.960000
C161	C16	0.670900	0.297950	0.896700
H121	H12	0.745600	0.266300	0.899400
C171	C17	0.932400	0.163410	0.790110
C181	C18	0.026500	0.114560	0.811920
C191	C19	0.134100	0.077410	0.788300
H131	H13	0.145300	0.081700	0.758300
C201	C20	0.224700	0.033930	0.809040
H141	H14	0.296800	0.009000	0.793000
C211	C21	0.208600	0.027360	0.853240
H151	H15	0.272300	0.998500	0.867100
C221	C22	0.098700	0.063200	0.877560
C231	C23	0.009100	0.107270	0.856730
H161	H16	0.937000	0.132100	0.872800
C241	C24	0.075000	0.053810	0.925450
Ag51	Ag5	0.304870	0.229950	0.790630
Ag61	Ag6	0.974740	0.557680	0.984020
O91	O9	0.157600	0.304190	0.813890
O101	O10	0.048300	0.332300	0.749740
O111	O11	0.023900	0.412000	0.946470
O121	O12	0.845300	0.487960	0.941850
N51	N5	0.390500	0.187260	0.857510
N61	N6	0.478400	0.125890	0.931500
C251	C25	0.498000	0.141850	0.855830
H171	H17	0.545200	0.130300	0.829200
C261	C26	0.540600	0.111660	0.892600
H181	H18	0.615700	0.080100	0.890000
C271	C27	0.373600	0.171690	0.933130
H191	H19	0.328800	0.183600	0.960000
C281	C28	0.329100	0.202050	0.896700
H201	H20	0.254400	0.233700	0.899400
C291	C29	0.067600	0.336590	0.790110
C301	C30	0.973500	0.385440	0.811920
C311	C31	0.865900	0.422590	0.788300
H211	H21	0.854700	0.418300	0.758300
C321	C32	0.775300	0.466070	0.809040
H221	H22	0.703200	0.491000	0.793000
C331	C33	0.791400	0.472640	0.853240
H231	H23	0.727700	0.501500	0.867100
C341	C34	0.901300	0.436800	0.877560
C351	C35	0.990900	0.392730	0.856730
H241	H24	0.063000	0.367900	0.872800
C361	C36	0.925000	0.446190	0.925450
Ag71	Ag7	0.804870	0.729950	0.290630
Ag81	Ag8	0.474740	0.057690	0.484020
O131	O13	0.657600	0.804190	0.313890
O141	O14	0.548300	0.832300	0.249740
O151	O15	0.523900	0.912000	0.446470
O161	O16	0.345300	0.987960	0.441850
N71	N7	0.890500	0.687260	0.357510
N81	N8	0.978400	0.625890	0.431500
C371	C37	0.998000	0.641850	0.355830
H251	H25	0.045200	0.630300	0.329200
C381	C38	0.040600	0.611660	0.392600
H261	H26	0.115700	0.580100	0.390000
C391	C39	0.873600	0.671690	0.433130
H271	H27	0.828800	0.683600	0.460000
C401	C40	0.829100	0.702050	0.396700
H281	H28	0.754400	0.733700	0.399400
C411	C41	0.567600	0.836590	0.290110
C421	C42	0.473500	0.885440	0.311920
C431	C43	0.365900	0.922590	0.288300
H291	H29	0.354700	0.918300	0.258300
C441	C44	0.275300	0.966070	0.309040
H301	H30	0.203200	0.991000	0.293000
C451	C45	0.291400	0.972640	0.353240
H311	H31	0.227700	0.001500	0.367100
C461	C46	0.401300	0.936800	0.377560
C471	C47	0.490900	0.892730	0.356730
H321	H32	0.563000	0.867900	0.372800
C481	C48	0.425000	0.946190	0.425450
Ag91	Ag9	0.804870	0.270050	0.209370
Ag101	Ag10	0.474740	0.942320	0.015980
O171	O17	0.657600	0.195810	0.186110
O181	O18	0.548300	0.167700	0.250260
O191	O19	0.523900	0.088000	0.053530
O201	O20	0.345300	0.012040	0.058150
N91	N9	0.890500	0.312740	0.142490
N101	N10	0.978400	0.374110	0.068500
C491	C49	0.998000	0.358150	0.144170
H331	H33	0.045200	0.369700	0.170800
C501	C50	0.040600	0.388340	0.107400
H341	H34	0.115700	0.419900	0.110000
C511	C51	0.873600	0.328310	0.066870
H351	H35	0.828800	0.316400	0.040000
C521	C52	0.829100	0.297950	0.103300
H361	H36	0.754400	0.266300	0.100600
C531	C53	0.567600	0.163410	0.209890
C541	C54	0.473500	0.114560	0.188080
C551	C55	0.365900	0.077410	0.211700
H371	H37	0.354700	0.081700	0.241700
C561	C56	0.275300	0.033930	0.190960
H381	H38	0.203200	0.009000	0.207000
C571	C57	0.291400	0.027360	0.146760
H391	H39	0.227700	0.998500	0.132900
C581	C58	0.401300	0.063200	0.122440
C591	C59	0.490900	0.107270	0.143270
H401	H40	0.563000	0.132100	0.127200
C601	C60	0.425000	0.053810	0.074550
Ag111	Ag11	0.304870	0.770050	0.709370
Ag121	Ag12	0.974740	0.442310	0.515980
O211	O21	0.157600	0.695810	0.686110
O221	O22	0.048300	0.667700	0.750260
O231	O23	0.023900	0.588000	0.553530
O241	O24	0.845300	0.512040	0.558150
N111	N11	0.390500	0.812740	0.642490
N121	N12	0.478400	0.874110	0.568500
C611	C61	0.498000	0.858150	0.644170
H411	H41	0.545200	0.869700	0.670800
C621	C62	0.540600	0.888340	0.607400
H421	H42	0.615700	0.919900	0.610000
C631	C63	0.373600	0.828310	0.566870
H431	H43	0.328800	0.816400	0.540000
C641	C64	0.329100	0.797950	0.603300
H441	H44	0.254400	0.766300	0.600600
C651	C65	0.067600	0.663410	0.709890
C661	C66	0.973500	0.614560	0.688080
C671	C67	0.865900	0.577410	0.711700
H451	H45	0.854700	0.581700	0.741700
C681	C68	0.775300	0.533930	0.690960
H461	H46	0.703200	0.509000	0.707000
C691	C69	0.791400	0.527360	0.646760
H471	H47	0.727700	0.498500	0.632900
C701	C70	0.901300	0.563200	0.622440
C711	C71	0.990900	0.607270	0.643270
H481	H48	0.063000	0.632100	0.627200
C721	C72	0.925000	0.553810	0.574550
Ag131	Ag13	0.695130	0.729950	0.709370
Ag141	Ag14	0.025260	0.057690	0.515980
O251	O25	0.842400	0.804190	0.686110
O261	O26	0.951700	0.832300	0.750260
O271	O27	0.976100	0.912000	0.553530
O281	O28	0.154700	0.987960	0.558150
N131	N13	0.609500	0.687260	0.642490
N141	N14	0.521600	0.625890	0.568500
C731	C73	0.502000	0.641850	0.644170
H491	H49	0.454800	0.630300	0.670800
C741	C74	0.459400	0.611660	0.607400
H501	H50	0.384300	0.580100	0.610000
C751	C75	0.626400	0.671690	0.566870
H511	H51	0.671200	0.683600	0.540000
C761	C76	0.670900	0.702050	0.603300
H521	H52	0.745600	0.733700	0.600600
C771	C77	0.932400	0.836590	0.709890
C781	C78	0.026500	0.885440	0.688080
C791	C79	0.134100	0.922590	0.711700
H531	H53	0.145300	0.918300	0.741700
C801	C80	0.224700	0.966070	0.690960
H541	H54	0.296800	0.991000	0.707000
C811	C81	0.208600	0.972640	0.646760
H551	H55	0.272300	0.001500	0.632900
C821	C82	0.098700	0.936800	0.622440
C831	C83	0.009100	0.892730	0.643270
H561	H56	0.937000	0.867900	0.627200
C841	C84	0.075000	0.946190	0.574550
Ag151	Ag15	0.195130	0.229950	0.209370
Ag161	Ag16	0.525260	0.557680	0.015980
O291	O29	0.342400	0.304190	0.186110
O301	O30	0.451700	0.332300	0.250260
O311	O31	0.476100	0.412000	0.053530
O321	O32	0.654700	0.487960	0.058150
N151	N15	0.109500	0.187260	0.142490
N161	N16	0.021600	0.125890	0.068500
C851	C85	0.002000	0.141850	0.144170
H571	H57	0.954800	0.130300	0.170800
C861	C86	0.959400	0.111660	0.107400
H581	H58	0.884300	0.080100	0.110000
C871	C87	0.126400	0.171690	0.066870
H591	H59	0.171200	0.183600	0.040000
C881	C88	0.170900	0.202050	0.103300
H601	H60	0.245600	0.233700	0.100600
C891	C89	0.432400	0.336590	0.209890
C901	C90	0.526500	0.385440	0.188080
C911	C91	0.634100	0.422590	0.211700
H611	H61	0.645300	0.418300	0.241700
C921	C92	0.724700	0.466070	0.190960
H621	H62	0.796800	0.491000	0.207000
C931	C93	0.708600	0.472640	0.146760
H631	H63	0.772300	0.501500	0.132900
C941	C94	0.598700	0.436800	0.122440
C951	C95	0.509100	0.392730	0.143270
H641	H64	0.437000	0.367900	0.127200
C961	C96	0.575000	0.446190	0.074550
Ag171	Ag17	0.804870	0.229950	0.709370
Ag181	Ag18	0.474740	0.557680	0.515980
O331	O33	0.657600	0.304190	0.686110
O341	O34	0.548300	0.332300	0.750260
O351	O35	0.523900	0.412000	0.553530
O361	O36	0.345300	0.487960	0.558150
N171	N17	0.890500	0.187260	0.642490
N181	N18	0.978400	0.125890	0.568500
C971	C97	0.998000	0.141850	0.644170
H651	H65	0.045200	0.130300	0.670800
C981	C98	0.040600	0.111660	0.607400
H661	H66	0.115700	0.080100	0.610000
C991	C99	0.873600	0.171690	0.566870
H671	H67	0.828800	0.183600	0.540000
C1001	C100	0.829100	0.202050	0.603300
H681	H68	0.754400	0.233700	0.600600
C1011	C101	0.567600	0.336590	0.709890
C1021	C102	0.473500	0.385440	0.688080
C1031	C103	0.365900	0.422590	0.711700
H691	H69	0.354700	0.418300	0.741700
C1041	C104	0.275300	0.466070	0.690960
H701	H70	0.203200	0.491000	0.707000
C1051	C105	0.291400	0.472640	0.646760
H711	H71	0.227700	0.501500	0.632900
C1061	C106	0.401300	0.436800	0.622440
C1071	C107	0.490900	0.392730	0.643270
H721	H72	0.563000	0.367900	0.627200
C1081	C108	0.425000	0.446190	0.574550
Ag191	Ag19	0.304870	0.729950	0.209370
Ag201	Ag20	0.974740	0.057690	0.015980
O371	O37	0.157600	0.804190	0.186110
O381	O38	0.048300	0.832300	0.250260
O391	O39	0.023900	0.912000	0.053530
O401	O40	0.845300	0.987960	0.058150
N191	N19	0.390500	0.687260	0.142490
N201	N20	0.478400	0.625890	0.068500
C1091	C109	0.498000	0.641850	0.144170
H731	H73	0.545200	0.630300	0.170800
C1101	C110	0.540600	0.611660	0.107400
H741	H74	0.615700	0.580100	0.110000
C1111	C111	0.373600	0.671690	0.066870
H751	H75	0.328800	0.683600	0.040000
C1121	C112	0.329100	0.702050	0.103300
H761	H76	0.254400	0.733700	0.100600
C1131	C113	0.067600	0.836590	0.209890
C1141	C114	0.973500	0.885440	0.188080
C1151	C115	0.865900	0.922590	0.211700
H771	H77	0.854700	0.918300	0.241700
C1161	C116	0.775300	0.966070	0.190960
H781	H78	0.703200	0.991000	0.207000
C1171	C117	0.791400	0.972640	0.146760
H791	H79	0.727700	0.001500	0.132900
C1181	C118	0.901300	0.936800	0.122440
C1191	C119	0.990900	0.892730	0.143270
H801	H80	0.063000	0.867900	0.127200
C1201	C120	0.925000	0.946190	0.074550
Ag211	Ag21	0.695130	0.770050	0.209370
Ag221	Ag22	0.025260	0.442310	0.015980
O411	O41	0.842400	0.695810	0.186110
O421	O42	0.951700	0.667700	0.250260
O431	O43	0.976100	0.588000	0.053530
O441	O44	0.154700	0.512040	0.058150
N211	N21	0.609500	0.812740	0.142490
N221	N22	0.521600	0.874110	0.068500
C1211	C121	0.502000	0.858150	0.144170
H811	H81	0.454800	0.869700	0.170800
C1221	C122	0.459400	0.888340	0.107400
H821	H82	0.384300	0.919900	0.110000
C1231	C123	0.626400	0.828310	0.066870
H831	H83	0.671200	0.816400	0.040000
C1241	C124	0.670900	0.797950	0.103300
H841	H84	0.745600	0.766300	0.100600
C1251	C125	0.932400	0.663410	0.209890
C1261	C126	0.026500	0.614560	0.188080
C1271	C127	0.134100	0.577410	0.211700
H851	H85	0.145300	0.581700	0.241700
C1281	C128	0.224700	0.533930	0.190960
H861	H86	0.296800	0.509000	0.207000
C1291	C129	0.208600	0.527360	0.146760
H871	H87	0.272300	0.498500	0.132900
C1301	C130	0.098700	0.563200	0.122440
C1311	C131	0.009100	0.607270	0.143270
H881	H88	0.937000	0.632100	0.127200
C1321	C132	0.075000	0.553810	0.074550
Ag231	Ag23	0.195130	0.270050	0.709370
Ag241	Ag24	0.525260	0.942320	0.515980
O451	O45	0.342400	0.195810	0.686110
O461	O46	0.451700	0.167700	0.750260
O471	O47	0.476100	0.088000	0.553530
O481	O48	0.654700	0.012040	0.558150
N231	N23	0.109500	0.312740	0.642490
N241	N24	0.021600	0.374110	0.568500
C1331	C133	0.002000	0.358150	0.644170
H891	H89	0.954800	0.369700	0.670800
C1341	C134	0.959400	0.388340	0.607400
H901	H90	0.884300	0.419900	0.610000
C1351	C135	0.126400	0.328310	0.566870
H911	H91	0.171200	0.316400	0.540000
C1361	C136	0.170900	0.297950	0.603300
H921	H92	0.245600	0.266300	0.600600
C1371	C137	0.432400	0.163410	0.709890
C1381	C138	0.526500	0.114560	0.688080
C1391	C139	0.634100	0.077410	0.711700
H931	H93	0.645300	0.081700	0.741700
C1401	C140	0.724700	0.033930	0.690960
H941	H94	0.796800	0.009000	0.707000
C1411	C141	0.708600	0.027360	0.646760
H951	H95	0.772300	0.998500	0.632900
C1421	C142	0.598700	0.063200	0.622440
C1431	C143	0.509100	0.107270	0.643270
H961	H96	0.437000	0.132100	0.627200
C1441	C144	0.575000	0.053810	0.574550
Ag251	Ag25	0.195130	0.729950	0.790630
Ag261	Ag26	0.525260	0.057690	0.984020
O491	O49	0.342400	0.804190	0.813890
O501	O50	0.451700	0.832300	0.749740
O511	O51	0.476100	0.912000	0.946470
O521	O52	0.654700	0.987960	0.941850
N251	N25	0.109500	0.687260	0.857510
N261	N26	0.021600	0.625890	0.931500
C1451	C145	0.002000	0.641850	0.855830
H971	H97	0.954800	0.630300	0.829200
C1461	C146	0.959400	0.611660	0.892600
H981	H98	0.884300	0.580100	0.890000
C1471	C147	0.126400	0.671690	0.933130
H991	H99	0.171200	0.683600	0.960000
C1481	C148	0.170900	0.702050	0.896700
H1001	H100	0.245600	0.733700	0.899400
C1491	C149	0.432400	0.836590	0.790110
C1501	C150	0.526500	0.885440	0.811920
C1511	C151	0.634100	0.922590	0.788300
H1011	H101	0.645300	0.918300	0.758300
C1521	C152	0.724700	0.966070	0.809040
H1021	H102	0.796800	0.991000	0.793000
C1531	C153	0.708600	0.972640	0.853240
H1031	H103	0.772300	0.001500	0.867100
C1541	C154	0.598700	0.936800	0.877560
C1551	C155	0.509100	0.892730	0.856730
H1041	H104	0.437000	0.867900	0.872800
C1561	C156	0.575000	0.946190	0.925450
Ag271	Ag27	0.695130	0.229950	0.290630
Ag281	Ag28	0.025260	0.557680	0.484020
O531	O53	0.842400	0.304190	0.313890
O541	O54	0.951700	0.332300	0.249740
O551	O55	0.976100	0.412000	0.446470
O561	O56	0.154700	0.487960	0.441850
N271	N27	0.609500	0.187260	0.357510
N281	N28	0.521600	0.125890	0.431500
C1571	C157	0.502000	0.141850	0.355830
H1051	H105	0.454800	0.130300	0.329200
C1581	C158	0.459400	0.111660	0.392600
H1061	H106	0.384300	0.080100	0.390000
C1591	C159	0.626400	0.171690	0.433130
H1071	H107	0.671200	0.183600	0.460000
C1601	C160	0.670900	0.202050	0.396700
H1081	H108	0.745600	0.233700	0.399400
C1611	C161	0.932400	0.336590	0.290110
C1621	C162	0.026500	0.385440	0.311920
C1631	C163	0.134100	0.422590	0.288300
H1091	H109	0.145300	0.418300	0.258300
C1641	C164	0.224700	0.466070	0.309040
H1101	H110	0.296800	0.491000	0.293000
C1651	C165	0.208600	0.472640	0.353240
H1111	H111	0.272300	0.501500	0.367100
C1661	C166	0.098700	0.436800	0.377560
C1671	C167	0.009100	0.392730	0.356730
H1121	H112	0.937000	0.367900	0.372800
C1681	C168	0.075000	0.446190	0.425450
Ag291	Ag29	0.304870	0.270050	0.290630
Ag301	Ag30	0.974740	0.942320	0.484020
O571	O57	0.157600	0.195810	0.313890
O581	O58	0.048300	0.167700	0.249740
O591	O59	0.023900	0.088000	0.446470
O601	O60	0.845300	0.012040	0.441850
N291	N29	0.390500	0.312740	0.357510
N301	N30	0.478400	0.374110	0.431500
C1691	C169	0.498000	0.358150	0.355830
H1131	H113	0.545200	0.369700	0.329200
C1701	C170	0.540600	0.388340	0.392600
H1141	H114	0.615700	0.419900	0.390000
C1711	C171	0.373600	0.328310	0.433130
H1151	H115	0.328800	0.316400	0.460000
C1721	C172	0.329100	0.297950	0.396700
H1161	H116	0.254400	0.266300	0.399400
C1731	C173	0.067600	0.163410	0.290110
C1741	C174	0.973500	0.114560	0.311920
C1751	C175	0.865900	0.077410	0.288300
H1171	H117	0.854700	0.081700	0.258300
C1761	C176	0.775300	0.033930	0.309040
H1181	H118	0.703200	0.009000	0.293000
C1771	C177	0.791400	0.027360	0.353240
H1191	H119	0.727700	0.998500	0.367100
C1781	C178	0.901300	0.063200	0.377560
C1791	C179	0.990900	0.107270	0.356730
H1201	H120	0.063000	0.132100	0.372800
C1801	C180	0.925000	0.053810	0.425450
Ag311	Ag31	0.804870	0.770050	0.790630
Ag321	Ag32	0.474740	0.442310	0.984020
O611	O61	0.657600	0.695810	0.813890
O621	O62	0.548300	0.667700	0.749740
O631	O63	0.523900	0.588000	0.946470
O641	O64	0.345300	0.512040	0.941850
N311	N31	0.890500	0.812740	0.857510
N321	N32	0.978400	0.874110	0.931500
C1811	C181	0.998000	0.858150	0.855830
H1211	H121	0.045200	0.869700	0.829200
C1821	C182	0.040600	0.888340	0.892600
H1221	H122	0.115700	0.919900	0.890000
C1831	C183	0.873600	0.828310	0.933130
H1231	H123	0.828800	0.816400	0.960000
C1841	C184	0.829100	0.797950	0.896700
H1241	H124	0.754400	0.766300	0.899400
C1851	C185	0.567600	0.663410	0.790110
C1861	C186	0.473500	0.614560	0.811920
C1871	C187	0.365900	0.577410	0.788300
H1251	H125	0.354700	0.581700	0.758300
C1881	C188	0.275300	0.533930	0.809040
H1261	H126	0.203200	0.509000	0.793000
C1891	C189	0.291400	0.527360	0.853240
H1271	H127	0.227700	0.498500	0.867100
C1901	C190	0.401300	0.563200	0.877560
C1911	C191	0.490900	0.607270	0.856730
H1281	H128	0.563000	0.632100	0.872800
C1921	C192	0.425000	0.553810	0.925450
