data_TAJXIO05_clean_PM
_symmetry_space_group_name_H-M	'P1'
_cell_length_a	14.288500
_cell_length_b	23.823000
_cell_length_c	30.749000
_cell_angle_alpha	90.000000
_cell_angle_beta	90.000000
_cell_angle_gamma	90.000000
_symmetry_Int_Tables_number 1

loop_
_symmetry_equiv_pos_as_xyz
'x,y,z'

loop_
_atom_site_label
_atom_site_type_symbol
_atom_site_fract_x
_atom_site_fract_y
_atom_site_fract_z
Ag11	Ag1	0.350920	0.766650	0.711150
N11	N1	0.310600	0.810300	0.644300
N21	N2	0.256600	0.873200	0.571900
C11	C1	0.334200	0.796400	0.604900
H11	H1	0.371000	0.763700	0.600800
C21	C2	0.308400	0.826900	0.568800
H21	H2	0.328100	0.814500	0.540900
C31	C3	0.231300	0.887600	0.612100
H31	H3	0.194500	0.920500	0.615700
C41	C4	0.255400	0.857600	0.648500
H41	H4	0.234400	0.869200	0.676400
Ag21	Ag2	0.201010	0.934970	0.519220
Ag31	Ag3	0.412040	0.722520	0.789480
Ag41	Ag4	0.521440	0.555620	0.985510
N31	N3	0.454900	0.683600	0.856200
N41	N4	0.495000	0.626000	0.932400
C51	C5	0.417400	0.698900	0.896000
H51	H5	0.375600	0.729800	0.897700
C61	C6	0.439900	0.670100	0.932900
H61	H6	0.414800	0.682400	0.959800
C71	C7	0.537800	0.612600	0.895000
H71	H7	0.585800	0.585000	0.894600
C81	C8	0.511300	0.639700	0.857000
H81	H8	0.535000	0.626000	0.830200
Ag51	Ag5	0.499820	0.560290	0.471780
Ag61	Ag6	0.610530	0.738560	0.283820
N51	N5	0.562800	0.692900	0.349200
N61	N6	0.516500	0.627000	0.420300
C91	C9	0.515900	0.647300	0.345100
H91	H9	0.496300	0.636100	0.316900
C101	C10	0.492600	0.613700	0.380300
H101	H10	0.458300	0.580100	0.375400
C111	C11	0.564600	0.674100	0.425600
H111	H11	0.581100	0.686200	0.454000
C121	C12	0.591200	0.706100	0.389400
H121	H12	0.630300	0.737900	0.393600
O11	O1	0.276200	0.826600	0.753600
O21	O2	0.340600	0.797900	0.816000
O31	O3	0.282800	0.909500	0.949800
O41	O4	0.185500	0.983800	0.945500
C131	C13	0.290700	0.830100	0.793200
C141	C14	0.241600	0.879400	0.816700
C151	C15	0.184400	0.914100	0.793300
H131	H13	0.176700	0.908300	0.763000
C161	C16	0.137600	0.957900	0.813700
H141	H14	0.097200	0.982000	0.797700
C171	C17	0.151600	0.965800	0.858900
H151	H15	0.119600	0.995400	0.873400
C181	C18	0.210400	0.931700	0.882300
C191	C19	0.257100	0.886800	0.860800
H161	H16	0.297800	0.862500	0.876300
C201	C20	0.226800	0.941700	0.929900
O51	O5	0.428800	0.695300	0.684100
O61	O6	0.480000	0.659100	0.746300
O71	O7	0.572100	0.528500	0.540600
O81	O8	0.475900	0.601200	0.545200
C211	C21	0.471600	0.659200	0.705800
C221	C22	0.513500	0.613600	0.680300
C231	C23	0.571800	0.571100	0.700600
H171	H17	0.580700	0.571000	0.731200
C241	C24	0.614400	0.531000	0.674800
H181	H18	0.652300	0.503200	0.688400
C251	C25	0.604200	0.529600	0.631600
H191	H19	0.635800	0.502100	0.614800
C261	C26	0.546500	0.569200	0.611500
C271	C27	0.505100	0.610800	0.635400
H201	H20	0.469300	0.638600	0.620800
C281	C28	0.531900	0.565400	0.563900
Ag71	Ag7	0.657920	0.776840	0.200770
N71	N7	0.701500	0.815700	0.133000
N81	N8	0.742000	0.877000	0.058300
C291	C29	0.757100	0.862700	0.135000
H211	H21	0.783700	0.874600	0.161700
C301	C30	0.773100	0.891900	0.097200
H221	H22	0.809100	0.925400	0.099200
C311	C31	0.687600	0.830700	0.056900
H231	H23	0.660300	0.819100	0.030300
C321	C32	0.672100	0.800600	0.093900
H241	H24	0.637900	0.766500	0.091500
Ag81	Ag8	0.751480	0.950750	0.007000
O91	O9	0.583800	0.699900	0.180400
O101	O10	0.533700	0.675600	0.247100
O111	O11	0.511600	0.584200	0.052700
O121	O12	0.424200	0.506900	0.062200
C331	C33	0.542000	0.669300	0.206400
C341	C34	0.492900	0.618600	0.187000
C351	C35	0.442200	0.580900	0.214200
H251	H25	0.441200	0.585600	0.244900
C361	C36	0.394600	0.537300	0.194700
H261	H26	0.357500	0.513100	0.212100
C371	C37	0.399400	0.528200	0.151300
H271	H27	0.366500	0.497500	0.138800
C381	C38	0.452500	0.563500	0.124800
C391	C39	0.497400	0.608700	0.143000
H281	H28	0.532100	0.633400	0.124900
C401	C40	0.461200	0.551100	0.076700
O131	O13	0.726600	0.843200	0.240000
O141	O14	0.685300	0.811000	0.306100
O151	O15	0.755800	0.919800	0.437400
O161	O16	0.846200	0.995500	0.432100
C411	C41	0.724100	0.845600	0.280300
C421	C42	0.773500	0.895600	0.302900
C431	C43	0.822200	0.931900	0.278200
H291	H29	0.825100	0.927300	0.247500
C441	C44	0.869300	0.977100	0.298900
H301	H30	0.906000	0.002600	0.282400
C451	C45	0.861300	0.983400	0.342200
H311	H31	0.892100	0.014000	0.355900
C461	C46	0.809500	0.946600	0.367700
C471	C47	0.764200	0.901400	0.346700
H321	H32	0.727800	0.875500	0.362900
C481	C48	0.799800	0.955500	0.415500
Ag91	Ag9	0.149080	0.733350	0.711150
N91	N9	0.189400	0.689700	0.644300
N101	N10	0.243400	0.626800	0.571900
C491	C49	0.165800	0.703600	0.604900
H331	H33	0.129000	0.736300	0.600800
C501	C50	0.191600	0.673100	0.568800
H341	H34	0.171900	0.685500	0.540900
C511	C51	0.268700	0.612400	0.612100
H351	H35	0.305500	0.579500	0.615700
C521	C52	0.244600	0.642400	0.648500
H361	H36	0.265600	0.630800	0.676400
Ag101	Ag10	0.298990	0.565030	0.519220
Ag111	Ag11	0.087960	0.777480	0.789480
Ag121	Ag12	0.978560	0.944380	0.985510
N111	N11	0.045100	0.816400	0.856200
N121	N12	0.005000	0.874000	0.932400
C531	C53	0.082600	0.801100	0.896000
H371	H37	0.124400	0.770200	0.897700
C541	C54	0.060100	0.829900	0.932900
H381	H38	0.085200	0.817600	0.959800
C551	C55	0.962200	0.887400	0.895000
H391	H39	0.914200	0.915000	0.894600
C561	C56	0.988700	0.860300	0.857000
H401	H40	0.965000	0.874000	0.830200
Ag131	Ag13	0.000180	0.939710	0.471780
Ag141	Ag14	0.889470	0.761440	0.283820
N131	N13	0.937200	0.807100	0.349200
N141	N14	0.983500	0.873000	0.420300
C571	C57	0.984100	0.852700	0.345100
H411	H41	0.003700	0.863900	0.316900
C581	C58	0.007400	0.886300	0.380300
H421	H42	0.041700	0.919900	0.375400
C591	C59	0.935400	0.825900	0.425600
H431	H43	0.918900	0.813800	0.454000
C601	C60	0.908800	0.793900	0.389400
H441	H44	0.869700	0.762100	0.393600
O171	O17	0.223800	0.673400	0.753600
O181	O18	0.159400	0.702100	0.816000
O191	O19	0.217200	0.590500	0.949800
O201	O20	0.314500	0.516200	0.945500
C611	C61	0.209300	0.669900	0.793200
C621	C62	0.258400	0.620600	0.816700
C631	C63	0.315600	0.585900	0.793300
H451	H45	0.323300	0.591700	0.763000
C641	C64	0.362400	0.542100	0.813700
H461	H46	0.402800	0.518000	0.797700
C651	C65	0.348400	0.534200	0.858900
H471	H47	0.380400	0.504600	0.873400
C661	C66	0.289600	0.568300	0.882300
C671	C67	0.242900	0.613200	0.860800
H481	H48	0.202200	0.637500	0.876300
C681	C68	0.273200	0.558300	0.929900
O211	O21	0.071200	0.804700	0.684100
O221	O22	0.020000	0.840900	0.746300
O231	O23	0.927900	0.971500	0.540600
O241	O24	0.024100	0.898800	0.545200
C691	C69	0.028400	0.840800	0.705800
C701	C70	0.986500	0.886400	0.680300
C711	C71	0.928200	0.928900	0.700600
H491	H49	0.919300	0.929000	0.731200
C721	C72	0.885600	0.969000	0.674800
H501	H50	0.847700	0.996800	0.688400
C731	C73	0.895800	0.970400	0.631600
H511	H51	0.864200	0.997900	0.614800
C741	C74	0.953500	0.930800	0.611500
C751	C75	0.994900	0.889200	0.635400
H521	H52	0.030700	0.861400	0.620800
C761	C76	0.968100	0.934600	0.563900
Ag151	Ag15	0.842080	0.723160	0.200770
N151	N15	0.798500	0.684300	0.133000
N161	N16	0.758000	0.623000	0.058300
C771	C77	0.742900	0.637300	0.135000
H531	H53	0.716300	0.625400	0.161700
C781	C78	0.726900	0.608100	0.097200
H541	H54	0.690900	0.574600	0.099200
C791	C79	0.812400	0.669300	0.056900
H551	H55	0.839700	0.680900	0.030300
C801	C80	0.827900	0.699400	0.093900
H561	H56	0.862100	0.733500	0.091500
Ag161	Ag16	0.748520	0.549250	0.007000
O251	O25	0.916200	0.800100	0.180400
O261	O26	0.966300	0.824400	0.247100
O271	O27	0.988400	0.915800	0.052700
O281	O28	0.075800	0.993100	0.062200
C811	C81	0.958000	0.830700	0.206400
C821	C82	0.007100	0.881400	0.187000
C831	C83	0.057800	0.919100	0.214200
H571	H57	0.058800	0.914400	0.244900
C841	C84	0.105400	0.962700	0.194700
H581	H58	0.142500	0.986900	0.212100
C851	C85	0.100600	0.971800	0.151300
H591	H59	0.133500	0.002500	0.138800
C861	C86	0.047500	0.936500	0.124800
C871	C87	0.002600	0.891300	0.143000
H601	H60	0.967900	0.866600	0.124900
C881	C88	0.038800	0.948900	0.076700
O291	O29	0.773400	0.656800	0.240000
O301	O30	0.814700	0.689000	0.306100
O311	O31	0.744200	0.580200	0.437400
O321	O32	0.653800	0.504500	0.432100
C891	C89	0.775900	0.654400	0.280300
C901	C90	0.726500	0.604400	0.302900
C911	C91	0.677800	0.568100	0.278200
H611	H61	0.674900	0.572700	0.247500
C921	C92	0.630700	0.522900	0.298900
H621	H62	0.594000	0.497400	0.282400
C931	C93	0.638700	0.516600	0.342200
H631	H63	0.607900	0.486000	0.355900
C941	C94	0.690500	0.553400	0.367700
C951	C95	0.735800	0.598600	0.346700
H641	H64	0.772200	0.624500	0.362900
C961	C96	0.700200	0.544500	0.415500
Ag171	Ag17	0.649080	0.266650	0.788850
N171	N17	0.689400	0.310300	0.855700
N181	N18	0.743400	0.373200	0.928100
C971	C97	0.665800	0.296400	0.895100
H651	H65	0.629000	0.263700	0.899200
C981	C98	0.691600	0.326900	0.931200
H661	H66	0.671900	0.314500	0.959100
C991	C99	0.768700	0.387600	0.887900
H671	H67	0.805500	0.420500	0.884300
C1001	C100	0.744600	0.357600	0.851500
H681	H68	0.765600	0.369200	0.823600
Ag181	Ag18	0.798990	0.434970	0.980780
Ag191	Ag19	0.587960	0.222520	0.710520
Ag201	Ag20	0.478560	0.055620	0.514490
N191	N19	0.545100	0.183600	0.643800
N201	N20	0.505000	0.126000	0.567600
C1011	C101	0.582600	0.198900	0.604000
H691	H69	0.624400	0.229800	0.602300
C1021	C102	0.560100	0.170100	0.567100
H701	H70	0.585200	0.182400	0.540200
C1031	C103	0.462200	0.112600	0.605000
H711	H71	0.414200	0.085000	0.605400
C1041	C104	0.488700	0.139700	0.643000
H721	H72	0.465000	0.126000	0.669800
Ag211	Ag21	0.500180	0.060290	0.028220
Ag221	Ag22	0.389470	0.238560	0.216180
N211	N21	0.437200	0.192900	0.150800
N221	N22	0.483500	0.127000	0.079700
C1051	C105	0.484100	0.147300	0.154900
H731	H73	0.503700	0.136100	0.183100
C1061	C106	0.507400	0.113700	0.119700
H741	H74	0.541700	0.080100	0.124600
C1071	C107	0.435400	0.174100	0.074400
H751	H75	0.418900	0.186200	0.046000
C1081	C108	0.408800	0.206100	0.110600
H761	H76	0.369700	0.237900	0.106400
O331	O33	0.723800	0.326600	0.746400
O341	O34	0.659400	0.297900	0.684000
O351	O35	0.717200	0.409500	0.550200
O361	O36	0.814500	0.483800	0.554500
C1091	C109	0.709300	0.330100	0.706800
C1101	C110	0.758400	0.379400	0.683300
C1111	C111	0.815600	0.414100	0.706700
H771	H77	0.823300	0.408300	0.737000
C1121	C112	0.862400	0.457900	0.686300
H781	H78	0.902800	0.482000	0.702300
C1131	C113	0.848400	0.465800	0.641100
H791	H79	0.880400	0.495400	0.626600
C1141	C114	0.789600	0.431700	0.617700
C1151	C115	0.742900	0.386800	0.639200
H801	H80	0.702200	0.362500	0.623700
C1161	C116	0.773200	0.441700	0.570100
O371	O37	0.571200	0.195300	0.815900
O381	O38	0.520000	0.159100	0.753700
O391	O39	0.427900	0.028500	0.959400
O401	O40	0.524100	0.101200	0.954800
C1171	C117	0.528400	0.159200	0.794200
C1181	C118	0.486500	0.113600	0.819700
C1191	C119	0.428200	0.071100	0.799400
H811	H81	0.419300	0.071000	0.768800
C1201	C120	0.385600	0.031000	0.825200
H821	H82	0.347700	0.003200	0.811600
C1211	C121	0.395800	0.029600	0.868400
H831	H83	0.364200	0.002100	0.885200
C1221	C122	0.453500	0.069200	0.888500
C1231	C123	0.494900	0.110800	0.864600
H841	H84	0.530700	0.138600	0.879200
C1241	C124	0.468100	0.065400	0.936100
Ag231	Ag23	0.342080	0.276840	0.299230
N231	N23	0.298500	0.315700	0.367000
N241	N24	0.258000	0.377000	0.441700
C1251	C125	0.242900	0.362700	0.365000
H851	H85	0.216300	0.374600	0.338300
C1261	C126	0.226900	0.391900	0.402800
H861	H86	0.190900	0.425400	0.400800
C1271	C127	0.312400	0.330700	0.443100
H871	H87	0.339700	0.319100	0.469700
C1281	C128	0.327900	0.300600	0.406100
H881	H88	0.362100	0.266500	0.408500
Ag241	Ag24	0.248520	0.450750	0.493000
O411	O41	0.416200	0.199900	0.319600
O421	O42	0.466300	0.175600	0.252900
O431	O43	0.488400	0.084200	0.447300
O441	O44	0.575800	0.006900	0.437800
C1291	C129	0.458000	0.169300	0.293600
C1301	C130	0.507100	0.118600	0.313000
C1311	C131	0.557800	0.080900	0.285800
H891	H89	0.558800	0.085600	0.255100
C1321	C132	0.605400	0.037300	0.305300
H901	H90	0.642500	0.013100	0.287900
C1331	C133	0.600600	0.028200	0.348700
H911	H91	0.633500	0.997500	0.361200
C1341	C134	0.547500	0.063500	0.375200
C1351	C135	0.502600	0.108700	0.357000
H921	H92	0.467900	0.133400	0.375100
C1361	C136	0.538800	0.051100	0.423300
O451	O45	0.273400	0.343200	0.260000
O461	O46	0.314700	0.311000	0.193900
O471	O47	0.244200	0.419800	0.062600
O481	O48	0.153800	0.495500	0.067900
C1371	C137	0.275900	0.345600	0.219700
C1381	C138	0.226500	0.395600	0.197100
C1391	C139	0.177800	0.431900	0.221800
H931	H93	0.174900	0.427300	0.252500
C1401	C140	0.130700	0.477100	0.201100
H941	H94	0.094000	0.502600	0.217600
C1411	C141	0.138700	0.483400	0.157800
H951	H95	0.107900	0.514000	0.144100
C1421	C142	0.190500	0.446600	0.132300
C1431	C143	0.235800	0.401400	0.153300
H961	H96	0.272200	0.375500	0.137100
C1441	C144	0.200200	0.455500	0.084500
Ag251	Ag25	0.850920	0.233350	0.788850
N251	N25	0.810600	0.189700	0.855700
N261	N26	0.756600	0.126800	0.928100
C1451	C145	0.834200	0.203600	0.895100
H971	H97	0.871000	0.236300	0.899200
C1461	C146	0.808400	0.173100	0.931200
H981	H98	0.828100	0.185500	0.959100
C1471	C147	0.731300	0.112400	0.887900
H991	H99	0.694500	0.079500	0.884300
C1481	C148	0.755400	0.142400	0.851500
H1001	H100	0.734400	0.130800	0.823600
Ag261	Ag26	0.701010	0.065030	0.980780
Ag271	Ag27	0.912040	0.277480	0.710520
Ag281	Ag28	0.021440	0.444380	0.514490
N271	N27	0.954900	0.316400	0.643800
N281	N28	0.995000	0.374000	0.567600
C1491	C149	0.917400	0.301100	0.604000
H1011	H101	0.875600	0.270200	0.602300
C1501	C150	0.939900	0.329900	0.567100
H1021	H102	0.914800	0.317600	0.540200
C1511	C151	0.037800	0.387400	0.605000
H1031	H103	0.085800	0.415000	0.605400
C1521	C152	0.011300	0.360300	0.643000
H1041	H104	0.035000	0.374000	0.669800
Ag291	Ag29	0.999820	0.439710	0.028220
Ag301	Ag30	0.110530	0.261440	0.216180
N291	N29	0.062800	0.307100	0.150800
N301	N30	0.016500	0.373000	0.079700
C1531	C153	0.015900	0.352700	0.154900
H1051	H105	0.996300	0.363900	0.183100
C1541	C154	0.992600	0.386300	0.119700
H1061	H106	0.958300	0.419900	0.124600
C1551	C155	0.064600	0.325900	0.074400
H1071	H107	0.081100	0.313800	0.046000
C1561	C156	0.091200	0.293900	0.110600
H1081	H108	0.130300	0.262100	0.106400
O491	O49	0.776200	0.173400	0.746400
O501	O50	0.840600	0.202100	0.684000
O511	O51	0.782800	0.090500	0.550200
O521	O52	0.685500	0.016200	0.554500
C1571	C157	0.790700	0.169900	0.706800
C1581	C158	0.741600	0.120600	0.683300
C1591	C159	0.684400	0.085900	0.706700
H1091	H109	0.676700	0.091700	0.737000
C1601	C160	0.637600	0.042100	0.686300
H1101	H110	0.597200	0.018000	0.702300
C1611	C161	0.651600	0.034200	0.641100
H1111	H111	0.619600	0.004600	0.626600
C1621	C162	0.710400	0.068300	0.617700
C1631	C163	0.757100	0.113200	0.639200
H1121	H112	0.797800	0.137500	0.623700
C1641	C164	0.726800	0.058300	0.570100
O531	O53	0.928800	0.304700	0.815900
O541	O54	0.980000	0.340900	0.753700
O551	O55	0.072100	0.471500	0.959400
O561	O56	0.975900	0.398800	0.954800
C1651	C165	0.971600	0.340800	0.794200
C1661	C166	0.013500	0.386400	0.819700
C1671	C167	0.071800	0.428900	0.799400
H1131	H113	0.080700	0.429000	0.768800
C1681	C168	0.114400	0.469000	0.825200
H1141	H114	0.152300	0.496800	0.811600
C1691	C169	0.104200	0.470400	0.868400
H1151	H115	0.135800	0.497900	0.885200
C1701	C170	0.046500	0.430800	0.888500
C1711	C171	0.005100	0.389200	0.864600
H1161	H116	0.969300	0.361400	0.879200
C1721	C172	0.031900	0.434600	0.936100
Ag311	Ag31	0.157920	0.223160	0.299230
N311	N31	0.201500	0.184300	0.367000
N321	N32	0.242000	0.123000	0.441700
C1731	C173	0.257100	0.137300	0.365000
H1171	H117	0.283700	0.125400	0.338300
C1741	C174	0.273100	0.108100	0.402800
H1181	H118	0.309100	0.074600	0.400800
C1751	C175	0.187600	0.169300	0.443100
H1191	H119	0.160300	0.180900	0.469700
C1761	C176	0.172100	0.199400	0.406100
H1201	H120	0.137900	0.233500	0.408500
Ag321	Ag32	0.251480	0.049250	0.493000
O571	O57	0.083800	0.300100	0.319600
O581	O58	0.033700	0.324400	0.252900
O591	O59	0.011600	0.415800	0.447300
O601	O60	0.924200	0.493100	0.437800
C1771	C177	0.042000	0.330700	0.293600
C1781	C178	0.992900	0.381400	0.313000
C1791	C179	0.942200	0.419100	0.285800
H1211	H121	0.941200	0.414400	0.255100
C1801	C180	0.894600	0.462700	0.305300
H1221	H122	0.857500	0.486900	0.287900
C1811	C181	0.899400	0.471800	0.348700
H1231	H123	0.866500	0.502500	0.361200
C1821	C182	0.952500	0.436500	0.375200
C1831	C183	0.997400	0.391300	0.357000
H1241	H124	0.032100	0.366600	0.375100
C1841	C184	0.961200	0.448900	0.423300
O611	O61	0.226600	0.156800	0.260000
O621	O62	0.185300	0.189000	0.193900
O631	O63	0.255800	0.080200	0.062600
O641	O64	0.346200	0.004500	0.067900
C1851	C185	0.224100	0.154400	0.219700
C1861	C186	0.273500	0.104400	0.197100
C1871	C187	0.322200	0.068100	0.221800
H1251	H125	0.325100	0.072700	0.252500
C1881	C188	0.369300	0.022900	0.201100
H1261	H126	0.406000	0.997400	0.217600
C1891	C189	0.361300	0.016600	0.157800
H1271	H127	0.392100	0.986000	0.144100
C1901	C190	0.309500	0.053400	0.132300
C1911	C191	0.264200	0.098600	0.153300
H1281	H128	0.227800	0.124500	0.137100
C1921	C192	0.299800	0.044500	0.084500
Ag331	Ag33	0.649080	0.233350	0.288850
N331	N33	0.689400	0.189700	0.355700
N341	N34	0.743400	0.126800	0.428100
C1931	C193	0.665800	0.203600	0.395100
H1291	H129	0.629000	0.236300	0.399200
C1941	C194	0.691600	0.173100	0.431200
H1301	H130	0.671900	0.185500	0.459100
C1951	C195	0.768700	0.112400	0.387900
H1311	H131	0.805500	0.079500	0.384300
C1961	C196	0.744600	0.142400	0.351500
H1321	H132	0.765600	0.130800	0.323600
Ag341	Ag34	0.798990	0.065030	0.480780
Ag351	Ag35	0.587960	0.277480	0.210520
Ag361	Ag36	0.478560	0.444380	0.014490
N351	N35	0.545100	0.316400	0.143800
N361	N36	0.505000	0.374000	0.067600
C1971	C197	0.582600	0.301100	0.104000
H1331	H133	0.624400	0.270200	0.102300
C1981	C198	0.560100	0.329900	0.067100
H1341	H134	0.585200	0.317600	0.040200
C1991	C199	0.462200	0.387400	0.105000
H1351	H135	0.414200	0.415000	0.105400
C2001	C200	0.488700	0.360300	0.143000
H1361	H136	0.465000	0.374000	0.169800
Ag371	Ag37	0.500180	0.439710	0.528220
Ag381	Ag38	0.389470	0.261440	0.716180
N371	N37	0.437200	0.307100	0.650800
N381	N38	0.483500	0.373000	0.579700
C2011	C201	0.484100	0.352700	0.654900
H1371	H137	0.503700	0.363900	0.683100
C2021	C202	0.507400	0.386300	0.619700
H1381	H138	0.541700	0.419900	0.624600
C2031	C203	0.435400	0.325900	0.574400
H1391	H139	0.418900	0.313800	0.546000
C2041	C204	0.408800	0.293900	0.610600
H1401	H140	0.369700	0.262100	0.606400
O651	O65	0.723800	0.173400	0.246400
O661	O66	0.659400	0.202100	0.184000
O671	O67	0.717200	0.090500	0.050200
O681	O68	0.814500	0.016200	0.054500
C2051	C205	0.709300	0.169900	0.206800
C2061	C206	0.758400	0.120600	0.183300
C2071	C207	0.815600	0.085900	0.206700
H1411	H141	0.823300	0.091700	0.237000
C2081	C208	0.862400	0.042100	0.186300
H1421	H142	0.902800	0.018000	0.202300
C2091	C209	0.848400	0.034200	0.141100
H1431	H143	0.880400	0.004600	0.126600
C2101	C210	0.789600	0.068300	0.117700
C2111	C211	0.742900	0.113200	0.139200
H1441	H144	0.702200	0.137500	0.123700
C2121	C212	0.773200	0.058300	0.070100
O691	O69	0.571200	0.304700	0.315900
O701	O70	0.520000	0.340900	0.253700
O711	O71	0.427900	0.471500	0.459400
O721	O72	0.524100	0.398800	0.454800
C2131	C213	0.528400	0.340800	0.294200
C2141	C214	0.486500	0.386400	0.319700
C2151	C215	0.428200	0.428900	0.299400
H1451	H145	0.419300	0.429000	0.268800
C2161	C216	0.385600	0.469000	0.325200
H1461	H146	0.347700	0.496800	0.311600
C2171	C217	0.395800	0.470400	0.368400
H1471	H147	0.364200	0.497900	0.385200
C2181	C218	0.453500	0.430800	0.388500
C2191	C219	0.494900	0.389200	0.364600
H1481	H148	0.530700	0.361400	0.379200
C2201	C220	0.468100	0.434600	0.436100
Ag391	Ag39	0.342080	0.223160	0.799230
N391	N39	0.298500	0.184300	0.867000
N401	N40	0.258000	0.123000	0.941700
C2211	C221	0.242900	0.137300	0.865000
H1491	H149	0.216300	0.125400	0.838300
C2221	C222	0.226900	0.108100	0.902800
H1501	H150	0.190900	0.074600	0.900800
C2231	C223	0.312400	0.169300	0.943100
H1511	H151	0.339700	0.180900	0.969700
C2241	C224	0.327900	0.199400	0.906100
H1521	H152	0.362100	0.233500	0.908500
Ag401	Ag40	0.248520	0.049250	0.993000
O731	O73	0.416200	0.300100	0.819600
O741	O74	0.466300	0.324400	0.752900
O751	O75	0.488400	0.415800	0.947300
O761	O76	0.575800	0.493100	0.937800
C2251	C225	0.458000	0.330700	0.793600
C2261	C226	0.507100	0.381400	0.813000
C2271	C227	0.557800	0.419100	0.785800
H1531	H153	0.558800	0.414400	0.755100
C2281	C228	0.605400	0.462700	0.805300
H1541	H154	0.642500	0.486900	0.787900
C2291	C229	0.600600	0.471800	0.848700
H1551	H155	0.633500	0.502500	0.861200
C2301	C230	0.547500	0.436500	0.875200
C2311	C231	0.502600	0.391300	0.857000
H1561	H156	0.467900	0.366600	0.875100
C2321	C232	0.538800	0.448900	0.923300
O771	O77	0.273400	0.156800	0.760000
O781	O78	0.314700	0.189000	0.693900
O791	O79	0.244200	0.080200	0.562600
O801	O80	0.153800	0.004500	0.567900
C2331	C233	0.275900	0.154400	0.719700
C2341	C234	0.226500	0.104400	0.697100
C2351	C235	0.177800	0.068100	0.721800
H1571	H157	0.174900	0.072700	0.752500
C2361	C236	0.130700	0.022900	0.701100
H1581	H158	0.094000	0.997400	0.717600
C2371	C237	0.138700	0.016600	0.657800
H1591	H159	0.107900	0.986000	0.644100
C2381	C238	0.190500	0.053400	0.632300
C2391	C239	0.235800	0.098600	0.653300
H1601	H160	0.272200	0.124500	0.637100
C2401	C240	0.200200	0.044500	0.584500
Ag411	Ag41	0.850920	0.266650	0.288850
N411	N41	0.810600	0.310300	0.355700
N421	N42	0.756600	0.373200	0.428100
C2411	C241	0.834200	0.296400	0.395100
H1611	H161	0.871000	0.263700	0.399200
C2421	C242	0.808400	0.326900	0.431200
H1621	H162	0.828100	0.314500	0.459100
C2431	C243	0.731300	0.387600	0.387900
H1631	H163	0.694500	0.420500	0.384300
C2441	C244	0.755400	0.357600	0.351500
H1641	H164	0.734400	0.369200	0.323600
Ag421	Ag42	0.701010	0.434970	0.480780
Ag431	Ag43	0.912040	0.222520	0.210520
Ag441	Ag44	0.021440	0.055620	0.014490
N431	N43	0.954900	0.183600	0.143800
N441	N44	0.995000	0.126000	0.067600
C2451	C245	0.917400	0.198900	0.104000
H1651	H165	0.875600	0.229800	0.102300
C2461	C246	0.939900	0.170100	0.067100
H1661	H166	0.914800	0.182400	0.040200
C2471	C247	0.037800	0.112600	0.105000
H1671	H167	0.085800	0.085000	0.105400
C2481	C248	0.011300	0.139700	0.143000
H1681	H168	0.035000	0.126000	0.169800
Ag451	Ag45	0.999820	0.060290	0.528220
Ag461	Ag46	0.110530	0.238560	0.716180
N451	N45	0.062800	0.192900	0.650800
N461	N46	0.016500	0.127000	0.579700
C2491	C249	0.015900	0.147300	0.654900
H1691	H169	0.996300	0.136100	0.683100
C2501	C250	0.992600	0.113700	0.619700
H1701	H170	0.958300	0.080100	0.624600
C2511	C251	0.064600	0.174100	0.574400
H1711	H171	0.081100	0.186200	0.546000
C2521	C252	0.091200	0.206100	0.610600
H1721	H172	0.130300	0.237900	0.606400
O811	O81	0.776200	0.326600	0.246400
O821	O82	0.840600	0.297900	0.184000
O831	O83	0.782800	0.409500	0.050200
O841	O84	0.685500	0.483800	0.054500
C2531	C253	0.790700	0.330100	0.206800
C2541	C254	0.741600	0.379400	0.183300
C2551	C255	0.684400	0.414100	0.206700
H1731	H173	0.676700	0.408300	0.237000
C2561	C256	0.637600	0.457900	0.186300
H1741	H174	0.597200	0.482000	0.202300
C2571	C257	0.651600	0.465800	0.141100
H1751	H175	0.619600	0.495400	0.126600
C2581	C258	0.710400	0.431700	0.117700
C2591	C259	0.757100	0.386800	0.139200
H1761	H176	0.797800	0.362500	0.123700
C2601	C260	0.726800	0.441700	0.070100
O851	O85	0.928800	0.195300	0.315900
O861	O86	0.980000	0.159100	0.253700
O871	O87	0.072100	0.028500	0.459400
O881	O88	0.975900	0.101200	0.454800
C2611	C261	0.971600	0.159200	0.294200
C2621	C262	0.013500	0.113600	0.319700
C2631	C263	0.071800	0.071100	0.299400
H1771	H177	0.080700	0.071000	0.268800
C2641	C264	0.114400	0.031000	0.325200
H1781	H178	0.152300	0.003200	0.311600
C2651	C265	0.104200	0.029600	0.368400
H1791	H179	0.135800	0.002100	0.385200
C2661	C266	0.046500	0.069200	0.388500
C2671	C267	0.005100	0.110800	0.364600
H1801	H180	0.969300	0.138600	0.379200
C2681	C268	0.031900	0.065400	0.436100
Ag471	Ag47	0.157920	0.276840	0.799230
N471	N47	0.201500	0.315700	0.867000
N481	N48	0.242000	0.377000	0.941700
C2691	C269	0.257100	0.362700	0.865000
H1811	H181	0.283700	0.374600	0.838300
C2701	C270	0.273100	0.391900	0.902800
H1821	H182	0.309100	0.425400	0.900800
C2711	C271	0.187600	0.330700	0.943100
H1831	H183	0.160300	0.319100	0.969700
C2721	C272	0.172100	0.300600	0.906100
H1841	H184	0.137900	0.266500	0.908500
Ag481	Ag48	0.251480	0.450750	0.993000
O891	O89	0.083800	0.199900	0.819600
O901	O90	0.033700	0.175600	0.752900
O911	O91	0.011600	0.084200	0.947300
O921	O92	0.924200	0.006900	0.937800
C2731	C273	0.042000	0.169300	0.793600
C2741	C274	0.992900	0.118600	0.813000
C2751	C275	0.942200	0.080900	0.785800
H1851	H185	0.941200	0.085600	0.755100
C2761	C276	0.894600	0.037300	0.805300
H1861	H186	0.857500	0.013100	0.787900
C2771	C277	0.899400	0.028200	0.848700
H1871	H187	0.866500	0.997500	0.861200
C2781	C278	0.952500	0.063500	0.875200
C2791	C279	0.997400	0.108700	0.857000
H1881	H188	0.032100	0.133400	0.875100
C2801	C280	0.961200	0.051100	0.923300
O931	O93	0.226600	0.343200	0.760000
O941	O94	0.185300	0.311000	0.693900
O951	O95	0.255800	0.419800	0.562600
O961	O96	0.346200	0.495500	0.567900
C2811	C281	0.224100	0.345600	0.719700
C2821	C282	0.273500	0.395600	0.697100
C2831	C283	0.322200	0.431900	0.721800
H1891	H189	0.325100	0.427300	0.752500
C2841	C284	0.369300	0.477100	0.701100
H1901	H190	0.406000	0.502600	0.717600
C2851	C285	0.361300	0.483400	0.657800
H1911	H191	0.392100	0.514000	0.644100
C2861	C286	0.309500	0.446600	0.632300
C2871	C287	0.264200	0.401400	0.653300
H1921	H192	0.227800	0.375500	0.637100
C2881	C288	0.299800	0.455500	0.584500
Ag491	Ag49	0.350920	0.733350	0.211150
N491	N49	0.310600	0.689700	0.144300
N501	N50	0.256600	0.626800	0.071900
C2891	C289	0.334200	0.703600	0.104900
H1931	H193	0.371000	0.736300	0.100800
C2901	C290	0.308400	0.673100	0.068800
H1941	H194	0.328100	0.685500	0.040900
C2911	C291	0.231300	0.612400	0.112100
H1951	H195	0.194500	0.579500	0.115700
C2921	C292	0.255400	0.642400	0.148500
H1961	H196	0.234400	0.630800	0.176400
Ag501	Ag50	0.201010	0.565030	0.019220
Ag511	Ag51	0.412040	0.777480	0.289480
Ag521	Ag52	0.521440	0.944380	0.485510
N511	N51	0.454900	0.816400	0.356200
N521	N52	0.495000	0.874000	0.432400
C2931	C293	0.417400	0.801100	0.396000
H1971	H197	0.375600	0.770200	0.397700
C2941	C294	0.439900	0.829900	0.432900
H1981	H198	0.414800	0.817600	0.459800
C2951	C295	0.537800	0.887400	0.395000
H1991	H199	0.585800	0.915000	0.394600
C2961	C296	0.511300	0.860300	0.357000
H2001	H200	0.535000	0.874000	0.330200
Ag531	Ag53	0.499820	0.939710	0.971780
Ag541	Ag54	0.610530	0.761440	0.783820
N531	N53	0.562800	0.807100	0.849200
N541	N54	0.516500	0.873000	0.920300
C2971	C297	0.515900	0.852700	0.845100
H2011	H201	0.496300	0.863900	0.816900
C2981	C298	0.492600	0.886300	0.880300
H2021	H202	0.458300	0.919900	0.875400
C2991	C299	0.564600	0.825900	0.925600
H2031	H203	0.581100	0.813800	0.954000
C3001	C300	0.591200	0.793900	0.889400
H2041	H204	0.630300	0.762100	0.893600
O971	O97	0.276200	0.673400	0.253600
O981	O98	0.340600	0.702100	0.316000
O991	O99	0.282800	0.590500	0.449800
O1001	O100	0.185500	0.516200	0.445500
C3011	C301	0.290700	0.669900	0.293200
C3021	C302	0.241600	0.620600	0.316700
C3031	C303	0.184400	0.585900	0.293300
H2051	H205	0.176700	0.591700	0.263000
C3041	C304	0.137600	0.542100	0.313700
H2061	H206	0.097200	0.518000	0.297700
C3051	C305	0.151600	0.534200	0.358900
H2071	H207	0.119600	0.504600	0.373400
C3061	C306	0.210400	0.568300	0.382300
C3071	C307	0.257100	0.613200	0.360800
H2081	H208	0.297800	0.637500	0.376300
C3081	C308	0.226800	0.558300	0.429900
O1011	O101	0.428800	0.804700	0.184100
O1021	O102	0.480000	0.840900	0.246300
O1031	O103	0.572100	0.971500	0.040600
O1041	O104	0.475900	0.898800	0.045200
C3091	C309	0.471600	0.840800	0.205800
C3101	C310	0.513500	0.886400	0.180300
C3111	C311	0.571800	0.928900	0.200600
H2091	H209	0.580700	0.929000	0.231200
C3121	C312	0.614400	0.969000	0.174800
H2101	H210	0.652300	0.996800	0.188400
C3131	C313	0.604200	0.970400	0.131600
H2111	H211	0.635800	0.997900	0.114800
C3141	C314	0.546500	0.930800	0.111500
C3151	C315	0.505100	0.889200	0.135400
H2121	H212	0.469300	0.861400	0.120800
C3161	C316	0.531900	0.934600	0.063900
Ag551	Ag55	0.657920	0.723160	0.700770
N551	N55	0.701500	0.684300	0.633000
N561	N56	0.742000	0.623000	0.558300
C3171	C317	0.757100	0.637300	0.635000
H2131	H213	0.783700	0.625400	0.661700
C3181	C318	0.773100	0.608100	0.597200
H2141	H214	0.809100	0.574600	0.599200
C3191	C319	0.687600	0.669300	0.556900
H2151	H215	0.660300	0.680900	0.530300
C3201	C320	0.672100	0.699400	0.593900
H2161	H216	0.637900	0.733500	0.591500
Ag561	Ag56	0.751480	0.549250	0.507000
O1051	O105	0.583800	0.800100	0.680400
O1061	O106	0.533700	0.824400	0.747100
O1071	O107	0.511600	0.915800	0.552700
O1081	O108	0.424200	0.993100	0.562200
C3211	C321	0.542000	0.830700	0.706400
C3221	C322	0.492900	0.881400	0.687000
C3231	C323	0.442200	0.919100	0.714200
H2171	H217	0.441200	0.914400	0.744900
C3241	C324	0.394600	0.962700	0.694700
H2181	H218	0.357500	0.986900	0.712100
C3251	C325	0.399400	0.971800	0.651300
H2191	H219	0.366500	0.002500	0.638800
C3261	C326	0.452500	0.936500	0.624800
C3271	C327	0.497400	0.891300	0.643000
H2201	H220	0.532100	0.866600	0.624900
C3281	C328	0.461200	0.948900	0.576700
O1091	O109	0.726600	0.656800	0.740000
O1101	O110	0.685300	0.689000	0.806100
O1111	O111	0.755800	0.580200	0.937400
O1121	O112	0.846200	0.504500	0.932100
C3291	C329	0.724100	0.654400	0.780300
C3301	C330	0.773500	0.604400	0.802900
C3311	C331	0.822200	0.568100	0.778200
H2211	H221	0.825100	0.572700	0.747500
C3321	C332	0.869300	0.522900	0.798900
H2221	H222	0.906000	0.497400	0.782400
C3331	C333	0.861300	0.516600	0.842200
H2231	H223	0.892100	0.486000	0.855900
C3341	C334	0.809500	0.553400	0.867700
C3351	C335	0.764200	0.598600	0.846700
H2241	H224	0.727800	0.624500	0.862900
C3361	C336	0.799800	0.544500	0.915500
Ag571	Ag57	0.149080	0.766650	0.211150
N571	N57	0.189400	0.810300	0.144300
N581	N58	0.243400	0.873200	0.071900
C3371	C337	0.165800	0.796400	0.104900
H2251	H225	0.129000	0.763700	0.100800
C3381	C338	0.191600	0.826900	0.068800
H2261	H226	0.171900	0.814500	0.040900
C3391	C339	0.268700	0.887600	0.112100
H2271	H227	0.305500	0.920500	0.115700
C3401	C340	0.244600	0.857600	0.148500
H2281	H228	0.265600	0.869200	0.176400
Ag581	Ag58	0.298990	0.934970	0.019220
Ag591	Ag59	0.087960	0.722520	0.289480
Ag601	Ag60	0.978560	0.555620	0.485510
N591	N59	0.045100	0.683600	0.356200
N601	N60	0.005000	0.626000	0.432400
C3411	C341	0.082600	0.698900	0.396000
H2291	H229	0.124400	0.729800	0.397700
C3421	C342	0.060100	0.670100	0.432900
H2301	H230	0.085200	0.682400	0.459800
C3431	C343	0.962200	0.612600	0.395000
H2311	H231	0.914200	0.585000	0.394600
C3441	C344	0.988700	0.639700	0.357000
H2321	H232	0.965000	0.626000	0.330200
Ag611	Ag61	0.000180	0.560290	0.971780
Ag621	Ag62	0.889470	0.738560	0.783820
N611	N61	0.937200	0.692900	0.849200
N621	N62	0.983500	0.627000	0.920300
C3451	C345	0.984100	0.647300	0.845100
H2331	H233	0.003700	0.636100	0.816900
C3461	C346	0.007400	0.613700	0.880300
H2341	H234	0.041700	0.580100	0.875400
C3471	C347	0.935400	0.674100	0.925600
H2351	H235	0.918900	0.686200	0.954000
C3481	C348	0.908800	0.706100	0.889400
H2361	H236	0.869700	0.737900	0.893600
O1131	O113	0.223800	0.826600	0.253600
O1141	O114	0.159400	0.797900	0.316000
O1151	O115	0.217200	0.909500	0.449800
O1161	O116	0.314500	0.983800	0.445500
C3491	C349	0.209300	0.830100	0.293200
C3501	C350	0.258400	0.879400	0.316700
C3511	C351	0.315600	0.914100	0.293300
H2371	H237	0.323300	0.908300	0.263000
C3521	C352	0.362400	0.957900	0.313700
H2381	H238	0.402800	0.982000	0.297700
C3531	C353	0.348400	0.965800	0.358900
H2391	H239	0.380400	0.995400	0.373400
C3541	C354	0.289600	0.931700	0.382300
C3551	C355	0.242900	0.886800	0.360800
H2401	H240	0.202200	0.862500	0.376300
C3561	C356	0.273200	0.941700	0.429900
O1171	O117	0.071200	0.695300	0.184100
O1181	O118	0.020000	0.659100	0.246300
O1191	O119	0.927900	0.528500	0.040600
O1201	O120	0.024100	0.601200	0.045200
C3571	C357	0.028400	0.659200	0.205800
C3581	C358	0.986500	0.613600	0.180300
C3591	C359	0.928200	0.571100	0.200600
H2411	H241	0.919300	0.571000	0.231200
C3601	C360	0.885600	0.531000	0.174800
H2421	H242	0.847700	0.503200	0.188400
C3611	C361	0.895800	0.529600	0.131600
H2431	H243	0.864200	0.502100	0.114800
C3621	C362	0.953500	0.569200	0.111500
C3631	C363	0.994900	0.610800	0.135400
H2441	H244	0.030700	0.638600	0.120800
C3641	C364	0.968100	0.565400	0.063900
Ag631	Ag63	0.842080	0.776840	0.700770
N631	N63	0.798500	0.815700	0.633000
N641	N64	0.758000	0.877000	0.558300
C3651	C365	0.742900	0.862700	0.635000
H2451	H245	0.716300	0.874600	0.661700
C3661	C366	0.726900	0.891900	0.597200
H2461	H246	0.690900	0.925400	0.599200
C3671	C367	0.812400	0.830700	0.556900
H2471	H247	0.839700	0.819100	0.530300
C3681	C368	0.827900	0.800600	0.593900
H2481	H248	0.862100	0.766500	0.591500
Ag641	Ag64	0.748520	0.950750	0.507000
O1211	O121	0.916200	0.699900	0.680400
O1221	O122	0.966300	0.675600	0.747100
O1231	O123	0.988400	0.584200	0.552700
O1241	O124	0.075800	0.506900	0.562200
C3691	C369	0.958000	0.669300	0.706400
C3701	C370	0.007100	0.618600	0.687000
C3711	C371	0.057800	0.580900	0.714200
H2491	H249	0.058800	0.585600	0.744900
C3721	C372	0.105400	0.537300	0.694700
H2501	H250	0.142500	0.513100	0.712100
C3731	C373	0.100600	0.528200	0.651300
H2511	H251	0.133500	0.497500	0.638800
C3741	C374	0.047500	0.563500	0.624800
C3751	C375	0.002600	0.608700	0.643000
H2521	H252	0.967900	0.633400	0.624900
C3761	C376	0.038800	0.551100	0.576700
O1251	O125	0.773400	0.843200	0.740000
O1261	O126	0.814700	0.811000	0.806100
O1271	O127	0.744200	0.919800	0.937400
O1281	O128	0.653800	0.995500	0.932100
C3771	C377	0.775900	0.845600	0.780300
C3781	C378	0.726500	0.895600	0.802900
C3791	C379	0.677800	0.931900	0.778200
H2531	H253	0.674900	0.927300	0.747500
C3801	C380	0.630700	0.977100	0.798900
H2541	H254	0.594000	0.002600	0.782400
C3811	C381	0.638700	0.983400	0.842200
H2551	H255	0.607900	0.014000	0.855900
C3821	C382	0.690500	0.946600	0.867700
C3831	C383	0.735800	0.901400	0.846700
H2561	H256	0.772200	0.875500	0.862900
C3841	C384	0.700200	0.955500	0.915500
