data_TAKTIL_clean_PM
_symmetry_space_group_name_H-M	'P1'
_cell_length_a	15.053500
_cell_length_b	15.053500
_cell_length_c	11.873700
_cell_angle_alpha	90.000000
_cell_angle_beta	90.000000
_cell_angle_gamma	90.000000
_symmetry_Int_Tables_number 1

loop_
_symmetry_equiv_pos_as_xyz
'x,y,z'

loop_
_atom_site_label
_atom_site_type_symbol
_atom_site_fract_x
_atom_site_fract_y
_atom_site_fract_z
O11	O1	0.099600	0.285800	0.998800
O21	O2	0.125100	0.380700	0.142500
C11	C1	0.092300	0.361900	0.048400
C21	C2	0.041100	0.430300	0.989700
C31	C3	0.038000	0.430100	0.870900
H11	H1	0.062300	0.381400	0.830300
O31	O3	0.599600	0.785800	0.498800
O41	O4	0.625100	0.880700	0.642500
C41	C4	0.592300	0.861900	0.548400
C51	C5	0.541100	0.930300	0.489700
C61	C6	0.538000	0.930100	0.370900
H21	H2	0.562300	0.881400	0.330300
O51	O5	0.400400	0.214200	0.498800
O61	O6	0.374900	0.119300	0.642500
C71	C7	0.407700	0.138100	0.548400
C81	C8	0.458900	0.069700	0.489700
C91	C9	0.462000	0.069900	0.370900
H31	H3	0.437700	0.118600	0.330300
O71	O7	0.900400	0.714200	0.998800
O81	O8	0.874900	0.619300	0.142500
C101	C10	0.907700	0.638100	0.048400
C111	C11	0.958900	0.569700	0.989700
C121	C12	0.962000	0.569900	0.870900
H41	H4	0.937700	0.618600	0.830300
O91	O9	0.714200	0.599600	0.248800
O101	O10	0.619300	0.625100	0.392500
C131	C13	0.638100	0.592300	0.298400
C141	C14	0.569700	0.541100	0.239700
C151	C15	0.569900	0.538000	0.120900
H51	H5	0.618600	0.562300	0.080300
O111	O11	0.214200	0.099600	0.748800
O121	O12	0.119300	0.125100	0.892500
C161	C16	0.138100	0.092300	0.798400
C171	C17	0.069700	0.041100	0.739700
C181	C18	0.069900	0.038000	0.620900
H61	H6	0.118600	0.062300	0.580300
O131	O13	0.785800	0.900400	0.748800
O141	O14	0.880700	0.874900	0.892500
C191	C19	0.861900	0.907700	0.798400
C201	C20	0.930300	0.958900	0.739700
C211	C21	0.930100	0.962000	0.620900
H71	H7	0.881400	0.937700	0.580300
O151	O15	0.285800	0.400400	0.248800
O161	O16	0.380700	0.374900	0.392500
C221	C22	0.361900	0.407700	0.298400
C231	C23	0.430300	0.458900	0.239700
C241	C24	0.430100	0.462000	0.120900
H81	H8	0.381400	0.437700	0.080300
O171	O17	0.400400	0.285800	0.751200
O181	O18	0.374900	0.380700	0.607500
C251	C25	0.407700	0.361900	0.701600
C261	C26	0.458900	0.430300	0.760300
C271	C27	0.462000	0.430100	0.879100
H91	H9	0.437700	0.381400	0.919700
O191	O19	0.900400	0.785800	0.251200
O201	O20	0.874900	0.880700	0.107500
C281	C28	0.907700	0.861900	0.201600
C291	C29	0.958900	0.930300	0.260300
C301	C30	0.962000	0.930100	0.379100
H101	H10	0.937700	0.881400	0.419700
O211	O21	0.099600	0.214200	0.251200
O221	O22	0.125100	0.119300	0.107500
C311	C31	0.092300	0.138100	0.201600
C321	C32	0.041100	0.069700	0.260300
C331	C33	0.038000	0.069900	0.379100
H111	H11	0.062300	0.118600	0.419700
O231	O23	0.599600	0.714200	0.751200
O241	O24	0.625100	0.619300	0.607500
C341	C34	0.592300	0.638100	0.701600
C351	C35	0.541100	0.569700	0.760300
C361	C36	0.538000	0.569900	0.879100
H121	H12	0.562300	0.618600	0.919700
O251	O25	0.785800	0.599600	0.501200
O261	O26	0.880700	0.625100	0.357500
C371	C37	0.861900	0.592300	0.451600
C381	C38	0.930300	0.541100	0.510300
C391	C39	0.930100	0.538000	0.629100
H131	H13	0.881400	0.562300	0.669700
O271	O27	0.285800	0.099600	0.001200
O281	O28	0.380700	0.125100	0.857500
C401	C40	0.361900	0.092300	0.951600
C411	C41	0.430300	0.041100	0.010300
C421	C42	0.430100	0.038000	0.129100
H141	H14	0.381400	0.062300	0.169700
O291	O29	0.714200	0.900400	0.001200
O301	O30	0.619300	0.874900	0.857500
C431	C43	0.638100	0.907700	0.951600
C441	C44	0.569700	0.958900	0.010300
C451	C45	0.569900	0.962000	0.129100
H151	H15	0.618600	0.937700	0.169700
O311	O31	0.214200	0.400400	0.501200
O321	O32	0.119300	0.374900	0.357500
C461	C46	0.138100	0.407700	0.451600
C471	C47	0.069700	0.458900	0.510300
C481	C48	0.069900	0.462000	0.629100
H161	H16	0.118600	0.437700	0.669700
Ga11	Ga1	0.194730	0.194730	0.000000
Ga21	Ga2	0.694730	0.694730	0.500000
Ga31	Ga3	0.305270	0.305270	0.500000
Ga41	Ga4	0.805270	0.694730	0.250000
Ga51	Ga5	0.694730	0.805270	0.750000
Ga61	Ga6	0.305270	0.194730	0.750000
Ga71	Ga7	0.194730	0.305270	0.250000
Ga81	Ga8	0.805270	0.805270	0.000000
O331	O33	0.252300	0.250000	0.125000
H171	H17	0.307900	0.250000	0.125000
O341	O34	0.752300	0.750000	0.625000
H181	H18	0.807900	0.750000	0.625000
O351	O35	0.247700	0.250000	0.625000
H191	H19	0.192100	0.250000	0.625000
O361	O36	0.747700	0.750000	0.125000
H201	H20	0.692100	0.750000	0.125000
O371	O37	0.750000	0.752300	0.375000
H211	H21	0.750000	0.807900	0.375000
O381	O38	0.250000	0.252300	0.875000
H221	H22	0.250000	0.307900	0.875000
O391	O39	0.750000	0.747700	0.875000
H231	H23	0.750000	0.692100	0.875000
O401	O40	0.250000	0.247700	0.375000
H241	H24	0.250000	0.192100	0.375000
C491	C49	0.000000	0.500000	0.050200
H251	H25	0.000000	0.500000	0.130200
C501	C50	0.000000	0.500000	0.813600
C511	C51	0.500000	0.000000	0.550200
H261	H26	0.500000	0.000000	0.630200
C521	C52	0.500000	0.000000	0.313600
C531	C53	0.500000	0.500000	0.300200
H271	H27	0.500000	0.500000	0.380200
C541	C54	0.500000	0.500000	0.063600
C551	C55	0.000000	0.000000	0.800200
H281	H28	0.000000	0.000000	0.880200
C561	C56	0.000000	0.000000	0.563600
C571	C57	0.500000	0.500000	0.699800
H291	H29	0.500000	0.500000	0.619800
C581	C58	0.500000	0.500000	0.936400
C591	C59	0.000000	0.000000	0.199800
H301	H30	0.000000	0.000000	0.119800
C601	C60	0.000000	0.000000	0.436400
C611	C61	0.000000	0.500000	0.449800
H311	H31	0.000000	0.500000	0.369800
C621	C62	0.000000	0.500000	0.686400
C631	C63	0.500000	0.000000	0.949800
H321	H32	0.500000	0.000000	0.869800
C641	C64	0.500000	0.000000	0.186400
