data_TAKVAF_clean_PM
_symmetry_space_group_name_H-M	'P1'
_cell_length_a	14.924000
_cell_length_b	14.924000
_cell_length_c	11.929000
_cell_angle_alpha	90.000000
_cell_angle_beta	90.000000
_cell_angle_gamma	90.000000
_symmetry_Int_Tables_number 1

loop_
_symmetry_equiv_pos_as_xyz
'x,y,z'

loop_
_atom_site_label
_atom_site_type_symbol
_atom_site_fract_x
_atom_site_fract_y
_atom_site_fract_z
O11	O1	0.099440	0.286120	0.997830
O21	O2	0.122490	0.379510	0.143310
C11	C1	0.091100	0.359600	0.049000
C21	C2	0.043300	0.430560	0.990500
C31	C3	0.039100	0.431100	0.870300
H11	H1	0.064100	0.382400	0.829800
O31	O3	0.599440	0.786120	0.497830
O41	O4	0.622490	0.879510	0.643310
C41	C4	0.591100	0.859600	0.549000
C51	C5	0.543300	0.930560	0.490500
C61	C6	0.539100	0.931100	0.370300
H21	H2	0.564100	0.882400	0.329800
O51	O5	0.400560	0.213880	0.497830
O61	O6	0.377510	0.120490	0.643310
C71	C7	0.408900	0.140400	0.549000
C81	C8	0.456700	0.069440	0.490500
C91	C9	0.460900	0.068900	0.370300
H31	H3	0.435900	0.117600	0.329800
O71	O7	0.900560	0.713880	0.997830
O81	O8	0.877510	0.620490	0.143310
C101	C10	0.908900	0.640400	0.049000
C111	C11	0.956700	0.569440	0.990500
C121	C12	0.960900	0.568900	0.870300
H41	H4	0.935900	0.617600	0.829800
O91	O9	0.713880	0.599440	0.247830
O101	O10	0.620490	0.622490	0.393310
C131	C13	0.640400	0.591100	0.299000
C141	C14	0.569440	0.543300	0.240500
C151	C15	0.568900	0.539100	0.120300
H51	H5	0.617600	0.564100	0.079800
O111	O11	0.213880	0.099440	0.747830
O121	O12	0.120490	0.122490	0.893310
C161	C16	0.140400	0.091100	0.799000
C171	C17	0.069440	0.043300	0.740500
C181	C18	0.068900	0.039100	0.620300
H61	H6	0.117600	0.064100	0.579800
O131	O13	0.786120	0.900560	0.747830
O141	O14	0.879510	0.877510	0.893310
C191	C19	0.859600	0.908900	0.799000
C201	C20	0.930560	0.956700	0.740500
C211	C21	0.931100	0.960900	0.620300
H71	H7	0.882400	0.935900	0.579800
O151	O15	0.286120	0.400560	0.247830
O161	O16	0.379510	0.377510	0.393310
C221	C22	0.359600	0.408900	0.299000
C231	C23	0.430560	0.456700	0.240500
C241	C24	0.431100	0.460900	0.120300
H81	H8	0.382400	0.435900	0.079800
O171	O17	0.400560	0.286120	0.752170
O181	O18	0.377510	0.379510	0.606690
C251	C25	0.408900	0.359600	0.701000
C261	C26	0.456700	0.430560	0.759500
C271	C27	0.460900	0.431100	0.879700
H91	H9	0.435900	0.382400	0.920200
O191	O19	0.900560	0.786120	0.252170
O201	O20	0.877510	0.879510	0.106690
C281	C28	0.908900	0.859600	0.201000
C291	C29	0.956700	0.930560	0.259500
C301	C30	0.960900	0.931100	0.379700
H101	H10	0.935900	0.882400	0.420200
O211	O21	0.099440	0.213880	0.252170
O221	O22	0.122490	0.120490	0.106690
C311	C31	0.091100	0.140400	0.201000
C321	C32	0.043300	0.069440	0.259500
C331	C33	0.039100	0.068900	0.379700
H111	H11	0.064100	0.117600	0.420200
O231	O23	0.599440	0.713880	0.752170
O241	O24	0.622490	0.620490	0.606690
C341	C34	0.591100	0.640400	0.701000
C351	C35	0.543300	0.569440	0.759500
C361	C36	0.539100	0.568900	0.879700
H121	H12	0.564100	0.617600	0.920200
O251	O25	0.786120	0.599440	0.502170
O261	O26	0.879510	0.622490	0.356690
C371	C37	0.859600	0.591100	0.451000
C381	C38	0.930560	0.543300	0.509500
C391	C39	0.931100	0.539100	0.629700
H131	H13	0.882400	0.564100	0.670200
O271	O27	0.286120	0.099440	0.002170
O281	O28	0.379510	0.122490	0.856690
C401	C40	0.359600	0.091100	0.951000
C411	C41	0.430560	0.043300	0.009500
C421	C42	0.431100	0.039100	0.129700
H141	H14	0.382400	0.064100	0.170200
O291	O29	0.713880	0.900560	0.002170
O301	O30	0.620490	0.877510	0.856690
C431	C43	0.640400	0.908900	0.951000
C441	C44	0.569440	0.956700	0.009500
C451	C45	0.568900	0.960900	0.129700
H151	H15	0.617600	0.935900	0.170200
O311	O31	0.213880	0.400560	0.502170
O321	O32	0.120490	0.377510	0.356690
C461	C46	0.140400	0.408900	0.451000
C471	C47	0.069440	0.456700	0.509500
C481	C48	0.068900	0.460900	0.629700
H161	H16	0.117600	0.435900	0.670200
Fe11	Fe1	0.193470	0.193470	0.000000
Fe21	Fe2	0.693470	0.693470	0.500000
Fe31	Fe3	0.306530	0.306530	0.500000
Fe41	Fe4	0.806530	0.693470	0.250000
Fe51	Fe5	0.693470	0.806530	0.750000
Fe61	Fe6	0.306530	0.193470	0.750000
Fe71	Fe7	0.193470	0.306530	0.250000
Fe81	Fe8	0.806530	0.806530	0.000000
O331	O33	0.253700	0.250000	0.125000
H171	H17	0.308800	0.250000	0.125000
O341	O34	0.753700	0.750000	0.625000
H181	H18	0.808800	0.750000	0.625000
O351	O35	0.246300	0.250000	0.625000
H191	H19	0.191200	0.250000	0.625000
O361	O36	0.746300	0.750000	0.125000
H201	H20	0.691200	0.750000	0.125000
O371	O37	0.750000	0.753700	0.375000
H211	H21	0.750000	0.808800	0.375000
O381	O38	0.250000	0.253700	0.875000
H221	H22	0.250000	0.308800	0.875000
O391	O39	0.750000	0.746300	0.875000
H231	H23	0.750000	0.691200	0.875000
O401	O40	0.250000	0.246300	0.375000
H241	H24	0.250000	0.191200	0.375000
C491	C49	0.000000	0.500000	0.812300
C501	C50	0.000000	0.500000	0.047100
H251	H25	0.000000	0.500000	0.126800
C511	C51	0.500000	0.000000	0.312300
C521	C52	0.500000	0.000000	0.547100
H261	H26	0.500000	0.000000	0.626800
C531	C53	0.500000	0.500000	0.062300
C541	C54	0.500000	0.500000	0.297100
H271	H27	0.500000	0.500000	0.376800
C551	C55	0.000000	0.000000	0.562300
C561	C56	0.000000	0.000000	0.797100
H281	H28	0.000000	0.000000	0.876800
C571	C57	0.500000	0.500000	0.937700
C581	C58	0.500000	0.500000	0.702900
H291	H29	0.500000	0.500000	0.623200
C591	C59	0.000000	0.000000	0.437700
C601	C60	0.000000	0.000000	0.202900
H301	H30	0.000000	0.000000	0.123200
C611	C61	0.000000	0.500000	0.687700
C621	C62	0.000000	0.500000	0.452900
H311	H31	0.000000	0.500000	0.373200
C631	C63	0.500000	0.000000	0.187700
C641	C64	0.500000	0.000000	0.952900
H321	H32	0.500000	0.000000	0.873200
