data_TAKZEN_clean_PM
_symmetry_space_group_name_H-M	'P1'
_cell_length_a	8.018000
_cell_length_b	21.040000
_cell_length_c	11.069000
_cell_angle_alpha	90.000000
_cell_angle_beta	91.260000
_cell_angle_gamma	90.000000
_symmetry_Int_Tables_number 1

loop_
_symmetry_equiv_pos_as_xyz
'x,y,z'

loop_
_atom_site_label
_atom_site_type_symbol
_atom_site_fract_x
_atom_site_fract_y
_atom_site_fract_z
Zn11	Zn1	0.103370	0.613550	0.276690
Zn21	Zn2	0.815210	0.691680	0.135540
N11	N1	0.864100	0.752100	0.495100
N21	N2	0.981600	0.681900	0.374500
N31	N3	0.879900	0.722600	0.304200
N41	N4	0.315900	0.653900	0.212200
N51	N5	0.563200	0.678700	0.150300
N61	N6	0.448300	0.707400	0.077300
N71	N7	0.300500	0.692400	0.113500
O11	O1	0.846000	0.451300	0.604900
O21	O2	0.751400	0.520700	0.739700
O31	O3	0.946100	0.614100	0.141100
H11	H1	0.963100	0.593900	0.078200
C11	C1	0.770400	0.503100	0.634200
C21	C2	0.698000	0.540900	0.529000
C31	C3	0.591800	0.592200	0.551700
H21	H2	0.568000	0.603400	0.630800
C41	C4	0.733600	0.524000	0.410600
H31	H3	0.804500	0.490100	0.395500
C51	C5	0.521700	0.626600	0.454900
H41	H4	0.451600	0.660800	0.469700
C61	C6	0.662300	0.558200	0.315000
H51	H5	0.685200	0.546600	0.236000
C71	C7	0.556900	0.609700	0.336200
C81	C8	0.478900	0.646900	0.234300
C91	C9	0.695800	0.815500	0.338600
H61	H6	0.746700	0.856200	0.352700
H71	H7	0.594700	0.812600	0.383200
H81	H8	0.670500	0.810700	0.253900
C101	C10	0.813000	0.764200	0.379000
C111	C11	0.968500	0.700800	0.487600
C121	C12	0.054100	0.668700	0.592100
H91	H9	0.117300	0.633200	0.563400
H101	H10	0.972400	0.654000	0.647600
H111	H11	0.127700	0.698300	0.632300
Zn31	Zn3	0.896630	0.113550	0.223310
Zn41	Zn4	0.184790	0.191680	0.364460
N81	N8	0.135900	0.252100	0.004900
N91	N9	0.018400	0.181900	0.125500
N101	N10	0.120100	0.222600	0.195800
N111	N11	0.684100	0.153900	0.287800
N121	N12	0.436800	0.178700	0.349700
N131	N13	0.551700	0.207400	0.422700
N141	N14	0.699500	0.192400	0.386500
O41	O4	0.154000	0.951300	0.895100
O51	O5	0.248600	0.020700	0.760300
O61	O6	0.053900	0.114100	0.358900
H121	H12	0.036900	0.093900	0.421800
C131	C13	0.229600	0.003100	0.865800
C141	C14	0.302000	0.040900	0.971000
C151	C15	0.408200	0.092200	0.948300
H131	H13	0.432000	0.103400	0.869200
C161	C16	0.266400	0.024000	0.089400
H141	H14	0.195500	0.990100	0.104500
C171	C17	0.478300	0.126600	0.045100
H151	H15	0.548400	0.160800	0.030300
C181	C18	0.337700	0.058200	0.185000
H161	H16	0.314800	0.046600	0.264000
C191	C19	0.443100	0.109700	0.163800
C201	C20	0.521100	0.146900	0.265700
C211	C21	0.304200	0.315500	0.161400
H171	H17	0.253300	0.356200	0.147300
H181	H18	0.405300	0.312600	0.116800
H191	H19	0.329500	0.310700	0.246100
C221	C22	0.187000	0.264200	0.121000
C231	C23	0.031500	0.200800	0.012400
C241	C24	0.945900	0.168700	0.907900
H201	H20	0.882700	0.133200	0.936600
H211	H21	0.027600	0.154000	0.852400
H221	H22	0.872300	0.198300	0.867700
Zn51	Zn5	0.896630	0.386450	0.723310
Zn61	Zn6	0.184790	0.308320	0.864460
N151	N15	0.135900	0.247900	0.504900
N161	N16	0.018400	0.318100	0.625500
N171	N17	0.120100	0.277400	0.695800
N181	N18	0.684100	0.346100	0.787800
N191	N19	0.436800	0.321300	0.849700
N201	N20	0.551700	0.292600	0.922700
N211	N21	0.699500	0.307600	0.886500
O71	O7	0.154000	0.548700	0.395100
O81	O8	0.248600	0.479300	0.260300
O91	O9	0.053900	0.385900	0.858900
H231	H23	0.036900	0.406100	0.921800
C251	C25	0.229600	0.496900	0.365800
C261	C26	0.302000	0.459100	0.471000
C271	C27	0.408200	0.407800	0.448300
H241	H24	0.432000	0.396600	0.369200
C281	C28	0.266400	0.476000	0.589400
H251	H25	0.195500	0.509900	0.604500
C291	C29	0.478300	0.373400	0.545100
H261	H26	0.548400	0.339200	0.530300
C301	C30	0.337700	0.441800	0.685000
H271	H27	0.314800	0.453400	0.764000
C311	C31	0.443100	0.390300	0.663800
C321	C32	0.521100	0.353100	0.765700
C331	C33	0.304200	0.184500	0.661400
H281	H28	0.253300	0.143800	0.647300
H291	H29	0.405300	0.187400	0.616800
H301	H30	0.329500	0.189300	0.746100
C341	C34	0.187000	0.235800	0.621000
C351	C35	0.031500	0.299200	0.512400
C361	C36	0.945900	0.331300	0.407900
H311	H31	0.882700	0.366800	0.436600
H321	H32	0.027600	0.346000	0.352400
H331	H33	0.872300	0.301700	0.367700
Zn71	Zn7	0.103370	0.886450	0.776690
Zn81	Zn8	0.815210	0.808320	0.635540
N221	N22	0.864100	0.747900	0.995100
N231	N23	0.981600	0.818100	0.874500
N241	N24	0.879900	0.777400	0.804200
N251	N25	0.315900	0.846100	0.712200
N261	N26	0.563200	0.821300	0.650300
N271	N27	0.448300	0.792600	0.577300
N281	N28	0.300500	0.807600	0.613500
O101	O10	0.846000	0.048700	0.104900
O111	O11	0.751400	0.979300	0.239700
O121	O12	0.946100	0.885900	0.641100
H341	H34	0.963100	0.906100	0.578200
C371	C37	0.770400	0.996900	0.134200
C381	C38	0.698000	0.959100	0.029000
C391	C39	0.591800	0.907800	0.051700
H351	H35	0.568000	0.896600	0.130800
C401	C40	0.733600	0.976000	0.910600
H361	H36	0.804500	0.009900	0.895500
C411	C41	0.521700	0.873400	0.954900
H371	H37	0.451600	0.839200	0.969700
C421	C42	0.662300	0.941800	0.815000
H381	H38	0.685200	0.953400	0.736000
C431	C43	0.556900	0.890300	0.836200
C441	C44	0.478900	0.853100	0.734300
C451	C45	0.695800	0.684500	0.838600
H391	H39	0.746700	0.643800	0.852700
H401	H40	0.594700	0.687400	0.883200
H411	H41	0.670500	0.689300	0.753900
C461	C46	0.813000	0.735800	0.879000
C471	C47	0.968500	0.799200	0.987600
C481	C48	0.054100	0.831300	0.092100
H421	H42	0.117300	0.866800	0.063400
H431	H43	0.972400	0.846000	0.147600
H441	H44	0.127700	0.801700	0.132300
