data_TAMHUM_clean_PM
_symmetry_space_group_name_H-M	'P1'
_cell_length_a	27.978000
_cell_length_b	27.978000
_cell_length_c	14.979800
_cell_angle_alpha	90.000000
_cell_angle_beta	90.000000
_cell_angle_gamma	120.000000
_symmetry_Int_Tables_number 1

loop_
_symmetry_equiv_pos_as_xyz
'x,y,z'

loop_
_atom_site_label
_atom_site_type_symbol
_atom_site_fract_x
_atom_site_fract_y
_atom_site_fract_z
Ag11	Ag1	0.743080	0.129400	0.427700
N11	N1	0.802900	0.213800	0.374600
C11	C1	0.881600	0.264000	0.049400
H11	H1	0.847400	0.230700	0.043100
C21	C2	0.884900	0.303200	0.108900
C31	C3	0.802300	0.228200	0.290300
H21	H2	0.776200	0.201600	0.250500
N21	N2	0.876800	0.319400	0.310200
C41	C4	0.879300	0.305300	0.392300
H31	H3	0.907100	0.331900	0.430100
N31	N3	0.932900	0.349700	0.123700
C51	C5	0.838500	0.280600	0.258100
N41	N4	0.923800	0.270900	0.001100
C61	C6	0.976200	0.357700	0.074800
H41	H4	0.010300	0.391100	0.081800
C71	C7	0.843900	0.254100	0.427100
H51	H5	0.847700	0.246400	0.487600
C81	C8	0.973000	0.319000	0.014400
H61	H6	0.004800	0.325500	0.981800
C91	C9	0.835400	0.295000	0.163000
H71	H7	0.801300	0.265200	0.135600
H81	H8	0.833300	0.329300	0.161000
Ag21	Ag2	0.409750	0.462730	0.761030
N51	N5	0.469570	0.547130	0.707930
C101	C10	0.548270	0.597330	0.382730
H91	H9	0.514070	0.564030	0.376430
C111	C11	0.551570	0.636530	0.442230
C121	C12	0.468970	0.561530	0.623630
H101	H10	0.442870	0.534930	0.583830
N61	N6	0.543470	0.652730	0.643530
C131	C13	0.545970	0.638630	0.725630
H111	H11	0.573770	0.665230	0.763430
N71	N7	0.599570	0.683030	0.457030
C141	C14	0.505170	0.613930	0.591430
N81	N8	0.590470	0.604230	0.334430
C151	C15	0.642870	0.691030	0.408130
H121	H12	0.676970	0.724430	0.415130
C161	C16	0.510570	0.587430	0.760430
H131	H13	0.514370	0.579730	0.820930
C171	C17	0.639670	0.652330	0.347730
H141	H14	0.671470	0.658830	0.315130
C181	C18	0.502070	0.628330	0.496330
H151	H15	0.467970	0.598530	0.468930
H161	H16	0.499970	0.662630	0.494330
Ag31	Ag3	0.076410	0.796070	0.094370
N91	N9	0.136230	0.880470	0.041270
C191	C19	0.214930	0.930670	0.716070
H171	H17	0.180730	0.897370	0.709770
C201	C20	0.218230	0.969870	0.775570
C211	C21	0.135630	0.894870	0.956970
H181	H18	0.109530	0.868270	0.917170
N101	N10	0.210130	0.986070	0.976870
C221	C22	0.212630	0.971970	0.058970
H191	H19	0.240430	0.998570	0.096770
N111	N11	0.266230	0.016370	0.790370
C231	C23	0.171830	0.947270	0.924770
N121	N12	0.257130	0.937570	0.667770
C241	C24	0.309530	0.024370	0.741470
H201	H20	0.343630	0.057770	0.748470
C251	C25	0.177230	0.920770	0.093770
H211	H21	0.181030	0.913070	0.154270
C261	C26	0.306330	0.985670	0.681070
H221	H22	0.338130	0.992170	0.648470
C271	C27	0.168730	0.961670	0.829670
H231	H23	0.134630	0.931870	0.802270
H241	H24	0.166630	0.995970	0.827670
Ag41	Ag4	0.870600	0.613680	0.427700
N131	N13	0.786200	0.589100	0.374600
C281	C28	0.736000	0.617600	0.049400
H251	H25	0.769300	0.616700	0.043100
C291	C29	0.696800	0.581700	0.108900
C301	C30	0.771800	0.574100	0.290300
H261	H26	0.798400	0.574600	0.250500
N141	N14	0.680600	0.557400	0.310200
C311	C31	0.694700	0.574000	0.392300
H271	H27	0.668100	0.575200	0.430100
N151	N15	0.650300	0.583200	0.123700
C321	C32	0.719400	0.557900	0.258100
N161	N16	0.729100	0.652900	0.001100
C331	C33	0.642300	0.618500	0.074800
H281	H28	0.608900	0.619200	0.081800
C341	C34	0.745900	0.589800	0.427100
H291	H29	0.753600	0.601300	0.487600
C351	C35	0.681000	0.654000	0.014400
H301	H30	0.674500	0.679300	0.981800
C361	C36	0.705000	0.540400	0.163000
H311	H31	0.734800	0.536100	0.135600
H321	H32	0.670700	0.504000	0.161000
Ag51	Ag5	0.537270	0.947010	0.761030
N171	N17	0.452870	0.922430	0.707930
C371	C37	0.402670	0.950930	0.382730
H331	H33	0.435970	0.950030	0.376430
C381	C38	0.363470	0.915030	0.442230
C391	C39	0.438470	0.907430	0.623630
H341	H34	0.465070	0.907930	0.583830
N181	N18	0.347270	0.890730	0.643530
C401	C40	0.361370	0.907330	0.725630
H351	H35	0.334770	0.908530	0.763430
N191	N19	0.316970	0.916530	0.457030
C411	C41	0.386070	0.891230	0.591430
N201	N20	0.395770	0.986230	0.334430
C421	C42	0.308970	0.951830	0.408130
H361	H36	0.275570	0.952530	0.415130
C431	C43	0.412570	0.923130	0.760430
H371	H37	0.420270	0.934630	0.820930
C441	C44	0.347670	0.987330	0.347730
H381	H38	0.341170	0.012630	0.315130
C451	C45	0.371670	0.873730	0.496330
H391	H39	0.401470	0.869430	0.468930
H401	H40	0.337370	0.837330	0.494330
Ag61	Ag6	0.203930	0.280350	0.094370
N211	N21	0.119530	0.255770	0.041270
C461	C46	0.069330	0.284270	0.716070
H411	H41	0.102630	0.283370	0.709770
C471	C47	0.030130	0.248370	0.775570
C481	C48	0.105130	0.240770	0.956970
H421	H42	0.131730	0.241270	0.917170
N221	N22	0.013930	0.224070	0.976870
C491	C49	0.028030	0.240670	0.058970
H431	H43	0.001430	0.241870	0.096770
N231	N23	0.983630	0.249870	0.790370
C501	C50	0.052730	0.224570	0.924770
N241	N24	0.062430	0.319570	0.667770
C511	C51	0.975630	0.285170	0.741470
H441	H44	0.942230	0.285870	0.748470
C521	C52	0.079230	0.256470	0.093770
H451	H45	0.086930	0.267970	0.154270
C531	C53	0.014330	0.320670	0.681070
H461	H46	0.007830	0.345970	0.648470
C541	C54	0.038330	0.207070	0.829670
H471	H47	0.068130	0.202770	0.802270
H481	H48	0.004030	0.170670	0.827670
Ag71	Ag7	0.386320	0.256920	0.427700
N251	N25	0.410900	0.197100	0.374600
C551	C55	0.382400	0.118400	0.049400
H491	H49	0.383300	0.152600	0.043100
C561	C56	0.418300	0.115100	0.108900
C571	C57	0.425900	0.197700	0.290300
H501	H50	0.425400	0.223800	0.250500
N261	N26	0.442600	0.123200	0.310200
C581	C58	0.426000	0.120700	0.392300
H511	H51	0.424800	0.092900	0.430100
N271	N27	0.416800	0.067100	0.123700
C591	C59	0.442100	0.161500	0.258100
N281	N28	0.347100	0.076200	0.001100
C601	C60	0.381500	0.023800	0.074800
H521	H52	0.380800	0.989700	0.081800
C611	C61	0.410200	0.156100	0.427100
H531	H53	0.398700	0.152300	0.487600
C621	C62	0.346000	0.027000	0.014400
H541	H54	0.320700	0.995200	0.981800
C631	C63	0.459600	0.164600	0.163000
H551	H55	0.463900	0.198700	0.135600
H561	H56	0.496000	0.166700	0.161000
Ag81	Ag8	0.052990	0.590250	0.761030
N291	N29	0.077570	0.530430	0.707930
C641	C64	0.049070	0.451730	0.382730
H571	H57	0.049970	0.485930	0.376430
C651	C65	0.084970	0.448430	0.442230
C661	C66	0.092570	0.531030	0.623630
H581	H58	0.092070	0.557130	0.583830
N301	N30	0.109270	0.456530	0.643530
C671	C67	0.092670	0.454030	0.725630
H591	H59	0.091470	0.426230	0.763430
N311	N31	0.083470	0.400430	0.457030
C681	C68	0.108770	0.494830	0.591430
N321	N32	0.013770	0.409530	0.334430
C691	C69	0.048170	0.357130	0.408130
H601	H60	0.047470	0.323030	0.415130
C701	C70	0.076870	0.489430	0.760430
H611	H61	0.065370	0.485630	0.820930
C711	C71	0.012670	0.360330	0.347730
H621	H62	0.987370	0.328530	0.315130
C721	C72	0.126270	0.497930	0.496330
H631	H63	0.130570	0.532030	0.468930
H641	H64	0.162670	0.500030	0.494330
Ag91	Ag9	0.719650	0.923590	0.094370
N331	N33	0.744230	0.863770	0.041270
C731	C73	0.715730	0.785070	0.716070
H651	H65	0.716630	0.819270	0.709770
C741	C74	0.751630	0.781770	0.775570
C751	C75	0.759230	0.864370	0.956970
H661	H66	0.758730	0.890470	0.917170
N341	N34	0.775930	0.789870	0.976870
C761	C76	0.759330	0.787370	0.058970
H671	H67	0.758130	0.759570	0.096770
N351	N35	0.750130	0.733770	0.790370
C771	C77	0.775430	0.828170	0.924770
N361	N36	0.680430	0.742870	0.667770
C781	C78	0.714830	0.690470	0.741470
H681	H68	0.714130	0.656370	0.748470
C791	C79	0.743530	0.822770	0.093770
H691	H69	0.732030	0.818970	0.154270
C801	C80	0.679330	0.693670	0.681070
H701	H70	0.654030	0.661870	0.648470
C811	C81	0.792930	0.831270	0.829670
H711	H71	0.797230	0.865370	0.802270
H721	H72	0.829330	0.833370	0.827670
Ag101	Ag10	0.256920	0.870600	0.572300
N371	N37	0.197100	0.786200	0.625400
C821	C82	0.118400	0.736000	0.950600
H731	H73	0.152600	0.769300	0.956900
C831	C83	0.115100	0.696800	0.891100
C841	C84	0.197700	0.771800	0.709700
H741	H74	0.223800	0.798400	0.749500
N381	N38	0.123200	0.680600	0.689800
C851	C85	0.120700	0.694700	0.607700
H751	H75	0.092900	0.668100	0.569900
N391	N39	0.067100	0.650300	0.876300
C861	C86	0.161500	0.719400	0.741900
N401	N40	0.076200	0.729100	0.998900
C871	C87	0.023800	0.642300	0.925200
H761	H76	0.989700	0.608900	0.918200
C881	C88	0.156100	0.745900	0.572900
H771	H77	0.152300	0.753600	0.512400
C891	C89	0.027000	0.681000	0.985600
H781	H78	0.995200	0.674500	0.018200
C901	C90	0.164600	0.705000	0.837000
H791	H79	0.198700	0.734800	0.864400
H801	H80	0.166700	0.670700	0.839000
Ag111	Ag11	0.923590	0.203930	0.905630
N411	N41	0.863770	0.119530	0.958730
C911	C91	0.785070	0.069330	0.283930
H811	H81	0.819270	0.102630	0.290230
C921	C92	0.781770	0.030130	0.224430
C931	C93	0.864370	0.105130	0.043030
H821	H82	0.890470	0.131730	0.082830
N421	N42	0.789870	0.013930	0.023130
C941	C94	0.787370	0.028030	0.941030
H831	H83	0.759570	0.001430	0.903230
N431	N43	0.733770	0.983630	0.209630
C951	C95	0.828170	0.052730	0.075230
N441	N44	0.742870	0.062430	0.332230
C961	C96	0.690470	0.975630	0.258530
H841	H84	0.656370	0.942230	0.251530
C971	C97	0.822770	0.079230	0.906230
H851	H85	0.818970	0.086930	0.845730
C981	C98	0.693670	0.014330	0.318930
H861	H86	0.661870	0.007830	0.351530
C991	C99	0.831270	0.038330	0.170330
H871	H87	0.865370	0.068130	0.197730
H881	H88	0.833370	0.004030	0.172330
Ag121	Ag12	0.590250	0.537270	0.238970
N451	N45	0.530430	0.452870	0.292070
C1001	C100	0.451730	0.402670	0.617270
H891	H89	0.485930	0.435970	0.623570
C1011	C101	0.448430	0.363470	0.557770
C1021	C102	0.531030	0.438470	0.376370
H901	H90	0.557130	0.465070	0.416170
N461	N46	0.456530	0.347270	0.356470
C1031	C103	0.454030	0.361370	0.274370
H911	H91	0.426230	0.334770	0.236570
N471	N47	0.400430	0.316970	0.542970
C1041	C104	0.494830	0.386070	0.408570
N481	N48	0.409530	0.395770	0.665570
C1051	C105	0.357130	0.308970	0.591870
H921	H92	0.323030	0.275570	0.584870
C1061	C106	0.489430	0.412570	0.239570
H931	H93	0.485630	0.420270	0.179070
C1071	C107	0.360330	0.347670	0.652270
H941	H94	0.328530	0.341170	0.684870
C1081	C108	0.497930	0.371670	0.503670
H951	H95	0.532030	0.401470	0.531070
H961	H96	0.500030	0.337370	0.505670
Ag131	Ag13	0.129400	0.386320	0.572300
N491	N49	0.213800	0.410900	0.625400
C1091	C109	0.264000	0.382400	0.950600
H971	H97	0.230700	0.383300	0.956900
C1101	C110	0.303200	0.418300	0.891100
C1111	C111	0.228200	0.425900	0.709700
H981	H98	0.201600	0.425400	0.749500
N501	N50	0.319400	0.442600	0.689800
C1121	C112	0.305300	0.426000	0.607700
H991	H99	0.331900	0.424800	0.569900
N511	N51	0.349700	0.416800	0.876300
C1131	C113	0.280600	0.442100	0.741900
N521	N52	0.270900	0.347100	0.998900
C1141	C114	0.357700	0.381500	0.925200
H1001	H100	0.391100	0.380800	0.918200
C1151	C115	0.254100	0.410200	0.572900
H1011	H101	0.246400	0.398700	0.512400
C1161	C116	0.319000	0.346000	0.985600
H1021	H102	0.325500	0.320700	0.018200
C1171	C117	0.295000	0.459600	0.837000
H1031	H103	0.265200	0.463900	0.864400
H1041	H104	0.329300	0.496000	0.839000
Ag141	Ag14	0.796070	0.719650	0.905630
N531	N53	0.880470	0.744230	0.958730
C1181	C118	0.930670	0.715730	0.283930
H1051	H105	0.897370	0.716630	0.290230
C1191	C119	0.969870	0.751630	0.224430
C1201	C120	0.894870	0.759230	0.043030
H1061	H106	0.868270	0.758730	0.082830
N541	N54	0.986070	0.775930	0.023130
C1211	C121	0.971970	0.759330	0.941030
H1071	H107	0.998570	0.758130	0.903230
N551	N55	0.016370	0.750130	0.209630
C1221	C122	0.947270	0.775430	0.075230
N561	N56	0.937570	0.680430	0.332230
C1231	C123	0.024370	0.714830	0.258530
H1081	H108	0.057770	0.714130	0.251530
C1241	C124	0.920770	0.743530	0.906230
H1091	H109	0.913070	0.732030	0.845730
C1251	C125	0.985670	0.679330	0.318930
H1101	H110	0.992170	0.654030	0.351530
C1261	C126	0.961670	0.792930	0.170330
H1111	H111	0.931870	0.797230	0.197730
H1121	H112	0.995970	0.829330	0.172330
Ag151	Ag15	0.462730	0.052990	0.238970
N571	N57	0.547130	0.077570	0.292070
C1271	C127	0.597330	0.049070	0.617270
H1131	H113	0.564030	0.049970	0.623570
C1281	C128	0.636530	0.084970	0.557770
C1291	C129	0.561530	0.092570	0.376370
H1141	H114	0.534930	0.092070	0.416170
N581	N58	0.652730	0.109270	0.356470
C1301	C130	0.638630	0.092670	0.274370
H1151	H115	0.665230	0.091470	0.236570
N591	N59	0.683030	0.083470	0.542970
C1311	C131	0.613930	0.108770	0.408570
N601	N60	0.604230	0.013770	0.665570
C1321	C132	0.691030	0.048170	0.591870
H1161	H116	0.724430	0.047470	0.584870
C1331	C133	0.587430	0.076870	0.239570
H1171	H117	0.579730	0.065370	0.179070
C1341	C134	0.652330	0.012670	0.652270
H1181	H118	0.658830	0.987370	0.684870
C1351	C135	0.628330	0.126270	0.503670
H1191	H119	0.598530	0.130570	0.531070
H1201	H120	0.662630	0.162670	0.505670
Ag161	Ag16	0.613680	0.743080	0.572300
N611	N61	0.589100	0.802900	0.625400
C1361	C136	0.617600	0.881600	0.950600
H1211	H121	0.616700	0.847400	0.956900
C1371	C137	0.581700	0.884900	0.891100
C1381	C138	0.574100	0.802300	0.709700
H1221	H122	0.574600	0.776200	0.749500
N621	N62	0.557400	0.876800	0.689800
C1391	C139	0.574000	0.879300	0.607700
H1231	H123	0.575200	0.907100	0.569900
N631	N63	0.583200	0.932900	0.876300
C1401	C140	0.557900	0.838500	0.741900
N641	N64	0.652900	0.923800	0.998900
C1411	C141	0.618500	0.976200	0.925200
H1241	H124	0.619200	0.010300	0.918200
C1421	C142	0.589800	0.843900	0.572900
H1251	H125	0.601300	0.847700	0.512400
C1431	C143	0.654000	0.973000	0.985600
H1261	H126	0.679300	0.004800	0.018200
C1441	C144	0.540400	0.835400	0.837000
H1271	H127	0.536100	0.801300	0.864400
H1281	H128	0.504000	0.833300	0.839000
Ag171	Ag17	0.280350	0.076410	0.905630
N651	N65	0.255770	0.136230	0.958730
C1451	C145	0.284270	0.214930	0.283930
H1291	H129	0.283370	0.180730	0.290230
C1461	C146	0.248370	0.218230	0.224430
C1471	C147	0.240770	0.135630	0.043030
H1301	H130	0.241270	0.109530	0.082830
N661	N66	0.224070	0.210130	0.023130
C1481	C148	0.240670	0.212630	0.941030
H1311	H131	0.241870	0.240430	0.903230
N671	N67	0.249870	0.266230	0.209630
C1491	C149	0.224570	0.171830	0.075230
N681	N68	0.319570	0.257130	0.332230
C1501	C150	0.285170	0.309530	0.258530
H1321	H132	0.285870	0.343630	0.251530
C1511	C151	0.256470	0.177230	0.906230
H1331	H133	0.267970	0.181030	0.845730
C1521	C152	0.320670	0.306330	0.318930
H1341	H134	0.345970	0.338130	0.351530
C1531	C153	0.207070	0.168730	0.170330
H1351	H135	0.202770	0.134630	0.197730
H1361	H136	0.170670	0.166630	0.172330
Ag181	Ag18	0.947010	0.409750	0.238970
N691	N69	0.922430	0.469570	0.292070
C1541	C154	0.950930	0.548270	0.617270
H1371	H137	0.950030	0.514070	0.623570
C1551	C155	0.915030	0.551570	0.557770
C1561	C156	0.907430	0.468970	0.376370
H1381	H138	0.907930	0.442870	0.416170
N701	N70	0.890730	0.543470	0.356470
C1571	C157	0.907330	0.545970	0.274370
H1391	H139	0.908530	0.573770	0.236570
N711	N71	0.916530	0.599570	0.542970
C1581	C158	0.891230	0.505170	0.408570
N721	N72	0.986230	0.590470	0.665570
C1591	C159	0.951830	0.642870	0.591870
H1401	H140	0.952530	0.676970	0.584870
C1601	C160	0.923130	0.510570	0.239570
H1411	H141	0.934630	0.514370	0.179070
C1611	C161	0.987330	0.639670	0.652270
H1421	H142	0.012630	0.671470	0.684870
C1621	C162	0.873730	0.502070	0.503670
H1431	H143	0.869430	0.467970	0.531070
H1441	H144	0.837330	0.499970	0.505670
