data_TAMJAU_charged_PM
_symmetry_space_group_name_H-M	'P1'
_cell_length_a	11.776600
_cell_length_b	16.855100
_cell_length_c	16.855100
_cell_angle_alpha	65.251400
_cell_angle_beta	76.532200
_cell_angle_gamma	103.468000
_symmetry_Int_Tables_number 1

loop_
_symmetry_equiv_pos_as_xyz
'x,y,z'

loop_
_atom_site_label
_atom_site_type_symbol
_atom_site_fract_x
_atom_site_fract_y
_atom_site_fract_z
Ag11	Ag1	0.125860	0.343350	0.545310
Ag21	Ag2	0.671170	0.545310	0.111340
Ag31	Ag3	0.782510	0.111340	0.343350
Ag41	Ag4	0.874140	0.656650	0.454690
Ag51	Ag5	0.328830	0.454690	0.888660
Ag61	Ag6	0.217490	0.888660	0.656650
H11	H1	0.985800	0.386000	0.396500
H21	H2	0.828000	0.066100	0.541600
H31	H3	0.012300	0.978700	0.660600
H41	H4	0.348600	0.251000	0.527900
H51	H5	0.930400	0.152400	0.678600
H61	H6	0.874300	0.057100	0.676900
H71	H7	0.380500	0.108000	0.562800
H81	H8	0.893200	0.312700	0.328900
H91	H9	0.382300	0.396500	0.217500
H101	H10	0.369600	0.541600	0.392300
H111	H11	0.672900	0.660600	0.360700
H121	H12	0.876500	0.527900	0.221100
H131	H13	0.609000	0.678600	0.169000
H141	H14	0.551200	0.676900	0.266000
H151	H15	0.943300	0.562800	0.329200
H161	H16	0.222100	0.328900	0.358400
H171	H17	0.599800	0.217500	0.386000
H181	H18	0.761900	0.392300	0.066100
H191	H19	0.033600	0.360700	0.978700
H201	H20	0.097600	0.221100	0.251000
H211	H21	0.778000	0.169000	0.152400
H221	H22	0.817200	0.266000	0.057100
H231	H23	0.272500	0.329200	0.108000
H241	H24	0.580500	0.358400	0.312700
H251	H25	0.014200	0.614000	0.603500
H261	H26	0.172000	0.933900	0.458400
H271	H27	0.987700	0.021300	0.339400
H281	H28	0.651400	0.749000	0.472100
H291	H29	0.069600	0.847600	0.321400
H301	H30	0.125700	0.942900	0.323100
H311	H31	0.619500	0.892000	0.437200
H321	H32	0.106800	0.687300	0.671100
H331	H33	0.617700	0.603500	0.782500
H341	H34	0.630400	0.458400	0.607700
H351	H35	0.327100	0.339400	0.639300
H361	H36	0.123500	0.472100	0.778900
H371	H37	0.391000	0.321400	0.831000
H381	H38	0.448800	0.323100	0.734000
H391	H39	0.056700	0.437200	0.670800
H401	H40	0.777900	0.671100	0.641600
H411	H41	0.400200	0.782500	0.614000
H421	H42	0.238100	0.607700	0.933900
H431	H43	0.966400	0.639300	0.021300
H441	H44	0.902400	0.778900	0.749000
H451	H45	0.222000	0.831000	0.847600
H461	H46	0.182800	0.734000	0.942900
H471	H47	0.727500	0.670800	0.892000
H481	H48	0.419500	0.641600	0.687300
C11	C1	0.955300	0.319200	0.427200
C21	C2	0.862700	0.133000	0.510100
C31	C3	0.072300	0.115700	0.618200
C41	C4	0.084800	0.033500	0.636200
C51	C5	0.277500	0.194000	0.557900
C61	C6	0.922300	0.175800	0.551100
C71	C7	0.939700	0.121500	0.640200
C81	C8	0.297800	0.108300	0.578400
C91	C9	0.899100	0.275500	0.387400
C101	C10	0.382500	0.427200	0.253600
C111	C11	0.372800	0.510100	0.356900
C121	C12	0.690500	0.618200	0.266100
C131	C13	0.721000	0.636200	0.330300
C141	C14	0.835400	0.557900	0.248100
C151	C15	0.473400	0.551100	0.273100
C161	C16	0.579900	0.640200	0.238300
C171	C17	0.876200	0.578400	0.313300
C181	C18	0.286500	0.387400	0.337100
C191	C19	0.636100	0.253600	0.319200
C201	C20	0.729700	0.356900	0.133000
C211	C21	0.956600	0.266100	0.115700
C221	C22	0.051300	0.330300	0.033500
C231	C23	0.083500	0.248100	0.194000
C241	C24	0.746500	0.273100	0.175800
C251	C25	0.818200	0.238300	0.121500
C261	C26	0.189500	0.313300	0.108300
C271	C27	0.623600	0.337100	0.275500
C281	C28	0.044700	0.680800	0.572800
C291	C29	0.137300	0.867000	0.489900
C301	C30	0.927700	0.884300	0.381800
C311	C31	0.915200	0.966500	0.363800
C321	C32	0.722500	0.806000	0.442100
C331	C33	0.077700	0.824200	0.448900
C341	C34	0.060300	0.878500	0.359800
C351	C35	0.702200	0.891700	0.421600
C361	C36	0.100900	0.724500	0.612600
C371	C37	0.617500	0.572800	0.746400
C381	C38	0.627200	0.489900	0.643100
C391	C39	0.309500	0.381800	0.733900
C401	C40	0.279000	0.363800	0.669700
C411	C41	0.164600	0.442100	0.751900
C421	C42	0.526600	0.448900	0.726900
C431	C43	0.420100	0.359800	0.761700
C441	C44	0.123800	0.421600	0.686700
C451	C45	0.713500	0.612600	0.662900
C461	C46	0.363900	0.746400	0.680800
C471	C47	0.270300	0.643100	0.867000
C481	C48	0.043400	0.733900	0.884300
C491	C49	0.948700	0.669700	0.966500
C501	C50	0.916500	0.751900	0.806000
C511	C51	0.253500	0.726900	0.824200
C521	C52	0.181800	0.761700	0.878500
C531	C53	0.810500	0.686700	0.891700
C541	C54	0.376400	0.662900	0.724500
N11	N1	0.969500	0.271600	0.508900
N21	N2	0.164800	0.197000	0.578900
N31	N3	0.851700	0.181500	0.427500
N41	N4	0.196500	0.028300	0.620200
N51	N5	0.478400	0.508900	0.219500
N61	N6	0.743700	0.578900	0.224100
N71	N7	0.279200	0.427500	0.391000
N81	N8	0.816700	0.620200	0.351500
N91	N9	0.697900	0.219500	0.271600
N101	N10	0.967800	0.224100	0.197000
N111	N11	0.670200	0.391000	0.181500
N121	N12	0.168200	0.351500	0.028300
N131	N13	0.030500	0.728400	0.491100
N141	N14	0.835200	0.803000	0.421100
N151	N15	0.148300	0.818500	0.572500
N161	N16	0.803500	0.971700	0.379800
N171	N17	0.521600	0.491100	0.780500
N181	N18	0.256300	0.421100	0.775900
N191	N19	0.720800	0.572500	0.609000
N201	N20	0.183300	0.379800	0.648500
N211	N21	0.302100	0.780500	0.728400
N221	N22	0.032200	0.775900	0.803000
N231	N23	0.329800	0.609000	0.818500
N241	N24	0.831800	0.648500	0.971700
Cl11	Cl1	0.389060	0.666680	0.484600
O11	O1	0.462300	0.692100	0.395600
O21	O2	0.391000	0.745100	0.493300
O31	O3	0.432900	0.609900	0.551900
O41	O4	0.263300	0.609400	0.500700
Cl21	Cl2	0.873660	0.484600	0.848720
O51	O5	0.857900	0.395600	0.912300
O61	O6	0.884300	0.493300	0.761600
O71	O7	0.984800	0.551900	0.838200
O81	O8	0.764000	0.500700	0.889900
Cl31	Cl3	0.722380	0.848720	0.666680
O91	O9	0.770200	0.912300	0.692100
O101	O10	0.645900	0.761600	0.745100
O111	O11	0.823000	0.838200	0.609900
O121	O12	0.653900	0.889900	0.609400
Cl41	Cl4	0.610940	0.333320	0.515400
O131	O13	0.537700	0.307900	0.604400
O141	O14	0.609000	0.254900	0.506700
O151	O15	0.567100	0.390100	0.448100
O161	O16	0.736700	0.390600	0.499300
Cl51	Cl5	0.126340	0.515400	0.151280
O171	O17	0.142100	0.604400	0.087700
O181	O18	0.115700	0.506700	0.238400
O191	O19	0.015200	0.448100	0.161800
O201	O20	0.236000	0.499300	0.110100
Cl61	Cl6	0.277620	0.151280	0.333320
O211	O21	0.229800	0.087700	0.307900
O221	O22	0.354100	0.238400	0.254900
O231	O23	0.177000	0.161800	0.390100
O241	O24	0.346100	0.110100	0.390600
