data_TANBAN_charged_PM
_symmetry_space_group_name_H-M	'P1'
_cell_length_a	11.039600
_cell_length_b	12.511000
_cell_length_c	22.498000
_cell_angle_alpha	101.492000
_cell_angle_beta	102.416000
_cell_angle_gamma	95.975000
_symmetry_Int_Tables_number 1

loop_
_symmetry_equiv_pos_as_xyz
'x,y,z'

loop_
_atom_site_label
_atom_site_type_symbol
_atom_site_fract_x
_atom_site_fract_y
_atom_site_fract_z
La11	La1	0.300980	0.446270	0.451910
La21	La2	0.959740	0.632880	0.949830
La31	La3	0.699020	0.553730	0.548090
La41	La4	0.040260	0.367120	0.050170
Co11	Co1	0.322000	0.086670	0.742610
Co21	Co2	0.678000	0.913330	0.257390
H11	H1	0.226000	0.126100	0.612200
H21	H2	0.307800	0.233900	0.549100
H31	H3	0.596400	0.359100	0.702800
H41	H4	0.677100	0.367600	0.807900
H51	H5	0.680900	0.183900	0.933300
H61	H6	0.498200	0.073000	0.868500
H71	H7	0.318400	0.849600	0.774000
H81	H8	0.238300	0.772300	0.841400
H91	H9	0.150100	0.063700	0.921200
H101	H10	0.161600	0.246200	0.919600
H111	H11	0.197600	0.456400	0.813000
H121	H12	0.265200	0.325000	0.748600
H131	H13	0.051500	0.130100	0.717900
H141	H14	0.861400	0.040700	0.651800
H151	H15	0.042100	0.787400	0.587700
H161	H16	0.231000	0.746000	0.583500
H171	H17	0.598900	0.831100	0.668300
H181	H18	0.560400	0.983400	0.729900
H191	H19	0.257500	0.324900	0.318400
H201	H20	0.126400	0.317100	0.333100
H211	H21	0.161200	0.600800	0.399000
H221	H22	0.069200	0.489000	0.382200
H231	H23	0.119200	0.384700	0.516300
H241	H24	0.227400	0.465900	0.568900
H251	H25	0.949000	0.644600	0.819300
H261	H26	0.834300	0.557100	0.814700
H271	H27	0.744100	0.723000	0.969000
H281	H28	0.694900	0.609700	0.918200
H291	H29	0.018000	0.801000	0.065800
H301	H30	0.017100	0.862300	0.023200
H311	H31	0.774000	0.873900	0.387800
H321	H32	0.692200	0.766100	0.450900
H331	H33	0.403600	0.640900	0.297200
H341	H34	0.322900	0.632400	0.192100
H351	H35	0.319100	0.816100	0.066700
H361	H36	0.501800	0.927000	0.131500
H371	H37	0.681600	0.150400	0.226000
H381	H38	0.761700	0.227700	0.158600
H391	H39	0.849900	0.936300	0.078800
H401	H40	0.838400	0.753800	0.080400
H411	H41	0.802400	0.543600	0.187000
H421	H42	0.734800	0.675000	0.251400
H431	H43	0.948500	0.869900	0.282100
H441	H44	0.138600	0.959300	0.348200
H451	H45	0.957900	0.212600	0.412300
H461	H46	0.769000	0.254000	0.416500
H471	H47	0.401100	0.168900	0.331700
H481	H48	0.439600	0.016600	0.270100
H491	H49	0.742500	0.675100	0.681600
H501	H50	0.873600	0.682900	0.666900
H511	H51	0.838800	0.399200	0.601000
H521	H52	0.930800	0.511000	0.617800
H531	H53	0.880800	0.615300	0.483700
H541	H54	0.772600	0.534100	0.431100
H551	H55	0.051000	0.355400	0.180700
H561	H56	0.165700	0.442900	0.185300
H571	H57	0.255900	0.277000	0.031000
H581	H58	0.305100	0.390300	0.081800
H591	H59	0.982000	0.199000	0.934200
H601	H60	0.982900	0.137700	0.976800
C11	C1	0.302500	0.172400	0.629000
C21	C2	0.349100	0.240200	0.590600
C31	C3	0.455100	0.312400	0.618100
C41	C4	0.522200	0.310800	0.683600
C51	C5	0.477400	0.241300	0.715000
C61	C6	0.534700	0.233400	0.778600
C71	C7	0.641100	0.307800	0.820300
C81	C8	0.692100	0.288800	0.882000
C91	C9	0.644000	0.201500	0.896000
C101	C10	0.535500	0.131400	0.855400
C111	C11	0.507000	0.391900	0.584700
C121	C12	0.804700	0.368700	0.925200
C131	C13	0.283300	0.892200	0.802600
C141	C14	0.237900	0.847200	0.843000
C151	C15	0.188400	0.911300	0.889100
C161	C16	0.182500	0.020900	0.891400
C171	C17	0.228400	0.065100	0.846000
C181	C18	0.229900	0.182400	0.844400
C191	C19	0.185500	0.263600	0.885100
C201	C20	0.177800	0.365100	0.874300
C211	C21	0.205800	0.388200	0.822600
C221	C22	0.247300	0.306500	0.784200
C231	C23	0.134900	0.859900	0.932700
C241	C24	0.120000	0.440600	0.915200
C251	C25	0.048400	0.062700	0.690800
C261	C26	0.933200	0.007600	0.653000
C271	C27	0.927600	0.903600	0.617500
C281	C28	0.043400	0.855400	0.613800
C291	C29	0.152400	0.917400	0.651400
C301	C30	0.275200	0.886600	0.650600
C311	C31	0.297300	0.794900	0.611700
C321	C32	0.422100	0.776100	0.615200
C331	C33	0.517200	0.846900	0.662700
C341	C34	0.494500	0.936700	0.700100
C351	C35	0.806300	0.829900	0.581900
C361	C36	0.458100	0.678100	0.574200
C371	C37	0.697500	0.827600	0.371000
C381	C38	0.650900	0.759800	0.409400
C391	C39	0.544900	0.687600	0.381900
C401	C40	0.477800	0.689200	0.316400
C411	C41	0.522600	0.758700	0.285000
C421	C42	0.465300	0.766600	0.221400
C431	C43	0.358900	0.692200	0.179700
C441	C44	0.307900	0.711200	0.118000
C451	C45	0.356000	0.798500	0.104000
C461	C46	0.464500	0.868600	0.144600
C471	C47	0.493000	0.608100	0.415300
C481	C48	0.195300	0.631300	0.074800
C491	C49	0.716700	0.107800	0.197400
C501	C50	0.762100	0.152800	0.157000
C511	C51	0.811600	0.088700	0.110900
C521	C52	0.817500	0.979100	0.108600
C531	C53	0.771600	0.934900	0.154000
C541	C54	0.770100	0.817600	0.155600
C551	C55	0.814500	0.736400	0.114900
C561	C56	0.822200	0.634900	0.125700
C571	C57	0.794200	0.611800	0.177400
C581	C58	0.752700	0.693500	0.215800
C591	C59	0.865100	0.140100	0.067300
C601	C60	0.880000	0.559400	0.084800
C611	C61	0.951600	0.937300	0.309200
C621	C62	0.066800	0.992400	0.347000
C631	C63	0.072400	0.096400	0.382500
C641	C64	0.956600	0.144600	0.386200
C651	C65	0.847600	0.082600	0.348600
C661	C66	0.724800	0.113400	0.349400
C671	C67	0.702700	0.205100	0.388300
C681	C68	0.577900	0.223900	0.384800
C691	C69	0.482800	0.153100	0.337300
C701	C70	0.505500	0.063300	0.299900
C711	C71	0.193700	0.170100	0.418100
C721	C72	0.541900	0.321900	0.425800
N11	N1	0.366900	0.173500	0.689800
N21	N2	0.484700	0.148300	0.796900
N31	N3	0.279100	0.006300	0.802380
N41	N4	0.264800	0.208300	0.790300
N51	N5	0.155700	0.021100	0.689100
N61	N6	0.375200	0.959100	0.694490
N71	N7	0.633100	0.826500	0.310200
N81	N8	0.515300	0.851700	0.203100
N91	N9	0.720900	0.993700	0.197620
N101	N10	0.735200	0.791700	0.209700
N111	N11	0.844300	0.978900	0.310900
N121	N12	0.624800	0.040900	0.305510
O11	O1	0.432200	0.410300	0.537750
O21	O2	0.622900	0.431900	0.600900
O31	O3	0.838600	0.451700	0.908840
O41	O4	0.855000	0.341200	0.972000
O51	O5	0.092700	0.755100	0.918250
O61	O6	0.129200	0.924000	0.983110
O71	O7	0.094200	0.416500	0.962630
O81	O8	0.092200	0.529200	0.896670
O91	O9	0.712800	0.874900	0.571800
O101	O10	0.805300	0.727700	0.561460
O111	O11	0.363900	0.622600	0.529920
O121	O12	0.556000	0.647500	0.587060
O131	O13	0.201600	0.366000	0.337510
O141	O14	0.132100	0.540500	0.415400
O151	O15	0.174600	0.453700	0.526420
O161	O16	0.880500	0.629100	0.837100
O171	O17	0.754400	0.676500	0.930700
O181	O18	0.978900	0.810500	0.025890
O191	O19	0.567800	0.589700	0.462250
O201	O20	0.377100	0.568100	0.399100
O211	O21	0.161400	0.548300	0.091160
O221	O22	0.145000	0.658800	0.028000
O231	O23	0.907300	0.244900	0.081750
O241	O24	0.870800	0.076000	0.016890
O251	O25	0.905800	0.583500	0.037370
O261	O26	0.907800	0.470800	0.103330
O271	O27	0.287200	0.125100	0.428200
O281	O28	0.194700	0.272300	0.438540
O291	O29	0.636100	0.377400	0.470080
O301	O30	0.444000	0.352500	0.412940
O311	O31	0.798400	0.634000	0.662490
O321	O32	0.867900	0.459500	0.584600
O331	O33	0.825400	0.546300	0.473580
O341	O34	0.119500	0.370900	0.162900
O351	O35	0.245600	0.323500	0.069300
O361	O36	0.021100	0.189500	0.974110
N131	N13	0.861500	0.034600	0.799100
O371	O37	0.901900	0.947200	0.797000
O381	O38	0.908800	0.117100	0.844100
O391	O39	0.775200	0.045400	0.758340
N141	N14	0.123500	0.605300	0.708800
O401	O40	0.038500	0.622800	0.735120
O411	O41	0.211900	0.571300	0.738450
O421	O42	0.125400	0.628700	0.658600
N151	N15	0.212200	0.848200	0.461600
O431	O43	0.315800	0.896100	0.477200
O441	O44	0.189700	0.747900	0.437470
O451	O45	0.123300	0.898800	0.468410
N161	N16	0.138500	0.965400	0.200900
O461	O46	0.098100	0.052800	0.203000
O471	O47	0.091200	0.882900	0.155900
O481	O48	0.224800	0.954600	0.241660
N171	N17	0.876500	0.394700	0.291200
O491	O49	0.961500	0.377200	0.264880
O501	O50	0.788100	0.428700	0.261550
O511	O51	0.874600	0.371300	0.341400
N181	N18	0.787800	0.151800	0.538400
O521	O52	0.684200	0.103900	0.522800
O531	O53	0.810300	0.252100	0.562530
O541	O54	0.876700	0.101200	0.531590
