data_TANMIH_clean_PM
_symmetry_space_group_name_H-M	'P1'
_cell_length_a	21.350000
_cell_length_b	8.581000
_cell_length_c	20.540000
_cell_angle_alpha	90.000000
_cell_angle_beta	118.107000
_cell_angle_gamma	90.000000
_symmetry_Int_Tables_number 1

loop_
_symmetry_equiv_pos_as_xyz
'x,y,z'

loop_
_atom_site_label
_atom_site_type_symbol
_atom_site_fract_x
_atom_site_fract_y
_atom_site_fract_z
O11	O1	0.165000	0.077700	0.950300
O21	O2	0.434200	0.029000	0.391000
O31	O3	0.063900	0.039700	0.954500
O41	O4	0.371200	0.948800	0.277700
O51	O5	0.414000	0.020700	0.516700
O61	O6	0.331900	0.915300	0.537800
N11	N1	0.289800	0.752600	0.315600
N21	N2	0.268900	0.768700	0.410200
C11	C1	0.243800	0.765200	0.178800
C21	C2	0.324600	0.864400	0.423100
C31	C3	0.360500	0.937900	0.497800
C41	C4	0.231400	0.856000	0.063300
H11	H1	0.249100	0.864300	0.029900
C51	C5	0.337700	0.856100	0.362900
C61	C6	0.179400	0.826300	0.161800
H21	H2	0.160900	0.813900	0.194500
C71	C7	0.129400	0.020900	0.979500
C81	C8	0.250800	0.702200	0.346500
H31	H3	0.214900	0.628300	0.325100
C91	C9	0.167000	0.923900	0.047200
C101	C10	0.385800	0.947100	0.343300
C111	C11	0.269200	0.777400	0.127700
H41	H4	0.312200	0.731400	0.137700
C121	C12	0.140300	0.907500	0.095900
H51	H5	0.096400	0.950200	0.085200
C131	C13	0.287600	0.679200	0.250000
H61	H6	0.268700	0.574600	0.245400
H71	H7	0.335800	0.670000	0.257400
O71	O7	0.665000	0.577700	0.950300
O81	O8	0.934200	0.529000	0.391000
O91	O9	0.563900	0.539700	0.954500
O101	O10	0.871200	0.448800	0.277700
O111	O11	0.914000	0.520700	0.516700
O121	O12	0.831900	0.415300	0.537800
N31	N3	0.789800	0.252600	0.315600
N41	N4	0.768900	0.268700	0.410200
C141	C14	0.743800	0.265200	0.178800
C151	C15	0.824600	0.364400	0.423100
C161	C16	0.860500	0.437900	0.497800
C171	C17	0.731400	0.356000	0.063300
H81	H8	0.749100	0.364300	0.029900
C181	C18	0.837700	0.356100	0.362900
C191	C19	0.679400	0.326300	0.161800
H91	H9	0.660900	0.313900	0.194500
C201	C20	0.629400	0.520900	0.979500
C211	C21	0.750800	0.202200	0.346500
H101	H10	0.714900	0.128300	0.325100
C221	C22	0.667000	0.423900	0.047200
C231	C23	0.885800	0.447100	0.343300
C241	C24	0.769200	0.277400	0.127700
H111	H11	0.812200	0.231400	0.137700
C251	C25	0.640300	0.407500	0.095900
H121	H12	0.596400	0.450200	0.085200
C261	C26	0.787600	0.179200	0.250000
H131	H13	0.768700	0.074600	0.245400
H141	H14	0.835800	0.170000	0.257400
O131	O13	0.835000	0.077700	0.549700
O141	O14	0.565800	0.029000	0.109000
O151	O15	0.936100	0.039700	0.545500
O161	O16	0.628800	0.948800	0.222300
O171	O17	0.586000	0.020700	0.983300
O181	O18	0.668100	0.915300	0.962200
N51	N5	0.710200	0.752600	0.184400
N61	N6	0.731100	0.768700	0.089800
C271	C27	0.756200	0.765200	0.321200
C281	C28	0.675400	0.864400	0.076900
C291	C29	0.639500	0.937900	0.002200
C301	C30	0.768600	0.856000	0.436700
H151	H15	0.750900	0.864300	0.470100
C311	C31	0.662300	0.856100	0.137100
C321	C32	0.820600	0.826300	0.338200
H161	H16	0.839100	0.813900	0.305500
C331	C33	0.870600	0.020900	0.520500
C341	C34	0.749200	0.702200	0.153500
H171	H17	0.785100	0.628300	0.174900
C351	C35	0.833000	0.923900	0.452800
C361	C36	0.614200	0.947100	0.156700
C371	C37	0.730800	0.777400	0.372300
H181	H18	0.687800	0.731400	0.362300
C381	C38	0.859700	0.907500	0.404100
H191	H19	0.903600	0.950200	0.414800
C391	C39	0.712400	0.679200	0.250000
H201	H20	0.731300	0.574600	0.254600
H211	H21	0.664200	0.670000	0.242600
O191	O19	0.335000	0.577700	0.549700
O201	O20	0.065800	0.529000	0.109000
O211	O21	0.436100	0.539700	0.545500
O221	O22	0.128800	0.448800	0.222300
O231	O23	0.086000	0.520700	0.983300
O241	O24	0.168100	0.415300	0.962200
N71	N7	0.210200	0.252600	0.184400
N81	N8	0.231100	0.268700	0.089800
C401	C40	0.256200	0.265200	0.321200
C411	C41	0.175400	0.364400	0.076900
C421	C42	0.139500	0.437900	0.002200
C431	C43	0.268600	0.356000	0.436700
H221	H22	0.250900	0.364300	0.470100
C441	C44	0.162300	0.356100	0.137100
C451	C45	0.320600	0.326300	0.338200
H231	H23	0.339100	0.313900	0.305500
C461	C46	0.370600	0.520900	0.520500
C471	C47	0.249200	0.202200	0.153500
H241	H24	0.285100	0.128300	0.174900
C481	C48	0.333000	0.423900	0.452800
C491	C49	0.114200	0.447100	0.156700
C501	C50	0.230800	0.277400	0.372300
H251	H25	0.187800	0.231400	0.362300
C511	C51	0.359700	0.407500	0.404100
H261	H26	0.403600	0.450200	0.414800
C521	C52	0.212400	0.179200	0.250000
H271	H27	0.231300	0.074600	0.254600
H281	H28	0.164200	0.170000	0.242600
O251	O25	0.835000	0.922300	0.049700
O261	O26	0.565800	0.971000	0.609000
O271	O27	0.936100	0.960300	0.045500
O281	O28	0.628800	0.051200	0.722300
O291	O29	0.586000	0.979300	0.483300
O301	O30	0.668100	0.084700	0.462200
N91	N9	0.710200	0.247400	0.684400
N101	N10	0.731100	0.231300	0.589800
C531	C53	0.756200	0.234800	0.821200
C541	C54	0.675400	0.135600	0.576900
C551	C55	0.639500	0.062100	0.502200
C561	C56	0.768600	0.144000	0.936700
H291	H29	0.750900	0.135700	0.970100
C571	C57	0.662300	0.143900	0.637100
C581	C58	0.820600	0.173700	0.838200
H301	H30	0.839100	0.186100	0.805500
C591	C59	0.870600	0.979100	0.020500
C601	C60	0.749200	0.297800	0.653500
H311	H31	0.785100	0.371700	0.674900
C611	C61	0.833000	0.076100	0.952800
C621	C62	0.614200	0.052900	0.656700
C631	C63	0.730800	0.222600	0.872300
H321	H32	0.687800	0.268600	0.862300
C641	C64	0.859700	0.092500	0.904100
H331	H33	0.903600	0.049800	0.914800
C651	C65	0.712400	0.320800	0.750000
H341	H34	0.731300	0.425400	0.754600
H351	H35	0.664200	0.330000	0.742600
O311	O31	0.335000	0.422300	0.049700
O321	O32	0.065800	0.471000	0.609000
O331	O33	0.436100	0.460300	0.045500
O341	O34	0.128800	0.551200	0.722300
O351	O35	0.086000	0.479300	0.483300
O361	O36	0.168100	0.584700	0.462200
N111	N11	0.210200	0.747400	0.684400
N121	N12	0.231100	0.731300	0.589800
C661	C66	0.256200	0.734800	0.821200
C671	C67	0.175400	0.635600	0.576900
C681	C68	0.139500	0.562100	0.502200
C691	C69	0.268600	0.644000	0.936700
H361	H36	0.250900	0.635700	0.970100
C701	C70	0.162300	0.643900	0.637100
C711	C71	0.320600	0.673700	0.838200
H371	H37	0.339100	0.686100	0.805500
C721	C72	0.370600	0.479100	0.020500
C731	C73	0.249200	0.797800	0.653500
H381	H38	0.285100	0.871700	0.674900
C741	C74	0.333000	0.576100	0.952800
C751	C75	0.114200	0.552900	0.656700
C761	C76	0.230800	0.722600	0.872300
H391	H39	0.187800	0.768600	0.862300
C771	C77	0.359700	0.592500	0.904100
H401	H40	0.403600	0.549800	0.914800
C781	C78	0.212400	0.820800	0.750000
H411	H41	0.231300	0.925400	0.754600
H421	H42	0.164200	0.830000	0.742600
O371	O37	0.165000	0.922300	0.450300
O381	O38	0.434200	0.971000	0.891000
O391	O39	0.063900	0.960300	0.454500
O401	O40	0.371200	0.051200	0.777700
O411	O41	0.414000	0.979300	0.016700
O421	O42	0.331900	0.084700	0.037800
N131	N13	0.289800	0.247400	0.815600
N141	N14	0.268900	0.231300	0.910200
C791	C79	0.243800	0.234800	0.678800
C801	C80	0.324600	0.135600	0.923100
C811	C81	0.360500	0.062100	0.997800
C821	C82	0.231400	0.144000	0.563300
H431	H43	0.249100	0.135700	0.529900
C831	C83	0.337700	0.143900	0.862900
C841	C84	0.179400	0.173700	0.661800
H441	H44	0.160900	0.186100	0.694500
C851	C85	0.129400	0.979100	0.479500
C861	C86	0.250800	0.297800	0.846500
H451	H45	0.214900	0.371700	0.825100
C871	C87	0.167000	0.076100	0.547200
C881	C88	0.385800	0.052900	0.843300
C891	C89	0.269200	0.222600	0.627700
H461	H46	0.312200	0.268600	0.637700
C901	C90	0.140300	0.092500	0.595900
H471	H47	0.096400	0.049800	0.585200
C911	C91	0.287600	0.320800	0.750000
H481	H48	0.268700	0.425400	0.745400
H491	H49	0.335800	0.330000	0.757400
O431	O43	0.665000	0.422300	0.450300
O441	O44	0.934200	0.471000	0.891000
O451	O45	0.563900	0.460300	0.454500
O461	O46	0.871200	0.551200	0.777700
O471	O47	0.914000	0.479300	0.016700
O481	O48	0.831900	0.584700	0.037800
N151	N15	0.789800	0.747400	0.815600
N161	N16	0.768900	0.731300	0.910200
C921	C92	0.743800	0.734800	0.678800
C931	C93	0.824600	0.635600	0.923100
C941	C94	0.860500	0.562100	0.997800
C951	C95	0.731400	0.644000	0.563300
H501	H50	0.749100	0.635700	0.529900
C961	C96	0.837700	0.643900	0.862900
C971	C97	0.679400	0.673700	0.661800
H511	H51	0.660900	0.686100	0.694500
C981	C98	0.629400	0.479100	0.479500
C991	C99	0.750800	0.797800	0.846500
H521	H52	0.714900	0.871700	0.825100
C1001	C100	0.667000	0.576100	0.547200
C1011	C101	0.885800	0.552900	0.843300
C1021	C102	0.769200	0.722600	0.627700
H531	H53	0.812200	0.768600	0.637700
C1031	C103	0.640300	0.592500	0.595900
H541	H54	0.596400	0.549800	0.585200
C1041	C104	0.787600	0.820800	0.750000
H551	H55	0.768700	0.925400	0.745400
H561	H56	0.835800	0.830000	0.757400
Co11	Co1	0.500000	0.000000	0.500000
Co21	Co2	0.000000	0.500000	0.500000
Co31	Co3	0.500000	0.000000	0.000000
Co41	Co4	0.000000	0.500000	0.000000
Co51	Co5	0.250000	0.750000	0.500000
Co61	Co6	0.750000	0.750000	0.000000
Co71	Co7	0.750000	0.250000	0.500000
Co81	Co8	0.250000	0.250000	0.000000
