data_TAPKAY_clean_PM
_symmetry_space_group_name_H-M	'P1'
_cell_length_a	10.741000
_cell_length_b	11.109000
_cell_length_c	11.933000
_cell_angle_alpha	77.678000
_cell_angle_beta	84.650000
_cell_angle_gamma	75.990000
_symmetry_Int_Tables_number 1

loop_
_symmetry_equiv_pos_as_xyz
'x,y,z'

loop_
_atom_site_label
_atom_site_type_symbol
_atom_site_fract_x
_atom_site_fract_y
_atom_site_fract_z
Cu11	Cu1	0.546150	0.006920	0.802340
Cu21	Cu2	0.478070	0.756650	0.934130
Cu31	Cu3	0.490410	0.582510	0.668540
Cu41	Cu4	0.030200	0.215680	0.065980
Cu51	Cu5	0.453850	0.993080	0.197660
Cu61	Cu6	0.521930	0.243350	0.065870
Cu71	Cu7	0.509590	0.417490	0.331460
Cu81	Cu8	0.969800	0.784320	0.934020
P11	P1	0.424000	0.870200	0.663900
P21	P2	0.246900	0.725100	0.808500
P31	P3	0.487600	0.303000	0.803800
P41	P4	0.312800	0.151800	0.943900
P51	P5	0.576000	0.129800	0.336100
P61	P6	0.753100	0.274900	0.191500
P71	P7	0.512400	0.697000	0.196200
P81	P8	0.687200	0.848200	0.056100
H11	H1	0.132500	0.970300	0.792700
H21	H2	0.197700	0.380700	0.923700
H31	H3	0.086400	0.896100	0.621000
H41	H4	0.200600	0.799600	0.574900
H51	H5	0.316200	0.867200	0.404500
H61	H6	0.253100	0.216900	0.240400
H71	H7	0.115700	0.281300	0.382100
H81	H8	0.078900	0.132900	0.547500
H91	H9	0.163800	0.267100	0.748900
H101	H10	0.295500	0.193800	0.703100
H111	H11	0.082500	0.499600	0.655300
H121	H12	0.088000	0.645000	0.485000
H131	H13	0.259400	0.616900	0.355700
H141	H14	0.408400	0.288700	0.545200
H151	H15	0.867500	0.029700	0.207300
H161	H16	0.802300	0.619300	0.076300
H171	H17	0.913600	0.103900	0.379000
H181	H18	0.799400	0.200400	0.425100
H191	H19	0.683800	0.132800	0.595500
H201	H20	0.746900	0.783100	0.759600
H211	H21	0.884300	0.718700	0.617900
H221	H22	0.921100	0.867100	0.452500
H231	H23	0.836200	0.732900	0.251100
H241	H24	0.704500	0.806200	0.296900
H251	H25	0.917500	0.500400	0.344700
H261	H26	0.912000	0.355000	0.515000
H271	H27	0.740600	0.383100	0.644300
H281	H28	0.591600	0.711300	0.454800
C11	C1	0.254800	0.873700	0.703700
C21	C2	0.176900	0.881300	0.597600
C31	C3	0.194500	0.982200	0.493000
C41	C4	0.275100	0.951800	0.401300
C51	C5	0.238000	0.156800	0.304300
C61	C6	0.156500	0.196200	0.388800
C71	C7	0.133700	0.107500	0.487500
C81	C8	0.318200	0.291100	0.827400
C91	C9	0.251100	0.273300	0.724400
C101	C10	0.247000	0.377700	0.619600
C111	C11	0.149700	0.485800	0.601000
C121	C12	0.154400	0.573200	0.500100
C131	C13	0.256200	0.555400	0.421700
C141	C14	0.344600	0.363000	0.534700
C151	C15	0.745200	0.126300	0.296300
C161	C16	0.823100	0.118700	0.402400
C171	C17	0.805500	0.017800	0.507000
C181	C18	0.724900	0.048200	0.598700
C191	C19	0.762000	0.843200	0.695700
C201	C20	0.843500	0.803800	0.611200
C211	C21	0.866300	0.892500	0.512500
C221	C22	0.681800	0.708900	0.172600
C231	C23	0.748900	0.726700	0.275600
C241	C24	0.753000	0.622300	0.380400
C251	C25	0.850300	0.514200	0.399000
C261	C26	0.845600	0.426800	0.499900
C271	C27	0.743800	0.444600	0.578300
C281	C28	0.655400	0.637000	0.465300
N11	N1	0.298200	0.036200	0.307500
N21	N2	0.351900	0.449300	0.439200
N31	N3	0.701800	0.963800	0.692500
N41	N4	0.648100	0.550700	0.560800
O11	O1	0.489100	0.854600	0.777700
O21	O2	0.472700	0.760100	0.605900
O31	O3	0.437000	0.997000	0.590700
O41	O4	0.319400	0.615400	0.752500
O51	O5	0.306500	0.734000	0.916800
O61	O6	0.107000	0.721100	0.829700
O71	O7	0.198700	0.981400	0.756200
O81	O8	0.499200	0.405000	0.700200
O91	O9	0.568800	0.174500	0.785900
O101	O10	0.522100	0.337900	0.912300
O111	O11	0.380000	0.037300	0.891900
O121	O12	0.173200	0.149200	0.973300
O131	O13	0.380100	0.165100	0.046300
O141	O14	0.244900	0.402300	0.868900
O151	O15	0.510900	0.145400	0.222300
O161	O16	0.527300	0.239900	0.394100
O171	O17	0.563000	0.003000	0.409300
O181	O18	0.680600	0.384600	0.247500
O191	O19	0.693500	0.266000	0.083200
O201	O20	0.893000	0.278900	0.170300
O211	O21	0.801300	0.018600	0.243800
O221	O22	0.500800	0.595000	0.299800
O231	O23	0.431200	0.825500	0.214100
O241	O24	0.477900	0.662100	0.087700
O251	O25	0.620000	0.962700	0.108100
O261	O26	0.826800	0.850800	0.026700
O271	O27	0.619900	0.834900	0.953700
O281	O28	0.755100	0.597700	0.131100
