data_TARVUD_clean_PM
_symmetry_space_group_name_H-M	'P1'
_cell_length_a	6.946000
_cell_length_b	12.626200
_cell_length_c	12.626200
_cell_angle_alpha	97.398100
_cell_angle_beta	96.106200
_cell_angle_gamma	83.893800
_symmetry_Int_Tables_number 1

loop_
_symmetry_equiv_pos_as_xyz
'x,y,z'

loop_
_atom_site_label
_atom_site_type_symbol
_atom_site_fract_x
_atom_site_fract_y
_atom_site_fract_z
Ni11	Ni1	0.906060	0.321010	0.052950
Ni21	Ni2	0.593940	0.052950	0.321010
Ni31	Ni3	0.093940	0.678990	0.947050
Ni41	Ni4	0.406060	0.947050	0.678990
H11	H1	0.434500	0.422900	0.548700
H21	H2	0.065500	0.548700	0.422900
H31	H3	0.565500	0.577100	0.451300
H41	H4	0.934500	0.451300	0.577100
C11	C1	0.442500	0.536900	0.666900
C21	C2	0.362400	0.360600	0.669800
C31	C3	0.326300	0.485900	0.813500
C41	C4	0.518600	0.703300	0.650500
C51	C5	0.314000	0.182200	0.653200
C61	C6	0.197600	0.447300	0.959900
C71	C7	0.057500	0.666900	0.536900
C81	C8	0.137600	0.669800	0.360600
C91	C9	0.173700	0.813500	0.485900
C101	C10	0.981400	0.650500	0.703300
C111	C11	0.186000	0.653200	0.182200
C121	C12	0.302400	0.959900	0.447300
C131	C13	0.557500	0.463100	0.333100
C141	C14	0.637600	0.639400	0.330200
C151	C15	0.673700	0.514100	0.186500
C161	C16	0.481400	0.296700	0.349500
C171	C17	0.686000	0.817800	0.346800
C181	C18	0.802400	0.552700	0.040100
C191	C19	0.942500	0.333100	0.463100
C201	C20	0.862400	0.330200	0.639400
C211	C21	0.826300	0.186500	0.514100
C221	C22	0.018600	0.349500	0.296700
C231	C23	0.814000	0.346800	0.817800
C241	C24	0.697600	0.040100	0.552700
N11	N1	0.416700	0.437400	0.615600
N21	N2	0.398000	0.560200	0.769200
N31	N3	0.312200	0.388500	0.764900
N41	N4	0.510200	0.603300	0.608500
N51	N5	0.528700	0.793800	0.678200
N61	N6	0.349800	0.266000	0.609000
N71	N7	0.283900	0.101700	0.679300
N81	N8	0.256200	0.521200	0.908600
N91	N9	0.137600	0.393500	0.012300
N101	N10	0.083300	0.615600	0.437400
N111	N11	0.102000	0.769200	0.560200
N121	N12	0.187800	0.764900	0.388500
N131	N13	0.989800	0.608500	0.603300
N141	N14	0.971300	0.678200	0.793800
N151	N15	0.150200	0.609000	0.266000
N161	N16	0.216100	0.679300	0.101700
N171	N17	0.243800	0.908600	0.521200
N181	N18	0.362400	0.012300	0.393500
N191	N19	0.583300	0.562600	0.384400
N201	N20	0.602000	0.439800	0.230800
N211	N21	0.687800	0.611500	0.235100
N221	N22	0.489800	0.396700	0.391500
N231	N23	0.471300	0.206200	0.321800
N241	N24	0.650200	0.734000	0.391000
N251	N25	0.716100	0.898300	0.320700
N261	N26	0.743800	0.478800	0.091400
N271	N27	0.862400	0.606500	0.987700
N281	N28	0.916700	0.384400	0.562600
N291	N29	0.898000	0.230800	0.439800
N301	N30	0.812200	0.235100	0.611500
N311	N31	0.010200	0.391500	0.396700
N321	N32	0.028700	0.321800	0.206200
N331	N33	0.849800	0.391000	0.734000
N341	N34	0.783900	0.320700	0.898300
N351	N35	0.756200	0.091400	0.478800
N361	N36	0.637600	0.987700	0.606500
