data_TARWEO_clean_PM
_symmetry_space_group_name_H-M	'P1'
_cell_length_a	7.073000
_cell_length_b	12.999300
_cell_length_c	12.999300
_cell_angle_alpha	97.775800
_cell_angle_beta	95.598600
_cell_angle_gamma	84.401400
_symmetry_Int_Tables_number 1

loop_
_symmetry_equiv_pos_as_xyz
'x,y,z'

loop_
_atom_site_label
_atom_site_type_symbol
_atom_site_fract_x
_atom_site_fract_y
_atom_site_fract_z
Cd11	Cd1	0.905250	0.322580	0.052420
Cd21	Cd2	0.594750	0.052420	0.322580
Cd31	Cd3	0.094750	0.677420	0.947580
Cd41	Cd4	0.405250	0.947580	0.677420
H11	H1	0.435700	0.423900	0.547700
H21	H2	0.064300	0.547700	0.423900
H31	H3	0.564300	0.576100	0.452300
H41	H4	0.935700	0.452300	0.576100
C11	C1	0.439500	0.534200	0.663000
C21	C2	0.363600	0.360900	0.664500
C31	C3	0.334800	0.482900	0.806100
C41	C4	0.518700	0.696100	0.649700
C51	C5	0.310300	0.190300	0.648900
C61	C6	0.219000	0.444200	0.954000
C71	C7	0.060500	0.663000	0.534200
C81	C8	0.136400	0.664500	0.360900
C91	C9	0.165200	0.806100	0.482900
C101	C10	0.981300	0.649700	0.696100
C111	C11	0.189700	0.648900	0.190300
C121	C12	0.281000	0.954000	0.444200
C131	C13	0.560500	0.465800	0.337000
C141	C14	0.636400	0.639100	0.335500
C151	C15	0.665200	0.517100	0.193900
C161	C16	0.481300	0.303900	0.350300
C171	C17	0.689700	0.809700	0.351100
C181	C18	0.781000	0.555800	0.046000
C191	C19	0.939500	0.337000	0.465800
C201	C20	0.863600	0.335500	0.639100
C211	C21	0.834800	0.193900	0.517100
C221	C22	0.018700	0.350300	0.303900
C231	C23	0.810300	0.351100	0.809700
C241	C24	0.719000	0.046000	0.555800
N11	N1	0.416800	0.437600	0.612600
N21	N2	0.324900	0.382500	0.763300
N31	N3	0.396900	0.559600	0.761000
N41	N4	0.504200	0.599900	0.606500
N51	N5	0.534800	0.782300	0.680900
N61	N6	0.351200	0.269400	0.606000
N71	N7	0.274200	0.114600	0.677800
N81	N8	0.274200	0.514300	0.902100
N91	N9	0.165900	0.391800	0.008000
N101	N10	0.083200	0.612600	0.437600
N111	N11	0.175100	0.763300	0.382500
N121	N12	0.103100	0.761000	0.559600
N131	N13	0.995800	0.606500	0.599900
N141	N14	0.965200	0.680900	0.782300
N151	N15	0.148800	0.606000	0.269400
N161	N16	0.225800	0.677800	0.114600
N171	N17	0.225800	0.902100	0.514300
N181	N18	0.334100	0.008000	0.391800
N191	N19	0.583200	0.562400	0.387400
N201	N20	0.675100	0.617500	0.236700
N211	N21	0.603100	0.440400	0.239000
N221	N22	0.495800	0.400100	0.393500
N231	N23	0.465200	0.217700	0.319100
N241	N24	0.648800	0.730600	0.394000
N251	N25	0.725800	0.885400	0.322200
N261	N26	0.725800	0.485700	0.097900
N271	N27	0.834100	0.608200	0.992000
N281	N28	0.916800	0.387400	0.562400
N291	N29	0.824900	0.236700	0.617500
N301	N30	0.896900	0.239000	0.440400
N311	N31	0.004200	0.393500	0.400100
N321	N32	0.034800	0.319100	0.217700
N331	N33	0.851200	0.394000	0.730600
N341	N34	0.774200	0.322200	0.885400
N351	N35	0.774200	0.097900	0.485700
N361	N36	0.665900	0.992000	0.608200
