data_TASFAU_clean_PM
_symmetry_space_group_name_H-M	'P1'
_cell_length_a	42.672000
_cell_length_b	42.672000
_cell_length_c	42.672000
_cell_angle_alpha	90.000000
_cell_angle_beta	90.000000
_cell_angle_gamma	90.000000
_symmetry_Int_Tables_number 1

loop_
_symmetry_equiv_pos_as_xyz
'x,y,z'

loop_
_atom_site_label
_atom_site_type_symbol
_atom_site_fract_x
_atom_site_fract_y
_atom_site_fract_z
N11	N1	0.062640	0.380490	0.992690
N21	N2	0.973710	0.456630	0.001350
C11	C1	0.035710	0.381280	0.008970
C21	C2	0.013770	0.404580	0.005670
C31	C3	0.019820	0.428390	0.984530
C41	C4	0.047550	0.427930	0.967570
C51	C5	0.068470	0.403700	0.972590
C61	C6	0.996950	0.454150	0.980600
H11	H1	0.031650	0.364900	0.023490
H21	H2	0.994950	0.404350	0.017570
H31	H3	0.052080	0.443950	0.952790
H41	H4	0.087670	0.403590	0.961330
N31	N3	0.687360	0.869510	0.492690
N41	N4	0.776290	0.793370	0.501350
C71	C7	0.714290	0.868720	0.508970
C81	C8	0.736230	0.845420	0.505670
C91	C9	0.730180	0.821610	0.484530
C101	C10	0.702450	0.822070	0.467570
C111	C11	0.681530	0.846300	0.472590
C121	C12	0.753050	0.795850	0.480600
H51	H5	0.718350	0.885100	0.523490
H61	H6	0.755050	0.845650	0.517570
H71	H7	0.697920	0.806050	0.452790
H81	H8	0.662330	0.846410	0.461330
N51	N5	0.187360	0.880490	0.757310
N61	N6	0.276290	0.956630	0.748650
C131	C13	0.214290	0.881280	0.741030
C141	C14	0.236230	0.904580	0.744330
C151	C15	0.230180	0.928390	0.765470
C161	C16	0.202450	0.927930	0.782430
C171	C17	0.181530	0.903700	0.777410
C181	C18	0.253050	0.954150	0.769400
H91	H9	0.218350	0.864900	0.726510
H101	H10	0.255050	0.904350	0.732430
H111	H11	0.197920	0.943950	0.797210
H121	H12	0.162330	0.903590	0.788670
N71	N7	0.562640	0.369510	0.257310
N81	N8	0.473710	0.293370	0.248650
C191	C19	0.535710	0.368720	0.241030
C201	C20	0.513770	0.345420	0.244330
C211	C21	0.519820	0.321610	0.265470
C221	C22	0.547550	0.322070	0.282430
C231	C23	0.568470	0.346300	0.277410
C241	C24	0.496950	0.295850	0.269400
H131	H13	0.531650	0.385100	0.226510
H141	H14	0.494950	0.345650	0.232430
H151	H15	0.552080	0.306050	0.297210
H161	H16	0.587670	0.346410	0.288670
N91	N9	0.992690	0.562640	0.880490
N101	N10	0.001350	0.473710	0.956630
C251	C25	0.008970	0.535710	0.881280
C261	C26	0.005670	0.513770	0.904580
C271	C27	0.984530	0.519820	0.928390
C281	C28	0.967570	0.547550	0.927930
C291	C29	0.972590	0.568470	0.903700
C301	C30	0.980600	0.496950	0.954150
H171	H17	0.023490	0.531650	0.864900
H181	H18	0.017570	0.494950	0.904350
H191	H19	0.952790	0.552080	0.943950
H201	H20	0.961330	0.587670	0.903590
N111	N11	0.492690	0.187360	0.369510
N121	N12	0.501350	0.276290	0.293370
C311	C31	0.508970	0.214290	0.368720
C321	C32	0.505670	0.236230	0.345420
C331	C33	0.484530	0.230180	0.321610
C341	C34	0.467570	0.202450	0.322070
C351	C35	0.472590	0.181530	0.346300
C361	C36	0.480600	0.253050	0.295850
H211	H21	0.523490	0.218350	0.385100
H221	H22	0.517570	0.255050	0.345650
H231	H23	0.452790	0.197920	0.306050
H241	H24	0.461330	0.162330	0.346410
N131	N13	0.757310	0.687360	0.380490
N141	N14	0.748650	0.776290	0.456630
C371	C37	0.741030	0.714290	0.381280
C381	C38	0.744330	0.736230	0.404580
C391	C39	0.765470	0.730180	0.428390
C401	C40	0.782430	0.702450	0.427930
C411	C41	0.777410	0.681530	0.403700
C421	C42	0.769400	0.753050	0.454150
H251	H25	0.726510	0.718350	0.364900
H261	H26	0.732430	0.755050	0.404350
H271	H27	0.797210	0.697920	0.443950
H281	H28	0.788670	0.662330	0.403590
N151	N15	0.257310	0.062640	0.869510
N161	N16	0.248650	0.973710	0.793370
C431	C43	0.241030	0.035710	0.868720
C441	C44	0.244330	0.013770	0.845420
C451	C45	0.265470	0.019820	0.821610
C461	C46	0.282430	0.047550	0.822070
C471	C47	0.277410	0.068470	0.846300
C481	C48	0.269400	0.996950	0.795850
H291	H29	0.226510	0.031650	0.885100
H301	H30	0.232430	0.994950	0.845650
H311	H31	0.297210	0.052080	0.806050
H321	H32	0.288670	0.087670	0.846410
N171	N17	0.880490	0.492690	0.062640
N181	N18	0.956630	0.501350	0.973710
C491	C49	0.881280	0.508970	0.035710
C501	C50	0.904580	0.505670	0.013770
C511	C51	0.928390	0.484530	0.019820
C521	C52	0.927930	0.467570	0.047550
C531	C53	0.903700	0.472590	0.068470
C541	C54	0.954150	0.480600	0.996950
H331	H33	0.864900	0.523490	0.031650
H341	H34	0.904350	0.517570	0.994950
H351	H35	0.943950	0.452790	0.052080
H361	H36	0.903590	0.461330	0.087670
N191	N19	0.369510	0.992690	0.687360
N201	N20	0.293370	0.001350	0.776290
C551	C55	0.368720	0.008970	0.714290
C561	C56	0.345420	0.005670	0.736230
C571	C57	0.321610	0.984530	0.730180
C581	C58	0.322070	0.967570	0.702450
C591	C59	0.346300	0.972590	0.681530
C601	C60	0.295850	0.980600	0.753050
H371	H37	0.385100	0.023490	0.718350
H381	H38	0.345650	0.017570	0.755050
H391	H39	0.306050	0.952790	0.697920
H401	H40	0.346410	0.961330	0.662330
N211	N21	0.380490	0.257310	0.187360
N221	N22	0.456630	0.248650	0.276290
C611	C61	0.381280	0.241030	0.214290
C621	C62	0.404580	0.244330	0.236230
C631	C63	0.428390	0.265470	0.230180
C641	C64	0.427930	0.282430	0.202450
C651	C65	0.403700	0.277410	0.181530
C661	C66	0.454150	0.269400	0.253050
H411	H41	0.364900	0.226510	0.218350
H421	H42	0.404350	0.232430	0.255050
H431	H43	0.443950	0.297210	0.197920
H441	H44	0.403590	0.288670	0.162330
N231	N23	0.869510	0.757310	0.562640
N241	N24	0.793370	0.748650	0.473710
C671	C67	0.868720	0.741030	0.535710
C681	C68	0.845420	0.744330	0.513770
C691	C69	0.821610	0.765470	0.519820
C701	C70	0.822070	0.782430	0.547550
C711	C71	0.846300	0.777410	0.568470
C721	C72	0.795850	0.769400	0.496950
H451	H45	0.885100	0.726510	0.531650
H461	H46	0.845650	0.732430	0.494950
H471	H47	0.806050	0.797210	0.552080
H481	H48	0.846410	0.788670	0.587670
N251	N25	0.130490	0.312640	0.007310
N261	N26	0.206630	0.223710	0.998650
C731	C73	0.131280	0.285710	0.991030
C741	C74	0.154580	0.263770	0.994330
C751	C75	0.178390	0.269820	0.015470
C761	C76	0.177930	0.297550	0.032430
C771	C77	0.153700	0.318470	0.027410
C781	C78	0.204150	0.246950	0.019400
H491	H49	0.114900	0.281650	0.976510
H501	H50	0.154350	0.244950	0.982430
H511	H51	0.193950	0.302080	0.047210
H521	H52	0.153590	0.337670	0.038670
N271	N27	0.619510	0.937360	0.507310
N281	N28	0.543370	0.026290	0.498650
C791	C79	0.618720	0.964290	0.491030
C801	C80	0.595420	0.986230	0.494330
C811	C81	0.571610	0.980180	0.515470
C821	C82	0.572070	0.952450	0.532430
C831	C83	0.596300	0.931530	0.527410
C841	C84	0.545850	0.003050	0.519400
H531	H53	0.635100	0.968350	0.476510
H541	H54	0.595650	0.005050	0.482430
H551	H55	0.556050	0.947920	0.547210
H561	H56	0.596410	0.912330	0.538670
N291	N29	0.630490	0.437360	0.242690
N301	N30	0.706630	0.526290	0.251350
C851	C85	0.631280	0.464290	0.258970
C861	C86	0.654580	0.486230	0.255670
C871	C87	0.678390	0.480180	0.234530
C881	C88	0.677930	0.452450	0.217570
C891	C89	0.653700	0.431530	0.222590
C901	C90	0.704150	0.503050	0.230600
H571	H57	0.614900	0.468350	0.273490
H581	H58	0.654350	0.505050	0.267570
H591	H59	0.693950	0.447920	0.202790
H601	H60	0.653590	0.412330	0.211330
N311	N31	0.119510	0.812640	0.742690
N321	N32	0.043370	0.723710	0.751350
C911	C91	0.118720	0.785710	0.758970
C921	C92	0.095420	0.763770	0.755670
C931	C93	0.071610	0.769820	0.734530
C941	C94	0.072070	0.797550	0.717570
C951	C95	0.096300	0.818470	0.722590
C961	C96	0.045850	0.746950	0.730600
H611	H61	0.135100	0.781650	0.773490
H621	H62	0.095650	0.744950	0.767570
H631	H63	0.056050	0.802080	0.702790
H641	H64	0.096410	0.837670	0.711330
N331	N33	0.312640	0.242690	0.119510
N341	N34	0.223710	0.251350	0.043370
C971	C97	0.285710	0.258970	0.118720
C981	C98	0.263770	0.255670	0.095420
C991	C99	0.269820	0.234530	0.071610
C1001	C100	0.297550	0.217570	0.072070
C1011	C101	0.318470	0.222590	0.096300
C1021	C102	0.246950	0.230600	0.045850
H651	H65	0.281650	0.273490	0.135100
H661	H66	0.244950	0.267570	0.095650
H671	H67	0.302080	0.202790	0.056050
H681	H68	0.337670	0.211330	0.096410
N351	N35	0.937360	0.742690	0.630490
N361	N36	0.026290	0.751350	0.706630
C1031	C103	0.964290	0.758970	0.631280
C1041	C104	0.986230	0.755670	0.654580
C1051	C105	0.980180	0.734530	0.678390
C1061	C106	0.952450	0.717570	0.677930
C1071	C107	0.931530	0.722590	0.653700
C1081	C108	0.003050	0.730600	0.704150
H691	H69	0.968350	0.773490	0.614900
H701	H70	0.005050	0.767570	0.654350
H711	H71	0.947920	0.702790	0.693950
H721	H72	0.912330	0.711330	0.653590
N371	N37	0.437360	0.007310	0.619510
N381	N38	0.526290	0.998650	0.543370
C1091	C109	0.464290	0.991030	0.618720
C1101	C110	0.486230	0.994330	0.595420
C1111	C111	0.480180	0.015470	0.571610
C1121	C112	0.452450	0.032430	0.572070
C1131	C113	0.431530	0.027410	0.596300
C1141	C114	0.503050	0.019400	0.545850
H731	H73	0.468350	0.976510	0.635100
H741	H74	0.505050	0.982430	0.595650
H751	H75	0.447920	0.047210	0.556050
H761	H76	0.412330	0.038670	0.596410
N391	N39	0.812640	0.507310	0.130490
N401	N40	0.723710	0.498650	0.206630
C1151	C115	0.785710	0.491030	0.131280
C1161	C116	0.763770	0.494330	0.154580
C1171	C117	0.769820	0.515470	0.178390
C1181	C118	0.797550	0.532430	0.177930
C1191	C119	0.818470	0.527410	0.153700
C1201	C120	0.746950	0.519400	0.204150
H771	H77	0.781650	0.476510	0.114900
H781	H78	0.744950	0.482430	0.154350
H791	H79	0.802080	0.547210	0.193950
H801	H80	0.837670	0.538670	0.153590
N411	N41	0.242690	0.130490	0.937360
N421	N42	0.251350	0.206630	0.026290
C1211	C121	0.258970	0.131280	0.964290
C1221	C122	0.255670	0.154580	0.986230
C1231	C123	0.234530	0.178390	0.980180
C1241	C124	0.217570	0.177930	0.952450
C1251	C125	0.222590	0.153700	0.931530
C1261	C126	0.230600	0.204150	0.003050
H811	H81	0.273490	0.114900	0.968350
H821	H82	0.267570	0.154350	0.005050
H831	H83	0.202790	0.193950	0.947920
H841	H84	0.211330	0.153590	0.912330
N431	N43	0.742690	0.619510	0.312640
N441	N44	0.751350	0.543370	0.223710
C1271	C127	0.758970	0.618720	0.285710
C1281	C128	0.755670	0.595420	0.263770
C1291	C129	0.734530	0.571610	0.269820
C1301	C130	0.717570	0.572070	0.297550
C1311	C131	0.722590	0.596300	0.318470
C1321	C132	0.730600	0.545850	0.246950
H851	H85	0.773490	0.635100	0.281650
H861	H86	0.767570	0.595650	0.244950
H871	H87	0.702790	0.556050	0.302080
H881	H88	0.711330	0.596410	0.337670
N451	N45	0.007310	0.630490	0.812640
N461	N46	0.998650	0.706630	0.723710
C1331	C133	0.991030	0.631280	0.785710
C1341	C134	0.994330	0.654580	0.763770
C1351	C135	0.015470	0.678390	0.769820
C1361	C136	0.032430	0.677930	0.797550
C1371	C137	0.027410	0.653700	0.818470
C1381	C138	0.019400	0.704150	0.746950
H891	H89	0.976510	0.614900	0.781650
H901	H90	0.982430	0.654350	0.744950
H911	H91	0.047210	0.693950	0.802080
H921	H92	0.038670	0.653590	0.837670
N471	N47	0.507310	0.119510	0.437360
N481	N48	0.498650	0.043370	0.526290
C1391	C139	0.491030	0.118720	0.464290
C1401	C140	0.494330	0.095420	0.486230
C1411	C141	0.515470	0.071610	0.480180
C1421	C142	0.532430	0.072070	0.452450
C1431	C143	0.527410	0.096300	0.431530
C1441	C144	0.519400	0.045850	0.503050
H931	H93	0.476510	0.135100	0.468350
H941	H94	0.482430	0.095650	0.505050
H951	H95	0.547210	0.056050	0.447920
H961	H96	0.538670	0.096410	0.412330
Zn11	Zn1	0.094560	0.344560	0.000000
Zn21	Zn2	0.655440	0.905440	0.500000
Zn31	Zn3	0.155440	0.844560	0.750000
Zn41	Zn4	0.594560	0.405440	0.250000
Zn51	Zn5	0.000000	0.594560	0.844560
Zn61	Zn6	0.500000	0.155440	0.405440
Zn71	Zn7	0.750000	0.655440	0.344560
Zn81	Zn8	0.250000	0.094560	0.905440
Zn91	Zn9	0.844560	0.500000	0.094560
Zn101	Zn10	0.405440	0.000000	0.655440
Zn111	Zn11	0.344560	0.250000	0.155440
Zn121	Zn12	0.905440	0.750000	0.594560
N491	N49	0.062640	0.880490	0.492690
N501	N50	0.973710	0.956630	0.501350
C1451	C145	0.035710	0.881280	0.508970
C1461	C146	0.013770	0.904580	0.505670
C1471	C147	0.019820	0.928390	0.484530
C1481	C148	0.047550	0.927930	0.467570
C1491	C149	0.068470	0.903700	0.472590
C1501	C150	0.996950	0.954150	0.480600
H971	H97	0.031650	0.864900	0.523490
H981	H98	0.994950	0.904350	0.517570
H991	H99	0.052080	0.943950	0.452790
H1001	H100	0.087670	0.903590	0.461330
N511	N51	0.687360	0.369510	0.992690
N521	N52	0.776290	0.293370	0.001350
C1511	C151	0.714290	0.368720	0.008970
C1521	C152	0.736230	0.345420	0.005670
C1531	C153	0.730180	0.321610	0.984530
C1541	C154	0.702450	0.322070	0.967570
C1551	C155	0.681530	0.346300	0.972590
C1561	C156	0.753050	0.295850	0.980600
H1011	H101	0.718350	0.385100	0.023490
H1021	H102	0.755050	0.345650	0.017570
H1031	H103	0.697920	0.306050	0.952790
H1041	H104	0.662330	0.346410	0.961330
N531	N53	0.187360	0.380490	0.257310
N541	N54	0.276290	0.456630	0.248650
C1571	C157	0.214290	0.381280	0.241030
C1581	C158	0.236230	0.404580	0.244330
C1591	C159	0.230180	0.428390	0.265470
C1601	C160	0.202450	0.427930	0.282430
C1611	C161	0.181530	0.403700	0.277410
C1621	C162	0.253050	0.454150	0.269400
H1051	H105	0.218350	0.364900	0.226510
H1061	H106	0.255050	0.404350	0.232430
H1071	H107	0.197920	0.443950	0.297210
H1081	H108	0.162330	0.403590	0.288670
N551	N55	0.562640	0.869510	0.757310
N561	N56	0.473710	0.793370	0.748650
C1631	C163	0.535710	0.868720	0.741030
C1641	C164	0.513770	0.845420	0.744330
C1651	C165	0.519820	0.821610	0.765470
C1661	C166	0.547550	0.822070	0.782430
C1671	C167	0.568470	0.846300	0.777410
C1681	C168	0.496950	0.795850	0.769400
H1091	H109	0.531650	0.885100	0.726510
H1101	H110	0.494950	0.845650	0.732430
H1111	H111	0.552080	0.806050	0.797210
H1121	H112	0.587670	0.846410	0.788670
N571	N57	0.992690	0.062640	0.380490
N581	N58	0.001350	0.973710	0.456630
C1691	C169	0.008970	0.035710	0.381280
C1701	C170	0.005670	0.013770	0.404580
C1711	C171	0.984530	0.019820	0.428390
C1721	C172	0.967570	0.047550	0.427930
C1731	C173	0.972590	0.068470	0.403700
C1741	C174	0.980600	0.996950	0.454150
H1131	H113	0.023490	0.031650	0.364900
H1141	H114	0.017570	0.994950	0.404350
H1151	H115	0.952790	0.052080	0.443950
H1161	H116	0.961330	0.087670	0.403590
N591	N59	0.492690	0.687360	0.869510
N601	N60	0.501350	0.776290	0.793370
C1751	C175	0.508970	0.714290	0.868720
C1761	C176	0.505670	0.736230	0.845420
C1771	C177	0.484530	0.730180	0.821610
C1781	C178	0.467570	0.702450	0.822070
C1791	C179	0.472590	0.681530	0.846300
C1801	C180	0.480600	0.753050	0.795850
H1171	H117	0.523490	0.718350	0.885100
H1181	H118	0.517570	0.755050	0.845650
H1191	H119	0.452790	0.697920	0.806050
H1201	H120	0.461330	0.662330	0.846410
N611	N61	0.757310	0.187360	0.880490
N621	N62	0.748650	0.276290	0.956630
C1811	C181	0.741030	0.214290	0.881280
C1821	C182	0.744330	0.236230	0.904580
C1831	C183	0.765470	0.230180	0.928390
C1841	C184	0.782430	0.202450	0.927930
C1851	C185	0.777410	0.181530	0.903700
C1861	C186	0.769400	0.253050	0.954150
H1211	H121	0.726510	0.218350	0.864900
H1221	H122	0.732430	0.255050	0.904350
H1231	H123	0.797210	0.197920	0.943950
H1241	H124	0.788670	0.162330	0.903590
N631	N63	0.257310	0.562640	0.369510
N641	N64	0.248650	0.473710	0.293370
C1871	C187	0.241030	0.535710	0.368720
C1881	C188	0.244330	0.513770	0.345420
C1891	C189	0.265470	0.519820	0.321610
C1901	C190	0.282430	0.547550	0.322070
C1911	C191	0.277410	0.568470	0.346300
C1921	C192	0.269400	0.496950	0.295850
H1251	H125	0.226510	0.531650	0.385100
H1261	H126	0.232430	0.494950	0.345650
H1271	H127	0.297210	0.552080	0.306050
H1281	H128	0.288670	0.587670	0.346410
N651	N65	0.880490	0.992690	0.562640
N661	N66	0.956630	0.001350	0.473710
C1931	C193	0.881280	0.008970	0.535710
C1941	C194	0.904580	0.005670	0.513770
C1951	C195	0.928390	0.984530	0.519820
C1961	C196	0.927930	0.967570	0.547550
C1971	C197	0.903700	0.972590	0.568470
C1981	C198	0.954150	0.980600	0.496950
H1291	H129	0.864900	0.023490	0.531650
H1301	H130	0.904350	0.017570	0.494950
H1311	H131	0.943950	0.952790	0.552080
H1321	H132	0.903590	0.961330	0.587670
N671	N67	0.369510	0.492690	0.187360
N681	N68	0.293370	0.501350	0.276290
C1991	C199	0.368720	0.508970	0.214290
C2001	C200	0.345420	0.505670	0.236230
C2011	C201	0.321610	0.484530	0.230180
C2021	C202	0.322070	0.467570	0.202450
C2031	C203	0.346300	0.472590	0.181530
C2041	C204	0.295850	0.480600	0.253050
H1331	H133	0.385100	0.523490	0.218350
H1341	H134	0.345650	0.517570	0.255050
H1351	H135	0.306050	0.452790	0.197920
H1361	H136	0.346410	0.461330	0.162330
N691	N69	0.380490	0.757310	0.687360
N701	N70	0.456630	0.748650	0.776290
C2051	C205	0.381280	0.741030	0.714290
C2061	C206	0.404580	0.744330	0.736230
C2071	C207	0.428390	0.765470	0.730180
C2081	C208	0.427930	0.782430	0.702450
C2091	C209	0.403700	0.777410	0.681530
C2101	C210	0.454150	0.769400	0.753050
H1371	H137	0.364900	0.726510	0.718350
H1381	H138	0.404350	0.732430	0.755050
H1391	H139	0.443950	0.797210	0.697920
H1401	H140	0.403590	0.788670	0.662330
N711	N71	0.869510	0.257310	0.062640
N721	N72	0.793370	0.248650	0.973710
C2111	C211	0.868720	0.241030	0.035710
C2121	C212	0.845420	0.244330	0.013770
C2131	C213	0.821610	0.265470	0.019820
C2141	C214	0.822070	0.282430	0.047550
C2151	C215	0.846300	0.277410	0.068470
C2161	C216	0.795850	0.269400	0.996950
H1411	H141	0.885100	0.226510	0.031650
H1421	H142	0.845650	0.232430	0.994950
H1431	H143	0.806050	0.297210	0.052080
H1441	H144	0.846410	0.288670	0.087670
N731	N73	0.130490	0.812640	0.507310
N741	N74	0.206630	0.723710	0.498650
C2171	C217	0.131280	0.785710	0.491030
C2181	C218	0.154580	0.763770	0.494330
C2191	C219	0.178390	0.769820	0.515470
C2201	C220	0.177930	0.797550	0.532430
C2211	C221	0.153700	0.818470	0.527410
C2221	C222	0.204150	0.746950	0.519400
H1451	H145	0.114900	0.781650	0.476510
H1461	H146	0.154350	0.744950	0.482430
H1471	H147	0.193950	0.802080	0.547210
H1481	H148	0.153590	0.837670	0.538670
N751	N75	0.619510	0.437360	0.007310
N761	N76	0.543370	0.526290	0.998650
C2231	C223	0.618720	0.464290	0.991030
C2241	C224	0.595420	0.486230	0.994330
C2251	C225	0.571610	0.480180	0.015470
C2261	C226	0.572070	0.452450	0.032430
C2271	C227	0.596300	0.431530	0.027410
C2281	C228	0.545850	0.503050	0.019400
H1491	H149	0.635100	0.468350	0.976510
H1501	H150	0.595650	0.505050	0.982430
H1511	H151	0.556050	0.447920	0.047210
H1521	H152	0.596410	0.412330	0.038670
N771	N77	0.630490	0.937360	0.742690
N781	N78	0.706630	0.026290	0.751350
C2291	C229	0.631280	0.964290	0.758970
C2301	C230	0.654580	0.986230	0.755670
C2311	C231	0.678390	0.980180	0.734530
C2321	C232	0.677930	0.952450	0.717570
C2331	C233	0.653700	0.931530	0.722590
C2341	C234	0.704150	0.003050	0.730600
H1531	H153	0.614900	0.968350	0.773490
H1541	H154	0.654350	0.005050	0.767570
H1551	H155	0.693950	0.947920	0.702790
H1561	H156	0.653590	0.912330	0.711330
N791	N79	0.119510	0.312640	0.242690
N801	N80	0.043370	0.223710	0.251350
C2351	C235	0.118720	0.285710	0.258970
C2361	C236	0.095420	0.263770	0.255670
C2371	C237	0.071610	0.269820	0.234530
C2381	C238	0.072070	0.297550	0.217570
C2391	C239	0.096300	0.318470	0.222590
C2401	C240	0.045850	0.246950	0.230600
H1571	H157	0.135100	0.281650	0.273490
H1581	H158	0.095650	0.244950	0.267570
H1591	H159	0.056050	0.302080	0.202790
H1601	H160	0.096410	0.337670	0.211330
N811	N81	0.312640	0.742690	0.619510
N821	N82	0.223710	0.751350	0.543370
C2411	C241	0.285710	0.758970	0.618720
C2421	C242	0.263770	0.755670	0.595420
C2431	C243	0.269820	0.734530	0.571610
C2441	C244	0.297550	0.717570	0.572070
C2451	C245	0.318470	0.722590	0.596300
C2461	C246	0.246950	0.730600	0.545850
H1611	H161	0.281650	0.773490	0.635100
H1621	H162	0.244950	0.767570	0.595650
H1631	H163	0.302080	0.702790	0.556050
H1641	H164	0.337670	0.711330	0.596410
N831	N83	0.937360	0.242690	0.130490
N841	N84	0.026290	0.251350	0.206630
C2471	C247	0.964290	0.258970	0.131280
C2481	C248	0.986230	0.255670	0.154580
C2491	C249	0.980180	0.234530	0.178390
C2501	C250	0.952450	0.217570	0.177930
C2511	C251	0.931530	0.222590	0.153700
C2521	C252	0.003050	0.230600	0.204150
H1651	H165	0.968350	0.273490	0.114900
H1661	H166	0.005050	0.267570	0.154350
H1671	H167	0.947920	0.202790	0.193950
H1681	H168	0.912330	0.211330	0.153590
N851	N85	0.437360	0.507310	0.119510
N861	N86	0.526290	0.498650	0.043370
C2531	C253	0.464290	0.491030	0.118720
C2541	C254	0.486230	0.494330	0.095420
C2551	C255	0.480180	0.515470	0.071610
C2561	C256	0.452450	0.532430	0.072070
C2571	C257	0.431530	0.527410	0.096300
C2581	C258	0.503050	0.519400	0.045850
H1691	H169	0.468350	0.476510	0.135100
H1701	H170	0.505050	0.482430	0.095650
H1711	H171	0.447920	0.547210	0.056050
H1721	H172	0.412330	0.538670	0.096410
N871	N87	0.812640	0.007310	0.630490
N881	N88	0.723710	0.998650	0.706630
C2591	C259	0.785710	0.991030	0.631280
C2601	C260	0.763770	0.994330	0.654580
C2611	C261	0.769820	0.015470	0.678390
C2621	C262	0.797550	0.032430	0.677930
C2631	C263	0.818470	0.027410	0.653700
C2641	C264	0.746950	0.019400	0.704150
H1731	H173	0.781650	0.976510	0.614900
H1741	H174	0.744950	0.982430	0.654350
H1751	H175	0.802080	0.047210	0.693950
H1761	H176	0.837670	0.038670	0.653590
N891	N89	0.242690	0.630490	0.437360
N901	N90	0.251350	0.706630	0.526290
C2651	C265	0.258970	0.631280	0.464290
C2661	C266	0.255670	0.654580	0.486230
C2671	C267	0.234530	0.678390	0.480180
C2681	C268	0.217570	0.677930	0.452450
C2691	C269	0.222590	0.653700	0.431530
C2701	C270	0.230600	0.704150	0.503050
H1771	H177	0.273490	0.614900	0.468350
H1781	H178	0.267570	0.654350	0.505050
H1791	H179	0.202790	0.693950	0.447920
H1801	H180	0.211330	0.653590	0.412330
N911	N91	0.742690	0.119510	0.812640
N921	N92	0.751350	0.043370	0.723710
C2711	C271	0.758970	0.118720	0.785710
C2721	C272	0.755670	0.095420	0.763770
C2731	C273	0.734530	0.071610	0.769820
C2741	C274	0.717570	0.072070	0.797550
C2751	C275	0.722590	0.096300	0.818470
C2761	C276	0.730600	0.045850	0.746950
H1811	H181	0.773490	0.135100	0.781650
H1821	H182	0.767570	0.095650	0.744950
H1831	H183	0.702790	0.056050	0.802080
H1841	H184	0.711330	0.096410	0.837670
N931	N93	0.007310	0.130490	0.312640
N941	N94	0.998650	0.206630	0.223710
C2771	C277	0.991030	0.131280	0.285710
C2781	C278	0.994330	0.154580	0.263770
C2791	C279	0.015470	0.178390	0.269820
C2801	C280	0.032430	0.177930	0.297550
C2811	C281	0.027410	0.153700	0.318470
C2821	C282	0.019400	0.204150	0.246950
H1851	H185	0.976510	0.114900	0.281650
H1861	H186	0.982430	0.154350	0.244950
H1871	H187	0.047210	0.193950	0.302080
H1881	H188	0.038670	0.153590	0.337670
N951	N95	0.507310	0.619510	0.937360
N961	N96	0.498650	0.543370	0.026290
C2831	C283	0.491030	0.618720	0.964290
C2841	C284	0.494330	0.595420	0.986230
C2851	C285	0.515470	0.571610	0.980180
C2861	C286	0.532430	0.572070	0.952450
C2871	C287	0.527410	0.596300	0.931530
C2881	C288	0.519400	0.545850	0.003050
H1891	H189	0.476510	0.635100	0.968350
H1901	H190	0.482430	0.595650	0.005050
H1911	H191	0.547210	0.556050	0.947920
H1921	H192	0.538670	0.596410	0.912330
Zn131	Zn13	0.094560	0.844560	0.500000
Zn141	Zn14	0.655440	0.405440	0.000000
Zn151	Zn15	0.155440	0.344560	0.250000
Zn161	Zn16	0.594560	0.905440	0.750000
Zn171	Zn17	0.000000	0.094560	0.344560
Zn181	Zn18	0.500000	0.655440	0.905440
Zn191	Zn19	0.750000	0.155440	0.844560
Zn201	Zn20	0.250000	0.594560	0.405440
Zn211	Zn21	0.844560	0.000000	0.594560
Zn221	Zn22	0.405440	0.500000	0.155440
Zn231	Zn23	0.344560	0.750000	0.655440
Zn241	Zn24	0.905440	0.250000	0.094560
N971	N97	0.562640	0.380490	0.492690
N981	N98	0.473710	0.456630	0.501350
C2891	C289	0.535710	0.381280	0.508970
C2901	C290	0.513770	0.404580	0.505670
C2911	C291	0.519820	0.428390	0.484530
C2921	C292	0.547550	0.427930	0.467570
C2931	C293	0.568470	0.403700	0.472590
C2941	C294	0.496950	0.454150	0.480600
H1931	H193	0.531650	0.364900	0.523490
H1941	H194	0.494950	0.404350	0.517570
H1951	H195	0.552080	0.443950	0.452790
H1961	H196	0.587670	0.403590	0.461330
N991	N99	0.187360	0.869510	0.992690
N1001	N100	0.276290	0.793370	0.001350
C2951	C295	0.214290	0.868720	0.008970
C2961	C296	0.236230	0.845420	0.005670
C2971	C297	0.230180	0.821610	0.984530
C2981	C298	0.202450	0.822070	0.967570
C2991	C299	0.181530	0.846300	0.972590
C3001	C300	0.253050	0.795850	0.980600
H1971	H197	0.218350	0.885100	0.023490
H1981	H198	0.255050	0.845650	0.017570
H1991	H199	0.197920	0.806050	0.952790
H2001	H200	0.162330	0.846410	0.961330
N1011	N101	0.687360	0.880490	0.257310
N1021	N102	0.776290	0.956630	0.248650
C3011	C301	0.714290	0.881280	0.241030
C3021	C302	0.736230	0.904580	0.244330
C3031	C303	0.730180	0.928390	0.265470
C3041	C304	0.702450	0.927930	0.282430
C3051	C305	0.681530	0.903700	0.277410
C3061	C306	0.753050	0.954150	0.269400
H2011	H201	0.718350	0.864900	0.226510
H2021	H202	0.755050	0.904350	0.232430
H2031	H203	0.697920	0.943950	0.297210
H2041	H204	0.662330	0.903590	0.288670
N1031	N103	0.062640	0.369510	0.757310
N1041	N104	0.973710	0.293370	0.748650
C3071	C307	0.035710	0.368720	0.741030
C3081	C308	0.013770	0.345420	0.744330
C3091	C309	0.019820	0.321610	0.765470
C3101	C310	0.047550	0.322070	0.782430
C3111	C311	0.068470	0.346300	0.777410
C3121	C312	0.996950	0.295850	0.769400
H2051	H205	0.031650	0.385100	0.726510
H2061	H206	0.994950	0.345650	0.732430
H2071	H207	0.052080	0.306050	0.797210
H2081	H208	0.087670	0.346410	0.788670
N1051	N105	0.492690	0.562640	0.380490
N1061	N106	0.501350	0.473710	0.456630
C3131	C313	0.508970	0.535710	0.381280
C3141	C314	0.505670	0.513770	0.404580
C3151	C315	0.484530	0.519820	0.428390
C3161	C316	0.467570	0.547550	0.427930
C3171	C317	0.472590	0.568470	0.403700
C3181	C318	0.480600	0.496950	0.454150
H2091	H209	0.523490	0.531650	0.364900
H2101	H210	0.517570	0.494950	0.404350
H2111	H211	0.452790	0.552080	0.443950
H2121	H212	0.461330	0.587670	0.403590
N1071	N107	0.992690	0.187360	0.869510
N1081	N108	0.001350	0.276290	0.793370
C3191	C319	0.008970	0.214290	0.868720
C3201	C320	0.005670	0.236230	0.845420
C3211	C321	0.984530	0.230180	0.821610
C3221	C322	0.967570	0.202450	0.822070
C3231	C323	0.972590	0.181530	0.846300
C3241	C324	0.980600	0.253050	0.795850
H2131	H213	0.023490	0.218350	0.885100
H2141	H214	0.017570	0.255050	0.845650
H2151	H215	0.952790	0.197920	0.806050
H2161	H216	0.961330	0.162330	0.846410
N1091	N109	0.257310	0.687360	0.880490
N1101	N110	0.248650	0.776290	0.956630
C3251	C325	0.241030	0.714290	0.881280
C3261	C326	0.244330	0.736230	0.904580
C3271	C327	0.265470	0.730180	0.928390
C3281	C328	0.282430	0.702450	0.927930
C3291	C329	0.277410	0.681530	0.903700
C3301	C330	0.269400	0.753050	0.954150
H2171	H217	0.226510	0.718350	0.864900
H2181	H218	0.232430	0.755050	0.904350
H2191	H219	0.297210	0.697920	0.943950
H2201	H220	0.288670	0.662330	0.903590
N1111	N111	0.757310	0.062640	0.369510
N1121	N112	0.748650	0.973710	0.293370
C3311	C331	0.741030	0.035710	0.368720
C3321	C332	0.744330	0.013770	0.345420
C3331	C333	0.765470	0.019820	0.321610
C3341	C334	0.782430	0.047550	0.322070
C3351	C335	0.777410	0.068470	0.346300
C3361	C336	0.769400	0.996950	0.295850
H2211	H221	0.726510	0.031650	0.385100
H2221	H222	0.732430	0.994950	0.345650
H2231	H223	0.797210	0.052080	0.306050
H2241	H224	0.788670	0.087670	0.346410
N1131	N113	0.380490	0.492690	0.562640
N1141	N114	0.456630	0.501350	0.473710
C3371	C337	0.381280	0.508970	0.535710
C3381	C338	0.404580	0.505670	0.513770
C3391	C339	0.428390	0.484530	0.519820
C3401	C340	0.427930	0.467570	0.547550
C3411	C341	0.403700	0.472590	0.568470
C3421	C342	0.454150	0.480600	0.496950
H2251	H225	0.364900	0.523490	0.531650
H2261	H226	0.404350	0.517570	0.494950
H2271	H227	0.443950	0.452790	0.552080
H2281	H228	0.403590	0.461330	0.587670
N1151	N115	0.869510	0.992690	0.187360
N1161	N116	0.793370	0.001350	0.276290
C3431	C343	0.868720	0.008970	0.214290
C3441	C344	0.845420	0.005670	0.236230
C3451	C345	0.821610	0.984530	0.230180
C3461	C346	0.822070	0.967570	0.202450
C3471	C347	0.846300	0.972590	0.181530
C3481	C348	0.795850	0.980600	0.253050
H2291	H229	0.885100	0.023490	0.218350
H2301	H230	0.845650	0.017570	0.255050
H2311	H231	0.806050	0.952790	0.197920
H2321	H232	0.846410	0.961330	0.162330
N1171	N117	0.880490	0.257310	0.687360
N1181	N118	0.956630	0.248650	0.776290
C3491	C349	0.881280	0.241030	0.714290
C3501	C350	0.904580	0.244330	0.736230
C3511	C351	0.928390	0.265470	0.730180
C3521	C352	0.927930	0.282430	0.702450
C3531	C353	0.903700	0.277410	0.681530
C3541	C354	0.954150	0.269400	0.753050
H2331	H233	0.864900	0.226510	0.718350
H2341	H234	0.904350	0.232430	0.755050
H2351	H235	0.943950	0.297210	0.697920
H2361	H236	0.903590	0.288670	0.662330
N1191	N119	0.369510	0.757310	0.062640
N1201	N120	0.293370	0.748650	0.973710
C3551	C355	0.368720	0.741030	0.035710
C3561	C356	0.345420	0.744330	0.013770
C3571	C357	0.321610	0.765470	0.019820
C3581	C358	0.322070	0.782430	0.047550
C3591	C359	0.346300	0.777410	0.068470
C3601	C360	0.295850	0.769400	0.996950
H2371	H237	0.385100	0.726510	0.031650
H2381	H238	0.345650	0.732430	0.994950
H2391	H239	0.306050	0.797210	0.052080
H2401	H240	0.346410	0.788670	0.087670
N1211	N121	0.630490	0.312640	0.507310
N1221	N122	0.706630	0.223710	0.498650
C3611	C361	0.631280	0.285710	0.491030
C3621	C362	0.654580	0.263770	0.494330
C3631	C363	0.678390	0.269820	0.515470
C3641	C364	0.677930	0.297550	0.532430
C3651	C365	0.653700	0.318470	0.527410
C3661	C366	0.704150	0.246950	0.519400
H2411	H241	0.614900	0.281650	0.476510
H2421	H242	0.654350	0.244950	0.482430
H2431	H243	0.693950	0.302080	0.547210
H2441	H244	0.653590	0.337670	0.538670
N1231	N123	0.119510	0.937360	0.007310
N1241	N124	0.043370	0.026290	0.998650
C3671	C367	0.118720	0.964290	0.991030
C3681	C368	0.095420	0.986230	0.994330
C3691	C369	0.071610	0.980180	0.015470
C3701	C370	0.072070	0.952450	0.032430
C3711	C371	0.096300	0.931530	0.027410
C3721	C372	0.045850	0.003050	0.019400
H2451	H245	0.135100	0.968350	0.976510
H2461	H246	0.095650	0.005050	0.982430
H2471	H247	0.056050	0.947920	0.047210
H2481	H248	0.096410	0.912330	0.038670
N1251	N125	0.130490	0.437360	0.742690
N1261	N126	0.206630	0.526290	0.751350
C3731	C373	0.131280	0.464290	0.758970
C3741	C374	0.154580	0.486230	0.755670
C3751	C375	0.178390	0.480180	0.734530
C3761	C376	0.177930	0.452450	0.717570
C3771	C377	0.153700	0.431530	0.722590
C3781	C378	0.204150	0.503050	0.730600
H2491	H249	0.114900	0.468350	0.773490
H2501	H250	0.154350	0.505050	0.767570
H2511	H251	0.193950	0.447920	0.702790
H2521	H252	0.153590	0.412330	0.711330
N1271	N127	0.619510	0.812640	0.242690
N1281	N128	0.543370	0.723710	0.251350
C3791	C379	0.618720	0.785710	0.258970
C3801	C380	0.595420	0.763770	0.255670
C3811	C381	0.571610	0.769820	0.234530
C3821	C382	0.572070	0.797550	0.217570
C3831	C383	0.596300	0.818470	0.222590
C3841	C384	0.545850	0.746950	0.230600
H2531	H253	0.635100	0.781650	0.273490
H2541	H254	0.595650	0.744950	0.267570
H2551	H255	0.556050	0.802080	0.202790
H2561	H256	0.596410	0.837670	0.211330
N1291	N129	0.812640	0.242690	0.619510
N1301	N130	0.723710	0.251350	0.543370
C3851	C385	0.785710	0.258970	0.618720
C3861	C386	0.763770	0.255670	0.595420
C3871	C387	0.769820	0.234530	0.571610
C3881	C388	0.797550	0.217570	0.572070
C3891	C389	0.818470	0.222590	0.596300
C3901	C390	0.746950	0.230600	0.545850
H2571	H257	0.781650	0.273490	0.635100
H2581	H258	0.744950	0.267570	0.595650
H2591	H259	0.802080	0.202790	0.556050
H2601	H260	0.837670	0.211330	0.596410
N1311	N131	0.437360	0.742690	0.130490
N1321	N132	0.526290	0.751350	0.206630
C3911	C391	0.464290	0.758970	0.131280
C3921	C392	0.486230	0.755670	0.154580
C3931	C393	0.480180	0.734530	0.178390
C3941	C394	0.452450	0.717570	0.177930
C3951	C395	0.431530	0.722590	0.153700
C3961	C396	0.503050	0.730600	0.204150
H2611	H261	0.468350	0.773490	0.114900
H2621	H262	0.505050	0.767570	0.154350
H2631	H263	0.447920	0.702790	0.193950
H2641	H264	0.412330	0.711330	0.153590
N1331	N133	0.937360	0.007310	0.119510
N1341	N134	0.026290	0.998650	0.043370
C3971	C397	0.964290	0.991030	0.118720
C3981	C398	0.986230	0.994330	0.095420
C3991	C399	0.980180	0.015470	0.071610
C4001	C400	0.952450	0.032430	0.072070
C4011	C401	0.931530	0.027410	0.096300
C4021	C402	0.003050	0.019400	0.045850
H2651	H265	0.968350	0.976510	0.135100
H2661	H266	0.005050	0.982430	0.095650
H2671	H267	0.947920	0.047210	0.056050
H2681	H268	0.912330	0.038670	0.096410
N1351	N135	0.312640	0.507310	0.630490
N1361	N136	0.223710	0.498650	0.706630
C4031	C403	0.285710	0.491030	0.631280
C4041	C404	0.263770	0.494330	0.654580
C4051	C405	0.269820	0.515470	0.678390
C4061	C406	0.297550	0.532430	0.677930
C4071	C407	0.318470	0.527410	0.653700
C4081	C408	0.246950	0.519400	0.704150
H2691	H269	0.281650	0.476510	0.614900
H2701	H270	0.244950	0.482430	0.654350
H2711	H271	0.302080	0.547210	0.693950
H2721	H272	0.337670	0.538670	0.653590
N1371	N137	0.742690	0.130490	0.437360
N1381	N138	0.751350	0.206630	0.526290
C4091	C409	0.758970	0.131280	0.464290
C4101	C410	0.755670	0.154580	0.486230
C4111	C411	0.734530	0.178390	0.480180
C4121	C412	0.717570	0.177930	0.452450
C4131	C413	0.722590	0.153700	0.431530
C4141	C414	0.730600	0.204150	0.503050
H2731	H273	0.773490	0.114900	0.468350
H2741	H274	0.767570	0.154350	0.505050
H2751	H275	0.702790	0.193950	0.447920
H2761	H276	0.711330	0.153590	0.412330
N1391	N139	0.242690	0.619510	0.812640
N1401	N140	0.251350	0.543370	0.723710
C4151	C415	0.258970	0.618720	0.785710
C4161	C416	0.255670	0.595420	0.763770
C4171	C417	0.234530	0.571610	0.769820
C4181	C418	0.217570	0.572070	0.797550
C4191	C419	0.222590	0.596300	0.818470
C4201	C420	0.230600	0.545850	0.746950
H2771	H277	0.273490	0.635100	0.781650
H2781	H278	0.267570	0.595650	0.744950
H2791	H279	0.202790	0.556050	0.802080
H2801	H280	0.211330	0.596410	0.837670
N1411	N141	0.507310	0.630490	0.312640
N1421	N142	0.498650	0.706630	0.223710
C4211	C421	0.491030	0.631280	0.285710
C4221	C422	0.494330	0.654580	0.263770
C4231	C423	0.515470	0.678390	0.269820
C4241	C424	0.532430	0.677930	0.297550
C4251	C425	0.527410	0.653700	0.318470
C4261	C426	0.519400	0.704150	0.246950
H2811	H281	0.476510	0.614900	0.281650
H2821	H282	0.482430	0.654350	0.244950
H2831	H283	0.547210	0.693950	0.302080
H2841	H284	0.538670	0.653590	0.337670
N1431	N143	0.007310	0.119510	0.937360
N1441	N144	0.998650	0.043370	0.026290
C4271	C427	0.991030	0.118720	0.964290
C4281	C428	0.994330	0.095420	0.986230
C4291	C429	0.015470	0.071610	0.980180
C4301	C430	0.032430	0.072070	0.952450
C4311	C431	0.027410	0.096300	0.931530
C4321	C432	0.019400	0.045850	0.003050
H2851	H285	0.976510	0.135100	0.968350
H2861	H286	0.982430	0.095650	0.005050
H2871	H287	0.047210	0.056050	0.947920
H2881	H288	0.038670	0.096410	0.912330
Zn251	Zn25	0.594560	0.344560	0.500000
Zn261	Zn26	0.155440	0.905440	0.000000
Zn271	Zn27	0.655440	0.844560	0.250000
Zn281	Zn28	0.094560	0.405440	0.750000
Zn291	Zn29	0.500000	0.594560	0.344560
Zn301	Zn30	0.000000	0.155440	0.905440
Zn311	Zn31	0.250000	0.655440	0.844560
Zn321	Zn32	0.750000	0.094560	0.405440
Zn331	Zn33	0.344560	0.500000	0.594560
Zn341	Zn34	0.905440	0.000000	0.155440
Zn351	Zn35	0.844560	0.250000	0.655440
Zn361	Zn36	0.405440	0.750000	0.094560
N1451	N145	0.562640	0.880490	0.992690
N1461	N146	0.473710	0.956630	0.001350
C4331	C433	0.535710	0.881280	0.008970
C4341	C434	0.513770	0.904580	0.005670
C4351	C435	0.519820	0.928390	0.984530
C4361	C436	0.547550	0.927930	0.967570
C4371	C437	0.568470	0.903700	0.972590
C4381	C438	0.496950	0.954150	0.980600
H2891	H289	0.531650	0.864900	0.023490
H2901	H290	0.494950	0.904350	0.017570
H2911	H291	0.552080	0.943950	0.952790
H2921	H292	0.587670	0.903590	0.961330
N1471	N147	0.187360	0.369510	0.492690
N1481	N148	0.276290	0.293370	0.501350
C4391	C439	0.214290	0.368720	0.508970
C4401	C440	0.236230	0.345420	0.505670
C4411	C441	0.230180	0.321610	0.484530
C4421	C442	0.202450	0.322070	0.467570
C4431	C443	0.181530	0.346300	0.472590
C4441	C444	0.253050	0.295850	0.480600
H2931	H293	0.218350	0.385100	0.523490
H2941	H294	0.255050	0.345650	0.517570
H2951	H295	0.197920	0.306050	0.452790
H2961	H296	0.162330	0.346410	0.461330
N1491	N149	0.687360	0.380490	0.757310
N1501	N150	0.776290	0.456630	0.748650
C4451	C445	0.714290	0.381280	0.741030
C4461	C446	0.736230	0.404580	0.744330
C4471	C447	0.730180	0.428390	0.765470
C4481	C448	0.702450	0.427930	0.782430
C4491	C449	0.681530	0.403700	0.777410
C4501	C450	0.753050	0.454150	0.769400
H2971	H297	0.718350	0.364900	0.726510
H2981	H298	0.755050	0.404350	0.732430
H2991	H299	0.697920	0.443950	0.797210
H3001	H300	0.662330	0.403590	0.788670
N1511	N151	0.062640	0.869510	0.257310
N1521	N152	0.973710	0.793370	0.248650
C4511	C451	0.035710	0.868720	0.241030
C4521	C452	0.013770	0.845420	0.244330
C4531	C453	0.019820	0.821610	0.265470
C4541	C454	0.047550	0.822070	0.282430
C4551	C455	0.068470	0.846300	0.277410
C4561	C456	0.996950	0.795850	0.269400
H3011	H301	0.031650	0.885100	0.226510
H3021	H302	0.994950	0.845650	0.232430
H3031	H303	0.052080	0.806050	0.297210
H3041	H304	0.087670	0.846410	0.288670
N1531	N153	0.492690	0.062640	0.880490
N1541	N154	0.501350	0.973710	0.956630
C4571	C457	0.508970	0.035710	0.881280
C4581	C458	0.505670	0.013770	0.904580
C4591	C459	0.484530	0.019820	0.928390
C4601	C460	0.467570	0.047550	0.927930
C4611	C461	0.472590	0.068470	0.903700
C4621	C462	0.480600	0.996950	0.954150
H3051	H305	0.523490	0.031650	0.864900
H3061	H306	0.517570	0.994950	0.904350
H3071	H307	0.452790	0.052080	0.943950
H3081	H308	0.461330	0.087670	0.903590
N1551	N155	0.992690	0.687360	0.369510
N1561	N156	0.001350	0.776290	0.293370
C4631	C463	0.008970	0.714290	0.368720
C4641	C464	0.005670	0.736230	0.345420
C4651	C465	0.984530	0.730180	0.321610
C4661	C466	0.967570	0.702450	0.322070
C4671	C467	0.972590	0.681530	0.346300
C4681	C468	0.980600	0.753050	0.295850
H3091	H309	0.023490	0.718350	0.385100
H3101	H310	0.017570	0.755050	0.345650
H3111	H311	0.952790	0.697920	0.306050
H3121	H312	0.961330	0.662330	0.346410
N1571	N157	0.257310	0.187360	0.380490
N1581	N158	0.248650	0.276290	0.456630
C4691	C469	0.241030	0.214290	0.381280
C4701	C470	0.244330	0.236230	0.404580
C4711	C471	0.265470	0.230180	0.428390
C4721	C472	0.282430	0.202450	0.427930
C4731	C473	0.277410	0.181530	0.403700
C4741	C474	0.269400	0.253050	0.454150
H3131	H313	0.226510	0.218350	0.364900
H3141	H314	0.232430	0.255050	0.404350
H3151	H315	0.297210	0.197920	0.443950
H3161	H316	0.288670	0.162330	0.403590
N1591	N159	0.757310	0.562640	0.869510
N1601	N160	0.748650	0.473710	0.793370
C4751	C475	0.741030	0.535710	0.868720
C4761	C476	0.744330	0.513770	0.845420
C4771	C477	0.765470	0.519820	0.821610
C4781	C478	0.782430	0.547550	0.822070
C4791	C479	0.777410	0.568470	0.846300
C4801	C480	0.769400	0.496950	0.795850
H3171	H317	0.726510	0.531650	0.885100
H3181	H318	0.732430	0.494950	0.845650
H3191	H319	0.797210	0.552080	0.806050
H3201	H320	0.788670	0.587670	0.846410
N1611	N161	0.380490	0.992690	0.062640
N1621	N162	0.456630	0.001350	0.973710
C4811	C481	0.381280	0.008970	0.035710
C4821	C482	0.404580	0.005670	0.013770
C4831	C483	0.428390	0.984530	0.019820
C4841	C484	0.427930	0.967570	0.047550
C4851	C485	0.403700	0.972590	0.068470
C4861	C486	0.454150	0.980600	0.996950
H3211	H321	0.364900	0.023490	0.031650
H3221	H322	0.404350	0.017570	0.994950
H3231	H323	0.443950	0.952790	0.052080
H3241	H324	0.403590	0.961330	0.087670
N1631	N163	0.869510	0.492690	0.687360
N1641	N164	0.793370	0.501350	0.776290
C4871	C487	0.868720	0.508970	0.714290
C4881	C488	0.845420	0.505670	0.736230
C4891	C489	0.821610	0.484530	0.730180
C4901	C490	0.822070	0.467570	0.702450
C4911	C491	0.846300	0.472590	0.681530
C4921	C492	0.795850	0.480600	0.753050
H3251	H325	0.885100	0.523490	0.718350
H3261	H326	0.845650	0.517570	0.755050
H3271	H327	0.806050	0.452790	0.697920
H3281	H328	0.846410	0.461330	0.662330
N1651	N165	0.880490	0.757310	0.187360
N1661	N166	0.956630	0.748650	0.276290
C4931	C493	0.881280	0.741030	0.214290
C4941	C494	0.904580	0.744330	0.236230
C4951	C495	0.928390	0.765470	0.230180
C4961	C496	0.927930	0.782430	0.202450
C4971	C497	0.903700	0.777410	0.181530
C4981	C498	0.954150	0.769400	0.253050
H3291	H329	0.864900	0.726510	0.218350
H3301	H330	0.904350	0.732430	0.255050
H3311	H331	0.943950	0.797210	0.197920
H3321	H332	0.903590	0.788670	0.162330
N1671	N167	0.369510	0.257310	0.562640
N1681	N168	0.293370	0.248650	0.473710
C4991	C499	0.368720	0.241030	0.535710
C5001	C500	0.345420	0.244330	0.513770
C5011	C501	0.321610	0.265470	0.519820
C5021	C502	0.322070	0.282430	0.547550
C5031	C503	0.346300	0.277410	0.568470
C5041	C504	0.295850	0.269400	0.496950
H3331	H333	0.385100	0.226510	0.531650
H3341	H334	0.345650	0.232430	0.494950
H3351	H335	0.306050	0.297210	0.552080
H3361	H336	0.346410	0.288670	0.587670
N1691	N169	0.630490	0.812640	0.007310
N1701	N170	0.706630	0.723710	0.998650
C5051	C505	0.631280	0.785710	0.991030
C5061	C506	0.654580	0.763770	0.994330
C5071	C507	0.678390	0.769820	0.015470
C5081	C508	0.677930	0.797550	0.032430
C5091	C509	0.653700	0.818470	0.027410
C5101	C510	0.704150	0.746950	0.019400
H3371	H337	0.614900	0.781650	0.976510
H3381	H338	0.654350	0.744950	0.982430
H3391	H339	0.693950	0.802080	0.047210
H3401	H340	0.653590	0.837670	0.038670
N1711	N171	0.119510	0.437360	0.507310
N1721	N172	0.043370	0.526290	0.498650
C5111	C511	0.118720	0.464290	0.491030
C5121	C512	0.095420	0.486230	0.494330
C5131	C513	0.071610	0.480180	0.515470
C5141	C514	0.072070	0.452450	0.532430
C5151	C515	0.096300	0.431530	0.527410
C5161	C516	0.045850	0.503050	0.519400
H3411	H341	0.135100	0.468350	0.476510
H3421	H342	0.095650	0.505050	0.482430
H3431	H343	0.056050	0.447920	0.547210
H3441	H344	0.096410	0.412330	0.538670
N1731	N173	0.130490	0.937360	0.242690
N1741	N174	0.206630	0.026290	0.251350
C5171	C517	0.131280	0.964290	0.258970
C5181	C518	0.154580	0.986230	0.255670
C5191	C519	0.178390	0.980180	0.234530
C5201	C520	0.177930	0.952450	0.217570
C5211	C521	0.153700	0.931530	0.222590
C5221	C522	0.204150	0.003050	0.230600
H3451	H345	0.114900	0.968350	0.273490
H3461	H346	0.154350	0.005050	0.267570
H3471	H347	0.193950	0.947920	0.202790
H3481	H348	0.153590	0.912330	0.211330
N1751	N175	0.619510	0.312640	0.742690
N1761	N176	0.543370	0.223710	0.751350
C5231	C523	0.618720	0.285710	0.758970
C5241	C524	0.595420	0.263770	0.755670
C5251	C525	0.571610	0.269820	0.734530
C5261	C526	0.572070	0.297550	0.717570
C5271	C527	0.596300	0.318470	0.722590
C5281	C528	0.545850	0.246950	0.730600
H3491	H349	0.635100	0.281650	0.773490
H3501	H350	0.595650	0.244950	0.767570
H3511	H351	0.556050	0.302080	0.702790
H3521	H352	0.596410	0.337670	0.711330
N1771	N177	0.812640	0.742690	0.119510
N1781	N178	0.723710	0.751350	0.043370
C5291	C529	0.785710	0.758970	0.118720
C5301	C530	0.763770	0.755670	0.095420
C5311	C531	0.769820	0.734530	0.071610
C5321	C532	0.797550	0.717570	0.072070
C5331	C533	0.818470	0.722590	0.096300
C5341	C534	0.746950	0.730600	0.045850
H3531	H353	0.781650	0.773490	0.135100
H3541	H354	0.744950	0.767570	0.095650
H3551	H355	0.802080	0.702790	0.056050
H3561	H356	0.837670	0.711330	0.096410
N1791	N179	0.437360	0.242690	0.630490
N1801	N180	0.526290	0.251350	0.706630
C5351	C535	0.464290	0.258970	0.631280
C5361	C536	0.486230	0.255670	0.654580
C5371	C537	0.480180	0.234530	0.678390
C5381	C538	0.452450	0.217570	0.677930
C5391	C539	0.431530	0.222590	0.653700
C5401	C540	0.503050	0.230600	0.704150
H3571	H357	0.468350	0.273490	0.614900
H3581	H358	0.505050	0.267570	0.654350
H3591	H359	0.447920	0.202790	0.693950
H3601	H360	0.412330	0.211330	0.653590
N1811	N181	0.937360	0.507310	0.619510
N1821	N182	0.026290	0.498650	0.543370
C5411	C541	0.964290	0.491030	0.618720
C5421	C542	0.986230	0.494330	0.595420
C5431	C543	0.980180	0.515470	0.571610
C5441	C544	0.952450	0.532430	0.572070
C5451	C545	0.931530	0.527410	0.596300
C5461	C546	0.003050	0.519400	0.545850
H3611	H361	0.968350	0.476510	0.635100
H3621	H362	0.005050	0.482430	0.595650
H3631	H363	0.947920	0.547210	0.556050
H3641	H364	0.912330	0.538670	0.596410
N1831	N183	0.312640	0.007310	0.130490
N1841	N184	0.223710	0.998650	0.206630
C5471	C547	0.285710	0.991030	0.131280
C5481	C548	0.263770	0.994330	0.154580
C5491	C549	0.269820	0.015470	0.178390
C5501	C550	0.297550	0.032430	0.177930
C5511	C551	0.318470	0.027410	0.153700
C5521	C552	0.246950	0.019400	0.204150
H3651	H365	0.281650	0.976510	0.114900
H3661	H366	0.244950	0.982430	0.154350
H3671	H367	0.302080	0.047210	0.193950
H3681	H368	0.337670	0.038670	0.153590
N1851	N185	0.742690	0.630490	0.937360
N1861	N186	0.751350	0.706630	0.026290
C5531	C553	0.758970	0.631280	0.964290
C5541	C554	0.755670	0.654580	0.986230
C5551	C555	0.734530	0.678390	0.980180
C5561	C556	0.717570	0.677930	0.952450
C5571	C557	0.722590	0.653700	0.931530
C5581	C558	0.730600	0.704150	0.003050
H3691	H369	0.773490	0.614900	0.968350
H3701	H370	0.767570	0.654350	0.005050
H3711	H371	0.702790	0.693950	0.947920
H3721	H372	0.711330	0.653590	0.912330
N1871	N187	0.242690	0.119510	0.312640
N1881	N188	0.251350	0.043370	0.223710
C5591	C559	0.258970	0.118720	0.285710
C5601	C560	0.255670	0.095420	0.263770
C5611	C561	0.234530	0.071610	0.269820
C5621	C562	0.217570	0.072070	0.297550
C5631	C563	0.222590	0.096300	0.318470
C5641	C564	0.230600	0.045850	0.246950
H3731	H373	0.273490	0.135100	0.281650
H3741	H374	0.267570	0.095650	0.244950
H3751	H375	0.202790	0.056050	0.302080
H3761	H376	0.211330	0.096410	0.337670
N1891	N189	0.507310	0.130490	0.812640
N1901	N190	0.498650	0.206630	0.723710
C5651	C565	0.491030	0.131280	0.785710
C5661	C566	0.494330	0.154580	0.763770
C5671	C567	0.515470	0.178390	0.769820
C5681	C568	0.532430	0.177930	0.797550
C5691	C569	0.527410	0.153700	0.818470
C5701	C570	0.519400	0.204150	0.746950
H3771	H377	0.476510	0.114900	0.781650
H3781	H378	0.482430	0.154350	0.744950
H3791	H379	0.547210	0.193950	0.802080
H3801	H380	0.538670	0.153590	0.837670
N1911	N191	0.007310	0.619510	0.437360
N1921	N192	0.998650	0.543370	0.526290
C5711	C571	0.991030	0.618720	0.464290
C5721	C572	0.994330	0.595420	0.486230
C5731	C573	0.015470	0.571610	0.480180
C5741	C574	0.032430	0.572070	0.452450
C5751	C575	0.027410	0.596300	0.431530
C5761	C576	0.019400	0.545850	0.503050
H3811	H381	0.976510	0.635100	0.468350
H3821	H382	0.982430	0.595650	0.505050
H3831	H383	0.047210	0.556050	0.447920
H3841	H384	0.038670	0.596410	0.412330
Zn371	Zn37	0.594560	0.844560	0.000000
Zn381	Zn38	0.155440	0.405440	0.500000
Zn391	Zn39	0.655440	0.344560	0.750000
Zn401	Zn40	0.094560	0.905440	0.250000
Zn411	Zn41	0.500000	0.094560	0.844560
Zn421	Zn42	0.000000	0.655440	0.405440
Zn431	Zn43	0.250000	0.155440	0.344560
Zn441	Zn44	0.750000	0.594560	0.905440
Zn451	Zn45	0.344560	0.000000	0.094560
Zn461	Zn46	0.905440	0.500000	0.655440
Zn471	Zn47	0.844560	0.750000	0.155440
Zn481	Zn48	0.405440	0.250000	0.594560
N1931	N193	0.937360	0.619510	0.007310
N1941	N194	0.026290	0.543370	0.998650
C5771	C577	0.964290	0.618720	0.991030
C5781	C578	0.986230	0.595420	0.994330
C5791	C579	0.980180	0.571610	0.015470
C5801	C580	0.952450	0.572070	0.032430
C5811	C581	0.931530	0.596300	0.027410
C5821	C582	0.003050	0.545850	0.019400
H3851	H385	0.968350	0.635100	0.976510
H3861	H386	0.005050	0.595650	0.982430
H3871	H387	0.947920	0.556050	0.047210
H3881	H388	0.912330	0.596410	0.038670
N1951	N195	0.312640	0.130490	0.507310
N1961	N196	0.223710	0.206630	0.498650
C5831	C583	0.285710	0.131280	0.491030
C5841	C584	0.263770	0.154580	0.494330
C5851	C585	0.269820	0.178390	0.515470
C5861	C586	0.297550	0.177930	0.532430
C5871	C587	0.318470	0.153700	0.527410
C5881	C588	0.246950	0.204150	0.519400
H3891	H389	0.281650	0.114900	0.476510
H3901	H390	0.244950	0.154350	0.482430
H3911	H391	0.302080	0.193950	0.547210
H3921	H392	0.337670	0.153590	0.538670
N1971	N197	0.812640	0.119510	0.242690
N1981	N198	0.723710	0.043370	0.251350
C5891	C589	0.785710	0.118720	0.258970
C5901	C590	0.763770	0.095420	0.255670
C5911	C591	0.769820	0.071610	0.234530
C5921	C592	0.797550	0.072070	0.217570
C5931	C593	0.818470	0.096300	0.222590
C5941	C594	0.746950	0.045850	0.230600
H3931	H393	0.781650	0.135100	0.273490
H3941	H394	0.744950	0.095650	0.267570
H3951	H395	0.802080	0.056050	0.202790
H3961	H396	0.837670	0.096410	0.211330
N1991	N199	0.437360	0.630490	0.742690
N2001	N200	0.526290	0.706630	0.751350
C5951	C595	0.464290	0.631280	0.758970
C5961	C596	0.486230	0.654580	0.755670
C5971	C597	0.480180	0.678390	0.734530
C5981	C598	0.452450	0.677930	0.717570
C5991	C599	0.431530	0.653700	0.722590
C6001	C600	0.503050	0.704150	0.730600
H3971	H397	0.468350	0.614900	0.773490
H3981	H398	0.505050	0.654350	0.767570
H3991	H399	0.447920	0.693950	0.702790
H4001	H400	0.412330	0.653590	0.711330
N2011	N201	0.007310	0.437360	0.119510
N2021	N202	0.998650	0.526290	0.043370
C6011	C601	0.991030	0.464290	0.118720
C6021	C602	0.994330	0.486230	0.095420
C6031	C603	0.015470	0.480180	0.071610
C6041	C604	0.032430	0.452450	0.072070
C6051	C605	0.027410	0.431530	0.096300
C6061	C606	0.019400	0.503050	0.045850
H4011	H401	0.976510	0.468350	0.135100
H4021	H402	0.982430	0.505050	0.095650
H4031	H403	0.047210	0.447920	0.056050
H4041	H404	0.038670	0.412330	0.096410
N2031	N203	0.507310	0.812640	0.630490
N2041	N204	0.498650	0.723710	0.706630
C6071	C607	0.491030	0.785710	0.631280
C6081	C608	0.494330	0.763770	0.654580
C6091	C609	0.515470	0.769820	0.678390
C6101	C610	0.532430	0.797550	0.677930
C6111	C611	0.527410	0.818470	0.653700
C6121	C612	0.519400	0.746950	0.704150
H4051	H405	0.476510	0.781650	0.614900
H4061	H406	0.482430	0.744950	0.654350
H4071	H407	0.547210	0.802080	0.693950
H4081	H408	0.538670	0.837670	0.653590
N2051	N205	0.242690	0.312640	0.619510
N2061	N206	0.251350	0.223710	0.543370
C6131	C613	0.258970	0.285710	0.618720
C6141	C614	0.255670	0.263770	0.595420
C6151	C615	0.234530	0.269820	0.571610
C6161	C616	0.217570	0.297550	0.572070
C6171	C617	0.222590	0.318470	0.596300
C6181	C618	0.230600	0.246950	0.545850
H4091	H409	0.273490	0.281650	0.635100
H4101	H410	0.267570	0.244950	0.595650
H4111	H411	0.202790	0.302080	0.556050
H4121	H412	0.211330	0.337670	0.596410
N2071	N207	0.742690	0.937360	0.130490
N2081	N208	0.751350	0.026290	0.206630
C6191	C619	0.758970	0.964290	0.131280
C6201	C620	0.755670	0.986230	0.154580
C6211	C621	0.734530	0.980180	0.178390
C6221	C622	0.717570	0.952450	0.177930
C6231	C623	0.722590	0.931530	0.153700
C6241	C624	0.730600	0.003050	0.204150
H4131	H413	0.773490	0.968350	0.114900
H4141	H414	0.767570	0.005050	0.154350
H4151	H415	0.702790	0.947920	0.193950
H4161	H416	0.711330	0.912330	0.153590
N2091	N209	0.119510	0.507310	0.937360
N2101	N210	0.043370	0.498650	0.026290
C6251	C625	0.118720	0.491030	0.964290
C6261	C626	0.095420	0.494330	0.986230
C6271	C627	0.071610	0.515470	0.980180
C6281	C628	0.072070	0.532430	0.952450
C6291	C629	0.096300	0.527410	0.931530
C6301	C630	0.045850	0.519400	0.003050
H4171	H417	0.135100	0.476510	0.968350
H4181	H418	0.095650	0.482430	0.005050
H4191	H419	0.056050	0.547210	0.947920
H4201	H420	0.096410	0.538670	0.912330
N2111	N211	0.630490	0.007310	0.312640
N2121	N212	0.706630	0.998650	0.223710
C6311	C631	0.631280	0.991030	0.285710
C6321	C632	0.654580	0.994330	0.263770
C6331	C633	0.678390	0.015470	0.269820
C6341	C634	0.677930	0.032430	0.297550
C6351	C635	0.653700	0.027410	0.318470
C6361	C636	0.704150	0.019400	0.246950
H4211	H421	0.614900	0.976510	0.281650
H4221	H422	0.654350	0.982430	0.244950
H4231	H423	0.693950	0.047210	0.302080
H4241	H424	0.653590	0.038670	0.337670
N2131	N213	0.619510	0.742690	0.812640
N2141	N214	0.543370	0.751350	0.723710
C6371	C637	0.618720	0.758970	0.785710
C6381	C638	0.595420	0.755670	0.763770
C6391	C639	0.571610	0.734530	0.769820
C6401	C640	0.572070	0.717570	0.797550
C6411	C641	0.596300	0.722590	0.818470
C6421	C642	0.545850	0.730600	0.746950
H4251	H425	0.635100	0.773490	0.781650
H4261	H426	0.595650	0.767570	0.744950
H4271	H427	0.556050	0.702790	0.802080
H4281	H428	0.596410	0.711330	0.837670
N2151	N215	0.130490	0.242690	0.437360
N2161	N216	0.206630	0.251350	0.526290
C6431	C643	0.131280	0.258970	0.464290
C6441	C644	0.154580	0.255670	0.486230
C6451	C645	0.178390	0.234530	0.480180
C6461	C646	0.177930	0.217570	0.452450
C6471	C647	0.153700	0.222590	0.431530
C6481	C648	0.204150	0.230600	0.503050
H4291	H429	0.114900	0.273490	0.468350
H4301	H430	0.154350	0.267570	0.505050
H4311	H431	0.193950	0.202790	0.447920
H4321	H432	0.153590	0.211330	0.412330
N2171	N217	0.869510	0.687360	0.992690
N2181	N218	0.793370	0.776290	0.001350
C6491	C649	0.868720	0.714290	0.008970
C6501	C650	0.845420	0.736230	0.005670
C6511	C651	0.821610	0.730180	0.984530
C6521	C652	0.822070	0.702450	0.967570
C6531	C653	0.846300	0.681530	0.972590
C6541	C654	0.795850	0.753050	0.980600
H4331	H433	0.885100	0.718350	0.023490
H4341	H434	0.845650	0.755050	0.017570
H4351	H435	0.806050	0.697920	0.952790
H4361	H436	0.846410	0.662330	0.961330
N2191	N219	0.380490	0.062640	0.492690
N2201	N220	0.456630	0.973710	0.501350
C6551	C655	0.381280	0.035710	0.508970
C6561	C656	0.404580	0.013770	0.505670
C6571	C657	0.428390	0.019820	0.484530
C6581	C658	0.427930	0.047550	0.467570
C6591	C659	0.403700	0.068470	0.472590
C6601	C660	0.454150	0.996950	0.480600
H4371	H437	0.364900	0.031650	0.523490
H4381	H438	0.404350	0.994950	0.517570
H4391	H439	0.443950	0.052080	0.452790
H4401	H440	0.403590	0.087670	0.461330
N2211	N221	0.369510	0.562640	0.757310
N2221	N222	0.293370	0.473710	0.748650
C6611	C661	0.368720	0.535710	0.741030
C6621	C662	0.345420	0.513770	0.744330
C6631	C663	0.321610	0.519820	0.765470
C6641	C664	0.322070	0.547550	0.782430
C6651	C665	0.346300	0.568470	0.777410
C6661	C666	0.295850	0.496950	0.769400
H4411	H441	0.385100	0.531650	0.726510
H4421	H442	0.345650	0.494950	0.732430
H4431	H443	0.306050	0.552080	0.797210
H4441	H444	0.346410	0.587670	0.788670
N2231	N223	0.880490	0.187360	0.257310
N2241	N224	0.956630	0.276290	0.248650
C6671	C667	0.881280	0.214290	0.241030
C6681	C668	0.904580	0.236230	0.244330
C6691	C669	0.928390	0.230180	0.265470
C6701	C670	0.927930	0.202450	0.282430
C6711	C671	0.903700	0.181530	0.277410
C6721	C672	0.954150	0.253050	0.269400
H4451	H445	0.864900	0.218350	0.226510
H4461	H446	0.904350	0.255050	0.232430
H4471	H447	0.943950	0.197920	0.297210
H4481	H448	0.903590	0.162330	0.288670
N2251	N225	0.687360	0.757310	0.880490
N2261	N226	0.776290	0.748650	0.956630
C6731	C673	0.714290	0.741030	0.881280
C6741	C674	0.736230	0.744330	0.904580
C6751	C675	0.730180	0.765470	0.928390
C6761	C676	0.702450	0.782430	0.927930
C6771	C677	0.681530	0.777410	0.903700
C6781	C678	0.753050	0.769400	0.954150
H4491	H449	0.718350	0.726510	0.864900
H4501	H450	0.755050	0.732430	0.904350
H4511	H451	0.697920	0.797210	0.943950
H4521	H452	0.662330	0.788670	0.903590
N2271	N227	0.062640	0.257310	0.369510
N2281	N228	0.973710	0.248650	0.293370
C6791	C679	0.035710	0.241030	0.368720
C6801	C680	0.013770	0.244330	0.345420
C6811	C681	0.019820	0.265470	0.321610
C6821	C682	0.047550	0.282430	0.322070
C6831	C683	0.068470	0.277410	0.346300
C6841	C684	0.996950	0.269400	0.295850
H4531	H453	0.031650	0.226510	0.385100
H4541	H454	0.994950	0.232430	0.345650
H4551	H455	0.052080	0.297210	0.306050
H4561	H456	0.087670	0.288670	0.346410
N2291	N229	0.562640	0.992690	0.380490
N2301	N230	0.473710	0.001350	0.456630
C6851	C685	0.535710	0.008970	0.381280
C6861	C686	0.513770	0.005670	0.404580
C6871	C687	0.519820	0.984530	0.428390
C6881	C688	0.547550	0.967570	0.427930
C6891	C689	0.568470	0.972590	0.403700
C6901	C690	0.496950	0.980600	0.454150
H4571	H457	0.531650	0.023490	0.364900
H4581	H458	0.494950	0.017570	0.404350
H4591	H459	0.552080	0.952790	0.443950
H4601	H460	0.587670	0.961330	0.403590
N2311	N231	0.187360	0.492690	0.869510
N2321	N232	0.276290	0.501350	0.793370
C6911	C691	0.214290	0.508970	0.868720
C6921	C692	0.236230	0.505670	0.845420
C6931	C693	0.230180	0.484530	0.821610
C6941	C694	0.202450	0.467570	0.822070
C6951	C695	0.181530	0.472590	0.846300
C6961	C696	0.253050	0.480600	0.795850
H4611	H461	0.218350	0.523490	0.885100
H4621	H462	0.255050	0.517570	0.845650
H4631	H463	0.197920	0.452790	0.806050
H4641	H464	0.162330	0.461330	0.846410
N2331	N233	0.757310	0.869510	0.062640
N2341	N234	0.748650	0.793370	0.973710
C6971	C697	0.741030	0.868720	0.035710
C6981	C698	0.744330	0.845420	0.013770
C6991	C699	0.765470	0.821610	0.019820
C7001	C700	0.782430	0.822070	0.047550
C7011	C701	0.777410	0.846300	0.068470
C7021	C702	0.769400	0.795850	0.996950
H4651	H465	0.726510	0.885100	0.031650
H4661	H466	0.732430	0.845650	0.994950
H4671	H467	0.797210	0.806050	0.052080
H4681	H468	0.788670	0.846410	0.087670
N2351	N235	0.257310	0.380490	0.687360
N2361	N236	0.248650	0.456630	0.776290
C7031	C703	0.241030	0.381280	0.714290
C7041	C704	0.244330	0.404580	0.736230
C7051	C705	0.265470	0.428390	0.730180
C7061	C706	0.282430	0.427930	0.702450
C7071	C707	0.277410	0.403700	0.681530
C7081	C708	0.269400	0.454150	0.753050
H4691	H469	0.226510	0.364900	0.718350
H4701	H470	0.232430	0.404350	0.755050
H4711	H471	0.297210	0.443950	0.697920
H4721	H472	0.288670	0.403590	0.662330
N2371	N237	0.992690	0.369510	0.187360
N2381	N238	0.001350	0.293370	0.276290
C7091	C709	0.008970	0.368720	0.214290
C7101	C710	0.005670	0.345420	0.236230
C7111	C711	0.984530	0.321610	0.230180
C7121	C712	0.967570	0.322070	0.202450
C7131	C713	0.972590	0.346300	0.181530
C7141	C714	0.980600	0.295850	0.253050
H4731	H473	0.023490	0.385100	0.218350
H4741	H474	0.017570	0.345650	0.255050
H4751	H475	0.952790	0.306050	0.197920
H4761	H476	0.961330	0.346410	0.162330
N2391	N239	0.492690	0.880490	0.562640
N2401	N240	0.501350	0.956630	0.473710
C7151	C715	0.508970	0.881280	0.535710
C7161	C716	0.505670	0.904580	0.513770
C7171	C717	0.484530	0.928390	0.519820
C7181	C718	0.467570	0.927930	0.547550
C7191	C719	0.472590	0.903700	0.568470
C7201	C720	0.480600	0.954150	0.496950
H4771	H477	0.523490	0.864900	0.531650
H4781	H478	0.517570	0.904350	0.494950
H4791	H479	0.452790	0.943950	0.552080
H4801	H480	0.461330	0.903590	0.587670
Zn491	Zn49	0.905440	0.655440	0.000000
Zn501	Zn50	0.344560	0.094560	0.500000
Zn511	Zn51	0.844560	0.155440	0.250000
Zn521	Zn52	0.405440	0.594560	0.750000
Zn531	Zn53	0.000000	0.405440	0.155440
Zn541	Zn54	0.500000	0.844560	0.594560
Zn551	Zn55	0.250000	0.344560	0.655440
Zn561	Zn56	0.750000	0.905440	0.094560
Zn571	Zn57	0.155440	0.500000	0.905440
Zn581	Zn58	0.594560	0.000000	0.344560
Zn591	Zn59	0.655440	0.750000	0.844560
Zn601	Zn60	0.094560	0.250000	0.405440
N2411	N241	0.937360	0.119510	0.507310
N2421	N242	0.026290	0.043370	0.498650
C7211	C721	0.964290	0.118720	0.491030
C7221	C722	0.986230	0.095420	0.494330
C7231	C723	0.980180	0.071610	0.515470
C7241	C724	0.952450	0.072070	0.532430
C7251	C725	0.931530	0.096300	0.527410
C7261	C726	0.003050	0.045850	0.519400
H4811	H481	0.968350	0.135100	0.476510
H4821	H482	0.005050	0.095650	0.482430
H4831	H483	0.947920	0.056050	0.547210
H4841	H484	0.912330	0.096410	0.538670
N2431	N243	0.312640	0.630490	0.007310
N2441	N244	0.223710	0.706630	0.998650
C7271	C727	0.285710	0.631280	0.991030
C7281	C728	0.263770	0.654580	0.994330
C7291	C729	0.269820	0.678390	0.015470
C7301	C730	0.297550	0.677930	0.032430
C7311	C731	0.318470	0.653700	0.027410
C7321	C732	0.246950	0.704150	0.019400
H4851	H485	0.281650	0.614900	0.976510
H4861	H486	0.244950	0.654350	0.982430
H4871	H487	0.302080	0.693950	0.047210
H4881	H488	0.337670	0.653590	0.038670
N2451	N245	0.812640	0.619510	0.742690
N2461	N246	0.723710	0.543370	0.751350
C7331	C733	0.785710	0.618720	0.758970
C7341	C734	0.763770	0.595420	0.755670
C7351	C735	0.769820	0.571610	0.734530
C7361	C736	0.797550	0.572070	0.717570
C7371	C737	0.818470	0.596300	0.722590
C7381	C738	0.746950	0.545850	0.730600
H4891	H489	0.781650	0.635100	0.773490
H4901	H490	0.744950	0.595650	0.767570
H4911	H491	0.802080	0.556050	0.702790
H4921	H492	0.837670	0.596410	0.711330
N2471	N247	0.437360	0.130490	0.242690
N2481	N248	0.526290	0.206630	0.251350
C7391	C739	0.464290	0.131280	0.258970
C7401	C740	0.486230	0.154580	0.255670
C7411	C741	0.480180	0.178390	0.234530
C7421	C742	0.452450	0.177930	0.217570
C7431	C743	0.431530	0.153700	0.222590
C7441	C744	0.503050	0.204150	0.230600
H4931	H493	0.468350	0.114900	0.273490
H4941	H494	0.505050	0.154350	0.267570
H4951	H495	0.447920	0.193950	0.202790
H4961	H496	0.412330	0.153590	0.211330
N2491	N249	0.007310	0.937360	0.619510
N2501	N250	0.998650	0.026290	0.543370
C7451	C745	0.991030	0.964290	0.618720
C7461	C746	0.994330	0.986230	0.595420
C7471	C747	0.015470	0.980180	0.571610
C7481	C748	0.032430	0.952450	0.572070
C7491	C749	0.027410	0.931530	0.596300
C7501	C750	0.019400	0.003050	0.545850
H4971	H497	0.976510	0.968350	0.635100
H4981	H498	0.982430	0.005050	0.595650
H4991	H499	0.047210	0.947920	0.556050
H5001	H500	0.038670	0.912330	0.596410
N2511	N251	0.507310	0.312640	0.130490
N2521	N252	0.498650	0.223710	0.206630
C7511	C751	0.491030	0.285710	0.131280
C7521	C752	0.494330	0.263770	0.154580
C7531	C753	0.515470	0.269820	0.178390
C7541	C754	0.532430	0.297550	0.177930
C7551	C755	0.527410	0.318470	0.153700
C7561	C756	0.519400	0.246950	0.204150
H5011	H501	0.476510	0.281650	0.114900
H5021	H502	0.482430	0.244950	0.154350
H5031	H503	0.547210	0.302080	0.193950
H5041	H504	0.538670	0.337670	0.153590
N2531	N253	0.242690	0.812640	0.119510
N2541	N254	0.251350	0.723710	0.043370
C7571	C757	0.258970	0.785710	0.118720
C7581	C758	0.255670	0.763770	0.095420
C7591	C759	0.234530	0.769820	0.071610
C7601	C760	0.217570	0.797550	0.072070
C7611	C761	0.222590	0.818470	0.096300
C7621	C762	0.230600	0.746950	0.045850
H5051	H505	0.273490	0.781650	0.135100
H5061	H506	0.267570	0.744950	0.095650
H5071	H507	0.202790	0.802080	0.056050
H5081	H508	0.211330	0.837670	0.096410
N2551	N255	0.742690	0.437360	0.630490
N2561	N256	0.751350	0.526290	0.706630
C7631	C763	0.758970	0.464290	0.631280
C7641	C764	0.755670	0.486230	0.654580
C7651	C765	0.734530	0.480180	0.678390
C7661	C766	0.717570	0.452450	0.677930
C7671	C767	0.722590	0.431530	0.653700
C7681	C768	0.730600	0.503050	0.704150
H5091	H509	0.773490	0.468350	0.614900
H5101	H510	0.767570	0.505050	0.654350
H5111	H511	0.702790	0.447920	0.693950
H5121	H512	0.711330	0.412330	0.653590
N2571	N257	0.119510	0.007310	0.437360
N2581	N258	0.043370	0.998650	0.526290
C7691	C769	0.118720	0.991030	0.464290
C7701	C770	0.095420	0.994330	0.486230
C7711	C771	0.071610	0.015470	0.480180
C7721	C772	0.072070	0.032430	0.452450
C7731	C773	0.096300	0.027410	0.431530
C7741	C774	0.045850	0.019400	0.503050
H5131	H513	0.135100	0.976510	0.468350
H5141	H514	0.095650	0.982430	0.505050
H5151	H515	0.056050	0.047210	0.447920
H5161	H516	0.096410	0.038670	0.412330
N2591	N259	0.630490	0.507310	0.812640
N2601	N260	0.706630	0.498650	0.723710
C7751	C775	0.631280	0.491030	0.785710
C7761	C776	0.654580	0.494330	0.763770
C7771	C777	0.678390	0.515470	0.769820
C7781	C778	0.677930	0.532430	0.797550
C7791	C779	0.653700	0.527410	0.818470
C7801	C780	0.704150	0.519400	0.746950
H5171	H517	0.614900	0.476510	0.781650
H5181	H518	0.654350	0.482430	0.744950
H5191	H519	0.693950	0.547210	0.802080
H5201	H520	0.653590	0.538670	0.837670
N2611	N261	0.619510	0.242690	0.312640
N2621	N262	0.543370	0.251350	0.223710
C7811	C781	0.618720	0.258970	0.285710
C7821	C782	0.595420	0.255670	0.263770
C7831	C783	0.571610	0.234530	0.269820
C7841	C784	0.572070	0.217570	0.297550
C7851	C785	0.596300	0.222590	0.318470
C7861	C786	0.545850	0.230600	0.246950
H5211	H521	0.635100	0.273490	0.281650
H5221	H522	0.595650	0.267570	0.244950
H5231	H523	0.556050	0.202790	0.302080
H5241	H524	0.596410	0.211330	0.337670
N2631	N263	0.130490	0.742690	0.937360
N2641	N264	0.206630	0.751350	0.026290
C7871	C787	0.131280	0.758970	0.964290
C7881	C788	0.154580	0.755670	0.986230
C7891	C789	0.178390	0.734530	0.980180
C7901	C790	0.177930	0.717570	0.952450
C7911	C791	0.153700	0.722590	0.931530
C7921	C792	0.204150	0.730600	0.003050
H5251	H525	0.114900	0.773490	0.968350
H5261	H526	0.154350	0.767570	0.005050
H5271	H527	0.193950	0.702790	0.947920
H5281	H528	0.153590	0.711330	0.912330
N2651	N265	0.869510	0.187360	0.492690
N2661	N266	0.793370	0.276290	0.501350
C7931	C793	0.868720	0.214290	0.508970
C7941	C794	0.845420	0.236230	0.505670
C7951	C795	0.821610	0.230180	0.484530
C7961	C796	0.822070	0.202450	0.467570
C7971	C797	0.846300	0.181530	0.472590
C7981	C798	0.795850	0.253050	0.480600
H5291	H529	0.885100	0.218350	0.523490
H5301	H530	0.845650	0.255050	0.517570
H5311	H531	0.806050	0.197920	0.452790
H5321	H532	0.846410	0.162330	0.461330
N2671	N267	0.380490	0.562640	0.992690
N2681	N268	0.456630	0.473710	0.001350
C7991	C799	0.381280	0.535710	0.008970
C8001	C800	0.404580	0.513770	0.005670
C8011	C801	0.428390	0.519820	0.984530
C8021	C802	0.427930	0.547550	0.967570
C8031	C803	0.403700	0.568470	0.972590
C8041	C804	0.454150	0.496950	0.980600
H5331	H533	0.364900	0.531650	0.023490
H5341	H534	0.404350	0.494950	0.017570
H5351	H535	0.443950	0.552080	0.952790
H5361	H536	0.403590	0.587670	0.961330
N2691	N269	0.369510	0.062640	0.257310
N2701	N270	0.293370	0.973710	0.248650
C8051	C805	0.368720	0.035710	0.241030
C8061	C806	0.345420	0.013770	0.244330
C8071	C807	0.321610	0.019820	0.265470
C8081	C808	0.322070	0.047550	0.282430
C8091	C809	0.346300	0.068470	0.277410
C8101	C810	0.295850	0.996950	0.269400
H5371	H537	0.385100	0.031650	0.226510
H5381	H538	0.345650	0.994950	0.232430
H5391	H539	0.306050	0.052080	0.297210
H5401	H540	0.346410	0.087670	0.288670
N2711	N271	0.880490	0.687360	0.757310
N2721	N272	0.956630	0.776290	0.748650
C8111	C811	0.881280	0.714290	0.741030
C8121	C812	0.904580	0.736230	0.744330
C8131	C813	0.928390	0.730180	0.765470
C8141	C814	0.927930	0.702450	0.782430
C8151	C815	0.903700	0.681530	0.777410
C8161	C816	0.954150	0.753050	0.769400
H5411	H541	0.864900	0.718350	0.726510
H5421	H542	0.904350	0.755050	0.732430
H5431	H543	0.943950	0.697920	0.797210
H5441	H544	0.903590	0.662330	0.788670
N2731	N273	0.687360	0.257310	0.380490
N2741	N274	0.776290	0.248650	0.456630
C8171	C817	0.714290	0.241030	0.381280
C8181	C818	0.736230	0.244330	0.404580
C8191	C819	0.730180	0.265470	0.428390
C8201	C820	0.702450	0.282430	0.427930
C8211	C821	0.681530	0.277410	0.403700
C8221	C822	0.753050	0.269400	0.454150
H5451	H545	0.718350	0.226510	0.364900
H5461	H546	0.755050	0.232430	0.404350
H5471	H547	0.697920	0.297210	0.443950
H5481	H548	0.662330	0.288670	0.403590
N2751	N275	0.062640	0.757310	0.869510
N2761	N276	0.973710	0.748650	0.793370
C8231	C823	0.035710	0.741030	0.868720
C8241	C824	0.013770	0.744330	0.845420
C8251	C825	0.019820	0.765470	0.821610
C8261	C826	0.047550	0.782430	0.822070
C8271	C827	0.068470	0.777410	0.846300
C8281	C828	0.996950	0.769400	0.795850
H5491	H549	0.031650	0.726510	0.885100
H5501	H550	0.994950	0.732430	0.845650
H5511	H551	0.052080	0.797210	0.806050
H5521	H552	0.087670	0.788670	0.846410
N2771	N277	0.562640	0.492690	0.880490
N2781	N278	0.473710	0.501350	0.956630
C8291	C829	0.535710	0.508970	0.881280
C8301	C830	0.513770	0.505670	0.904580
C8311	C831	0.519820	0.484530	0.928390
C8321	C832	0.547550	0.467570	0.927930
C8331	C833	0.568470	0.472590	0.903700
C8341	C834	0.496950	0.480600	0.954150
H5531	H553	0.531650	0.523490	0.864900
H5541	H554	0.494950	0.517570	0.904350
H5551	H555	0.552080	0.452790	0.943950
H5561	H556	0.587670	0.461330	0.903590
N2791	N279	0.187360	0.992690	0.369510
N2801	N280	0.276290	0.001350	0.293370
C8351	C835	0.214290	0.008970	0.368720
C8361	C836	0.236230	0.005670	0.345420
C8371	C837	0.230180	0.984530	0.321610
C8381	C838	0.202450	0.967570	0.322070
C8391	C839	0.181530	0.972590	0.346300
C8401	C840	0.253050	0.980600	0.295850
H5571	H557	0.218350	0.023490	0.385100
H5581	H558	0.255050	0.017570	0.345650
H5591	H559	0.197920	0.952790	0.306050
H5601	H560	0.162330	0.961330	0.346410
N2811	N281	0.757310	0.369510	0.562640
N2821	N282	0.748650	0.293370	0.473710
C8411	C841	0.741030	0.368720	0.535710
C8421	C842	0.744330	0.345420	0.513770
C8431	C843	0.765470	0.321610	0.519820
C8441	C844	0.782430	0.322070	0.547550
C8451	C845	0.777410	0.346300	0.568470
C8461	C846	0.769400	0.295850	0.496950
H5611	H561	0.726510	0.385100	0.531650
H5621	H562	0.732430	0.345650	0.494950
H5631	H563	0.797210	0.306050	0.552080
H5641	H564	0.788670	0.346410	0.587670
N2831	N283	0.257310	0.880490	0.187360
N2841	N284	0.248650	0.956630	0.276290
C8471	C847	0.241030	0.881280	0.214290
C8481	C848	0.244330	0.904580	0.236230
C8491	C849	0.265470	0.928390	0.230180
C8501	C850	0.282430	0.927930	0.202450
C8511	C851	0.277410	0.903700	0.181530
C8521	C852	0.269400	0.954150	0.253050
H5651	H565	0.226510	0.864900	0.218350
H5661	H566	0.232430	0.904350	0.255050
H5671	H567	0.297210	0.943950	0.197920
H5681	H568	0.288670	0.903590	0.162330
N2851	N285	0.992690	0.869510	0.687360
N2861	N286	0.001350	0.793370	0.776290
C8531	C853	0.008970	0.868720	0.714290
C8541	C854	0.005670	0.845420	0.736230
C8551	C855	0.984530	0.821610	0.730180
C8561	C856	0.967570	0.822070	0.702450
C8571	C857	0.972590	0.846300	0.681530
C8581	C858	0.980600	0.795850	0.753050
H5691	H569	0.023490	0.885100	0.718350
H5701	H570	0.017570	0.845650	0.755050
H5711	H571	0.952790	0.806050	0.697920
H5721	H572	0.961330	0.846410	0.662330
N2871	N287	0.492690	0.380490	0.062640
N2881	N288	0.501350	0.456630	0.973710
C8591	C859	0.508970	0.381280	0.035710
C8601	C860	0.505670	0.404580	0.013770
C8611	C861	0.484530	0.428390	0.019820
C8621	C862	0.467570	0.427930	0.047550
C8631	C863	0.472590	0.403700	0.068470
C8641	C864	0.480600	0.454150	0.996950
H5731	H573	0.523490	0.364900	0.031650
H5741	H574	0.517570	0.404350	0.994950
H5751	H575	0.452790	0.443950	0.052080
H5761	H576	0.461330	0.403590	0.087670
Zn611	Zn61	0.905440	0.155440	0.500000
Zn621	Zn62	0.344560	0.594560	0.000000
Zn631	Zn63	0.844560	0.655440	0.750000
Zn641	Zn64	0.405440	0.094560	0.250000
Zn651	Zn65	0.000000	0.905440	0.655440
Zn661	Zn66	0.500000	0.344560	0.094560
Zn671	Zn67	0.250000	0.844560	0.155440
Zn681	Zn68	0.750000	0.405440	0.594560
Zn691	Zn69	0.155440	0.000000	0.405440
Zn701	Zn70	0.594560	0.500000	0.844560
Zn711	Zn71	0.655440	0.250000	0.344560
Zn721	Zn72	0.094560	0.750000	0.905440
N2891	N289	0.437360	0.619510	0.507310
N2901	N290	0.526290	0.543370	0.498650
C8651	C865	0.464290	0.618720	0.491030
C8661	C866	0.486230	0.595420	0.494330
C8671	C867	0.480180	0.571610	0.515470
C8681	C868	0.452450	0.572070	0.532430
C8691	C869	0.431530	0.596300	0.527410
C8701	C870	0.503050	0.545850	0.519400
H5771	H577	0.468350	0.635100	0.476510
H5781	H578	0.505050	0.595650	0.482430
H5791	H579	0.447920	0.556050	0.547210
H5801	H580	0.412330	0.596410	0.538670
N2911	N291	0.812640	0.130490	0.007310
N2921	N292	0.723710	0.206630	0.998650
C8711	C871	0.785710	0.131280	0.991030
C8721	C872	0.763770	0.154580	0.994330
C8731	C873	0.769820	0.178390	0.015470
C8741	C874	0.797550	0.177930	0.032430
C8751	C875	0.818470	0.153700	0.027410
C8761	C876	0.746950	0.204150	0.019400
H5811	H581	0.781650	0.114900	0.976510
H5821	H582	0.744950	0.154350	0.982430
H5831	H583	0.802080	0.193950	0.047210
H5841	H584	0.837670	0.153590	0.038670
N2931	N293	0.312640	0.119510	0.742690
N2941	N294	0.223710	0.043370	0.751350
C8771	C877	0.285710	0.118720	0.758970
C8781	C878	0.263770	0.095420	0.755670
C8791	C879	0.269820	0.071610	0.734530
C8801	C880	0.297550	0.072070	0.717570
C8811	C881	0.318470	0.096300	0.722590
C8821	C882	0.246950	0.045850	0.730600
H5851	H585	0.281650	0.135100	0.773490
H5861	H586	0.244950	0.095650	0.767570
H5871	H587	0.302080	0.056050	0.702790
H5881	H588	0.337670	0.096410	0.711330
N2951	N295	0.937360	0.630490	0.242690
N2961	N296	0.026290	0.706630	0.251350
C8831	C883	0.964290	0.631280	0.258970
C8841	C884	0.986230	0.654580	0.255670
C8851	C885	0.980180	0.678390	0.234530
C8861	C886	0.952450	0.677930	0.217570
C8871	C887	0.931530	0.653700	0.222590
C8881	C888	0.003050	0.704150	0.230600
H5891	H589	0.968350	0.614900	0.273490
H5901	H590	0.005050	0.654350	0.267570
H5911	H591	0.947920	0.693950	0.202790
H5921	H592	0.912330	0.653590	0.211330
N2971	N297	0.507310	0.437360	0.619510
N2981	N298	0.498650	0.526290	0.543370
C8891	C889	0.491030	0.464290	0.618720
C8901	C890	0.494330	0.486230	0.595420
C8911	C891	0.515470	0.480180	0.571610
C8921	C892	0.532430	0.452450	0.572070
C8931	C893	0.527410	0.431530	0.596300
C8941	C894	0.519400	0.503050	0.545850
H5931	H593	0.476510	0.468350	0.635100
H5941	H594	0.482430	0.505050	0.595650
H5951	H595	0.547210	0.447920	0.556050
H5961	H596	0.538670	0.412330	0.596410
N2991	N299	0.007310	0.812640	0.130490
N3001	N300	0.998650	0.723710	0.206630
C8951	C895	0.991030	0.785710	0.131280
C8961	C896	0.994330	0.763770	0.154580
C8971	C897	0.015470	0.769820	0.178390
C8981	C898	0.032430	0.797550	0.177930
C8991	C899	0.027410	0.818470	0.153700
C9001	C900	0.019400	0.746950	0.204150
H5971	H597	0.976510	0.781650	0.114900
H5981	H598	0.982430	0.744950	0.154350
H5991	H599	0.047210	0.802080	0.193950
H6001	H600	0.038670	0.837670	0.153590
N3011	N301	0.742690	0.312640	0.119510
N3021	N302	0.751350	0.223710	0.043370
C9011	C901	0.758970	0.285710	0.118720
C9021	C902	0.755670	0.263770	0.095420
C9031	C903	0.734530	0.269820	0.071610
C9041	C904	0.717570	0.297550	0.072070
C9051	C905	0.722590	0.318470	0.096300
C9061	C906	0.730600	0.246950	0.045850
H6011	H601	0.773490	0.281650	0.135100
H6021	H602	0.767570	0.244950	0.095650
H6031	H603	0.702790	0.302080	0.056050
H6041	H604	0.711330	0.337670	0.096410
N3031	N303	0.242690	0.937360	0.630490
N3041	N304	0.251350	0.026290	0.706630
C9071	C907	0.258970	0.964290	0.631280
C9081	C908	0.255670	0.986230	0.654580
C9091	C909	0.234530	0.980180	0.678390
C9101	C910	0.217570	0.952450	0.677930
C9111	C911	0.222590	0.931530	0.653700
C9121	C912	0.230600	0.003050	0.704150
H6051	H605	0.273490	0.968350	0.614900
H6061	H606	0.267570	0.005050	0.654350
H6071	H607	0.202790	0.947920	0.693950
H6081	H608	0.211330	0.912330	0.653590
N3051	N305	0.619510	0.507310	0.437360
N3061	N306	0.543370	0.498650	0.526290
C9131	C913	0.618720	0.491030	0.464290
C9141	C914	0.595420	0.494330	0.486230
C9151	C915	0.571610	0.515470	0.480180
C9161	C916	0.572070	0.532430	0.452450
C9171	C917	0.596300	0.527410	0.431530
C9181	C918	0.545850	0.519400	0.503050
H6091	H609	0.635100	0.476510	0.468350
H6101	H610	0.595650	0.482430	0.505050
H6111	H611	0.556050	0.547210	0.447920
H6121	H612	0.596410	0.538670	0.412330
N3071	N307	0.130490	0.007310	0.812640
N3081	N308	0.206630	0.998650	0.723710
C9191	C919	0.131280	0.991030	0.785710
C9201	C920	0.154580	0.994330	0.763770
C9211	C921	0.178390	0.015470	0.769820
C9221	C922	0.177930	0.032430	0.797550
C9231	C923	0.153700	0.027410	0.818470
C9241	C924	0.204150	0.019400	0.746950
H6131	H613	0.114900	0.976510	0.781650
H6141	H614	0.154350	0.982430	0.744950
H6151	H615	0.193950	0.047210	0.802080
H6161	H616	0.153590	0.038670	0.837670
N3091	N309	0.119510	0.742690	0.312640
N3101	N310	0.043370	0.751350	0.223710
C9251	C925	0.118720	0.758970	0.285710
C9261	C926	0.095420	0.755670	0.263770
C9271	C927	0.071610	0.734530	0.269820
C9281	C928	0.072070	0.717570	0.297550
C9291	C929	0.096300	0.722590	0.318470
C9301	C930	0.045850	0.730600	0.246950
H6171	H617	0.135100	0.773490	0.281650
H6181	H618	0.095650	0.767570	0.244950
H6191	H619	0.056050	0.702790	0.302080
H6201	H620	0.096410	0.711330	0.337670
N3111	N311	0.630490	0.242690	0.937360
N3121	N312	0.706630	0.251350	0.026290
C9311	C931	0.631280	0.258970	0.964290
C9321	C932	0.654580	0.255670	0.986230
C9331	C933	0.678390	0.234530	0.980180
C9341	C934	0.677930	0.217570	0.952450
C9351	C935	0.653700	0.222590	0.931530
C9361	C936	0.704150	0.230600	0.003050
H6211	H621	0.614900	0.273490	0.968350
H6221	H622	0.654350	0.267570	0.005050
H6231	H623	0.693950	0.202790	0.947920
H6241	H624	0.653590	0.211330	0.912330
N3131	N313	0.369510	0.687360	0.492690
N3141	N314	0.293370	0.776290	0.501350
C9371	C937	0.368720	0.714290	0.508970
C9381	C938	0.345420	0.736230	0.505670
C9391	C939	0.321610	0.730180	0.484530
C9401	C940	0.322070	0.702450	0.467570
C9411	C941	0.346300	0.681530	0.472590
C9421	C942	0.295850	0.753050	0.480600
H6251	H625	0.385100	0.718350	0.523490
H6261	H626	0.345650	0.755050	0.517570
H6271	H627	0.306050	0.697920	0.452790
H6281	H628	0.346410	0.662330	0.461330
N3151	N315	0.880490	0.062640	0.992690
N3161	N316	0.956630	0.973710	0.001350
C9431	C943	0.881280	0.035710	0.008970
C9441	C944	0.904580	0.013770	0.005670
C9451	C945	0.928390	0.019820	0.984530
C9461	C946	0.927930	0.047550	0.967570
C9471	C947	0.903700	0.068470	0.972590
C9481	C948	0.954150	0.996950	0.980600
H6291	H629	0.864900	0.031650	0.023490
H6301	H630	0.904350	0.994950	0.017570
H6311	H631	0.943950	0.052080	0.952790
H6321	H632	0.903590	0.087670	0.961330
N3171	N317	0.869510	0.562640	0.257310
N3181	N318	0.793370	0.473710	0.248650
C9491	C949	0.868720	0.535710	0.241030
C9501	C950	0.845420	0.513770	0.244330
C9511	C951	0.821610	0.519820	0.265470
C9521	C952	0.822070	0.547550	0.282430
C9531	C953	0.846300	0.568470	0.277410
C9541	C954	0.795850	0.496950	0.269400
H6331	H633	0.885100	0.531650	0.226510
H6341	H634	0.845650	0.494950	0.232430
H6351	H635	0.806050	0.552080	0.297210
H6361	H636	0.846410	0.587670	0.288670
N3191	N319	0.380490	0.187360	0.757310
N3201	N320	0.456630	0.276290	0.748650
C9551	C955	0.381280	0.214290	0.741030
C9561	C956	0.404580	0.236230	0.744330
C9571	C957	0.428390	0.230180	0.765470
C9581	C958	0.427930	0.202450	0.782430
C9591	C959	0.403700	0.181530	0.777410
C9601	C960	0.454150	0.253050	0.769400
H6371	H637	0.364900	0.218350	0.726510
H6381	H638	0.404350	0.255050	0.732430
H6391	H639	0.443950	0.197920	0.797210
H6401	H640	0.403590	0.162330	0.788670
N3211	N321	0.187360	0.757310	0.380490
N3221	N322	0.276290	0.748650	0.456630
C9611	C961	0.214290	0.741030	0.381280
C9621	C962	0.236230	0.744330	0.404580
C9631	C963	0.230180	0.765470	0.428390
C9641	C964	0.202450	0.782430	0.427930
C9651	C965	0.181530	0.777410	0.403700
C9661	C966	0.253050	0.769400	0.454150
H6411	H641	0.218350	0.726510	0.364900
H6421	H642	0.255050	0.732430	0.404350
H6431	H643	0.197920	0.797210	0.443950
H6441	H644	0.162330	0.788670	0.403590
N3231	N323	0.562640	0.257310	0.869510
N3241	N324	0.473710	0.248650	0.793370
C9671	C967	0.535710	0.241030	0.868720
C9681	C968	0.513770	0.244330	0.845420
C9691	C969	0.519820	0.265470	0.821610
C9701	C970	0.547550	0.282430	0.822070
C9711	C971	0.568470	0.277410	0.846300
C9721	C972	0.496950	0.269400	0.795850
H6451	H645	0.531650	0.226510	0.885100
H6461	H646	0.494950	0.232430	0.845650
H6471	H647	0.552080	0.297210	0.806050
H6481	H648	0.587670	0.288670	0.846410
N3251	N325	0.062640	0.992690	0.880490
N3261	N326	0.973710	0.001350	0.956630
C9731	C973	0.035710	0.008970	0.881280
C9741	C974	0.013770	0.005670	0.904580
C9751	C975	0.019820	0.984530	0.928390
C9761	C976	0.047550	0.967570	0.927930
C9771	C977	0.068470	0.972590	0.903700
C9781	C978	0.996950	0.980600	0.954150
H6491	H649	0.031650	0.023490	0.864900
H6501	H650	0.994950	0.017570	0.904350
H6511	H651	0.052080	0.952790	0.943950
H6521	H652	0.087670	0.961330	0.903590
N3271	N327	0.687360	0.492690	0.369510
N3281	N328	0.776290	0.501350	0.293370
C9791	C979	0.714290	0.508970	0.368720
C9801	C980	0.736230	0.505670	0.345420
C9811	C981	0.730180	0.484530	0.321610
C9821	C982	0.702450	0.467570	0.322070
C9831	C983	0.681530	0.472590	0.346300
C9841	C984	0.753050	0.480600	0.295850
H6531	H653	0.718350	0.523490	0.385100
H6541	H654	0.755050	0.517570	0.345650
H6551	H655	0.697920	0.452790	0.306050
H6561	H656	0.662330	0.461330	0.346410
N3291	N329	0.257310	0.869510	0.562640
N3301	N330	0.248650	0.793370	0.473710
C9851	C985	0.241030	0.868720	0.535710
C9861	C986	0.244330	0.845420	0.513770
C9871	C987	0.265470	0.821610	0.519820
C9881	C988	0.282430	0.822070	0.547550
C9891	C989	0.277410	0.846300	0.568470
C9901	C990	0.269400	0.795850	0.496950
H6571	H657	0.226510	0.885100	0.531650
H6581	H658	0.232430	0.845650	0.494950
H6591	H659	0.297210	0.806050	0.552080
H6601	H660	0.288670	0.846410	0.587670
N3311	N331	0.757310	0.380490	0.187360
N3321	N332	0.748650	0.456630	0.276290
C9911	C991	0.741030	0.381280	0.214290
C9921	C992	0.744330	0.404580	0.236230
C9931	C993	0.765470	0.428390	0.230180
C9941	C994	0.782430	0.427930	0.202450
C9951	C995	0.777410	0.403700	0.181530
C9961	C996	0.769400	0.454150	0.253050
H6611	H661	0.726510	0.364900	0.218350
H6621	H662	0.732430	0.404350	0.255050
H6631	H663	0.797210	0.443950	0.197920
H6641	H664	0.788670	0.403590	0.162330
N3331	N333	0.492690	0.369510	0.687360
N3341	N334	0.501350	0.293370	0.776290
C9971	C997	0.508970	0.368720	0.714290
C9981	C998	0.505670	0.345420	0.736230
C9991	C999	0.484530	0.321610	0.730180
C10001	C1000	0.467570	0.322070	0.702450
C10011	C1001	0.472590	0.346300	0.681530
C10021	C1002	0.480600	0.295850	0.753050
H6651	H665	0.523490	0.385100	0.718350
H6661	H666	0.517570	0.345650	0.755050
H6671	H667	0.452790	0.306050	0.697920
H6681	H668	0.461330	0.346410	0.662330
N3351	N335	0.992690	0.880490	0.062640
N3361	N336	0.001350	0.956630	0.973710
C10031	C1003	0.008970	0.881280	0.035710
C10041	C1004	0.005670	0.904580	0.013770
C10051	C1005	0.984530	0.928390	0.019820
C10061	C1006	0.967570	0.927930	0.047550
C10071	C1007	0.972590	0.903700	0.068470
C10081	C1008	0.980600	0.954150	0.996950
H6691	H669	0.023490	0.864900	0.031650
H6701	H670	0.017570	0.904350	0.994950
H6711	H671	0.952790	0.943950	0.052080
H6721	H672	0.961330	0.903590	0.087670
Zn731	Zn73	0.405440	0.655440	0.500000
Zn741	Zn74	0.844560	0.094560	0.000000
Zn751	Zn75	0.344560	0.155440	0.750000
Zn761	Zn76	0.905440	0.594560	0.250000
Zn771	Zn77	0.500000	0.405440	0.655440
Zn781	Zn78	0.000000	0.844560	0.094560
Zn791	Zn79	0.750000	0.344560	0.155440
Zn801	Zn80	0.250000	0.905440	0.594560
Zn811	Zn81	0.655440	0.500000	0.405440
Zn821	Zn82	0.094560	0.000000	0.844560
Zn831	Zn83	0.155440	0.750000	0.344560
Zn841	Zn84	0.594560	0.250000	0.905440
N3371	N337	0.437360	0.119510	0.007310
N3381	N338	0.526290	0.043370	0.998650
C10091	C1009	0.464290	0.118720	0.991030
C10101	C1010	0.486230	0.095420	0.994330
C10111	C1011	0.480180	0.071610	0.015470
C10121	C1012	0.452450	0.072070	0.032430
C10131	C1013	0.431530	0.096300	0.027410
C10141	C1014	0.503050	0.045850	0.019400
H6731	H673	0.468350	0.135100	0.976510
H6741	H674	0.505050	0.095650	0.982430
H6751	H675	0.447920	0.056050	0.047210
H6761	H676	0.412330	0.096410	0.038670
N3391	N339	0.812640	0.630490	0.507310
N3401	N340	0.723710	0.706630	0.498650
C10151	C1015	0.785710	0.631280	0.491030
C10161	C1016	0.763770	0.654580	0.494330
C10171	C1017	0.769820	0.678390	0.515470
C10181	C1018	0.797550	0.677930	0.532430
C10191	C1019	0.818470	0.653700	0.527410
C10201	C1020	0.746950	0.704150	0.519400
H6771	H677	0.781650	0.614900	0.476510
H6781	H678	0.744950	0.654350	0.482430
H6791	H679	0.802080	0.693950	0.547210
H6801	H680	0.837670	0.653590	0.538670
N3411	N341	0.312640	0.619510	0.242690
N3421	N342	0.223710	0.543370	0.251350
C10211	C1021	0.285710	0.618720	0.258970
C10221	C1022	0.263770	0.595420	0.255670
C10231	C1023	0.269820	0.571610	0.234530
C10241	C1024	0.297550	0.572070	0.217570
C10251	C1025	0.318470	0.596300	0.222590
C10261	C1026	0.246950	0.545850	0.230600
H6811	H681	0.281650	0.635100	0.273490
H6821	H682	0.244950	0.595650	0.267570
H6831	H683	0.302080	0.556050	0.202790
H6841	H684	0.337670	0.596410	0.211330
N3431	N343	0.937360	0.130490	0.742690
N3441	N344	0.026290	0.206630	0.751350
C10271	C1027	0.964290	0.131280	0.758970
C10281	C1028	0.986230	0.154580	0.755670
C10291	C1029	0.980180	0.178390	0.734530
C10301	C1030	0.952450	0.177930	0.717570
C10311	C1031	0.931530	0.153700	0.722590
C10321	C1032	0.003050	0.204150	0.730600
H6851	H685	0.968350	0.114900	0.773490
H6861	H686	0.005050	0.154350	0.767570
H6871	H687	0.947920	0.193950	0.702790
H6881	H688	0.912330	0.153590	0.711330
N3451	N345	0.507310	0.937360	0.119510
N3461	N346	0.498650	0.026290	0.043370
C10331	C1033	0.491030	0.964290	0.118720
C10341	C1034	0.494330	0.986230	0.095420
C10351	C1035	0.515470	0.980180	0.071610
C10361	C1036	0.532430	0.952450	0.072070
C10371	C1037	0.527410	0.931530	0.096300
C10381	C1038	0.519400	0.003050	0.045850
H6891	H689	0.476510	0.968350	0.135100
H6901	H690	0.482430	0.005050	0.095650
H6911	H691	0.547210	0.947920	0.056050
H6921	H692	0.538670	0.912330	0.096410
N3471	N347	0.007310	0.312640	0.630490
N3481	N348	0.998650	0.223710	0.706630
C10391	C1039	0.991030	0.285710	0.631280
C10401	C1040	0.994330	0.263770	0.654580
C10411	C1041	0.015470	0.269820	0.678390
C10421	C1042	0.032430	0.297550	0.677930
C10431	C1043	0.027410	0.318470	0.653700
C10441	C1044	0.019400	0.246950	0.704150
H6931	H693	0.976510	0.281650	0.614900
H6941	H694	0.982430	0.244950	0.654350
H6951	H695	0.047210	0.302080	0.693950
H6961	H696	0.038670	0.337670	0.653590
N3491	N349	0.742690	0.812640	0.619510
N3501	N350	0.751350	0.723710	0.543370
C10451	C1045	0.758970	0.785710	0.618720
C10461	C1046	0.755670	0.763770	0.595420
C10471	C1047	0.734530	0.769820	0.571610
C10481	C1048	0.717570	0.797550	0.572070
C10491	C1049	0.722590	0.818470	0.596300
C10501	C1050	0.730600	0.746950	0.545850
H6971	H697	0.773490	0.781650	0.635100
H6981	H698	0.767570	0.744950	0.595650
H6991	H699	0.702790	0.802080	0.556050
H7001	H700	0.711330	0.837670	0.596410
N3511	N351	0.242690	0.437360	0.130490
N3521	N352	0.251350	0.526290	0.206630
C10511	C1051	0.258970	0.464290	0.131280
C10521	C1052	0.255670	0.486230	0.154580
C10531	C1053	0.234530	0.480180	0.178390
C10541	C1054	0.217570	0.452450	0.177930
C10551	C1055	0.222590	0.431530	0.153700
C10561	C1056	0.230600	0.503050	0.204150
H7011	H701	0.273490	0.468350	0.114900
H7021	H702	0.267570	0.505050	0.154350
H7031	H703	0.202790	0.447920	0.193950
H7041	H704	0.211330	0.412330	0.153590
N3531	N353	0.619510	0.007310	0.937360
N3541	N354	0.543370	0.998650	0.026290
C10571	C1057	0.618720	0.991030	0.964290
C10581	C1058	0.595420	0.994330	0.986230
C10591	C1059	0.571610	0.015470	0.980180
C10601	C1060	0.572070	0.032430	0.952450
C10611	C1061	0.596300	0.027410	0.931530
C10621	C1062	0.545850	0.019400	0.003050
H7051	H705	0.635100	0.976510	0.968350
H7061	H706	0.595650	0.982430	0.005050
H7071	H707	0.556050	0.047210	0.947920
H7081	H708	0.596410	0.038670	0.912330
N3551	N355	0.130490	0.507310	0.312640
N3561	N356	0.206630	0.498650	0.223710
C10631	C1063	0.131280	0.491030	0.285710
C10641	C1064	0.154580	0.494330	0.263770
C10651	C1065	0.178390	0.515470	0.269820
C10661	C1066	0.177930	0.532430	0.297550
C10671	C1067	0.153700	0.527410	0.318470
C10681	C1068	0.204150	0.519400	0.246950
H7091	H709	0.114900	0.476510	0.281650
H7101	H710	0.154350	0.482430	0.244950
H7111	H711	0.193950	0.547210	0.302080
H7121	H712	0.153590	0.538670	0.337670
N3571	N357	0.119510	0.242690	0.812640
N3581	N358	0.043370	0.251350	0.723710
C10691	C1069	0.118720	0.258970	0.785710
C10701	C1070	0.095420	0.255670	0.763770
C10711	C1071	0.071610	0.234530	0.769820
C10721	C1072	0.072070	0.217570	0.797550
C10731	C1073	0.096300	0.222590	0.818470
C10741	C1074	0.045850	0.230600	0.746950
H7131	H713	0.135100	0.273490	0.781650
H7141	H714	0.095650	0.267570	0.744950
H7151	H715	0.056050	0.202790	0.802080
H7161	H716	0.096410	0.211330	0.837670
N3591	N359	0.630490	0.742690	0.437360
N3601	N360	0.706630	0.751350	0.526290
C10751	C1075	0.631280	0.758970	0.464290
C10761	C1076	0.654580	0.755670	0.486230
C10771	C1077	0.678390	0.734530	0.480180
C10781	C1078	0.677930	0.717570	0.452450
C10791	C1079	0.653700	0.722590	0.431530
C10801	C1080	0.704150	0.730600	0.503050
H7171	H717	0.614900	0.773490	0.468350
H7181	H718	0.654350	0.767570	0.505050
H7191	H719	0.693950	0.702790	0.447920
H7201	H720	0.653590	0.711330	0.412330
N3611	N361	0.369510	0.187360	0.992690
N3621	N362	0.293370	0.276290	0.001350
C10811	C1081	0.368720	0.214290	0.008970
C10821	C1082	0.345420	0.236230	0.005670
C10831	C1083	0.321610	0.230180	0.984530
C10841	C1084	0.322070	0.202450	0.967570
C10851	C1085	0.346300	0.181530	0.972590
C10861	C1086	0.295850	0.253050	0.980600
H7211	H721	0.385100	0.218350	0.023490
H7221	H722	0.345650	0.255050	0.017570
H7231	H723	0.306050	0.197920	0.952790
H7241	H724	0.346410	0.162330	0.961330
N3631	N363	0.880490	0.562640	0.492690
N3641	N364	0.956630	0.473710	0.501350
C10871	C1087	0.881280	0.535710	0.508970
C10881	C1088	0.904580	0.513770	0.505670
C10891	C1089	0.928390	0.519820	0.484530
C10901	C1090	0.927930	0.547550	0.467570
C10911	C1091	0.903700	0.568470	0.472590
C10921	C1092	0.954150	0.496950	0.480600
H7251	H725	0.864900	0.531650	0.523490
H7261	H726	0.904350	0.494950	0.517570
H7271	H727	0.943950	0.552080	0.452790
H7281	H728	0.903590	0.587670	0.461330
N3651	N365	0.869510	0.062640	0.757310
N3661	N366	0.793370	0.973710	0.748650
C10931	C1093	0.868720	0.035710	0.741030
C10941	C1094	0.845420	0.013770	0.744330
C10951	C1095	0.821610	0.019820	0.765470
C10961	C1096	0.822070	0.047550	0.782430
C10971	C1097	0.846300	0.068470	0.777410
C10981	C1098	0.795850	0.996950	0.769400
H7291	H729	0.885100	0.031650	0.726510
H7301	H730	0.845650	0.994950	0.732430
H7311	H731	0.806050	0.052080	0.797210
H7321	H732	0.846410	0.087670	0.788670
N3671	N367	0.380490	0.687360	0.257310
N3681	N368	0.456630	0.776290	0.248650
C10991	C1099	0.381280	0.714290	0.241030
C11001	C1100	0.404580	0.736230	0.244330
C11011	C1101	0.428390	0.730180	0.265470
C11021	C1102	0.427930	0.702450	0.282430
C11031	C1103	0.403700	0.681530	0.277410
C11041	C1104	0.454150	0.753050	0.269400
H7331	H733	0.364900	0.718350	0.226510
H7341	H734	0.404350	0.755050	0.232430
H7351	H735	0.443950	0.697920	0.297210
H7361	H736	0.403590	0.662330	0.288670
N3691	N369	0.187360	0.257310	0.880490
N3701	N370	0.276290	0.248650	0.956630
C11051	C1105	0.214290	0.241030	0.881280
C11061	C1106	0.236230	0.244330	0.904580
C11071	C1107	0.230180	0.265470	0.928390
C11081	C1108	0.202450	0.282430	0.927930
C11091	C1109	0.181530	0.277410	0.903700
C11101	C1110	0.253050	0.269400	0.954150
H7371	H737	0.218350	0.226510	0.864900
H7381	H738	0.255050	0.232430	0.904350
H7391	H739	0.197920	0.297210	0.943950
H7401	H740	0.162330	0.288670	0.903590
N3711	N371	0.562640	0.757310	0.369510
N3721	N372	0.473710	0.748650	0.293370
C11111	C1111	0.535710	0.741030	0.368720
C11121	C1112	0.513770	0.744330	0.345420
C11131	C1113	0.519820	0.765470	0.321610
C11141	C1114	0.547550	0.782430	0.322070
C11151	C1115	0.568470	0.777410	0.346300
C11161	C1116	0.496950	0.769400	0.295850
H7411	H741	0.531650	0.726510	0.385100
H7421	H742	0.494950	0.732430	0.345650
H7431	H743	0.552080	0.797210	0.306050
H7441	H744	0.587670	0.788670	0.346410
N3731	N373	0.062640	0.492690	0.380490
N3741	N374	0.973710	0.501350	0.456630
C11171	C1117	0.035710	0.508970	0.381280
C11181	C1118	0.013770	0.505670	0.404580
C11191	C1119	0.019820	0.484530	0.428390
C11201	C1120	0.047550	0.467570	0.427930
C11211	C1121	0.068470	0.472590	0.403700
C11221	C1122	0.996950	0.480600	0.454150
H7451	H745	0.031650	0.523490	0.364900
H7461	H746	0.994950	0.517570	0.404350
H7471	H747	0.052080	0.452790	0.443950
H7481	H748	0.087670	0.461330	0.403590
N3751	N375	0.687360	0.992690	0.869510
N3761	N376	0.776290	0.001350	0.793370
C11231	C1123	0.714290	0.008970	0.868720
C11241	C1124	0.736230	0.005670	0.845420
C11251	C1125	0.730180	0.984530	0.821610
C11261	C1126	0.702450	0.967570	0.822070
C11271	C1127	0.681530	0.972590	0.846300
C11281	C1128	0.753050	0.980600	0.795850
H7491	H749	0.718350	0.023490	0.885100
H7501	H750	0.755050	0.017570	0.845650
H7511	H751	0.697920	0.952790	0.806050
H7521	H752	0.662330	0.961330	0.846410
N3771	N377	0.257310	0.369510	0.062640
N3781	N378	0.248650	0.293370	0.973710
C11291	C1129	0.241030	0.368720	0.035710
C11301	C1130	0.244330	0.345420	0.013770
C11311	C1131	0.265470	0.321610	0.019820
C11321	C1132	0.282430	0.322070	0.047550
C11331	C1133	0.277410	0.346300	0.068470
C11341	C1134	0.269400	0.295850	0.996950
H7531	H753	0.226510	0.385100	0.031650
H7541	H754	0.232430	0.345650	0.994950
H7551	H755	0.297210	0.306050	0.052080
H7561	H756	0.288670	0.346410	0.087670
N3791	N379	0.757310	0.880490	0.687360
N3801	N380	0.748650	0.956630	0.776290
C11351	C1135	0.741030	0.881280	0.714290
C11361	C1136	0.744330	0.904580	0.736230
C11371	C1137	0.765470	0.928390	0.730180
C11381	C1138	0.782430	0.927930	0.702450
C11391	C1139	0.777410	0.903700	0.681530
C11401	C1140	0.769400	0.954150	0.753050
H7571	H757	0.726510	0.864900	0.718350
H7581	H758	0.732430	0.904350	0.755050
H7591	H759	0.797210	0.943950	0.697920
H7601	H760	0.788670	0.903590	0.662330
N3811	N381	0.492690	0.869510	0.187360
N3821	N382	0.501350	0.793370	0.276290
C11411	C1141	0.508970	0.868720	0.214290
C11421	C1142	0.505670	0.845420	0.236230
C11431	C1143	0.484530	0.821610	0.230180
C11441	C1144	0.467570	0.822070	0.202450
C11451	C1145	0.472590	0.846300	0.181530
C11461	C1146	0.480600	0.795850	0.253050
H7611	H761	0.523490	0.885100	0.218350
H7621	H762	0.517570	0.845650	0.255050
H7631	H763	0.452790	0.806050	0.197920
H7641	H764	0.461330	0.846410	0.162330
N3831	N383	0.992690	0.380490	0.562640
N3841	N384	0.001350	0.456630	0.473710
C11471	C1147	0.008970	0.381280	0.535710
C11481	C1148	0.005670	0.404580	0.513770
C11491	C1149	0.984530	0.428390	0.519820
C11501	C1150	0.967570	0.427930	0.547550
C11511	C1151	0.972590	0.403700	0.568470
C11521	C1152	0.980600	0.454150	0.496950
H7651	H765	0.023490	0.364900	0.531650
H7661	H766	0.017570	0.404350	0.494950
H7671	H767	0.952790	0.443950	0.552080
H7681	H768	0.961330	0.403590	0.587670
Zn851	Zn85	0.405440	0.155440	0.000000
Zn861	Zn86	0.844560	0.594560	0.500000
Zn871	Zn87	0.344560	0.655440	0.250000
Zn881	Zn88	0.905440	0.094560	0.750000
Zn891	Zn89	0.500000	0.905440	0.155440
Zn901	Zn90	0.000000	0.344560	0.594560
Zn911	Zn91	0.750000	0.844560	0.655440
Zn921	Zn92	0.250000	0.405440	0.094560
Zn931	Zn93	0.655440	0.000000	0.905440
Zn941	Zn94	0.094560	0.500000	0.344560
Zn951	Zn95	0.155440	0.250000	0.844560
Zn961	Zn96	0.594560	0.750000	0.405440
