data_TASZAQ_charged_PM
_symmetry_space_group_name_H-M	'P1'
_cell_length_a	28.655000
_cell_length_b	28.655000
_cell_length_c	28.655000
_cell_angle_alpha	109.471000
_cell_angle_beta	109.471000
_cell_angle_gamma	109.471000
_symmetry_Int_Tables_number 1

loop_
_symmetry_equiv_pos_as_xyz
'x,y,z'

loop_
_atom_site_label
_atom_site_type_symbol
_atom_site_fract_x
_atom_site_fract_y
_atom_site_fract_z
Zn11	Zn1	0.500000	0.500000	0.500000
Zn21	Zn2	0.000000	0.000000	0.500000
Zn31	Zn3	0.000000	0.500000	0.000000
Zn41	Zn4	0.500000	0.000000	0.000000
Zn51	Zn5	0.000000	0.245300	0.245300
Zn61	Zn6	0.000000	0.754700	0.754700
Zn71	Zn7	0.754700	0.000000	0.754700
Zn81	Zn8	0.245300	0.000000	0.245300
Zn91	Zn9	0.754700	0.754700	0.000000
Zn101	Zn10	0.245300	0.245300	0.000000
H11	H1	0.281900	0.338800	0.396300
H21	H2	0.208900	0.298300	0.306800
H31	H3	0.177500	0.333300	0.438400
H41	H4	0.367900	0.420900	0.453200
H51	H5	0.455600	0.382100	0.591900
H61	H6	0.357000	0.351500	0.552900
H71	H7	0.110700	0.257600	0.243700
H81	H8	0.082600	0.296300	0.372700
H91	H9	0.942500	0.885600	0.603700
H101	H10	0.991500	0.902100	0.693200
H111	H11	0.894900	0.739100	0.561600
H121	H12	0.967700	0.914700	0.546800
H131	H13	0.790200	0.863700	0.408100
H141	H14	0.798600	0.804100	0.447100
H151	H15	0.013900	0.867000	0.756300
H161	H16	0.923600	0.709900	0.627300
H171	H17	0.057500	0.661200	0.943100
H181	H18	0.008500	0.701700	0.910600
H191	H19	0.105100	0.666700	0.844200
H201	H20	0.032300	0.579100	0.947000
H211	H21	0.209800	0.617900	0.073500
H221	H22	0.201400	0.648500	0.005500
H231	H23	0.986100	0.742400	0.853100
H241	H24	0.076400	0.703700	0.786300
H251	H25	0.718100	0.114400	0.056900
H261	H26	0.791100	0.097900	0.089400
H271	H27	0.822500	0.260900	0.155800
H281	H28	0.632100	0.085300	0.053000
H291	H29	0.544400	0.136300	0.926500
H301	H30	0.643000	0.195900	0.994500
H311	H31	0.889300	0.133000	0.146900
H321	H32	0.917400	0.290100	0.213700
H331	H33	0.943100	0.057500	0.661200
H341	H34	0.910600	0.008500	0.701700
H351	H35	0.844200	0.105100	0.666700
H361	H36	0.947000	0.032300	0.579100
H371	H37	0.073500	0.209800	0.617900
H381	H38	0.005500	0.201400	0.648500
H391	H39	0.853100	0.986100	0.742400
H401	H40	0.786300	0.076400	0.703700
H411	H41	0.056900	0.718100	0.114400
H421	H42	0.089400	0.791100	0.097900
H431	H43	0.155800	0.822500	0.260900
H441	H44	0.053000	0.632100	0.085300
H451	H45	0.926500	0.544400	0.136300
H461	H46	0.994500	0.643000	0.195900
H471	H47	0.146900	0.889300	0.133000
H481	H48	0.213700	0.917400	0.290100
H491	H49	0.396300	0.281900	0.338800
H501	H50	0.306800	0.208900	0.298300
H511	H51	0.438400	0.177500	0.333300
H521	H52	0.453200	0.367900	0.420900
H531	H53	0.591900	0.455600	0.382100
H541	H54	0.552900	0.357000	0.351500
H551	H55	0.243700	0.110700	0.257600
H561	H56	0.372700	0.082600	0.296300
H571	H57	0.603700	0.942500	0.885600
H581	H58	0.693200	0.991500	0.902100
H591	H59	0.561600	0.894900	0.739100
H601	H60	0.546800	0.967700	0.914700
H611	H61	0.408100	0.790200	0.863700
H621	H62	0.447100	0.798600	0.804100
H631	H63	0.756300	0.013900	0.867000
H641	H64	0.627300	0.923600	0.709900
H651	H65	0.885600	0.603700	0.942500
H661	H66	0.902100	0.693200	0.991500
H671	H67	0.739100	0.561600	0.894900
H681	H68	0.914700	0.546800	0.967700
H691	H69	0.863700	0.408100	0.790200
H701	H70	0.804100	0.447100	0.798600
H711	H71	0.867000	0.756300	0.013900
H721	H72	0.709900	0.627300	0.923600
H731	H73	0.338800	0.396300	0.281900
H741	H74	0.298300	0.306800	0.208900
H751	H75	0.333300	0.438400	0.177500
H761	H76	0.420900	0.453200	0.367900
H771	H77	0.382100	0.591900	0.455600
H781	H78	0.351500	0.552900	0.357000
H791	H79	0.257600	0.243700	0.110700
H801	H80	0.296300	0.372700	0.082600
H811	H81	0.114400	0.056900	0.718100
H821	H82	0.097900	0.089400	0.791100
H831	H83	0.260900	0.155800	0.822500
H841	H84	0.085300	0.053000	0.632100
H851	H85	0.136300	0.926500	0.544400
H861	H86	0.195900	0.994500	0.643000
H871	H87	0.133000	0.146900	0.889300
H881	H88	0.290100	0.213700	0.917400
H891	H89	0.661200	0.943100	0.057500
H901	H90	0.701700	0.910600	0.008500
H911	H91	0.666700	0.844200	0.105100
H921	H92	0.579100	0.947000	0.032300
H931	H93	0.617900	0.073500	0.209800
H941	H94	0.648500	0.005500	0.201400
H951	H95	0.742400	0.853100	0.986100
H961	H96	0.703700	0.786300	0.076400
H971	H97	0.661200	0.718100	0.603700
H981	H98	0.701700	0.791100	0.693200
H991	H99	0.666700	0.822500	0.561600
H1001	H100	0.579100	0.632100	0.546800
H1011	H101	0.617900	0.544400	0.408100
H1021	H102	0.648500	0.643000	0.447100
H1031	H103	0.742400	0.889300	0.756300
H1041	H104	0.703700	0.917400	0.627300
H1051	H105	0.114400	0.057500	0.396300
H1061	H106	0.097900	0.008500	0.306800
H1071	H107	0.260900	0.105100	0.438400
H1081	H108	0.085300	0.032300	0.453200
H1091	H109	0.136300	0.209800	0.591900
H1101	H110	0.195900	0.201400	0.552900
H1111	H111	0.133000	0.986100	0.243700
H1121	H112	0.290100	0.076400	0.372700
H1131	H113	0.338800	0.942500	0.056900
H1141	H114	0.298300	0.991500	0.089400
H1151	H115	0.333300	0.894900	0.155800
H1161	H116	0.420900	0.967700	0.053000
H1171	H117	0.382100	0.790200	0.926500
H1181	H118	0.351500	0.798600	0.994500
H1191	H119	0.257600	0.013900	0.146900
H1201	H120	0.296300	0.923600	0.213700
H1211	H121	0.885600	0.281900	0.943100
H1221	H122	0.902100	0.208900	0.910600
H1231	H123	0.739100	0.177500	0.844200
H1241	H124	0.914700	0.367900	0.947000
H1251	H125	0.863700	0.455600	0.073500
H1261	H126	0.804100	0.357000	0.005500
H1271	H127	0.867000	0.110700	0.853100
H1281	H128	0.709900	0.082600	0.786300
H1291	H129	0.942500	0.056900	0.338800
H1301	H130	0.991500	0.089400	0.298300
H1311	H131	0.894900	0.155800	0.333300
H1321	H132	0.967700	0.053000	0.420900
H1331	H133	0.790200	0.926500	0.382100
H1341	H134	0.798600	0.994500	0.351500
H1351	H135	0.013900	0.146900	0.257600
H1361	H136	0.923600	0.213700	0.296300
H1371	H137	0.281900	0.943100	0.885600
H1381	H138	0.208900	0.910600	0.902100
H1391	H139	0.177500	0.844200	0.739100
H1401	H140	0.367900	0.947000	0.914700
H1411	H141	0.455600	0.073500	0.863700
H1421	H142	0.357000	0.005500	0.804100
H1431	H143	0.110700	0.853100	0.867000
H1441	H144	0.082600	0.786300	0.709900
H1451	H145	0.718100	0.603700	0.661200
H1461	H146	0.791100	0.693200	0.701700
H1471	H147	0.822500	0.561600	0.666700
H1481	H148	0.632100	0.546800	0.579100
H1491	H149	0.544400	0.408100	0.617900
H1501	H150	0.643000	0.447100	0.648500
H1511	H151	0.889300	0.756300	0.742400
H1521	H152	0.917400	0.627300	0.703700
H1531	H153	0.057500	0.396300	0.114400
H1541	H154	0.008500	0.306800	0.097900
H1551	H155	0.105100	0.438400	0.260900
H1561	H156	0.032300	0.453200	0.085300
H1571	H157	0.209800	0.591900	0.136300
H1581	H158	0.201400	0.552900	0.195900
H1591	H159	0.986100	0.243700	0.133000
H1601	H160	0.076400	0.372700	0.290100
H1611	H161	0.396300	0.114400	0.057500
H1621	H162	0.306800	0.097900	0.008500
H1631	H163	0.438400	0.260900	0.105100
H1641	H164	0.453200	0.085300	0.032300
H1651	H165	0.591900	0.136300	0.209800
H1661	H166	0.552900	0.195900	0.201400
H1671	H167	0.243700	0.133000	0.986100
H1681	H168	0.372700	0.290100	0.076400
H1691	H169	0.603700	0.661200	0.718100
H1701	H170	0.693200	0.701700	0.791100
H1711	H171	0.561600	0.666700	0.822500
H1721	H172	0.546800	0.579100	0.632100
H1731	H173	0.408100	0.617900	0.544400
H1741	H174	0.447100	0.648500	0.643000
H1751	H175	0.756300	0.742400	0.889300
H1761	H176	0.627300	0.703700	0.917400
H1771	H177	0.943100	0.885600	0.281900
H1781	H178	0.910600	0.902100	0.208900
H1791	H179	0.844200	0.739100	0.177500
H1801	H180	0.947000	0.914700	0.367900
H1811	H181	0.073500	0.863700	0.455600
H1821	H182	0.005500	0.804100	0.357000
H1831	H183	0.853100	0.867000	0.110700
H1841	H184	0.786300	0.709900	0.082600
H1851	H185	0.056900	0.338800	0.942500
H1861	H186	0.089400	0.298300	0.991500
H1871	H187	0.155800	0.333300	0.894900
H1881	H188	0.053000	0.420900	0.967700
H1891	H189	0.926500	0.382100	0.790200
H1901	H190	0.994500	0.351500	0.798600
H1911	H191	0.146900	0.257600	0.013900
H1921	H192	0.213700	0.296300	0.923600
C11	C1	0.202810	0.318400	0.377490
C21	C2	0.183380	0.297620	0.321200
C31	C3	0.468480	0.425180	0.548220
C41	C4	0.164990	0.318820	0.398790
C51	C5	0.385900	0.413600	0.482280
C61	C6	0.437280	0.391140	0.564720
C71	C7	0.288160	0.357210	0.469070
C81	C8	0.352840	0.380320	0.496840
C91	C9	0.378730	0.371230	0.540000
C101	C10	0.125150	0.274900	0.283770
C111	C11	0.108780	0.297090	0.359210
C121	C12	0.940910	0.825320	0.622510
C131	C13	0.976420	0.862180	0.678800
C141	C14	0.876960	0.920260	0.451780
C151	C15	0.920030	0.766200	0.601210
C161	C16	0.931320	0.903620	0.517720
C171	C17	0.826420	0.872560	0.435280
C181	C18	0.888140	0.819090	0.530930
C191	C19	0.883480	0.856000	0.503160
C201	C20	0.831230	0.838730	0.460000
C211	C21	0.991130	0.841380	0.716230
C221	C22	0.937880	0.749570	0.640790
C231	C23	0.059090	0.681600	0.884410
C241	C24	0.023580	0.702380	0.885760
C251	C25	0.123040	0.574820	0.043300
C261	C26	0.079970	0.681180	0.846170
C271	C27	0.068680	0.586400	0.972300
C281	C28	0.173580	0.608860	0.046140
C291	C29	0.111860	0.642790	0.930950
C301	C30	0.116520	0.619680	0.972520
C311	C31	0.168770	0.628770	0.007500
C321	C32	0.008870	0.725100	0.850250
C331	C33	0.062120	0.702910	0.811690
C341	C34	0.797190	0.174680	0.115590
C351	C35	0.816620	0.137820	0.114240
C361	C36	0.531520	0.079740	0.956700
C371	C37	0.835010	0.233800	0.153830
C381	C38	0.614100	0.096380	0.027700
C391	C39	0.562720	0.127440	0.953860
C401	C40	0.711840	0.180910	0.069050
C411	C41	0.647160	0.144000	0.027480
C421	C42	0.621270	0.161270	0.992500
C431	C43	0.874850	0.158620	0.149750
C441	C44	0.891220	0.250430	0.188310
C451	C45	0.884410	0.059090	0.681600
C461	C46	0.885760	0.023580	0.702380
C471	C47	0.043300	0.123040	0.574820
C481	C48	0.846170	0.079970	0.681180
C491	C49	0.972300	0.068680	0.586400
C501	C50	0.046140	0.173580	0.608860
C511	C51	0.930950	0.111860	0.642790
C521	C52	0.972520	0.116520	0.619680
C531	C53	0.007500	0.168770	0.628770
C541	C54	0.850250	0.008870	0.725100
C551	C55	0.811690	0.062120	0.702910
C561	C56	0.115590	0.797190	0.174680
C571	C57	0.114240	0.816620	0.137820
C581	C58	0.956700	0.531520	0.079740
C591	C59	0.153830	0.835010	0.233800
C601	C60	0.027700	0.614100	0.096380
C611	C61	0.953860	0.562720	0.127440
C621	C62	0.069050	0.711840	0.180910
C631	C63	0.027480	0.647160	0.144000
C641	C64	0.992500	0.621270	0.161270
C651	C65	0.149750	0.874850	0.158620
C661	C66	0.188310	0.891220	0.250430
C671	C67	0.377490	0.202810	0.318400
C681	C68	0.321200	0.183380	0.297620
C691	C69	0.548220	0.468480	0.425180
C701	C70	0.398790	0.164990	0.318820
C711	C71	0.482280	0.385900	0.413600
C721	C72	0.564720	0.437280	0.391140
C731	C73	0.469070	0.288160	0.357210
C741	C74	0.496840	0.352840	0.380320
C751	C75	0.540000	0.378730	0.371230
C761	C76	0.283770	0.125150	0.274900
C771	C77	0.359210	0.108780	0.297090
C781	C78	0.622510	0.940910	0.825320
C791	C79	0.678800	0.976420	0.862180
C801	C80	0.451780	0.876960	0.920260
C811	C81	0.601210	0.920030	0.766200
C821	C82	0.517720	0.931320	0.903620
C831	C83	0.435280	0.826420	0.872560
C841	C84	0.530930	0.888140	0.819090
C851	C85	0.503160	0.883480	0.856000
C861	C86	0.460000	0.831230	0.838730
C871	C87	0.716230	0.991130	0.841380
C881	C88	0.640790	0.937880	0.749570
C891	C89	0.825320	0.622510	0.940910
C901	C90	0.862180	0.678800	0.976420
C911	C91	0.920260	0.451780	0.876960
C921	C92	0.766200	0.601210	0.920030
C931	C93	0.903620	0.517720	0.931320
C941	C94	0.872560	0.435280	0.826420
C951	C95	0.819090	0.530930	0.888140
C961	C96	0.856000	0.503160	0.883480
C971	C97	0.838730	0.460000	0.831230
C981	C98	0.841380	0.716230	0.991130
C991	C99	0.749570	0.640790	0.937880
C1001	C100	0.318400	0.377490	0.202810
C1011	C101	0.297620	0.321200	0.183380
C1021	C102	0.425180	0.548220	0.468480
C1031	C103	0.318820	0.398790	0.164990
C1041	C104	0.413600	0.482280	0.385900
C1051	C105	0.391140	0.564720	0.437280
C1061	C106	0.357210	0.469070	0.288160
C1071	C107	0.380320	0.496840	0.352840
C1081	C108	0.371230	0.540000	0.378730
C1091	C109	0.274900	0.283770	0.125150
C1101	C110	0.297090	0.359210	0.108780
C1111	C111	0.174680	0.115590	0.797190
C1121	C112	0.137820	0.114240	0.816620
C1131	C113	0.079740	0.956700	0.531520
C1141	C114	0.233800	0.153830	0.835010
C1151	C115	0.096380	0.027700	0.614100
C1161	C116	0.127440	0.953860	0.562720
C1171	C117	0.180910	0.069050	0.711840
C1181	C118	0.144000	0.027480	0.647160
C1191	C119	0.161270	0.992500	0.621270
C1201	C120	0.158620	0.149750	0.874850
C1211	C121	0.250430	0.188310	0.891220
C1221	C122	0.681600	0.884410	0.059090
C1231	C123	0.702380	0.885760	0.023580
C1241	C124	0.574820	0.043300	0.123040
C1251	C125	0.681180	0.846170	0.079970
C1261	C126	0.586400	0.972300	0.068680
C1271	C127	0.608860	0.046140	0.173580
C1281	C128	0.642790	0.930950	0.111860
C1291	C129	0.619680	0.972520	0.116520
C1301	C130	0.628770	0.007500	0.168770
C1311	C131	0.725100	0.850250	0.008870
C1321	C132	0.702910	0.811690	0.062120
C1331	C133	0.681600	0.797190	0.622510
C1341	C134	0.702380	0.816620	0.678800
C1351	C135	0.574820	0.531520	0.451780
C1361	C136	0.681180	0.835010	0.601210
C1371	C137	0.586400	0.614100	0.517720
C1381	C138	0.608860	0.562720	0.435280
C1391	C139	0.642790	0.711840	0.530930
C1401	C140	0.619680	0.647160	0.503160
C1411	C141	0.628770	0.621270	0.460000
C1421	C142	0.725100	0.874850	0.716230
C1431	C143	0.702910	0.891220	0.640790
C1441	C144	0.174680	0.059090	0.377490
C1451	C145	0.137820	0.023580	0.321200
C1461	C146	0.079740	0.123040	0.548220
C1471	C147	0.233800	0.079970	0.398790
C1481	C148	0.096380	0.068680	0.482280
C1491	C149	0.127440	0.173580	0.564720
C1501	C150	0.180910	0.111860	0.469070
C1511	C151	0.144000	0.116520	0.496840
C1521	C152	0.161270	0.168770	0.540000
C1531	C153	0.158620	0.008870	0.283770
C1541	C154	0.250430	0.062120	0.359210
C1551	C155	0.318400	0.940910	0.115590
C1561	C156	0.297620	0.976420	0.114240
C1571	C157	0.425180	0.876960	0.956700
C1581	C158	0.318820	0.920030	0.153830
C1591	C159	0.413600	0.931320	0.027700
C1601	C160	0.391140	0.826420	0.953860
C1611	C161	0.357210	0.888140	0.069050
C1621	C162	0.380320	0.883480	0.027480
C1631	C163	0.371230	0.831230	0.992500
C1641	C164	0.274900	0.991130	0.149750
C1651	C165	0.297090	0.937880	0.188310
C1661	C166	0.825320	0.202810	0.884410
C1671	C167	0.862180	0.183380	0.885760
C1681	C168	0.920260	0.468480	0.043300
C1691	C169	0.766200	0.164990	0.846170
C1701	C170	0.903620	0.385900	0.972300
C1711	C171	0.872560	0.437280	0.046140
C1721	C172	0.819090	0.288160	0.930950
C1731	C173	0.856000	0.352840	0.972520
C1741	C174	0.838730	0.378730	0.007500
C1751	C175	0.841380	0.125150	0.850250
C1761	C176	0.749570	0.108780	0.811690
C1771	C177	0.940910	0.115590	0.318400
C1781	C178	0.976420	0.114240	0.297620
C1791	C179	0.876960	0.956700	0.425180
C1801	C180	0.920030	0.153830	0.318820
C1811	C181	0.931320	0.027700	0.413600
C1821	C182	0.826420	0.953860	0.391140
C1831	C183	0.888140	0.069050	0.357210
C1841	C184	0.883480	0.027480	0.380320
C1851	C185	0.831230	0.992500	0.371230
C1861	C186	0.991130	0.149750	0.274900
C1871	C187	0.937880	0.188310	0.297090
C1881	C188	0.202810	0.884410	0.825320
C1891	C189	0.183380	0.885760	0.862180
C1901	C190	0.468480	0.043300	0.920260
C1911	C191	0.164990	0.846170	0.766200
C1921	C192	0.385900	0.972300	0.903620
C1931	C193	0.437280	0.046140	0.872560
C1941	C194	0.288160	0.930950	0.819090
C1951	C195	0.352840	0.972520	0.856000
C1961	C196	0.378730	0.007500	0.838730
C1971	C197	0.125150	0.850250	0.841380
C1981	C198	0.108780	0.811690	0.749570
C1991	C199	0.797190	0.622510	0.681600
C2001	C200	0.816620	0.678800	0.702380
C2011	C201	0.531520	0.451780	0.574820
C2021	C202	0.835010	0.601210	0.681180
C2031	C203	0.614100	0.517720	0.586400
C2041	C204	0.562720	0.435280	0.608860
C2051	C205	0.711840	0.530930	0.642790
C2061	C206	0.647160	0.503160	0.619680
C2071	C207	0.621270	0.460000	0.628770
C2081	C208	0.874850	0.716230	0.725100
C2091	C209	0.891220	0.640790	0.702910
C2101	C210	0.059090	0.377490	0.174680
C2111	C211	0.023580	0.321200	0.137820
C2121	C212	0.123040	0.548220	0.079740
C2131	C213	0.079970	0.398790	0.233800
C2141	C214	0.068680	0.482280	0.096380
C2151	C215	0.173580	0.564720	0.127440
C2161	C216	0.111860	0.469070	0.180910
C2171	C217	0.116520	0.496840	0.144000
C2181	C218	0.168770	0.540000	0.161270
C2191	C219	0.008870	0.283770	0.158620
C2201	C220	0.062120	0.359210	0.250430
C2211	C221	0.377490	0.174680	0.059090
C2221	C222	0.321200	0.137820	0.023580
C2231	C223	0.548220	0.079740	0.123040
C2241	C224	0.398790	0.233800	0.079970
C2251	C225	0.482280	0.096380	0.068680
C2261	C226	0.564720	0.127440	0.173580
C2271	C227	0.469070	0.180910	0.111860
C2281	C228	0.496840	0.144000	0.116520
C2291	C229	0.540000	0.161270	0.168770
C2301	C230	0.283770	0.158620	0.008870
C2311	C231	0.359210	0.250430	0.062120
C2321	C232	0.622510	0.681600	0.797190
C2331	C233	0.678800	0.702380	0.816620
C2341	C234	0.451780	0.574820	0.531520
C2351	C235	0.601210	0.681180	0.835010
C2361	C236	0.517720	0.586400	0.614100
C2371	C237	0.435280	0.608860	0.562720
C2381	C238	0.530930	0.642790	0.711840
C2391	C239	0.503160	0.619680	0.647160
C2401	C240	0.460000	0.628770	0.621270
C2411	C241	0.716230	0.725100	0.874850
C2421	C242	0.640790	0.702910	0.891220
C2431	C243	0.884410	0.825320	0.202810
C2441	C244	0.885760	0.862180	0.183380
C2451	C245	0.043300	0.920260	0.468480
C2461	C246	0.846170	0.766200	0.164990
C2471	C247	0.972300	0.903620	0.385900
C2481	C248	0.046140	0.872560	0.437280
C2491	C249	0.930950	0.819090	0.288160
C2501	C250	0.972520	0.856000	0.352840
C2511	C251	0.007500	0.838730	0.378730
C2521	C252	0.850250	0.841380	0.125150
C2531	C253	0.811690	0.749570	0.108780
C2541	C254	0.115590	0.318400	0.940910
C2551	C255	0.114240	0.297620	0.976420
C2561	C256	0.956700	0.425180	0.876960
C2571	C257	0.153830	0.318820	0.920030
C2581	C258	0.027700	0.413600	0.931320
C2591	C259	0.953860	0.391140	0.826420
C2601	C260	0.069050	0.357210	0.888140
C2611	C261	0.027480	0.380320	0.883480
C2621	C262	0.992500	0.371230	0.831230
C2631	C263	0.149750	0.274900	0.991130
C2641	C264	0.188310	0.297090	0.937880
N11	N1	0.442760	0.435850	0.508130
N21	N2	0.261100	0.338520	0.412940
N31	N3	0.089240	0.277670	0.304790
N41	N4	0.927720	0.934630	0.491870
N51	N5	0.925580	0.848160	0.587060
N61	N6	0.972880	0.784450	0.695210
N71	N7	0.072280	0.564150	0.006910
N81	N8	0.074420	0.661480	0.922580
N91	N9	0.027120	0.722330	0.811570
N101	N10	0.557240	0.065370	0.993090
N111	N11	0.738900	0.151840	0.077420
N121	N12	0.910760	0.215550	0.188430
N131	N13	0.006910	0.072280	0.564150
N141	N14	0.922580	0.074420	0.661480
N151	N15	0.811570	0.027120	0.722330
N161	N16	0.993090	0.557240	0.065370
N171	N17	0.077420	0.738900	0.151840
N181	N18	0.188430	0.910760	0.215550
N191	N19	0.508130	0.442760	0.435850
N201	N20	0.412940	0.261100	0.338520
N211	N21	0.304790	0.089240	0.277670
N221	N22	0.491870	0.927720	0.934630
N231	N23	0.587060	0.925580	0.848160
N241	N24	0.695210	0.972880	0.784450
N251	N25	0.934630	0.491870	0.927720
N261	N26	0.848160	0.587060	0.925580
N271	N27	0.784450	0.695210	0.972880
N281	N28	0.435850	0.508130	0.442760
N291	N29	0.338520	0.412940	0.261100
N301	N30	0.277670	0.304790	0.089240
N311	N31	0.065370	0.993090	0.557240
N321	N32	0.151840	0.077420	0.738900
N331	N33	0.215550	0.188430	0.910760
N341	N34	0.564150	0.006910	0.072280
N351	N35	0.661480	0.922580	0.074420
N361	N36	0.722330	0.811570	0.027120
N371	N37	0.564150	0.557240	0.491870
N381	N38	0.661480	0.738900	0.587060
N391	N39	0.722330	0.910760	0.695210
N401	N40	0.065370	0.072280	0.508130
N411	N41	0.151840	0.074420	0.412940
N421	N42	0.215550	0.027120	0.304790
N431	N43	0.435850	0.927720	0.993090
N441	N44	0.338520	0.925580	0.077420
N451	N45	0.277670	0.972880	0.188430
N461	N46	0.934630	0.442760	0.006910
N471	N47	0.848160	0.261100	0.922580
N481	N48	0.784450	0.089240	0.811570
N491	N49	0.927720	0.993090	0.435850
N501	N50	0.925580	0.077420	0.338520
N511	N51	0.972880	0.188430	0.277670
N521	N52	0.442760	0.006910	0.934630
N531	N53	0.261100	0.922580	0.848160
N541	N54	0.089240	0.811570	0.784450
N551	N55	0.557240	0.491870	0.564150
N561	N56	0.738900	0.587060	0.661480
N571	N57	0.910760	0.695210	0.722330
N581	N58	0.072280	0.508130	0.065370
N591	N59	0.074420	0.412940	0.151840
N601	N60	0.027120	0.304790	0.215550
N611	N61	0.508130	0.065370	0.072280
N621	N62	0.412940	0.151840	0.074420
N631	N63	0.304790	0.215550	0.027120
N641	N64	0.491870	0.564150	0.557240
N651	N65	0.587060	0.661480	0.738900
N661	N66	0.695210	0.722330	0.910760
N671	N67	0.006910	0.934630	0.442760
N681	N68	0.922580	0.848160	0.261100
N691	N69	0.811570	0.784450	0.089240
N701	N70	0.993090	0.435850	0.927720
N711	N71	0.077420	0.338520	0.925580
N721	N72	0.188430	0.277670	0.972880
O11	O1	0.265950	0.355600	0.499010
O21	O2	0.856590	0.766940	0.500990
O31	O3	0.143410	0.644400	0.910350
O41	O4	0.734050	0.233060	0.089650
O51	O5	0.910350	0.143410	0.644400
O61	O6	0.089650	0.734050	0.233060
O71	O7	0.499010	0.265950	0.355600
O81	O8	0.500990	0.856590	0.766940
O91	O9	0.766940	0.500990	0.856590
O101	O10	0.355600	0.499010	0.265950
O111	O11	0.233060	0.089650	0.734050
O121	O12	0.644400	0.910350	0.143410
O131	O13	0.644400	0.734050	0.500990
O141	O14	0.233060	0.143410	0.499010
O151	O15	0.355600	0.856590	0.089650
O161	O16	0.766940	0.265950	0.910350
O171	O17	0.856590	0.089650	0.355600
O181	O18	0.265950	0.910350	0.766940
O191	O19	0.734050	0.500990	0.644400
O201	O20	0.143410	0.499010	0.233060
O211	O21	0.499010	0.233060	0.143410
O221	O22	0.500990	0.644400	0.734050
O231	O23	0.910350	0.766940	0.265950
O241	O24	0.089650	0.355600	0.856590
N731	N73	0.663900	0.000000	0.000000
O251	O25	0.688840	0.023370	0.053250
O261	O26	0.665470	0.029880	0.976630
O271	O27	0.635590	0.946750	0.970120
N741	N74	0.000000	0.663900	0.000000
O281	O28	0.970120	0.635590	0.946750
O291	O29	0.053250	0.688840	0.023370
O301	O30	0.976630	0.665470	0.029880
N751	N75	0.000000	0.000000	0.663900
O311	O31	0.029880	0.976630	0.665470
O321	O32	0.946750	0.970120	0.635590
O331	O33	0.023370	0.053250	0.688840
N761	N76	0.336100	0.336100	0.336100
O341	O34	0.311160	0.364410	0.334530
O351	O35	0.334530	0.311160	0.364410
O361	O36	0.364410	0.334530	0.311160
N771	N77	0.000000	0.336100	0.000000
O371	O37	0.976630	0.311160	0.946750
O381	O38	0.970120	0.334530	0.023370
O391	O39	0.053250	0.364410	0.029880
N781	N78	0.336100	0.000000	0.000000
O401	O40	0.364410	0.029880	0.053250
O411	O41	0.311160	0.946750	0.976630
O421	O42	0.334530	0.023370	0.970120
N791	N79	0.000000	0.000000	0.336100
O431	O43	0.023370	0.970120	0.334530
O441	O44	0.029880	0.053250	0.364410
O451	O45	0.946750	0.976630	0.311160
N801	N80	0.663900	0.663900	0.663900
O461	O46	0.635590	0.688840	0.665470
O471	O47	0.688840	0.665470	0.635590
O481	O48	0.665470	0.635590	0.688840
N811	N81	0.808700	0.000000	0.191300
O491	O49	0.830100	0.965900	0.188000
O501	O50	0.812000	0.034100	0.169900
O511	O51	0.781200	0.000000	0.218800
N821	N82	0.808700	0.617400	0.808700
O521	O52	0.777900	0.642100	0.812000
O531	O53	0.864200	0.642100	0.830100
O541	O54	0.781200	0.562400	0.781200
N831	N83	0.191300	0.000000	0.808700
O551	O55	0.222100	0.034100	0.864200
O561	O56	0.135800	0.965900	0.777900
O571	O57	0.218800	0.000000	0.781200
N841	N84	0.191300	0.382600	0.191300
O581	O58	0.169900	0.357900	0.135800
O591	O59	0.188000	0.357900	0.222100
O601	O60	0.218800	0.437600	0.218800
N851	N85	0.808700	0.191300	0.000000
O611	O61	0.864200	0.222100	0.034100
O621	O62	0.777900	0.135800	0.965900
O631	O63	0.781200	0.218800	0.000000
N861	N86	0.191300	0.191300	0.382600
O641	O64	0.135800	0.169900	0.357900
O651	O65	0.222100	0.188000	0.357900
O661	O66	0.218800	0.218800	0.437600
N871	N87	0.191300	0.808700	0.000000
O671	O67	0.188000	0.830100	0.965900
O681	O68	0.169900	0.812000	0.034100
O691	O69	0.218800	0.781200	0.000000
N881	N88	0.808700	0.808700	0.617400
O701	O70	0.812000	0.777900	0.642100
O711	O71	0.830100	0.864200	0.642100
O721	O72	0.781200	0.781200	0.562400
N891	N89	0.617400	0.808700	0.808700
O731	O73	0.642100	0.812000	0.777900
O741	O74	0.642100	0.830100	0.864200
O751	O75	0.562400	0.781200	0.781200
N901	N90	0.000000	0.191300	0.808700
O761	O76	0.965900	0.188000	0.830100
O771	O77	0.034100	0.169900	0.812000
O781	O78	0.000000	0.218800	0.781200
N911	N91	0.382600	0.191300	0.191300
O791	O79	0.357900	0.135800	0.169900
O801	O80	0.357900	0.222100	0.188000
O811	O81	0.437600	0.218800	0.218800
N921	N92	0.000000	0.808700	0.191300
O821	O82	0.034100	0.864200	0.222100
O831	O83	0.965900	0.777900	0.135800
O841	O84	0.000000	0.781200	0.218800
