data_TATFOL_clean_PM
_symmetry_space_group_name_H-M	'P1'
_cell_length_a	18.707300
_cell_length_b	18.707300
_cell_length_c	7.979700
_cell_angle_alpha	90.000000
_cell_angle_beta	90.000000
_cell_angle_gamma	120.000000
_symmetry_Int_Tables_number 1

loop_
_symmetry_equiv_pos_as_xyz
'x,y,z'

loop_
_atom_site_label
_atom_site_type_symbol
_atom_site_fract_x
_atom_site_fract_y
_atom_site_fract_z
N11	N1	0.028680	0.104280	0.153100
N21	N2	0.085660	0.231600	0.249100
C11	C1	0.987430	0.105510	0.294600
C21	C2	0.022790	0.183380	0.356200
C31	C3	0.087680	0.181390	0.130000
C41	C4	0.138600	0.321510	0.257900
H11	H1	0.940000	0.059000	0.341000
H21	H2	0.011000	0.201000	0.458000
H31	H3	0.130000	0.204000	0.042000
H41	H4	0.110000	0.352000	0.263000
H51	H5	0.174000	0.337000	0.155000
N31	N3	0.695350	0.437610	0.486430
N41	N4	0.752330	0.564930	0.582430
C51	C5	0.654100	0.438840	0.627930
C61	C6	0.689460	0.516710	0.689530
C71	C7	0.754350	0.514720	0.463330
C81	C8	0.805270	0.654840	0.591230
H61	H6	0.606670	0.392330	0.674330
H71	H7	0.677670	0.534330	0.791330
H81	H8	0.796670	0.537330	0.375330
H91	H9	0.776670	0.685330	0.596330
H101	H10	0.840670	0.670330	0.488330
N51	N5	0.362010	0.770950	0.819770
N61	N6	0.418990	0.898270	0.915770
C91	C9	0.320760	0.772180	0.961270
C101	C10	0.356120	0.850050	0.022870
C111	C11	0.421010	0.848060	0.796670
C121	C12	0.471930	0.988180	0.924570
H111	H11	0.273330	0.725670	0.007670
H121	H12	0.344330	0.867670	0.124670
H131	H13	0.463330	0.870670	0.708670
H141	H14	0.443330	0.018670	0.929670
H151	H15	0.507330	0.003670	0.821670
N71	N7	0.895720	0.924400	0.153100
N81	N8	0.768400	0.854060	0.249100
C131	C13	0.894490	0.881920	0.294600
C141	C14	0.816620	0.839410	0.356200
C151	C15	0.818610	0.906290	0.130000
C161	C16	0.678490	0.817090	0.257900
H161	H16	0.941000	0.881000	0.341000
H171	H17	0.799000	0.810000	0.458000
H181	H18	0.796000	0.926000	0.042000
H191	H19	0.648000	0.758000	0.263000
H201	H20	0.663000	0.837000	0.155000
N91	N9	0.562390	0.257730	0.486430
N101	N10	0.435070	0.187390	0.582430
C171	C17	0.561160	0.215250	0.627930
C181	C18	0.483290	0.172740	0.689530
C191	C19	0.485280	0.239620	0.463330
C201	C20	0.345160	0.150420	0.591230
H211	H21	0.607670	0.214330	0.674330
H221	H22	0.465670	0.143330	0.791330
H231	H23	0.462670	0.259330	0.375330
H241	H24	0.314670	0.091330	0.596330
H251	H25	0.329670	0.170330	0.488330
N111	N11	0.229050	0.591070	0.819770
N121	N12	0.101730	0.520730	0.915770
C211	C21	0.227820	0.548590	0.961270
C221	C22	0.149950	0.506080	0.022870
C231	C23	0.151940	0.572960	0.796670
C241	C24	0.011820	0.483760	0.924570
H261	H26	0.274330	0.547670	0.007670
H271	H27	0.132330	0.476670	0.124670
H281	H28	0.129330	0.592670	0.708670
H291	H29	0.981330	0.424670	0.929670
H301	H30	0.996330	0.503670	0.821670
N131	N13	0.075600	0.971320	0.153100
N141	N14	0.145940	0.914340	0.249100
C251	C25	0.118080	0.012570	0.294600
C261	C26	0.160590	0.977210	0.356200
C271	C27	0.093710	0.912320	0.130000
C281	C28	0.182910	0.861400	0.257900
H311	H31	0.119000	0.060000	0.341000
H321	H32	0.190000	0.989000	0.458000
H331	H33	0.074000	0.870000	0.042000
H341	H34	0.242000	0.890000	0.263000
H351	H35	0.163000	0.826000	0.155000
N151	N15	0.742270	0.304650	0.486430
N161	N16	0.812610	0.247670	0.582430
C291	C29	0.784750	0.345900	0.627930
C301	C30	0.827260	0.310540	0.689530
C311	C31	0.760380	0.245650	0.463330
C321	C32	0.849580	0.194730	0.591230
H361	H36	0.785670	0.393330	0.674330
H371	H37	0.856670	0.322330	0.791330
H381	H38	0.740670	0.203330	0.375330
H391	H39	0.908670	0.223330	0.596330
H401	H40	0.829670	0.159330	0.488330
N171	N17	0.408930	0.637990	0.819770
N181	N18	0.479270	0.581010	0.915770
C331	C33	0.451410	0.679240	0.961270
C341	C34	0.493920	0.643880	0.022870
C351	C35	0.427040	0.578990	0.796670
C361	C36	0.516240	0.528070	0.924570
H411	H41	0.452330	0.726670	0.007670
H421	H42	0.523330	0.655670	0.124670
H431	H43	0.407330	0.536670	0.708670
H441	H44	0.575330	0.556670	0.929670
H451	H45	0.496330	0.492670	0.821670
N191	N19	0.971320	0.895720	0.846900
N201	N20	0.914340	0.768400	0.750900
C371	C37	0.012570	0.894490	0.705400
C381	C38	0.977210	0.816620	0.643800
C391	C39	0.912320	0.818610	0.870000
C401	C40	0.861400	0.678490	0.742100
H461	H46	0.060000	0.941000	0.659000
H471	H47	0.989000	0.799000	0.542000
H481	H48	0.870000	0.796000	0.958000
H491	H49	0.890000	0.648000	0.737000
H501	H50	0.826000	0.663000	0.845000
N211	N21	0.637990	0.229050	0.180230
N221	N22	0.581010	0.101730	0.084230
C411	C41	0.679240	0.227820	0.038730
C421	C42	0.643880	0.149950	0.977130
C431	C43	0.578990	0.151940	0.203330
C441	C44	0.528070	0.011820	0.075430
H511	H51	0.726670	0.274330	0.992330
H521	H52	0.655670	0.132330	0.875330
H531	H53	0.536670	0.129330	0.291330
H541	H54	0.556670	0.981330	0.070330
H551	H55	0.492670	0.996330	0.178330
N231	N23	0.304650	0.562390	0.513570
N241	N24	0.247670	0.435070	0.417570
C451	C45	0.345900	0.561160	0.372070
C461	C46	0.310540	0.483290	0.310470
C471	C47	0.245650	0.485280	0.536670
C481	C48	0.194730	0.345160	0.408770
H561	H56	0.393330	0.607670	0.325670
H571	H57	0.322330	0.465670	0.208670
H581	H58	0.203330	0.462670	0.624670
H591	H59	0.223330	0.314670	0.403670
H601	H60	0.159330	0.329670	0.511670
N251	N25	0.104280	0.075600	0.846900
N261	N26	0.231600	0.145940	0.750900
C491	C49	0.105510	0.118080	0.705400
C501	C50	0.183380	0.160590	0.643800
C511	C51	0.181390	0.093710	0.870000
C521	C52	0.321510	0.182910	0.742100
H611	H61	0.059000	0.119000	0.659000
H621	H62	0.201000	0.190000	0.542000
H631	H63	0.204000	0.074000	0.958000
H641	H64	0.352000	0.242000	0.737000
H651	H65	0.337000	0.163000	0.845000
N271	N27	0.770950	0.408930	0.180230
N281	N28	0.898270	0.479270	0.084230
C531	C53	0.772180	0.451410	0.038730
C541	C54	0.850050	0.493920	0.977130
C551	C55	0.848060	0.427040	0.203330
C561	C56	0.988180	0.516240	0.075430
H661	H66	0.725670	0.452330	0.992330
H671	H67	0.867670	0.523330	0.875330
H681	H68	0.870670	0.407330	0.291330
H691	H69	0.018670	0.575330	0.070330
H701	H70	0.003670	0.496330	0.178330
N291	N29	0.437610	0.742270	0.513570
N301	N30	0.564930	0.812610	0.417570
C571	C57	0.438840	0.784750	0.372070
C581	C58	0.516710	0.827260	0.310470
C591	C59	0.514720	0.760380	0.536670
C601	C60	0.654840	0.849580	0.408770
H711	H71	0.392330	0.785670	0.325670
H721	H72	0.534330	0.856670	0.208670
H731	H73	0.537330	0.740670	0.624670
H741	H74	0.685330	0.908670	0.403670
H751	H75	0.670330	0.829670	0.511670
N311	N31	0.924400	0.028680	0.846900
N321	N32	0.854060	0.085660	0.750900
C611	C61	0.881920	0.987430	0.705400
C621	C62	0.839410	0.022790	0.643800
C631	C63	0.906290	0.087680	0.870000
C641	C64	0.817090	0.138600	0.742100
H761	H76	0.881000	0.940000	0.659000
H771	H77	0.810000	0.011000	0.542000
H781	H78	0.926000	0.130000	0.958000
H791	H79	0.758000	0.110000	0.737000
H801	H80	0.837000	0.174000	0.845000
N331	N33	0.591070	0.362010	0.180230
N341	N34	0.520730	0.418990	0.084230
C651	C65	0.548590	0.320760	0.038730
C661	C66	0.506080	0.356120	0.977130
C671	C67	0.572960	0.421010	0.203330
C681	C68	0.483760	0.471930	0.075430
H811	H81	0.547670	0.273330	0.992330
H821	H82	0.476670	0.344330	0.875330
H831	H83	0.592670	0.463330	0.291330
H841	H84	0.424670	0.443330	0.070330
H851	H85	0.503670	0.507330	0.178330
N351	N35	0.257730	0.695350	0.513570
N361	N36	0.187390	0.752330	0.417570
C691	C69	0.215250	0.654100	0.372070
C701	C70	0.172740	0.689460	0.310470
C711	C71	0.239620	0.754350	0.536670
C721	C72	0.150420	0.805270	0.408770
H861	H86	0.214330	0.606670	0.325670
H871	H87	0.143330	0.677670	0.208670
H881	H88	0.259330	0.796670	0.624670
H891	H89	0.091330	0.776670	0.403670
H901	H90	0.170330	0.840670	0.511670
Ni11	Ni1	0.000000	0.000000	0.000000
Ni21	Ni2	0.666670	0.333330	0.333330
Ni31	Ni3	0.333330	0.666670	0.666670
