data_TATSIS01_clean_PM
_symmetry_space_group_name_H-M	'P1'
_cell_length_a	9.810000
_cell_length_b	12.753000
_cell_length_c	10.917000
_cell_angle_alpha	90.000000
_cell_angle_beta	100.630000
_cell_angle_gamma	90.000000
_symmetry_Int_Tables_number 1

loop_
_symmetry_equiv_pos_as_xyz
'x,y,z'

loop_
_atom_site_label
_atom_site_type_symbol
_atom_site_fract_x
_atom_site_fract_y
_atom_site_fract_z
C11	C1	0.136000	0.514800	0.677500
H11	H1	0.132600	0.523800	0.761400
N11	N1	0.139500	0.416800	0.632600
C21	C2	0.145800	0.404400	0.514100
H21	H2	0.146800	0.336800	0.482200
O11	O1	0.266500	0.692600	0.357100
N21	N2	0.641200	0.424100	0.646000
C31	C3	0.529900	0.484200	0.608600
H31	H3	0.447400	0.466500	0.634000
O21	O2	0.018300	0.375100	0.855700
O31	O3	0.812000	0.316400	0.877500
N31	N3	0.611200	0.143700	0.853300
Co11	Co1	0.376640	0.783340	0.248770
Co21	Co2	0.872660	0.781840	0.250410
O41	O4	0.768600	0.688500	0.356400
O51	O5	0.478800	0.869200	0.133900
O61	O6	0.049800	0.745800	0.376900
C41	C4	0.153600	0.682200	0.397900
C51	C5	0.658700	0.682900	0.404400
O71	O7	0.554600	0.748700	0.378000
C61	C6	0.599100	0.970000	0.008800
C71	C7	0.654800	0.596500	0.492600
C81	C8	0.147800	0.590200	0.478900
O81	O8	0.694300	0.826700	0.125900
C91	C9	0.481400	0.028300	0.962900
H41	H4	0.396900	0.010100	0.984000
C101	C10	0.721900	0.998000	0.973300
H51	H5	0.802100	0.959200	0.000000
N41	N4	0.884900	0.647400	0.135600
C111	C11	0.724000	0.085100	0.897100
H61	H6	0.807900	0.104000	0.875100
C121	C12	0.890000	0.547800	0.179400
H71	H7	0.889900	0.537300	0.263700
C131	C13	0.891500	0.574600	0.931500
H81	H8	0.893300	0.585800	0.847600
C141	C14	0.137200	0.602200	0.603700
H91	H9	0.131000	0.668800	0.636900
C151	C15	0.884900	0.658300	0.011300
H101	H10	0.880200	0.725700	0.978200
C161	C16	0.151000	0.489400	0.434800
H111	H11	0.156600	0.477900	0.351800
C171	C17	0.770200	0.535300	0.534700
H121	H12	0.854700	0.550800	0.511800
C181	C18	0.758300	0.449900	0.612200
H131	H13	0.836700	0.409700	0.641000
C191	C19	0.895300	0.460400	0.103700
H141	H14	0.898800	0.393500	0.137900
C201	C20	0.895400	0.473100	0.979900
C211	C21	0.489200	0.112900	0.886600
H151	H15	0.408800	0.150700	0.856500
C221	C22	0.531400	0.571700	0.533700
H161	H16	0.452600	0.613000	0.511300
C231	C23	0.908100	0.376800	0.894600
C241	C24	0.591400	0.878400	0.100400
C251	C25	0.864000	0.014800	0.322500
H171	H17	0.867400	0.023800	0.238600
N51	N5	0.860500	0.916800	0.367400
C261	C26	0.854200	0.904400	0.485900
H181	H18	0.853200	0.836800	0.517800
O91	O9	0.733500	0.192600	0.642900
N61	N6	0.358800	0.924100	0.354000
C271	C27	0.470100	0.984200	0.391400
H191	H19	0.552600	0.966500	0.366000
O101	O10	0.981700	0.875100	0.144300
O111	O11	0.188000	0.816400	0.122500
N71	N7	0.388800	0.643700	0.146700
Co31	Co3	0.623360	0.283340	0.751230
Co41	Co4	0.127340	0.281840	0.749590
O121	O12	0.231400	0.188500	0.643600
O131	O13	0.521200	0.369200	0.866100
O141	O14	0.950200	0.245800	0.623100
C281	C28	0.846400	0.182200	0.602100
C291	C29	0.341300	0.182900	0.595600
O151	O15	0.445400	0.248700	0.622000
C301	C30	0.400900	0.470000	0.991200
C311	C31	0.345200	0.096500	0.507400
C321	C32	0.852200	0.090200	0.521100
O161	O16	0.305700	0.326700	0.874100
C331	C33	0.518600	0.528300	0.037100
H201	H20	0.603100	0.510100	0.016000
C341	C34	0.278100	0.498000	0.026700
H211	H21	0.197900	0.459200	0.000000
N81	N8	0.115100	0.147400	0.864400
C351	C35	0.276000	0.585100	0.102900
H221	H22	0.192100	0.604000	0.124900
C361	C36	0.110000	0.047800	0.820600
H231	H23	0.110100	0.037300	0.736300
C371	C37	0.108500	0.074600	0.068500
H241	H24	0.106700	0.085800	0.152400
C381	C38	0.862800	0.102200	0.396300
H251	H25	0.869000	0.168800	0.363100
C391	C39	0.115100	0.158300	0.988700
H261	H26	0.119800	0.225700	0.021800
C401	C40	0.849000	0.989400	0.565200
H271	H27	0.843400	0.977900	0.648200
C411	C41	0.229800	0.035300	0.465300
H281	H28	0.145300	0.050800	0.488200
C421	C42	0.241700	0.949900	0.387800
H291	H29	0.163300	0.909700	0.359000
C431	C43	0.104700	0.960400	0.896300
H301	H30	0.101200	0.893500	0.862100
C441	C44	0.104600	0.973100	0.020100
C451	C45	0.510800	0.612900	0.113400
H311	H31	0.591200	0.650700	0.143500
C461	C46	0.468600	0.071700	0.466300
H321	H32	0.547400	0.113000	0.488700
C471	C47	0.091900	0.876800	0.105400
C481	C48	0.408600	0.378400	0.899600
