data_TATSIS_clean_PM
_symmetry_space_group_name_H-M	'P1'
_cell_length_a	9.819000
_cell_length_b	11.073100
_cell_length_c	12.649900
_cell_angle_alpha	90.000000
_cell_angle_beta	90.000000
_cell_angle_gamma	99.852000
_symmetry_Int_Tables_number 1

loop_
_symmetry_equiv_pos_as_xyz
'x,y,z'

loop_
_atom_site_label
_atom_site_type_symbol
_atom_site_fract_x
_atom_site_fract_y
_atom_site_fract_z
Co11	Co1	0.872800	0.750770	0.566320
Co21	Co2	0.376400	0.748120	0.564360
Co31	Co3	0.127200	0.249230	0.066320
Co41	Co4	0.623600	0.251880	0.064360
H11	H1	0.103400	0.367400	0.458600
H21	H2	0.851500	0.015900	0.515500
H31	H3	0.454400	0.007800	0.735000
H41	H4	0.102900	0.241300	0.312700
H51	H5	0.602900	0.512600	0.839400
H61	H6	0.105500	0.646900	0.258800
H71	H7	0.445400	0.131400	0.884800
H81	H8	0.841100	0.148200	0.377000
H91	H9	0.120900	0.519200	0.123300
H101	H10	0.194700	0.627200	0.745800
H111	H11	0.587900	0.641800	0.698200
H121	H12	0.852800	0.007800	0.800100
H131	H13	0.871600	0.868800	0.181900
H141	H14	0.871800	0.745600	0.323200
H151	H15	0.192300	0.494200	0.880900
H161	H16	0.836500	0.135300	0.939800
H171	H17	0.896600	0.632600	0.958600
H181	H18	0.148500	0.984100	0.015500
H191	H19	0.545600	0.992200	0.235000
H201	H20	0.897100	0.758700	0.812700
H211	H21	0.397100	0.487400	0.339400
H221	H22	0.894500	0.353100	0.758800
H231	H23	0.554600	0.868600	0.384800
H241	H24	0.158900	0.851800	0.877000
H251	H25	0.879100	0.480800	0.623300
H261	H26	0.805300	0.372800	0.245800
H271	H27	0.412100	0.358200	0.198200
H281	H28	0.147200	0.992200	0.300100
H291	H29	0.128400	0.131200	0.681900
H301	H30	0.128200	0.254400	0.823200
H311	H31	0.807700	0.505800	0.380900
H321	H32	0.163500	0.864700	0.439800
C11	C1	0.652100	0.897800	0.664800
C21	C2	0.652100	0.989200	0.754100
C31	C3	0.104600	0.399700	0.390700
C41	C4	0.853100	0.985700	0.447000
C51	C5	0.532300	0.030000	0.777000
C61	C6	0.107200	0.324900	0.301600
C71	C7	0.407400	0.398200	0.966900
C81	C8	0.092900	0.604800	0.466500
C91	C9	0.397500	0.486900	0.875000
C101	C10	0.103900	0.523900	0.374100
C111	C11	0.518500	0.533300	0.820200
C121	C12	0.107900	0.564800	0.272400
C131	C13	0.528400	0.107100	0.866400
C141	C14	0.847400	0.066700	0.364000
C151	C15	0.115400	0.486900	0.191300
C161	C16	0.277200	0.601700	0.763700
C171	C17	0.508300	0.611300	0.736300
C181	C18	0.768600	0.031500	0.815700
C191	C19	0.864100	0.901300	0.249000
C201	C20	0.866300	0.827700	0.333900
C211	C21	0.274300	0.523200	0.845400
C221	C22	0.846600	0.109000	0.167600
C231	C23	0.758000	0.108300	0.899400
C241	C24	0.851300	0.022600	0.258300
C251	C25	0.347900	0.102200	0.164800
C261	C26	0.347900	0.010800	0.254100
C271	C27	0.895400	0.600300	0.890700
C281	C28	0.146900	0.014300	0.947000
C291	C29	0.467700	0.970000	0.277000
C301	C30	0.892800	0.675100	0.801600
C311	C31	0.592600	0.601800	0.466900
C321	C32	0.907100	0.395200	0.966500
C331	C33	0.602500	0.513100	0.375000
C341	C34	0.896100	0.476100	0.874100
C351	C35	0.481500	0.466700	0.320200
C361	C36	0.892100	0.435200	0.772400
C371	C37	0.471600	0.892900	0.366400
C381	C38	0.152600	0.933300	0.864000
C391	C39	0.884600	0.513100	0.691300
C401	C40	0.722800	0.398300	0.263700
C411	C41	0.491700	0.388700	0.236300
C421	C42	0.231400	0.968500	0.315700
C431	C43	0.135900	0.098700	0.749000
C441	C44	0.133700	0.172300	0.833900
C451	C45	0.725700	0.476800	0.345400
C461	C46	0.153400	0.891000	0.667600
C471	C47	0.242000	0.891700	0.399400
C481	C48	0.148700	0.977400	0.758300
N11	N1	0.115400	0.365200	0.202000
N21	N2	0.387900	0.645400	0.707000
N31	N3	0.860700	0.869700	0.435000
N41	N4	0.641800	0.145700	0.925100
N51	N5	0.884600	0.634800	0.702000
N61	N6	0.612100	0.354600	0.207000
N71	N7	0.139300	0.130300	0.935000
N81	N8	0.358200	0.854300	0.425100
O11	O1	0.555200	0.875200	0.605500
O21	O2	0.299000	0.370900	0.020800
O31	O3	0.984800	0.645600	0.474400
O41	O4	0.518200	0.364700	0.980800
O51	O5	0.193800	0.625700	0.532300
O61	O6	0.734000	0.147200	0.159600
O71	O7	0.947500	0.126300	0.108900
O81	O8	0.767700	0.851600	0.664500
O91	O9	0.444800	0.124800	0.105500
O101	O10	0.701000	0.629100	0.520800
O111	O11	0.015200	0.354400	0.974400
O121	O12	0.481800	0.635300	0.480800
O131	O13	0.806200	0.374300	0.032300
O141	O14	0.266000	0.852800	0.659600
O151	O15	0.052500	0.873700	0.608900
O161	O16	0.232300	0.148400	0.164500
