data_TATYUL_clean_PM
_symmetry_space_group_name_H-M	'P1'
_cell_length_a	17.308800
_cell_length_b	17.427700
_cell_length_c	7.894900
_cell_angle_alpha	90.000000
_cell_angle_beta	90.000000
_cell_angle_gamma	90.000000
_symmetry_Int_Tables_number 1

loop_
_symmetry_equiv_pos_as_xyz
'x,y,z'

loop_
_atom_site_label
_atom_site_type_symbol
_atom_site_fract_x
_atom_site_fract_y
_atom_site_fract_z
Ca11	Ca1	0.919510	0.303820	0.179590
O11	O1	0.927500	0.627700	0.547700
O21	O2	0.978200	0.610300	0.804100
O31	O3	0.843270	0.361290	0.983400
O41	O4	0.821140	0.286080	0.684600
O51	O5	0.844810	0.358020	0.383100
C11	C1	0.941200	0.585700	0.678000
C21	C2	0.910200	0.506300	0.680000
C31	C3	0.895600	0.469900	0.835600
H11	H1	0.907600	0.494700	0.936500
C41	C4	0.863000	0.396300	0.838700
C51	C5	0.849200	0.358400	0.682200
C61	C6	0.863300	0.394700	0.526800
C71	C7	0.894300	0.469000	0.527900
H21	H2	0.904400	0.493700	0.425900
O61	O6	0.992400	0.255100	0.926600
K11	K1	0.783940	0.482070	0.182510
O71	O7	0.732400	0.591800	0.941600
Ca21	Ca2	0.580490	0.196180	0.179590
O81	O8	0.572500	0.872300	0.547700
O91	O9	0.521800	0.889700	0.804100
O101	O10	0.656730	0.138710	0.983400
O111	O11	0.678860	0.213920	0.684600
O121	O12	0.655190	0.141980	0.383100
C81	C8	0.558800	0.914300	0.678000
C91	C9	0.589800	0.993700	0.680000
C101	C10	0.604400	0.030100	0.835600
H31	H3	0.592400	0.005300	0.936500
C111	C11	0.637000	0.103700	0.838700
C121	C12	0.650800	0.141600	0.682200
C131	C13	0.636700	0.105300	0.526800
C141	C14	0.605700	0.031000	0.527900
H41	H4	0.595600	0.006300	0.425900
O131	O13	0.507600	0.244900	0.926600
K21	K2	0.716060	0.017930	0.182510
O141	O14	0.767600	0.908200	0.941600
Ca31	Ca3	0.080490	0.803820	0.320410
O151	O15	0.072500	0.127700	0.952300
O161	O16	0.021800	0.110300	0.695900
O171	O17	0.156730	0.861290	0.516600
O181	O18	0.178860	0.786080	0.815400
O191	O19	0.155190	0.858020	0.116900
C151	C15	0.058800	0.085700	0.822000
C161	C16	0.089800	0.006300	0.820000
C171	C17	0.104400	0.969900	0.664400
H51	H5	0.092400	0.994700	0.563500
C181	C18	0.137000	0.896300	0.661300
C191	C19	0.150800	0.858400	0.817800
C201	C20	0.136700	0.894700	0.973200
C211	C21	0.105700	0.969000	0.972100
H61	H6	0.095600	0.993700	0.074100
O201	O20	0.007600	0.755100	0.573400
K31	K3	0.216060	0.982070	0.317490
O211	O21	0.267600	0.091800	0.558400
Ca41	Ca4	0.419510	0.696180	0.320410
O221	O22	0.427500	0.372300	0.952300
O231	O23	0.478200	0.389700	0.695900
O241	O24	0.343270	0.638710	0.516600
O251	O25	0.321140	0.713920	0.815400
O261	O26	0.344810	0.641980	0.116900
C221	C22	0.441200	0.414300	0.822000
C231	C23	0.410200	0.493700	0.820000
C241	C24	0.395600	0.530100	0.664400
H71	H7	0.407600	0.505300	0.563500
C251	C25	0.363000	0.603700	0.661300
C261	C26	0.349200	0.641600	0.817800
C271	C27	0.363300	0.605300	0.973200
C281	C28	0.394300	0.531000	0.972100
H81	H8	0.404400	0.506300	0.074100
O271	O27	0.492400	0.744900	0.573400
K41	K4	0.283940	0.517930	0.317490
O281	O28	0.232400	0.408200	0.558400
Ca51	Ca5	0.080490	0.696180	0.820410
O291	O29	0.072500	0.372300	0.452300
O301	O30	0.021800	0.389700	0.195900
O311	O31	0.156730	0.638710	0.016600
O321	O32	0.178860	0.713920	0.315400
O331	O33	0.155190	0.641980	0.616900
C291	C29	0.058800	0.414300	0.322000
C301	C30	0.089800	0.493700	0.320000
C311	C31	0.104400	0.530100	0.164400
H91	H9	0.092400	0.505300	0.063500
C321	C32	0.137000	0.603700	0.161300
C331	C33	0.150800	0.641600	0.317800
C341	C34	0.136700	0.605300	0.473200
C351	C35	0.105700	0.531000	0.472100
H101	H10	0.095600	0.506300	0.574100
O341	O34	0.007600	0.744900	0.073400
K51	K5	0.216060	0.517930	0.817490
O351	O35	0.267600	0.408200	0.058400
Ca61	Ca6	0.419510	0.803820	0.820410
O361	O36	0.427500	0.127700	0.452300
O371	O37	0.478200	0.110300	0.195900
O381	O38	0.343270	0.861290	0.016600
O391	O39	0.321140	0.786080	0.315400
O401	O40	0.344810	0.858020	0.616900
C361	C36	0.441200	0.085700	0.322000
C371	C37	0.410200	0.006300	0.320000
C381	C38	0.395600	0.969900	0.164400
H111	H11	0.407600	0.994700	0.063500
C391	C39	0.363000	0.896300	0.161300
C401	C40	0.349200	0.858400	0.317800
C411	C41	0.363300	0.894700	0.473200
C421	C42	0.394300	0.969000	0.472100
H121	H12	0.404400	0.993700	0.574100
O411	O41	0.492400	0.755100	0.073400
K61	K6	0.283940	0.982070	0.817490
O421	O42	0.232400	0.091800	0.058400
Ca71	Ca7	0.919510	0.196180	0.679590
O431	O43	0.927500	0.872300	0.047700
O441	O44	0.978200	0.889700	0.304100
O451	O45	0.843270	0.138710	0.483400
O461	O46	0.821140	0.213920	0.184600
O471	O47	0.844810	0.141980	0.883100
C431	C43	0.941200	0.914300	0.178000
C441	C44	0.910200	0.993700	0.180000
C451	C45	0.895600	0.030100	0.335600
H131	H13	0.907600	0.005300	0.436500
C461	C46	0.863000	0.103700	0.338700
C471	C47	0.849200	0.141600	0.182200
C481	C48	0.863300	0.105300	0.026800
C491	C49	0.894300	0.031000	0.027900
H141	H14	0.904400	0.006300	0.925900
O481	O48	0.992400	0.244900	0.426600
K71	K7	0.783940	0.017930	0.682510
O491	O49	0.732400	0.908200	0.441600
Ca81	Ca8	0.580490	0.303820	0.679590
O501	O50	0.572500	0.627700	0.047700
O511	O51	0.521800	0.610300	0.304100
O521	O52	0.656730	0.361290	0.483400
O531	O53	0.678860	0.286080	0.184600
O541	O54	0.655190	0.358020	0.883100
C501	C50	0.558800	0.585700	0.178000
C511	C51	0.589800	0.506300	0.180000
C521	C52	0.604400	0.469900	0.335600
H151	H15	0.592400	0.494700	0.436500
C531	C53	0.637000	0.396300	0.338700
C541	C54	0.650800	0.358400	0.182200
C551	C55	0.636700	0.394700	0.026800
C561	C56	0.605700	0.469000	0.027900
H161	H16	0.595600	0.493700	0.925900
O551	O55	0.507600	0.255100	0.426600
K81	K8	0.716060	0.482070	0.682510
O561	O56	0.767600	0.591800	0.441600
Ca91	Ca9	0.750000	0.250000	0.933780
Ca101	Ca10	0.250000	0.750000	0.566220
Ca111	Ca11	0.250000	0.750000	0.066220
Ca121	Ca12	0.750000	0.250000	0.433780
