data_TAVQEN_clean_PM
_symmetry_space_group_name_H-M	'P1'
_cell_length_a	9.404900
_cell_length_b	12.773900
_cell_length_c	8.580500
_cell_angle_alpha	90.000000
_cell_angle_beta	112.796000
_cell_angle_gamma	90.000000
_symmetry_Int_Tables_number 1

loop_
_symmetry_equiv_pos_as_xyz
'x,y,z'

loop_
_atom_site_label
_atom_site_type_symbol
_atom_site_fract_x
_atom_site_fract_y
_atom_site_fract_z
Al11	Al1	0.436100	0.098900	0.408400
Al21	Al2	0.126300	0.382300	0.180300
P11	P1	0.215900	0.950100	0.481800
P21	P2	0.294100	0.211200	0.047000
F11	F1	0.488700	0.963500	0.366300
O11	O1	0.380000	0.146700	0.194100
O21	O2	0.405800	0.275800	0.005400
O31	O3	0.169000	0.280100	0.075800
O41	O4	0.237700	0.032900	0.369200
O51	O5	0.346600	0.875000	0.537600
O61	O6	0.066800	0.888000	0.375400
O71	O7	0.198800	0.997000	0.637900
O81	O8	0.203500	0.140800	0.895500
Al31	Al3	0.563900	0.598900	0.091600
Al41	Al4	0.873700	0.882300	0.319700
P31	P3	0.784100	0.450100	0.018200
P41	P4	0.705900	0.711200	0.453000
F21	F2	0.511300	0.463500	0.133700
O91	O9	0.620000	0.646700	0.305900
O101	O10	0.594200	0.775800	0.494600
O111	O11	0.831000	0.780100	0.424200
O121	O12	0.762300	0.532900	0.130800
O131	O13	0.653400	0.375000	0.962400
O141	O14	0.933200	0.388000	0.124600
O151	O15	0.801200	0.497000	0.862100
O161	O16	0.796500	0.640800	0.604500
Al51	Al5	0.563900	0.901100	0.591600
Al61	Al6	0.873700	0.617700	0.819700
P51	P5	0.784100	0.049900	0.518200
P61	P6	0.705900	0.788800	0.953000
F31	F3	0.511300	0.036500	0.633700
O171	O17	0.620000	0.853300	0.805900
O181	O18	0.594200	0.724200	0.994600
O191	O19	0.831000	0.719900	0.924200
O201	O20	0.762300	0.967100	0.630800
O211	O21	0.653400	0.125000	0.462400
O221	O22	0.933200	0.112000	0.624600
O231	O23	0.801200	0.003000	0.362100
O241	O24	0.796500	0.859200	0.104500
Al71	Al7	0.436100	0.401100	0.908400
Al81	Al8	0.126300	0.117700	0.680300
P71	P7	0.215900	0.549900	0.981800
P81	P8	0.294100	0.288800	0.547000
F41	F4	0.488700	0.536500	0.866300
O251	O25	0.380000	0.353300	0.694100
O261	O26	0.405800	0.224200	0.505400
O271	O27	0.169000	0.219900	0.575800
O281	O28	0.237700	0.467100	0.869200
O291	O29	0.346600	0.625000	0.037600
O301	O30	0.066800	0.612000	0.875400
O311	O31	0.198800	0.503000	0.137900
O321	O32	0.203500	0.359200	0.395500
