data_TAWYUO_clean_PM
_symmetry_space_group_name_H-M	'P1'
_cell_length_a	18.777000
_cell_length_b	8.742300
_cell_length_c	29.733000
_cell_angle_alpha	90.000000
_cell_angle_beta	90.225000
_cell_angle_gamma	90.000000
_symmetry_Int_Tables_number 1

loop_
_symmetry_equiv_pos_as_xyz
'x,y,z'

loop_
_atom_site_label
_atom_site_type_symbol
_atom_site_fract_x
_atom_site_fract_y
_atom_site_fract_z
Zn11	Zn1	0.182670	0.720690	0.249340
O11	O1	0.108900	0.418800	0.237590
C11	C1	0.127700	0.474400	0.202100
O21	O2	0.147200	0.613100	0.195940
C21	C2	0.130600	0.378500	0.159200
H11	H1	0.106100	0.432900	0.135300
H21	H2	0.179900	0.366200	0.150300
O31	O3	0.099100	0.231200	0.164320
C31	C3	0.025900	0.225900	0.164800
O41	O4	0.288700	0.670400	0.239040
C41	C4	0.981200	0.351100	0.161500
H31	H3	0.000200	0.449300	0.161000
O51	O5	0.285000	0.430800	0.264370
C51	C5	0.907600	0.331000	0.159000
O61	O6	0.419200	0.382200	0.245940
C61	C6	0.878900	0.184000	0.160900
O71	O7	0.673700	0.780900	0.926480
C71	C7	0.923400	0.056900	0.167500
O81	O8	0.682600	0.635900	0.846460
C81	C8	0.997000	0.079000	0.168800
H41	H4	0.027100	0.995400	0.172300
O91	O9	0.665900	0.856700	0.809620
C91	C9	0.861300	0.468800	0.153200
H51	H5	0.890600	0.557100	0.148100
H61	H6	0.833500	0.483800	0.179800
H71	H7	0.830200	0.453800	0.127900
C101	C10	0.895000	0.895200	0.172000
H81	H8	0.880100	0.858500	0.143000
H91	H9	0.855100	0.894700	0.192100
H101	H10	0.931700	0.829800	0.183700
C111	C11	0.801300	0.158700	0.150200
C121	C12	0.745000	0.204700	0.177500
H111	H11	0.754900	0.249800	0.205200
C131	C13	0.675100	0.184900	0.164400
C141	C14	0.660700	0.112500	0.122800
H121	H12	0.613800	0.095900	0.114000
C151	C15	0.716400	0.065600	0.094900
C161	C16	0.786300	0.088100	0.108900
H131	H13	0.823600	0.056000	0.090700
C171	C17	0.612500	0.238900	0.190900
C181	C18	0.598200	0.395300	0.193400
C191	C19	0.533100	0.447000	0.212400
H141	H14	0.522900	0.551000	0.213900
C201	C20	0.485600	0.341400	0.228600
C211	C21	0.500500	0.185900	0.228300
H151	H15	0.468300	0.116600	0.240400
C221	C22	0.564400	0.134100	0.209600
C231	C23	0.578100	0.962200	0.209200
H161	H16	0.558800	0.918600	0.182200
H171	H17	0.555700	0.916200	0.234800
H181	H18	0.628500	0.943600	0.210500
C241	C24	0.648700	0.513400	0.175000
H191	H19	0.659800	0.489300	0.144300
H201	H20	0.691700	0.513700	0.192600
H211	H21	0.626800	0.612600	0.176400
C251	C25	0.395100	0.531900	0.235700
H221	H22	0.402000	0.553000	0.204000
H231	H23	0.422000	0.606400	0.252900
C261	C26	0.316300	0.543500	0.247300
C271	C27	0.702800	0.992100	0.049900
C281	C28	0.709300	0.831900	0.044800
C291	C29	0.699000	0.766200	0.003000
H241	H24	0.703600	0.661000	0.999500
C301	C30	0.681600	0.857300	0.965900
C311	C31	0.673900	0.014500	0.970900
H251	H25	0.661800	0.074800	0.946300
C321	C32	0.684400	0.082000	0.013300
C331	C33	0.678500	0.254500	0.016700
H261	H26	0.666300	0.296100	0.987800
H271	H27	0.723300	0.296100	0.026500
H281	H28	0.642200	0.280600	0.038000
C341	C34	0.730500	0.734400	0.084700
H291	H29	0.728600	0.628300	0.076400
H301	H30	0.698200	0.752800	0.109100
H311	H31	0.778000	0.760300	0.094000
C351	C35	0.663400	0.872900	0.886900
H321	H32	0.698400	0.954500	0.886300
H331	H33	0.616400	0.918800	0.887400
C361	C36	0.671100	0.774200	0.845200
Zn21	Zn2	0.317330	0.220690	0.250660
O101	O10	0.391100	0.918800	0.262410
C371	C37	0.372300	0.974400	0.297900
O111	O11	0.352800	0.113100	0.304060
C381	C38	0.369400	0.878500	0.340800
H341	H34	0.393900	0.932900	0.364700
H351	H35	0.320100	0.866200	0.349700
O121	O12	0.400900	0.731200	0.335680
C391	C39	0.474100	0.725900	0.335200
O131	O13	0.211300	0.170400	0.260960
C401	C40	0.518800	0.851100	0.338500
H361	H36	0.499800	0.949300	0.339000
O141	O14	0.215000	0.930800	0.235630
C411	C41	0.592400	0.831000	0.341000
O151	O15	0.080800	0.882200	0.254060
C421	C42	0.621100	0.684000	0.339100
O161	O16	0.826300	0.280900	0.573520
C431	C43	0.576600	0.556900	0.332500
O171	O17	0.817400	0.135900	0.653540
C441	C44	0.503000	0.579000	0.331200
H371	H37	0.472900	0.495400	0.327700
O181	O18	0.834100	0.356700	0.690380
C451	C45	0.638700	0.968800	0.346800
H381	H38	0.609400	0.057100	0.351900
H391	H39	0.666500	0.983800	0.320200
H401	H40	0.669800	0.953800	0.372100
C461	C46	0.605000	0.395200	0.328000
H411	H41	0.619900	0.358500	0.357000
H421	H42	0.644900	0.394700	0.307900
H431	H43	0.568300	0.329800	0.316300
C471	C47	0.698700	0.658700	0.349800
C481	C48	0.755000	0.704700	0.322500
H441	H44	0.745100	0.749800	0.294800
C491	C49	0.824900	0.684900	0.335600
C501	C50	0.839300	0.612500	0.377200
H451	H45	0.886200	0.595900	0.386000
C511	C51	0.783600	0.565600	0.405100
C521	C52	0.713700	0.588100	0.391100
H461	H46	0.676400	0.556000	0.409300
C531	C53	0.887500	0.738900	0.309100
C541	C54	0.901800	0.895300	0.306600
C551	C55	0.966900	0.947000	0.287600
H471	H47	0.977100	0.051000	0.286100
C561	C56	0.014400	0.841400	0.271400
C571	C57	0.999500	0.685900	0.271700
H481	H48	0.031700	0.616600	0.259600
C581	C58	0.935600	0.634100	0.290400
C591	C59	0.921900	0.462200	0.290800
H491	H49	0.941200	0.418600	0.317800
H501	H50	0.944300	0.416200	0.265200
H511	H51	0.871500	0.443600	0.289500
C601	C60	0.851300	0.013400	0.325000
H521	H52	0.840200	0.989300	0.355700
H531	H53	0.808300	0.013700	0.307400
H541	H54	0.873200	0.112600	0.323600
C611	C61	0.104900	0.031900	0.264300
H551	H55	0.098000	0.053000	0.296000
H561	H56	0.078000	0.106400	0.247100
C621	C62	0.183700	0.043500	0.252700
C631	C63	0.797200	0.492100	0.450100
C641	C64	0.790700	0.331900	0.455200
C651	C65	0.801000	0.266200	0.497000
H571	H57	0.796400	0.161000	0.500500
C661	C66	0.818400	0.357300	0.534100
C671	C67	0.826100	0.514500	0.529100
H581	H58	0.838200	0.574800	0.553700
C681	C68	0.815600	0.582000	0.486700
C691	C69	0.821500	0.754500	0.483300
H591	H59	0.833700	0.796100	0.512200
H601	H60	0.776700	0.796100	0.473500
H611	H61	0.857800	0.780600	0.462000
C701	C70	0.769500	0.234400	0.415300
H621	H62	0.771400	0.128300	0.423600
H631	H63	0.801800	0.252800	0.390900
H641	H64	0.722000	0.260300	0.406000
C711	C71	0.836600	0.372900	0.613100
H651	H65	0.801600	0.454500	0.613700
H661	H66	0.883600	0.418800	0.612600
C721	C72	0.828900	0.274200	0.654800
Zn31	Zn3	0.817330	0.279310	0.750660
O191	O19	0.891100	0.581200	0.762410
C731	C73	0.872300	0.525600	0.797900
O201	O20	0.852800	0.386900	0.804060
C741	C74	0.869400	0.621500	0.840800
H671	H67	0.893900	0.567100	0.864700
H681	H68	0.820100	0.633800	0.849700
O211	O21	0.900900	0.768800	0.835680
C751	C75	0.974100	0.774100	0.835200
O221	O22	0.711300	0.329600	0.760960
C761	C76	0.018800	0.648900	0.838500
H691	H69	0.999800	0.550700	0.839000
O231	O23	0.715000	0.569200	0.735630
C771	C77	0.092400	0.669000	0.841000
O241	O24	0.580800	0.617800	0.754060
C781	C78	0.121100	0.816000	0.839100
O251	O25	0.326300	0.219100	0.073520
C791	C79	0.076600	0.943100	0.832500
O261	O26	0.317400	0.364100	0.153540
C801	C80	0.003000	0.921000	0.831200
H701	H70	0.972900	0.004600	0.827700
O271	O27	0.334100	0.143300	0.190380
C811	C81	0.138700	0.531200	0.846800
H711	H71	0.109400	0.442900	0.851900
H721	H72	0.166500	0.516200	0.820200
H731	H73	0.169800	0.546200	0.872100
C821	C82	0.105000	0.104800	0.828000
H741	H74	0.119900	0.141500	0.857000
H751	H75	0.144900	0.105300	0.807900
H761	H76	0.068300	0.170200	0.816300
C831	C83	0.198700	0.841300	0.849800
C841	C84	0.255000	0.795300	0.822500
H771	H77	0.245100	0.750200	0.794800
C851	C85	0.324900	0.815100	0.835600
C861	C86	0.339300	0.887500	0.877200
H781	H78	0.386200	0.904100	0.886000
C871	C87	0.283600	0.934400	0.905100
C881	C88	0.213700	0.911900	0.891100
H791	H79	0.176400	0.944000	0.909300
C891	C89	0.387500	0.761100	0.809100
C901	C90	0.401800	0.604700	0.806600
C911	C91	0.466900	0.553000	0.787600
H801	H80	0.477100	0.449000	0.786100
C921	C92	0.514400	0.658600	0.771400
C931	C93	0.499500	0.814100	0.771700
H811	H81	0.531700	0.883400	0.759600
C941	C94	0.435600	0.865900	0.790400
C951	C95	0.421900	0.037800	0.790800
H821	H82	0.441200	0.081400	0.817800
H831	H83	0.444300	0.083800	0.765200
H841	H84	0.371500	0.056400	0.789500
C961	C96	0.351300	0.486600	0.825000
H851	H85	0.340200	0.510700	0.855700
H861	H86	0.308300	0.486300	0.807400
H871	H87	0.373200	0.387400	0.823600
C971	C97	0.604900	0.468100	0.764300
H881	H88	0.598000	0.447000	0.796000
H891	H89	0.578000	0.393600	0.747100
C981	C98	0.683700	0.456500	0.752700
C991	C99	0.297200	0.007900	0.950100
C1001	C100	0.290700	0.168100	0.955200
C1011	C101	0.301000	0.233800	0.997000
H901	H90	0.296400	0.339000	0.000500
C1021	C102	0.318400	0.142700	0.034100
C1031	C103	0.326100	0.985500	0.029100
H911	H91	0.338200	0.925200	0.053700
C1041	C104	0.315600	0.918000	0.986700
C1051	C105	0.321500	0.745500	0.983300
H921	H92	0.333700	0.703900	0.012200
H931	H93	0.276700	0.703900	0.973500
H941	H94	0.357800	0.719400	0.962000
C1061	C106	0.269500	0.265600	0.915300
H951	H95	0.271400	0.371700	0.923600
H961	H96	0.301800	0.247200	0.890900
H971	H97	0.222000	0.239700	0.906000
C1071	C107	0.336600	0.127100	0.113100
H981	H98	0.301600	0.045500	0.113700
H991	H99	0.383600	0.081200	0.112600
C1081	C108	0.328900	0.225800	0.154800
Zn41	Zn4	0.682670	0.779310	0.749340
O281	O28	0.608900	0.081200	0.737590
C1091	C109	0.627700	0.025600	0.702100
O291	O29	0.647200	0.886900	0.695940
C1101	C110	0.630600	0.121500	0.659200
H1001	H100	0.606100	0.067100	0.635300
H1011	H101	0.679900	0.133800	0.650300
O301	O30	0.599100	0.268800	0.664320
C1111	C111	0.525900	0.274100	0.664800
O311	O31	0.788700	0.829600	0.739040
C1121	C112	0.481200	0.148900	0.661500
H1021	H102	0.500200	0.050700	0.661000
O321	O32	0.785000	0.069200	0.764370
C1131	C113	0.407600	0.169000	0.659000
O331	O33	0.919200	0.117800	0.745940
C1141	C114	0.378900	0.316000	0.660900
O341	O34	0.173700	0.719100	0.426480
C1151	C115	0.423400	0.443100	0.667500
O351	O35	0.182600	0.864100	0.346460
C1161	C116	0.497000	0.421000	0.668800
H1031	H103	0.527100	0.504600	0.672300
O361	O36	0.165900	0.643300	0.309620
C1171	C117	0.361300	0.031200	0.653200
H1041	H104	0.390600	0.942900	0.648100
H1051	H105	0.333500	0.016200	0.679800
H1061	H106	0.330200	0.046200	0.627900
C1181	C118	0.395000	0.604800	0.672000
H1071	H107	0.380100	0.641500	0.643000
H1081	H108	0.355100	0.605300	0.692100
H1091	H109	0.431700	0.670200	0.683700
C1191	C119	0.301300	0.341300	0.650200
C1201	C120	0.245000	0.295300	0.677500
H1101	H110	0.254900	0.250200	0.705200
C1211	C121	0.175100	0.315100	0.664400
C1221	C122	0.160700	0.387500	0.622800
H1111	H111	0.113800	0.404100	0.614000
C1231	C123	0.216400	0.434400	0.594900
C1241	C124	0.286300	0.411900	0.608900
H1121	H112	0.323600	0.444000	0.590700
C1251	C125	0.112500	0.261100	0.690900
C1261	C126	0.098200	0.104700	0.693400
C1271	C127	0.033100	0.053000	0.712400
H1131	H113	0.022900	0.949000	0.713900
C1281	C128	0.985600	0.158600	0.728600
C1291	C129	0.000500	0.314100	0.728300
H1141	H114	0.968300	0.383400	0.740400
C1301	C130	0.064400	0.365900	0.709600
C1311	C131	0.078100	0.537800	0.709200
H1151	H115	0.058800	0.581400	0.682200
H1161	H116	0.055700	0.583800	0.734800
H1171	H117	0.128500	0.556400	0.710500
C1321	C132	0.148700	0.986600	0.675000
H1181	H118	0.159800	0.010700	0.644300
H1191	H119	0.191700	0.986300	0.692600
H1201	H120	0.126800	0.887400	0.676400
C1331	C133	0.895100	0.968100	0.735700
H1211	H121	0.902000	0.947000	0.704000
H1221	H122	0.922000	0.893600	0.752900
C1341	C134	0.816300	0.956500	0.747300
C1351	C135	0.202800	0.507900	0.549900
C1361	C136	0.209300	0.668100	0.544800
C1371	C137	0.199000	0.733800	0.503000
H1231	H123	0.203600	0.839000	0.499500
C1381	C138	0.181600	0.642700	0.465900
C1391	C139	0.173900	0.485500	0.470900
H1241	H124	0.161800	0.425200	0.446300
C1401	C140	0.184400	0.418000	0.513300
C1411	C141	0.178500	0.245500	0.516700
H1251	H125	0.166300	0.203900	0.487800
H1261	H126	0.223300	0.203900	0.526500
H1271	H127	0.142200	0.219400	0.538000
C1421	C142	0.230500	0.765600	0.584700
H1281	H128	0.228600	0.871700	0.576400
H1291	H129	0.198200	0.747200	0.609100
H1301	H130	0.278000	0.739700	0.594000
C1431	C143	0.163400	0.627100	0.386900
H1311	H131	0.198400	0.545500	0.386300
H1321	H132	0.116400	0.581200	0.387400
C1441	C144	0.171100	0.725800	0.345200
