data_TAZLIR_clean_PM
_symmetry_space_group_name_H-M	'P1'
_cell_length_a	19.487600
_cell_length_b	19.487600
_cell_length_c	26.377000
_cell_angle_alpha	90.000000
_cell_angle_beta	90.000000
_cell_angle_gamma	90.000000
_symmetry_Int_Tables_number 1

loop_
_symmetry_equiv_pos_as_xyz
'x,y,z'

loop_
_atom_site_label
_atom_site_type_symbol
_atom_site_fract_x
_atom_site_fract_y
_atom_site_fract_z
Sm11	Sm1	0.441010	0.058990	0.802870
Sm21	Sm2	0.058990	0.441010	0.802870
Sm31	Sm3	0.441010	0.441010	0.302870
Sm41	Sm4	0.058990	0.058990	0.302870
Sm51	Sm5	0.558990	0.558990	0.697130
Sm61	Sm6	0.941010	0.941010	0.697130
Sm71	Sm7	0.558990	0.941010	0.197130
Sm81	Sm8	0.941010	0.558990	0.197130
Cd11	Cd1	0.529900	0.970100	0.696070
Cd21	Cd2	0.970100	0.529900	0.696070
Cd31	Cd3	0.529900	0.529900	0.196070
Cd41	Cd4	0.970100	0.970100	0.196070
Cd51	Cd5	0.470100	0.470100	0.803930
Cd61	Cd6	0.029900	0.029900	0.803930
Cd71	Cd7	0.470100	0.029900	0.303930
Cd81	Cd8	0.029900	0.470100	0.303930
Cd91	Cd9	0.750000	0.250000	0.500000
Cd101	Cd10	0.250000	0.750000	0.000000
Cd111	Cd11	0.250000	0.750000	0.500000
Cd121	Cd12	0.750000	0.250000	0.000000
H11	H1	0.487300	0.251200	0.730800
H21	H2	0.590000	0.167100	0.615100
H31	H3	0.595500	0.370400	0.635700
H41	H4	0.012700	0.248800	0.730800
H51	H5	0.910000	0.332900	0.615100
H61	H6	0.904500	0.129600	0.635700
H71	H7	0.248800	0.487300	0.230800
H81	H8	0.332900	0.590000	0.115100
H91	H9	0.129600	0.595500	0.135700
H101	H10	0.251200	0.012700	0.230800
H111	H11	0.167100	0.910000	0.115100
H121	H12	0.370400	0.904500	0.135700
H131	H13	0.512700	0.751200	0.769200
H141	H14	0.410000	0.667100	0.884900
H151	H15	0.404500	0.870400	0.864300
H161	H16	0.987300	0.748800	0.769200
H171	H17	0.090000	0.832900	0.884900
H181	H18	0.095500	0.629600	0.864300
H191	H19	0.751200	0.987300	0.269200
H201	H20	0.667100	0.090000	0.384900
H211	H21	0.870400	0.095500	0.364300
H221	H22	0.748800	0.512700	0.269200
H231	H23	0.832900	0.410000	0.384900
H241	H24	0.629600	0.404500	0.364300
H251	H25	0.512700	0.748800	0.269200
H261	H26	0.410000	0.832900	0.384900
H271	H27	0.404500	0.629600	0.364300
H281	H28	0.987300	0.751200	0.269200
H291	H29	0.090000	0.667100	0.384900
H301	H30	0.095500	0.870400	0.364300
H311	H31	0.751200	0.512700	0.769200
H321	H32	0.667100	0.410000	0.884900
H331	H33	0.870400	0.404500	0.864300
H341	H34	0.748800	0.987300	0.769200
H351	H35	0.832900	0.090000	0.884900
H361	H36	0.629600	0.095500	0.864300
H371	H37	0.487300	0.248800	0.230800
H381	H38	0.590000	0.332900	0.115100
H391	H39	0.595500	0.129600	0.135700
H401	H40	0.012700	0.251200	0.230800
H411	H41	0.910000	0.167100	0.115100
H421	H42	0.904500	0.370400	0.135700
H431	H43	0.248800	0.012700	0.730800
H441	H44	0.332900	0.910000	0.615100
H451	H45	0.129600	0.904500	0.635700
H461	H46	0.251200	0.487300	0.730800
H471	H47	0.167100	0.590000	0.615100
H481	H48	0.370400	0.595500	0.635700
C11	C1	0.516400	0.128600	0.693600
C21	C2	0.538000	0.320300	0.688100
C31	C3	0.647600	0.275000	0.574500
C41	C4	0.534700	0.199100	0.675400
C51	C5	0.598800	0.269600	0.618400
C61	C6	0.515500	0.255900	0.702600
C71	C7	0.576800	0.205800	0.633200
C81	C8	0.580100	0.327300	0.645600
C91	C9	0.519500	0.381800	0.719700
C101	C10	0.983600	0.371400	0.693600
C111	C11	0.962000	0.179700	0.688100
C121	C12	0.852400	0.225000	0.574500
C131	C13	0.965300	0.300900	0.675400
C141	C14	0.901200	0.230400	0.618400
C151	C15	0.984500	0.244100	0.702600
C161	C16	0.923200	0.294200	0.633200
C171	C17	0.919900	0.172700	0.645600
C181	C18	0.980500	0.118200	0.719700
C191	C19	0.371400	0.516400	0.193600
C201	C20	0.179700	0.538000	0.188100
C211	C21	0.225000	0.647600	0.074500
C221	C22	0.300900	0.534700	0.175400
C231	C23	0.230400	0.598800	0.118400
C241	C24	0.244100	0.515500	0.202600
C251	C25	0.294200	0.576800	0.133200
C261	C26	0.172700	0.580100	0.145600
C271	C27	0.118200	0.519500	0.219700
C281	C28	0.128600	0.983600	0.193600
C291	C29	0.320300	0.962000	0.188100
C301	C30	0.275000	0.852400	0.074500
C311	C31	0.199100	0.965300	0.175400
C321	C32	0.269600	0.901200	0.118400
C331	C33	0.255900	0.984500	0.202600
C341	C34	0.205800	0.923200	0.133200
C351	C35	0.327300	0.919900	0.145600
C361	C36	0.381800	0.980500	0.219700
C371	C37	0.483600	0.628600	0.806400
C381	C38	0.462000	0.820300	0.811900
C391	C39	0.352400	0.775000	0.925500
C401	C40	0.465300	0.699100	0.824600
C411	C41	0.401200	0.769600	0.881600
C421	C42	0.484500	0.755900	0.797400
C431	C43	0.423200	0.705800	0.866800
C441	C44	0.419900	0.827300	0.854400
C451	C45	0.480500	0.881800	0.780300
C461	C46	0.016400	0.871400	0.806400
C471	C47	0.038000	0.679700	0.811900
C481	C48	0.147600	0.725000	0.925500
C491	C49	0.034700	0.800900	0.824600
C501	C50	0.098800	0.730400	0.881600
C511	C51	0.015500	0.744100	0.797400
C521	C52	0.076800	0.794200	0.866800
C531	C53	0.080100	0.672700	0.854400
C541	C54	0.019500	0.618200	0.780300
C551	C55	0.628600	0.016400	0.306400
C561	C56	0.820300	0.038000	0.311900
C571	C57	0.775000	0.147600	0.425500
C581	C58	0.699100	0.034700	0.324600
C591	C59	0.769600	0.098800	0.381600
C601	C60	0.755900	0.015500	0.297400
C611	C61	0.705800	0.076800	0.366800
C621	C62	0.827300	0.080100	0.354400
C631	C63	0.881800	0.019500	0.280300
C641	C64	0.871400	0.483600	0.306400
C651	C65	0.679700	0.462000	0.311900
C661	C66	0.725000	0.352400	0.425500
C671	C67	0.800900	0.465300	0.324600
C681	C68	0.730400	0.401200	0.381600
C691	C69	0.744100	0.484500	0.297400
C701	C70	0.794200	0.423200	0.366800
C711	C71	0.672700	0.419900	0.354400
C721	C72	0.618200	0.480500	0.280300
C731	C73	0.483600	0.871400	0.306400
C741	C74	0.462000	0.679700	0.311900
C751	C75	0.352400	0.725000	0.425500
C761	C76	0.465300	0.800900	0.324600
C771	C77	0.401200	0.730400	0.381600
C781	C78	0.484500	0.744100	0.297400
C791	C79	0.423200	0.794200	0.366800
C801	C80	0.419900	0.672700	0.354400
C811	C81	0.480500	0.618200	0.280300
C821	C82	0.016400	0.628600	0.306400
C831	C83	0.038000	0.820300	0.311900
C841	C84	0.147600	0.775000	0.425500
C851	C85	0.034700	0.699100	0.324600
C861	C86	0.098800	0.769600	0.381600
C871	C87	0.015500	0.755900	0.297400
C881	C88	0.076800	0.705800	0.366800
C891	C89	0.080100	0.827300	0.354400
C901	C90	0.019500	0.881800	0.280300
C911	C91	0.628600	0.483600	0.806400
C921	C92	0.820300	0.462000	0.811900
C931	C93	0.775000	0.352400	0.925500
C941	C94	0.699100	0.465300	0.824600
C951	C95	0.769600	0.401200	0.881600
C961	C96	0.755900	0.484500	0.797400
C971	C97	0.705800	0.423200	0.866800
C981	C98	0.827300	0.419900	0.854400
C991	C99	0.881800	0.480500	0.780300
C1001	C100	0.871400	0.016400	0.806400
C1011	C101	0.679700	0.038000	0.811900
C1021	C102	0.725000	0.147600	0.925500
C1031	C103	0.800900	0.034700	0.824600
C1041	C104	0.730400	0.098800	0.881600
C1051	C105	0.744100	0.015500	0.797400
C1061	C106	0.794200	0.076800	0.866800
C1071	C107	0.672700	0.080100	0.854400
C1081	C108	0.618200	0.019500	0.780300
C1091	C109	0.516400	0.371400	0.193600
C1101	C110	0.538000	0.179700	0.188100
C1111	C111	0.647600	0.225000	0.074500
C1121	C112	0.534700	0.300900	0.175400
C1131	C113	0.598800	0.230400	0.118400
C1141	C114	0.515500	0.244100	0.202600
C1151	C115	0.576800	0.294200	0.133200
C1161	C116	0.580100	0.172700	0.145600
C1171	C117	0.519500	0.118200	0.219700
C1181	C118	0.983600	0.128600	0.193600
C1191	C119	0.962000	0.320300	0.188100
C1201	C120	0.852400	0.275000	0.074500
C1211	C121	0.965300	0.199100	0.175400
C1221	C122	0.901200	0.269600	0.118400
C1231	C123	0.984500	0.255900	0.202600
C1241	C124	0.923200	0.205800	0.133200
C1251	C125	0.919900	0.327300	0.145600
C1261	C126	0.980500	0.381800	0.219700
C1271	C127	0.371400	0.983600	0.693600
C1281	C128	0.179700	0.962000	0.688100
C1291	C129	0.225000	0.852400	0.574500
C1301	C130	0.300900	0.965300	0.675400
C1311	C131	0.230400	0.901200	0.618400
C1321	C132	0.244100	0.984500	0.702600
C1331	C133	0.294200	0.923200	0.633200
C1341	C134	0.172700	0.919900	0.645600
C1351	C135	0.118200	0.980500	0.719700
C1361	C136	0.128600	0.516400	0.693600
C1371	C137	0.320300	0.538000	0.688100
C1381	C138	0.275000	0.647600	0.574500
C1391	C139	0.199100	0.534700	0.675400
C1401	C140	0.269600	0.598800	0.618400
C1411	C141	0.255900	0.515500	0.702600
C1421	C142	0.205800	0.576800	0.633200
C1431	C143	0.327300	0.580100	0.645600
C1441	C144	0.381800	0.519500	0.719700
O11	O1	0.479100	0.123300	0.732500
O21	O2	0.539700	0.437700	0.706000
O31	O3	0.663500	0.221400	0.551100
O41	O4	0.672800	0.332300	0.563900
O51	O5	0.537700	0.078700	0.669800
O61	O6	0.486800	0.373600	0.759800
O71	O7	0.020900	0.376700	0.732500
O81	O8	0.960300	0.062300	0.706000
O91	O9	0.836500	0.278600	0.551100
O101	O10	0.827200	0.167700	0.563900
O111	O11	0.962300	0.421300	0.669800
O121	O12	0.013200	0.126400	0.759800
O131	O13	0.376700	0.479100	0.232500
O141	O14	0.062300	0.539700	0.206000
O151	O15	0.278600	0.663500	0.051100
O161	O16	0.167700	0.672800	0.063900
O171	O17	0.421300	0.537700	0.169800
O181	O18	0.126400	0.486800	0.259800
O191	O19	0.123300	0.020900	0.232500
O201	O20	0.437700	0.960300	0.206000
O211	O21	0.221400	0.836500	0.051100
O221	O22	0.332300	0.827200	0.063900
O231	O23	0.078700	0.962300	0.169800
O241	O24	0.373600	0.013200	0.259800
O251	O25	0.520900	0.623300	0.767500
O261	O26	0.460300	0.937700	0.794000
O271	O27	0.336500	0.721400	0.948900
O281	O28	0.327200	0.832300	0.936100
O291	O29	0.462300	0.578700	0.830200
O301	O30	0.513200	0.873600	0.740200
O311	O31	0.979100	0.876700	0.767500
O321	O32	0.039700	0.562300	0.794000
O331	O33	0.163500	0.778600	0.948900
O341	O34	0.172800	0.667700	0.936100
O351	O35	0.037700	0.921300	0.830200
O361	O36	0.986800	0.626400	0.740200
O371	O37	0.623300	0.979100	0.267500
O381	O38	0.937700	0.039700	0.294000
O391	O39	0.721400	0.163500	0.448900
O401	O40	0.832300	0.172800	0.436100
O411	O41	0.578700	0.037700	0.330200
O421	O42	0.873600	0.986800	0.240200
O431	O43	0.876700	0.520900	0.267500
O441	O44	0.562300	0.460300	0.294000
O451	O45	0.778600	0.336500	0.448900
O461	O46	0.667700	0.327200	0.436100
O471	O47	0.921300	0.462300	0.330200
O481	O48	0.626400	0.513200	0.240200
O491	O49	0.520900	0.876700	0.267500
O501	O50	0.460300	0.562300	0.294000
O511	O51	0.336500	0.778600	0.448900
O521	O52	0.327200	0.667700	0.436100
O531	O53	0.462300	0.921300	0.330200
O541	O54	0.513200	0.626400	0.240200
O551	O55	0.979100	0.623300	0.267500
O561	O56	0.039700	0.937700	0.294000
O571	O57	0.163500	0.721400	0.448900
O581	O58	0.172800	0.832300	0.436100
O591	O59	0.037700	0.578700	0.330200
O601	O60	0.986800	0.873600	0.240200
O611	O61	0.623300	0.520900	0.767500
O621	O62	0.937700	0.460300	0.794000
O631	O63	0.721400	0.336500	0.948900
O641	O64	0.832300	0.327200	0.936100
O651	O65	0.578700	0.462300	0.830200
O661	O66	0.873600	0.513200	0.740200
O671	O67	0.876700	0.979100	0.767500
O681	O68	0.562300	0.039700	0.794000
O691	O69	0.778600	0.163500	0.948900
O701	O70	0.667700	0.172800	0.936100
O711	O71	0.921300	0.037700	0.830200
O721	O72	0.626400	0.986800	0.740200
O731	O73	0.479100	0.376700	0.232500
O741	O74	0.539700	0.062300	0.206000
O751	O75	0.663500	0.278600	0.051100
O761	O76	0.672800	0.167700	0.063900
O771	O77	0.537700	0.421300	0.169800
O781	O78	0.486800	0.126400	0.259800
O791	O79	0.020900	0.123300	0.232500
O801	O80	0.960300	0.437700	0.206000
O811	O81	0.836500	0.221400	0.051100
O821	O82	0.827200	0.332300	0.063900
O831	O83	0.962300	0.078700	0.169800
O841	O84	0.013200	0.373600	0.259800
O851	O85	0.376700	0.020900	0.732500
O861	O86	0.062300	0.960300	0.706000
O871	O87	0.278600	0.836500	0.551100
O881	O88	0.167700	0.827200	0.563900
O891	O89	0.421300	0.962300	0.669800
O901	O90	0.126400	0.013200	0.759800
O911	O91	0.123300	0.479100	0.732500
O921	O92	0.437700	0.539700	0.706000
O931	O93	0.221400	0.663500	0.551100
O941	O94	0.332300	0.672800	0.563900
O951	O95	0.078700	0.537700	0.669800
O961	O96	0.373600	0.486800	0.759800
