data_TAZLUD_clean_PM
_symmetry_space_group_name_H-M	'P1'
_cell_length_a	19.468700
_cell_length_b	19.468700
_cell_length_c	26.374600
_cell_angle_alpha	90.000000
_cell_angle_beta	90.000000
_cell_angle_gamma	90.000000
_symmetry_Int_Tables_number 1

loop_
_symmetry_equiv_pos_as_xyz
'x,y,z'

loop_
_atom_site_label
_atom_site_type_symbol
_atom_site_fract_x
_atom_site_fract_y
_atom_site_fract_z
Gd11	Gd1	0.556140	0.556140	0.302360
Gd21	Gd2	0.943860	0.943860	0.302360
Gd31	Gd3	0.943860	0.556140	0.802360
Gd41	Gd4	0.556140	0.943860	0.802360
Gd51	Gd5	0.443860	0.056140	0.197640
Gd61	Gd6	0.056140	0.443860	0.197640
Gd71	Gd7	0.056140	0.056140	0.697640
Gd81	Gd8	0.443860	0.443860	0.697640
Cd11	Cd1	0.467400	0.467400	0.195730
Cd21	Cd2	0.032600	0.032600	0.195730
Cd31	Cd3	0.032600	0.467400	0.695730
Cd41	Cd4	0.467400	0.032600	0.695730
Cd51	Cd5	0.532600	0.967400	0.304270
Cd61	Cd6	0.967400	0.532600	0.304270
Cd71	Cd7	0.967400	0.967400	0.804270
Cd81	Cd8	0.532600	0.532600	0.804270
Cd91	Cd9	0.250000	0.750000	0.000000
Cd101	Cd10	0.750000	0.250000	0.500000
Cd111	Cd11	0.750000	0.250000	0.000000
Cd121	Cd12	0.250000	0.750000	0.500000
H11	H1	0.408100	0.868800	0.135600
H21	H2	0.409900	0.665500	0.116100
H31	H3	0.511800	0.748200	0.231700
H41	H4	0.091900	0.631200	0.135600
H51	H5	0.090100	0.834500	0.116100
H61	H6	0.988200	0.751800	0.231700
H71	H7	0.631200	0.408100	0.635600
H81	H8	0.834500	0.409900	0.616100
H91	H9	0.751800	0.511800	0.731700
H101	H10	0.868800	0.091900	0.635600
H111	H11	0.665500	0.090100	0.616100
H121	H12	0.748200	0.988200	0.731700
H131	H13	0.591900	0.368800	0.364400
H141	H14	0.590100	0.165500	0.383900
H151	H15	0.488200	0.248200	0.268300
H161	H16	0.908100	0.131200	0.364400
H171	H17	0.909900	0.334500	0.383900
H181	H18	0.011800	0.251800	0.268300
H191	H19	0.368800	0.908100	0.864400
H201	H20	0.165500	0.909900	0.883900
H211	H21	0.248200	0.011800	0.768300
H221	H22	0.131200	0.591900	0.864400
H231	H23	0.334500	0.590100	0.883900
H241	H24	0.251800	0.488200	0.768300
H251	H25	0.591900	0.131200	0.864400
H261	H26	0.590100	0.334500	0.883900
H271	H27	0.488200	0.251800	0.768300
H281	H28	0.908100	0.368800	0.864400
H291	H29	0.909900	0.165500	0.883900
H301	H30	0.011800	0.248200	0.768300
H311	H31	0.368800	0.591900	0.364400
H321	H32	0.165500	0.590100	0.383900
H331	H33	0.248200	0.488200	0.268300
H341	H34	0.131200	0.908100	0.364400
H351	H35	0.334500	0.909900	0.383900
H361	H36	0.251800	0.011800	0.268300
H371	H37	0.408100	0.631200	0.635600
H381	H38	0.409900	0.834500	0.616100
H391	H39	0.511800	0.751800	0.731700
H401	H40	0.091900	0.868800	0.635600
H411	H41	0.090100	0.665500	0.616100
H421	H42	0.988200	0.748200	0.731700
H431	H43	0.631200	0.091900	0.135600
H441	H44	0.834500	0.090100	0.116100
H451	H45	0.751800	0.988200	0.231700
H461	H46	0.868800	0.408100	0.135600
H471	H47	0.665500	0.409900	0.116100
H481	H48	0.748200	0.511800	0.231700
C11	C1	0.483400	0.625300	0.194100
C21	C2	0.421600	0.825200	0.146000
C31	C3	0.423100	0.704200	0.134400
C41	C4	0.400800	0.768000	0.118900
C51	C5	0.482900	0.880300	0.219100
C61	C6	0.351800	0.775400	0.075700
C71	C7	0.462500	0.817600	0.188600
C81	C8	0.464200	0.696500	0.175900
C91	C9	0.484000	0.753300	0.203300
C101	C10	0.016600	0.874700	0.194100
C111	C11	0.078400	0.674800	0.146000
C121	C12	0.076900	0.795800	0.134400
C131	C13	0.099200	0.732000	0.118900
C141	C14	0.017100	0.619700	0.219100
C151	C15	0.148200	0.724600	0.075700
C161	C16	0.037500	0.682400	0.188600
C171	C17	0.035800	0.803500	0.175900
C181	C18	0.016000	0.746700	0.203300
C191	C19	0.874700	0.483400	0.694100
C201	C20	0.674800	0.421600	0.646000
C211	C21	0.795800	0.423100	0.634400
C221	C22	0.732000	0.400800	0.618900
C231	C23	0.619700	0.482900	0.719100
C241	C24	0.724600	0.351800	0.575700
C251	C25	0.682400	0.462500	0.688600
C261	C26	0.803500	0.464200	0.675900
C271	C27	0.746700	0.484000	0.703300
C281	C28	0.625300	0.016600	0.694100
C291	C29	0.825200	0.078400	0.646000
C301	C30	0.704200	0.076900	0.634400
C311	C31	0.768000	0.099200	0.618900
C321	C32	0.880300	0.017100	0.719100
C331	C33	0.775400	0.148200	0.575700
C341	C34	0.817600	0.037500	0.688600
C351	C35	0.696500	0.035800	0.675900
C361	C36	0.753300	0.016000	0.703300
C371	C37	0.516600	0.125300	0.305900
C381	C38	0.578400	0.325200	0.354000
C391	C39	0.576900	0.204200	0.365600
C401	C40	0.599200	0.268000	0.381100
C411	C41	0.517100	0.380300	0.280900
C421	C42	0.648200	0.275400	0.424300
C431	C43	0.537500	0.317600	0.311400
C441	C44	0.535800	0.196500	0.324100
C451	C45	0.516000	0.253300	0.296700
C461	C46	0.983400	0.374700	0.305900
C471	C47	0.921600	0.174800	0.354000
C481	C48	0.923100	0.295800	0.365600
C491	C49	0.900800	0.232000	0.381100
C501	C50	0.982900	0.119700	0.280900
C511	C51	0.851800	0.224600	0.424300
C521	C52	0.962500	0.182400	0.311400
C531	C53	0.964200	0.303500	0.324100
C541	C54	0.984000	0.246700	0.296700
C551	C55	0.125300	0.983400	0.805900
C561	C56	0.325200	0.921600	0.854000
C571	C57	0.204200	0.923100	0.865600
C581	C58	0.268000	0.900800	0.881100
C591	C59	0.380300	0.982900	0.780900
C601	C60	0.275400	0.851800	0.924300
C611	C61	0.317600	0.962500	0.811400
C621	C62	0.196500	0.964200	0.824100
C631	C63	0.253300	0.984000	0.796700
C641	C64	0.374700	0.516600	0.805900
C651	C65	0.174800	0.578400	0.854000
C661	C66	0.295800	0.576900	0.865600
C671	C67	0.232000	0.599200	0.881100
C681	C68	0.119700	0.517100	0.780900
C691	C69	0.224600	0.648200	0.924300
C701	C70	0.182400	0.537500	0.811400
C711	C71	0.303500	0.535800	0.824100
C721	C72	0.246700	0.516000	0.796700
C731	C73	0.516600	0.374700	0.805900
C741	C74	0.578400	0.174800	0.854000
C751	C75	0.576900	0.295800	0.865600
C761	C76	0.599200	0.232000	0.881100
C771	C77	0.517100	0.119700	0.780900
C781	C78	0.648200	0.224600	0.924300
C791	C79	0.537500	0.182400	0.811400
C801	C80	0.535800	0.303500	0.824100
C811	C81	0.516000	0.246700	0.796700
C821	C82	0.983400	0.125300	0.805900
C831	C83	0.921600	0.325200	0.854000
C841	C84	0.923100	0.204200	0.865600
C851	C85	0.900800	0.268000	0.881100
C861	C86	0.982900	0.380300	0.780900
C871	C87	0.851800	0.275400	0.924300
C881	C88	0.962500	0.317600	0.811400
C891	C89	0.964200	0.196500	0.824100
C901	C90	0.984000	0.253300	0.796700
C911	C91	0.125300	0.516600	0.305900
C921	C92	0.325200	0.578400	0.354000
C931	C93	0.204200	0.576900	0.365600
C941	C94	0.268000	0.599200	0.381100
C951	C95	0.380300	0.517100	0.280900
C961	C96	0.275400	0.648200	0.424300
C971	C97	0.317600	0.537500	0.311400
C981	C98	0.196500	0.535800	0.324100
C991	C99	0.253300	0.516000	0.296700
C1001	C100	0.374700	0.983400	0.305900
C1011	C101	0.174800	0.921600	0.354000
C1021	C102	0.295800	0.923100	0.365600
C1031	C103	0.232000	0.900800	0.381100
C1041	C104	0.119700	0.982900	0.280900
C1051	C105	0.224600	0.851800	0.424300
C1061	C106	0.182400	0.962500	0.311400
C1071	C107	0.303500	0.964200	0.324100
C1081	C108	0.246700	0.984000	0.296700
C1091	C109	0.483400	0.874700	0.694100
C1101	C110	0.421600	0.674800	0.646000
C1111	C111	0.423100	0.795800	0.634400
C1121	C112	0.400800	0.732000	0.618900
C1131	C113	0.482900	0.619700	0.719100
C1141	C114	0.351800	0.724600	0.575700
C1151	C115	0.462500	0.682400	0.688600
C1161	C116	0.464200	0.803500	0.675900
C1171	C117	0.484000	0.746700	0.703300
C1181	C118	0.016600	0.625300	0.694100
C1191	C119	0.078400	0.825200	0.646000
C1201	C120	0.076900	0.704200	0.634400
C1211	C121	0.099200	0.768000	0.618900
C1221	C122	0.017100	0.880300	0.719100
C1231	C123	0.148200	0.775400	0.575700
C1241	C124	0.037500	0.817600	0.688600
C1251	C125	0.035800	0.696500	0.675900
C1261	C126	0.016000	0.753300	0.703300
C1271	C127	0.874700	0.016600	0.194100
C1281	C128	0.674800	0.078400	0.146000
C1291	C129	0.795800	0.076900	0.134400
C1301	C130	0.732000	0.099200	0.118900
C1311	C131	0.619700	0.017100	0.219100
C1321	C132	0.724600	0.148200	0.075700
C1331	C133	0.682400	0.037500	0.188600
C1341	C134	0.803500	0.035800	0.175900
C1351	C135	0.746700	0.016000	0.203300
C1361	C136	0.625300	0.483400	0.194100
C1371	C137	0.825200	0.421600	0.146000
C1381	C138	0.704200	0.423100	0.134400
C1391	C139	0.768000	0.400800	0.118900
C1401	C140	0.880300	0.482900	0.219100
C1411	C141	0.775400	0.351800	0.075700
C1421	C142	0.817600	0.462500	0.188600
C1431	C143	0.696500	0.464200	0.175900
C1441	C144	0.753300	0.484000	0.203300
O11	O1	0.460800	0.575600	0.169300
O21	O2	0.518100	0.620000	0.232600
O31	O3	0.335100	0.720600	0.051600
O41	O4	0.461500	0.937300	0.205600
O51	O5	0.517000	0.869700	0.259300
O61	O6	0.328500	0.831800	0.064100
O71	O7	0.039200	0.924400	0.169300
O81	O8	0.981900	0.880000	0.232600
O91	O9	0.164900	0.779400	0.051600
O101	O10	0.038500	0.562700	0.205600
O111	O11	0.983000	0.630300	0.259300
O121	O12	0.171500	0.668200	0.064100
O131	O13	0.924400	0.460800	0.669300
O141	O14	0.880000	0.518100	0.732600
O151	O15	0.779400	0.335100	0.551600
O161	O16	0.562700	0.461500	0.705600
O171	O17	0.630300	0.517000	0.759300
O181	O18	0.668200	0.328500	0.564100
O191	O19	0.575600	0.039200	0.669300
O201	O20	0.620000	0.981900	0.732600
O211	O21	0.720600	0.164900	0.551600
O221	O22	0.937300	0.038500	0.705600
O231	O23	0.869700	0.983000	0.759300
O241	O24	0.831800	0.171500	0.564100
O251	O25	0.539200	0.075600	0.330700
O261	O26	0.481900	0.120000	0.267400
O271	O27	0.664900	0.220600	0.448400
O281	O28	0.538500	0.437300	0.294400
O291	O29	0.483000	0.369700	0.240700
O301	O30	0.671500	0.331800	0.435900
O311	O31	0.960800	0.424400	0.330700
O321	O32	0.018100	0.380000	0.267400
O331	O33	0.835100	0.279400	0.448400
O341	O34	0.961500	0.062700	0.294400
O351	O35	0.017000	0.130300	0.240700
O361	O36	0.828500	0.168200	0.435900
O371	O37	0.075600	0.960800	0.830700
O381	O38	0.120000	0.018100	0.767400
O391	O39	0.220600	0.835100	0.948400
O401	O40	0.437300	0.961500	0.794400
O411	O41	0.369700	0.017000	0.740700
O421	O42	0.331800	0.828500	0.935900
O431	O43	0.424400	0.539200	0.830700
O441	O44	0.380000	0.481900	0.767400
O451	O45	0.279400	0.664900	0.948400
O461	O46	0.062700	0.538500	0.794400
O471	O47	0.130300	0.483000	0.740700
O481	O48	0.168200	0.671500	0.935900
O491	O49	0.539200	0.424400	0.830700
O501	O50	0.481900	0.380000	0.767400
O511	O51	0.664900	0.279400	0.948400
O521	O52	0.538500	0.062700	0.794400
O531	O53	0.483000	0.130300	0.740700
O541	O54	0.671500	0.168200	0.935900
O551	O55	0.960800	0.075600	0.830700
O561	O56	0.018100	0.120000	0.767400
O571	O57	0.835100	0.220600	0.948400
O581	O58	0.961500	0.437300	0.794400
O591	O59	0.017000	0.369700	0.740700
O601	O60	0.828500	0.331800	0.935900
O611	O61	0.075600	0.539200	0.330700
O621	O62	0.120000	0.481900	0.267400
O631	O63	0.220600	0.664900	0.448400
O641	O64	0.437300	0.538500	0.294400
O651	O65	0.369700	0.483000	0.240700
O661	O66	0.331800	0.671500	0.435900
O671	O67	0.424400	0.960800	0.330700
O681	O68	0.380000	0.018100	0.267400
O691	O69	0.279400	0.835100	0.448400
O701	O70	0.062700	0.961500	0.294400
O711	O71	0.130300	0.017000	0.240700
O721	O72	0.168200	0.828500	0.435900
O731	O73	0.460800	0.924400	0.669300
O741	O74	0.518100	0.880000	0.732600
O751	O75	0.335100	0.779400	0.551600
O761	O76	0.461500	0.562700	0.705600
O771	O77	0.517000	0.630300	0.759300
O781	O78	0.328500	0.668200	0.564100
O791	O79	0.039200	0.575600	0.669300
O801	O80	0.981900	0.620000	0.732600
O811	O81	0.164900	0.720600	0.551600
O821	O82	0.038500	0.937300	0.705600
O831	O83	0.983000	0.869700	0.759300
O841	O84	0.171500	0.831800	0.564100
O851	O85	0.924400	0.039200	0.169300
O861	O86	0.880000	0.981900	0.232600
O871	O87	0.779400	0.164900	0.051600
O881	O88	0.562700	0.038500	0.205600
O891	O89	0.630300	0.983000	0.259300
O901	O90	0.668200	0.171500	0.064100
O911	O91	0.575600	0.460800	0.169300
O921	O92	0.620000	0.518100	0.232600
O931	O93	0.720600	0.335100	0.051600
O941	O94	0.937300	0.461500	0.205600
O951	O95	0.869700	0.517000	0.259300
O961	O96	0.831800	0.328500	0.064100
