data_TAZSAP02_clean_PM
_symmetry_space_group_name_H-M	'P1'
_cell_length_a	7.877000
_cell_length_b	12.060000
_cell_length_c	12.275000
_cell_angle_alpha	112.120000
_cell_angle_beta	89.980000
_cell_angle_gamma	99.950000
_symmetry_Int_Tables_number 1

loop_
_symmetry_equiv_pos_as_xyz
'x,y,z'

loop_
_atom_site_label
_atom_site_type_symbol
_atom_site_fract_x
_atom_site_fract_y
_atom_site_fract_z
Pr11	Pr1	0.990880	0.145570	0.854260
Pr21	Pr2	0.490830	0.145160	0.751990
C11	C1	0.638000	0.138000	0.021400
C21	C2	0.615000	0.167000	0.148000
H11	H1	0.533400	0.101400	0.155800
H21	H2	0.565500	0.240300	0.178700
C31	C3	0.782000	0.187300	0.222100
H31	H3	0.867300	0.247500	0.207500
H41	H4	0.758800	0.221200	0.304700
C41	C4	0.857000	0.078000	0.201000
C51	C5	0.645000	0.930000	0.648000
C61	C6	0.715000	0.811000	0.585000
H51	H5	0.627700	0.752900	0.526100
H61	H6	0.734900	0.776100	0.642600
C71	C7	0.245000	0.473000	0.866000
H71	H7	0.120800	0.450200	0.849200
H81	H8	0.289100	0.523900	0.823100
C81	C8	0.320000	0.363000	0.823000
C91	C9	0.863000	0.855000	0.421000
C101	C10	0.898000	0.831000	0.521100
H91	H9	0.979200	0.899300	0.576000
H101	H10	0.948700	0.759100	0.498600
C111	C11	0.285000	0.544000	0.996000
C121	C12	0.183000	0.641000	0.045000
O11	O1	0.226900	0.721700	0.154100
O21	O2	0.052000	0.647200	0.995100
O31	O3	0.762000	0.982200	0.208700
O41	O4	0.010000	0.073600	0.178400
O51	O5	0.453000	0.358300	0.755200
O61	O6	0.273500	0.277700	0.855300
O71	O7	0.511000	0.148800	0.964300
O81	O8	0.771400	0.102400	0.980000
O91	O9	0.989700	0.844900	0.349000
O101	O10	0.724000	0.890500	0.399800
O111	O11	0.736000	0.017300	0.721100
O121	O12	0.490000	0.927500	0.619900
Pr31	Pr3	0.009120	0.854430	0.145740
Pr41	Pr4	0.509170	0.854840	0.248010
C131	C13	0.362000	0.862000	0.978600
C141	C14	0.385000	0.833000	0.852000
H111	H11	0.466600	0.898600	0.844200
H121	H12	0.434500	0.759700	0.821300
C151	C15	0.218000	0.812700	0.777900
H131	H13	0.132700	0.752500	0.792500
H141	H14	0.241200	0.778800	0.695300
C161	C16	0.143000	0.922000	0.799000
C171	C17	0.355000	0.070000	0.352000
C181	C18	0.285000	0.189000	0.415000
H151	H15	0.372300	0.247100	0.473900
H161	H16	0.265100	0.223900	0.357400
C191	C19	0.755000	0.527000	0.134000
H171	H17	0.879200	0.549800	0.150800
H181	H18	0.710900	0.476100	0.176900
C201	C20	0.680000	0.637000	0.177000
C211	C21	0.137000	0.145000	0.579000
C221	C22	0.102000	0.169000	0.478900
H191	H19	0.020800	0.100700	0.424000
H201	H20	0.051300	0.240900	0.501400
C231	C23	0.715000	0.456000	0.004000
C241	C24	0.817000	0.359000	0.955000
O131	O13	0.773100	0.278300	0.845900
O141	O14	0.948000	0.352800	0.004900
O151	O15	0.238000	0.017800	0.791300
O161	O16	0.990000	0.926400	0.821600
O171	O17	0.547000	0.641700	0.244800
O181	O18	0.726500	0.722300	0.144700
O191	O19	0.489000	0.851200	0.035700
O201	O20	0.228600	0.897600	0.020000
O211	O21	0.010300	0.155100	0.651000
O221	O22	0.276000	0.109500	0.600200
O231	O23	0.264000	0.982700	0.278900
O241	O24	0.510000	0.072500	0.380100
