data_TEBFUD_clean_PM
_symmetry_space_group_name_H-M	'P1'
_cell_length_a	7.149100
_cell_length_b	10.706300
_cell_length_c	17.119700
_cell_angle_alpha	97.097000
_cell_angle_beta	90.000000
_cell_angle_gamma	90.000000
_symmetry_Int_Tables_number 1

loop_
_symmetry_equiv_pos_as_xyz
'x,y,z'

loop_
_atom_site_label
_atom_site_type_symbol
_atom_site_fract_x
_atom_site_fract_y
_atom_site_fract_z
Dy11	Dy1	0.020160	0.176320	0.746670
Dy21	Dy2	0.520160	0.323680	0.753330
Dy31	Dy3	0.979840	0.823680	0.253330
Dy41	Dy4	0.479840	0.676320	0.246670
H11	H1	0.179200	0.995000	0.521900
H21	H2	0.461600	0.692500	0.563400
H31	H3	0.159900	0.337200	0.551700
H41	H4	0.679200	0.505000	0.978100
H51	H5	0.961600	0.807500	0.936600
H61	H6	0.659900	0.162800	0.948300
H71	H7	0.820800	0.005000	0.478100
H81	H8	0.538400	0.307500	0.436600
H91	H9	0.840100	0.662800	0.448300
H101	H10	0.320800	0.495000	0.021900
H111	H11	0.038400	0.192500	0.063400
H121	H12	0.340100	0.837200	0.051700
C11	C1	0.326200	0.085000	0.649090
C21	C2	0.425100	0.042700	0.573640
C31	C3	0.309500	0.994100	0.512040
C41	C4	0.752300	0.096100	0.625820
C51	C5	0.618000	0.048600	0.561960
C61	C6	0.852400	0.390900	0.634800
C71	C7	0.927600	0.452600	0.566950
C81	C8	0.839500	0.553200	0.536990
C91	C9	0.679200	0.621600	0.579110
C101	C10	0.089200	0.401400	0.529720
C111	C11	0.826200	0.415000	0.850910
C121	C12	0.925100	0.457300	0.926360
C131	C13	0.809500	0.505900	0.987960
C141	C14	0.252300	0.403900	0.874180
C151	C15	0.118000	0.451400	0.938040
C161	C16	0.352400	0.109100	0.865200
C171	C17	0.427600	0.047400	0.933050
C181	C18	0.339500	0.946800	0.963010
C191	C19	0.179200	0.878400	0.920890
C201	C20	0.589200	0.098600	0.970280
C211	C21	0.673800	0.915000	0.350910
C221	C22	0.574900	0.957300	0.426360
C231	C23	0.690500	0.005900	0.487960
C241	C24	0.247700	0.903900	0.374180
C251	C25	0.382000	0.951400	0.438040
C261	C26	0.147600	0.609100	0.365200
C271	C27	0.072400	0.547400	0.433050
C281	C28	0.160500	0.446800	0.463010
C291	C29	0.320800	0.378400	0.420890
C301	C30	0.910800	0.598600	0.470280
C311	C31	0.173800	0.585000	0.149090
C321	C32	0.074900	0.542700	0.073640
C331	C33	0.190500	0.494100	0.012040
C341	C34	0.747700	0.596100	0.125820
C351	C35	0.882000	0.548600	0.061960
C361	C36	0.647600	0.890900	0.134800
C371	C37	0.572400	0.952600	0.066950
C381	C38	0.660500	0.053200	0.036990
C391	C39	0.820800	0.121600	0.079110
C401	C40	0.410800	0.901400	0.029720
O11	O1	0.970400	0.344740	0.676640
O21	O2	0.307700	0.203490	0.670920
O31	O3	0.690000	0.145030	0.692700
O41	O4	0.245500	0.006450	0.685090
O51	O5	0.922700	0.084830	0.614110
O61	O6	0.678400	0.386620	0.643990
O71	O7	0.680200	0.652530	0.650100
O81	O8	0.545000	0.648600	0.532770
O91	O9	0.470400	0.155260	0.823360
O101	O10	0.807700	0.296510	0.829080
O111	O11	0.190000	0.354970	0.807300
O121	O12	0.745500	0.493550	0.814910
O131	O13	0.422700	0.415170	0.885890
O141	O14	0.178400	0.113380	0.856010
O151	O15	0.180200	0.847470	0.849900
O161	O16	0.045000	0.851400	0.967230
O171	O17	0.029600	0.655260	0.323360
O181	O18	0.692300	0.796510	0.329080
O191	O19	0.310000	0.854970	0.307300
O201	O20	0.754500	0.993550	0.314910
O211	O21	0.077300	0.915170	0.385890
O221	O22	0.321600	0.613380	0.356010
O231	O23	0.319800	0.347470	0.349900
O241	O24	0.455000	0.351400	0.467230
O251	O25	0.529600	0.844740	0.176640
O261	O26	0.192300	0.703490	0.170920
O271	O27	0.810000	0.645030	0.192700
O281	O28	0.254500	0.506450	0.185090
O291	O29	0.577300	0.584830	0.114110
O301	O30	0.821600	0.886620	0.143990
O311	O31	0.819800	0.152530	0.150100
O321	O32	0.955000	0.148600	0.032770
