data_TECTUS_clean_PM
_symmetry_space_group_name_H-M	'P1'
_cell_length_a	9.926100
_cell_length_b	9.926100
_cell_length_c	18.287300
_cell_angle_alpha	84.222900
_cell_angle_beta	76.686800
_cell_angle_gamma	112.974000
_symmetry_Int_Tables_number 1

loop_
_symmetry_equiv_pos_as_xyz
'x,y,z'

loop_
_atom_site_label
_atom_site_type_symbol
_atom_site_fract_x
_atom_site_fract_y
_atom_site_fract_z
Ca11	Ca1	0.401560	0.741360	0.048720
Ca21	Ca2	0.290080	0.450280	0.451280
Ca31	Ca3	0.598440	0.258640	0.951280
Ca41	Ca4	0.709920	0.549720	0.548720
Ca51	Ca5	0.206260	0.456260	0.250000
Ca61	Ca6	0.793740	0.543740	0.750000
H11	H1	0.544600	0.610400	0.275200
H21	H2	0.869200	0.678800	0.080000
H31	H3	0.952000	0.627400	0.283600
H41	H4	0.385600	0.819800	0.224800
H51	H5	0.258800	0.949200	0.420000
H61	H6	0.411000	0.235600	0.216400
H71	H7	0.455400	0.389600	0.724800
H81	H8	0.130800	0.321200	0.920000
H91	H9	0.048000	0.372600	0.716400
H101	H10	0.614400	0.180200	0.775200
H111	H11	0.741200	0.050800	0.580000
H121	H12	0.589000	0.764400	0.783600
C11	C1	0.642630	0.622100	0.250270
C21	C2	0.690230	0.643800	0.170770
C31	C3	0.934770	0.654360	0.175870
C41	C4	0.582700	0.652400	0.126300
C51	C5	0.836570	0.661860	0.133370
C61	C6	0.092380	0.673600	0.134620
C71	C7	0.685540	0.593100	0.379360
C81	C8	0.886750	0.632400	0.255250
C91	C9	0.741070	0.617800	0.292930
C101	C10	0.372370	0.892900	0.249730
C111	C11	0.314570	0.861000	0.329230
C121	C12	0.330230	0.110640	0.324130
C131	C13	0.278700	0.709000	0.373700
C141	C14	0.295230	0.969940	0.366630
C151	C15	0.308220	0.227000	0.365380
C161	C16	0.472460	0.064900	0.120640
C171	C17	0.387650	0.142000	0.244750
C181	C18	0.410730	0.034000	0.207070
C191	C19	0.357370	0.377900	0.749730
C201	C20	0.309770	0.356200	0.829230
C211	C21	0.065230	0.345640	0.824130
C221	C22	0.417300	0.347600	0.873700
C231	C23	0.163430	0.338140	0.866630
C241	C24	0.907620	0.326400	0.865380
C251	C25	0.314460	0.406900	0.620640
C261	C26	0.113250	0.367600	0.744750
C271	C27	0.258930	0.382200	0.707070
C281	C28	0.627630	0.107100	0.750270
C291	C29	0.685430	0.139000	0.670770
C301	C30	0.669770	0.889360	0.675870
C311	C31	0.721300	0.291000	0.626300
C321	C32	0.704770	0.030060	0.633370
C331	C33	0.691780	0.773000	0.634620
C341	C34	0.527540	0.935100	0.879360
C351	C35	0.612350	0.858000	0.755250
C361	C36	0.589270	0.966000	0.792930
O11	O1	0.442920	0.606400	0.161480
O21	O2	0.635960	0.708810	0.055030
O31	O3	0.162810	0.623870	0.171520
O41	O4	0.151100	0.738570	0.065330
O51	O5	0.779640	0.596200	0.415760
O61	O6	0.549830	0.571990	0.409780
O71	O7	0.267880	0.604400	0.338520
O81	O8	0.263840	0.690990	0.444970
O91	O9	0.295390	0.334330	0.328480
O101	O10	0.303900	0.216430	0.434670
O111	O11	0.511960	0.195400	0.084240
O121	O12	0.481770	0.959610	0.090220
O131	O13	0.557080	0.393600	0.838520
O141	O14	0.364040	0.291190	0.944970
O151	O15	0.837190	0.376130	0.828480
O161	O16	0.848900	0.261430	0.934670
O171	O17	0.220360	0.403800	0.584240
O181	O18	0.450170	0.428010	0.590220
O191	O19	0.732120	0.395600	0.661480
O201	O20	0.736160	0.309010	0.555030
O211	O21	0.704610	0.665670	0.671520
O221	O22	0.696100	0.783570	0.565330
O231	O23	0.488040	0.804600	0.915760
O241	O24	0.518230	0.040390	0.909780
