data_TECVEE_clean_PM
_symmetry_space_group_name_H-M	'P1'
_cell_length_a	10.332200
_cell_length_b	10.332200
_cell_length_c	18.981000
_cell_angle_alpha	81.090000
_cell_angle_beta	81.090000
_cell_angle_gamma	82.410100
_symmetry_Int_Tables_number 1

loop_
_symmetry_equiv_pos_as_xyz
'x,y,z'

loop_
_atom_site_label
_atom_site_type_symbol
_atom_site_fract_x
_atom_site_fract_y
_atom_site_fract_z
Ca11	Ca1	0.076770	0.852350	0.065950
Ca21	Ca2	0.147650	0.923230	0.434050
Ca31	Ca3	0.923230	0.147650	0.934050
Ca41	Ca4	0.852350	0.076770	0.565950
Ca51	Ca5	0.198070	0.801930	0.250000
Ca61	Ca6	0.801930	0.198070	0.750000
H11	H1	0.635900	0.818900	0.228600
H21	H2	0.559900	0.883900	0.434800
H31	H3	0.380200	0.131600	0.154800
H41	H4	0.526900	0.080500	0.128700
H51	H5	0.446100	0.000100	0.193800
H61	H6	0.919900	0.927300	0.322000
H71	H7	0.506200	0.779600	0.134700
H81	H8	0.596100	0.863100	0.075500
H91	H9	0.500200	0.776200	0.053000
H101	H10	0.181100	0.364100	0.271400
H111	H11	0.116100	0.440100	0.065200
H121	H12	0.868400	0.619800	0.345200
H131	H13	0.919500	0.473100	0.371300
H141	H14	0.999900	0.553900	0.306200
H151	H15	0.072700	0.080100	0.178000
H161	H16	0.220400	0.493800	0.365300
H171	H17	0.136900	0.403900	0.424500
H181	H18	0.223800	0.499800	0.447000
H191	H19	0.364100	0.181100	0.771400
H201	H20	0.440100	0.116100	0.565200
H211	H21	0.619800	0.868400	0.845200
H221	H22	0.473100	0.919500	0.871300
H231	H23	0.553900	0.999900	0.806200
H241	H24	0.080100	0.072700	0.678000
H251	H25	0.493800	0.220400	0.865300
H261	H26	0.403900	0.136900	0.924500
H271	H27	0.499800	0.223800	0.947000
H281	H28	0.818900	0.635900	0.728600
H291	H29	0.883900	0.559900	0.934800
H301	H30	0.131600	0.380200	0.654800
H311	H31	0.080500	0.526900	0.628700
H321	H32	0.000100	0.446100	0.693800
H331	H33	0.927300	0.919900	0.822000
H341	H34	0.779600	0.506200	0.634700
H351	H35	0.863100	0.596100	0.575500
H361	H36	0.776200	0.500200	0.553000
C11	C1	0.884400	0.871000	0.193500
C21	C2	0.664000	0.842400	0.268700
C31	C3	0.436400	0.814200	0.335400
C41	C4	0.748500	0.910100	0.388700
C51	C5	0.577000	0.844000	0.331900
C61	C6	0.791700	0.874500	0.263200
C71	C7	0.618200	0.880000	0.392400
C81	C8	0.441200	0.054600	0.148200
C91	C9	0.834000	0.907200	0.324400
C101	C10	0.793300	0.948900	0.453900
C111	C11	0.511500	0.830700	0.087700
C121	C12	0.129000	0.115600	0.306500
C131	C13	0.157600	0.336000	0.231300
C141	C14	0.185800	0.563600	0.164600
C151	C15	0.089900	0.251500	0.111300
C161	C16	0.156000	0.423000	0.168100
C171	C17	0.125500	0.208300	0.236800
C181	C18	0.120000	0.381800	0.107600
C191	C19	0.945400	0.558800	0.351800
C201	C20	0.092800	0.166000	0.175600
C211	C21	0.051100	0.206700	0.046100
C221	C22	0.169300	0.488500	0.412300
C231	C23	0.115600	0.129000	0.806500
C241	C24	0.336000	0.157600	0.731300
C251	C25	0.563600	0.185800	0.664600
C261	C26	0.251500	0.089900	0.611300
C271	C27	0.423000	0.156000	0.668100
C281	C28	0.208300	0.125500	0.736800
C291	C29	0.381800	0.120000	0.607600
C301	C30	0.558800	0.945400	0.851800
C311	C31	0.166000	0.092800	0.675600
C321	C32	0.206700	0.051100	0.546100
C331	C33	0.488500	0.169300	0.912300
C341	C34	0.871000	0.884400	0.693500
C351	C35	0.842400	0.664000	0.768700
C361	C36	0.814200	0.436400	0.835400
C371	C37	0.910100	0.748500	0.888700
C381	C38	0.844000	0.577000	0.831900
C391	C39	0.874500	0.791700	0.763200
C401	C40	0.880000	0.618200	0.892400
C411	C41	0.054600	0.441200	0.648200
C421	C42	0.907200	0.834000	0.824400
C431	C43	0.948900	0.793300	0.953900
C441	C44	0.830700	0.511500	0.587700
S11	S1	0.386700	0.964560	0.087820
S21	S2	0.035440	0.613300	0.412180
S31	S3	0.613300	0.035440	0.912180
S41	S4	0.964560	0.386700	0.587820
O11	O1	0.007000	0.849400	0.196980
O21	O2	0.915100	0.952900	0.454260
O31	O3	0.265000	0.904600	0.129150
O41	O4	0.358800	0.823400	0.392100
O51	O5	0.708400	0.977800	0.505000
O61	O6	0.840000	0.887400	0.134410
O71	O7	0.407600	0.782600	0.278200
O81	O8	0.150600	0.993000	0.303020
O91	O9	0.047100	0.084900	0.045740
O101	O10	0.095400	0.735000	0.370850
O111	O11	0.176600	0.641200	0.107900
O121	O12	0.022200	0.291600	0.995000
O131	O13	0.112600	0.160000	0.365590
O141	O14	0.217400	0.592400	0.221800
O151	O15	0.993000	0.150600	0.803020
O161	O16	0.084900	0.047100	0.545740
O171	O17	0.735000	0.095400	0.870850
O181	O18	0.641200	0.176600	0.607900
O191	O19	0.291600	0.022200	0.495000
O201	O20	0.160000	0.112600	0.865590
O211	O21	0.592400	0.217400	0.721800
O221	O22	0.849400	0.007000	0.696980
O231	O23	0.952900	0.915100	0.954260
O241	O24	0.904600	0.265000	0.629150
O251	O25	0.823400	0.358800	0.892100
O261	O26	0.977800	0.708400	0.005000
O271	O27	0.887400	0.840000	0.634410
O281	O28	0.782600	0.407600	0.778200
