data_TEJGIA01_clean_PM
_symmetry_space_group_name_H-M	'P1'
_cell_length_a	10.275000
_cell_length_b	11.287600
_cell_length_c	22.227200
_cell_angle_alpha	90.000000
_cell_angle_beta	97.321000
_cell_angle_gamma	90.000000
_symmetry_Int_Tables_number 1

loop_
_symmetry_equiv_pos_as_xyz
'x,y,z'

loop_
_atom_site_label
_atom_site_type_symbol
_atom_site_fract_x
_atom_site_fract_y
_atom_site_fract_z
Sm11	Sm1	0.390270	0.813140	0.774030
Sm21	Sm2	0.760690	0.586810	0.564170
Sm31	Sm3	0.109730	0.313140	0.725970
Sm41	Sm4	0.739310	0.086810	0.935830
Sm51	Sm5	0.609730	0.186860	0.225970
Sm61	Sm6	0.239310	0.413190	0.435830
Sm71	Sm7	0.890270	0.686860	0.274030
Sm81	Sm8	0.260690	0.913190	0.064170
H11	H1	0.843600	0.531100	0.836000
H21	H2	0.881200	0.880400	0.837000
H31	H3	0.602300	0.620900	0.913100
H41	H4	0.755600	0.612200	0.925400
H51	H5	0.688000	0.735800	0.913200
H61	H6	0.006600	0.776900	0.710100
H71	H7	0.881000	0.839700	0.728000
H81	H8	0.996300	0.915500	0.708200
H91	H9	0.656400	0.031100	0.664000
H101	H10	0.618800	0.380400	0.663000
H111	H11	0.897700	0.120900	0.586900
H121	H12	0.744400	0.112200	0.574600
H131	H13	0.812000	0.235800	0.586800
H141	H14	0.493400	0.276900	0.789900
H151	H15	0.619000	0.339700	0.772000
H161	H16	0.503700	0.415500	0.791800
H171	H17	0.156400	0.468900	0.164000
H181	H18	0.118800	0.119600	0.163000
H191	H19	0.397700	0.379100	0.086900
H201	H20	0.244400	0.387800	0.074600
H211	H21	0.312000	0.264200	0.086800
H221	H22	0.993400	0.223100	0.289900
H231	H23	0.119000	0.160300	0.272000
H241	H24	0.003700	0.084500	0.291800
H251	H25	0.343600	0.968900	0.336000
H261	H26	0.381200	0.619600	0.337000
H271	H27	0.102300	0.879100	0.413100
H281	H28	0.255600	0.887800	0.425400
H291	H29	0.188000	0.764200	0.413200
H301	H30	0.506600	0.723100	0.210100
H311	H31	0.381000	0.660300	0.228000
H321	H32	0.496300	0.584500	0.208200
C11	C1	0.842300	0.495300	0.717200
C21	C2	0.759700	0.573400	0.752000
C31	C3	0.652600	0.647300	0.738100
C41	C4	0.580900	0.687600	0.680000
C51	C5	0.689000	0.638500	0.836400
C61	C6	0.683200	0.653200	0.903000
C71	C7	0.305800	0.849100	0.912200
C81	C8	0.173300	0.852200	0.876200
C91	C9	0.050800	0.870500	0.893200
C101	C10	0.994400	0.884300	0.951400
C111	C11	0.036000	0.851100	0.793200
C121	C12	0.974600	0.845300	0.729200
C131	C13	0.235600	0.045800	0.714400
C141	C14	0.295500	0.091300	0.778000
C151	C15	0.657700	0.995300	0.782800
C161	C16	0.740300	0.073400	0.748000
C171	C17	0.847400	0.147300	0.761900
C181	C18	0.919100	0.187600	0.820000
C191	C19	0.811000	0.138500	0.663600
C201	C20	0.816800	0.153200	0.597000
C211	C21	0.194200	0.349100	0.587800
C221	C22	0.326700	0.352200	0.623800
C231	C23	0.449200	0.370500	0.606800
C241	C24	0.505600	0.384300	0.548600
C251	C25	0.464000	0.351100	0.706800
C261	C26	0.525400	0.345300	0.770800
C271	C27	0.264400	0.545800	0.785600
C281	C28	0.204500	0.591300	0.722000
C291	C29	0.157700	0.504700	0.282800
C301	C30	0.240300	0.426600	0.248000
C311	C31	0.347400	0.352700	0.261900
C321	C32	0.419100	0.312400	0.320000
C331	C33	0.311000	0.361500	0.163600
C341	C34	0.316800	0.346800	0.097000
C351	C35	0.694200	0.150900	0.087800
C361	C36	0.826700	0.147800	0.123800
C371	C37	0.949200	0.129500	0.106800
C381	C38	0.005600	0.115700	0.048600
C391	C39	0.964000	0.148900	0.206800
C401	C40	0.025400	0.154700	0.270800
C411	C41	0.764400	0.954200	0.285600
C421	C42	0.704500	0.908700	0.222000
C431	C43	0.342300	0.004700	0.217200
C441	C44	0.259700	0.926600	0.252000
C451	C45	0.152600	0.852700	0.238100
C461	C46	0.080900	0.812400	0.180000
C471	C47	0.189000	0.861500	0.336400
C481	C48	0.183200	0.846800	0.403000
C491	C49	0.805800	0.650900	0.412200
C501	C50	0.673300	0.647800	0.376200
C511	C51	0.550800	0.629500	0.393200
C521	C52	0.494400	0.615700	0.451400
C531	C53	0.536000	0.648900	0.293200
C541	C54	0.474600	0.654700	0.229200
C551	C55	0.735600	0.454200	0.214400
C561	C56	0.795500	0.408700	0.278000
N11	N1	0.780700	0.570600	0.814100
N21	N2	0.609500	0.686700	0.790950
N31	N3	0.163000	0.839700	0.814310
N41	N4	0.966600	0.870000	0.840100
N51	N5	0.719300	0.070600	0.685900
N61	N6	0.890500	0.186700	0.709050
N71	N7	0.337000	0.339700	0.685690
N81	N8	0.533400	0.370000	0.659900
N91	N9	0.219300	0.429400	0.185900
N101	N10	0.390500	0.313300	0.209050
N111	N11	0.837000	0.160300	0.185690
N121	N12	0.033400	0.130000	0.159900
N131	N13	0.280700	0.929400	0.314100
N141	N14	0.109500	0.813300	0.290950
N151	N15	0.663000	0.660300	0.314310
N161	N16	0.466600	0.630000	0.340100
O11	O1	0.929500	0.439700	0.749010
O21	O2	0.815600	0.486100	0.660420
O31	O3	0.624800	0.664500	0.630590
O41	O4	0.476600	0.743500	0.681790
O51	O5	0.402200	0.822500	0.883940
O61	O6	0.320300	0.874800	0.967060
O71	O7	0.060700	0.862800	0.000510
O81	O8	0.875500	0.914100	0.945590
O91	O9	0.270200	0.944600	0.698930
O101	O10	0.156800	0.113200	0.684200
O111	O11	0.367400	0.020600	0.810870
O121	O12	0.268400	0.195100	0.791300
O131	O13	0.570500	0.939700	0.750990
O141	O14	0.684400	0.986100	0.839580
O151	O15	0.875200	0.164500	0.869410
O161	O16	0.023400	0.243500	0.818210
O171	O17	0.097800	0.322500	0.616060
O181	O18	0.179700	0.374800	0.532940
O191	O19	0.439300	0.362800	0.499490
O201	O20	0.624500	0.414100	0.554410
O211	O21	0.229800	0.444600	0.801070
O221	O22	0.343200	0.613200	0.815800
O231	O23	0.132600	0.520600	0.689130
O241	O24	0.231600	0.695100	0.708700
O251	O25	0.070500	0.560300	0.250990
O261	O26	0.184400	0.513900	0.339580
O271	O27	0.375200	0.335500	0.369410
O281	O28	0.523400	0.256500	0.318210
O291	O29	0.597800	0.177500	0.116060
O301	O30	0.679700	0.125200	0.032940
O311	O31	0.939300	0.137200	0.999490
O321	O32	0.124500	0.085900	0.054410
O331	O33	0.729800	0.055400	0.301070
O341	O34	0.843200	0.886800	0.315800
O351	O35	0.632600	0.979400	0.189130
O361	O36	0.731600	0.804900	0.208700
O371	O37	0.429500	0.060300	0.249010
O381	O38	0.315600	0.013900	0.160420
O391	O39	0.124800	0.835500	0.130590
O401	O40	0.976600	0.756500	0.181790
O411	O41	0.902200	0.677500	0.383940
O421	O42	0.820300	0.625200	0.467060
O431	O43	0.560700	0.637200	0.500510
O441	O44	0.375500	0.585900	0.445590
O451	O45	0.770200	0.555400	0.198930
O461	O46	0.656800	0.386800	0.184200
O471	O47	0.867400	0.479400	0.310870
O481	O48	0.768400	0.304900	0.291300
