data_TEJLOL_clean_PM
_symmetry_space_group_name_H-M	'P1'
_cell_length_a	9.423000
_cell_length_b	18.220000
_cell_length_c	19.280000
_cell_angle_alpha	90.000000
_cell_angle_beta	90.000000
_cell_angle_gamma	101.340000
_symmetry_Int_Tables_number 1

loop_
_symmetry_equiv_pos_as_xyz
'x,y,z'

loop_
_atom_site_label
_atom_site_type_symbol
_atom_site_fract_x
_atom_site_fract_y
_atom_site_fract_z
Cd11	Cd1	0.081480	0.923730	0.992900
Cd21	Cd2	0.512710	0.027150	0.756840
Cd31	Cd3	0.418520	0.576270	0.492900
Cd41	Cd4	0.987290	0.472850	0.256840
Cd51	Cd5	0.918520	0.076270	0.007100
Cd61	Cd6	0.487290	0.972850	0.243160
Cd71	Cd7	0.581480	0.423730	0.507100
Cd81	Cd8	0.012710	0.527150	0.743160
H11	H1	0.361800	0.207000	0.267200
H21	H2	0.438600	0.143300	0.260400
H31	H3	0.138300	0.784300	0.610100
H41	H4	0.213300	0.670200	0.809200
H51	H5	0.345300	0.143400	0.719300
H61	H6	0.283100	0.212500	0.716100
H71	H7	0.346300	0.937700	0.098900
H81	H8	0.322900	0.789700	0.795700
H91	H9	0.025300	0.190600	0.124800
H101	H10	0.310900	0.948100	0.875800
H111	H11	0.010900	0.208000	0.901800
H121	H12	0.035100	0.661300	0.632000
H131	H13	0.138200	0.293000	0.767200
H141	H14	0.061400	0.356700	0.760400
H151	H15	0.361700	0.715700	0.110100
H161	H16	0.286700	0.829800	0.309200
H171	H17	0.154700	0.356600	0.219300
H181	H18	0.216900	0.287500	0.216100
H191	H19	0.153700	0.562300	0.598900
H201	H20	0.177100	0.710300	0.295700
H211	H21	0.474700	0.309400	0.624800
H221	H22	0.189100	0.551900	0.375800
H231	H23	0.489100	0.292000	0.401800
H241	H24	0.464900	0.838700	0.132000
H251	H25	0.638200	0.793000	0.732800
H261	H26	0.561400	0.856700	0.739600
H271	H27	0.861700	0.215700	0.389900
H281	H28	0.786700	0.329800	0.190800
H291	H29	0.654700	0.856600	0.280700
H301	H30	0.716900	0.787500	0.283900
H311	H31	0.653700	0.062300	0.901100
H321	H32	0.677100	0.210300	0.204300
H331	H33	0.974700	0.809400	0.875200
H341	H34	0.689100	0.051900	0.124200
H351	H35	0.989100	0.792000	0.098200
H361	H36	0.964900	0.338700	0.368000
H371	H37	0.861800	0.707000	0.232800
H381	H38	0.938600	0.643300	0.239600
H391	H39	0.638300	0.284300	0.889900
H401	H40	0.713300	0.170200	0.690800
H411	H41	0.845300	0.643400	0.780700
H421	H42	0.783100	0.712500	0.783900
H431	H43	0.846300	0.437700	0.401100
H441	H44	0.822900	0.289700	0.704300
H451	H45	0.525300	0.690600	0.375200
H461	H46	0.810900	0.448100	0.624200
H471	H47	0.510900	0.708000	0.598200
H481	H48	0.535100	0.161300	0.868000
C11	C1	0.302300	0.882600	0.692600
C21	C2	0.152000	0.762600	0.652600
C31	C3	0.230100	0.802900	0.703700
C41	C4	0.197000	0.693400	0.767900
C51	C5	0.187600	0.060900	0.105600
C61	C6	0.243700	0.093500	0.833000
C71	C7	0.310900	0.980200	0.110900
C81	C8	0.260400	0.765800	0.761700
C91	C9	0.161800	0.074100	0.892800
C101	C10	0.289700	0.140600	0.197200
C111	C11	0.285300	0.077300	0.159300
C121	C12	0.095300	0.161700	0.131300
C131	C13	0.228500	0.154900	0.799700
C141	C14	0.277900	0.992800	0.871900
C151	C15	0.070000	0.176900	0.885000
C161	C16	0.094000	0.688400	0.665800
C171	C17	0.197700	0.617400	0.192600
C181	C18	0.348000	0.737400	0.152600
C191	C19	0.269900	0.697100	0.203700
C201	C20	0.303000	0.806600	0.267900
C211	C21	0.312400	0.439100	0.605600
C221	C22	0.256300	0.406500	0.333000
C231	C23	0.189100	0.519800	0.610900
C241	C24	0.239600	0.734200	0.261700
C251	C25	0.338200	0.425900	0.392800
C261	C26	0.210300	0.359400	0.697200
C271	C27	0.214700	0.422700	0.659300
C281	C28	0.404700	0.338300	0.631300
C291	C29	0.271500	0.345100	0.299700
C301	C30	0.222100	0.507200	0.371900
C311	C31	0.430000	0.323100	0.385000
C321	C32	0.406000	0.811600	0.165800
C331	C33	0.697700	0.117400	0.307400
C341	C34	0.848000	0.237400	0.347400
C351	C35	0.769900	0.197100	0.296300
C361	C36	0.803000	0.306600	0.232100
C371	C37	0.812400	0.939100	0.894400
C381	C38	0.756300	0.906500	0.167000
C391	C39	0.689100	0.019800	0.889100
C401	C40	0.739600	0.234200	0.238300
C411	C41	0.838200	0.925900	0.107200
C421	C42	0.710300	0.859400	0.802800
C431	C43	0.714700	0.922700	0.840700
C441	C44	0.904700	0.838300	0.868700
C451	C45	0.771500	0.845100	0.200300
C461	C46	0.722100	0.007200	0.128100
C471	C47	0.930000	0.823100	0.115000
C481	C48	0.906000	0.311600	0.334200
C491	C49	0.802300	0.382600	0.807400
C501	C50	0.652000	0.262600	0.847400
C511	C51	0.730100	0.302900	0.796300
C521	C52	0.697000	0.193400	0.732100
C531	C53	0.687600	0.560900	0.394400
C541	C54	0.743700	0.593500	0.667000
C551	C55	0.810900	0.480200	0.389100
C561	C56	0.760400	0.265800	0.738300
C571	C57	0.661800	0.574100	0.607200
C581	C58	0.789700	0.640600	0.302800
C591	C59	0.785300	0.577300	0.340700
C601	C60	0.595300	0.661700	0.368700
C611	C61	0.728500	0.654900	0.700300
C621	C62	0.777900	0.492800	0.628100
C631	C63	0.570000	0.676900	0.615000
C641	C64	0.594000	0.188400	0.834200
N11	N1	0.372200	0.166400	0.246900
N21	N2	0.184100	0.010400	0.916400
N31	N3	0.323900	0.040800	0.821300
N41	N4	0.116600	0.653300	0.724400
N51	N5	0.201400	0.000500	0.075400
N61	N6	0.092100	0.104500	0.090500
N71	N7	0.147700	0.199500	0.827300
N81	N8	0.193100	0.182000	0.182400
N91	N9	0.293600	0.172400	0.737400
N101	N10	0.363300	0.021200	0.161000
N111	N11	0.071200	0.116500	0.918600
N121	N12	0.127800	0.333600	0.746900
N131	N13	0.315900	0.489600	0.416400
N141	N14	0.176100	0.459200	0.321300
N151	N15	0.383400	0.846700	0.224400
N161	N16	0.298600	0.499500	0.575400
N171	N17	0.407900	0.395500	0.590500
N181	N18	0.352300	0.300500	0.327300
N191	N19	0.306900	0.318000	0.682400
N201	N20	0.206400	0.327600	0.237400
N211	N21	0.136700	0.478800	0.661000
N221	N22	0.428800	0.383500	0.418600
N231	N23	0.627800	0.833600	0.753100
N241	N24	0.815900	0.989600	0.083600
N251	N25	0.676100	0.959200	0.178700
N261	N26	0.883400	0.346700	0.275600
N271	N27	0.798600	0.999500	0.924600
N281	N28	0.907900	0.895500	0.909500
N291	N29	0.852300	0.800500	0.172700
N301	N30	0.806900	0.818000	0.817600
N311	N31	0.706400	0.827600	0.262600
N321	N32	0.636700	0.978800	0.839000
N331	N33	0.928800	0.883500	0.081400
N341	N34	0.872200	0.666400	0.253100
N351	N35	0.684100	0.510400	0.583600
N361	N36	0.823900	0.540800	0.678700
N371	N37	0.616600	0.153300	0.775600
N381	N38	0.701400	0.500500	0.424600
N391	N39	0.592100	0.604500	0.409500
N401	N40	0.647700	0.699500	0.672700
N411	N41	0.693100	0.682000	0.317600
N421	N42	0.793600	0.672400	0.762600
N431	N43	0.863300	0.521200	0.339000
N441	N44	0.571200	0.616500	0.581400
O11	O1	0.401400	0.909500	0.733400
O21	O2	0.258000	0.917300	0.644700
O31	O3	0.098600	0.590500	0.233400
O41	O4	0.242000	0.582700	0.144700
O51	O5	0.598600	0.090500	0.266600
O61	O6	0.742000	0.082700	0.355300
O71	O7	0.901400	0.409500	0.766600
O81	O8	0.758000	0.417300	0.855300
