data_TEJQAC_clean_PM
_symmetry_space_group_name_H-M	'P1'
_cell_length_a	14.214000
_cell_length_b	21.157000
_cell_length_c	24.013000
_cell_angle_alpha	90.000000
_cell_angle_beta	90.000000
_cell_angle_gamma	90.000000
_symmetry_Int_Tables_number 1

loop_
_symmetry_equiv_pos_as_xyz
'x,y,z'

loop_
_atom_site_label
_atom_site_type_symbol
_atom_site_fract_x
_atom_site_fract_y
_atom_site_fract_z
Cu11	Cu1	0.869830	0.454250	0.035240
Cu21	Cu2	0.929580	0.802120	0.177850
Cu31	Cu3	0.369830	0.045750	0.464760
Cu41	Cu4	0.429580	0.697880	0.322150
H11	H1	0.871700	0.563100	0.121900
H21	H2	0.888300	0.571600	0.218500
H31	H3	0.892900	0.480000	0.270900
H41	H4	0.881900	0.382000	0.227900
H51	H5	0.864800	0.291000	0.176300
H61	H6	0.859300	0.226400	0.019900
H71	H7	0.873300	0.259300	0.925100
H81	H8	0.886500	0.303500	0.839200
H91	H9	0.873800	0.412100	0.829500
H101	H10	0.861900	0.471300	0.903600
H111	H11	0.818700	0.198300	0.200100
H121	H12	0.911100	0.137400	0.054100
H131	H13	0.822100	0.097900	0.233100
H141	H14	0.910900	0.037100	0.086600
H151	H15	0.888700	0.936200	0.117900
H161	H16	0.880600	0.899100	0.275500
H171	H17	0.878100	0.660500	0.057100
H181	H18	0.904600	0.639700	0.892400
H191	H19	0.881900	0.747100	0.879700
H201	H20	0.872000	0.813400	0.959500
H211	H21	0.961300	0.613600	0.315400
H221	H22	0.725400	0.710800	0.286200
H231	H23	0.883700	0.555900	0.384300
H241	H24	0.726400	0.572600	0.400100
H251	H25	0.371700	0.936900	0.378100
H261	H26	0.388300	0.928400	0.281500
H271	H27	0.392900	0.020000	0.229100
H281	H28	0.381900	0.118000	0.272100
H291	H29	0.364800	0.209000	0.323700
H301	H30	0.359300	0.273600	0.480100
H311	H31	0.373300	0.240700	0.574900
H321	H32	0.386500	0.196500	0.660800
H331	H33	0.373800	0.087900	0.670500
H341	H34	0.361900	0.028700	0.596400
H351	H35	0.318700	0.301700	0.299900
H361	H36	0.411100	0.362600	0.445900
H371	H37	0.322100	0.402100	0.266900
H381	H38	0.410900	0.462900	0.413400
H391	H39	0.388700	0.563800	0.382100
H401	H40	0.380600	0.600900	0.224500
H411	H41	0.378100	0.839500	0.442900
H421	H42	0.404600	0.860300	0.607600
H431	H43	0.381900	0.752900	0.620300
H441	H44	0.372000	0.686600	0.540500
H451	H45	0.461300	0.886400	0.184600
H461	H46	0.225400	0.789200	0.213800
H471	H47	0.383700	0.944100	0.115700
H481	H48	0.226400	0.927400	0.099900
C11	C1	0.873700	0.526600	0.143500
C21	C2	0.883600	0.532200	0.201500
C31	C3	0.886300	0.477600	0.232500
C41	C4	0.879100	0.418900	0.207000
C51	C5	0.867800	0.416800	0.150400
C61	C6	0.864700	0.359500	0.117100
C71	C7	0.864100	0.297500	0.138000
C81	C8	0.862400	0.245800	0.102600
C91	C9	0.861400	0.259400	0.045400
C101	C10	0.863500	0.321900	0.026200
C111	C11	0.865300	0.342700	0.968600
C121	C12	0.872600	0.303000	0.921000
C131	C13	0.878500	0.328900	0.870400
C141	C14	0.872600	0.393500	0.864600
C151	C15	0.865400	0.427700	0.908600
C161	C16	0.861400	0.179800	0.122300
C171	C17	0.837200	0.165700	0.176500
C181	C18	0.891200	0.129800	0.090300
C191	C19	0.839500	0.105800	0.196500
C201	C20	0.892500	0.070000	0.109800
C211	C21	0.866800	0.058000	0.163600
C221	C22	0.884800	0.940600	0.156300
C231	C23	0.879500	0.921500	0.242200
C241	C24	0.905200	0.571100	0.983400
C251	C25	0.891900	0.639700	0.976800
C261	C26	0.881300	0.677900	0.021600
C271	C27	0.895100	0.665800	0.923000
C281	C28	0.884100	0.729900	0.915400
C291	C29	0.876300	0.769800	0.963700
C301	C30	0.875100	0.744000	0.014700
C311	C31	0.871700	0.786000	0.066800
C321	C32	0.904200	0.710500	0.253100
C331	C33	0.852600	0.669600	0.294000
C341	C34	0.898400	0.622000	0.323000
C351	C35	0.757500	0.678900	0.304800
C361	C36	0.851300	0.586200	0.363900
C371	C37	0.757800	0.596200	0.373200
C381	C38	0.709300	0.641300	0.342900
C391	C39	0.605000	0.652500	0.351600
C401	C40	0.373700	0.973400	0.356500
C411	C41	0.383600	0.967800	0.298500
C421	C42	0.386300	0.022400	0.267500
C431	C43	0.379100	0.081100	0.293000
C441	C44	0.367800	0.083200	0.349600
C451	C45	0.364700	0.140500	0.382900
C461	C46	0.364100	0.202500	0.362000
C471	C47	0.362400	0.254200	0.397400
C481	C48	0.361400	0.240600	0.454600
C491	C49	0.363500	0.178100	0.473800
C501	C50	0.365300	0.157300	0.531400
C511	C51	0.372600	0.197000	0.579000
C521	C52	0.378500	0.171100	0.629600
C531	C53	0.372600	0.106500	0.635400
C541	C54	0.365400	0.072300	0.591400
C551	C55	0.361400	0.320200	0.377700
C561	C56	0.337200	0.334300	0.323500
C571	C57	0.391200	0.370200	0.409700
C581	C58	0.339500	0.394200	0.303500
C591	C59	0.392500	0.430000	0.390200
C601	C60	0.366800	0.442000	0.336400
C611	C61	0.384800	0.559400	0.343700
C621	C62	0.379500	0.578500	0.257800
C631	C63	0.405200	0.928900	0.516600
C641	C64	0.391900	0.860300	0.523200
C651	C65	0.381300	0.822100	0.478400
C661	C66	0.395100	0.834200	0.577000
C671	C67	0.384100	0.770100	0.584600
C681	C68	0.376300	0.730200	0.536300
C691	C69	0.375100	0.756000	0.485300
C701	C70	0.371700	0.714000	0.433200
C711	C71	0.404200	0.789500	0.246900
C721	C72	0.352600	0.830400	0.206000
C731	C73	0.398400	0.878000	0.177000
C741	C74	0.257500	0.821100	0.195200
C751	C75	0.351300	0.913800	0.136100
C761	C76	0.257800	0.903800	0.126800
C771	C77	0.209300	0.858700	0.157100
C781	C78	0.105000	0.847500	0.148400
N11	N1	0.866800	0.469500	0.118100
N21	N2	0.862500	0.368300	0.062300
N31	N3	0.862500	0.406200	0.961600
N41	N4	0.873000	0.995100	0.184300
N51	N5	0.867300	0.982700	0.240200
N61	N6	0.890000	0.894200	0.193700
N71	N7	0.366800	0.030500	0.381900
N81	N8	0.362500	0.131700	0.437700
N91	N9	0.362500	0.093800	0.538400
N101	N10	0.373000	0.504900	0.315700
N111	N11	0.367300	0.517300	0.259800
N121	N12	0.390000	0.605800	0.306300
O11	O1	0.850200	0.542000	0.016700
O21	O2	0.965100	0.543600	0.952600
O31	O3	0.890500	0.758700	0.112000
O41	O4	0.851800	0.842900	0.061500
O51	O5	0.867300	0.762400	0.241400
O61	O6	0.971400	0.687000	0.228700
O71	O7	0.565800	0.686200	0.314100
O81	O8	0.564900	0.629300	0.391200
O91	O9	0.350200	0.958000	0.483300
O101	O10	0.465100	0.956400	0.547400
O111	O11	0.390500	0.741300	0.388000
O121	O12	0.351800	0.657100	0.438500
O131	O13	0.367300	0.737600	0.258600
O141	O14	0.471400	0.813000	0.271300
O151	O15	0.065800	0.813800	0.185900
O161	O16	0.064900	0.870700	0.108800
Cu51	Cu5	0.630170	0.545750	0.035240
Cu61	Cu6	0.570420	0.197880	0.177850
Cu71	Cu7	0.130170	0.954250	0.464760
Cu81	Cu8	0.070420	0.302120	0.322150
H491	H49	0.628300	0.436900	0.121900
H501	H50	0.611700	0.428400	0.218500
H511	H51	0.607100	0.520000	0.270900
H521	H52	0.618100	0.618000	0.227900
H531	H53	0.635200	0.709000	0.176300
H541	H54	0.640700	0.773600	0.019900
H551	H55	0.626700	0.740700	0.925100
H561	H56	0.613500	0.696500	0.839200
H571	H57	0.626200	0.587900	0.829500
H581	H58	0.638100	0.528700	0.903600
H591	H59	0.681300	0.801700	0.200100
H601	H60	0.588900	0.862600	0.054100
H611	H61	0.677900	0.902100	0.233100
H621	H62	0.589100	0.962900	0.086600
H631	H63	0.611300	0.063800	0.117900
H641	H64	0.619400	0.100900	0.275500
H651	H65	0.621900	0.339500	0.057100
H661	H66	0.595400	0.360300	0.892400
H671	H67	0.618100	0.252900	0.879700
H681	H68	0.628000	0.186600	0.959500
H691	H69	0.538700	0.386400	0.315400
H701	H70	0.774600	0.289200	0.286200
H711	H71	0.616300	0.444100	0.384300
H721	H72	0.773600	0.427400	0.400100
H731	H73	0.128300	0.063100	0.378100
H741	H74	0.111700	0.071600	0.281500
H751	H75	0.107100	0.980000	0.229100
H761	H76	0.118100	0.882000	0.272100
H771	H77	0.135200	0.791000	0.323700
H781	H78	0.140700	0.726400	0.480100
H791	H79	0.126700	0.759300	0.574900
H801	H80	0.113500	0.803500	0.660800
H811	H81	0.126200	0.912100	0.670500
H821	H82	0.138100	0.971300	0.596400
H831	H83	0.181300	0.698300	0.299900
H841	H84	0.088900	0.637400	0.445900
H851	H85	0.177900	0.597900	0.266900
H861	H86	0.089100	0.537100	0.413400
H871	H87	0.111300	0.436200	0.382100
H881	H88	0.119400	0.399100	0.224500
H891	H89	0.121900	0.160500	0.442900
H901	H90	0.095400	0.139700	0.607600
H911	H91	0.118100	0.247100	0.620300
H921	H92	0.128000	0.313400	0.540500
H931	H93	0.038700	0.113600	0.184600
H941	H94	0.274600	0.210800	0.213800
H951	H95	0.116300	0.055900	0.115700
H961	H96	0.273600	0.072600	0.099900
C791	C79	0.626300	0.473400	0.143500
C801	C80	0.616400	0.467800	0.201500
C811	C81	0.613700	0.522400	0.232500
C821	C82	0.620900	0.581100	0.207000
C831	C83	0.632200	0.583200	0.150400
C841	C84	0.635300	0.640500	0.117100
C851	C85	0.635900	0.702500	0.138000
C861	C86	0.637600	0.754200	0.102600
C871	C87	0.638600	0.740600	0.045400
C881	C88	0.636500	0.678100	0.026200
C891	C89	0.634700	0.657300	0.968600
C901	C90	0.627400	0.697000	0.921000
C911	C91	0.621500	0.671100	0.870400
C921	C92	0.627400	0.606500	0.864600
C931	C93	0.634600	0.572300	0.908600
C941	C94	0.638600	0.820200	0.122300
C951	C95	0.662800	0.834300	0.176500
C961	C96	0.608800	0.870200	0.090300
C971	C97	0.660500	0.894200	0.196500
C981	C98	0.607500	0.930000	0.109800
C991	C99	0.633200	0.942000	0.163600
C1001	C100	0.615200	0.059400	0.156300
C1011	C101	0.620500	0.078500	0.242200
C1021	C102	0.594800	0.428900	0.983400
C1031	C103	0.608100	0.360300	0.976800
C1041	C104	0.618700	0.322100	0.021600
C1051	C105	0.604900	0.334200	0.923000
C1061	C106	0.615900	0.270100	0.915400
C1071	C107	0.623700	0.230200	0.963700
C1081	C108	0.624900	0.256000	0.014700
C1091	C109	0.628300	0.214000	0.066800
C1101	C110	0.595800	0.289500	0.253100
C1111	C111	0.647400	0.330400	0.294000
C1121	C112	0.601600	0.378000	0.323000
C1131	C113	0.742500	0.321100	0.304800
C1141	C114	0.648700	0.413800	0.363900
C1151	C115	0.742200	0.403800	0.373200
C1161	C116	0.790700	0.358700	0.342900
C1171	C117	0.895000	0.347500	0.351600
C1181	C118	0.126300	0.026600	0.356500
C1191	C119	0.116400	0.032200	0.298500
C1201	C120	0.113700	0.977600	0.267500
C1211	C121	0.120900	0.918900	0.293000
C1221	C122	0.132200	0.916800	0.349600
C1231	C123	0.135300	0.859500	0.382900
C1241	C124	0.135900	0.797500	0.362000
C1251	C125	0.137600	0.745800	0.397400
C1261	C126	0.138600	0.759400	0.454600
C1271	C127	0.136500	0.821900	0.473800
C1281	C128	0.134700	0.842700	0.531400
C1291	C129	0.127400	0.803000	0.579000
C1301	C130	0.121500	0.828900	0.629600
C1311	C131	0.127400	0.893500	0.635400
C1321	C132	0.134600	0.927700	0.591400
C1331	C133	0.138600	0.679800	0.377700
C1341	C134	0.162800	0.665700	0.323500
C1351	C135	0.108800	0.629800	0.409700
C1361	C136	0.160500	0.605800	0.303500
C1371	C137	0.107500	0.570000	0.390200
C1381	C138	0.133200	0.558000	0.336400
C1391	C139	0.115200	0.440600	0.343700
C1401	C140	0.120500	0.421500	0.257800
C1411	C141	0.094800	0.071100	0.516600
C1421	C142	0.108100	0.139700	0.523200
C1431	C143	0.118700	0.177900	0.478400
C1441	C144	0.104900	0.165800	0.577000
C1451	C145	0.115900	0.229900	0.584600
C1461	C146	0.123700	0.269800	0.536300
C1471	C147	0.124900	0.244000	0.485300
C1481	C148	0.128300	0.286000	0.433200
C1491	C149	0.095800	0.210500	0.246900
C1501	C150	0.147400	0.169600	0.206000
C1511	C151	0.101600	0.122000	0.177000
C1521	C152	0.242500	0.178900	0.195200
C1531	C153	0.148700	0.086200	0.136100
C1541	C154	0.242200	0.096200	0.126800
C1551	C155	0.290700	0.141300	0.157100
C1561	C156	0.395000	0.152500	0.148400
N131	N13	0.633200	0.530500	0.118100
N141	N14	0.637500	0.631700	0.062300
N151	N15	0.637500	0.593800	0.961600
N161	N16	0.627000	0.004900	0.184300
N171	N17	0.632700	0.017300	0.240200
N181	N18	0.610000	0.105800	0.193700
N191	N19	0.133200	0.969500	0.381900
N201	N20	0.137500	0.868300	0.437700
N211	N21	0.137500	0.906200	0.538400
N221	N22	0.127000	0.495100	0.315700
N231	N23	0.132700	0.482700	0.259800
N241	N24	0.110000	0.394200	0.306300
O171	O17	0.649800	0.458000	0.016700
O181	O18	0.534900	0.456400	0.952600
O191	O19	0.609500	0.241300	0.112000
O201	O20	0.648200	0.157100	0.061500
O211	O21	0.632700	0.237600	0.241400
O221	O22	0.528600	0.313000	0.228700
O231	O23	0.934200	0.313800	0.314100
O241	O24	0.935100	0.370700	0.391200
O251	O25	0.149800	0.042000	0.483300
O261	O26	0.034900	0.043600	0.547400
O271	O27	0.109500	0.258700	0.388000
O281	O28	0.148200	0.342900	0.438500
O291	O29	0.132700	0.262400	0.258600
O301	O30	0.028600	0.187000	0.271300
O311	O31	0.434200	0.186200	0.185900
O321	O32	0.435100	0.129300	0.108800
Cu91	Cu9	0.130170	0.545750	0.964760
Cu101	Cu10	0.070420	0.197880	0.822150
Cu111	Cu11	0.630170	0.954250	0.535240
Cu121	Cu12	0.570420	0.302120	0.677850
H971	H97	0.128300	0.436900	0.878100
H981	H98	0.111700	0.428400	0.781500
H991	H99	0.107100	0.520000	0.729100
H1001	H100	0.118100	0.618000	0.772100
H1011	H101	0.135200	0.709000	0.823700
H1021	H102	0.140700	0.773600	0.980100
H1031	H103	0.126700	0.740700	0.074900
H1041	H104	0.113500	0.696500	0.160800
H1051	H105	0.126200	0.587900	0.170500
H1061	H106	0.138100	0.528700	0.096400
H1071	H107	0.181300	0.801700	0.799900
H1081	H108	0.088900	0.862600	0.945900
H1091	H109	0.177900	0.902100	0.766900
H1101	H110	0.089100	0.962900	0.913400
H1111	H111	0.111300	0.063800	0.882100
H1121	H112	0.119400	0.100900	0.724500
H1131	H113	0.121900	0.339500	0.942900
H1141	H114	0.095400	0.360300	0.107600
H1151	H115	0.118100	0.252900	0.120300
H1161	H116	0.128000	0.186600	0.040500
H1171	H117	0.038700	0.386400	0.684600
H1181	H118	0.274600	0.289200	0.713800
H1191	H119	0.116300	0.444100	0.615700
H1201	H120	0.273600	0.427400	0.599900
H1211	H121	0.628300	0.063100	0.621900
H1221	H122	0.611700	0.071600	0.718500
H1231	H123	0.607100	0.980000	0.770900
H1241	H124	0.618100	0.882000	0.727900
H1251	H125	0.635200	0.791000	0.676300
H1261	H126	0.640700	0.726400	0.519900
H1271	H127	0.626700	0.759300	0.425100
H1281	H128	0.613500	0.803500	0.339200
H1291	H129	0.626200	0.912100	0.329500
H1301	H130	0.638100	0.971300	0.403600
H1311	H131	0.681300	0.698300	0.700100
H1321	H132	0.588900	0.637400	0.554100
H1331	H133	0.677900	0.597900	0.733100
H1341	H134	0.589100	0.537100	0.586600
H1351	H135	0.611300	0.436200	0.617900
H1361	H136	0.619400	0.399100	0.775500
H1371	H137	0.621900	0.160500	0.557100
H1381	H138	0.595400	0.139700	0.392400
H1391	H139	0.618100	0.247100	0.379700
H1401	H140	0.628000	0.313400	0.459500
H1411	H141	0.538700	0.113600	0.815400
H1421	H142	0.774600	0.210800	0.786200
H1431	H143	0.616300	0.055900	0.884300
H1441	H144	0.773600	0.072600	0.900100
C1571	C157	0.126300	0.473400	0.856500
C1581	C158	0.116400	0.467800	0.798500
C1591	C159	0.113700	0.522400	0.767500
C1601	C160	0.120900	0.581100	0.793000
C1611	C161	0.132200	0.583200	0.849600
C1621	C162	0.135300	0.640500	0.882900
C1631	C163	0.135900	0.702500	0.862000
C1641	C164	0.137600	0.754200	0.897400
C1651	C165	0.138600	0.740600	0.954600
C1661	C166	0.136500	0.678100	0.973800
C1671	C167	0.134700	0.657300	0.031400
C1681	C168	0.127400	0.697000	0.079000
C1691	C169	0.121500	0.671100	0.129600
C1701	C170	0.127400	0.606500	0.135400
C1711	C171	0.134600	0.572300	0.091400
C1721	C172	0.138600	0.820200	0.877700
C1731	C173	0.162800	0.834300	0.823500
C1741	C174	0.108800	0.870200	0.909700
C1751	C175	0.160500	0.894200	0.803500
C1761	C176	0.107500	0.930000	0.890200
C1771	C177	0.133200	0.942000	0.836400
C1781	C178	0.115200	0.059400	0.843700
C1791	C179	0.120500	0.078500	0.757800
C1801	C180	0.094800	0.428900	0.016600
C1811	C181	0.108100	0.360300	0.023200
C1821	C182	0.118700	0.322100	0.978400
C1831	C183	0.104900	0.334200	0.077000
C1841	C184	0.115900	0.270100	0.084600
C1851	C185	0.123700	0.230200	0.036300
C1861	C186	0.124900	0.256000	0.985300
C1871	C187	0.128300	0.214000	0.933200
C1881	C188	0.095800	0.289500	0.746900
C1891	C189	0.147400	0.330400	0.706000
C1901	C190	0.101600	0.378000	0.677000
C1911	C191	0.242500	0.321100	0.695200
C1921	C192	0.148700	0.413800	0.636100
C1931	C193	0.242200	0.403800	0.626800
C1941	C194	0.290700	0.358700	0.657100
C1951	C195	0.395000	0.347500	0.648400
C1961	C196	0.626300	0.026600	0.643500
C1971	C197	0.616400	0.032200	0.701500
C1981	C198	0.613700	0.977600	0.732500
C1991	C199	0.620900	0.918900	0.707000
C2001	C200	0.632200	0.916800	0.650400
C2011	C201	0.635300	0.859500	0.617100
C2021	C202	0.635900	0.797500	0.638000
C2031	C203	0.637600	0.745800	0.602600
C2041	C204	0.638600	0.759400	0.545400
C2051	C205	0.636500	0.821900	0.526200
C2061	C206	0.634700	0.842700	0.468600
C2071	C207	0.627400	0.803000	0.421000
C2081	C208	0.621500	0.828900	0.370400
C2091	C209	0.627400	0.893500	0.364600
C2101	C210	0.634600	0.927700	0.408600
C2111	C211	0.638600	0.679800	0.622300
C2121	C212	0.662800	0.665700	0.676500
C2131	C213	0.608800	0.629800	0.590300
C2141	C214	0.660500	0.605800	0.696500
C2151	C215	0.607500	0.570000	0.609800
C2161	C216	0.633200	0.558000	0.663600
C2171	C217	0.615200	0.440600	0.656300
C2181	C218	0.620500	0.421500	0.742200
C2191	C219	0.594800	0.071100	0.483400
C2201	C220	0.608100	0.139700	0.476800
C2211	C221	0.618700	0.177900	0.521600
C2221	C222	0.604900	0.165800	0.423000
C2231	C223	0.615900	0.229900	0.415400
C2241	C224	0.623700	0.269800	0.463700
C2251	C225	0.624900	0.244000	0.514700
C2261	C226	0.628300	0.286000	0.566800
C2271	C227	0.595800	0.210500	0.753100
C2281	C228	0.647400	0.169600	0.794000
C2291	C229	0.601600	0.122000	0.823000
C2301	C230	0.742500	0.178900	0.804800
C2311	C231	0.648700	0.086200	0.863900
C2321	C232	0.742200	0.096200	0.873200
C2331	C233	0.790700	0.141300	0.842900
C2341	C234	0.895000	0.152500	0.851600
N251	N25	0.133200	0.530500	0.881900
N261	N26	0.137500	0.631700	0.937700
N271	N27	0.137500	0.593800	0.038400
N281	N28	0.127000	0.004900	0.815700
N291	N29	0.132700	0.017300	0.759800
N301	N30	0.110000	0.105800	0.806300
N311	N31	0.633200	0.969500	0.618100
N321	N32	0.637500	0.868300	0.562300
N331	N33	0.637500	0.906200	0.461600
N341	N34	0.627000	0.495100	0.684300
N351	N35	0.632700	0.482700	0.740200
N361	N36	0.610000	0.394200	0.693700
O331	O33	0.149800	0.458000	0.983300
O341	O34	0.034900	0.456400	0.047400
O351	O35	0.109500	0.241300	0.888000
O361	O36	0.148200	0.157100	0.938500
O371	O37	0.132700	0.237600	0.758600
O381	O38	0.028600	0.313000	0.771300
O391	O39	0.434200	0.313800	0.685900
O401	O40	0.435100	0.370700	0.608800
O411	O41	0.649800	0.042000	0.516700
O421	O42	0.534900	0.043600	0.452600
O431	O43	0.609500	0.258700	0.612000
O441	O44	0.648200	0.342900	0.561500
O451	O45	0.632700	0.262400	0.741400
O461	O46	0.528600	0.187000	0.728700
O471	O47	0.934200	0.186200	0.814100
O481	O48	0.935100	0.129300	0.891200
Cu131	Cu13	0.369830	0.454250	0.964760
Cu141	Cu14	0.429580	0.802120	0.822150
Cu151	Cu15	0.869830	0.045750	0.535240
Cu161	Cu16	0.929580	0.697880	0.677850
H1451	H145	0.371700	0.563100	0.878100
H1461	H146	0.388300	0.571600	0.781500
H1471	H147	0.392900	0.480000	0.729100
H1481	H148	0.381900	0.382000	0.772100
H1491	H149	0.364800	0.291000	0.823700
H1501	H150	0.359300	0.226400	0.980100
H1511	H151	0.373300	0.259300	0.074900
H1521	H152	0.386500	0.303500	0.160800
H1531	H153	0.373800	0.412100	0.170500
H1541	H154	0.361900	0.471300	0.096400
H1551	H155	0.318700	0.198300	0.799900
H1561	H156	0.411100	0.137400	0.945900
H1571	H157	0.322100	0.097900	0.766900
H1581	H158	0.410900	0.037100	0.913400
H1591	H159	0.388700	0.936200	0.882100
H1601	H160	0.380600	0.899100	0.724500
H1611	H161	0.378100	0.660500	0.942900
H1621	H162	0.404600	0.639700	0.107600
H1631	H163	0.381900	0.747100	0.120300
H1641	H164	0.372000	0.813400	0.040500
H1651	H165	0.461300	0.613600	0.684600
H1661	H166	0.225400	0.710800	0.713800
H1671	H167	0.383700	0.555900	0.615700
H1681	H168	0.226400	0.572600	0.599900
H1691	H169	0.871700	0.936900	0.621900
H1701	H170	0.888300	0.928400	0.718500
H1711	H171	0.892900	0.020000	0.770900
H1721	H172	0.881900	0.118000	0.727900
H1731	H173	0.864800	0.209000	0.676300
H1741	H174	0.859300	0.273600	0.519900
H1751	H175	0.873300	0.240700	0.425100
H1761	H176	0.886500	0.196500	0.339200
H1771	H177	0.873800	0.087900	0.329500
H1781	H178	0.861900	0.028700	0.403600
H1791	H179	0.818700	0.301700	0.700100
H1801	H180	0.911100	0.362600	0.554100
H1811	H181	0.822100	0.402100	0.733100
H1821	H182	0.910900	0.462900	0.586600
H1831	H183	0.888700	0.563800	0.617900
H1841	H184	0.880600	0.600900	0.775500
H1851	H185	0.878100	0.839500	0.557100
H1861	H186	0.904600	0.860300	0.392400
H1871	H187	0.881900	0.752900	0.379700
H1881	H188	0.872000	0.686600	0.459500
H1891	H189	0.961300	0.886400	0.815400
H1901	H190	0.725400	0.789200	0.786200
H1911	H191	0.883700	0.944100	0.884300
H1921	H192	0.726400	0.927400	0.900100
C2351	C235	0.373700	0.526600	0.856500
C2361	C236	0.383600	0.532200	0.798500
C2371	C237	0.386300	0.477600	0.767500
C2381	C238	0.379100	0.418900	0.793000
C2391	C239	0.367800	0.416800	0.849600
C2401	C240	0.364700	0.359500	0.882900
C2411	C241	0.364100	0.297500	0.862000
C2421	C242	0.362400	0.245800	0.897400
C2431	C243	0.361400	0.259400	0.954600
C2441	C244	0.363500	0.321900	0.973800
C2451	C245	0.365300	0.342700	0.031400
C2461	C246	0.372600	0.303000	0.079000
C2471	C247	0.378500	0.328900	0.129600
C2481	C248	0.372600	0.393500	0.135400
C2491	C249	0.365400	0.427700	0.091400
C2501	C250	0.361400	0.179800	0.877700
C2511	C251	0.337200	0.165700	0.823500
C2521	C252	0.391200	0.129800	0.909700
C2531	C253	0.339500	0.105800	0.803500
C2541	C254	0.392500	0.070000	0.890200
C2551	C255	0.366800	0.058000	0.836400
C2561	C256	0.384800	0.940600	0.843700
C2571	C257	0.379500	0.921500	0.757800
C2581	C258	0.405200	0.571100	0.016600
C2591	C259	0.391900	0.639700	0.023200
C2601	C260	0.381300	0.677900	0.978400
C2611	C261	0.395100	0.665800	0.077000
C2621	C262	0.384100	0.729900	0.084600
C2631	C263	0.376300	0.769800	0.036300
C2641	C264	0.375100	0.744000	0.985300
C2651	C265	0.371700	0.786000	0.933200
C2661	C266	0.404200	0.710500	0.746900
C2671	C267	0.352600	0.669600	0.706000
C2681	C268	0.398400	0.622000	0.677000
C2691	C269	0.257500	0.678900	0.695200
C2701	C270	0.351300	0.586200	0.636100
C2711	C271	0.257800	0.596200	0.626800
C2721	C272	0.209300	0.641300	0.657100
C2731	C273	0.105000	0.652500	0.648400
C2741	C274	0.873700	0.973400	0.643500
C2751	C275	0.883600	0.967800	0.701500
C2761	C276	0.886300	0.022400	0.732500
C2771	C277	0.879100	0.081100	0.707000
C2781	C278	0.867800	0.083200	0.650400
C2791	C279	0.864700	0.140500	0.617100
C2801	C280	0.864100	0.202500	0.638000
C2811	C281	0.862400	0.254200	0.602600
C2821	C282	0.861400	0.240600	0.545400
C2831	C283	0.863500	0.178100	0.526200
C2841	C284	0.865300	0.157300	0.468600
C2851	C285	0.872600	0.197000	0.421000
C2861	C286	0.878500	0.171100	0.370400
C2871	C287	0.872600	0.106500	0.364600
C2881	C288	0.865400	0.072300	0.408600
C2891	C289	0.861400	0.320200	0.622300
C2901	C290	0.837200	0.334300	0.676500
C2911	C291	0.891200	0.370200	0.590300
C2921	C292	0.839500	0.394200	0.696500
C2931	C293	0.892500	0.430000	0.609800
C2941	C294	0.866800	0.442000	0.663600
C2951	C295	0.884800	0.559400	0.656300
C2961	C296	0.879500	0.578500	0.742200
C2971	C297	0.905200	0.928900	0.483400
C2981	C298	0.891900	0.860300	0.476800
C2991	C299	0.881300	0.822100	0.521600
C3001	C300	0.895100	0.834200	0.423000
C3011	C301	0.884100	0.770100	0.415400
C3021	C302	0.876300	0.730200	0.463700
C3031	C303	0.875100	0.756000	0.514700
C3041	C304	0.871700	0.714000	0.566800
C3051	C305	0.904200	0.789500	0.753100
C3061	C306	0.852600	0.830400	0.794000
C3071	C307	0.898400	0.878000	0.823000
C3081	C308	0.757500	0.821100	0.804800
C3091	C309	0.851300	0.913800	0.863900
C3101	C310	0.757800	0.903800	0.873200
C3111	C311	0.709300	0.858700	0.842900
C3121	C312	0.605000	0.847500	0.851600
N371	N37	0.366800	0.469500	0.881900
N381	N38	0.362500	0.368300	0.937700
N391	N39	0.362500	0.406200	0.038400
N401	N40	0.373000	0.995100	0.815700
N411	N41	0.367300	0.982700	0.759800
N421	N42	0.390000	0.894200	0.806300
N431	N43	0.866800	0.030500	0.618100
N441	N44	0.862500	0.131700	0.562300
N451	N45	0.862500	0.093800	0.461600
N461	N46	0.873000	0.504900	0.684300
N471	N47	0.867300	0.517300	0.740200
N481	N48	0.890000	0.605800	0.693700
O491	O49	0.350200	0.542000	0.983300
O501	O50	0.465100	0.543600	0.047400
O511	O51	0.390500	0.758700	0.888000
O521	O52	0.351800	0.842900	0.938500
O531	O53	0.367300	0.762400	0.758600
O541	O54	0.471400	0.687000	0.771300
O551	O55	0.065800	0.686200	0.685900
O561	O56	0.064900	0.629300	0.608800
O571	O57	0.850200	0.958000	0.516700
O581	O58	0.965100	0.956400	0.452600
O591	O59	0.890500	0.741300	0.612000
O601	O60	0.851800	0.657100	0.561500
O611	O61	0.867300	0.737600	0.741400
O621	O62	0.971400	0.813000	0.728700
O631	O63	0.565800	0.813800	0.814100
O641	O64	0.564900	0.870700	0.891200
