data_TEQWER_clean_PM
_symmetry_space_group_name_H-M	'P1'
_cell_length_a	5.784000
_cell_length_b	30.282000
_cell_length_c	7.551000
_cell_angle_alpha	90.000000
_cell_angle_beta	112.460000
_cell_angle_gamma	90.000000
_symmetry_Int_Tables_number 1

loop_
_symmetry_equiv_pos_as_xyz
'x,y,z'

loop_
_atom_site_label
_atom_site_type_symbol
_atom_site_fract_x
_atom_site_fract_y
_atom_site_fract_z
Cu11	Cu1	0.344400	0.460100	0.922900
Cu21	Cu2	0.189600	0.713000	0.014400
S11	S1	0.465600	0.486300	0.245100
S21	S2	0.034900	0.643100	0.033900
S31	S3	0.854000	0.757600	0.842800
N11	N1	0.986800	0.471700	0.798300
N21	N2	0.454700	0.591100	0.077200
N31	N3	0.465300	0.721600	0.930500
C11	C1	0.798800	0.488900	0.778400
C21	C2	0.281000	0.612700	0.059400
C31	C3	0.624900	0.735700	0.894000
Cu31	Cu3	0.155600	0.960100	0.577100
Cu41	Cu4	0.310400	0.213000	0.485600
S41	S4	0.034400	0.986300	0.254900
S51	S5	0.465100	0.143100	0.466100
S61	S6	0.646000	0.257600	0.657200
N41	N4	0.513200	0.971700	0.701700
N51	N5	0.045300	0.091100	0.422800
N61	N6	0.034700	0.221600	0.569500
C41	C4	0.701200	0.988900	0.721600
C51	C5	0.219000	0.112700	0.440600
C61	C6	0.875100	0.235700	0.606000
Cu51	Cu5	0.655600	0.539900	0.077100
Cu61	Cu6	0.810400	0.287000	0.985600
S71	S7	0.534400	0.513700	0.754900
S81	S8	0.965100	0.356900	0.966100
S91	S9	0.146000	0.242400	0.157200
N71	N7	0.013200	0.528300	0.201700
N81	N8	0.545300	0.408900	0.922800
N91	N9	0.534700	0.278400	0.069500
C71	C7	0.201200	0.511100	0.221600
C81	C8	0.719000	0.387300	0.940600
C91	C9	0.375100	0.264300	0.106000
Cu71	Cu7	0.844400	0.039900	0.422900
Cu81	Cu8	0.689600	0.787000	0.514400
S101	S10	0.965600	0.013700	0.745100
S111	S11	0.534900	0.856900	0.533900
S121	S12	0.354000	0.742400	0.342800
N101	N10	0.486800	0.028300	0.298300
N111	N11	0.954700	0.908900	0.577200
N121	N12	0.965300	0.778400	0.430500
C101	C10	0.298800	0.011100	0.278400
C111	C11	0.781000	0.887300	0.559400
C121	C12	0.124900	0.764300	0.394000
