data_TETVIZ_clean_PM
_symmetry_space_group_name_H-M	'P1'
_cell_length_a	16.109400
_cell_length_b	11.854300
_cell_length_c	17.823200
_cell_angle_alpha	90.000000
_cell_angle_beta	103.296000
_cell_angle_gamma	90.000000
_symmetry_Int_Tables_number 1

loop_
_symmetry_equiv_pos_as_xyz
'x,y,z'

loop_
_atom_site_label
_atom_site_type_symbol
_atom_site_fract_x
_atom_site_fract_y
_atom_site_fract_z
P11	P1	0.674840	0.477260	0.884570
P21	P2	0.622630	0.163050	0.787340
P31	P3	0.561470	0.803580	0.737000
P41	P4	0.889390	0.490220	0.056550
Mo11	Mo1	0.715450	0.359490	0.066700
Mo21	Mo2	0.480310	0.357360	0.803910
Mo31	Mo3	0.716050	0.650720	0.037560
Mo41	Mo4	0.615790	0.235210	0.965080
Mo51	Mo5	0.477850	0.573720	0.787080
Mo61	Mo6	0.611360	0.745210	0.922740
Co11	Co1	0.878320	0.497550	0.865710
O11	O1	0.735300	0.727400	0.946460
O21	O2	0.590900	0.368900	0.022440
O31	O3	0.591400	0.636400	0.001470
O41	O4	0.738400	0.254300	0.990300
O51	O5	0.616100	0.578900	0.857660
O61	O6	0.840900	0.398100	0.090890
O71	O7	0.704600	0.518700	0.115180
O81	O8	0.466600	0.478700	0.876270
O91	O9	0.530300	0.680500	0.721100
O101	O10	0.712500	0.490800	0.972130
O111	O11	0.632000	0.137900	0.874000
O121	O12	0.743700	0.463000	0.840930
O131	O13	0.622100	0.808000	0.818650
O141	O14	0.617600	0.370300	0.875050
O151	O15	0.484600	0.881700	0.734400
O161	O16	0.486100	0.711300	0.863320
O171	O17	0.844300	0.604700	0.060200
O181	O18	0.539300	0.228200	0.757200
O191	O19	0.978200	0.499200	0.116520
O201	O20	0.519500	0.453500	0.730800
O211	O21	0.490500	0.248400	0.899040
O221	O22	0.902200	0.457200	0.979500
O231	O23	0.628400	0.055800	0.745090
O241	O24	0.701600	0.237100	0.778600
O251	O25	0.609400	0.836000	0.676430
P51	P5	0.825160	0.977260	0.615430
P61	P6	0.877370	0.663050	0.712660
P71	P7	0.938530	0.303580	0.763000
P81	P8	0.610610	0.990220	0.443450
Mo71	Mo7	0.784550	0.859490	0.433300
Mo81	Mo8	0.019690	0.857360	0.696090
Mo91	Mo9	0.783950	0.150720	0.462440
Mo101	Mo10	0.884210	0.735210	0.534920
Mo111	Mo11	0.022150	0.073720	0.712920
Mo121	Mo12	0.888640	0.245210	0.577260
Co21	Co2	0.621680	0.997550	0.634290
O261	O26	0.764700	0.227400	0.553540
O271	O27	0.909100	0.868900	0.477560
O281	O28	0.908600	0.136400	0.498530
O291	O29	0.761600	0.754300	0.509700
O301	O30	0.883900	0.078900	0.642340
O311	O31	0.659100	0.898100	0.409110
O321	O32	0.795400	0.018700	0.384820
O331	O33	0.033400	0.978700	0.623730
O341	O34	0.969700	0.180500	0.778900
O351	O35	0.787500	0.990800	0.527870
O361	O36	0.868000	0.637900	0.626000
O371	O37	0.756300	0.963000	0.659070
O381	O38	0.877900	0.308000	0.681350
O391	O39	0.882400	0.870300	0.624950
O401	O40	0.015400	0.381700	0.765600
O411	O41	0.013900	0.211300	0.636680
O421	O42	0.655700	0.104700	0.439800
O431	O43	0.960700	0.728200	0.742800
O441	O44	0.521800	0.999200	0.383480
O451	O45	0.980500	0.953500	0.769200
O461	O46	0.009500	0.748400	0.600960
O471	O47	0.597800	0.957200	0.520500
O481	O48	0.871600	0.555800	0.754910
O491	O49	0.798400	0.737100	0.721400
O501	O50	0.890600	0.336000	0.823570
P91	P9	0.325160	0.522740	0.115430
P101	P10	0.377370	0.836950	0.212660
P111	P11	0.438530	0.196420	0.263000
P121	P12	0.110610	0.509780	0.943450
Mo131	Mo13	0.284550	0.640510	0.933300
Mo141	Mo14	0.519690	0.642640	0.196090
Mo151	Mo15	0.283950	0.349280	0.962440
Mo161	Mo16	0.384210	0.764790	0.034920
Mo171	Mo17	0.522150	0.426280	0.212920
Mo181	Mo18	0.388640	0.254790	0.077260
Co31	Co3	0.121680	0.502450	0.134290
O511	O51	0.264700	0.272600	0.053540
O521	O52	0.409100	0.631100	0.977560
O531	O53	0.408600	0.363600	0.998530
O541	O54	0.261600	0.745700	0.009700
O551	O55	0.383900	0.421100	0.142340
O561	O56	0.159100	0.601900	0.909110
O571	O57	0.295400	0.481300	0.884820
O581	O58	0.533400	0.521300	0.123730
O591	O59	0.469700	0.319500	0.278900
O601	O60	0.287500	0.509200	0.027870
O611	O61	0.368000	0.862100	0.126000
O621	O62	0.256300	0.537000	0.159070
O631	O63	0.377900	0.192000	0.181350
O641	O64	0.382400	0.629700	0.124950
O651	O65	0.515400	0.118300	0.265600
O661	O66	0.513900	0.288700	0.136680
O671	O67	0.155700	0.395300	0.939800
O681	O68	0.460700	0.771800	0.242800
O691	O69	0.021800	0.500800	0.883480
O701	O70	0.480500	0.546500	0.269200
O711	O71	0.509500	0.751600	0.100960
O721	O72	0.097800	0.542800	0.020500
O731	O73	0.371600	0.944200	0.254910
O741	O74	0.298400	0.762900	0.221400
O751	O75	0.390600	0.164000	0.323570
P131	P13	0.174840	0.022740	0.384570
P141	P14	0.122630	0.336950	0.287340
P151	P15	0.061470	0.696420	0.237000
P161	P16	0.389390	0.009780	0.556550
Mo191	Mo19	0.215450	0.140510	0.566700
Mo201	Mo20	0.980310	0.142640	0.303910
Mo211	Mo21	0.216050	0.849280	0.537560
Mo221	Mo22	0.115790	0.264790	0.465080
Mo231	Mo23	0.977850	0.926280	0.287080
Mo241	Mo24	0.111360	0.754790	0.422740
Co41	Co4	0.378320	0.002450	0.365710
O761	O76	0.235300	0.772600	0.446460
O771	O77	0.090900	0.131100	0.522440
O781	O78	0.091400	0.863600	0.501470
O791	O79	0.238400	0.245700	0.490300
O801	O80	0.116100	0.921100	0.357660
O811	O81	0.340900	0.101900	0.590890
O821	O82	0.204600	0.981300	0.615180
O831	O83	0.966600	0.021300	0.376270
O841	O84	0.030300	0.819500	0.221100
O851	O85	0.212500	0.009200	0.472130
O861	O86	0.132000	0.362100	0.374000
O871	O87	0.243700	0.037000	0.340930
O881	O88	0.122100	0.692000	0.318650
O891	O89	0.117600	0.129700	0.375050
O901	O90	0.984600	0.618300	0.234400
O911	O91	0.986100	0.788700	0.363320
O921	O92	0.344300	0.895300	0.560200
O931	O93	0.039300	0.271800	0.257200
O941	O94	0.478200	0.000800	0.616520
O951	O95	0.019500	0.046500	0.230800
O961	O96	0.990500	0.251600	0.399040
O971	O97	0.402200	0.042800	0.479500
O981	O98	0.128400	0.444200	0.245090
O991	O99	0.201600	0.262900	0.278600
O1001	O100	0.109400	0.664000	0.176430
Co51	Co5	0.500000	0.500000	0.000000
Co61	Co6	0.000000	0.000000	0.500000
