data_TETWOG_clean_PM
_symmetry_space_group_name_H-M	'P1'
_cell_length_a	9.123800
_cell_length_b	9.620100
_cell_length_c	12.647500
_cell_angle_alpha	94.475000
_cell_angle_beta	104.722000
_cell_angle_gamma	114.437000
_symmetry_Int_Tables_number 1

loop_
_symmetry_equiv_pos_as_xyz
'x,y,z'

loop_
_atom_site_label
_atom_site_type_symbol
_atom_site_fract_x
_atom_site_fract_y
_atom_site_fract_z
Co11	Co1	0.872080	0.513910	0.701960
Co21	Co2	0.127920	0.486090	0.298040
Co31	Co3	0.500000	0.500000	0.500000
Co41	Co4	0.000000	0.000000	0.500000
H11	H1	0.362300	0.875100	0.597800
H21	H2	0.727300	0.881700	0.816500
H31	H3	0.513000	0.716200	0.864800
H41	H4	0.445200	0.587700	0.755400
H51	H5	0.397100	0.858300	0.777500
H61	H6	0.636700	0.973000	0.679800
H71	H7	0.423000	0.136300	0.834800
H81	H8	0.992800	0.394100	0.902900
H91	H9	0.894800	0.225700	0.014000
H101	H10	0.536900	0.306400	0.729100
H111	H11	0.685000	0.033000	0.071000
H121	H12	0.637700	0.124900	0.402200
H131	H13	0.272700	0.118300	0.183500
H141	H14	0.487000	0.283800	0.135200
H151	H15	0.554800	0.412300	0.244600
H161	H16	0.602900	0.141700	0.222500
H171	H17	0.363300	0.027000	0.320200
H181	H18	0.577000	0.863700	0.165200
H191	H19	0.007200	0.605900	0.097100
H201	H20	0.105200	0.774300	0.986000
H211	H21	0.463100	0.693600	0.270900
H221	H22	0.315000	0.967000	0.929000
C11	C1	0.670300	0.848700	0.559000
C21	C2	0.739500	0.695100	0.741100
C31	C3	0.296800	0.649900	0.524400
C41	C4	0.395400	0.793700	0.618300
C51	C5	0.650800	0.793300	0.753900
C61	C6	0.489400	0.698500	0.784400
C71	C7	0.363700	0.758000	0.729900
C81	C8	0.181200	0.655800	0.719700
C91	C9	0.581000	0.041300	0.003900
C101	C10	0.591900	0.861000	0.651000
C111	C11	0.644700	0.155000	0.935900
C121	C12	0.540000	0.185800	0.849700
C131	C13	0.876200	0.340200	0.888700
C141	C14	0.818500	0.238500	0.955900
C151	C15	0.609400	0.289100	0.787000
C161	C16	0.329700	0.151300	0.441000
C171	C17	0.260500	0.304900	0.258900
C181	C18	0.703200	0.350100	0.475600
C191	C19	0.604600	0.206300	0.381700
C201	C20	0.349200	0.206700	0.246100
C211	C21	0.510600	0.301500	0.215600
C221	C22	0.636300	0.242000	0.270100
C231	C23	0.818800	0.344200	0.280300
C241	C24	0.419000	0.958700	0.996100
C251	C25	0.408100	0.139000	0.349000
C261	C26	0.355300	0.845000	0.064100
C271	C27	0.460000	0.814200	0.150300
C281	C28	0.123800	0.659800	0.111300
C291	C29	0.181500	0.761500	0.044100
C301	C30	0.390600	0.710900	0.213000
N11	N1	0.776900	0.366400	0.805200
N21	N2	0.223100	0.633600	0.194800
O11	O1	0.879900	0.725400	0.807800
O21	O2	0.599400	0.729300	0.481400
O31	O3	0.670100	0.574600	0.661200
O41	O4	0.207800	0.659000	0.434700
O51	O5	0.306900	0.525600	0.543200
O61	O6	0.808800	0.962400	0.570300
O71	O7	0.067800	0.683200	0.657900
O81	O8	0.139900	0.548400	0.772300
O91	O9	0.120100	0.274600	0.192200
O101	O10	0.400600	0.270700	0.518600
O111	O11	0.329900	0.425400	0.338800
O121	O12	0.792200	0.341000	0.565300
O131	O13	0.693100	0.474400	0.456800
O141	O14	0.191200	0.037600	0.429700
O151	O15	0.932200	0.316800	0.342100
O161	O16	0.860100	0.451600	0.227700
