data_TETZEZ_clean_PM
_symmetry_space_group_name_H-M	'P1'
_cell_length_a	22.677800
_cell_length_b	24.159700
_cell_length_c	25.347700
_cell_angle_alpha	66.580600
_cell_angle_beta	81.054000
_cell_angle_gamma	88.037000
_symmetry_Int_Tables_number 1

loop_
_symmetry_equiv_pos_as_xyz
'x,y,z'

loop_
_atom_site_label
_atom_site_type_symbol
_atom_site_fract_x
_atom_site_fract_y
_atom_site_fract_z
Zn11	Zn1	0.774160	0.163530	0.506380
Zn21	Zn2	0.619370	0.137990	0.540980
Zn31	Zn3	0.714450	0.498480	0.897430
Zn41	Zn4	0.561300	0.471080	0.917280
H11	H1	0.052100	0.230400	0.508300
H21	H2	0.334600	0.168200	0.515200
H31	H3	0.987300	0.405800	0.915300
H41	H4	0.277800	0.399800	0.005600
H51	H5	0.142900	0.173900	0.523500
H61	H6	0.241500	0.178800	0.536900
H71	H7	0.273200	0.317900	0.377300
H81	H8	0.177700	0.309900	0.365900
H91	H9	0.856700	0.208200	0.559700
H101	H10	0.954100	0.228100	0.553500
H111	H11	0.986700	0.190900	0.409700
H121	H12	0.885200	0.169600	0.424900
H131	H13	0.498200	0.079400	0.577100
H141	H14	0.400700	0.100100	0.554200
H151	H15	0.448800	0.272600	0.467700
H161	H16	0.547000	0.246700	0.486200
H171	H17	0.079700	0.379000	0.056100
H181	H18	0.182900	0.376100	0.037700
H191	H19	0.177800	0.445600	0.865900
H201	H20	0.074500	0.448500	0.884200
H211	H21	0.816400	0.445800	0.852200
H221	H22	0.921900	0.427900	0.861300
H231	H23	0.889700	0.464700	0.999900
H241	H24	0.793700	0.490900	0.978900
H251	H25	0.468600	0.443600	0.858700
H261	H26	0.366000	0.432800	0.869100
H271	H27	0.365300	0.406200	0.037700
H281	H28	0.467100	0.423800	0.016600
H291	H29	0.801400	0.943900	0.544200
H301	H30	0.791600	0.847000	0.611100
H311	H31	0.732000	0.902700	0.738300
H321	H32	0.742900	0.999400	0.669300
H331	H33	0.717300	0.665100	0.748800
H341	H34	0.729700	0.762700	0.677700
H351	H35	0.778600	0.815700	0.793600
H361	H36	0.765400	0.717100	0.863800
H371	H37	0.633300	0.940800	0.578000
H381	H38	0.618000	0.834900	0.629700
H391	H39	0.555900	0.863000	0.772800
H401	H40	0.568700	0.962400	0.725300
H411	H41	0.553900	0.646900	0.726000
H421	H42	0.568100	0.747900	0.673900
H431	H43	0.594200	0.769100	0.818200
H441	H44	0.587000	0.666200	0.868300
H451	H45	0.772400	0.275700	0.599100
H461	H46	0.763700	0.323100	0.660900
H471	H47	0.588400	0.290900	0.695900
H481	H48	0.598600	0.248800	0.627300
H491	H49	0.576200	0.381700	0.812300
H501	H50	0.583500	0.334900	0.749800
H511	H51	0.754100	0.363900	0.720600
H521	H52	0.749000	0.405800	0.784600
H531	H53	0.770300	0.245700	0.321200
H541	H54	0.751200	0.306200	0.230400
H551	H55	0.577800	0.298000	0.285800
H561	H56	0.596500	0.238200	0.381200
H571	H57	0.719900	0.440200	0.064500
H581	H58	0.731500	0.395200	0.161200
H591	H59	0.566400	0.320600	0.196400
H601	H60	0.553700	0.382400	0.100400
C11	C1	0.088500	0.234300	0.431500
C21	C2	0.331900	0.243200	0.466700
C31	C3	0.148200	0.240200	0.445700
C41	C4	0.169200	0.202300	0.494200
C51	C5	0.229200	0.203900	0.502100
C61	C6	0.270700	0.244700	0.455800
C71	C7	0.248000	0.287600	0.405800
C81	C8	0.190800	0.283900	0.400000
C91	C9	0.882900	0.204700	0.529200
C101	C10	0.941300	0.217200	0.525700
C111	C11	0.982100	0.213600	0.479900
C121	C12	0.961400	0.194900	0.440500
C131	C13	0.900000	0.182600	0.450300
C141	C14	0.489500	0.118000	0.552200
C151	C15	0.430200	0.130600	0.539200
C161	C16	0.416900	0.189500	0.503600
C171	C17	0.458000	0.232400	0.487100
C181	C18	0.517500	0.216400	0.499600
C191	C19	0.000100	0.421800	0.976900
C201	C20	0.257300	0.407300	0.934500
C211	C21	0.066800	0.414000	0.972000
C221	C22	0.099300	0.392300	0.017900
C231	C23	0.161200	0.390600	0.006900
C241	C24	0.190600	0.410500	0.950000
C251	C25	0.158100	0.432200	0.904000
C261	C26	0.096200	0.434000	0.915000
C271	C27	0.831700	0.450700	0.882100
C281	C28	0.895400	0.437100	0.888300
C291	C29	0.911600	0.439500	0.937700
C301	C30	0.877200	0.459700	0.968900
C311	C31	0.818400	0.475000	0.955900
C321	C32	0.446000	0.440200	0.893800
C331	C33	0.385400	0.430800	0.899500
C341	C34	0.356200	0.418000	0.955700
C351	C35	0.385500	0.415700	0.000200
C361	C36	0.446300	0.428100	0.986400
C371	C37	0.776500	0.043200	0.556600
C381	C38	0.770200	0.983100	0.598700
C391	C39	0.786600	0.936200	0.582900
C401	C40	0.781400	0.878000	0.623600
C411	C41	0.761600	0.862500	0.682900
C421	C42	0.746100	0.909800	0.699600
C431	C43	0.752000	0.968000	0.657200
C441	C44	0.734700	0.619700	0.858800
C451	C45	0.742300	0.682900	0.810800
C461	C46	0.730600	0.695800	0.757900
C471	C47	0.737500	0.755100	0.714900
C481	C48	0.755500	0.801000	0.727000
C491	C49	0.766100	0.785500	0.783400
C501	C50	0.758800	0.726000	0.826000
C511	C51	0.607600	0.027800	0.614700
C521	C52	0.599800	0.962500	0.646700
C531	C53	0.617000	0.924700	0.617200
C541	C54	0.608800	0.860500	0.649000
C551	C55	0.588300	0.837700	0.705500
C561	C56	0.571800	0.878700	0.733500
C571	C57	0.578500	0.937500	0.705300
C581	C58	0.564700	0.580100	0.837000
C591	C59	0.570600	0.645500	0.801100
C601	C60	0.563700	0.671200	0.744300
C611	C61	0.570800	0.732100	0.713400
C621	C62	0.582000	0.772000	0.739200
C631	C63	0.587300	0.744800	0.799000
C641	C64	0.582500	0.683100	0.829200
C651	C65	0.690400	0.222600	0.571100
C661	C66	0.685600	0.257600	0.606700
C671	C67	0.734700	0.279800	0.617500
C681	C68	0.729200	0.308100	0.655100
C691	C69	0.675700	0.315600	0.684900
C701	C70	0.625900	0.290100	0.675400
C711	C71	0.632600	0.263200	0.634800
C721	C72	0.650900	0.421200	0.852500
C731	C73	0.660100	0.396600	0.808900
C741	C74	0.614200	0.376900	0.794900
C751	C75	0.618400	0.349100	0.755700
C761	C76	0.670000	0.342000	0.726400
C771	C77	0.716300	0.365800	0.740200
C781	C78	0.714100	0.391500	0.778600
C791	C79	0.698800	0.198500	0.421600
C801	C80	0.686300	0.237000	0.362500
C811	C81	0.731300	0.257000	0.315900
C821	C82	0.719400	0.293900	0.260900
C831	C83	0.662900	0.313300	0.248800
C841	C84	0.616900	0.289900	0.292900
C851	C85	0.628400	0.252400	0.350900
C861	C86	0.627300	0.445100	0.011200
C871	C87	0.636000	0.412700	0.073900
C881	C88	0.688500	0.417100	0.091800
C891	C89	0.696700	0.388400	0.149200
C901	C90	0.651800	0.349200	0.188700
C911	C91	0.597600	0.345700	0.170600
C921	C92	0.590800	0.381300	0.112000
N11	N1	0.042500	0.226700	0.478400
N21	N2	0.860100	0.188100	0.493500
N31	N3	0.357700	0.199400	0.495600
N41	N4	0.531800	0.160200	0.529400
N51	N5	0.970800	0.419800	0.940200
N61	N6	0.797900	0.468500	0.916000
N71	N7	0.293500	0.407100	0.970200
N81	N8	0.476300	0.445200	0.934400
O11	O1	0.078900	0.239900	0.384500
O21	O2	0.361500	0.293300	0.434600
O31	O3	0.980800	0.428400	0.024800
O41	O4	0.277600	0.414200	0.881500
O51	O5	0.754100	0.086500	0.572200
O61	O6	0.799300	0.058700	0.504800
O71	O7	0.720500	0.579100	0.839400
O81	O8	0.743600	0.605000	0.909500
O91	O9	0.622100	0.049600	0.558500
O101	O10	0.595800	0.063100	0.640600
O111	O11	0.575900	0.557300	0.888500
O121	O12	0.550200	0.545500	0.812200
O131	O13	0.741300	0.217900	0.544200
O141	O14	0.643900	0.193400	0.572200
O151	O15	0.696100	0.449900	0.854700
O161	O16	0.602000	0.421800	0.880900
O171	O17	0.751300	0.196500	0.430400
O181	O18	0.651400	0.176300	0.457200
O191	O19	0.674900	0.470100	0.976900
O201	O20	0.579000	0.440300	0.995700
Zn51	Zn5	0.880430	0.151090	0.710630
Zn61	Zn6	0.026420	0.187410	0.675910
Zn71	Zn7	0.119570	0.848910	0.289370
Zn81	Zn8	0.973580	0.812590	0.324090
H611	H61	0.601100	0.091000	0.709000
H621	H62	0.293900	0.166700	0.735800
H631	H63	0.523100	0.082500	0.690700
H641	H64	0.429000	0.085000	0.664700
H651	H65	0.365700	0.162800	0.774900
H661	H66	0.459800	0.160300	0.800800
H671	H67	0.794500	0.105900	0.660300
H681	H68	0.697400	0.088600	0.665300
H691	H69	0.667100	0.149400	0.794800
H701	H70	0.767900	0.163800	0.784900
H711	H71	0.133800	0.118500	0.642000
H721	H72	0.235000	0.117400	0.648900
H731	H73	0.198800	0.175600	0.777500
H741	H74	0.103800	0.199900	0.750500
H751	H75	0.907400	0.319900	0.559800
H761	H76	0.918700	0.419800	0.494400
H771	H77	0.884600	0.468000	0.631900
H781	H78	0.876000	0.366300	0.693900
H791	H79	0.899400	0.655700	0.515300
H801	H80	0.891900	0.555500	0.577800
H811	H81	0.938900	0.510800	0.445200
H821	H82	0.959400	0.612300	0.383500
H831	H83	0.888000	0.051000	0.600600
H841	H84	0.906600	0.004600	0.535700
H851	H85	0.080000	0.031700	0.521300
H861	H86	0.061800	0.083800	0.580700
H871	H87	0.889500	0.043500	0.889600
H881	H88	0.909700	0.992700	0.983900
H891	H89	0.064900	0.071900	0.942900
H901	H90	0.051400	0.116400	0.844100
H911	H91	0.398900	0.909000	0.291000
H921	H92	0.706100	0.833300	0.264200
H931	H93	0.476900	0.917500	0.309300
H941	H94	0.571000	0.915000	0.335300
H951	H95	0.634300	0.837200	0.225100
H961	H96	0.540200	0.839700	0.199200
H971	H97	0.205500	0.894100	0.339700
H981	H98	0.302600	0.911400	0.334700
H991	H99	0.332900	0.850600	0.205200
H1001	H100	0.232100	0.836200	0.215100
H1011	H101	0.866200	0.881500	0.358000
H1021	H102	0.765000	0.882600	0.351100
H1031	H103	0.801200	0.824400	0.222500
H1041	H104	0.896200	0.800100	0.249500
H1051	H105	0.092600	0.680100	0.440200
H1061	H106	0.081300	0.580200	0.505600
H1071	H107	0.115400	0.532000	0.368100
H1081	H108	0.124000	0.633700	0.306100
H1091	H109	0.100600	0.344300	0.484700
H1101	H110	0.108100	0.444500	0.422200
H1111	H111	0.061100	0.489200	0.554800
H1121	H112	0.040600	0.387700	0.616500
H1131	H113	0.112000	0.949000	0.399400
H1141	H114	0.093400	0.995400	0.464300
H1151	H115	0.920000	0.968300	0.478700
H1161	H116	0.938200	0.916200	0.419300
H1171	H117	0.110500	0.956500	0.110400
H1181	H118	0.090300	0.007300	0.016100
H1191	H119	0.935100	0.928100	0.057100
H1201	H120	0.948600	0.883600	0.155900
C931	C93	0.562100	0.124600	0.762900
C941	C94	0.326700	0.110900	0.707600
C951	C95	0.500800	0.121100	0.748300
C961	C96	0.491500	0.098600	0.707600
C971	C97	0.435200	0.100100	0.692000
C981	C98	0.388100	0.124100	0.717300
C991	C99	0.397300	0.146700	0.758000
C1001	C100	0.453600	0.145200	0.773600
C1011	C101	0.768100	0.114400	0.687900
C1021	C102	0.710600	0.104600	0.689400
C1031	C103	0.670000	0.120000	0.730300
C1041	C104	0.692600	0.140800	0.766700
C1051	C105	0.753000	0.148600	0.761000
C1061	C106	0.148200	0.135700	0.664700
C1071	C107	0.207900	0.130500	0.672600
C1081	C108	0.226900	0.143800	0.713200
C1091	C109	0.187400	0.168300	0.747100
C1101	C110	0.130400	0.180700	0.731900
C1111	C111	0.887600	0.268700	0.672000
C1121	C112	0.893200	0.332900	0.633100
C1131	C113	0.904100	0.350000	0.574200
C1141	C114	0.910400	0.409900	0.534300
C1151	C115	0.903500	0.456900	0.557800
C1161	C116	0.890300	0.439000	0.616200
C1171	C117	0.885100	0.377100	0.654000
C1181	C118	0.948500	0.706000	0.404900
C1191	C119	0.935000	0.642000	0.444800
C1201	C120	0.910900	0.626100	0.501300
C1211	C121	0.903400	0.565400	0.538200
C1221	C122	0.912000	0.519600	0.519400
C1231	C123	0.932500	0.539600	0.461200
C1241	C124	0.944800	0.601400	0.422800
C1251	C125	0.961900	0.100200	0.643000
C1261	C126	0.973700	0.067500	0.603200
C1271	C127	0.927200	0.046700	0.585700
C1281	C128	0.938600	0.019300	0.545700
C1291	C129	0.994000	0.013700	0.521600
C1301	C130	0.041000	0.036100	0.536600
C1311	C131	0.030000	0.065200	0.574500
C1321	C132	0.954000	0.121000	0.797500
C1331	C133	0.967700	0.087100	0.856400
C1341	C134	0.926700	0.048700	0.898300
C1351	C135	0.939800	0.016400	0.955200
C1361	C136	0.993900	0.018800	0.969200
C1371	C137	0.031400	0.061500	0.931400
C1381	C138	0.021000	0.092400	0.872100
C1391	C139	0.437900	0.875400	0.237100
C1401	C140	0.673300	0.889100	0.292400
C1411	C141	0.499200	0.878900	0.251700
C1421	C142	0.508500	0.901400	0.292400
C1431	C143	0.564800	0.899900	0.308000
C1441	C144	0.611900	0.875900	0.282700
C1451	C145	0.602700	0.853300	0.242000
C1461	C146	0.546400	0.854800	0.226400
C1471	C147	0.231900	0.885600	0.312100
C1481	C148	0.289400	0.895400	0.310600
C1491	C149	0.330000	0.880000	0.269700
C1501	C150	0.307400	0.859200	0.233300
C1511	C151	0.247000	0.851400	0.239000
C1521	C152	0.851800	0.864300	0.335300
C1531	C153	0.792100	0.869500	0.327400
C1541	C154	0.773100	0.856200	0.286800
C1551	C155	0.812600	0.831700	0.252900
C1561	C156	0.869600	0.819300	0.268100
C1571	C157	0.112400	0.731300	0.328000
C1581	C158	0.106800	0.667100	0.366900
C1591	C159	0.095900	0.650000	0.425800
C1601	C160	0.089600	0.590100	0.465700
C1611	C161	0.096500	0.543100	0.442200
C1621	C162	0.109700	0.561000	0.383800
C1631	C163	0.114900	0.622900	0.346000
C1641	C164	0.051500	0.294000	0.595100
C1651	C165	0.065000	0.358000	0.555200
C1661	C166	0.089100	0.373900	0.498700
C1671	C167	0.096600	0.434600	0.461800
C1681	C168	0.088000	0.480400	0.480600
C1691	C169	0.067500	0.460400	0.538800
C1701	C170	0.055200	0.398600	0.577200
C1711	C171	0.038100	0.899800	0.357000
C1721	C172	0.026300	0.932500	0.396800
C1731	C173	0.072800	0.953300	0.414300
C1741	C174	0.061400	0.980700	0.454300
C1751	C175	0.006000	0.986300	0.478400
C1761	C176	0.959000	0.963900	0.463400
C1771	C177	0.970000	0.934800	0.425500
C1781	C178	0.046000	0.879000	0.202500
C1791	C179	0.032300	0.912900	0.143600
C1801	C180	0.073300	0.951300	0.101700
C1811	C181	0.060200	0.983600	0.044800
C1821	C182	0.006100	0.981200	0.030800
C1831	C183	0.968600	0.938500	0.068600
C1841	C184	0.979000	0.907600	0.127900
N91	N9	0.609300	0.108800	0.730500
N101	N10	0.792200	0.135000	0.721600
N111	N11	0.284000	0.142900	0.720500
N121	N12	0.112600	0.165000	0.689600
N131	N13	0.390700	0.891200	0.269500
N141	N14	0.207800	0.865000	0.278400
N151	N15	0.716000	0.857100	0.279500
N161	N16	0.887400	0.835000	0.310400
O211	O21	0.567600	0.148900	0.799200
O221	O22	0.314500	0.070400	0.689900
O231	O23	0.908300	0.229500	0.651700
O241	O24	0.863800	0.250900	0.723500
O251	O25	0.942200	0.748600	0.424200
O261	O26	0.965400	0.721400	0.350900
O271	O27	0.910300	0.102800	0.665600
O281	O28	0.005500	0.125300	0.650500
O291	O29	0.904600	0.111100	0.786200
O301	O30	0.993800	0.157800	0.760200
O311	O31	0.432400	0.851100	0.200800
O321	O32	0.685500	0.929600	0.310100
O331	O33	0.091700	0.770500	0.348300
O341	O34	0.136200	0.749100	0.276500
O351	O35	0.057800	0.251400	0.575800
O361	O36	0.034600	0.278600	0.649100
O371	O37	0.089700	0.897200	0.334400
O381	O38	0.994500	0.874700	0.349500
O391	O39	0.095400	0.888900	0.213800
O401	O40	0.006200	0.842200	0.239800
Zn91	Zn9	0.225840	0.836470	0.493620
Zn101	Zn10	0.380630	0.862010	0.459020
Zn111	Zn11	0.285550	0.501520	0.102570
Zn121	Zn12	0.438700	0.528920	0.082720
H1211	H121	0.947900	0.769600	0.491700
H1221	H122	0.665400	0.831800	0.484800
H1231	H123	0.012700	0.594200	0.084700
H1241	H124	0.722200	0.600200	0.994400
H1251	H125	0.857100	0.826100	0.476500
H1261	H126	0.758500	0.821200	0.463100
H1271	H127	0.726800	0.682100	0.622700
H1281	H128	0.822300	0.690100	0.634100
H1291	H129	0.143300	0.791800	0.440300
H1301	H130	0.045900	0.771900	0.446500
H1311	H131	0.013300	0.809100	0.590300
H1321	H132	0.114800	0.830400	0.575100
H1331	H133	0.501800	0.920600	0.422900
H1341	H134	0.599300	0.899900	0.445800
H1351	H135	0.551200	0.727400	0.532300
H1361	H136	0.453000	0.753300	0.513800
H1371	H137	0.920300	0.621000	0.943900
H1381	H138	0.817100	0.623900	0.962300
H1391	H139	0.822200	0.554400	0.134100
H1401	H140	0.925500	0.551500	0.115800
H1411	H141	0.183600	0.554200	0.147800
H1421	H142	0.078100	0.572100	0.138700
H1431	H143	0.110300	0.535300	0.000100
H1441	H144	0.206300	0.509100	0.021100
H1451	H145	0.531400	0.556400	0.141300
H1461	H146	0.634000	0.567200	0.130900
H1471	H147	0.634700	0.593800	0.962300
H1481	H148	0.532900	0.576200	0.983400
H1491	H149	0.198600	0.056100	0.455800
H1501	H150	0.208400	0.153000	0.388900
H1511	H151	0.268000	0.097300	0.261700
H1521	H152	0.257100	0.000600	0.330700
H1531	H153	0.282700	0.334900	0.251200
H1541	H154	0.270300	0.237300	0.322300
H1551	H155	0.221400	0.184300	0.206400
H1561	H156	0.234600	0.282900	0.136200
H1571	H157	0.366700	0.059200	0.422000
H1581	H158	0.382000	0.165100	0.370300
H1591	H159	0.444100	0.137000	0.227200
H1601	H160	0.431300	0.037600	0.274700
H1611	H161	0.446100	0.353100	0.274000
H1621	H162	0.431900	0.252100	0.326100
H1631	H163	0.405800	0.230900	0.181800
H1641	H164	0.413000	0.333800	0.131700
H1651	H165	0.227600	0.724300	0.400900
H1661	H166	0.236300	0.676900	0.339100
H1671	H167	0.411600	0.709100	0.304100
H1681	H168	0.401400	0.751200	0.372700
H1691	H169	0.423800	0.618300	0.187700
H1701	H170	0.416500	0.665100	0.250200
H1711	H171	0.245900	0.636100	0.279400
H1721	H172	0.251000	0.594200	0.215400
H1731	H173	0.229700	0.754300	0.678800
H1741	H174	0.248800	0.693800	0.769600
H1751	H175	0.422200	0.702000	0.714200
H1761	H176	0.403500	0.761800	0.618800
H1771	H177	0.280100	0.559800	0.935500
H1781	H178	0.268500	0.604800	0.838800
H1791	H179	0.433600	0.679400	0.803600
H1801	H180	0.446300	0.617600	0.899600
C1851	C185	0.911500	0.765700	0.568500
C1861	C186	0.668100	0.756800	0.533300
C1871	C187	0.851800	0.759800	0.554300
C1881	C188	0.830800	0.797700	0.505800
C1891	C189	0.770800	0.796100	0.497900
C1901	C190	0.729300	0.755300	0.544200
C1911	C191	0.752000	0.712400	0.594200
C1921	C192	0.809200	0.716100	0.600000
C1931	C193	0.117100	0.795300	0.470800
C1941	C194	0.058700	0.782800	0.474300
C1951	C195	0.017900	0.786400	0.520100
C1961	C196	0.038600	0.805100	0.559500
C1971	C197	0.100000	0.817400	0.549700
C1981	C198	0.510500	0.882000	0.447800
C1991	C199	0.569800	0.869400	0.460800
C2001	C200	0.583100	0.810500	0.496400
C2011	C201	0.542000	0.767600	0.512900
C2021	C202	0.482500	0.783600	0.500400
C2031	C203	0.999900	0.578200	0.023100
C2041	C204	0.742700	0.592700	0.065500
C2051	C205	0.933200	0.586000	0.028000
C2061	C206	0.900700	0.607700	0.982100
C2071	C207	0.838800	0.609400	0.993100
C2081	C208	0.809400	0.589500	0.050000
C2091	C209	0.841900	0.567800	0.096000
C2101	C210	0.903800	0.566000	0.085000
C2111	C211	0.168300	0.549300	0.117900
C2121	C212	0.104600	0.562900	0.111700
C2131	C213	0.088400	0.560500	0.062300
C2141	C214	0.122800	0.540300	0.031100
C2151	C215	0.181600	0.525000	0.044100
C2161	C216	0.554000	0.559800	0.106200
C2171	C217	0.614600	0.569200	0.100500
C2181	C218	0.643800	0.582000	0.044300
C2191	C219	0.614500	0.584300	0.999800
C2201	C220	0.553700	0.571900	0.013600
C2211	C221	0.223500	0.956800	0.443400
C2221	C222	0.229800	0.016900	0.401300
C2231	C223	0.213400	0.063800	0.417100
C2241	C224	0.218600	0.122000	0.376400
C2251	C225	0.238400	0.137500	0.317100
C2261	C226	0.253900	0.090200	0.300400
C2271	C227	0.248000	0.032000	0.342800
C2281	C228	0.265300	0.380300	0.141200
C2291	C229	0.257700	0.317100	0.189200
C2301	C230	0.269400	0.304200	0.242100
C2311	C231	0.262500	0.244900	0.285100
C2321	C232	0.244500	0.199000	0.273000
C2331	C233	0.233900	0.214500	0.216600
C2341	C234	0.241200	0.274000	0.174000
C2351	C235	0.392400	0.972200	0.385300
C2361	C236	0.400200	0.037500	0.353300
C2371	C237	0.383000	0.075300	0.382800
C2381	C238	0.391200	0.139500	0.351000
C2391	C239	0.411700	0.162300	0.294500
C2401	C240	0.428200	0.121300	0.266500
C2411	C241	0.421500	0.062500	0.294700
C2421	C242	0.435300	0.419900	0.163000
C2431	C243	0.429400	0.354500	0.198900
C2441	C244	0.436300	0.328800	0.255700
C2451	C245	0.429200	0.267900	0.286600
C2461	C246	0.418000	0.228000	0.260800
C2471	C247	0.412700	0.255200	0.201000
C2481	C248	0.417500	0.316900	0.170800
C2491	C249	0.309600	0.777400	0.428900
C2501	C250	0.314400	0.742400	0.393300
C2511	C251	0.265300	0.720200	0.382500
C2521	C252	0.270800	0.691900	0.344900
C2531	C253	0.324300	0.684400	0.315100
C2541	C254	0.374100	0.709900	0.324600
C2551	C255	0.367400	0.736800	0.365200
C2561	C256	0.349100	0.578800	0.147500
C2571	C257	0.339900	0.603400	0.191100
C2581	C258	0.385800	0.623100	0.205100
C2591	C259	0.381600	0.650900	0.244300
C2601	C260	0.330000	0.658000	0.273600
C2611	C261	0.283700	0.634200	0.259800
C2621	C262	0.285900	0.608500	0.221400
C2631	C263	0.301200	0.801500	0.578400
C2641	C264	0.313700	0.763000	0.637500
C2651	C265	0.268700	0.743000	0.684100
C2661	C266	0.280600	0.706100	0.739100
C2671	C267	0.337100	0.686700	0.751200
C2681	C268	0.383100	0.710100	0.707100
C2691	C269	0.371600	0.747600	0.649100
C2701	C270	0.372700	0.554900	0.988800
C2711	C271	0.364000	0.587300	0.926100
C2721	C272	0.311500	0.582900	0.908200
C2731	C273	0.303300	0.611600	0.850800
C2741	C274	0.348200	0.650800	0.811300
C2751	C275	0.402400	0.654300	0.829400
C2761	C276	0.409200	0.618700	0.888000
N171	N17	0.957500	0.773300	0.521600
N181	N18	0.139900	0.811900	0.506500
N191	N19	0.642300	0.800600	0.504400
N201	N20	0.468200	0.839800	0.470600
N211	N21	0.029200	0.580200	0.059800
N221	N22	0.202100	0.531500	0.084000
N231	N23	0.706500	0.592900	0.029800
N241	N24	0.523700	0.554800	0.065600
O411	O41	0.921100	0.760100	0.615500
O421	O42	0.638500	0.706700	0.565400
O431	O43	0.019200	0.571600	0.975200
O441	O44	0.722400	0.585800	0.118500
O451	O45	0.245900	0.913500	0.427800
O461	O46	0.200700	0.941300	0.495200
O471	O47	0.279500	0.420900	0.160600
O481	O48	0.256400	0.395000	0.090500
O491	O49	0.377900	0.950400	0.441500
O501	O50	0.404200	0.936900	0.359400
O511	O51	0.424100	0.442700	0.111500
O521	O52	0.449800	0.454500	0.187800
O531	O53	0.258700	0.782100	0.455800
O541	O54	0.356100	0.806600	0.427800
O551	O55	0.303900	0.550100	0.145300
O561	O56	0.398000	0.578200	0.119100
O571	O57	0.248700	0.803500	0.569600
O581	O58	0.348600	0.823700	0.542800
O591	O59	0.325100	0.529900	0.023100
O601	O60	0.421000	0.559700	0.004300
