data_TETZEX_clean_PM
_symmetry_space_group_name_H-M	'P1'
_cell_length_a	27.329000
_cell_length_b	17.377000
_cell_length_c	10.212400
_cell_angle_alpha	90.000000
_cell_angle_beta	90.000000
_cell_angle_gamma	90.000000
_symmetry_Int_Tables_number 1

loop_
_symmetry_equiv_pos_as_xyz
'x,y,z'

loop_
_atom_site_label
_atom_site_type_symbol
_atom_site_fract_x
_atom_site_fract_y
_atom_site_fract_z
Ga11	Ga1	0.656500	0.677700	0.110400
Ga21	Ga2	0.779800	0.739700	0.088600
Ga31	Ga3	0.757400	0.913300	0.925100
Ga41	Ga4	0.553100	0.422700	0.900500
P11	P1	0.857900	0.822400	0.904700
P21	P2	0.559200	0.573400	0.096300
P31	P3	0.753900	0.065000	0.111600
P41	P4	0.696100	0.771200	0.885200
F11	F1	0.766600	0.853700	0.090700
F21	F2	0.716400	0.730600	0.178700
O11	O1	0.838600	0.756600	0.986900
O21	O2	0.872600	0.795100	0.767200
O31	O3	0.905700	0.852900	0.970200
O41	O4	0.822300	0.890700	0.888700
O51	O5	0.597400	0.628100	0.047800
O61	O6	0.557400	0.503400	0.009100
O71	O7	0.509000	0.613300	0.095000
O81	O8	0.570600	0.544500	0.237000
O91	O9	0.716700	0.128300	0.091200
O101	O10	0.740500	0.000700	0.015300
O111	O11	0.752600	0.032900	0.252200
O121	O12	0.806800	0.090500	0.078900
O131	O13	0.743700	0.731500	0.926800
O141	O14	0.701400	0.859100	0.893200
O151	O15	0.683200	0.746000	0.745300
O161	O16	0.652300	0.745800	0.972300
Ga51	Ga5	0.843500	0.822300	0.610400
Ga61	Ga6	0.720200	0.760300	0.588600
Ga71	Ga7	0.742600	0.586700	0.425100
Ga81	Ga8	0.946900	0.077300	0.400500
P51	P5	0.642100	0.677600	0.404700
P61	P6	0.940800	0.926600	0.596300
P71	P7	0.746100	0.435000	0.611600
P81	P8	0.803900	0.728800	0.385200
F31	F3	0.733400	0.646300	0.590700
F41	F4	0.783600	0.769400	0.678700
O171	O17	0.661400	0.743400	0.486900
O181	O18	0.627400	0.704900	0.267200
O191	O19	0.594300	0.647100	0.470200
O201	O20	0.677700	0.609300	0.388700
O211	O21	0.902600	0.871900	0.547800
O221	O22	0.942600	0.996600	0.509100
O231	O23	0.991000	0.886700	0.595000
O241	O24	0.929400	0.955500	0.737000
O251	O25	0.783300	0.371700	0.591200
O261	O26	0.759500	0.499300	0.515300
O271	O27	0.747400	0.467100	0.752200
O281	O28	0.693200	0.409500	0.578900
O291	O29	0.756300	0.768500	0.426800
O301	O30	0.798600	0.640900	0.393200
O311	O31	0.816800	0.754000	0.245300
O321	O32	0.847700	0.754200	0.472300
Ga91	Ga9	0.343500	0.677700	0.389600
Ga101	Ga10	0.220200	0.739700	0.411400
Ga111	Ga11	0.242600	0.913300	0.574900
Ga121	Ga12	0.446900	0.422700	0.599500
P91	P9	0.142100	0.822400	0.595300
P101	P10	0.440800	0.573400	0.403700
P111	P11	0.246100	0.065000	0.388400
P121	P12	0.303900	0.771200	0.614800
F51	F5	0.233400	0.853700	0.409300
F61	F6	0.283600	0.730600	0.321300
O331	O33	0.161400	0.756600	0.513100
O341	O34	0.127400	0.795100	0.732800
O351	O35	0.094300	0.852900	0.529800
O361	O36	0.177700	0.890700	0.611300
O371	O37	0.402600	0.628100	0.452200
O381	O38	0.442600	0.503400	0.490900
O391	O39	0.491000	0.613300	0.405000
O401	O40	0.429400	0.544500	0.263000
O411	O41	0.283300	0.128300	0.408800
O421	O42	0.259500	0.000700	0.484700
O431	O43	0.247400	0.032900	0.247800
O441	O44	0.193200	0.090500	0.421100
O451	O45	0.256300	0.731500	0.573200
O461	O46	0.298600	0.859100	0.606800
O471	O47	0.316800	0.746000	0.754700
O481	O48	0.347700	0.745800	0.527700
Ga131	Ga13	0.156500	0.822300	0.889600
Ga141	Ga14	0.279800	0.760300	0.911400
Ga151	Ga15	0.257400	0.586700	0.074900
Ga161	Ga16	0.053100	0.077300	0.099500
P131	P13	0.357900	0.677600	0.095300
P141	P14	0.059200	0.926600	0.903700
P151	P15	0.253900	0.435000	0.888400
P161	P16	0.196100	0.728800	0.114800
F71	F7	0.266600	0.646300	0.909300
F81	F8	0.216400	0.769400	0.821300
O491	O49	0.338600	0.743400	0.013100
O501	O50	0.372600	0.704900	0.232800
O511	O51	0.405700	0.647100	0.029800
O521	O52	0.322300	0.609300	0.111300
O531	O53	0.097400	0.871900	0.952200
O541	O54	0.057400	0.996600	0.990900
O551	O55	0.009000	0.886700	0.905000
O561	O56	0.070600	0.955500	0.763000
O571	O57	0.216700	0.371700	0.908800
O581	O58	0.240500	0.499300	0.984700
O591	O59	0.252600	0.467100	0.747800
O601	O60	0.306800	0.409500	0.921100
O611	O61	0.243700	0.768500	0.073200
O621	O62	0.201400	0.640900	0.106800
O631	O63	0.183200	0.754000	0.254700
O641	O64	0.152300	0.754200	0.027700
Ga171	Ga17	0.343500	0.322300	0.889600
Ga181	Ga18	0.220200	0.260300	0.911400
Ga191	Ga19	0.242600	0.086700	0.074900
Ga201	Ga20	0.446900	0.577300	0.099500
P171	P17	0.142100	0.177600	0.095300
P181	P18	0.440800	0.426600	0.903700
P191	P19	0.246100	0.935000	0.888400
P201	P20	0.303900	0.228800	0.114800
F91	F9	0.233400	0.146300	0.909300
F101	F10	0.283600	0.269400	0.821300
O651	O65	0.161400	0.243400	0.013100
O661	O66	0.127400	0.204900	0.232800
O671	O67	0.094300	0.147100	0.029800
O681	O68	0.177700	0.109300	0.111300
O691	O69	0.402600	0.371900	0.952200
O701	O70	0.442600	0.496600	0.990900
O711	O71	0.491000	0.386700	0.905000
O721	O72	0.429400	0.455500	0.763000
O731	O73	0.283300	0.871700	0.908800
O741	O74	0.259500	0.999300	0.984700
O751	O75	0.247400	0.967100	0.747800
O761	O76	0.193200	0.909500	0.921100
O771	O77	0.256300	0.268500	0.073200
O781	O78	0.298600	0.140900	0.106800
O791	O79	0.316800	0.254000	0.254700
O801	O80	0.347700	0.254200	0.027700
Ga211	Ga21	0.156500	0.177700	0.389600
Ga221	Ga22	0.279800	0.239700	0.411400
Ga231	Ga23	0.257400	0.413300	0.574900
Ga241	Ga24	0.053100	0.922700	0.599500
P211	P21	0.357900	0.322400	0.595300
P221	P22	0.059200	0.073400	0.403700
P231	P23	0.253900	0.565000	0.388400
P241	P24	0.196100	0.271200	0.614800
F111	F11	0.266600	0.353700	0.409300
F121	F12	0.216400	0.230600	0.321300
O811	O81	0.338600	0.256600	0.513100
O821	O82	0.372600	0.295100	0.732800
O831	O83	0.405700	0.352900	0.529800
O841	O84	0.322300	0.390700	0.611300
O851	O85	0.097400	0.128100	0.452200
O861	O86	0.057400	0.003400	0.490900
O871	O87	0.009000	0.113300	0.405000
O881	O88	0.070600	0.044500	0.263000
O891	O89	0.216700	0.628300	0.408800
O901	O90	0.240500	0.500700	0.484700
O911	O91	0.252600	0.532900	0.247800
O921	O92	0.306800	0.590500	0.421100
O931	O93	0.243700	0.231500	0.573200
O941	O94	0.201400	0.359100	0.606800
O951	O95	0.183200	0.246000	0.754700
O961	O96	0.152300	0.245800	0.527700
Ga251	Ga25	0.656500	0.322300	0.610400
Ga261	Ga26	0.779800	0.260300	0.588600
Ga271	Ga27	0.757400	0.086700	0.425100
Ga281	Ga28	0.553100	0.577300	0.400500
P251	P25	0.857900	0.177600	0.404700
P261	P26	0.559200	0.426600	0.596300
P271	P27	0.753900	0.935000	0.611600
P281	P28	0.696100	0.228800	0.385200
F131	F13	0.766600	0.146300	0.590700
F141	F14	0.716400	0.269400	0.678700
O971	O97	0.838600	0.243400	0.486900
O981	O98	0.872600	0.204900	0.267200
O991	O99	0.905700	0.147100	0.470200
O1001	O100	0.822300	0.109300	0.388700
O1011	O101	0.597400	0.371900	0.547800
O1021	O102	0.557400	0.496600	0.509100
O1031	O103	0.509000	0.386700	0.595000
O1041	O104	0.570600	0.455500	0.737000
O1051	O105	0.716700	0.871700	0.591200
O1061	O106	0.740500	0.999300	0.515300
O1071	O107	0.752600	0.967100	0.752200
O1081	O108	0.806800	0.909500	0.578900
O1091	O109	0.743700	0.268500	0.426800
O1101	O110	0.701400	0.140900	0.393200
O1111	O111	0.683200	0.254000	0.245300
O1121	O112	0.652300	0.254200	0.472300
Ga291	Ga29	0.843500	0.177700	0.110400
Ga301	Ga30	0.720200	0.239700	0.088600
Ga311	Ga31	0.742600	0.413300	0.925100
Ga321	Ga32	0.946900	0.922700	0.900500
P291	P29	0.642100	0.322400	0.904700
P301	P30	0.940800	0.073400	0.096300
P311	P31	0.746100	0.565000	0.111600
P321	P32	0.803900	0.271200	0.885200
F151	F15	0.733400	0.353700	0.090700
F161	F16	0.783600	0.230600	0.178700
O1131	O113	0.661400	0.256600	0.986900
O1141	O114	0.627400	0.295100	0.767200
O1151	O115	0.594300	0.352900	0.970200
O1161	O116	0.677700	0.390700	0.888700
O1171	O117	0.902600	0.128100	0.047800
O1181	O118	0.942600	0.003400	0.009100
O1191	O119	0.991000	0.113300	0.095000
O1201	O120	0.929400	0.044500	0.237000
O1211	O121	0.783300	0.628300	0.091200
O1221	O122	0.759500	0.500700	0.015300
O1231	O123	0.747400	0.532900	0.252200
O1241	O124	0.693200	0.590500	0.078900
O1251	O125	0.756300	0.231500	0.926800
O1261	O126	0.798600	0.359100	0.893200
O1271	O127	0.816800	0.246000	0.745300
O1281	O128	0.847700	0.245800	0.972300
