data_TEVZEA_clean_PM
_symmetry_space_group_name_H-M	'P1'
_cell_length_a	9.750500
_cell_length_b	11.217700
_cell_length_c	14.373600
_cell_angle_alpha	91.289100
_cell_angle_beta	90.000000
_cell_angle_gamma	90.000000
_symmetry_Int_Tables_number 1

loop_
_symmetry_equiv_pos_as_xyz
'x,y,z'

loop_
_atom_site_label
_atom_site_type_symbol
_atom_site_fract_x
_atom_site_fract_y
_atom_site_fract_z
Zn11	Zn1	0.918950	0.756720	0.131860
Zn21	Zn2	0.103220	0.740200	0.314800
Zn31	Zn3	0.418950	0.743280	0.368140
Zn41	Zn4	0.603220	0.759800	0.185200
Zn51	Zn5	0.081050	0.243280	0.868140
Zn61	Zn6	0.896780	0.259800	0.685200
Zn71	Zn7	0.581050	0.256720	0.631860
Zn81	Zn8	0.396780	0.240200	0.814800
Zn91	Zn9	0.000000	0.500000	0.000000
Zn101	Zn10	0.500000	0.000000	0.500000
Zn111	Zn11	0.000000	0.000000	0.000000
Zn121	Zn12	0.500000	0.500000	0.500000
H11	H1	0.747900	0.861600	0.368600
H21	H2	0.022500	0.473900	0.268700
H31	H3	0.613100	0.561400	0.035400
H41	H4	0.174400	0.990600	0.241000
H51	H5	0.172100	0.696700	0.934400
H61	H6	0.700200	0.985800	0.999900
H71	H7	0.247900	0.638400	0.131400
H81	H8	0.522500	0.026100	0.231300
H91	H9	0.113100	0.938600	0.464600
H101	H10	0.674400	0.509400	0.259000
H111	H11	0.672100	0.803300	0.565600
H121	H12	0.200200	0.514200	0.500100
H131	H13	0.252100	0.138400	0.631400
H141	H14	0.977500	0.526100	0.731300
H151	H15	0.386900	0.438600	0.964600
H161	H16	0.825600	0.009400	0.759000
H171	H17	0.827900	0.303300	0.065600
H181	H18	0.299800	0.014200	0.000100
H191	H19	0.752100	0.361600	0.868600
H201	H20	0.477500	0.973900	0.768700
H211	H21	0.886900	0.061400	0.535400
H221	H22	0.325600	0.490600	0.741000
H231	H23	0.327900	0.196700	0.434400
H241	H24	0.799800	0.485800	0.499900
C11	C1	0.821000	0.831300	0.331300
C21	C2	0.005500	0.516100	0.213300
C31	C3	0.707900	0.576800	0.044700
C41	C4	0.119600	0.960000	0.191300
C51	C5	0.112600	0.742600	0.973300
C61	C6	0.716900	0.926800	0.044900
C71	C7	0.321000	0.668700	0.168700
C81	C8	0.505500	0.983900	0.286700
C91	C9	0.207900	0.923200	0.455300
C101	C10	0.619600	0.540000	0.308700
C111	C11	0.612600	0.757400	0.526700
C121	C12	0.216900	0.573200	0.455100
C131	C13	0.179000	0.168700	0.668700
C141	C14	0.994500	0.483900	0.786700
C151	C15	0.292100	0.423200	0.955300
C161	C16	0.880400	0.040000	0.808700
C171	C17	0.887400	0.257400	0.026700
C181	C18	0.283100	0.073200	0.955100
C191	C19	0.679000	0.331300	0.831300
C201	C20	0.494500	0.016100	0.713300
C211	C21	0.792100	0.076800	0.544700
C221	C22	0.380400	0.460000	0.691300
C231	C23	0.387400	0.242600	0.473300
C241	C24	0.783100	0.426800	0.544900
O11	O1	0.795000	0.812310	0.244910
O21	O2	0.931200	0.814300	0.371000
O31	O3	0.000500	0.628560	0.220960
O41	O4	0.990600	0.455790	0.141690
O51	O5	0.740600	0.652800	0.109000
O61	O6	0.789900	0.521990	0.993890
O71	O7	0.079500	0.852060	0.196860
O81	O8	0.093900	0.028390	0.127590
O91	O9	0.028700	0.684950	0.024550
O101	O10	0.123200	0.851460	0.969860
O111	O11	0.841300	0.896020	0.056720
O121	O12	0.615000	0.887580	0.086180
O131	O13	0.295000	0.687690	0.255090
O141	O14	0.431200	0.685700	0.129000
O151	O15	0.500500	0.871440	0.279040
O161	O16	0.490600	0.044210	0.358310
O171	O17	0.240600	0.847200	0.391000
O181	O18	0.289900	0.978010	0.506110
O191	O19	0.579500	0.647940	0.303140
O201	O20	0.593900	0.471610	0.372410
O211	O21	0.528700	0.815050	0.475450
O221	O22	0.623200	0.648540	0.530140
O231	O23	0.341300	0.603980	0.443280
O241	O24	0.115000	0.612420	0.413820
O251	O25	0.205000	0.187690	0.755090
O261	O26	0.068800	0.185700	0.629000
O271	O27	0.999500	0.371440	0.779040
O281	O28	0.009400	0.544210	0.858310
O291	O29	0.259400	0.347200	0.891000
O301	O30	0.210100	0.478010	0.006110
O311	O31	0.920500	0.147940	0.803140
O321	O32	0.906100	0.971610	0.872410
O331	O33	0.971300	0.315050	0.975450
O341	O34	0.876800	0.148540	0.030140
O351	O35	0.158700	0.103980	0.943280
O361	O36	0.385000	0.112420	0.913820
O371	O37	0.705000	0.312310	0.744910
O381	O38	0.568800	0.314300	0.871000
O391	O39	0.499500	0.128560	0.720960
O401	O40	0.509400	0.955790	0.641690
O411	O41	0.759400	0.152800	0.609000
O421	O42	0.710100	0.021990	0.493890
O431	O43	0.420500	0.352060	0.696860
O441	O44	0.406100	0.528390	0.627590
O451	O45	0.471300	0.184950	0.524550
O461	O46	0.376800	0.351460	0.469860
O471	O47	0.658700	0.396020	0.556720
O481	O48	0.885000	0.387580	0.586180
