data_TEVZIE_clean_PM
_symmetry_space_group_name_H-M	'P1'
_cell_length_a	9.848600
_cell_length_b	11.295600
_cell_length_c	14.749300
_cell_angle_alpha	91.309400
_cell_angle_beta	90.000000
_cell_angle_gamma	90.000000
_symmetry_Int_Tables_number 1

loop_
_symmetry_equiv_pos_as_xyz
'x,y,z'

loop_
_atom_site_label
_atom_site_type_symbol
_atom_site_fract_x
_atom_site_fract_y
_atom_site_fract_z
Zn11	Zn1	0.923320	0.756860	0.132350
Zn21	Zn2	0.112400	0.741240	0.308760
Zn31	Zn3	0.423320	0.743140	0.367650
Zn41	Zn4	0.612400	0.758760	0.191240
Zn51	Zn5	0.076680	0.243140	0.867650
Zn61	Zn6	0.887600	0.258760	0.691240
Zn71	Zn7	0.576680	0.256860	0.632350
Zn81	Zn8	0.387600	0.241240	0.808760
Zn91	Zn9	0.000000	0.500000	0.000000
Zn101	Zn10	0.500000	0.000000	0.500000
Zn111	Zn11	0.000000	0.000000	0.000000
Zn121	Zn12	0.500000	0.500000	0.500000
H11	H1	0.757600	0.845400	0.369800
H21	H2	0.055700	0.477500	0.258900
H31	H3	0.617300	0.553400	0.051600
H41	H4	0.198900	0.981300	0.226100
H51	H5	0.154200	0.695300	0.927300
H61	H6	0.707400	0.003700	0.025100
H71	H7	0.257600	0.654600	0.130200
H81	H8	0.555700	0.022500	0.241100
H91	H9	0.117300	0.946600	0.448400
H101	H10	0.698900	0.518700	0.273900
H111	H11	0.654200	0.804700	0.572700
H121	H12	0.207400	0.496300	0.474900
H131	H13	0.242400	0.154600	0.630200
H141	H14	0.944300	0.522500	0.741100
H151	H15	0.382700	0.446600	0.948400
H161	H16	0.801100	0.018700	0.773900
H171	H17	0.845800	0.304700	0.072700
H181	H18	0.292600	0.996300	0.974900
H191	H19	0.742400	0.345400	0.869800
H201	H20	0.444300	0.977500	0.758900
H211	H21	0.882700	0.053400	0.551600
H221	H22	0.301100	0.481300	0.726100
H231	H23	0.345800	0.195300	0.427300
H241	H24	0.792600	0.503700	0.525100
C11	C1	0.830400	0.820370	0.331770
C21	C2	0.028500	0.518350	0.206350
C31	C3	0.711200	0.571760	0.056060
C41	C4	0.136400	0.953380	0.181480
C51	C5	0.099300	0.741740	0.967340
C61	C6	0.724500	0.938050	0.062550
C71	C7	0.330400	0.679630	0.168230
C81	C8	0.528500	0.981650	0.293650
C91	C9	0.211200	0.928240	0.443940
C101	C10	0.636400	0.546620	0.318520
C111	C11	0.599300	0.758260	0.532660
C121	C12	0.224500	0.561950	0.437450
C131	C13	0.169600	0.179630	0.668230
C141	C14	0.971500	0.481650	0.793650
C151	C15	0.288800	0.428240	0.943940
C161	C16	0.863600	0.046620	0.818520
C171	C17	0.900700	0.258260	0.032660
C181	C18	0.275500	0.061950	0.937450
C191	C19	0.669600	0.320370	0.831770
C201	C20	0.471500	0.018350	0.706350
C211	C21	0.788800	0.071760	0.556060
C221	C22	0.363600	0.453380	0.681480
C231	C23	0.400700	0.241740	0.467340
C241	C24	0.775500	0.438050	0.562550
O11	O1	0.803870	0.804370	0.247750
O21	O2	0.942880	0.806280	0.368720
O31	O3	0.012480	0.629060	0.215310
O41	O4	0.012430	0.457790	0.136320
O51	O5	0.745340	0.655210	0.112060
O61	O6	0.789770	0.513040	0.007240
O71	O7	0.082820	0.852420	0.194560
O81	O8	0.115560	0.018330	0.117000
O91	O9	0.024520	0.685190	0.023270
O101	O10	0.106950	0.849490	0.960440
O111	O11	0.847350	0.901230	0.065960
O121	O12	0.625650	0.896670	0.103230
O131	O13	0.303870	0.695630	0.252250
O141	O14	0.442880	0.693720	0.131280
O151	O15	0.512480	0.870940	0.284690
O161	O16	0.512430	0.042210	0.363680
O171	O17	0.245340	0.844790	0.387940
O181	O18	0.289770	0.986960	0.492760
O191	O19	0.582820	0.647580	0.305440
O201	O20	0.615560	0.481670	0.383000
O211	O21	0.524520	0.814810	0.476730
O221	O22	0.606950	0.650510	0.539560
O231	O23	0.347350	0.598770	0.434040
O241	O24	0.125650	0.603330	0.396770
O251	O25	0.196130	0.195630	0.752250
O261	O26	0.057120	0.193720	0.631280
O271	O27	0.987520	0.370940	0.784690
O281	O28	0.987570	0.542210	0.863680
O291	O29	0.254660	0.344790	0.887940
O301	O30	0.210230	0.486960	0.992760
O311	O31	0.917180	0.147580	0.805440
O321	O32	0.884440	0.981670	0.883000
O331	O33	0.975480	0.314810	0.976730
O341	O34	0.893050	0.150510	0.039560
O351	O35	0.152650	0.098770	0.934040
O361	O36	0.374350	0.103330	0.896770
O371	O37	0.696130	0.304370	0.747750
O381	O38	0.557120	0.306280	0.868720
O391	O39	0.487520	0.129060	0.715310
O401	O40	0.487570	0.957790	0.636320
O411	O41	0.754660	0.155210	0.612060
O421	O42	0.710230	0.013040	0.507240
O431	O43	0.417180	0.352420	0.694560
O441	O44	0.384440	0.518330	0.617000
O451	O45	0.475480	0.185190	0.523270
O461	O46	0.393050	0.349490	0.460440
O471	O47	0.652650	0.401230	0.565960
O481	O48	0.874350	0.396670	0.603230
