data_TEYLIU_clean_PM
_symmetry_space_group_name_H-M	'P1'
_cell_length_a	6.203500
_cell_length_b	12.044500
_cell_length_c	22.737300
_cell_angle_alpha	90.000000
_cell_angle_beta	90.000000
_cell_angle_gamma	91.669000
_symmetry_Int_Tables_number 1

loop_
_symmetry_equiv_pos_as_xyz
'x,y,z'

loop_
_atom_site_label
_atom_site_type_symbol
_atom_site_fract_x
_atom_site_fract_y
_atom_site_fract_z
Ce11	Ce1	0.440660	0.936660	0.853390
Ce21	Ce2	0.059340	0.563340	0.353390
Ce31	Ce3	0.559340	0.063340	0.146610
Ce41	Ce4	0.940660	0.436660	0.646610
Co11	Co1	0.000000	0.500000	0.000000
Co21	Co2	0.500000	0.000000	0.500000
H11	H1	0.054800	0.601800	0.785900
H21	H2	0.528300	0.421700	0.819600
H31	H3	0.916200	0.741500	0.842800
H41	H4	0.812300	0.388200	0.881000
H51	H5	0.445200	0.898200	0.285900
H61	H6	0.971700	0.078300	0.319600
H71	H7	0.583800	0.758500	0.342800
H81	H8	0.687700	0.111800	0.381000
H91	H9	0.945200	0.398200	0.214100
H101	H10	0.471700	0.578300	0.180400
H111	H11	0.083800	0.258500	0.157200
H121	H12	0.187700	0.611800	0.119000
H131	H13	0.554800	0.101800	0.714100
H141	H14	0.028300	0.921700	0.680400
H151	H15	0.416200	0.241500	0.657200
H161	H16	0.312300	0.888200	0.619000
C11	C1	0.463200	0.537800	0.686700
C21	C2	0.916700	0.626200	0.778300
C31	C3	0.598800	0.613300	0.727360
C41	C4	0.657700	0.651400	0.006600
C51	C5	0.609600	0.585600	0.950730
C61	C6	0.330100	0.769700	0.736600
C71	C7	0.261900	0.683500	0.925700
C81	C8	0.528400	0.707400	0.755310
C91	C9	0.545400	0.464700	0.853400
C101	C10	0.436700	0.601900	0.913300
C111	C11	0.836600	0.713400	0.811200
C121	C12	0.718100	0.444300	0.890100
C131	C13	0.036800	0.962200	0.186700
C141	C14	0.583300	0.873800	0.278300
C151	C15	0.901200	0.886700	0.227360
C161	C16	0.842300	0.848600	0.506600
C171	C17	0.890400	0.914400	0.450730
C181	C18	0.169900	0.730300	0.236600
C191	C19	0.238100	0.816500	0.425700
C201	C20	0.971600	0.792600	0.255310
C211	C21	0.954600	0.035300	0.353400
C221	C22	0.063300	0.898100	0.413300
C231	C23	0.663400	0.786600	0.311200
C241	C24	0.781900	0.055700	0.390100
C251	C25	0.536800	0.462200	0.313300
C261	C26	0.083300	0.373800	0.221700
C271	C27	0.401200	0.386700	0.272640
C281	C28	0.342300	0.348600	0.993400
C291	C29	0.390400	0.414400	0.049270
C301	C30	0.669900	0.230300	0.263400
C311	C31	0.738100	0.316500	0.074300
C321	C32	0.471600	0.292600	0.244690
C331	C33	0.454600	0.535300	0.146600
C341	C34	0.563300	0.398100	0.086700
C351	C35	0.163400	0.286600	0.188800
C361	C36	0.281900	0.555700	0.109900
C371	C37	0.963200	0.037800	0.813300
C381	C38	0.416700	0.126200	0.721700
C391	C39	0.098800	0.113300	0.772640
C401	C40	0.157700	0.151400	0.493400
C411	C41	0.109600	0.085600	0.549270
C421	C42	0.830100	0.269700	0.763400
C431	C43	0.761900	0.183500	0.574300
C441	C44	0.028400	0.207400	0.744690
C451	C45	0.045400	0.964700	0.646600
C461	C46	0.936700	0.101900	0.586700
C471	C47	0.336600	0.213400	0.688800
C481	C48	0.218100	0.944300	0.609900
N11	N1	0.800100	0.577100	0.736110
N21	N2	0.749300	0.504800	0.938630
N31	N3	0.647000	0.757600	0.798090
N41	N4	0.404200	0.542100	0.863820
N51	N5	0.699900	0.922900	0.236110
N61	N6	0.750700	0.995200	0.438630
N71	N7	0.853000	0.742400	0.298090
N81	N8	0.095800	0.957900	0.363820
N91	N9	0.199900	0.422900	0.263890
N101	N10	0.250700	0.495200	0.061370
N111	N11	0.353000	0.242400	0.201910
N121	N12	0.595800	0.457900	0.136180
N131	N13	0.300100	0.077100	0.763890
N141	N14	0.249300	0.004800	0.561370
N151	N15	0.147000	0.257600	0.701910
N161	N16	0.904200	0.042100	0.636180
O11	O1	0.563900	0.499100	0.643030
O21	O2	0.271400	0.515000	0.699610
O31	O3	0.799400	0.611600	0.040020
O41	O4	0.111100	0.651900	0.958440
O51	O5	0.264500	0.841200	0.771750
O61	O6	0.557200	0.737900	0.013960
O71	O7	0.271200	0.774800	0.899500
O81	O8	0.259000	0.748500	0.687520
O91	O9	0.936100	0.000900	0.143030
O101	O10	0.228600	0.985000	0.199610
O111	O11	0.700600	0.888400	0.540020
O121	O12	0.388900	0.848100	0.458440
O131	O13	0.235500	0.658800	0.271750
O141	O14	0.942800	0.762100	0.513960
O151	O15	0.228800	0.725200	0.399500
O161	O16	0.241000	0.751500	0.187520
O171	O17	0.436100	0.500900	0.356970
O181	O18	0.728600	0.485000	0.300390
O191	O19	0.200600	0.388400	0.959980
O201	O20	0.888900	0.348100	0.041560
O211	O21	0.735500	0.158800	0.228250
O221	O22	0.442800	0.262100	0.986040
O231	O23	0.728800	0.225200	0.100500
O241	O24	0.741000	0.251500	0.312480
O251	O25	0.063900	0.999100	0.856970
O261	O26	0.771400	0.015000	0.800390
O271	O27	0.299400	0.111600	0.459980
O281	O28	0.611100	0.151900	0.541560
O291	O29	0.764500	0.341200	0.728250
O301	O30	0.057200	0.237900	0.486040
O311	O31	0.771200	0.274800	0.600500
O321	O32	0.759000	0.248500	0.812480
