data_TIDLEZ_clean_PM
_symmetry_space_group_name_H-M	'P1'
_cell_length_a	18.912000
_cell_length_b	7.595600
_cell_length_c	13.892400
_cell_angle_alpha	90.000000
_cell_angle_beta	90.000000
_cell_angle_gamma	90.000000
_symmetry_Int_Tables_number 1

loop_
_symmetry_equiv_pos_as_xyz
'x,y,z'

loop_
_atom_site_label
_atom_site_type_symbol
_atom_site_fract_x
_atom_site_fract_y
_atom_site_fract_z
N11	N1	0.575100	0.341300	0.397300
N21	N2	0.908500	0.341400	0.074800
H11	H1	0.696300	0.354600	0.170600
H21	H2	0.782600	0.354400	0.294400
C11	C1	0.619800	0.389600	0.331900
H31	H3	0.629700	0.507400	0.316200
C21	C2	0.861600	0.391700	0.137700
H41	H4	0.851200	0.509500	0.152700
N31	N3	0.924900	0.658700	0.897300
N41	N4	0.591500	0.658600	0.574800
H51	H5	0.803700	0.645400	0.670600
H61	H6	0.717400	0.645600	0.794400
C31	C3	0.880200	0.610400	0.831900
H71	H7	0.870300	0.492600	0.816200
C41	C4	0.638400	0.608300	0.637700
H81	H8	0.648800	0.490500	0.652700
N51	N5	0.424900	0.841300	0.602700
N61	N6	0.091500	0.841400	0.925200
H91	H9	0.303700	0.854600	0.829400
H101	H10	0.217400	0.854400	0.705600
C51	C5	0.380200	0.889600	0.668100
H111	H11	0.370300	0.007400	0.683800
C61	C6	0.138400	0.891700	0.862300
H121	H12	0.148800	0.009500	0.847300
N71	N7	0.075100	0.158700	0.102700
N81	N8	0.408500	0.158600	0.425200
H131	H13	0.196300	0.145400	0.329400
H141	H14	0.282600	0.145600	0.205600
C71	C7	0.119800	0.110400	0.168100
H151	H15	0.129700	0.992600	0.183800
C81	C8	0.361600	0.108300	0.362300
H161	H16	0.351200	0.990500	0.347300
N91	N9	0.424900	0.658700	0.602700
N101	N10	0.091500	0.658600	0.925200
H171	H17	0.303700	0.645400	0.829400
H181	H18	0.217400	0.645600	0.705600
C91	C9	0.380200	0.610400	0.668100
H191	H19	0.370300	0.492600	0.683800
C101	C10	0.138400	0.608300	0.862300
H201	H20	0.148800	0.490500	0.847300
N111	N11	0.075100	0.341300	0.102700
N121	N12	0.408500	0.341400	0.425200
H211	H21	0.196300	0.354600	0.329400
H221	H22	0.282600	0.354400	0.205600
C111	C11	0.119800	0.389600	0.168100
H231	H23	0.129700	0.507400	0.183800
C121	C12	0.361600	0.391700	0.362300
H241	H24	0.351200	0.509500	0.347300
N131	N13	0.575100	0.158700	0.397300
N141	N14	0.908500	0.158600	0.074800
H251	H25	0.696300	0.145400	0.170600
H261	H26	0.782600	0.145600	0.294400
C131	C13	0.619800	0.110400	0.331900
H271	H27	0.629700	0.992600	0.316200
C141	C14	0.861600	0.108300	0.137700
H281	H28	0.851200	0.990500	0.152700
N151	N15	0.924900	0.841300	0.897300
N161	N16	0.591500	0.841400	0.574800
H291	H29	0.803700	0.854600	0.670600
H301	H30	0.717400	0.854400	0.794400
C151	C15	0.880200	0.889600	0.831900
H311	H31	0.870300	0.007400	0.816200
C161	C16	0.638400	0.891700	0.637700
H321	H32	0.648800	0.009500	0.652700
Cd11	Cd1	0.500000	0.500000	0.500000
Cd21	Cd2	0.000000	0.500000	0.000000
Cd31	Cd3	0.500000	0.000000	0.500000
Cd41	Cd4	0.000000	0.000000	0.000000
Cl11	Cl1	0.509250	0.250000	0.627950
N171	N17	0.650300	0.250000	0.289300
N181	N18	0.830100	0.250000	0.178500
C171	C17	0.702700	0.250000	0.211000
C181	C18	0.776500	0.250000	0.253700
Cl21	Cl2	0.990750	0.750000	0.127950
N191	N19	0.849700	0.750000	0.789300
N201	N20	0.669900	0.750000	0.678500
C191	C19	0.797300	0.750000	0.711000
C201	C20	0.723500	0.750000	0.753700
Cl31	Cl3	0.490750	0.750000	0.372050
N211	N21	0.349700	0.750000	0.710700
N221	N22	0.169900	0.750000	0.821500
C211	C21	0.297300	0.750000	0.789000
C221	C22	0.223500	0.750000	0.746300
Cl41	Cl4	0.009250	0.250000	0.872050
N231	N23	0.150300	0.250000	0.210700
N241	N24	0.330100	0.250000	0.321500
C231	C23	0.202700	0.250000	0.289000
C241	C24	0.276500	0.250000	0.246300
