data_TIDMEA_clean_PM
_symmetry_space_group_name_H-M	'P1'
_cell_length_a	11.012900
_cell_length_b	13.355400
_cell_length_c	15.843000
_cell_angle_alpha	114.929000
_cell_angle_beta	110.338000
_cell_angle_gamma	90.000000
_symmetry_Int_Tables_number 1

loop_
_symmetry_equiv_pos_as_xyz
'x,y,z'

loop_
_atom_site_label
_atom_site_type_symbol
_atom_site_fract_x
_atom_site_fract_y
_atom_site_fract_z
Pr11	Pr1	0.485300	0.068610	0.442400
Pr21	Pr2	0.042900	0.931390	0.557600
Pr31	Pr3	0.542900	0.626210	0.557600
Pr41	Pr4	0.985300	0.373790	0.442400
Pr51	Pr5	0.982100	0.000000	0.000000
Pr61	Pr6	0.482100	0.000000	0.000000
P11	P1	0.785400	0.010400	0.389000
P21	P2	0.025800	0.885900	0.178600
P31	P3	0.396400	0.989600	0.611000
P41	P4	0.847200	0.114100	0.821400
P51	P5	0.896400	0.621400	0.611000
P61	P6	0.347200	0.707300	0.821400
P71	P7	0.285400	0.378600	0.389000
P81	P8	0.525800	0.292700	0.178600
C11	C1	0.913000	0.134500	0.457200
C21	C2	0.056800	0.152800	0.476400
C31	C3	0.127600	0.024000	0.253400
C41	C4	0.222500	0.059400	0.214400
C51	C5	0.455800	0.865500	0.542800
C61	C6	0.580400	0.847200	0.523600
C71	C7	0.874200	0.976000	0.746600
C81	C8	0.008100	0.940600	0.785600
C91	C9	0.955800	0.677300	0.542800
C101	C10	0.080400	0.676400	0.523600
C111	C11	0.374200	0.770600	0.746600
C121	C12	0.508100	0.845000	0.785600
C131	C13	0.413000	0.322700	0.457200
C141	C14	0.556800	0.323600	0.476400
C151	C15	0.627600	0.229400	0.253400
C161	C16	0.722500	0.155000	0.214400
O11	O1	0.655200	0.053500	0.381600
O21	O2	0.809500	0.934000	0.441600
O31	O3	0.797200	0.944100	0.286600
O41	O4	0.844700	0.222900	0.458000
O51	O5	0.119600	0.077200	0.494200
O61	O6	0.109200	0.198400	0.438000
O71	O7	0.966100	0.865400	0.245200
O81	O8	0.117500	0.801000	0.150400
O91	O9	0.918600	0.879800	0.082600
O101	O10	0.215400	0.025600	0.344600
O111	O11	0.339100	0.085900	0.284800
O121	O12	0.217500	0.977800	0.132400
O131	O13	0.273600	0.946500	0.618400
O141	O14	0.367900	0.066000	0.558400
O151	O15	0.510600	0.055900	0.713400
O161	O16	0.386700	0.777100	0.542000
O171	O17	0.625400	0.922800	0.505800
O181	O18	0.671200	0.801600	0.562000
O191	O19	0.720900	0.134600	0.754800
O201	O20	0.967100	0.199000	0.849600
O211	O21	0.836000	0.120200	0.917400
O221	O22	0.870800	0.974400	0.655400
O231	O23	0.054300	0.914100	0.715200
O241	O24	0.085100	0.022200	0.867600
O251	O25	0.773600	0.671900	0.618400
O261	O26	0.867900	0.492400	0.558400
O271	O27	0.010600	0.657500	0.713400
O281	O28	0.886700	0.764900	0.542000
O291	O29	0.125400	0.583000	0.505800
O301	O30	0.171200	0.760400	0.562000
O311	O31	0.220900	0.620200	0.754800
O321	O32	0.467100	0.650600	0.849600
O331	O33	0.336000	0.797200	0.917400
O341	O34	0.370800	0.681000	0.655400
O351	O35	0.554300	0.801100	0.715200
O361	O36	0.585100	0.845400	0.867600
O371	O37	0.155200	0.328100	0.381600
O381	O38	0.309500	0.507600	0.441600
O391	O39	0.297200	0.342500	0.286600
O401	O40	0.344700	0.235100	0.458000
O411	O41	0.619600	0.417000	0.494200
O421	O42	0.609200	0.239600	0.438000
O431	O43	0.466100	0.379800	0.245200
O441	O44	0.617500	0.349400	0.150400
O451	O45	0.418600	0.202800	0.082600
O461	O46	0.715400	0.319000	0.344600
O471	O47	0.839100	0.198900	0.284800
O481	O48	0.717500	0.154600	0.132400
