data_TIGQUX_clean_PM
_symmetry_space_group_name_H-M	'P1'
_cell_length_a	13.238500
_cell_length_b	13.238500
_cell_length_c	46.380800
_cell_angle_alpha	90.000000
_cell_angle_beta	90.000000
_cell_angle_gamma	120.000000
_symmetry_Int_Tables_number 1

loop_
_symmetry_equiv_pos_as_xyz
'x,y,z'

loop_
_atom_site_label
_atom_site_type_symbol
_atom_site_fract_x
_atom_site_fract_y
_atom_site_fract_z
P11	P1	0.757770	0.994410	0.033630
Mg11	Mg1	0.994430	0.232910	0.033480
O11	O1	0.967700	0.321800	0.056470
O21	O2	0.895800	0.439300	0.079550
O31	O3	0.743500	0.877150	0.041780
O41	O4	0.884590	0.085920	0.037660
O51	O5	0.719300	0.992520	0.002690
O61	O6	0.679700	0.018800	0.052400
Al11	Al1	0.767090	0.761520	0.033480
P21	P2	0.424440	0.327740	0.366960
Mg21	Mg2	0.661100	0.566240	0.366810
O71	O7	0.634370	0.655130	0.389800
O81	O8	0.562470	0.772630	0.412880
O91	O9	0.410170	0.210480	0.375110
O101	O10	0.551260	0.419250	0.370990
O111	O11	0.385970	0.325850	0.336020
O121	O12	0.346370	0.352130	0.385730
Al21	Al2	0.433760	0.094850	0.366810
P31	P3	0.091100	0.661080	0.700290
Mg31	Mg3	0.327760	0.899580	0.700140
O131	O13	0.301030	0.988470	0.723140
O141	O14	0.229130	0.105970	0.746220
O151	O15	0.076830	0.543820	0.708450
O161	O16	0.217920	0.752590	0.704330
O171	O17	0.052630	0.659190	0.669360
O181	O18	0.013030	0.685470	0.719070
Al31	Al3	0.100420	0.428190	0.700140
P41	P4	0.005590	0.763360	0.033630
O191	O19	0.678200	0.645900	0.056470
O201	O20	0.560700	0.456500	0.079550
O211	O21	0.122850	0.866350	0.041780
O221	O22	0.914080	0.798670	0.037660
O231	O23	0.007480	0.726780	0.002690
O241	O24	0.981200	0.660900	0.052400
Al41	Al4	0.238480	0.005570	0.033480
P51	P5	0.672260	0.096690	0.366960
O251	O25	0.344870	0.979230	0.389800
O261	O26	0.227370	0.789830	0.412880
O271	O27	0.789520	0.199680	0.375110
O281	O28	0.580750	0.132000	0.370990
O291	O29	0.674150	0.060110	0.336020
O301	O30	0.647870	0.994230	0.385730
Al51	Al5	0.905150	0.338900	0.366810
P61	P6	0.338920	0.430030	0.700290
O311	O31	0.011530	0.312570	0.723140
O321	O32	0.894030	0.123170	0.746220
O331	O33	0.456180	0.533020	0.708450
O341	O34	0.247410	0.465340	0.704330
O351	O35	0.340810	0.393450	0.669360
O361	O36	0.314530	0.327570	0.719070
Al61	Al6	0.571810	0.672240	0.700140
P71	P7	0.236640	0.242230	0.033630
O371	O37	0.354100	0.032300	0.056470
O381	O38	0.543500	0.104200	0.079550
O391	O39	0.133650	0.256500	0.041780
O401	O40	0.201330	0.115410	0.037660
O411	O41	0.273220	0.280700	0.002690
O421	O42	0.339100	0.320300	0.052400
P81	P8	0.903310	0.575560	0.366960
O431	O43	0.020770	0.365630	0.389800
O441	O44	0.210170	0.437530	0.412880
O451	O45	0.800320	0.589830	0.375110
O461	O46	0.868000	0.448740	0.370990
O471	O47	0.939890	0.614030	0.336020
O481	O48	0.005770	0.653630	0.385730
P91	P9	0.569970	0.908900	0.700290
O491	O49	0.687430	0.698970	0.723140
O501	O50	0.876830	0.770870	0.746220
O511	O51	0.466980	0.923170	0.708450
O521	O52	0.534660	0.782080	0.704330
O531	O53	0.606550	0.947370	0.669360
O541	O54	0.672430	0.986970	0.719070
P101	P10	0.994410	0.757770	0.466370
Mg41	Mg4	0.232910	0.994430	0.466520
O551	O55	0.321800	0.967700	0.443530
O561	O56	0.439300	0.895800	0.420450
O571	O57	0.877150	0.743500	0.458220
O581	O58	0.085920	0.884590	0.462340
O591	O59	0.992520	0.719300	0.497310
O601	O60	0.018800	0.679700	0.447600
Al71	Al7	0.761520	0.767090	0.466520
P111	P11	0.661080	0.091100	0.799710
Mg51	Mg5	0.899580	0.327760	0.799860
O611	O61	0.988470	0.301030	0.776860
O621	O62	0.105970	0.229130	0.753780
O631	O63	0.543820	0.076830	0.791550
O641	O64	0.752590	0.217920	0.795670
O651	O65	0.659190	0.052630	0.830640
O661	O66	0.685470	0.013030	0.780930
Al81	Al8	0.428190	0.100420	0.799860
P121	P12	0.327740	0.424440	0.133040
Mg61	Mg6	0.566240	0.661100	0.133190
O671	O67	0.655130	0.634370	0.110200
O681	O68	0.772630	0.562470	0.087120
O691	O69	0.210480	0.410170	0.124890
O701	O70	0.419250	0.551260	0.129010
O711	O71	0.325850	0.385970	0.163980
O721	O72	0.352130	0.346370	0.114270
Al91	Al9	0.094850	0.433760	0.133190
P131	P13	0.763360	0.005590	0.466370
O731	O73	0.645900	0.678200	0.443530
O741	O74	0.456500	0.560700	0.420450
O751	O75	0.866350	0.122850	0.458220
O761	O76	0.798670	0.914080	0.462340
O771	O77	0.726780	0.007480	0.497310
O781	O78	0.660900	0.981200	0.447600
Al101	Al10	0.005570	0.238480	0.466520
P141	P14	0.430030	0.338920	0.799710
O791	O79	0.312570	0.011530	0.776860
O801	O80	0.123170	0.894030	0.753780
O811	O81	0.533020	0.456180	0.791550
O821	O82	0.465340	0.247410	0.795670
O831	O83	0.393450	0.340810	0.830640
O841	O84	0.327570	0.314530	0.780930
Al111	Al11	0.672240	0.571810	0.799860
P151	P15	0.096690	0.672260	0.133040
O851	O85	0.979230	0.344870	0.110200
O861	O86	0.789830	0.227370	0.087120
O871	O87	0.199680	0.789520	0.124890
O881	O88	0.132000	0.580750	0.129010
O891	O89	0.060110	0.674150	0.163980
O901	O90	0.994230	0.647870	0.114270
Al121	Al12	0.338900	0.905150	0.133190
P161	P16	0.242230	0.236640	0.466370
O911	O91	0.032300	0.354100	0.443530
O921	O92	0.104200	0.543500	0.420450
O931	O93	0.256500	0.133650	0.458220
O941	O94	0.115410	0.201330	0.462340
O951	O95	0.280700	0.273220	0.497310
O961	O96	0.320300	0.339100	0.447600
P171	P17	0.908900	0.569970	0.799710
O971	O97	0.698970	0.687430	0.776860
O981	O98	0.770870	0.876830	0.753780
O991	O99	0.923170	0.466980	0.791550
O1001	O100	0.782080	0.534660	0.795670
O1011	O101	0.947370	0.606550	0.830640
O1021	O102	0.986970	0.672430	0.780930
P181	P18	0.575560	0.903310	0.133040
O1031	O103	0.365630	0.020770	0.110200
O1041	O104	0.437530	0.210170	0.087120
O1051	O105	0.589830	0.800320	0.124890
O1061	O106	0.448740	0.868000	0.129010
O1071	O107	0.614030	0.939890	0.163980
O1081	O108	0.653630	0.005770	0.114270
P191	P19	0.242230	0.005590	0.966370
Mg71	Mg7	0.005570	0.767090	0.966520
O1091	O109	0.032300	0.678200	0.943530
O1101	O110	0.104200	0.560700	0.920450
O1111	O111	0.256500	0.122850	0.958220
O1121	O112	0.115410	0.914080	0.962340
O1131	O113	0.280700	0.007480	0.997310
O1141	O114	0.320300	0.981200	0.947600
Al131	Al13	0.232910	0.238480	0.966520
P201	P20	0.908900	0.338920	0.299710
Mg81	Mg8	0.672240	0.100420	0.299860
O1151	O115	0.698970	0.011530	0.276860
O1161	O116	0.770870	0.894030	0.253780
O1171	O117	0.923170	0.456180	0.291550
O1181	O118	0.782080	0.247410	0.295670
O1191	O119	0.947370	0.340810	0.330640
O1201	O120	0.986970	0.314530	0.280930
Al141	Al14	0.899580	0.571810	0.299860
P211	P21	0.575560	0.672260	0.633040
Mg91	Mg9	0.338900	0.433760	0.633190
O1211	O121	0.365630	0.344870	0.610200
O1221	O122	0.437530	0.227370	0.587120
O1231	O123	0.589830	0.789520	0.624890
O1241	O124	0.448740	0.580750	0.629010
O1251	O125	0.614030	0.674150	0.663980
O1261	O126	0.653630	0.647870	0.614270
Al151	Al15	0.566240	0.905150	0.633190
P221	P22	0.994410	0.236640	0.966370
O1271	O127	0.321800	0.354100	0.943530
O1281	O128	0.439300	0.543500	0.920450
O1291	O129	0.877150	0.133650	0.958220
O1301	O130	0.085920	0.201330	0.962340
O1311	O131	0.992520	0.273220	0.997310
O1321	O132	0.018800	0.339100	0.947600
Al161	Al16	0.761520	0.994430	0.966520
P231	P23	0.661080	0.569970	0.299710
O1331	O133	0.988470	0.687430	0.276860
O1341	O134	0.105970	0.876830	0.253780
O1351	O135	0.543820	0.466980	0.291550
O1361	O136	0.752590	0.534660	0.295670
O1371	O137	0.659190	0.606550	0.330640
O1381	O138	0.685470	0.672430	0.280930
Al171	Al17	0.428190	0.327760	0.299860
P241	P24	0.327740	0.903310	0.633040
O1391	O139	0.655130	0.020770	0.610200
O1401	O140	0.772630	0.210170	0.587120
O1411	O141	0.210480	0.800320	0.624890
O1421	O142	0.419250	0.868000	0.629010
O1431	O143	0.325850	0.939890	0.663980
O1441	O144	0.352130	0.005770	0.614270
Al181	Al18	0.094850	0.661100	0.633190
P251	P25	0.763360	0.757770	0.966370
O1451	O145	0.645900	0.967700	0.943530
O1461	O146	0.456500	0.895800	0.920450
O1471	O147	0.866350	0.743500	0.958220
O1481	O148	0.798670	0.884590	0.962340
O1491	O149	0.726780	0.719300	0.997310
O1501	O150	0.660900	0.679700	0.947600
P261	P26	0.430030	0.091100	0.299710
O1511	O151	0.312570	0.301030	0.276860
O1521	O152	0.123170	0.229130	0.253780
O1531	O153	0.533020	0.076830	0.291550
O1541	O154	0.465340	0.217920	0.295670
O1551	O155	0.393450	0.052630	0.330640
O1561	O156	0.327570	0.013030	0.280930
P271	P27	0.096690	0.424440	0.633040
O1571	O157	0.979230	0.634370	0.610200
O1581	O158	0.789830	0.562470	0.587120
O1591	O159	0.199680	0.410170	0.624890
O1601	O160	0.132000	0.551260	0.629010
O1611	O161	0.060110	0.385970	0.663980
O1621	O162	0.994230	0.346370	0.614270
P281	P28	0.005590	0.242230	0.533630
Mg101	Mg10	0.767090	0.005570	0.533480
O1631	O163	0.678200	0.032300	0.556470
O1641	O164	0.560700	0.104200	0.579550
O1651	O165	0.122850	0.256500	0.541780
O1661	O166	0.914080	0.115410	0.537660
O1671	O167	0.007480	0.280700	0.502690
O1681	O168	0.981200	0.320300	0.552400
Al191	Al19	0.238480	0.232910	0.533480
P291	P29	0.672260	0.575560	0.866960
Mg111	Mg11	0.433760	0.338900	0.866810
O1691	O169	0.344870	0.365630	0.889800
O1701	O170	0.227370	0.437530	0.912880
O1711	O171	0.789520	0.589830	0.875110
O1721	O172	0.580750	0.448740	0.870990
O1731	O173	0.674150	0.614030	0.836020
O1741	O174	0.647870	0.653630	0.885730
Al201	Al20	0.905150	0.566240	0.866810
P301	P30	0.338920	0.908900	0.200290
Mg121	Mg12	0.100420	0.672240	0.200140
O1751	O175	0.011530	0.698970	0.223140
O1761	O176	0.894030	0.770870	0.246220
O1771	O177	0.456180	0.923170	0.208450
O1781	O178	0.247410	0.782080	0.204330
O1791	O179	0.340810	0.947370	0.169360
O1801	O180	0.314530	0.986970	0.219070
Al211	Al21	0.571810	0.899580	0.200140
P311	P31	0.236640	0.994410	0.533630
O1811	O181	0.354100	0.321800	0.556470
O1821	O182	0.543500	0.439300	0.579550
O1831	O183	0.133650	0.877150	0.541780
O1841	O184	0.201330	0.085920	0.537660
O1851	O185	0.273220	0.992520	0.502690
O1861	O186	0.339100	0.018800	0.552400
Al221	Al22	0.994430	0.761520	0.533480
P321	P32	0.903310	0.327740	0.866960
O1871	O187	0.020770	0.655130	0.889800
O1881	O188	0.210170	0.772630	0.912880
O1891	O189	0.800320	0.210480	0.875110
O1901	O190	0.868000	0.419250	0.870990
O1911	O191	0.939890	0.325850	0.836020
O1921	O192	0.005770	0.352130	0.885730
Al231	Al23	0.661100	0.094850	0.866810
P331	P33	0.569970	0.661080	0.200290
O1931	O193	0.687430	0.988470	0.223140
O1941	O194	0.876830	0.105970	0.246220
O1951	O195	0.466980	0.543820	0.208450
O1961	O196	0.534660	0.752590	0.204330
O1971	O197	0.606550	0.659190	0.169360
O1981	O198	0.672430	0.685470	0.219070
Al241	Al24	0.327760	0.428190	0.200140
P341	P34	0.757770	0.763360	0.533630
O1991	O199	0.967700	0.645900	0.556470
O2001	O200	0.895800	0.456500	0.579550
O2011	O201	0.743500	0.866350	0.541780
O2021	O202	0.884590	0.798670	0.537660
O2031	O203	0.719300	0.726780	0.502690
O2041	O204	0.679700	0.660900	0.552400
P351	P35	0.424440	0.096690	0.866960
O2051	O205	0.634370	0.979230	0.889800
O2061	O206	0.562470	0.789830	0.912880
O2071	O207	0.410170	0.199680	0.875110
O2081	O208	0.551260	0.132000	0.870990
O2091	O209	0.385970	0.060110	0.836020
O2101	O210	0.346370	0.994230	0.885730
P361	P36	0.091100	0.430030	0.200290
O2111	O211	0.301030	0.312570	0.223140
O2121	O212	0.229130	0.123170	0.246220
O2131	O213	0.076830	0.533020	0.208450
O2141	O214	0.217920	0.465340	0.204330
O2151	O215	0.052630	0.393450	0.169360
O2161	O216	0.013030	0.327570	0.219070
P371	P37	0.908110	0.333330	0.083330
P381	P38	0.666670	0.574770	0.083330
P391	P39	0.333330	0.908110	0.416670
P401	P40	0.425230	0.091890	0.083330
P411	P41	0.758560	0.758560	0.750000
P421	P42	0.000000	0.241440	0.750000
P431	P43	0.574770	0.666670	0.416670
P441	P44	0.241440	0.000000	0.750000
P451	P45	0.091890	0.425230	0.416670
P461	P46	0.091890	0.666670	0.916670
P471	P47	0.758560	0.000000	0.250000
P481	P48	0.425230	0.333330	0.583330
P491	P49	0.333330	0.425230	0.916670
P501	P50	0.000000	0.758560	0.250000
P511	P51	0.574770	0.908110	0.916670
P521	P52	0.241440	0.241440	0.250000
P531	P53	0.666670	0.091890	0.583330
P541	P54	0.908110	0.574770	0.583330
Mg131	Mg13	0.666670	0.089460	0.083330
Mg141	Mg14	0.910540	0.577200	0.083330
Mg151	Mg15	0.422800	0.333330	0.083330
Mg161	Mg16	0.089460	0.666670	0.416670
Mg171	Mg17	0.756130	0.000000	0.750000
Mg181	Mg18	0.577200	0.910540	0.416670
Mg191	Mg19	0.243870	0.243870	0.750000
Mg201	Mg20	0.333330	0.422800	0.416670
Mg211	Mg21	0.000000	0.756130	0.750000
Mg221	Mg22	0.333330	0.910540	0.916670
Mg231	Mg23	0.000000	0.243870	0.250000
Mg241	Mg24	0.089460	0.422800	0.916670
Mg251	Mg25	0.756130	0.756130	0.250000
Mg261	Mg26	0.577200	0.666670	0.916670
Mg271	Mg27	0.243870	0.000000	0.250000
Mg281	Mg28	0.910540	0.333330	0.583330
Mg291	Mg29	0.422800	0.089460	0.583330
Mg301	Mg30	0.666670	0.577200	0.583330
