data_TIGQOR_clean_PM
_symmetry_space_group_name_H-M	'P1'
_cell_length_a	13.257700
_cell_length_b	13.257700
_cell_length_c	45.677000
_cell_angle_alpha	90.000000
_cell_angle_beta	90.000000
_cell_angle_gamma	120.000000
_symmetry_Int_Tables_number 1

loop_
_symmetry_equiv_pos_as_xyz
'x,y,z'

loop_
_atom_site_label
_atom_site_type_symbol
_atom_site_fract_x
_atom_site_fract_y
_atom_site_fract_z
P11	P1	0.759020	0.994240	0.034340
O11	O1	0.742900	0.877040	0.043150
O21	O2	0.885100	0.084900	0.039130
O31	O3	0.723200	0.992670	0.002800
O41	O4	0.680200	0.021100	0.052540
Mg11	Mg1	0.768610	0.762990	0.034130
O51	O5	0.678900	0.643200	0.056280
O61	O6	0.788080	0.228220	0.087580
Al11	Al1	0.994380	0.231390	0.034130
P21	P2	0.425690	0.327570	0.367670
O71	O7	0.409570	0.210370	0.376480
O81	O8	0.551770	0.418230	0.372460
O91	O9	0.389870	0.326000	0.336130
O101	O10	0.346870	0.354430	0.385870
Mg21	Mg2	0.435280	0.096320	0.367460
O111	O11	0.345570	0.976530	0.389610
O121	O12	0.454750	0.561550	0.420910
Al21	Al2	0.661050	0.564720	0.367460
P31	P3	0.092350	0.660910	0.701000
O131	O13	0.076230	0.543710	0.709820
O141	O14	0.218430	0.751570	0.705800
O151	O15	0.056530	0.659340	0.669470
O161	O16	0.013530	0.687770	0.719210
Mg31	Mg3	0.101940	0.429660	0.700790
O171	O17	0.012230	0.309870	0.722950
O181	O18	0.121410	0.894890	0.754250
Al31	Al3	0.327710	0.898060	0.700790
P41	P4	0.005760	0.764780	0.034340
O191	O19	0.122960	0.865860	0.043150
O201	O20	0.915100	0.800200	0.039130
O211	O21	0.007330	0.730530	0.002800
O221	O22	0.978900	0.659100	0.052540
Mg41	Mg4	0.237010	0.005620	0.034130
O231	O23	0.356800	0.035700	0.056280
O241	O24	0.771780	0.559860	0.087580
P51	P5	0.672430	0.098110	0.367670
O251	O25	0.789630	0.199190	0.376480
O261	O26	0.581770	0.133530	0.372460
O271	O27	0.674000	0.063860	0.336130
O281	O28	0.645570	0.992430	0.385870
Mg51	Mg5	0.903680	0.338950	0.367460
O291	O29	0.023470	0.369030	0.389610
O301	O30	0.438450	0.893190	0.420910
P61	P6	0.339090	0.431450	0.701000
O311	O31	0.456290	0.532530	0.709820
O321	O32	0.248430	0.466870	0.705800
O331	O33	0.340660	0.397200	0.669470
O341	O34	0.312230	0.325770	0.719210
Mg61	Mg6	0.570340	0.672290	0.700790
O351	O35	0.690130	0.702370	0.722950
O361	O36	0.105110	0.226530	0.754250
P71	P7	0.235220	0.240980	0.034340
O371	O37	0.134140	0.257100	0.043150
O381	O38	0.199800	0.114900	0.039130
O391	O39	0.269470	0.276800	0.002800
O401	O40	0.340900	0.319800	0.052540
O411	O41	0.964300	0.321100	0.056280
O421	O42	0.440140	0.211920	0.087580
P81	P8	0.901890	0.574310	0.367670
O431	O43	0.800810	0.590430	0.376480
O441	O44	0.866470	0.448230	0.372460
O451	O45	0.936140	0.610130	0.336130
O461	O46	0.007570	0.653130	0.385870
O471	O47	0.630970	0.654430	0.389610
O481	O48	0.106810	0.545250	0.420910
P91	P9	0.568550	0.907650	0.701000
O491	O49	0.467470	0.923770	0.709820
O501	O50	0.533130	0.781570	0.705800
O511	O51	0.602800	0.943470	0.669470
O521	O52	0.674230	0.986470	0.719210
O531	O53	0.297630	0.987770	0.722950
O541	O54	0.773470	0.878590	0.754250
P101	P10	0.994240	0.759020	0.465660
O551	O55	0.877040	0.742900	0.456850
O561	O56	0.084900	0.885100	0.460870
O571	O57	0.992670	0.723200	0.497200
O581	O58	0.021100	0.680200	0.447460
Mg71	Mg7	0.762990	0.768610	0.465870
O591	O59	0.643200	0.678900	0.443720
O601	O60	0.228220	0.788080	0.412420
Al41	Al4	0.231390	0.994380	0.465870
P111	P11	0.660910	0.092350	0.799000
O611	O61	0.543710	0.076230	0.790180
O621	O62	0.751570	0.218430	0.794200
O631	O63	0.659340	0.056530	0.830530
O641	O64	0.687770	0.013530	0.780790
Mg81	Mg8	0.429660	0.101940	0.799210
O651	O65	0.309870	0.012230	0.777050
O661	O66	0.894890	0.121410	0.745750
Al51	Al5	0.898060	0.327710	0.799210
P121	P12	0.327570	0.425690	0.132330
O671	O67	0.210370	0.409570	0.123520
O681	O68	0.418230	0.551770	0.127540
O691	O69	0.326000	0.389870	0.163870
O701	O70	0.354430	0.346870	0.114130
Mg91	Mg9	0.096320	0.435280	0.132540
O711	O71	0.976530	0.345570	0.110390
O721	O72	0.561550	0.454750	0.079090
Al61	Al6	0.564720	0.661050	0.132540
P131	P13	0.764780	0.005760	0.465660
O731	O73	0.865860	0.122960	0.456850
O741	O74	0.800200	0.915100	0.460870
O751	O75	0.730530	0.007330	0.497200
O761	O76	0.659100	0.978900	0.447460
Mg101	Mg10	0.005620	0.237010	0.465870
O771	O77	0.035700	0.356800	0.443720
O781	O78	0.559860	0.771780	0.412420
P141	P14	0.431450	0.339090	0.799000
O791	O79	0.532530	0.456290	0.790180
O801	O80	0.466870	0.248430	0.794200
O811	O81	0.397200	0.340660	0.830530
O821	O82	0.325770	0.312230	0.780790
Mg111	Mg11	0.672290	0.570340	0.799210
O831	O83	0.702370	0.690130	0.777050
O841	O84	0.226530	0.105110	0.745750
P151	P15	0.098110	0.672430	0.132330
O851	O85	0.199190	0.789630	0.123520
O861	O86	0.133530	0.581770	0.127540
O871	O87	0.063860	0.674000	0.163870
O881	O88	0.992430	0.645570	0.114130
Mg121	Mg12	0.338950	0.903680	0.132540
O891	O89	0.369030	0.023470	0.110390
O901	O90	0.893190	0.438450	0.079090
P161	P16	0.240980	0.235220	0.465660
O911	O91	0.257100	0.134140	0.456850
O921	O92	0.114900	0.199800	0.460870
O931	O93	0.276800	0.269470	0.497200
O941	O94	0.319800	0.340900	0.447460
O951	O95	0.321100	0.964300	0.443720
O961	O96	0.211920	0.440140	0.412420
P171	P17	0.907650	0.568550	0.799000
O971	O97	0.923770	0.467470	0.790180
O981	O98	0.781570	0.533130	0.794200
O991	O99	0.943470	0.602800	0.830530
O1001	O100	0.986470	0.674230	0.780790
O1011	O101	0.987770	0.297630	0.777050
O1021	O102	0.878590	0.773470	0.745750
P181	P18	0.574310	0.901890	0.132330
O1031	O103	0.590430	0.800810	0.123520
O1041	O104	0.448230	0.866470	0.127540
O1051	O105	0.610130	0.936140	0.163870
O1061	O106	0.653130	0.007570	0.114130
O1071	O107	0.654430	0.630970	0.110390
O1081	O108	0.545250	0.106810	0.079090
P191	P19	0.240980	0.005760	0.965660
O1091	O109	0.257100	0.122960	0.956850
O1101	O110	0.114900	0.915100	0.960870
O1111	O111	0.276800	0.007330	0.997200
O1121	O112	0.319800	0.978900	0.947460
Mg131	Mg13	0.231390	0.237010	0.965870
O1131	O113	0.321100	0.356800	0.943720
O1141	O114	0.211920	0.771780	0.912420
Al71	Al7	0.005620	0.768610	0.965870
P201	P20	0.907650	0.339090	0.299000
O1151	O115	0.923770	0.456290	0.290180
O1161	O116	0.781570	0.248430	0.294200
O1171	O117	0.943470	0.340660	0.330530
O1181	O118	0.986470	0.312230	0.280790
Mg141	Mg14	0.898060	0.570340	0.299210
O1191	O119	0.987770	0.690130	0.277050
O1201	O120	0.878590	0.105110	0.245750
Al81	Al8	0.672290	0.101940	0.299210
P211	P21	0.574310	0.672430	0.632330
O1211	O121	0.590430	0.789630	0.623520
O1221	O122	0.448230	0.581770	0.627540
O1231	O123	0.610130	0.674000	0.663870
O1241	O124	0.653130	0.645570	0.614130
Mg151	Mg15	0.564720	0.903680	0.632540
O1251	O125	0.654430	0.023470	0.610390
O1261	O126	0.545250	0.438450	0.579090
Al91	Al9	0.338950	0.435280	0.632540
P221	P22	0.994240	0.235220	0.965660
O1271	O127	0.877040	0.134140	0.956850
O1281	O128	0.084900	0.199800	0.960870
O1291	O129	0.992670	0.269470	0.997200
O1301	O130	0.021100	0.340900	0.947460
Mg161	Mg16	0.762990	0.994380	0.965870
O1311	O131	0.643200	0.964300	0.943720
O1321	O132	0.228220	0.440140	0.912420
P231	P23	0.660910	0.568550	0.299000
O1331	O133	0.543710	0.467470	0.290180
O1341	O134	0.751570	0.533130	0.294200
O1351	O135	0.659340	0.602800	0.330530
O1361	O136	0.687770	0.674230	0.280790
Mg171	Mg17	0.429660	0.327710	0.299210
O1371	O137	0.309870	0.297630	0.277050
O1381	O138	0.894890	0.773470	0.245750
P241	P24	0.327570	0.901890	0.632330
O1391	O139	0.210370	0.800810	0.623520
O1401	O140	0.418230	0.866470	0.627540
O1411	O141	0.326000	0.936140	0.663870
O1421	O142	0.354430	0.007570	0.614130
Mg181	Mg18	0.096320	0.661050	0.632540
O1431	O143	0.976530	0.630970	0.610390
O1441	O144	0.561550	0.106810	0.579090
P251	P25	0.764780	0.759020	0.965660
O1451	O145	0.865860	0.742900	0.956850
O1461	O146	0.800200	0.885100	0.960870
O1471	O147	0.730530	0.723200	0.997200
O1481	O148	0.659100	0.680200	0.947460
O1491	O149	0.035700	0.678900	0.943720
O1501	O150	0.559860	0.788080	0.912420
P261	P26	0.431450	0.092350	0.299000
O1511	O151	0.532530	0.076230	0.290180
O1521	O152	0.466870	0.218430	0.294200
O1531	O153	0.397200	0.056530	0.330530
O1541	O154	0.325770	0.013530	0.280790
O1551	O155	0.702370	0.012230	0.277050
O1561	O156	0.226530	0.121410	0.245750
P271	P27	0.098110	0.425690	0.632330
O1571	O157	0.199190	0.409570	0.623520
O1581	O158	0.133530	0.551770	0.627540
O1591	O159	0.063860	0.389870	0.663870
O1601	O160	0.992430	0.346870	0.614130
O1611	O161	0.369030	0.345570	0.610390
O1621	O162	0.893190	0.454750	0.579090
P281	P28	0.005760	0.240980	0.534340
O1631	O163	0.122960	0.257100	0.543150
O1641	O164	0.915100	0.114900	0.539130
O1651	O165	0.007330	0.276800	0.502800
O1661	O166	0.978900	0.319800	0.552540
Mg191	Mg19	0.237010	0.231390	0.534130
O1671	O167	0.356800	0.321100	0.556280
O1681	O168	0.771780	0.211920	0.587580
Al101	Al10	0.768610	0.005620	0.534130
P291	P29	0.672430	0.574310	0.867670
O1691	O169	0.789630	0.590430	0.876480
O1701	O170	0.581770	0.448230	0.872460
O1711	O171	0.674000	0.610130	0.836130
O1721	O172	0.645570	0.653130	0.885870
Mg201	Mg20	0.903680	0.564720	0.867460
O1731	O173	0.023470	0.654430	0.889610
O1741	O174	0.438450	0.545250	0.920910
Al111	Al11	0.435280	0.338950	0.867460
P301	P30	0.339090	0.907650	0.201000
O1751	O175	0.456290	0.923770	0.209820
O1761	O176	0.248430	0.781570	0.205800
O1771	O177	0.340660	0.943470	0.169470
O1781	O178	0.312230	0.986470	0.219210
Mg211	Mg21	0.570340	0.898060	0.200790
O1791	O179	0.690130	0.987770	0.222950
O1801	O180	0.105110	0.878590	0.254250
Al121	Al12	0.101940	0.672290	0.200790
P311	P31	0.235220	0.994240	0.534340
O1811	O181	0.134140	0.877040	0.543150
O1821	O182	0.199800	0.084900	0.539130
O1831	O183	0.269470	0.992670	0.502800
O1841	O184	0.340900	0.021100	0.552540
Mg221	Mg22	0.994380	0.762990	0.534130
O1851	O185	0.964300	0.643200	0.556280
O1861	O186	0.440140	0.228220	0.587580
P321	P32	0.901890	0.327570	0.867670
O1871	O187	0.800810	0.210370	0.876480
O1881	O188	0.866470	0.418230	0.872460
O1891	O189	0.936140	0.326000	0.836130
O1901	O190	0.007570	0.354430	0.885870
Mg231	Mg23	0.661050	0.096320	0.867460
O1911	O191	0.630970	0.976530	0.889610
O1921	O192	0.106810	0.561550	0.920910
P331	P33	0.568550	0.660910	0.201000
O1931	O193	0.467470	0.543710	0.209820
O1941	O194	0.533130	0.751570	0.205800
O1951	O195	0.602800	0.659340	0.169470
O1961	O196	0.674230	0.687770	0.219210
Mg241	Mg24	0.327710	0.429660	0.200790
O1971	O197	0.297630	0.309870	0.222950
O1981	O198	0.773470	0.894890	0.254250
P341	P34	0.759020	0.764780	0.534340
O1991	O199	0.742900	0.865860	0.543150
O2001	O200	0.885100	0.800200	0.539130
O2011	O201	0.723200	0.730530	0.502800
O2021	O202	0.680200	0.659100	0.552540
O2031	O203	0.678900	0.035700	0.556280
O2041	O204	0.788080	0.559860	0.587580
P351	P35	0.425690	0.098110	0.867670
O2051	O205	0.409570	0.199190	0.876480
O2061	O206	0.551770	0.133530	0.872460
O2071	O207	0.389870	0.063860	0.836130
O2081	O208	0.346870	0.992430	0.885870
O2091	O209	0.345570	0.369030	0.889610
O2101	O210	0.454750	0.893190	0.920910
P361	P36	0.092350	0.431450	0.201000
O2111	O211	0.076230	0.532530	0.209820
O2121	O212	0.218430	0.466870	0.205800
O2131	O213	0.056530	0.397200	0.169470
O2141	O214	0.013530	0.325770	0.219210
O2151	O215	0.012230	0.702370	0.222950
O2161	O216	0.121410	0.226530	0.254250
Mg251	Mg25	0.666670	0.091440	0.083330
Mg261	Mg26	0.908560	0.575220	0.083330
Mg271	Mg27	0.424780	0.333330	0.083330
Mg281	Mg28	0.091440	0.666670	0.416670
Mg291	Mg29	0.758110	0.000000	0.750000
Mg301	Mg30	0.575220	0.908560	0.416670
Mg311	Mg31	0.241890	0.241890	0.750000
Mg321	Mg32	0.333330	0.424780	0.416670
Mg331	Mg33	0.000000	0.758110	0.750000
Mg341	Mg34	0.333330	0.908560	0.916670
Mg351	Mg35	0.000000	0.241890	0.250000
Mg361	Mg36	0.091440	0.424780	0.916670
Mg371	Mg37	0.758110	0.758110	0.250000
Mg381	Mg38	0.575220	0.666670	0.916670
Mg391	Mg39	0.241890	0.000000	0.250000
Mg401	Mg40	0.908560	0.333330	0.583330
Mg411	Mg41	0.424780	0.091440	0.583330
Mg421	Mg42	0.666670	0.575220	0.583330
P371	P37	0.906010	0.333330	0.083330
P381	P38	0.666670	0.572670	0.083330
P391	P39	0.333330	0.906010	0.416670
P401	P40	0.427330	0.093990	0.083330
P411	P41	0.760660	0.760660	0.750000
P421	P42	0.000000	0.239340	0.750000
P431	P43	0.572670	0.666670	0.416670
P441	P44	0.239340	0.000000	0.750000
P451	P45	0.093990	0.427330	0.416670
P461	P46	0.093990	0.666670	0.916670
P471	P47	0.760660	0.000000	0.250000
P481	P48	0.427330	0.333330	0.583330
P491	P49	0.333330	0.427330	0.916670
P501	P50	0.000000	0.760660	0.250000
P511	P51	0.572670	0.906010	0.916670
P521	P52	0.239340	0.239340	0.250000
P531	P53	0.666670	0.093990	0.583330
P541	P54	0.906010	0.572670	0.583330
