data_TIGVUC_clean_PM
_symmetry_space_group_name_H-M	'P1'
_cell_length_a	22.291300
_cell_length_b	16.132400
_cell_length_c	17.390000
_cell_angle_alpha	90.000000
_cell_angle_beta	90.000000
_cell_angle_gamma	90.000000
_symmetry_Int_Tables_number 1

loop_
_symmetry_equiv_pos_as_xyz
'x,y,z'

loop_
_atom_site_label
_atom_site_type_symbol
_atom_site_fract_x
_atom_site_fract_y
_atom_site_fract_z
Zn11	Zn1	0.043370	0.033940	0.441490
Zn21	Zn2	0.196490	0.536470	0.491910
O11	O1	0.087240	0.127790	0.481210
O21	O2	0.008610	0.200790	0.442200
O31	O3	0.081360	0.487960	0.446500
O41	O4	0.155920	0.432330	0.511190
O51	O5	0.064960	0.225800	0.644350
O61	O6	0.157360	0.186500	0.672120
O71	O7	0.082420	0.927400	0.457240
O81	O8	0.164700	0.963300	0.395000
O91	O9	0.126890	0.661830	0.575950
O101	O10	0.176260	0.649250	0.465280
O111	O11	0.195000	0.781800	0.301170
O121	O12	0.291530	0.804500	0.323640
N11	N1	0.257340	0.539100	0.580700
N21	N2	0.449040	0.560400	0.736200
H11	H1	0.444200	0.605500	0.710000
N31	N3	0.575450	0.521500	0.727100
N41	N4	0.755720	0.490500	0.894700
N51	N5	0.976840	0.010800	0.520800
N61	N6	0.789500	0.996100	0.677300
N71	N7	0.661830	0.982000	0.657700
H21	H2	0.661100	0.927800	0.663000
N81	N8	0.488760	0.030900	0.833400
C11	C1	0.275670	0.609800	0.613100
H31	H3	0.259700	0.660800	0.594900
C21	C2	0.317080	0.611500	0.672300
H41	H4	0.328400	0.662800	0.694700
C31	C3	0.341820	0.538700	0.698600
C41	C4	0.322800	0.464600	0.665100
H51	H5	0.338700	0.412900	0.681600
C51	C5	0.280550	0.468300	0.607900
H61	H6	0.266900	0.417600	0.586300
C61	C6	0.386220	0.539100	0.763800
H71	H7	0.386700	0.483800	0.788500
H81	H8	0.373500	0.580100	0.802800
C71	C7	0.490110	0.565400	0.804700
H91	H9	0.489600	0.511900	0.832600
H101	H10	0.475700	0.609000	0.840300
C81	C8	0.553560	0.585000	0.779400
H111	H11	0.554300	0.639600	0.753400
H121	H12	0.580100	0.588000	0.825000
C91	C9	0.537050	0.519600	0.658200
H131	H13	0.552500	0.477700	0.621700
H141	H14	0.538300	0.574300	0.632500
C101	C10	0.472780	0.498900	0.679600
H151	H15	0.447500	0.499300	0.632700
H161	H16	0.471100	0.442600	0.702100
C111	C11	0.638270	0.537500	0.703700
H171	H17	0.642200	0.595500	0.685900
H181	H18	0.649100	0.500500	0.660400
C121	C12	0.734260	0.429100	0.850300
H191	H19	0.745200	0.373700	0.862400
C131	C13	0.697180	0.442700	0.788200
H201	H20	0.683300	0.397300	0.758400
C141	C14	0.680240	0.522700	0.769500
C151	C15	0.703800	0.586600	0.814000
H211	H21	0.694400	0.642600	0.802300
C161	C16	0.740840	0.568200	0.875300
H221	H22	0.756500	0.612600	0.905100
C171	C17	0.956300	0.933600	0.532600
H231	H23	0.970300	0.890100	0.500500
C181	C18	0.915730	0.915400	0.589500
H241	H24	0.902500	0.859900	0.596300
C191	C19	0.894070	0.976900	0.637000
C201	C20	0.915180	0.056800	0.624600
H251	H25	0.901500	0.101300	0.655800
C211	C21	0.955790	0.070900	0.567000
H261	H26	0.969800	0.125900	0.559400
C221	C22	0.847970	0.960800	0.698600
H271	H27	0.843800	0.900400	0.706500
H281	H28	0.861600	0.985800	0.747600
C231	C23	0.748580	0.988600	0.743200
H291	H29	0.766200	0.016800	0.788400
H301	H30	0.743100	0.929400	0.756200
C241	C24	0.688330	0.027000	0.724600
H311	H31	0.661300	0.022600	0.769600
H321	H32	0.693400	0.086400	0.711900
C251	C25	0.703730	0.986800	0.589900
H331	H33	0.708400	0.045300	0.573900
H341	H34	0.686600	0.955400	0.546200
C261	C26	0.764070	0.951400	0.610800
H351	H35	0.759800	0.891900	0.623600
H361	H36	0.791600	0.956200	0.566300
C271	C27	0.600790	0.012100	0.633900
H371	H37	0.584000	0.973800	0.594900
H381	H38	0.604500	0.067500	0.609900
C281	C28	0.502510	0.098300	0.791600
H391	H39	0.487800	0.150700	0.807800
C291	C29	0.537210	0.094000	0.726100
H401	H40	0.546600	0.142800	0.698000
C301	C30	0.558250	0.017200	0.701900
C311	C31	0.540720	0.947200	0.741800
H411	H41	0.552000	0.893600	0.724400
C321	C32	0.506890	0.956500	0.806700
H421	H42	0.495600	0.908200	0.834500
C331	C33	0.058510	0.196500	0.470900
C341	C34	0.092930	0.273600	0.496500
C351	C35	0.076980	0.344700	0.466800
H431	H43	0.042400	0.343500	0.434900
C361	C36	0.106100	0.428100	0.476200
C371	C37	0.142220	0.257300	0.554300
H441	H44	0.171700	0.218500	0.531600
H451	H45	0.163300	0.310000	0.565500
C381	C38	0.118800	0.221500	0.628100
C391	C39	0.134750	0.912800	0.432800
C401	C40	0.161340	0.829100	0.452200
C411	C41	0.127020	0.775400	0.488800
H461	H46	0.087500	0.792800	0.501200
C421	C42	0.144370	0.689800	0.512600
C431	C43	0.225880	0.815900	0.430500
H471	H47	0.241600	0.768500	0.460500
H481	H48	0.249000	0.865600	0.445800
C441	C44	0.237380	0.799300	0.345100
Zn31	Zn3	0.956630	0.966060	0.941490
Zn41	Zn4	0.803510	0.463530	0.991910
O131	O13	0.912760	0.872210	0.981210
O141	O14	0.991390	0.799210	0.942200
O151	O15	0.918640	0.512040	0.946500
O161	O16	0.844080	0.567670	0.011190
O171	O17	0.935040	0.774200	0.144350
O181	O18	0.842640	0.813500	0.172120
O191	O19	0.917580	0.072600	0.957240
O201	O20	0.835300	0.036700	0.895000
O211	O21	0.873110	0.338170	0.075950
O221	O22	0.823740	0.350750	0.965280
O231	O23	0.805000	0.218200	0.801170
O241	O24	0.708470	0.195500	0.823640
N91	N9	0.742660	0.460900	0.080700
N101	N10	0.550960	0.439600	0.236200
H491	H49	0.555800	0.394500	0.210000
N111	N11	0.424550	0.478500	0.227100
N121	N12	0.244280	0.509500	0.394700
N131	N13	0.023160	0.989200	0.020800
N141	N14	0.210500	0.003900	0.177300
N151	N15	0.338170	0.018000	0.157700
H501	H50	0.338900	0.072200	0.163000
N161	N16	0.511240	0.969100	0.333400
C451	C45	0.724330	0.390200	0.113100
H511	H51	0.740300	0.339200	0.094900
C461	C46	0.682920	0.388500	0.172300
H521	H52	0.671600	0.337200	0.194700
C471	C47	0.658180	0.461300	0.198600
C481	C48	0.677200	0.535400	0.165100
H531	H53	0.661300	0.587100	0.181600
C491	C49	0.719450	0.531700	0.107900
H541	H54	0.733100	0.582400	0.086300
C501	C50	0.613780	0.460900	0.263800
H551	H55	0.613300	0.516200	0.288500
H561	H56	0.626500	0.419900	0.302800
C511	C51	0.509890	0.434600	0.304700
H571	H57	0.510400	0.488100	0.332600
H581	H58	0.524300	0.391000	0.340300
C521	C52	0.446440	0.415000	0.279400
H591	H59	0.445700	0.360400	0.253400
H601	H60	0.419900	0.412000	0.325000
C531	C53	0.462950	0.480400	0.158200
H611	H61	0.447500	0.522300	0.121700
H621	H62	0.461700	0.425700	0.132500
C541	C54	0.527220	0.501100	0.179600
H631	H63	0.552500	0.500700	0.132700
H641	H64	0.528900	0.557400	0.202100
C551	C55	0.361730	0.462500	0.203700
H651	H65	0.357800	0.404500	0.185900
H661	H66	0.350900	0.499500	0.160400
C561	C56	0.265740	0.570900	0.350300
H671	H67	0.254800	0.626300	0.362400
C571	C57	0.302820	0.557300	0.288200
H681	H68	0.316700	0.602700	0.258400
C581	C58	0.319760	0.477300	0.269500
C591	C59	0.296200	0.413400	0.314000
H691	H69	0.305600	0.357400	0.302300
C601	C60	0.259160	0.431800	0.375300
H701	H70	0.243500	0.387400	0.405100
C611	C61	0.043700	0.066400	0.032600
H711	H71	0.029700	0.109900	0.000500
C621	C62	0.084270	0.084600	0.089500
H721	H72	0.097500	0.140100	0.096300
C631	C63	0.105930	0.023100	0.137000
C641	C64	0.084820	0.943200	0.124600
H731	H73	0.098500	0.898700	0.155800
C651	C65	0.044210	0.929100	0.067000
H741	H74	0.030200	0.874100	0.059400
C661	C66	0.152030	0.039200	0.198600
H751	H75	0.156200	0.099600	0.206500
H761	H76	0.138400	0.014200	0.247600
C671	C67	0.251420	0.011400	0.243200
H771	H77	0.233800	0.983200	0.288400
H781	H78	0.256900	0.070600	0.256200
C681	C68	0.311670	0.973000	0.224600
H791	H79	0.338700	0.977400	0.269600
H801	H80	0.306600	0.913600	0.211900
C691	C69	0.296270	0.013200	0.089900
H811	H81	0.291600	0.954700	0.073900
H821	H82	0.313400	0.044600	0.046200
C701	C70	0.235930	0.048600	0.110800
H831	H83	0.240200	0.108100	0.123600
H841	H84	0.208400	0.043800	0.066300
C711	C71	0.399210	0.987900	0.133900
H851	H85	0.416000	0.026200	0.094900
H861	H86	0.395500	0.932500	0.109900
C721	C72	0.497490	0.901700	0.291600
H871	H87	0.512200	0.849300	0.307800
C731	C73	0.462790	0.906000	0.226100
H881	H88	0.453400	0.857200	0.198000
C741	C74	0.441750	0.982800	0.201900
C751	C75	0.459280	0.052800	0.241800
H891	H89	0.448000	0.106400	0.224400
C761	C76	0.493110	0.043500	0.306700
H901	H90	0.504400	0.091800	0.334500
C771	C77	0.941490	0.803500	0.970900
C781	C78	0.907070	0.726400	0.996500
C791	C79	0.923020	0.655300	0.966800
H911	H91	0.957600	0.656500	0.934900
C801	C80	0.893900	0.571900	0.976200
C811	C81	0.857780	0.742700	0.054300
H921	H92	0.828300	0.781500	0.031600
H931	H93	0.836700	0.690000	0.065500
C821	C82	0.881200	0.778500	0.128100
C831	C83	0.865250	0.087200	0.932800
C841	C84	0.838660	0.170900	0.952200
C851	C85	0.872980	0.224600	0.988800
H941	H94	0.912500	0.207200	0.001200
C861	C86	0.855630	0.310200	0.012600
C871	C87	0.774120	0.184100	0.930500
H951	H95	0.758400	0.231500	0.960500
H961	H96	0.751000	0.134400	0.945800
C881	C88	0.762620	0.200700	0.845100
Zn51	Zn5	0.543370	0.966060	0.441490
Zn61	Zn6	0.696490	0.463530	0.491910
O251	O25	0.587240	0.872210	0.481210
O261	O26	0.508610	0.799210	0.442200
O271	O27	0.581360	0.512040	0.446500
O281	O28	0.655920	0.567670	0.511190
O291	O29	0.564960	0.774200	0.644350
O301	O30	0.657360	0.813500	0.672120
O311	O31	0.582420	0.072600	0.457240
O321	O32	0.664700	0.036700	0.395000
O331	O33	0.626890	0.338170	0.575950
O341	O34	0.676260	0.350750	0.465280
O351	O35	0.695000	0.218200	0.301170
O361	O36	0.791530	0.195500	0.323640
N171	N17	0.757340	0.460900	0.580700
N181	N18	0.949040	0.439600	0.736200
H971	H97	0.944200	0.394500	0.710000
N191	N19	0.075450	0.478500	0.727100
N201	N20	0.255720	0.509500	0.894700
N211	N21	0.476840	0.989200	0.520800
N221	N22	0.289500	0.003900	0.677300
N231	N23	0.161830	0.018000	0.657700
H981	H98	0.161100	0.072200	0.663000
N241	N24	0.988760	0.969100	0.833400
C891	C89	0.775670	0.390200	0.613100
H991	H99	0.759700	0.339200	0.594900
C901	C90	0.817080	0.388500	0.672300
H1001	H100	0.828400	0.337200	0.694700
C911	C91	0.841820	0.461300	0.698600
C921	C92	0.822800	0.535400	0.665100
H1011	H101	0.838700	0.587100	0.681600
C931	C93	0.780550	0.531700	0.607900
H1021	H102	0.766900	0.582400	0.586300
C941	C94	0.886220	0.460900	0.763800
H1031	H103	0.886700	0.516200	0.788500
H1041	H104	0.873500	0.419900	0.802800
C951	C95	0.990110	0.434600	0.804700
H1051	H105	0.989600	0.488100	0.832600
H1061	H106	0.975700	0.391000	0.840300
C961	C96	0.053560	0.415000	0.779400
H1071	H107	0.054300	0.360400	0.753400
H1081	H108	0.080100	0.412000	0.825000
C971	C97	0.037050	0.480400	0.658200
H1091	H109	0.052500	0.522300	0.621700
H1101	H110	0.038300	0.425700	0.632500
C981	C98	0.972780	0.501100	0.679600
H1111	H111	0.947500	0.500700	0.632700
H1121	H112	0.971100	0.557400	0.702100
C991	C99	0.138270	0.462500	0.703700
H1131	H113	0.142200	0.404500	0.685900
H1141	H114	0.149100	0.499500	0.660400
C1001	C100	0.234260	0.570900	0.850300
H1151	H115	0.245200	0.626300	0.862400
C1011	C101	0.197180	0.557300	0.788200
H1161	H116	0.183300	0.602700	0.758400
C1021	C102	0.180240	0.477300	0.769500
C1031	C103	0.203800	0.413400	0.814000
H1171	H117	0.194400	0.357400	0.802300
C1041	C104	0.240840	0.431800	0.875300
H1181	H118	0.256500	0.387400	0.905100
C1051	C105	0.456300	0.066400	0.532600
H1191	H119	0.470300	0.109900	0.500500
C1061	C106	0.415730	0.084600	0.589500
H1201	H120	0.402500	0.140100	0.596300
C1071	C107	0.394070	0.023100	0.637000
C1081	C108	0.415180	0.943200	0.624600
H1211	H121	0.401500	0.898700	0.655800
C1091	C109	0.455790	0.929100	0.567000
H1221	H122	0.469800	0.874100	0.559400
C1101	C110	0.347970	0.039200	0.698600
H1231	H123	0.343800	0.099600	0.706500
H1241	H124	0.361600	0.014200	0.747600
C1111	C111	0.248580	0.011400	0.743200
H1251	H125	0.266200	0.983200	0.788400
H1261	H126	0.243100	0.070600	0.756200
C1121	C112	0.188330	0.973000	0.724600
H1271	H127	0.161300	0.977400	0.769600
H1281	H128	0.193400	0.913600	0.711900
C1131	C113	0.203730	0.013200	0.589900
H1291	H129	0.208400	0.954700	0.573900
H1301	H130	0.186600	0.044600	0.546200
C1141	C114	0.264070	0.048600	0.610800
H1311	H131	0.259800	0.108100	0.623600
H1321	H132	0.291600	0.043800	0.566300
C1151	C115	0.100790	0.987900	0.633900
H1331	H133	0.084000	0.026200	0.594900
H1341	H134	0.104500	0.932500	0.609900
C1161	C116	0.002510	0.901700	0.791600
H1351	H135	0.987800	0.849300	0.807800
C1171	C117	0.037210	0.906000	0.726100
H1361	H136	0.046600	0.857200	0.698000
C1181	C118	0.058250	0.982800	0.701900
C1191	C119	0.040720	0.052800	0.741800
H1371	H137	0.052000	0.106400	0.724400
C1201	C120	0.006890	0.043500	0.806700
H1381	H138	0.995600	0.091800	0.834500
C1211	C121	0.558510	0.803500	0.470900
C1221	C122	0.592930	0.726400	0.496500
C1231	C123	0.576980	0.655300	0.466800
H1391	H139	0.542400	0.656500	0.434900
C1241	C124	0.606100	0.571900	0.476200
C1251	C125	0.642220	0.742700	0.554300
H1401	H140	0.671700	0.781500	0.531600
H1411	H141	0.663300	0.690000	0.565500
C1261	C126	0.618800	0.778500	0.628100
C1271	C127	0.634750	0.087200	0.432800
C1281	C128	0.661340	0.170900	0.452200
C1291	C129	0.627020	0.224600	0.488800
H1421	H142	0.587500	0.207200	0.501200
C1301	C130	0.644370	0.310200	0.512600
C1311	C131	0.725880	0.184100	0.430500
H1431	H143	0.741600	0.231500	0.460500
H1441	H144	0.749000	0.134400	0.445800
C1321	C132	0.737380	0.200700	0.345100
Zn71	Zn7	0.456630	0.033940	0.941490
Zn81	Zn8	0.303510	0.536470	0.991910
O371	O37	0.412760	0.127790	0.981210
O381	O38	0.491390	0.200790	0.942200
O391	O39	0.418640	0.487960	0.946500
O401	O40	0.344080	0.432330	0.011190
O411	O41	0.435040	0.225800	0.144350
O421	O42	0.342640	0.186500	0.172120
O431	O43	0.417580	0.927400	0.957240
O441	O44	0.335300	0.963300	0.895000
O451	O45	0.373110	0.661830	0.075950
O461	O46	0.323740	0.649250	0.965280
O471	O47	0.305000	0.781800	0.801170
O481	O48	0.208470	0.804500	0.823640
N251	N25	0.242660	0.539100	0.080700
N261	N26	0.050960	0.560400	0.236200
H1451	H145	0.055800	0.605500	0.210000
N271	N27	0.924550	0.521500	0.227100
N281	N28	0.744280	0.490500	0.394700
N291	N29	0.523160	0.010800	0.020800
N301	N30	0.710500	0.996100	0.177300
N311	N31	0.838170	0.982000	0.157700
H1461	H146	0.838900	0.927800	0.163000
N321	N32	0.011240	0.030900	0.333400
C1331	C133	0.224330	0.609800	0.113100
H1471	H147	0.240300	0.660800	0.094900
C1341	C134	0.182920	0.611500	0.172300
H1481	H148	0.171600	0.662800	0.194700
C1351	C135	0.158180	0.538700	0.198600
C1361	C136	0.177200	0.464600	0.165100
H1491	H149	0.161300	0.412900	0.181600
C1371	C137	0.219450	0.468300	0.107900
H1501	H150	0.233100	0.417600	0.086300
C1381	C138	0.113780	0.539100	0.263800
H1511	H151	0.113300	0.483800	0.288500
H1521	H152	0.126500	0.580100	0.302800
C1391	C139	0.009890	0.565400	0.304700
H1531	H153	0.010400	0.511900	0.332600
H1541	H154	0.024300	0.609000	0.340300
C1401	C140	0.946440	0.585000	0.279400
H1551	H155	0.945700	0.639600	0.253400
H1561	H156	0.919900	0.588000	0.325000
C1411	C141	0.962950	0.519600	0.158200
H1571	H157	0.947500	0.477700	0.121700
H1581	H158	0.961700	0.574300	0.132500
C1421	C142	0.027220	0.498900	0.179600
H1591	H159	0.052500	0.499300	0.132700
H1601	H160	0.028900	0.442600	0.202100
C1431	C143	0.861730	0.537500	0.203700
H1611	H161	0.857800	0.595500	0.185900
H1621	H162	0.850900	0.500500	0.160400
C1441	C144	0.765740	0.429100	0.350300
H1631	H163	0.754800	0.373700	0.362400
C1451	C145	0.802820	0.442700	0.288200
H1641	H164	0.816700	0.397300	0.258400
C1461	C146	0.819760	0.522700	0.269500
C1471	C147	0.796200	0.586600	0.314000
H1651	H165	0.805600	0.642600	0.302300
C1481	C148	0.759160	0.568200	0.375300
H1661	H166	0.743500	0.612600	0.405100
C1491	C149	0.543700	0.933600	0.032600
H1671	H167	0.529700	0.890100	0.000500
C1501	C150	0.584270	0.915400	0.089500
H1681	H168	0.597500	0.859900	0.096300
C1511	C151	0.605930	0.976900	0.137000
C1521	C152	0.584820	0.056800	0.124600
H1691	H169	0.598500	0.101300	0.155800
C1531	C153	0.544210	0.070900	0.067000
H1701	H170	0.530200	0.125900	0.059400
C1541	C154	0.652030	0.960800	0.198600
H1711	H171	0.656200	0.900400	0.206500
H1721	H172	0.638400	0.985800	0.247600
C1551	C155	0.751420	0.988600	0.243200
H1731	H173	0.733800	0.016800	0.288400
H1741	H174	0.756900	0.929400	0.256200
C1561	C156	0.811670	0.027000	0.224600
H1751	H175	0.838700	0.022600	0.269600
H1761	H176	0.806600	0.086400	0.211900
C1571	C157	0.796270	0.986800	0.089900
H1771	H177	0.791600	0.045300	0.073900
H1781	H178	0.813400	0.955400	0.046200
C1581	C158	0.735930	0.951400	0.110800
H1791	H179	0.740200	0.891900	0.123600
H1801	H180	0.708400	0.956200	0.066300
C1591	C159	0.899210	0.012100	0.133900
H1811	H181	0.916000	0.973800	0.094900
H1821	H182	0.895500	0.067500	0.109900
C1601	C160	0.997490	0.098300	0.291600
H1831	H183	0.012200	0.150700	0.307800
C1611	C161	0.962790	0.094000	0.226100
H1841	H184	0.953400	0.142800	0.198000
C1621	C162	0.941750	0.017200	0.201900
C1631	C163	0.959280	0.947200	0.241800
H1851	H185	0.948000	0.893600	0.224400
C1641	C164	0.993110	0.956500	0.306700
H1861	H186	0.004400	0.908200	0.334500
C1651	C165	0.441490	0.196500	0.970900
C1661	C166	0.407070	0.273600	0.996500
C1671	C167	0.423020	0.344700	0.966800
H1871	H187	0.457600	0.343500	0.934900
C1681	C168	0.393900	0.428100	0.976200
C1691	C169	0.357780	0.257300	0.054300
H1881	H188	0.328300	0.218500	0.031600
H1891	H189	0.336700	0.310000	0.065500
C1701	C170	0.381200	0.221500	0.128100
C1711	C171	0.365250	0.912800	0.932800
C1721	C172	0.338660	0.829100	0.952200
C1731	C173	0.372980	0.775400	0.988800
H1901	H190	0.412500	0.792800	0.001200
C1741	C174	0.355630	0.689800	0.012600
C1751	C175	0.274120	0.815900	0.930500
H1911	H191	0.258400	0.768500	0.960500
H1921	H192	0.251000	0.865600	0.945800
C1761	C176	0.262620	0.799300	0.845100
