data_TIKMUW_clean_PM
_symmetry_space_group_name_H-M	'P1'
_cell_length_a	10.448300
_cell_length_b	15.028200
_cell_length_c	16.775000
_cell_angle_alpha	65.385000
_cell_angle_beta	83.952000
_cell_angle_gamma	73.595000
_symmetry_Int_Tables_number 1

loop_
_symmetry_equiv_pos_as_xyz
'x,y,z'

loop_
_atom_site_label
_atom_site_type_symbol
_atom_site_fract_x
_atom_site_fract_y
_atom_site_fract_z
Pr11	Pr1	0.293610	0.254900	0.211780
Pr21	Pr2	0.221900	0.508780	0.628720
Pr31	Pr3	0.706390	0.745100	0.788220
Pr41	Pr4	0.778100	0.491220	0.371280
H11	H1	0.688400	0.944900	0.851600
H21	H2	0.972100	0.927900	0.901100
H31	H3	0.834500	0.951200	0.702400
H41	H4	0.330600	0.166500	0.890500
H51	H5	0.648700	0.185800	0.996100
H61	H6	0.865500	0.070300	0.004400
H71	H7	0.880800	0.977000	0.978000
H81	H8	0.860200	0.242100	0.880400
H91	H9	0.068200	0.245100	0.661900
H101	H10	0.139500	0.978700	0.718100
H111	H11	0.198500	0.073900	0.662100
H121	H12	0.124400	0.176000	0.512900
H131	H13	0.808200	0.142600	0.416500
H141	H14	0.751900	0.937800	0.598900
H151	H15	0.692800	0.018900	0.504000
H161	H16	0.534600	0.182400	0.490300
H171	H17	0.324200	0.197000	0.703600
H181	H18	0.349900	0.036700	0.838200
H191	H19	0.486500	0.949300	0.854300
H201	H20	0.311600	0.055100	0.148400
H211	H21	0.027900	0.072100	0.098900
H221	H22	0.165500	0.048800	0.297600
H231	H23	0.669400	0.833500	0.109500
H241	H24	0.351300	0.814200	0.003900
H251	H25	0.134500	0.929700	0.995600
H261	H26	0.119200	0.023000	0.022000
H271	H27	0.139800	0.757900	0.119600
H281	H28	0.931800	0.754900	0.338100
H291	H29	0.860500	0.021300	0.281900
H301	H30	0.801500	0.926100	0.337900
H311	H31	0.875600	0.824000	0.487100
H321	H32	0.191800	0.857400	0.583500
H331	H33	0.248100	0.062200	0.401100
H341	H34	0.307200	0.981100	0.496000
H351	H35	0.465400	0.817600	0.509700
H361	H36	0.675800	0.803000	0.296400
H371	H37	0.650100	0.963300	0.161800
H381	H38	0.513500	0.050700	0.145700
C11	C1	0.505300	0.069300	0.878870
C21	C2	0.423600	0.144600	0.903160
C31	C3	0.477700	0.188100	0.945950
C41	C4	0.613400	0.156500	0.965930
C51	C5	0.697300	0.082200	0.941860
C61	C6	0.642200	0.038810	0.898390
C71	C7	0.846700	0.051500	0.957740
C81	C8	0.918300	0.103200	0.874650
C91	C9	0.907100	0.206800	0.846070
C101	C10	0.964200	0.258400	0.767790
C111	C11	0.031400	0.208600	0.715920
C121	C12	0.045100	0.105300	0.742820
C131	C13	0.989700	0.053200	0.823440
C141	C14	0.115200	0.053100	0.683750
C151	C15	0.028000	0.079300	0.606440
C161	C16	0.051800	0.146400	0.522580
C171	C17	0.968000	0.169900	0.452840
C181	C18	0.863000	0.126200	0.465060
C191	C19	0.837300	0.058700	0.547850
C201	C20	0.920100	0.036900	0.617920
C211	C21	0.721700	0.011200	0.561370
C221	C22	0.604900	0.060270	0.603880
C231	C23	0.521200	0.153600	0.551730
C241	C24	0.418100	0.205000	0.589140
C251	C25	0.395200	0.161900	0.678600
C261	C26	0.475400	0.067200	0.732150
C271	C27	0.583000	0.016170	0.695180
C281	C28	0.447600	0.023700	0.829560
C291	C29	0.494700	0.930700	0.121130
C301	C30	0.576400	0.855400	0.096840
C311	C31	0.522300	0.811900	0.054050
C321	C32	0.386600	0.843500	0.034070
C331	C33	0.302700	0.917800	0.058140
C341	C34	0.357800	0.961190	0.101610
C351	C35	0.153300	0.948500	0.042260
C361	C36	0.081700	0.896800	0.125350
C371	C37	0.092900	0.793200	0.153930
C381	C38	0.035800	0.741600	0.232210
C391	C39	0.968600	0.791400	0.284080
C401	C40	0.954900	0.894700	0.257180
C411	C41	0.010300	0.946800	0.176560
C421	C42	0.884800	0.946900	0.316250
C431	C43	0.972000	0.920700	0.393560
C441	C44	0.948200	0.853600	0.477420
C451	C45	0.032000	0.830100	0.547160
C461	C46	0.137000	0.873800	0.534940
C471	C47	0.162700	0.941300	0.452150
C481	C48	0.079900	0.963100	0.382080
C491	C49	0.278300	0.988800	0.438630
C501	C50	0.395100	0.939730	0.396120
C511	C51	0.478800	0.846400	0.448270
C521	C52	0.581900	0.795000	0.410860
C531	C53	0.604800	0.838100	0.321400
C541	C54	0.524600	0.932800	0.267850
C551	C55	0.417000	0.983830	0.304820
C561	C56	0.552400	0.976300	0.170440
S11	S1	0.377070	0.282810	0.977770
S21	S2	0.947290	0.389710	0.730510
S31	S3	0.992530	0.259360	0.348090
S41	S4	0.320420	0.325490	0.520700
S51	S5	0.622930	0.717190	0.022230
S61	S6	0.052710	0.610290	0.269490
S71	S7	0.007470	0.740640	0.651910
S81	S8	0.679580	0.674510	0.479300
N11	N1	0.553700	0.149810	0.306780
N21	N2	0.446300	0.850190	0.693220
O11	O1	0.355500	0.235890	0.072670
O21	O2	0.449500	0.359950	0.956530
O31	O3	0.250800	0.322070	0.929130
O41	O4	0.729400	0.966090	0.877460
O51	O5	0.083200	0.401290	0.725050
O61	O6	0.881300	0.438120	0.645140
O71	O7	0.868500	0.421040	0.796020
O81	O8	0.008680	0.950020	0.852340
O91	O9	0.135850	0.230850	0.330690
O101	O10	0.910100	0.255760	0.285620
O111	O11	0.956800	0.358510	0.353120
O121	O12	0.900700	0.972850	0.701550
O131	O13	0.413000	0.381300	0.465210
O141	O14	0.228200	0.312060	0.469900
O151	O15	0.248400	0.371660	0.579980
O161	O16	0.667940	0.928140	0.746640
O171	O17	0.448000	0.154110	0.349440
O181	O18	0.541600	0.185940	0.222490
O191	O19	0.663400	0.114300	0.341510
O201	O20	0.644500	0.764110	0.927330
O211	O21	0.550500	0.640050	0.043470
O221	O22	0.749200	0.677930	0.070870
O231	O23	0.270600	0.033910	0.122540
O241	O24	0.916800	0.598710	0.274950
O251	O25	0.118700	0.561880	0.354860
O261	O26	0.131500	0.578960	0.203980
O271	O27	0.991320	0.049980	0.147660
O281	O28	0.864150	0.769150	0.669310
O291	O29	0.089900	0.744240	0.714380
O301	O30	0.043200	0.641490	0.646880
O311	O31	0.099300	0.027150	0.298450
O321	O32	0.587000	0.618700	0.534790
O331	O33	0.771800	0.687940	0.530100
O341	O34	0.751600	0.628340	0.420020
O351	O35	0.332060	0.071860	0.253360
O361	O36	0.552000	0.845890	0.650560
O371	O37	0.458400	0.814060	0.777510
O381	O38	0.336600	0.885700	0.658490
