data_TILHAY_clean_PM
_symmetry_space_group_name_H-M	'P1'
_cell_length_a	14.736600
_cell_length_b	13.598500
_cell_length_c	11.336900
_cell_angle_alpha	90.000000
_cell_angle_beta	113.141000
_cell_angle_gamma	90.000000
_symmetry_Int_Tables_number 1

loop_
_symmetry_equiv_pos_as_xyz
'x,y,z'

loop_
_atom_site_label
_atom_site_type_symbol
_atom_site_fract_x
_atom_site_fract_y
_atom_site_fract_z
C11	C1	0.346900	0.484700	0.154300
C21	C2	0.260300	0.423500	0.070300
C31	C3	0.212700	0.362500	0.125900
H11	H1	0.233100	0.361500	0.214600
C41	C4	0.134900	0.303000	0.050700
C51	C5	0.085100	0.234900	0.111500
C61	C6	0.103900	0.306000	0.918000
H21	H2	0.052200	0.266000	0.866700
C71	C7	0.228100	0.426900	0.937500
H31	H3	0.259000	0.468100	0.899400
C81	C8	0.149600	0.368400	0.862300
H41	H4	0.127600	0.371200	0.773400
O11	O1	0.385300	0.541200	0.096000
O21	O2	0.376700	0.481000	0.273000
O31	O3	0.024900	0.173000	0.044600
O41	O4	0.105300	0.243300	0.229300
C91	C9	0.846900	0.984700	0.154300
C101	C10	0.760300	0.923500	0.070300
C111	C11	0.712700	0.862500	0.125900
H51	H5	0.733100	0.861500	0.214600
C121	C12	0.634900	0.803000	0.050700
C131	C13	0.585100	0.734900	0.111500
C141	C14	0.603900	0.806000	0.918000
H61	H6	0.552200	0.766000	0.866700
C151	C15	0.728100	0.926900	0.937500
H71	H7	0.759000	0.968100	0.899400
C161	C16	0.649600	0.868400	0.862300
H81	H8	0.627600	0.871200	0.773400
O51	O5	0.885300	0.041200	0.096000
O61	O6	0.876700	0.981000	0.273000
O71	O7	0.524900	0.673000	0.044600
O81	O8	0.605300	0.743300	0.229300
C171	C17	0.653100	0.484700	0.345700
C181	C18	0.739700	0.423500	0.429700
C191	C19	0.787300	0.362500	0.374100
H91	H9	0.766900	0.361500	0.285400
C201	C20	0.865100	0.303000	0.449300
C211	C21	0.914900	0.234900	0.388500
C221	C22	0.896100	0.306000	0.582000
H101	H10	0.947800	0.266000	0.633300
C231	C23	0.771900	0.426900	0.562500
H111	H11	0.741000	0.468100	0.600600
C241	C24	0.850400	0.368400	0.637700
H121	H12	0.872400	0.371200	0.726600
O91	O9	0.614700	0.541200	0.404000
O101	O10	0.623300	0.481000	0.227000
O111	O11	0.975100	0.173000	0.455400
O121	O12	0.894700	0.243300	0.270700
C251	C25	0.153100	0.984700	0.345700
C261	C26	0.239700	0.923500	0.429700
C271	C27	0.287300	0.862500	0.374100
H131	H13	0.266900	0.861500	0.285400
C281	C28	0.365100	0.803000	0.449300
C291	C29	0.414900	0.734900	0.388500
C301	C30	0.396100	0.806000	0.582000
H141	H14	0.447800	0.766000	0.633300
C311	C31	0.271900	0.926900	0.562500
H151	H15	0.241000	0.968100	0.600600
C321	C32	0.350400	0.868400	0.637700
H161	H16	0.372400	0.871200	0.726600
O131	O13	0.114700	0.041200	0.404000
O141	O14	0.123300	0.981000	0.227000
O151	O15	0.475100	0.673000	0.455400
O161	O16	0.394700	0.743300	0.270700
C331	C33	0.653100	0.515300	0.845700
C341	C34	0.739700	0.576500	0.929700
C351	C35	0.787300	0.637500	0.874100
H171	H17	0.766900	0.638500	0.785400
C361	C36	0.865100	0.697000	0.949300
C371	C37	0.914900	0.765100	0.888500
C381	C38	0.896100	0.694000	0.082000
H181	H18	0.947800	0.734000	0.133300
C391	C39	0.771900	0.573100	0.062500
H191	H19	0.741000	0.531900	0.100600
C401	C40	0.850400	0.631600	0.137700
H201	H20	0.872400	0.628800	0.226600
O171	O17	0.614700	0.458800	0.904000
O181	O18	0.623300	0.519000	0.727000
O191	O19	0.975100	0.827000	0.955400
O201	O20	0.894700	0.756700	0.770700
C411	C41	0.153100	0.015300	0.845700
C421	C42	0.239700	0.076500	0.929700
C431	C43	0.287300	0.137500	0.874100
H211	H21	0.266900	0.138500	0.785400
C441	C44	0.365100	0.197000	0.949300
C451	C45	0.414900	0.265100	0.888500
C461	C46	0.396100	0.194000	0.082000
H221	H22	0.447800	0.234000	0.133300
C471	C47	0.271900	0.073100	0.062500
H231	H23	0.241000	0.031900	0.100600
C481	C48	0.350400	0.131600	0.137700
H241	H24	0.372400	0.128800	0.226600
O211	O21	0.114700	0.958800	0.904000
O221	O22	0.123300	0.019000	0.727000
O231	O23	0.475100	0.327000	0.955400
O241	O24	0.394700	0.256700	0.770700
C491	C49	0.346900	0.515300	0.654300
C501	C50	0.260300	0.576500	0.570300
C511	C51	0.212700	0.637500	0.625900
H251	H25	0.233100	0.638500	0.714600
C521	C52	0.134900	0.697000	0.550700
C531	C53	0.085100	0.765100	0.611500
C541	C54	0.103900	0.694000	0.418000
H261	H26	0.052200	0.734000	0.366700
C551	C55	0.228100	0.573100	0.437500
H271	H27	0.259000	0.531900	0.399400
C561	C56	0.149600	0.631600	0.362300
H281	H28	0.127600	0.628800	0.273400
O251	O25	0.385300	0.458800	0.596000
O261	O26	0.376700	0.519000	0.773000
O271	O27	0.024900	0.827000	0.544600
O281	O28	0.105300	0.756700	0.729300
C571	C57	0.846900	0.015300	0.654300
C581	C58	0.760300	0.076500	0.570300
C591	C59	0.712700	0.137500	0.625900
H291	H29	0.733100	0.138500	0.714600
C601	C60	0.634900	0.197000	0.550700
C611	C61	0.585100	0.265100	0.611500
C621	C62	0.603900	0.194000	0.418000
H301	H30	0.552200	0.234000	0.366700
C631	C63	0.728100	0.073100	0.437500
H311	H31	0.759000	0.031900	0.399400
C641	C64	0.649600	0.131600	0.362300
H321	H32	0.627600	0.128800	0.273400
O291	O29	0.885300	0.958800	0.596000
O301	O30	0.876700	0.019000	0.773000
O311	O31	0.524900	0.327000	0.544600
O321	O32	0.605300	0.256700	0.729300
Na11	Na1	0.500000	0.500000	0.000000
Na21	Na2	0.000000	0.000000	0.000000
Na31	Na3	0.500000	0.500000	0.500000
Na41	Na4	0.000000	0.000000	0.500000
Cd11	Cd1	0.500000	0.627670	0.250000
Cd21	Cd2	0.000000	0.127670	0.250000
Cd31	Cd3	0.500000	0.372330	0.750000
Cd41	Cd4	0.000000	0.872330	0.750000
