data_TILHAZ_clean_PM
_symmetry_space_group_name_H-M	'P1'
_cell_length_a	28.365000
_cell_length_b	28.365000
_cell_length_c	13.361000
_cell_angle_alpha	90.000000
_cell_angle_beta	90.000000
_cell_angle_gamma	90.000000
_symmetry_Int_Tables_number 1

loop_
_symmetry_equiv_pos_as_xyz
'x,y,z'

loop_
_atom_site_label
_atom_site_type_symbol
_atom_site_fract_x
_atom_site_fract_y
_atom_site_fract_z
Co11	Co1	0.858170	0.993610	0.594780
Co21	Co2	0.813240	0.095660	0.616920
O11	O1	0.822150	0.041680	0.506800
O21	O2	0.836150	0.007910	0.359500
O31	O3	0.697290	0.052630	0.110300
O41	O4	0.714950	0.075560	0.955400
C11	C1	0.818590	0.040290	0.411600
C21	C2	0.792000	0.079240	0.360700
H11	H1	0.808900	0.109300	0.372400
H21	H2	0.760500	0.082000	0.392200
C31	C3	0.785570	0.072680	0.249000
H31	H3	0.767000	0.043700	0.236600
H41	H4	0.816800	0.068700	0.217100
C41	C4	0.760560	0.114520	0.202600
H51	H5	0.777800	0.143700	0.220500
H61	H6	0.728500	0.116900	0.231300
C51	C5	0.756750	0.111300	0.089200
H71	H7	0.749000	0.143000	0.062800
H81	H8	0.788000	0.102400	0.062100
C61	C6	0.720640	0.076700	0.050000
O51	O5	0.883820	0.105920	0.612000
O61	O6	0.917490	0.034420	0.603200
O71	O7	0.110240	0.055500	0.507000
O81	O8	0.100100	0.065330	0.345500
C71	C7	0.918550	0.078700	0.613100
C81	C8	0.965990	0.101690	0.626000
H91	H9	0.982800	0.086200	0.682000
H101	H10	0.961300	0.135200	0.644200
C91	C9	0.996710	0.099020	0.532000
H111	H11	0.006200	0.065900	0.520200
H121	H12	0.978300	0.109700	0.473400
C101	C10	0.040470	0.129570	0.543000
H131	H13	0.058500	0.118900	0.602300
H141	H14	0.030700	0.162600	0.554800
C111	C11	0.072510	0.127880	0.451300
H151	H15	0.053900	0.136900	0.391700
H161	H16	0.097800	0.151600	0.459700
C121	C12	0.094890	0.080440	0.432200
Co31	Co3	0.358170	0.493610	0.094780
Co41	Co4	0.313240	0.595660	0.116920
O91	O9	0.322150	0.541680	0.006800
O101	O10	0.336150	0.507910	0.859500
O111	O11	0.197290	0.552630	0.610300
O121	O12	0.214950	0.575560	0.455400
C131	C13	0.318590	0.540290	0.911600
C141	C14	0.292000	0.579240	0.860700
H171	H17	0.308900	0.609300	0.872400
H181	H18	0.260500	0.582000	0.892200
C151	C15	0.285570	0.572680	0.749000
H191	H19	0.267000	0.543700	0.736600
H201	H20	0.316800	0.568700	0.717100
C161	C16	0.260560	0.614520	0.702600
H211	H21	0.277800	0.643700	0.720500
H221	H22	0.228500	0.616900	0.731300
C171	C17	0.256750	0.611300	0.589200
H231	H23	0.249000	0.643000	0.562800
H241	H24	0.288000	0.602400	0.562100
C181	C18	0.220640	0.576700	0.550000
O131	O13	0.383820	0.605920	0.112000
O141	O14	0.417490	0.534420	0.103200
O151	O15	0.610240	0.555500	0.007000
O161	O16	0.600100	0.565330	0.845500
C191	C19	0.418550	0.578700	0.113100
C201	C20	0.465990	0.601690	0.126000
H251	H25	0.482800	0.586200	0.182000
H261	H26	0.461300	0.635200	0.144200
C211	C21	0.496710	0.599020	0.032000
H271	H27	0.506200	0.565900	0.020200
H281	H28	0.478300	0.609700	0.973400
C221	C22	0.540470	0.629570	0.043000
H291	H29	0.558500	0.618900	0.102300
H301	H30	0.530700	0.662600	0.054800
C231	C23	0.572510	0.627880	0.951300
H311	H31	0.553900	0.636900	0.891700
H321	H32	0.597800	0.651600	0.959700
C241	C24	0.594890	0.580440	0.932200
Co51	Co5	0.641830	0.006390	0.094780
Co61	Co6	0.686760	0.904340	0.116920
O171	O17	0.677850	0.958320	0.006800
O181	O18	0.663850	0.992090	0.859500
O191	O19	0.802710	0.947370	0.610300
O201	O20	0.785050	0.924440	0.455400
C251	C25	0.681410	0.959710	0.911600
C261	C26	0.708000	0.920760	0.860700
H331	H33	0.691100	0.890700	0.872400
H341	H34	0.739500	0.918000	0.892200
C271	C27	0.714430	0.927320	0.749000
H351	H35	0.733000	0.956300	0.736600
H361	H36	0.683200	0.931300	0.717100
C281	C28	0.739440	0.885480	0.702600
H371	H37	0.722200	0.856300	0.720500
H381	H38	0.771500	0.883100	0.731300
C291	C29	0.743250	0.888700	0.589200
H391	H39	0.751000	0.857000	0.562800
H401	H40	0.712000	0.897600	0.562100
C301	C30	0.779360	0.923300	0.550000
O211	O21	0.616180	0.894080	0.112000
O221	O22	0.582510	0.965580	0.103200
O231	O23	0.389760	0.944500	0.007000
O241	O24	0.399900	0.934670	0.845500
C311	C31	0.581450	0.921300	0.113100
C321	C32	0.534010	0.898310	0.126000
H411	H41	0.517200	0.913800	0.182000
H421	H42	0.538700	0.864800	0.144200
C331	C33	0.503290	0.900980	0.032000
H431	H43	0.493800	0.934100	0.020200
H441	H44	0.521700	0.890300	0.973400
C341	C34	0.459530	0.870430	0.043000
H451	H45	0.441500	0.881100	0.102300
H461	H46	0.469300	0.837400	0.054800
C351	C35	0.427490	0.872120	0.951300
H471	H47	0.446100	0.863100	0.891700
H481	H48	0.402200	0.848400	0.959700
C361	C36	0.405110	0.919560	0.932200
Co71	Co7	0.141830	0.506390	0.594780
Co81	Co8	0.186760	0.404340	0.616920
O251	O25	0.177850	0.458320	0.506800
O261	O26	0.163850	0.492090	0.359500
O271	O27	0.302710	0.447370	0.110300
O281	O28	0.285050	0.424440	0.955400
C371	C37	0.181410	0.459710	0.411600
C381	C38	0.208000	0.420760	0.360700
H491	H49	0.191100	0.390700	0.372400
H501	H50	0.239500	0.418000	0.392200
C391	C39	0.214430	0.427320	0.249000
H511	H51	0.233000	0.456300	0.236600
H521	H52	0.183200	0.431300	0.217100
C401	C40	0.239440	0.385480	0.202600
H531	H53	0.222200	0.356300	0.220500
H541	H54	0.271500	0.383100	0.231300
C411	C41	0.243250	0.388700	0.089200
H551	H55	0.251000	0.357000	0.062800
H561	H56	0.212000	0.397600	0.062100
C421	C42	0.279360	0.423300	0.050000
O291	O29	0.116180	0.394080	0.612000
O301	O30	0.082510	0.465580	0.603200
O311	O31	0.889760	0.444500	0.507000
O321	O32	0.899900	0.434670	0.345500
C431	C43	0.081450	0.421300	0.613100
C441	C44	0.034010	0.398310	0.626000
H571	H57	0.017200	0.413800	0.682000
H581	H58	0.038700	0.364800	0.644200
C451	C45	0.003290	0.400980	0.532000
H591	H59	0.993800	0.434100	0.520200
H601	H60	0.021700	0.390300	0.473400
C461	C46	0.959530	0.370430	0.543000
H611	H61	0.941500	0.381100	0.602300
H621	H62	0.969300	0.337400	0.554800
C471	C47	0.927490	0.372120	0.451300
H631	H63	0.946100	0.363100	0.391700
H641	H64	0.902200	0.348400	0.459700
C481	C48	0.905110	0.419560	0.432200
Co91	Co9	0.756390	0.108170	0.844780
Co101	Co10	0.654340	0.063240	0.866920
O331	O33	0.708320	0.072150	0.756800
O341	O34	0.742090	0.086150	0.609500
O351	O35	0.697370	0.947290	0.360300
O361	O36	0.674440	0.964950	0.205400
C491	C49	0.709710	0.068590	0.661600
C501	C50	0.670760	0.042000	0.610700
H651	H65	0.640700	0.058900	0.622400
H661	H66	0.668000	0.010500	0.642200
C511	C51	0.677320	0.035570	0.499000
H671	H67	0.706300	0.017000	0.486600
H681	H68	0.681300	0.066800	0.467100
C521	C52	0.635480	0.010560	0.452600
H691	H69	0.606300	0.027800	0.470500
H701	H70	0.633100	0.978500	0.481300
C531	C53	0.638700	0.006750	0.339200
H711	H71	0.607000	0.999000	0.312800
H721	H72	0.647600	0.038000	0.312100
C541	C54	0.673300	0.970640	0.300000
O371	O37	0.644080	0.133820	0.862000
O381	O38	0.715580	0.167490	0.853200
O391	O39	0.694500	0.360240	0.757000
O401	O40	0.684670	0.350100	0.595500
C551	C55	0.671300	0.168550	0.863100
C561	C56	0.648310	0.215990	0.876000
H731	H73	0.663800	0.232800	0.932000
H741	H74	0.614800	0.211300	0.894200
C571	C57	0.650980	0.246710	0.782000
H751	H75	0.684100	0.256200	0.770200
H761	H76	0.640300	0.228300	0.723400
C581	C58	0.620430	0.290470	0.793000
H771	H77	0.631100	0.308500	0.852300
H781	H78	0.587400	0.280700	0.804800
C591	C59	0.622120	0.322510	0.701300
H791	H79	0.613100	0.303900	0.641700
H801	H80	0.598400	0.347800	0.709700
C601	C60	0.669560	0.344890	0.682200
Co111	Co11	0.256390	0.608170	0.344780
Co121	Co12	0.154340	0.563240	0.366920
O411	O41	0.208320	0.572150	0.256800
O421	O42	0.242090	0.586150	0.109500
O431	O43	0.197370	0.447290	0.860300
O441	O44	0.174440	0.464950	0.705400
C611	C61	0.209710	0.568590	0.161600
C621	C62	0.170760	0.542000	0.110700
H811	H81	0.140700	0.558900	0.122400
H821	H82	0.168000	0.510500	0.142200
C631	C63	0.177320	0.535570	0.999000
H831	H83	0.206300	0.517000	0.986600
H841	H84	0.181300	0.566800	0.967100
C641	C64	0.135480	0.510560	0.952600
H851	H85	0.106300	0.527800	0.970500
H861	H86	0.133100	0.478500	0.981300
C651	C65	0.138700	0.506750	0.839200
H871	H87	0.107000	0.499000	0.812800
H881	H88	0.147600	0.538000	0.812100
C661	C66	0.173300	0.470640	0.800000
O451	O45	0.144080	0.633820	0.362000
O461	O46	0.215580	0.667490	0.353200
O471	O47	0.194500	0.860240	0.257000
O481	O48	0.184670	0.850100	0.095500
C671	C67	0.171300	0.668550	0.363100
C681	C68	0.148310	0.715990	0.376000
H891	H89	0.163800	0.732800	0.432000
H901	H90	0.114800	0.711300	0.394200
C691	C69	0.150980	0.746710	0.282000
H911	H91	0.184100	0.756200	0.270200
H921	H92	0.140300	0.728300	0.223400
C701	C70	0.120430	0.790470	0.293000
H931	H93	0.131100	0.808500	0.352300
H941	H94	0.087400	0.780700	0.304800
C711	C71	0.122120	0.822510	0.201300
H951	H95	0.113100	0.803900	0.141700
H961	H96	0.098400	0.847800	0.209700
C721	C72	0.169560	0.844890	0.182200
Co131	Co13	0.743610	0.891830	0.344780
Co141	Co14	0.845660	0.936760	0.366920
O491	O49	0.791680	0.927850	0.256800
O501	O50	0.757910	0.913850	0.109500
O511	O51	0.802630	0.052710	0.860300
O521	O52	0.825560	0.035050	0.705400
C731	C73	0.790290	0.931410	0.161600
C741	C74	0.829240	0.958000	0.110700
H971	H97	0.859300	0.941100	0.122400
H981	H98	0.832000	0.989500	0.142200
C751	C75	0.822680	0.964430	0.999000
H991	H99	0.793700	0.983000	0.986600
H1001	H100	0.818700	0.933200	0.967100
C761	C76	0.864520	0.989440	0.952600
H1011	H101	0.893700	0.972200	0.970500
H1021	H102	0.866900	0.021500	0.981300
C771	C77	0.861300	0.993250	0.839200
H1031	H103	0.893000	0.001000	0.812800
H1041	H104	0.852400	0.962000	0.812100
C781	C78	0.826700	0.029360	0.800000
O531	O53	0.855920	0.866180	0.362000
O541	O54	0.784420	0.832510	0.353200
O551	O55	0.805500	0.639760	0.257000
O561	O56	0.815330	0.649900	0.095500
C791	C79	0.828700	0.831450	0.363100
C801	C80	0.851690	0.784010	0.376000
H1051	H105	0.836200	0.767200	0.432000
H1061	H106	0.885200	0.788700	0.394200
C811	C81	0.849020	0.753290	0.282000
H1071	H107	0.815900	0.743800	0.270200
H1081	H108	0.859700	0.771700	0.223400
C821	C82	0.879570	0.709530	0.293000
H1091	H109	0.868900	0.691500	0.352300
H1101	H110	0.912600	0.719300	0.304800
C831	C83	0.877880	0.677490	0.201300
H1111	H111	0.886900	0.696100	0.141700
H1121	H112	0.901600	0.652200	0.209700
C841	C84	0.830440	0.655110	0.182200
Co151	Co15	0.243610	0.391830	0.844780
Co161	Co16	0.345660	0.436760	0.866920
O571	O57	0.291680	0.427850	0.756800
O581	O58	0.257910	0.413850	0.609500
O591	O59	0.302630	0.552710	0.360300
O601	O60	0.325560	0.535050	0.205400
C851	C85	0.290290	0.431410	0.661600
C861	C86	0.329240	0.458000	0.610700
H1131	H113	0.359300	0.441100	0.622400
H1141	H114	0.332000	0.489500	0.642200
C871	C87	0.322680	0.464430	0.499000
H1151	H115	0.293700	0.483000	0.486600
H1161	H116	0.318700	0.433200	0.467100
C881	C88	0.364520	0.489440	0.452600
H1171	H117	0.393700	0.472200	0.470500
H1181	H118	0.366900	0.521500	0.481300
C891	C89	0.361300	0.493250	0.339200
H1191	H119	0.393000	0.501000	0.312800
H1201	H120	0.352400	0.462000	0.312100
C901	C90	0.326700	0.529360	0.300000
O611	O61	0.355920	0.366180	0.862000
O621	O62	0.284420	0.332510	0.853200
O631	O63	0.305500	0.139760	0.757000
O641	O64	0.315330	0.149900	0.595500
C911	C91	0.328700	0.331450	0.863100
C921	C92	0.351690	0.284010	0.876000
H1211	H121	0.336200	0.267200	0.932000
H1221	H122	0.385200	0.288700	0.894200
C931	C93	0.349020	0.253290	0.782000
H1231	H123	0.315900	0.243800	0.770200
H1241	H124	0.359700	0.271700	0.723400
C941	C94	0.379570	0.209530	0.793000
H1251	H125	0.368900	0.191500	0.852300
H1261	H126	0.412600	0.219300	0.804800
C951	C95	0.377880	0.177490	0.701300
H1271	H127	0.386900	0.196100	0.641700
H1281	H128	0.401600	0.152200	0.709700
C961	C96	0.330440	0.155110	0.682200
Co171	Co17	0.141830	0.006390	0.405220
Co181	Co18	0.186760	0.904340	0.383080
O651	O65	0.177850	0.958320	0.493200
O661	O66	0.163850	0.992090	0.640500
O671	O67	0.302710	0.947370	0.889700
O681	O68	0.285050	0.924440	0.044600
C971	C97	0.181410	0.959710	0.588400
C981	C98	0.208000	0.920760	0.639300
H1291	H129	0.191100	0.890700	0.627600
H1301	H130	0.239500	0.918000	0.607800
C991	C99	0.214430	0.927320	0.751000
H1311	H131	0.233000	0.956300	0.763400
H1321	H132	0.183200	0.931300	0.782900
C1001	C100	0.239440	0.885480	0.797400
H1331	H133	0.222200	0.856300	0.779500
H1341	H134	0.271500	0.883100	0.768700
C1011	C101	0.243250	0.888700	0.910800
H1351	H135	0.251000	0.857000	0.937200
H1361	H136	0.212000	0.897600	0.937900
C1021	C102	0.279360	0.923300	0.950000
O691	O69	0.116180	0.894080	0.388000
O701	O70	0.082510	0.965580	0.396800
O711	O71	0.889760	0.944500	0.493000
O721	O72	0.899900	0.934670	0.654500
C1031	C103	0.081450	0.921300	0.386900
C1041	C104	0.034010	0.898310	0.374000
H1371	H137	0.017200	0.913800	0.318000
H1381	H138	0.038700	0.864800	0.355800
C1051	C105	0.003290	0.900980	0.468000
H1391	H139	0.993800	0.934100	0.479800
H1401	H140	0.021700	0.890300	0.526600
C1061	C106	0.959530	0.870430	0.457000
H1411	H141	0.941500	0.881100	0.397700
H1421	H142	0.969300	0.837400	0.445200
C1071	C107	0.927490	0.872120	0.548700
H1431	H143	0.946100	0.863100	0.608300
H1441	H144	0.902200	0.848400	0.540300
C1081	C108	0.905110	0.919560	0.567800
Co191	Co19	0.641830	0.506390	0.905220
Co201	Co20	0.686760	0.404340	0.883080
O731	O73	0.677850	0.458320	0.993200
O741	O74	0.663850	0.492090	0.140500
O751	O75	0.802710	0.447370	0.389700
O761	O76	0.785050	0.424440	0.544600
C1091	C109	0.681410	0.459710	0.088400
C1101	C110	0.708000	0.420760	0.139300
H1451	H145	0.691100	0.390700	0.127600
H1461	H146	0.739500	0.418000	0.107800
C1111	C111	0.714430	0.427320	0.251000
H1471	H147	0.733000	0.456300	0.263400
H1481	H148	0.683200	0.431300	0.282900
C1121	C112	0.739440	0.385480	0.297400
H1491	H149	0.722200	0.356300	0.279500
H1501	H150	0.771500	0.383100	0.268700
C1131	C113	0.743250	0.388700	0.410800
H1511	H151	0.751000	0.357000	0.437200
H1521	H152	0.712000	0.397600	0.437900
C1141	C114	0.779360	0.423300	0.450000
O771	O77	0.616180	0.394080	0.888000
O781	O78	0.582510	0.465580	0.896800
O791	O79	0.389760	0.444500	0.993000
O801	O80	0.399900	0.434670	0.154500
C1151	C115	0.581450	0.421300	0.886900
C1161	C116	0.534010	0.398310	0.874000
H1531	H153	0.517200	0.413800	0.818000
H1541	H154	0.538700	0.364800	0.855800
C1171	C117	0.503290	0.400980	0.968000
H1551	H155	0.493800	0.434100	0.979800
H1561	H156	0.521700	0.390300	0.026600
C1181	C118	0.459530	0.370430	0.957000
H1571	H157	0.441500	0.381100	0.897700
H1581	H158	0.469300	0.337400	0.945200
C1191	C119	0.427490	0.372120	0.048700
H1591	H159	0.446100	0.363100	0.108300
H1601	H160	0.402200	0.348400	0.040300
C1201	C120	0.405110	0.419560	0.067800
Co211	Co21	0.358170	0.993610	0.905220
Co221	Co22	0.313240	0.095660	0.883080
O811	O81	0.322150	0.041680	0.993200
O821	O82	0.336150	0.007910	0.140500
O831	O83	0.197290	0.052630	0.389700
O841	O84	0.214950	0.075560	0.544600
C1211	C121	0.318590	0.040290	0.088400
C1221	C122	0.292000	0.079240	0.139300
H1611	H161	0.308900	0.109300	0.127600
H1621	H162	0.260500	0.082000	0.107800
C1231	C123	0.285570	0.072680	0.251000
H1631	H163	0.267000	0.043700	0.263400
H1641	H164	0.316800	0.068700	0.282900
C1241	C124	0.260560	0.114520	0.297400
H1651	H165	0.277800	0.143700	0.279500
H1661	H166	0.228500	0.116900	0.268700
C1251	C125	0.256750	0.111300	0.410800
H1671	H167	0.249000	0.143000	0.437200
H1681	H168	0.288000	0.102400	0.437900
C1261	C126	0.220640	0.076700	0.450000
O851	O85	0.383820	0.105920	0.888000
O861	O86	0.417490	0.034420	0.896800
O871	O87	0.610240	0.055500	0.993000
O881	O88	0.600100	0.065330	0.154500
C1271	C127	0.418550	0.078700	0.886900
C1281	C128	0.465990	0.101690	0.874000
H1691	H169	0.482800	0.086200	0.818000
H1701	H170	0.461300	0.135200	0.855800
C1291	C129	0.496710	0.099020	0.968000
H1711	H171	0.506200	0.065900	0.979800
H1721	H172	0.478300	0.109700	0.026600
C1301	C130	0.540470	0.129570	0.957000
H1731	H173	0.558500	0.118900	0.897700
H1741	H174	0.530700	0.162600	0.945200
C1311	C131	0.572510	0.127880	0.048700
H1751	H175	0.553900	0.136900	0.108300
H1761	H176	0.597800	0.151600	0.040300
C1321	C132	0.594890	0.080440	0.067800
Co231	Co23	0.858170	0.493610	0.405220
Co241	Co24	0.813240	0.595660	0.383080
O891	O89	0.822150	0.541680	0.493200
O901	O90	0.836150	0.507910	0.640500
O911	O91	0.697290	0.552630	0.889700
O921	O92	0.714950	0.575560	0.044600
C1331	C133	0.818590	0.540290	0.588400
C1341	C134	0.792000	0.579240	0.639300
H1771	H177	0.808900	0.609300	0.627600
H1781	H178	0.760500	0.582000	0.607800
C1351	C135	0.785570	0.572680	0.751000
H1791	H179	0.767000	0.543700	0.763400
H1801	H180	0.816800	0.568700	0.782900
C1361	C136	0.760560	0.614520	0.797400
H1811	H181	0.777800	0.643700	0.779500
H1821	H182	0.728500	0.616900	0.768700
C1371	C137	0.756750	0.611300	0.910800
H1831	H183	0.749000	0.643000	0.937200
H1841	H184	0.788000	0.602400	0.937900
C1381	C138	0.720640	0.576700	0.950000
O931	O93	0.883820	0.605920	0.388000
O941	O94	0.917490	0.534420	0.396800
O951	O95	0.110240	0.555500	0.493000
O961	O96	0.100100	0.565330	0.654500
C1391	C139	0.918550	0.578700	0.386900
C1401	C140	0.965990	0.601690	0.374000
H1851	H185	0.982800	0.586200	0.318000
H1861	H186	0.961300	0.635200	0.355800
C1411	C141	0.996710	0.599020	0.468000
H1871	H187	0.006200	0.565900	0.479800
H1881	H188	0.978300	0.609700	0.526600
C1421	C142	0.040470	0.629570	0.457000
H1891	H189	0.058500	0.618900	0.397700
H1901	H190	0.030700	0.662600	0.445200
C1431	C143	0.072510	0.627880	0.548700
H1911	H191	0.053900	0.636900	0.608300
H1921	H192	0.097800	0.651600	0.540300
C1441	C144	0.094890	0.580440	0.567800
Co251	Co25	0.243610	0.891830	0.155220
Co261	Co26	0.345660	0.936760	0.133080
O971	O97	0.291680	0.927850	0.243200
O981	O98	0.257910	0.913850	0.390500
O991	O99	0.302630	0.052710	0.639700
O1001	O100	0.325560	0.035050	0.794600
C1451	C145	0.290290	0.931410	0.338400
C1461	C146	0.329240	0.958000	0.389300
H1931	H193	0.359300	0.941100	0.377600
H1941	H194	0.332000	0.989500	0.357800
C1471	C147	0.322680	0.964430	0.501000
H1951	H195	0.293700	0.983000	0.513400
H1961	H196	0.318700	0.933200	0.532900
C1481	C148	0.364520	0.989440	0.547400
H1971	H197	0.393700	0.972200	0.529500
H1981	H198	0.366900	0.021500	0.518700
C1491	C149	0.361300	0.993250	0.660800
H1991	H199	0.393000	0.001000	0.687200
H2001	H200	0.352400	0.962000	0.687900
C1501	C150	0.326700	0.029360	0.700000
O1011	O101	0.355920	0.866180	0.138000
O1021	O102	0.284420	0.832510	0.146800
O1031	O103	0.305500	0.639760	0.243000
O1041	O104	0.315330	0.649900	0.404500
C1511	C151	0.328700	0.831450	0.136900
C1521	C152	0.351690	0.784010	0.124000
H2011	H201	0.336200	0.767200	0.068000
H2021	H202	0.385200	0.788700	0.105800
C1531	C153	0.349020	0.753290	0.218000
H2031	H203	0.315900	0.743800	0.229800
H2041	H204	0.359700	0.771700	0.276600
C1541	C154	0.379570	0.709530	0.207000
H2051	H205	0.368900	0.691500	0.147700
H2061	H206	0.412600	0.719300	0.195200
C1551	C155	0.377880	0.677490	0.298700
H2071	H207	0.386900	0.696100	0.358300
H2081	H208	0.401600	0.652200	0.290300
C1561	C156	0.330440	0.655110	0.317800
Co271	Co27	0.743610	0.391830	0.655220
Co281	Co28	0.845660	0.436760	0.633080
O1051	O105	0.791680	0.427850	0.743200
O1061	O106	0.757910	0.413850	0.890500
O1071	O107	0.802630	0.552710	0.139700
O1081	O108	0.825560	0.535050	0.294600
C1571	C157	0.790290	0.431410	0.838400
C1581	C158	0.829240	0.458000	0.889300
H2091	H209	0.859300	0.441100	0.877600
H2101	H210	0.832000	0.489500	0.857800
C1591	C159	0.822680	0.464430	0.001000
H2111	H211	0.793700	0.483000	0.013400
H2121	H212	0.818700	0.433200	0.032900
C1601	C160	0.864520	0.489440	0.047400
H2131	H213	0.893700	0.472200	0.029500
H2141	H214	0.866900	0.521500	0.018700
C1611	C161	0.861300	0.493250	0.160800
H2151	H215	0.893000	0.501000	0.187200
H2161	H216	0.852400	0.462000	0.187900
C1621	C162	0.826700	0.529360	0.200000
O1091	O109	0.855920	0.366180	0.638000
O1101	O110	0.784420	0.332510	0.646800
O1111	O111	0.805500	0.139760	0.743000
O1121	O112	0.815330	0.149900	0.904500
C1631	C163	0.828700	0.331450	0.636900
C1641	C164	0.851690	0.284010	0.624000
H2171	H217	0.836200	0.267200	0.568000
H2181	H218	0.885200	0.288700	0.605800
C1651	C165	0.849020	0.253290	0.718000
H2191	H219	0.815900	0.243800	0.729800
H2201	H220	0.859700	0.271700	0.776600
C1661	C166	0.879570	0.209530	0.707000
H2211	H221	0.868900	0.191500	0.647700
H2221	H222	0.912600	0.219300	0.695200
C1671	C167	0.877880	0.177490	0.798700
H2231	H223	0.886900	0.196100	0.858300
H2241	H224	0.901600	0.152200	0.790300
C1681	C168	0.830440	0.155110	0.817800
Co291	Co29	0.256390	0.108170	0.655220
Co301	Co30	0.154340	0.063240	0.633080
O1131	O113	0.208320	0.072150	0.743200
O1141	O114	0.242090	0.086150	0.890500
O1151	O115	0.197370	0.947290	0.139700
O1161	O116	0.174440	0.964950	0.294600
C1691	C169	0.209710	0.068590	0.838400
C1701	C170	0.170760	0.042000	0.889300
H2251	H225	0.140700	0.058900	0.877600
H2261	H226	0.168000	0.010500	0.857800
C1711	C171	0.177320	0.035570	0.001000
H2271	H227	0.206300	0.017000	0.013400
H2281	H228	0.181300	0.066800	0.032900
C1721	C172	0.135480	0.010560	0.047400
H2291	H229	0.106300	0.027800	0.029500
H2301	H230	0.133100	0.978500	0.018700
C1731	C173	0.138700	0.006750	0.160800
H2311	H231	0.107000	0.999000	0.187200
H2321	H232	0.147600	0.038000	0.187900
C1741	C174	0.173300	0.970640	0.200000
O1171	O117	0.144080	0.133820	0.638000
O1181	O118	0.215580	0.167490	0.646800
O1191	O119	0.194500	0.360240	0.743000
O1201	O120	0.184670	0.350100	0.904500
C1751	C175	0.171300	0.168550	0.636900
C1761	C176	0.148310	0.215990	0.624000
H2331	H233	0.163800	0.232800	0.568000
H2341	H234	0.114800	0.211300	0.605800
C1771	C177	0.150980	0.246710	0.718000
H2351	H235	0.184100	0.256200	0.729800
H2361	H236	0.140300	0.228300	0.776600
C1781	C178	0.120430	0.290470	0.707000
H2371	H237	0.131100	0.308500	0.647700
H2381	H238	0.087400	0.280700	0.695200
C1791	C179	0.122120	0.322510	0.798700
H2391	H239	0.113100	0.303900	0.858300
H2401	H240	0.098400	0.347800	0.790300
C1801	C180	0.169560	0.344890	0.817800
Co311	Co31	0.756390	0.608170	0.155220
Co321	Co32	0.654340	0.563240	0.133080
O1211	O121	0.708320	0.572150	0.243200
O1221	O122	0.742090	0.586150	0.390500
O1231	O123	0.697370	0.447290	0.639700
O1241	O124	0.674440	0.464950	0.794600
C1811	C181	0.709710	0.568590	0.338400
C1821	C182	0.670760	0.542000	0.389300
H2411	H241	0.640700	0.558900	0.377600
H2421	H242	0.668000	0.510500	0.357800
C1831	C183	0.677320	0.535570	0.501000
H2431	H243	0.706300	0.517000	0.513400
H2441	H244	0.681300	0.566800	0.532900
C1841	C184	0.635480	0.510560	0.547400
H2451	H245	0.606300	0.527800	0.529500
H2461	H246	0.633100	0.478500	0.518700
C1851	C185	0.638700	0.506750	0.660800
H2471	H247	0.607000	0.499000	0.687200
H2481	H248	0.647600	0.538000	0.687900
C1861	C186	0.673300	0.470640	0.700000
O1251	O125	0.644080	0.633820	0.138000
O1261	O126	0.715580	0.667490	0.146800
O1271	O127	0.694500	0.860240	0.243000
O1281	O128	0.684670	0.850100	0.404500
C1871	C187	0.671300	0.668550	0.136900
C1881	C188	0.648310	0.715990	0.124000
H2491	H249	0.663800	0.732800	0.068000
H2501	H250	0.614800	0.711300	0.105800
C1891	C189	0.650980	0.746710	0.218000
H2511	H251	0.684100	0.756200	0.229800
H2521	H252	0.640300	0.728300	0.276600
C1901	C190	0.620430	0.790470	0.207000
H2531	H253	0.631100	0.808500	0.147700
H2541	H254	0.587400	0.780700	0.195200
C1911	C191	0.622120	0.822510	0.298700
H2551	H255	0.613100	0.803900	0.358300
H2561	H256	0.598400	0.847800	0.290300
C1921	C192	0.669560	0.844890	0.317800
