data_TILVOZ_clean_PM
_symmetry_space_group_name_H-M	'P1'
_cell_length_a	12.638000
_cell_length_b	12.638000
_cell_length_c	12.638000
_cell_angle_alpha	90.000000
_cell_angle_beta	90.000000
_cell_angle_gamma	90.000000
_symmetry_Int_Tables_number 1

loop_
_symmetry_equiv_pos_as_xyz
'x,y,z'

loop_
_atom_site_label
_atom_site_type_symbol
_atom_site_fract_x
_atom_site_fract_y
_atom_site_fract_z
Cd11	Cd1	0.125000	0.125000	0.125000
Cd21	Cd2	0.125000	0.625000	0.625000
Cd31	Cd3	0.625000	0.125000	0.625000
Cd41	Cd4	0.625000	0.625000	0.125000
Cd51	Cd5	0.875000	0.375000	0.375000
Cd61	Cd6	0.875000	0.875000	0.875000
Cd71	Cd7	0.375000	0.375000	0.875000
Cd81	Cd8	0.375000	0.875000	0.375000
C11	C1	0.026000	0.026000	0.026000
C21	C2	0.026000	0.526000	0.526000
C31	C3	0.526000	0.026000	0.526000
C41	C4	0.526000	0.526000	0.026000
C51	C5	0.724000	0.224000	0.526000
C61	C6	0.724000	0.724000	0.026000
C71	C7	0.224000	0.526000	0.724000
C81	C8	0.224000	0.026000	0.224000
C91	C9	0.724000	0.026000	0.724000
C101	C10	0.526000	0.724000	0.224000
C111	C11	0.026000	0.724000	0.724000
C121	C12	0.776000	0.276000	0.474000
C131	C13	0.776000	0.776000	0.974000
C141	C14	0.974000	0.974000	0.974000
C151	C15	0.974000	0.474000	0.474000
C161	C16	0.474000	0.974000	0.474000
C171	C17	0.474000	0.474000	0.974000
C181	C18	0.276000	0.474000	0.776000
C191	C19	0.276000	0.974000	0.276000
C201	C20	0.776000	0.974000	0.776000
C211	C21	0.474000	0.776000	0.276000
C221	C22	0.974000	0.776000	0.776000
C231	C23	0.276000	0.776000	0.474000
C241	C24	0.276000	0.276000	0.974000
C251	C25	0.776000	0.474000	0.276000
C261	C26	0.474000	0.276000	0.776000
C271	C27	0.974000	0.276000	0.276000
C281	C28	0.224000	0.724000	0.526000
C291	C29	0.224000	0.224000	0.026000
C301	C30	0.724000	0.526000	0.224000
C311	C31	0.526000	0.224000	0.724000
C321	C32	0.026000	0.224000	0.224000
