data_TIMMIM_charged_PM
_symmetry_space_group_name_H-M	'P1'
_cell_length_a	23.167000
_cell_length_b	23.167000
_cell_length_c	26.460000
_cell_angle_alpha	86.532200
_cell_angle_beta	86.532200
_cell_angle_gamma	84.923400
_symmetry_Int_Tables_number 1

loop_
_symmetry_equiv_pos_as_xyz
'x,y,z'

loop_
_atom_site_label
_atom_site_type_symbol
_atom_site_fract_x
_atom_site_fract_y
_atom_site_fract_z
Ag11	Ag1	0.245470	0.000950	0.935390
Ag21	Ag2	0.239750	0.991670	0.064260
Ag31	Ag3	0.492640	0.808960	0.465780
Ag41	Ag4	0.527630	0.678430	0.473240
Ag51	Ag5	0.599400	0.533080	0.713100
Ag61	Ag6	0.484720	0.982380	0.229190
Ag71	Ag7	0.999050	0.754530	0.564610
Ag81	Ag8	0.008330	0.760250	0.435740
Ag91	Ag9	0.191040	0.507360	0.034220
Ag101	Ag10	0.321570	0.472370	0.026760
Ag111	Ag11	0.466920	0.400600	0.786900
Ag121	Ag12	0.017620	0.515280	0.270810
Ag131	Ag13	0.754530	0.999050	0.064610
Ag141	Ag14	0.760250	0.008330	0.935740
Ag151	Ag15	0.507360	0.191040	0.534220
Ag161	Ag16	0.472370	0.321570	0.526760
Ag171	Ag17	0.400600	0.466920	0.286900
Ag181	Ag18	0.515280	0.017620	0.770810
Ag191	Ag19	0.000950	0.245470	0.435390
Ag201	Ag20	0.991670	0.239750	0.564260
Ag211	Ag21	0.808960	0.492640	0.965780
Ag221	Ag22	0.678430	0.527630	0.973240
Ag231	Ag23	0.533080	0.599400	0.213100
Ag241	Ag24	0.982380	0.484720	0.729190
Ag251	Ag25	0.020520	0.979480	0.750000
Ag261	Ag26	0.979480	0.020520	0.250000
H11	H1	0.282000	0.049200	0.171000
H21	H2	0.360400	0.044600	0.217200
H31	H3	0.442300	0.931900	0.127900
H41	H4	0.415400	0.873800	0.012300
H51	H5	0.452500	0.917900	0.035600
H61	H6	0.433400	0.863600	0.068500
H71	H7	0.359300	0.870700	0.908400
H81	H8	0.364600	0.820000	0.834700
H91	H9	0.290500	0.763300	0.819100
H101	H10	0.213400	0.753800	0.878800
H111	H11	0.209600	0.803400	0.952700
H121	H12	0.147500	0.869100	0.095400
H131	H13	0.151500	0.815500	0.174600
H141	H14	0.234500	0.753700	0.191400
H151	H15	0.307600	0.744000	0.130600
H161	H16	0.309900	0.801500	0.059200
H171	H17	0.097700	0.868700	0.978400
H181	H18	0.053100	0.905100	0.944400
H191	H19	0.097200	0.857400	0.920700
H201	H20	0.068100	0.928500	0.860000
H211	H21	0.130100	0.048500	0.765200
H221	H22	0.203400	0.055400	0.822300
H231	H23	0.951900	0.300900	0.320700
H241	H24	0.956200	0.390200	0.269400
H251	H25	0.045700	0.451700	0.369500
H261	H26	0.094800	0.406200	0.489400
H271	H27	0.048000	0.448000	0.462300
H281	H28	0.107100	0.429500	0.433300
H291	H29	0.187400	0.179600	0.555100
H301	H30	0.241000	0.184000	0.627100
H311	H31	0.231000	0.257800	0.679600
H321	H32	0.181900	0.344700	0.649500
H331	H33	0.123700	0.349100	0.580100
H341	H34	0.130300	0.138300	0.413400
H351	H35	0.189100	0.140300	0.336100
H361	H36	0.227100	0.224300	0.306700
H371	H37	0.233400	0.299800	0.358200
H381	H38	0.181600	0.297000	0.441600
H391	H39	0.129700	0.082500	0.521800
H401	H40	0.092300	0.037500	0.552200
H411	H41	0.141600	0.064600	0.578600
H421	H42	0.069700	0.040500	0.644400
H431	H43	0.956900	0.113300	0.741600
H441	H44	0.941400	0.190600	0.683200
H451	H45	0.599500	0.555700	0.515700
H461	H46	0.623100	0.513100	0.595800
H471	H47	0.511000	0.626800	0.663700
H481	H48	0.416000	0.745600	0.619900
H491	H49	0.474500	0.734300	0.647100
H501	H50	0.428300	0.688500	0.653900
H511	H51	0.350000	0.835600	0.574600
H521	H52	0.285900	0.917900	0.569800
H531	H53	0.235100	0.941100	0.498100
H541	H54	0.247100	0.881100	0.430600
H551	H55	0.312700	0.798900	0.434100
H561	H56	0.329500	0.678900	0.551700
H571	H57	0.260600	0.606800	0.572900
H581	H58	0.249200	0.546400	0.509900
H591	H59	0.294600	0.554800	0.431500
H601	H60	0.349300	0.631700	0.408600
H611	H61	0.380500	0.734900	0.339600
H621	H62	0.427700	0.753900	0.298400
H631	H63	0.373600	0.796800	0.312300
H641	H64	0.437400	0.866800	0.285000
H651	H65	0.556100	0.962700	0.325800
H661	H66	0.573900	0.899700	0.392200
H671	H67	0.475000	0.596600	0.405700
H681	H68	0.467800	0.572200	0.318900
H691	H69	0.582800	0.683400	0.279800
H701	H70	0.647900	0.788700	0.339700
H711	H71	0.601600	0.773600	0.302800
H721	H72	0.655400	0.729600	0.313300
H731	H73	0.667100	0.876900	0.414400
H741	H74	0.718900	0.954300	0.431300
H751	H75	0.755200	0.958800	0.510100
H761	H76	0.738900	0.887300	0.573300
H771	H77	0.688600	0.809000	0.556100
H781	H78	0.646900	0.683700	0.602100
H791	H79	0.710500	0.602900	0.616900
H801	H80	0.768800	0.564600	0.550600
H811	H81	0.764400	0.608400	0.469900
H821	H82	0.701700	0.690500	0.454900
H831	H83	0.582300	0.806700	0.628300
H841	H84	0.525200	0.842400	0.647100
H851	H85	0.578500	0.874700	0.624900
H861	H86	0.503100	0.936500	0.611900
H871	H87	0.400800	0.015400	0.514900
H881	H88	0.411800	0.935400	0.468100
H891	H89	0.950800	0.718000	0.329000
H901	H90	0.955400	0.639600	0.282800
H911	H91	0.068100	0.557700	0.372100
H921	H92	0.126200	0.584600	0.487700
H931	H93	0.082100	0.547500	0.464400
H941	H94	0.136400	0.566600	0.431500
H951	H95	0.129300	0.640700	0.591600
H961	H96	0.180000	0.635400	0.665300
H971	H97	0.236700	0.709500	0.680900
H981	H98	0.246200	0.786600	0.621200
H991	H99	0.196600	0.790400	0.547300
H1001	H100	0.130900	0.852500	0.404600
H1011	H101	0.184500	0.848500	0.325400
H1021	H102	0.246300	0.765500	0.308600
H1031	H103	0.256000	0.692400	0.369400
H1041	H104	0.198500	0.690100	0.440800
H1051	H105	0.131300	0.902300	0.521600
H1061	H106	0.094900	0.946900	0.555600
H1071	H107	0.142600	0.902800	0.579300
H1081	H108	0.071500	0.931900	0.640000
H1091	H109	0.951500	0.869900	0.734800
H1101	H110	0.944600	0.796600	0.677700
H1111	H111	0.699100	0.048100	0.179300
H1121	H112	0.609800	0.043800	0.230600
H1131	H113	0.548300	0.954300	0.130500
H1141	H114	0.593800	0.905200	0.010600
H1151	H115	0.552000	0.952000	0.037700
H1161	H116	0.570500	0.892900	0.066700
H1171	H117	0.820400	0.812600	0.944900
H1181	H118	0.816000	0.759000	0.872900
H1191	H119	0.742200	0.769000	0.820400
H1201	H120	0.655300	0.818100	0.850500
H1211	H121	0.650900	0.876300	0.919900
H1221	H122	0.861700	0.869700	0.086600
H1231	H123	0.859700	0.810900	0.163900
H1241	H124	0.775700	0.772900	0.193300
H1251	H125	0.700200	0.766600	0.141800
H1261	H126	0.703000	0.818400	0.058400
H1271	H127	0.917500	0.870300	0.978200
H1281	H128	0.962500	0.907700	0.947800
H1291	H129	0.935400	0.858400	0.921400
H1301	H130	0.959500	0.930300	0.855600
H1311	H131	0.886700	0.043100	0.758400
H1321	H132	0.809400	0.058600	0.816800
H1331	H133	0.444300	0.400500	0.984300
H1341	H134	0.486900	0.376900	0.904200
H1351	H135	0.373200	0.489000	0.836300
H1361	H136	0.254400	0.584000	0.880100
H1371	H137	0.265700	0.525500	0.852900
H1381	H138	0.311500	0.571700	0.846100
H1391	H139	0.164400	0.650000	0.925400
H1401	H140	0.082100	0.714100	0.930200
H1411	H141	0.058900	0.764900	0.001900
H1421	H142	0.118900	0.752900	0.069400
H1431	H143	0.201100	0.687300	0.065900
H1441	H144	0.321100	0.670500	0.948300
H1451	H145	0.393200	0.739400	0.927100
H1461	H146	0.453600	0.750800	0.990100
H1471	H147	0.445200	0.705400	0.068500
H1481	H148	0.368300	0.650700	0.091400
H1491	H149	0.265100	0.619500	0.160400
H1501	H150	0.246100	0.572300	0.201600
H1511	H151	0.203200	0.626400	0.187700
H1521	H152	0.133200	0.562600	0.215000
H1531	H153	0.037300	0.443900	0.174200
H1541	H154	0.100300	0.426100	0.107800
H1551	H155	0.403400	0.525000	0.094300
H1561	H156	0.427800	0.532200	0.181100
H1571	H157	0.316600	0.417200	0.220200
H1581	H158	0.211300	0.352100	0.160300
H1591	H159	0.226400	0.398400	0.197200
H1601	H160	0.270400	0.344600	0.186700
H1611	H161	0.123100	0.332900	0.085600
H1621	H162	0.045700	0.281100	0.068700
H1631	H163	0.041200	0.244800	0.989900
H1641	H164	0.112700	0.261100	0.926700
H1651	H165	0.191000	0.311400	0.943900
H1661	H166	0.316300	0.353100	0.897900
H1671	H167	0.397100	0.289500	0.883100
H1681	H168	0.435400	0.231200	0.949400
H1691	H169	0.391600	0.235600	0.030100
H1701	H170	0.309500	0.298300	0.045100
H1711	H171	0.193300	0.417700	0.871700
H1721	H172	0.157600	0.474800	0.852900
H1731	H173	0.125300	0.421500	0.875100
H1741	H174	0.063500	0.496900	0.888100
H1751	H175	0.984600	0.599200	0.985100
H1761	H176	0.064600	0.588200	0.031900
H1771	H177	0.718000	0.950800	0.829000
H1781	H178	0.639600	0.955400	0.782800
H1791	H179	0.557700	0.068100	0.872100
H1801	H180	0.584600	0.126200	0.987700
H1811	H181	0.547500	0.082100	0.964400
H1821	H182	0.566600	0.136400	0.931500
H1831	H183	0.640700	0.129300	0.091600
H1841	H184	0.635400	0.180000	0.165300
H1851	H185	0.709500	0.236700	0.180900
H1861	H186	0.786600	0.246200	0.121200
H1871	H187	0.790400	0.196600	0.047300
H1881	H188	0.852500	0.130900	0.904600
H1891	H189	0.848500	0.184500	0.825400
H1901	H190	0.765500	0.246300	0.808600
H1911	H191	0.692400	0.256000	0.869400
H1921	H192	0.690100	0.198500	0.940800
H1931	H193	0.902300	0.131300	0.021600
H1941	H194	0.946900	0.094900	0.055600
H1951	H195	0.902800	0.142600	0.079300
H1961	H196	0.931900	0.071500	0.140000
H1971	H197	0.869900	0.951500	0.234800
H1981	H198	0.796600	0.944600	0.177700
H1991	H199	0.048100	0.699100	0.679300
H2001	H200	0.043800	0.609800	0.730600
H2011	H201	0.954300	0.548300	0.630500
H2021	H202	0.905200	0.593800	0.510600
H2031	H203	0.952000	0.552000	0.537700
H2041	H204	0.892900	0.570500	0.566700
H2051	H205	0.812600	0.820400	0.444900
H2061	H206	0.759000	0.816000	0.372900
H2071	H207	0.769000	0.742200	0.320400
H2081	H208	0.818100	0.655300	0.350500
H2091	H209	0.876300	0.650900	0.419900
H2101	H210	0.869700	0.861700	0.586600
H2111	H211	0.810900	0.859700	0.663900
H2121	H212	0.772900	0.775700	0.693300
H2131	H213	0.766600	0.700200	0.641800
H2141	H214	0.818400	0.703000	0.558400
H2151	H215	0.870300	0.917500	0.478200
H2161	H216	0.907700	0.962500	0.447800
H2171	H217	0.858400	0.935400	0.421400
H2181	H218	0.930300	0.959500	0.355600
H2191	H219	0.043100	0.886700	0.258400
H2201	H220	0.058600	0.809400	0.316800
H2211	H221	0.400500	0.444300	0.484300
H2221	H222	0.376900	0.486900	0.404200
H2231	H223	0.489000	0.373200	0.336300
H2241	H224	0.584000	0.254400	0.380100
H2251	H225	0.525500	0.265700	0.352900
H2261	H226	0.571700	0.311500	0.346100
H2271	H227	0.650000	0.164400	0.425400
H2281	H228	0.714100	0.082100	0.430200
H2291	H229	0.764900	0.058900	0.501900
H2301	H230	0.752900	0.118900	0.569400
H2311	H231	0.687300	0.201100	0.565900
H2321	H232	0.670500	0.321100	0.448300
H2331	H233	0.739400	0.393200	0.427100
H2341	H234	0.750800	0.453600	0.490100
H2351	H235	0.705400	0.445200	0.568500
H2361	H236	0.650700	0.368300	0.591400
H2371	H237	0.619500	0.265100	0.660400
H2381	H238	0.572300	0.246100	0.701600
H2391	H239	0.626400	0.203200	0.687700
H2401	H240	0.562600	0.133200	0.715000
H2411	H241	0.443900	0.037300	0.674200
H2421	H242	0.426100	0.100300	0.607800
H2431	H243	0.525000	0.403400	0.594300
H2441	H244	0.532200	0.427800	0.681100
H2451	H245	0.417200	0.316600	0.720200
H2461	H246	0.352100	0.211300	0.660300
H2471	H247	0.398400	0.226400	0.697200
H2481	H248	0.344600	0.270400	0.686700
H2491	H249	0.332900	0.123100	0.585600
H2501	H250	0.281100	0.045700	0.568700
H2511	H251	0.244800	0.041200	0.489900
H2521	H252	0.261100	0.112700	0.426700
H2531	H253	0.311400	0.191000	0.443900
H2541	H254	0.353100	0.316300	0.397900
H2551	H255	0.289500	0.397100	0.383100
H2561	H256	0.231200	0.435400	0.449400
H2571	H257	0.235600	0.391600	0.530100
H2581	H258	0.298300	0.309500	0.545100
H2591	H259	0.417700	0.193300	0.371700
H2601	H260	0.474800	0.157600	0.352900
H2611	H261	0.421500	0.125300	0.375100
H2621	H262	0.496900	0.063500	0.388100
H2631	H263	0.599200	0.984600	0.485100
H2641	H264	0.588200	0.064600	0.531900
H2651	H265	0.049200	0.282000	0.671000
H2661	H266	0.044600	0.360400	0.717200
H2671	H267	0.931900	0.442300	0.627900
H2681	H268	0.873800	0.415400	0.512300
H2691	H269	0.917900	0.452500	0.535600
H2701	H270	0.863600	0.433400	0.568500
H2711	H271	0.870700	0.359300	0.408400
H2721	H272	0.820000	0.364600	0.334700
H2731	H273	0.763300	0.290500	0.319100
H2741	H274	0.753800	0.213400	0.378800
H2751	H275	0.803400	0.209600	0.452700
H2761	H276	0.869100	0.147500	0.595400
H2771	H277	0.815500	0.151500	0.674600
H2781	H278	0.753700	0.234500	0.691400
H2791	H279	0.744000	0.307600	0.630600
H2801	H280	0.801500	0.309900	0.559200
H2811	H281	0.868700	0.097700	0.478400
H2821	H282	0.905100	0.053100	0.444400
H2831	H283	0.857400	0.097200	0.420700
H2841	H284	0.928500	0.068100	0.360000
H2851	H285	0.048500	0.130100	0.265200
H2861	H286	0.055400	0.203400	0.322300
H2871	H287	0.300900	0.951900	0.820700
H2881	H288	0.390200	0.956200	0.769400
H2891	H289	0.451700	0.045700	0.869500
H2901	H290	0.406200	0.094800	0.989400
H2911	H291	0.448000	0.048000	0.962300
H2921	H292	0.429500	0.107100	0.933300
H2931	H293	0.179600	0.187400	0.055100
H2941	H294	0.184000	0.241000	0.127100
H2951	H295	0.257800	0.231000	0.179600
H2961	H296	0.344700	0.181900	0.149500
H2971	H297	0.349100	0.123700	0.080100
H2981	H298	0.138300	0.130300	0.913400
H2991	H299	0.140300	0.189100	0.836100
H3001	H300	0.224300	0.227100	0.806700
H3011	H301	0.299800	0.233400	0.858200
H3021	H302	0.297000	0.181600	0.941600
H3031	H303	0.082500	0.129700	0.021800
H3041	H304	0.037500	0.092300	0.052200
H3051	H305	0.064600	0.141600	0.078600
H3061	H306	0.040500	0.069700	0.144400
H3071	H307	0.113300	0.956900	0.241600
H3081	H308	0.190600	0.941400	0.183200
H3091	H309	0.555700	0.599500	0.015700
H3101	H310	0.513100	0.623100	0.095800
H3111	H311	0.626800	0.511000	0.163700
H3121	H312	0.745600	0.416000	0.119900
H3131	H313	0.734300	0.474500	0.147100
H3141	H314	0.688500	0.428300	0.153900
H3151	H315	0.835600	0.350000	0.074600
H3161	H316	0.917900	0.285900	0.069800
H3171	H317	0.941100	0.235100	0.998100
H3181	H318	0.881100	0.247100	0.930600
H3191	H319	0.798900	0.312700	0.934100
H3201	H320	0.678900	0.329500	0.051700
H3211	H321	0.606800	0.260600	0.072900
H3221	H322	0.546400	0.249200	0.009900
H3231	H323	0.554800	0.294600	0.931500
H3241	H324	0.631700	0.349300	0.908600
H3251	H325	0.734900	0.380500	0.839600
H3261	H326	0.753900	0.427700	0.798400
H3271	H327	0.796800	0.373600	0.812300
H3281	H328	0.866800	0.437400	0.785000
H3291	H329	0.962700	0.556100	0.825800
H3301	H330	0.899700	0.573900	0.892200
H3311	H331	0.596600	0.475000	0.905700
H3321	H332	0.572200	0.467800	0.818900
H3331	H333	0.683400	0.582800	0.779800
H3341	H334	0.788700	0.647900	0.839700
H3351	H335	0.773600	0.601600	0.802800
H3361	H336	0.729600	0.655400	0.813300
H3371	H337	0.876900	0.667100	0.914400
H3381	H338	0.954300	0.718900	0.931300
H3391	H339	0.958800	0.755200	0.010100
H3401	H340	0.887300	0.738900	0.073300
H3411	H341	0.809000	0.688600	0.056100
H3421	H342	0.683700	0.646900	0.102100
H3431	H343	0.602900	0.710500	0.116900
H3441	H344	0.564600	0.768800	0.050600
H3451	H345	0.608400	0.764400	0.969900
H3461	H346	0.690500	0.701700	0.954900
H3471	H347	0.806700	0.582300	0.128300
H3481	H348	0.842400	0.525200	0.147100
H3491	H349	0.874700	0.578500	0.124900
H3501	H350	0.936500	0.503100	0.111900
H3511	H351	0.015400	0.400800	0.014900
H3521	H352	0.935400	0.411800	0.968100
C11	C1	0.314920	0.025380	0.161680
C21	C2	0.361670	0.022150	0.189130
C31	C3	0.409570	0.956750	0.135770
C41	C4	0.364720	0.960460	0.105860
C51	C5	0.365040	0.928560	0.061030
C61	C6	0.422100	0.892460	0.042560
C71	C7	0.280430	0.873290	0.984020
C81	C8	0.283920	0.841360	0.937640
C91	C9	0.330290	0.846970	0.902430
C101	C10	0.333210	0.817010	0.858110
C111	C11	0.289070	0.782690	0.849030
C121	C12	0.242690	0.777210	0.884650
C131	C13	0.240450	0.806830	0.928880
C141	C14	0.180260	0.845000	0.103600
C151	C15	0.182560	0.812300	0.150630
C161	C16	0.232020	0.775120	0.160620
C171	C17	0.276250	0.770950	0.124710
C181	C18	0.277200	0.803400	0.081410
C191	C19	0.229140	0.839700	0.070130
C201	C20	0.227190	0.872690	0.019920
C211	C21	0.134420	0.930620	0.933200
C221	C22	0.091820	0.886520	0.945240
C231	C23	0.134830	0.964890	0.884180
C241	C24	0.094630	0.955870	0.851720
C251	C25	0.131100	0.025540	0.795290
C261	C26	0.174330	0.030750	0.831240
C271	C27	0.971110	0.331150	0.331490
C281	C28	0.974480	0.385500	0.299880
C291	C29	0.026260	0.421740	0.358520
C301	C30	0.022000	0.370840	0.389670
C311	C31	0.051520	0.365220	0.438700
C321	C32	0.077730	0.416970	0.457700
C331	C33	0.116780	0.267080	0.516290
C341	C34	0.148400	0.263800	0.563080
C351	C35	0.184600	0.212100	0.574420
C361	C36	0.215710	0.215930	0.618420
C371	C37	0.212800	0.260440	0.649010
C381	C38	0.180430	0.311450	0.631780
C391	C39	0.146140	0.315400	0.589800
C401	C40	0.151640	0.169340	0.402840
C411	C41	0.184750	0.172350	0.355990
C421	C42	0.210510	0.221930	0.339590
C431	C43	0.212820	0.268380	0.369610
C441	C44	0.182180	0.267120	0.419650
C451	C45	0.154230	0.217130	0.431120
C461	C46	0.121670	0.217370	0.480800
C471	C47	0.069210	0.120670	0.571240
C481	C48	0.112090	0.071870	0.554430
C491	C49	0.035550	0.118390	0.618640
C501	C50	0.043260	0.071340	0.653180
C511	C51	0.976890	0.113190	0.710080
C521	C52	0.967820	0.159780	0.674520
C531	C53	0.582420	0.570580	0.545400
C541	C54	0.595780	0.544900	0.593230
C551	C55	0.530210	0.612430	0.634540
C561	C56	0.519640	0.638940	0.585000
C571	C57	0.474140	0.684960	0.583130
C581	C58	0.445480	0.716400	0.630630
C591	C59	0.380540	0.755680	0.502310
C601	C60	0.337790	0.809170	0.504650
C611	C61	0.329680	0.844780	0.545520
C621	C62	0.291200	0.894000	0.542630
C631	C63	0.260660	0.907820	0.499810
C641	C64	0.268140	0.872080	0.459300
C651	C65	0.307200	0.822640	0.461450
C661	C66	0.319280	0.655760	0.526750
C671	C67	0.279530	0.610890	0.540990
C681	C68	0.273200	0.576440	0.503210
C691	C69	0.299520	0.581920	0.455050
C701	C70	0.333320	0.627540	0.441570
C711	C71	0.343260	0.665620	0.475350
C721	C72	0.375510	0.713510	0.468920
C731	C73	0.433980	0.790460	0.365990
C741	C74	0.400930	0.766870	0.325300
C751	C75	0.467890	0.838890	0.353250
C761	C76	0.463560	0.875240	0.308340
C771	C77	0.534500	0.930660	0.331210
C781	C78	0.543080	0.894860	0.372270
C791	C79	0.495630	0.616570	0.380030
C801	C80	0.492590	0.599510	0.326530
C811	C81	0.559940	0.665600	0.305280
C821	C82	0.562480	0.682940	0.356420
C831	C83	0.593930	0.729990	0.371980
C841	C84	0.627790	0.758030	0.327900
C851	C85	0.641320	0.789080	0.470840
C861	C86	0.672690	0.834950	0.483520
C871	C87	0.681720	0.878660	0.446140
C881	C88	0.712750	0.925190	0.456330
C891	C89	0.734240	0.927920	0.503500
C901	C90	0.724900	0.884860	0.541340
C911	C91	0.694480	0.838220	0.531100
C921	C92	0.670620	0.668720	0.575580
C931	C93	0.708440	0.620280	0.584420
C941	C94	0.743500	0.597500	0.544710
C951	C95	0.740810	0.623730	0.496410
C961	C96	0.703230	0.672710	0.487350
C971	C97	0.667750	0.695190	0.527230
C981	C98	0.629700	0.747940	0.514050
C991	C99	0.533760	0.842120	0.567830
C1001	C100	0.557230	0.841430	0.622350
C1011	C101	0.495410	0.891870	0.553750
C1021	C102	0.484530	0.937170	0.581680
C1031	C103	0.424210	0.983010	0.526090
C1041	C104	0.432000	0.936460	0.497320
C1051	C105	0.974620	0.685080	0.338320
C1061	C106	0.977850	0.638330	0.310870
C1071	C107	0.043250	0.590430	0.364230
C1081	C108	0.039540	0.635280	0.394140
C1091	C109	0.071440	0.634960	0.438970
C1101	C110	0.107540	0.577900	0.457440
C1111	C111	0.126710	0.719570	0.515980
C1121	C112	0.158640	0.716080	0.562360
C1131	C113	0.153030	0.669710	0.597570
C1141	C114	0.182990	0.666790	0.641890
C1151	C115	0.217310	0.710930	0.650970
C1161	C116	0.222790	0.757310	0.615350
C1171	C117	0.193170	0.759550	0.571120
C1181	C118	0.155000	0.819740	0.396400
C1191	C119	0.187700	0.817440	0.349370
C1201	C120	0.224880	0.767980	0.339380
C1211	C121	0.229050	0.723750	0.375290
C1221	C122	0.196600	0.722800	0.418590
C1231	C123	0.160300	0.770860	0.429870
C1241	C124	0.127310	0.772810	0.480080
C1251	C125	0.069380	0.865580	0.566800
C1261	C126	0.113480	0.908180	0.554760
C1271	C127	0.035110	0.865170	0.615820
C1281	C128	0.044130	0.905370	0.648280
C1291	C129	0.974460	0.868900	0.704710
C1301	C130	0.969250	0.825670	0.668760
C1311	C131	0.668850	0.028890	0.168510
C1321	C132	0.614500	0.025520	0.200120
C1331	C133	0.578260	0.973740	0.141480
C1341	C134	0.629160	0.978000	0.110330
C1351	C135	0.634780	0.948480	0.061300
C1361	C136	0.583030	0.922270	0.042300
C1371	C137	0.732920	0.883220	0.983710
C1381	C138	0.736200	0.851600	0.936920
C1391	C139	0.787900	0.815400	0.925580
C1401	C140	0.784070	0.784290	0.881580
C1411	C141	0.739560	0.787200	0.850990
C1421	C142	0.688550	0.819570	0.868220
C1431	C143	0.684600	0.853860	0.910200
C1441	C144	0.830660	0.848360	0.097160
C1451	C145	0.827650	0.815250	0.144010
C1461	C146	0.778070	0.789490	0.160410
C1471	C147	0.731620	0.787180	0.130390
C1481	C148	0.732880	0.817820	0.080350
C1491	C149	0.782870	0.845770	0.068880
C1501	C150	0.782630	0.878330	0.019200
C1511	C151	0.879330	0.930790	0.928760
C1521	C152	0.928130	0.887910	0.945570
C1531	C153	0.881610	0.964450	0.881360
C1541	C154	0.928660	0.956740	0.846820
C1551	C155	0.886810	0.023110	0.789920
C1561	C156	0.840220	0.032180	0.825480
C1571	C157	0.429420	0.417580	0.954600
C1581	C158	0.455100	0.404220	0.906770
C1591	C159	0.387570	0.469790	0.865460
C1601	C160	0.361060	0.480360	0.915000
C1611	C161	0.315040	0.525860	0.916870
C1621	C162	0.283600	0.554520	0.869370
C1631	C163	0.244320	0.619460	0.997690
C1641	C164	0.190830	0.662210	0.995350
C1651	C165	0.155220	0.670320	0.954480
C1661	C166	0.106000	0.708800	0.957370
C1671	C167	0.092180	0.739340	0.000190
C1681	C168	0.127920	0.731860	0.040700
C1691	C169	0.177360	0.692800	0.038550
C1701	C170	0.344240	0.680720	0.973250
C1711	C171	0.389110	0.720470	0.959010
C1721	C172	0.423560	0.726800	0.996790
C1731	C173	0.418080	0.700480	0.044950
C1741	C174	0.372460	0.666680	0.058430
C1751	C175	0.334380	0.656740	0.024650
C1761	C176	0.286490	0.624490	0.031080
C1771	C177	0.209540	0.566020	0.134010
C1781	C178	0.233130	0.599070	0.174700
C1791	C179	0.161110	0.532110	0.146750
C1801	C180	0.124760	0.536440	0.191660
C1811	C181	0.069340	0.465500	0.168790
C1821	C182	0.105140	0.456920	0.127730
C1831	C183	0.383430	0.504370	0.119970
C1841	C184	0.400490	0.507410	0.173470
C1851	C185	0.334400	0.440060	0.194720
C1861	C186	0.317060	0.437520	0.143580
C1871	C187	0.270010	0.406070	0.128020
C1881	C188	0.241970	0.372210	0.172100
C1891	C189	0.210920	0.358680	0.029160
C1901	C190	0.165050	0.327310	0.016480
C1911	C191	0.121340	0.318280	0.053860
C1921	C192	0.074810	0.287250	0.043670
C1931	C193	0.072080	0.265760	0.996500
C1941	C194	0.115140	0.275100	0.958660
C1951	C195	0.161780	0.305520	0.968900
C1961	C196	0.331280	0.329380	0.924420
C1971	C197	0.379720	0.291560	0.915580
C1981	C198	0.402500	0.256500	0.955290
C1991	C199	0.376270	0.259190	0.003590
C2001	C200	0.327290	0.296770	0.012650
C2011	C201	0.304810	0.332250	0.972770
C2021	C202	0.252060	0.370300	0.985950
C2031	C203	0.157880	0.466240	0.932170
C2041	C204	0.158570	0.442770	0.877650
C2051	C205	0.108130	0.504590	0.946250
C2061	C206	0.062830	0.515470	0.918320
C2071	C207	0.016990	0.575790	0.973910
C2081	C208	0.063540	0.568000	0.002680
C2091	C209	0.685080	0.974620	0.838320
C2101	C210	0.638330	0.977850	0.810870
C2111	C211	0.590430	0.043250	0.864230
C2121	C212	0.635280	0.039540	0.894140
C2131	C213	0.634960	0.071440	0.938970
C2141	C214	0.577900	0.107540	0.957440
C2151	C215	0.719570	0.126710	0.015980
C2161	C216	0.716080	0.158640	0.062360
C2171	C217	0.669710	0.153030	0.097570
C2181	C218	0.666790	0.182990	0.141890
C2191	C219	0.710930	0.217310	0.150970
C2201	C220	0.757310	0.222790	0.115350
C2211	C221	0.759550	0.193170	0.071120
C2221	C222	0.819740	0.155000	0.896400
C2231	C223	0.817440	0.187700	0.849370
C2241	C224	0.767980	0.224880	0.839380
C2251	C225	0.723750	0.229050	0.875290
C2261	C226	0.722800	0.196600	0.918590
C2271	C227	0.770860	0.160300	0.929870
C2281	C228	0.772810	0.127310	0.980080
C2291	C229	0.865580	0.069380	0.066800
C2301	C230	0.908180	0.113480	0.054760
C2311	C231	0.865170	0.035110	0.115820
C2321	C232	0.905370	0.044130	0.148280
C2331	C233	0.868900	0.974460	0.204710
C2341	C234	0.825670	0.969250	0.168760
C2351	C235	0.028890	0.668850	0.668510
C2361	C236	0.025520	0.614500	0.700120
C2371	C237	0.973740	0.578260	0.641480
C2381	C238	0.978000	0.629160	0.610330
C2391	C239	0.948480	0.634780	0.561300
C2401	C240	0.922270	0.583030	0.542300
C2411	C241	0.883220	0.732920	0.483710
C2421	C242	0.851600	0.736200	0.436920
C2431	C243	0.815400	0.787900	0.425580
C2441	C244	0.784290	0.784070	0.381580
C2451	C245	0.787200	0.739560	0.350990
C2461	C246	0.819570	0.688550	0.368220
C2471	C247	0.853860	0.684600	0.410200
C2481	C248	0.848360	0.830660	0.597160
C2491	C249	0.815250	0.827650	0.644010
C2501	C250	0.789490	0.778070	0.660410
C2511	C251	0.787180	0.731620	0.630390
C2521	C252	0.817820	0.732880	0.580350
C2531	C253	0.845770	0.782870	0.568880
C2541	C254	0.878330	0.782630	0.519200
C2551	C255	0.930790	0.879330	0.428760
C2561	C256	0.887910	0.928130	0.445570
C2571	C257	0.964450	0.881610	0.381360
C2581	C258	0.956740	0.928660	0.346820
C2591	C259	0.023110	0.886810	0.289920
C2601	C260	0.032180	0.840220	0.325480
C2611	C261	0.417580	0.429420	0.454600
C2621	C262	0.404220	0.455100	0.406770
C2631	C263	0.469790	0.387570	0.365460
C2641	C264	0.480360	0.361060	0.415000
C2651	C265	0.525860	0.315040	0.416870
C2661	C266	0.554520	0.283600	0.369370
C2671	C267	0.619460	0.244320	0.497690
C2681	C268	0.662210	0.190830	0.495350
C2691	C269	0.670320	0.155220	0.454480
C2701	C270	0.708800	0.106000	0.457370
C2711	C271	0.739340	0.092180	0.500190
C2721	C272	0.731860	0.127920	0.540700
C2731	C273	0.692800	0.177360	0.538550
C2741	C274	0.680720	0.344240	0.473250
C2751	C275	0.720470	0.389110	0.459010
C2761	C276	0.726800	0.423560	0.496790
C2771	C277	0.700480	0.418080	0.544950
C2781	C278	0.666680	0.372460	0.558430
C2791	C279	0.656740	0.334380	0.524650
C2801	C280	0.624490	0.286490	0.531080
C2811	C281	0.566020	0.209540	0.634010
C2821	C282	0.599070	0.233130	0.674700
C2831	C283	0.532110	0.161110	0.646750
C2841	C284	0.536440	0.124760	0.691660
C2851	C285	0.465500	0.069340	0.668790
C2861	C286	0.456920	0.105140	0.627730
C2871	C287	0.504370	0.383430	0.619970
C2881	C288	0.507410	0.400490	0.673470
C2891	C289	0.440060	0.334400	0.694720
C2901	C290	0.437520	0.317060	0.643580
C2911	C291	0.406070	0.270010	0.628020
C2921	C292	0.372210	0.241970	0.672100
C2931	C293	0.358680	0.210920	0.529160
C2941	C294	0.327310	0.165050	0.516480
C2951	C295	0.318280	0.121340	0.553860
C2961	C296	0.287250	0.074810	0.543670
C2971	C297	0.265760	0.072080	0.496500
C2981	C298	0.275100	0.115140	0.458660
C2991	C299	0.305520	0.161780	0.468900
C3001	C300	0.329380	0.331280	0.424420
C3011	C301	0.291560	0.379720	0.415580
C3021	C302	0.256500	0.402500	0.455290
C3031	C303	0.259190	0.376270	0.503590
C3041	C304	0.296770	0.327290	0.512650
C3051	C305	0.332250	0.304810	0.472770
C3061	C306	0.370300	0.252060	0.485950
C3071	C307	0.466240	0.157880	0.432170
C3081	C308	0.442770	0.158570	0.377650
C3091	C309	0.504590	0.108130	0.446250
C3101	C310	0.515470	0.062830	0.418320
C3111	C311	0.575790	0.016990	0.473910
C3121	C312	0.568000	0.063540	0.502680
C3131	C313	0.025380	0.314920	0.661680
C3141	C314	0.022150	0.361670	0.689130
C3151	C315	0.956750	0.409570	0.635770
C3161	C316	0.960460	0.364720	0.605860
C3171	C317	0.928560	0.365040	0.561030
C3181	C318	0.892460	0.422100	0.542560
C3191	C319	0.873290	0.280430	0.484020
C3201	C320	0.841360	0.283920	0.437640
C3211	C321	0.846970	0.330290	0.402430
C3221	C322	0.817010	0.333210	0.358110
C3231	C323	0.782690	0.289070	0.349030
C3241	C324	0.777210	0.242690	0.384650
C3251	C325	0.806830	0.240450	0.428880
C3261	C326	0.845000	0.180260	0.603600
C3271	C327	0.812300	0.182560	0.650630
C3281	C328	0.775120	0.232020	0.660620
C3291	C329	0.770950	0.276250	0.624710
C3301	C330	0.803400	0.277200	0.581410
C3311	C331	0.839700	0.229140	0.570130
C3321	C332	0.872690	0.227190	0.519920
C3331	C333	0.930620	0.134420	0.433200
C3341	C334	0.886520	0.091820	0.445240
C3351	C335	0.964890	0.134830	0.384180
C3361	C336	0.955870	0.094630	0.351720
C3371	C337	0.025540	0.131100	0.295290
C3381	C338	0.030750	0.174330	0.331240
C3391	C339	0.331150	0.971110	0.831490
C3401	C340	0.385500	0.974480	0.799880
C3411	C341	0.421740	0.026260	0.858520
C3421	C342	0.370840	0.022000	0.889670
C3431	C343	0.365220	0.051520	0.938700
C3441	C344	0.416970	0.077730	0.957700
C3451	C345	0.267080	0.116780	0.016290
C3461	C346	0.263800	0.148400	0.063080
C3471	C347	0.212100	0.184600	0.074420
C3481	C348	0.215930	0.215710	0.118420
C3491	C349	0.260440	0.212800	0.149010
C3501	C350	0.311450	0.180430	0.131780
C3511	C351	0.315400	0.146140	0.089800
C3521	C352	0.169340	0.151640	0.902840
C3531	C353	0.172350	0.184750	0.855990
C3541	C354	0.221930	0.210510	0.839590
C3551	C355	0.268380	0.212820	0.869610
C3561	C356	0.267120	0.182180	0.919650
C3571	C357	0.217130	0.154230	0.931120
C3581	C358	0.217370	0.121670	0.980800
C3591	C359	0.120670	0.069210	0.071240
C3601	C360	0.071870	0.112090	0.054430
C3611	C361	0.118390	0.035550	0.118640
C3621	C362	0.071340	0.043260	0.153180
C3631	C363	0.113190	0.976890	0.210080
C3641	C364	0.159780	0.967820	0.174520
C3651	C365	0.570580	0.582420	0.045400
C3661	C366	0.544900	0.595780	0.093230
C3671	C367	0.612430	0.530210	0.134540
C3681	C368	0.638940	0.519640	0.085000
C3691	C369	0.684960	0.474140	0.083130
C3701	C370	0.716400	0.445480	0.130630
C3711	C371	0.755680	0.380540	0.002310
C3721	C372	0.809170	0.337790	0.004650
C3731	C373	0.844780	0.329680	0.045520
C3741	C374	0.894000	0.291200	0.042630
C3751	C375	0.907820	0.260660	0.999810
C3761	C376	0.872080	0.268140	0.959300
C3771	C377	0.822640	0.307200	0.961450
C3781	C378	0.655760	0.319280	0.026750
C3791	C379	0.610890	0.279530	0.040990
C3801	C380	0.576440	0.273200	0.003210
C3811	C381	0.581920	0.299520	0.955050
C3821	C382	0.627540	0.333320	0.941570
C3831	C383	0.665620	0.343260	0.975350
C3841	C384	0.713510	0.375510	0.968920
C3851	C385	0.790460	0.433980	0.865990
C3861	C386	0.766870	0.400930	0.825300
C3871	C387	0.838890	0.467890	0.853250
C3881	C388	0.875240	0.463560	0.808340
C3891	C389	0.930660	0.534500	0.831210
C3901	C390	0.894860	0.543080	0.872270
C3911	C391	0.616570	0.495630	0.880030
C3921	C392	0.599510	0.492590	0.826530
C3931	C393	0.665600	0.559940	0.805280
C3941	C394	0.682940	0.562480	0.856420
C3951	C395	0.729990	0.593930	0.871980
C3961	C396	0.758030	0.627790	0.827900
C3971	C397	0.789080	0.641320	0.970840
C3981	C398	0.834950	0.672690	0.983520
C3991	C399	0.878660	0.681720	0.946140
C4001	C400	0.925190	0.712750	0.956330
C4011	C401	0.927920	0.734240	0.003500
C4021	C402	0.884860	0.724900	0.041340
C4031	C403	0.838220	0.694480	0.031100
C4041	C404	0.668720	0.670620	0.075580
C4051	C405	0.620280	0.708440	0.084420
C4061	C406	0.597500	0.743500	0.044710
C4071	C407	0.623730	0.740810	0.996410
C4081	C408	0.672710	0.703230	0.987350
C4091	C409	0.695190	0.667750	0.027230
C4101	C410	0.747940	0.629700	0.014050
C4111	C411	0.842120	0.533760	0.067830
C4121	C412	0.841430	0.557230	0.122350
C4131	C413	0.891870	0.495410	0.053750
C4141	C414	0.937170	0.484530	0.081680
C4151	C415	0.983010	0.424210	0.026090
C4161	C416	0.936460	0.432000	0.997320
N11	N1	0.315840	0.993960	0.120440
N21	N2	0.408350	0.989630	0.178890
N31	N3	0.318000	0.930440	0.037040
N41	N4	0.324740	0.898180	0.993520
N51	N5	0.179790	0.901550	0.007750
N61	N6	0.180820	0.933820	0.960110
N71	N7	0.175130	0.003290	0.874900
N81	N8	0.093230	0.987390	0.806430
N91	N9	0.996050	0.326130	0.375720
N101	N10	0.003370	0.427650	0.314630
N111	N11	0.054800	0.315260	0.460500
N121	N12	0.085040	0.313580	0.505330
N131	N13	0.094110	0.169530	0.495470
N141	N14	0.065110	0.169270	0.542590
N151	N15	0.996410	0.162210	0.626920
N161	N16	0.014800	0.068220	0.698180
N171	N17	0.542500	0.619400	0.544540
N181	N18	0.568070	0.567190	0.636520
N191	N19	0.453800	0.703020	0.540250
N201	N20	0.414530	0.752010	0.540390
N211	N21	0.400760	0.720760	0.419470
N221	N22	0.432000	0.768120	0.410610
N231	N23	0.507000	0.850400	0.385960
N241	N24	0.494720	0.921140	0.297150
N251	N25	0.525050	0.656970	0.391970
N261	N26	0.524540	0.623060	0.291870
N271	N27	0.595440	0.736140	0.419120
N281	N28	0.628520	0.784020	0.426670
N291	N29	0.584800	0.752600	0.546830
N301	N30	0.549810	0.803170	0.534180
N311	N31	0.469250	0.891710	0.511530
N321	N32	0.449170	0.983710	0.570050
N331	N33	0.006040	0.684160	0.379560
N341	N34	0.010370	0.591650	0.321110
N351	N35	0.069560	0.682000	0.462960
N361	N36	0.101820	0.675260	0.506480
N371	N37	0.098450	0.820210	0.492250
N381	N38	0.066180	0.819180	0.539890
N391	N39	0.996710	0.824870	0.625100
N401	N40	0.012610	0.906770	0.693570
N411	N41	0.673870	0.003950	0.124280
N421	N42	0.572350	0.996630	0.185370
N431	N43	0.684740	0.945200	0.039500
N441	N44	0.686420	0.914960	0.994670
N451	N45	0.830470	0.905890	0.004530
N461	N46	0.830730	0.934890	0.957410
N471	N47	0.837790	0.003590	0.873080
N481	N48	0.931780	0.985200	0.801820
N491	N49	0.380600	0.457500	0.955460
N501	N50	0.432810	0.431930	0.863480
N511	N51	0.296980	0.546200	0.959750
N521	N52	0.247990	0.585470	0.959610
N531	N53	0.279240	0.599240	0.080530
N541	N54	0.231880	0.568000	0.089390
N551	N55	0.149600	0.493000	0.114040
N561	N56	0.078860	0.505280	0.202850
N571	N57	0.343030	0.474950	0.108030
N581	N58	0.376940	0.475460	0.208130
N591	N59	0.263860	0.404560	0.080880
N601	N60	0.215980	0.371480	0.073330
N611	N61	0.247400	0.415200	0.953170
N621	N62	0.196830	0.450190	0.965820
N631	N63	0.108290	0.530750	0.988470
N641	N64	0.016290	0.550830	0.929950
N651	N65	0.684160	0.006040	0.879560
N661	N66	0.591650	0.010370	0.821110
N671	N67	0.682000	0.069560	0.962960
N681	N68	0.675260	0.101820	0.006480
N691	N69	0.820210	0.098450	0.992250
N701	N70	0.819180	0.066180	0.039890
N711	N71	0.824870	0.996710	0.125100
N721	N72	0.906770	0.012610	0.193570
N731	N73	0.003950	0.673870	0.624280
N741	N74	0.996630	0.572350	0.685370
N751	N75	0.945200	0.684740	0.539500
N761	N76	0.914960	0.686420	0.494670
N771	N77	0.905890	0.830470	0.504530
N781	N78	0.934890	0.830730	0.457410
N791	N79	0.003590	0.837790	0.373080
N801	N80	0.985200	0.931780	0.301820
N811	N81	0.457500	0.380600	0.455460
N821	N82	0.431930	0.432810	0.363480
N831	N83	0.546200	0.296980	0.459750
N841	N84	0.585470	0.247990	0.459610
N851	N85	0.599240	0.279240	0.580530
N861	N86	0.568000	0.231880	0.589390
N871	N87	0.493000	0.149600	0.614040
N881	N88	0.505280	0.078860	0.702850
N891	N89	0.474950	0.343030	0.608030
N901	N90	0.475460	0.376940	0.708130
N911	N91	0.404560	0.263860	0.580880
N921	N92	0.371480	0.215980	0.573330
N931	N93	0.415200	0.247400	0.453170
N941	N94	0.450190	0.196830	0.465820
N951	N95	0.530750	0.108290	0.488470
N961	N96	0.550830	0.016290	0.429950
N971	N97	0.993960	0.315840	0.620440
N981	N98	0.989630	0.408350	0.678890
N991	N99	0.930440	0.318000	0.537040
N1001	N100	0.898180	0.324740	0.493520
N1011	N101	0.901550	0.179790	0.507750
N1021	N102	0.933820	0.180820	0.460110
N1031	N103	0.003290	0.175130	0.374900
N1041	N104	0.987390	0.093230	0.306430
N1051	N105	0.326130	0.996050	0.875720
N1061	N106	0.427650	0.003370	0.814630
N1071	N107	0.315260	0.054800	0.960500
N1081	N108	0.313580	0.085040	0.005330
N1091	N109	0.169530	0.094110	0.995470
N1101	N110	0.169270	0.065110	0.042590
N1111	N111	0.162210	0.996410	0.126920
N1121	N112	0.068220	0.014800	0.198180
N1131	N113	0.619400	0.542500	0.044540
N1141	N114	0.567190	0.568070	0.136520
N1151	N115	0.703020	0.453800	0.040250
N1161	N116	0.752010	0.414530	0.040390
N1171	N117	0.720760	0.400760	0.919470
N1181	N118	0.768120	0.432000	0.910610
N1191	N119	0.850400	0.507000	0.885960
N1201	N120	0.921140	0.494720	0.797150
N1211	N121	0.656970	0.525050	0.891970
N1221	N122	0.623060	0.524540	0.791870
N1231	N123	0.736140	0.595440	0.919120
N1241	N124	0.784020	0.628520	0.926670
N1251	N125	0.752600	0.584800	0.046830
N1261	N126	0.803170	0.549810	0.034180
N1271	N127	0.891710	0.469250	0.011530
N1281	N128	0.983710	0.449170	0.070050
B11	B1	0.489440	0.105060	0.087890
F11	F1	0.477750	0.145710	0.051080
F21	F2	0.539870	0.075690	0.075990
F31	F3	0.447760	0.069480	0.094080
F41	F4	0.494400	0.131080	0.131430
B21	B2	0.365420	0.988180	0.352190
F51	F5	0.415520	0.006480	0.372100
F61	F6	0.375550	0.984890	0.298460
F71	F7	0.317720	0.028320	0.362250
F81	F8	0.354810	0.933310	0.373670
B31	B3	0.992870	0.809130	0.842400
F91	F9	0.004670	0.799610	0.892680
F101	F10	0.934110	0.825470	0.838990
F111	F11	0.006170	0.759290	0.817330
F121	F12	0.023620	0.853420	0.820400
B41	B4	0.193560	0.499900	0.322500
F131	F13	0.212860	0.474340	0.278390
F141	F14	0.154000	0.466800	0.346030
F151	F15	0.239870	0.503070	0.352100
F161	F16	0.168830	0.554970	0.311290
B51	B5	0.363140	0.307280	0.278240
F171	F17	0.323680	0.352060	0.292550
F181	F18	0.343180	0.283920	0.237030
F191	F19	0.366940	0.265620	0.317920
F201	F20	0.417060	0.328360	0.266780
B61	B6	0.012670	0.912350	0.090630
F211	F21	0.065690	0.934610	0.088010
F221	F22	0.012520	0.857400	0.074540
F231	F23	0.989200	0.913480	0.139860
F241	F24	0.976710	0.950870	0.062950
B71	B7	0.430200	0.330000	0.113400
F251	F25	0.445120	0.359620	0.154190
F261	F26	0.371100	0.322920	0.121000
F271	F27	0.460920	0.276340	0.114850
F281	F28	0.440630	0.360850	0.070000
B81	B8	0.894940	0.510560	0.412110
F291	F29	0.854290	0.522250	0.448920
F301	F30	0.924310	0.460130	0.424010
F311	F31	0.930520	0.552240	0.405920
F321	F32	0.868920	0.505600	0.368570
B91	B9	0.011820	0.634580	0.147810
F331	F33	0.993520	0.584480	0.127900
F341	F34	0.015110	0.624450	0.201540
F351	F35	0.971680	0.682280	0.137750
F361	F36	0.066690	0.645190	0.126330
B101	B10	0.190870	0.007130	0.657600
F371	F37	0.200390	0.995330	0.607320
F381	F38	0.174530	0.065890	0.661010
F391	F39	0.240710	0.993830	0.682670
F401	F40	0.146580	0.976380	0.679600
B111	B11	0.500100	0.806440	0.177500
F411	F41	0.525660	0.787140	0.221610
F421	F42	0.533200	0.846000	0.153970
F431	F43	0.496930	0.760130	0.147900
F441	F44	0.445030	0.831170	0.188710
B121	B12	0.692720	0.636860	0.221760
F451	F45	0.647940	0.676320	0.207450
F461	F46	0.716080	0.656820	0.262970
F471	F47	0.734380	0.633060	0.182080
F481	F48	0.671640	0.582940	0.233220
B131	B13	0.087650	0.987330	0.409370
F491	F49	0.065390	0.934310	0.411990
F501	F50	0.142600	0.987480	0.425460
F511	F51	0.086520	0.010800	0.360140
F521	F52	0.049130	0.023290	0.437050
B141	B14	0.670000	0.569800	0.386600
F531	F53	0.640380	0.554880	0.345810
F541	F54	0.677080	0.628900	0.379000
F551	F55	0.723660	0.539080	0.385150
F561	F56	0.639150	0.559370	0.430000
B151	B15	0.510560	0.894940	0.912110
F571	F57	0.522250	0.854290	0.948920
F581	F58	0.460130	0.924310	0.924010
F591	F59	0.552240	0.930520	0.905920
F601	F60	0.505600	0.868920	0.868570
B161	B16	0.634580	0.011820	0.647810
F611	F61	0.584480	0.993520	0.627900
F621	F62	0.624450	0.015110	0.701540
F631	F63	0.682280	0.971680	0.637750
F641	F64	0.645190	0.066690	0.626330
B171	B17	0.007130	0.190870	0.157600
F651	F65	0.995330	0.200390	0.107320
F661	F66	0.065890	0.174530	0.161010
F671	F67	0.993830	0.240710	0.182670
F681	F68	0.976380	0.146580	0.179600
B181	B18	0.806440	0.500100	0.677500
F691	F69	0.787140	0.525660	0.721610
F701	F70	0.846000	0.533200	0.653970
F711	F71	0.760130	0.496930	0.647900
F721	F72	0.831170	0.445030	0.688710
B191	B19	0.636860	0.692720	0.721760
F731	F73	0.676320	0.647940	0.707450
F741	F74	0.656820	0.716080	0.762970
F751	F75	0.633060	0.734380	0.682080
F761	F76	0.582940	0.671640	0.733220
B201	B20	0.987330	0.087650	0.909370
F771	F77	0.934310	0.065390	0.911990
F781	F78	0.987480	0.142600	0.925460
F791	F79	0.010800	0.086520	0.860140
F801	F80	0.023290	0.049130	0.937050
B211	B21	0.569800	0.670000	0.886600
F811	F81	0.554880	0.640380	0.845810
F821	F82	0.628900	0.677080	0.879000
F831	F83	0.539080	0.723660	0.885150
F841	F84	0.559370	0.639150	0.930000
B221	B22	0.105060	0.489440	0.587890
F851	F85	0.145710	0.477750	0.551080
F861	F86	0.075690	0.539870	0.575990
F871	F87	0.069480	0.447760	0.594080
F881	F88	0.131080	0.494400	0.631430
B231	B23	0.988180	0.365420	0.852190
F891	F89	0.006480	0.415520	0.872100
F901	F90	0.984890	0.375550	0.798460
F911	F91	0.028320	0.317720	0.862250
F921	F92	0.933310	0.354810	0.873670
B241	B24	0.809130	0.992870	0.342400
F931	F93	0.799610	0.004670	0.392680
F941	F94	0.825470	0.934110	0.338990
F951	F95	0.759290	0.006170	0.317330
F961	F96	0.853420	0.023620	0.320400
B251	B25	0.499900	0.193560	0.822500
F971	F97	0.474340	0.212860	0.778390
F981	F98	0.466800	0.154000	0.846030
F991	F99	0.503070	0.239870	0.852100
F1001	F100	0.554970	0.168830	0.811290
B261	B26	0.307280	0.363140	0.778240
F1011	F101	0.352060	0.323680	0.792550
F1021	F102	0.283920	0.343180	0.737030
F1031	F103	0.265620	0.366940	0.817920
F1041	F104	0.328360	0.417060	0.766780
B271	B27	0.912350	0.012670	0.590630
F1051	F105	0.934610	0.065690	0.588010
F1061	F106	0.857400	0.012520	0.574540
F1071	F107	0.913480	0.989200	0.639860
F1081	F108	0.950870	0.976710	0.562950
B281	B28	0.330000	0.430200	0.613400
F1091	F109	0.359620	0.445120	0.654190
F1101	F110	0.322920	0.371100	0.621000
F1111	F111	0.276340	0.460920	0.614850
F1121	F112	0.360850	0.440630	0.570000
