data_TINFIH_clean_PM
_symmetry_space_group_name_H-M	'P1'
_cell_length_a	10.327000
_cell_length_b	12.129000
_cell_length_c	15.073000
_cell_angle_alpha	90.000000
_cell_angle_beta	106.288000
_cell_angle_gamma	90.000000
_symmetry_Int_Tables_number 1

loop_
_symmetry_equiv_pos_as_xyz
'x,y,z'

loop_
_atom_site_label
_atom_site_type_symbol
_atom_site_fract_x
_atom_site_fract_y
_atom_site_fract_z
U11	U1	0.161760	0.070600	0.572470
U21	U2	0.223510	0.603990	0.259140
U31	U3	0.276490	0.103990	0.240860
U41	U4	0.338240	0.570600	0.927530
U51	U5	0.723510	0.896010	0.759140
U61	U6	0.661760	0.429400	0.072470
U71	U7	0.838240	0.929400	0.427530
U81	U8	0.776490	0.396010	0.740860
H11	H1	0.349400	0.812700	0.431700
H21	H2	0.119500	0.935300	0.009500
H31	H3	0.380500	0.435300	0.490500
H41	H4	0.619500	0.564700	0.509500
H51	H5	0.150600	0.312700	0.068300
H61	H6	0.880500	0.064700	0.990500
H71	H7	0.650600	0.187300	0.568300
H81	H8	0.849400	0.687300	0.931700
C11	C1	0.914700	0.133200	0.980700
C21	C2	0.048500	0.444000	0.917100
C31	C3	0.006600	0.335200	0.946400
C41	C4	0.575900	0.219600	0.527100
C51	C5	0.730700	0.154600	0.830300
C61	C6	0.951500	0.556000	0.082900
C71	C7	0.852700	0.193500	0.903700
C81	C8	0.585300	0.633200	0.519300
C91	C9	0.493400	0.835200	0.553600
C101	C10	0.993400	0.664800	0.053600
C111	C11	0.968600	0.823900	0.954800
C121	C12	0.647300	0.693500	0.596300
C131	C13	0.230700	0.345400	0.330300
C141	C14	0.031400	0.176100	0.045200
C151	C15	0.424100	0.780400	0.472900
C161	C16	0.085300	0.866800	0.019300
C171	C17	0.451500	0.944000	0.582900
C181	C18	0.075900	0.280400	0.027100
C191	C19	0.269300	0.845400	0.169700
C201	C20	0.506600	0.164800	0.446400
C211	C21	0.769300	0.654600	0.669700
C221	C22	0.352700	0.306500	0.403700
C231	C23	0.147300	0.806500	0.096300
C241	C24	0.548500	0.056000	0.417100
C251	C25	0.414700	0.366800	0.480700
C261	C26	0.531400	0.323900	0.545200
C271	C27	0.924100	0.719600	0.972900
C281	C28	0.468600	0.676100	0.454800
N11	N1	0.395100	0.206700	0.385100
N21	N2	0.604900	0.793300	0.614900
N31	N3	0.895100	0.293300	0.885100
N41	N4	0.104900	0.706700	0.114900
O11	O1	0.688000	0.056900	0.836600
O21	O2	0.429400	0.445400	0.047000
O31	O3	0.070600	0.945400	0.453000
O41	O4	0.589600	0.380400	0.620200
O51	O5	0.648600	0.006700	0.468400
O61	O6	0.321300	0.780300	0.233600
O71	O7	0.851400	0.506700	0.031600
O81	O8	0.089600	0.119600	0.120200
O91	O9	0.678700	0.219700	0.766400
O101	O10	0.148600	0.493300	0.968400
O111	O11	0.570600	0.554600	0.953000
O121	O12	0.812000	0.556900	0.663400
O131	O13	0.351400	0.993300	0.531600
O141	O14	0.821300	0.719700	0.733600
O151	O15	0.410400	0.619600	0.379800
O161	O16	0.477000	0.019300	0.340700
O171	O17	0.188000	0.443100	0.336600
O181	O18	0.178700	0.280300	0.266400
O191	O19	0.910400	0.880400	0.879800
O201	O20	0.523000	0.980700	0.659300
O211	O21	0.023000	0.519300	0.159300
O221	O22	0.929400	0.054600	0.547000
O231	O23	0.312000	0.943100	0.163400
O241	O24	0.977000	0.480700	0.840700
