data_TIQFIJ_clean_PM
_symmetry_space_group_name_H-M	'P1'
_cell_length_a	8.999900
_cell_length_b	9.112300
_cell_length_c	9.493200
_cell_angle_alpha	90.837000
_cell_angle_beta	94.231000
_cell_angle_gamma	94.178000
_symmetry_Int_Tables_number 1

loop_
_symmetry_equiv_pos_as_xyz
'x,y,z'

loop_
_atom_site_label
_atom_site_type_symbol
_atom_site_fract_x
_atom_site_fract_y
_atom_site_fract_z
Ga11	Ga1	0.283060	0.073080	0.617280
Ga21	Ga2	0.610570	0.341470	0.133510
Ga31	Ga3	0.191820	0.099750	0.092240
P11	P1	0.439310	0.145480	0.336400
P21	P2	0.366960	0.299980	0.883440
P31	P3	0.127590	0.863550	0.862300
O11	O1	0.341500	0.179000	0.455100
O21	O2	0.347100	0.061700	0.214000
O31	O3	0.567000	0.057900	0.382900
O41	O4	0.497900	0.297600	0.279800
O51	O5	0.235600	0.244200	0.968300
O61	O6	0.366800	0.228700	0.739700
O71	O7	0.514300	0.273100	0.967400
O81	O8	0.352200	0.462900	0.867000
O91	O9	0.199500	0.716400	0.853000
O101	O10	0.135800	0.915700	0.019000
O111	O11	0.202900	0.978400	0.778000
O121	O12	0.961200	0.832300	0.812700
O131	O13	0.077300	0.159500	0.588700
O141	O14	0.841200	0.094900	0.510600
C11	C1	0.976200	0.073100	0.528500
Ga41	Ga4	0.716940	0.926920	0.382720
Ga51	Ga5	0.389430	0.658530	0.866490
Ga61	Ga6	0.808180	0.900250	0.907760
P41	P4	0.560690	0.854520	0.663600
P51	P5	0.633040	0.700020	0.116560
P61	P6	0.872410	0.136450	0.137700
O151	O15	0.658500	0.821000	0.544900
O161	O16	0.652900	0.938300	0.786000
O171	O17	0.433000	0.942100	0.617100
O181	O18	0.502100	0.702400	0.720200
O191	O19	0.764400	0.755800	0.031700
O201	O20	0.633200	0.771300	0.260300
O211	O21	0.485700	0.726900	0.032600
O221	O22	0.647800	0.537100	0.133000
O231	O23	0.800500	0.283600	0.147000
O241	O24	0.864200	0.084300	0.981000
O251	O25	0.797100	0.021600	0.222000
O261	O26	0.038800	0.167700	0.187300
O271	O27	0.922700	0.840500	0.411300
O281	O28	0.158800	0.905100	0.489400
C21	C2	0.023800	0.926900	0.471500
