data_TIQGIK_clean_PM
_symmetry_space_group_name_H-M	'P1'
_cell_length_a	10.045200
_cell_length_b	14.160100
_cell_length_c	10.229400
_cell_angle_alpha	92.258000
_cell_angle_beta	90.000000
_cell_angle_gamma	90.000000
_symmetry_Int_Tables_number 1

loop_
_symmetry_equiv_pos_as_xyz
'x,y,z'

loop_
_atom_site_label
_atom_site_type_symbol
_atom_site_fract_x
_atom_site_fract_y
_atom_site_fract_z
Cu11	Cu1	0.248830	0.285350	0.925620
Cu21	Cu2	0.232280	0.788510	0.932350
Cu31	Cu3	0.876590	0.770340	0.700640
Cu41	Cu4	0.406640	0.781720	0.656050
Cu51	Cu5	0.281110	0.664360	0.407690
Cu61	Cu6	0.263860	0.876170	0.441090
Cu71	Cu7	0.257340	0.287440	0.437930
Cu81	Cu8	0.751170	0.285350	0.425620
Cu91	Cu9	0.767720	0.788510	0.432350
Cu101	Cu10	0.123410	0.770340	0.200640
Cu111	Cu11	0.593360	0.781720	0.156050
Cu121	Cu12	0.718890	0.664360	0.907690
Cu131	Cu13	0.736140	0.876170	0.941090
Cu141	Cu14	0.742660	0.287440	0.937930
H11	H1	0.364800	0.492600	0.777200
H21	H2	0.175000	0.521100	0.608900
H31	H3	0.005300	0.450400	0.707100
H41	H4	0.059400	0.507100	0.969100
H51	H5	0.124600	0.093100	0.093100
H61	H6	0.316800	0.053200	0.255600
H71	H7	0.497200	0.106100	0.148400
H81	H8	0.429600	0.066700	0.890200
H91	H9	0.023000	0.839000	0.995000
H101	H10	0.929000	0.768000	0.932000
H111	H11	0.395000	0.871000	0.869000
H121	H12	0.635200	0.492600	0.277200
H131	H13	0.825000	0.521100	0.108900
H141	H14	0.994700	0.450400	0.207100
H151	H15	0.940600	0.507100	0.469100
H161	H16	0.875400	0.093100	0.593100
H171	H17	0.683200	0.053200	0.755600
H181	H18	0.502800	0.106100	0.648400
H191	H19	0.570400	0.066700	0.390200
H201	H20	0.977000	0.839000	0.495000
H211	H21	0.071000	0.768000	0.432000
H221	H22	0.605000	0.871000	0.369000
C11	C1	0.275000	0.462500	0.768100
C21	C2	0.176500	0.531600	0.706200
C31	C3	0.044100	0.501900	0.764900
C41	C4	0.080800	0.459700	0.897100
C51	C5	0.284400	0.372000	0.683400
C61	C6	0.218700	0.632400	0.742300
C71	C7	0.942700	0.581600	0.778400
C81	C8	0.001700	0.369200	0.919100
C91	C9	0.218400	0.116500	0.097500
C101	C10	0.309900	0.042100	0.158700
C111	C11	0.445600	0.060700	0.090600
C121	C12	0.410000	0.110700	0.966600
C131	C13	0.225700	0.210500	0.177500
C141	C14	0.258000	0.943000	0.124400
C151	C15	0.530000	0.973600	0.066700
C161	C16	0.491500	0.200800	0.950800
C171	C17	0.725000	0.462500	0.268100
C181	C18	0.823500	0.531600	0.206200
C191	C19	0.955900	0.501900	0.264900
C201	C20	0.919200	0.459700	0.397100
C211	C21	0.715600	0.372000	0.183400
C221	C22	0.781300	0.632400	0.242300
C231	C23	0.057300	0.581600	0.278400
C241	C24	0.998300	0.369200	0.419100
C251	C25	0.781600	0.116500	0.597500
C261	C26	0.690100	0.042100	0.658700
C271	C27	0.554400	0.060700	0.590600
C281	C28	0.590000	0.110700	0.466600
C291	C29	0.774300	0.210500	0.677500
C301	C30	0.742000	0.943000	0.624400
C311	C31	0.470000	0.973600	0.566700
C321	C32	0.508500	0.200800	0.450800
Cl11	Cl1	0.107570	0.967820	0.530000
Cl21	Cl2	0.626620	0.690910	0.651470
Cl31	Cl3	0.892430	0.967820	0.030000
Cl41	Cl4	0.373380	0.690910	0.151470
O11	O1	0.222100	0.444100	0.894800
O21	O2	0.243600	0.295600	0.727900
O31	O3	0.326200	0.380500	0.568700
O41	O4	0.278800	0.674800	0.653300
O51	O5	0.197100	0.663300	0.855900
O61	O6	0.954100	0.644700	0.696000
O71	O7	0.854300	0.574500	0.863800
O81	O8	0.878400	0.380100	0.918300
O91	O9	0.059700	0.293200	0.939800
O101	O10	0.068000	0.783900	0.023800
O111	O11	0.845600	0.768800	0.886800
O121	O12	0.269300	0.128900	0.968500
O131	O13	0.257900	0.284600	0.122800
O141	O14	0.200500	0.203600	0.297500
O151	O15	0.211000	0.896100	0.215400
O161	O16	0.268200	0.916000	0.007000
O171	O17	0.529300	0.915000	0.156600
O181	O18	0.595400	0.966900	0.961800
O191	O19	0.614000	0.191300	0.972600
O201	O20	0.439000	0.274900	0.912500
O211	O21	0.393800	0.806000	0.839200
O221	O22	0.391200	0.768700	0.467600
O231	O23	0.777900	0.444100	0.394800
O241	O24	0.756400	0.295600	0.227900
O251	O25	0.673800	0.380500	0.068700
O261	O26	0.721200	0.674800	0.153300
O271	O27	0.802900	0.663300	0.355900
O281	O28	0.045900	0.644700	0.196000
O291	O29	0.145700	0.574500	0.363800
O301	O30	0.121600	0.380100	0.418300
O311	O31	0.940300	0.293200	0.439800
O321	O32	0.932000	0.783900	0.523800
O331	O33	0.154400	0.768800	0.386800
O341	O34	0.730700	0.128900	0.468500
O351	O35	0.742100	0.284600	0.622800
O361	O36	0.799500	0.203600	0.797500
O371	O37	0.789000	0.896100	0.715400
O381	O38	0.731800	0.916000	0.507000
O391	O39	0.470700	0.915000	0.656600
O401	O40	0.404600	0.966900	0.461800
O411	O41	0.386000	0.191300	0.472600
O421	O42	0.561000	0.274900	0.412500
O431	O43	0.606200	0.806000	0.339200
O441	O44	0.608800	0.768700	0.967600
