data_TIQGEG01_clean_PM
_symmetry_space_group_name_H-M	'P1'
_cell_length_a	10.141700
_cell_length_b	14.223800
_cell_length_c	10.547400
_cell_angle_alpha	91.795000
_cell_angle_beta	90.000000
_cell_angle_gamma	90.000000
_symmetry_Int_Tables_number 1

loop_
_symmetry_equiv_pos_as_xyz
'x,y,z'

loop_
_atom_site_label
_atom_site_type_symbol
_atom_site_fract_x
_atom_site_fract_y
_atom_site_fract_z
Cu11	Cu1	0.845760	0.000950	0.236460
Cu21	Cu2	0.502260	0.898680	0.474150
Cu31	Cu3	0.345760	0.999050	0.263540
Cu41	Cu4	0.002260	0.101320	0.025850
Cu51	Cu5	0.154240	0.999050	0.763540
Cu61	Cu6	0.497740	0.101320	0.525850
Cu71	Cu7	0.654240	0.000950	0.736460
Cu81	Cu8	0.997740	0.898680	0.974150
Cu91	Cu9	0.000000	0.500000	0.500000
Cu101	Cu10	0.500000	0.500000	0.000000
Cu111	Cu11	0.000000	0.000000	0.500000
Cu121	Cu12	0.500000	0.000000	0.000000
Cu131	Cu13	0.000000	0.500000	0.000000
Cu141	Cu14	0.500000	0.500000	0.500000
H11	H1	0.823000	0.064000	0.425000
H21	H2	0.823000	0.997000	0.017000
H31	H3	0.878000	0.684000	0.345000
H41	H4	0.065000	0.740000	0.199000
H51	H5	0.237000	0.680000	0.287000
H61	H6	0.180000	0.718000	0.538000
H71	H7	0.323000	0.936000	0.075000
H81	H8	0.323000	0.003000	0.483000
H91	H9	0.378000	0.316000	0.155000
H101	H10	0.565000	0.260000	0.301000
H111	H11	0.737000	0.320000	0.213000
H121	H12	0.680000	0.282000	0.962000
H131	H13	0.177000	0.936000	0.575000
H141	H14	0.177000	0.003000	0.983000
H151	H15	0.122000	0.316000	0.655000
H161	H16	0.935000	0.260000	0.801000
H171	H17	0.763000	0.320000	0.713000
H181	H18	0.820000	0.282000	0.462000
H191	H19	0.677000	0.064000	0.925000
H201	H20	0.677000	0.997000	0.517000
H211	H21	0.622000	0.684000	0.845000
H221	H22	0.435000	0.740000	0.699000
H231	H23	0.263000	0.680000	0.787000
H241	H24	0.320000	0.718000	0.038000
C11	C1	0.972100	0.666960	0.335800
C21	C2	0.057400	0.743990	0.279900
C31	C3	0.192600	0.723750	0.338100
C41	C4	0.161800	0.675700	0.463000
C51	C5	0.981800	0.574190	0.259100
C61	C6	0.999600	0.839100	0.319600
C71	C7	0.282200	0.808840	0.352800
C81	C8	0.243600	0.586240	0.482300
C91	C9	0.472100	0.333040	0.164200
C101	C10	0.557400	0.256010	0.220100
C111	C11	0.692600	0.276250	0.161900
C121	C12	0.661800	0.324300	0.037000
C131	C13	0.481800	0.425810	0.240900
C141	C14	0.499600	0.160900	0.180400
C151	C15	0.782200	0.191160	0.147200
C161	C16	0.743600	0.413760	0.017700
C171	C17	0.027900	0.333040	0.664200
C181	C18	0.942600	0.256010	0.720100
C191	C19	0.807400	0.276250	0.661900
C201	C20	0.838200	0.324300	0.537000
C211	C21	0.018200	0.425810	0.740900
C221	C22	0.000400	0.160900	0.680400
C231	C23	0.717800	0.191160	0.647200
C241	C24	0.756400	0.413760	0.517700
C251	C25	0.527900	0.666960	0.835800
C261	C26	0.442600	0.743990	0.779900
C271	C27	0.307400	0.723750	0.838100
C281	C28	0.338200	0.675700	0.963000
C291	C29	0.518200	0.574190	0.759100
C301	C30	0.500400	0.839100	0.819600
C311	C31	0.217800	0.808840	0.852800
C321	C32	0.256400	0.586240	0.982300
O11	O1	0.021910	0.656490	0.462660
O21	O2	0.015260	0.501040	0.313050
O31	O3	0.955160	0.581290	0.143850
O41	O4	0.924960	0.875220	0.239550
O51	O5	0.026800	0.870940	0.428710
O61	O6	0.272660	0.869100	0.269540
O71	O7	0.361140	0.809750	0.445210
O81	O8	0.363520	0.594490	0.464280
O91	O9	0.187870	0.512730	0.519200
O101	O10	0.833240	0.018600	0.418680
O111	O11	0.884010	0.994030	0.052440
O121	O12	0.521910	0.343510	0.037340
O131	O13	0.515260	0.498960	0.186950
O141	O14	0.455160	0.418710	0.356150
O151	O15	0.424960	0.124780	0.260450
O161	O16	0.526800	0.129060	0.071290
O171	O17	0.772660	0.130900	0.230460
O181	O18	0.861140	0.190250	0.054790
O191	O19	0.863520	0.405510	0.035720
O201	O20	0.687870	0.487270	0.980800
O211	O21	0.333240	0.981400	0.081320
O221	O22	0.384010	0.005970	0.447560
O231	O23	0.978090	0.343510	0.537340
O241	O24	0.984740	0.498960	0.686950
O251	O25	0.044840	0.418710	0.856150
O261	O26	0.075040	0.124780	0.760450
O271	O27	0.973200	0.129060	0.571290
O281	O28	0.727340	0.130900	0.730460
O291	O29	0.638860	0.190250	0.554790
O301	O30	0.636480	0.405510	0.535720
O311	O31	0.812130	0.487270	0.480800
O321	O32	0.166760	0.981400	0.581320
O331	O33	0.115990	0.005970	0.947560
O341	O34	0.478090	0.656490	0.962660
O351	O35	0.484740	0.501040	0.813050
O361	O36	0.544840	0.581290	0.643850
O371	O37	0.575040	0.875220	0.739550
O381	O38	0.473200	0.870940	0.928710
O391	O39	0.227340	0.869100	0.769540
O401	O40	0.138860	0.809750	0.945210
O411	O41	0.136480	0.594490	0.964280
O421	O42	0.312130	0.512730	0.019200
O431	O43	0.666760	0.018600	0.918680
O441	O44	0.615990	0.994030	0.552440
