data_TIRHIL_clean_PM
_symmetry_space_group_name_H-M	'P1'
_cell_length_a	15.486000
_cell_length_b	15.486000
_cell_length_c	15.486000
_cell_angle_alpha	90.000000
_cell_angle_beta	90.000000
_cell_angle_gamma	90.000000
_symmetry_Int_Tables_number 1

loop_
_symmetry_equiv_pos_as_xyz
'x,y,z'

loop_
_atom_site_label
_atom_site_type_symbol
_atom_site_fract_x
_atom_site_fract_y
_atom_site_fract_z
O11	O1	0.730400	0.379400	0.908000
O21	O2	0.604100	0.383500	0.018400
C11	C1	0.753800	0.368100	0.986400
C21	C2	0.677100	0.367700	0.052100
O31	O3	0.825600	0.359300	0.007900
O41	O4	0.687100	0.354100	0.128700
O51	O5	0.769600	0.620600	0.408000
O61	O6	0.895900	0.616500	0.518400
C31	C3	0.746200	0.631900	0.486400
C41	C4	0.822900	0.632300	0.552100
O71	O7	0.674400	0.640700	0.507900
O81	O8	0.812900	0.645900	0.628700
O91	O9	0.269600	0.879400	0.592000
O101	O10	0.395900	0.883500	0.481600
C51	C5	0.246200	0.868100	0.513600
C61	C6	0.322900	0.867700	0.447900
O111	O11	0.174400	0.859300	0.492100
O121	O12	0.312900	0.854100	0.371300
O131	O13	0.230400	0.120600	0.092000
O141	O14	0.104100	0.116500	0.981600
C71	C7	0.253800	0.131900	0.013600
C81	C8	0.177100	0.132300	0.947900
O151	O15	0.325600	0.140700	0.992100
O161	O16	0.187100	0.145900	0.871300
O171	O17	0.908000	0.730400	0.379400
O181	O18	0.018400	0.604100	0.383500
C91	C9	0.986400	0.753800	0.368100
C101	C10	0.052100	0.677100	0.367700
O191	O19	0.007900	0.825600	0.359300
O201	O20	0.128700	0.687100	0.354100
O211	O21	0.408000	0.769600	0.620600
O221	O22	0.518400	0.895900	0.616500
C111	C11	0.486400	0.746200	0.631900
C121	C12	0.552100	0.822900	0.632300
O231	O23	0.507900	0.674400	0.640700
O241	O24	0.628700	0.812900	0.645900
O251	O25	0.592000	0.269600	0.879400
O261	O26	0.481600	0.395900	0.883500
C131	C13	0.513600	0.246200	0.868100
C141	C14	0.447900	0.322900	0.867700
O271	O27	0.492100	0.174400	0.859300
O281	O28	0.371300	0.312900	0.854100
O291	O29	0.092000	0.230400	0.120600
O301	O30	0.981600	0.104100	0.116500
C151	C15	0.013600	0.253800	0.131900
C161	C16	0.947900	0.177100	0.132300
O311	O31	0.992100	0.325600	0.140700
O321	O32	0.871300	0.187100	0.145900
O331	O33	0.379400	0.908000	0.730400
O341	O34	0.383500	0.018400	0.604100
C171	C17	0.368100	0.986400	0.753800
C181	C18	0.367700	0.052100	0.677100
O351	O35	0.359300	0.007900	0.825600
O361	O36	0.354100	0.128700	0.687100
O371	O37	0.620600	0.408000	0.769600
O381	O38	0.616500	0.518400	0.895900
C191	C19	0.631900	0.486400	0.746200
C201	C20	0.632300	0.552100	0.822900
O391	O39	0.640700	0.507900	0.674400
O401	O40	0.645900	0.628700	0.812900
O411	O41	0.879400	0.592000	0.269600
O421	O42	0.883500	0.481600	0.395900
C211	C21	0.868100	0.513600	0.246200
C221	C22	0.867700	0.447900	0.322900
O431	O43	0.859300	0.492100	0.174400
O441	O44	0.854100	0.371300	0.312900
O451	O45	0.120600	0.092000	0.230400
O461	O46	0.116500	0.981600	0.104100
C231	C23	0.131900	0.013600	0.253800
C241	C24	0.132300	0.947900	0.177100
O471	O47	0.140700	0.992100	0.325600
O481	O48	0.145900	0.871300	0.187100
Ag11	Ag1	0.832900	0.332900	0.167100
Ag21	Ag2	0.667100	0.667100	0.667100
Ag31	Ag3	0.167100	0.832900	0.332900
Ag41	Ag4	0.332900	0.167100	0.832900
Cr11	Cr1	0.607000	0.393000	0.893000
Cr21	Cr2	0.893000	0.607000	0.393000
Cr31	Cr3	0.393000	0.893000	0.607000
Cr41	Cr4	0.107000	0.107000	0.107000
