data_TIRQOB_clean_PM
_symmetry_space_group_name_H-M	'P1'
_cell_length_a	24.932900
_cell_length_b	24.932900
_cell_length_c	24.932900
_cell_angle_alpha	109.471000
_cell_angle_beta	109.471000
_cell_angle_gamma	109.471000
_symmetry_Int_Tables_number 1

loop_
_symmetry_equiv_pos_as_xyz
'x,y,z'

loop_
_atom_site_label
_atom_site_type_symbol
_atom_site_fract_x
_atom_site_fract_y
_atom_site_fract_z
Zn11	Zn1	0.947450	0.081920	0.078190
Zn21	Zn2	0.503730	0.869260	0.421810
Zn31	Zn3	0.996270	0.418080	0.365530
Zn41	Zn4	0.552550	0.630740	0.134470
Zn51	Zn5	0.865530	0.996270	0.918080
Zn61	Zn6	0.634470	0.552550	0.130740
Zn71	Zn7	0.578190	0.947450	0.581920
Zn81	Zn8	0.921810	0.503730	0.369260
Zn91	Zn9	0.869260	0.921810	0.003730
Zn101	Zn10	0.081920	0.578190	0.447450
Zn111	Zn11	0.630740	0.634470	0.052550
Zn121	Zn12	0.418080	0.865530	0.496270
Zn131	Zn13	0.369260	0.003730	0.921810
Zn141	Zn14	0.581920	0.447450	0.578190
Zn151	Zn15	0.130740	0.052550	0.634470
Zn161	Zn16	0.918080	0.496270	0.865530
Zn171	Zn17	0.447450	0.078190	0.081920
Zn181	Zn18	0.003730	0.421810	0.869260
Zn191	Zn19	0.496270	0.365530	0.418080
Zn201	Zn20	0.052550	0.134470	0.630740
Zn211	Zn21	0.365530	0.918080	0.996270
Zn221	Zn22	0.134470	0.130740	0.552550
Zn231	Zn23	0.078190	0.581920	0.947450
Zn241	Zn24	0.421810	0.369260	0.503730
Zn251	Zn25	0.994220	0.000000	0.000000
Zn261	Zn26	0.500000	0.994220	0.500000
Zn271	Zn27	0.000000	0.500000	0.494220
Zn281	Zn28	0.505780	0.505780	0.005780
Zn291	Zn29	0.494220	0.000000	0.000000
Zn301	Zn30	0.500000	0.494220	0.500000
Zn311	Zn31	0.005780	0.005780	0.505780
Zn321	Zn32	0.000000	0.500000	0.994220
H11	H1	0.086700	0.062700	0.206000
H21	H2	0.123800	0.044100	0.290900
H31	H3	0.297700	0.202900	0.383400
H41	H4	0.226700	0.111400	0.374100
H51	H5	0.353100	0.329800	0.269900
H61	H6	0.147300	0.181500	0.085800
H71	H7	0.219100	0.261800	0.085100
H81	H8	0.324000	0.336800	0.178400
H91	H9	0.356700	0.880700	0.294000
H101	H10	0.253200	0.832900	0.209100
H111	H11	0.319500	0.914300	0.116600
H121	H12	0.237300	0.852600	0.125900
H131	H13	0.559900	0.083200	0.230100
H141	H14	0.595700	0.061500	0.414200
H151	H15	0.676700	0.134000	0.414900
H161	H16	0.658400	0.145600	0.321600
H171	H17	0.143300	0.437300	0.524000
H181	H18	0.246800	0.455900	0.579700
H191	H19	0.180500	0.297100	0.594800
H201	H20	0.262700	0.388600	0.615300
H211	H21	0.940100	0.170200	0.523300
H221	H22	0.904300	0.318500	0.465800
H231	H23	0.823300	0.238200	0.457300
H241	H24	0.841600	0.163200	0.487200
H251	H25	0.413300	0.619300	0.976000
H261	H26	0.376200	0.667100	0.920300
H271	H27	0.202300	0.585700	0.905200
H281	H28	0.273300	0.647400	0.884700
H291	H29	0.146900	0.416800	0.976700
H301	H30	0.352700	0.438500	0.034200
H311	H31	0.280900	0.366000	0.042700
H321	H32	0.176000	0.354400	0.012800
H331	H33	0.024000	0.143300	0.937300
H341	H34	0.079700	0.246800	0.955900
H351	H35	0.094800	0.180500	0.797100
H361	H36	0.115300	0.262700	0.888600
H371	H37	0.023300	0.940100	0.670200
H381	H38	0.965800	0.904300	0.818500
H391	H39	0.957300	0.823300	0.738200
H401	H40	0.987200	0.841600	0.663200
H411	H41	0.476000	0.413300	0.119300
H421	H42	0.420300	0.376200	0.167100
H431	H43	0.405200	0.202300	0.085700
H441	H44	0.384700	0.273300	0.147400
H451	H45	0.476700	0.146900	0.916800
H461	H46	0.534200	0.352700	0.938500
H471	H47	0.542700	0.280900	0.866000
H481	H48	0.512800	0.176000	0.854400
H491	H49	0.706000	0.086700	0.562700
H501	H50	0.790900	0.123800	0.544100
H511	H51	0.883400	0.297700	0.702900
H521	H52	0.874100	0.226700	0.611400
H531	H53	0.769900	0.353100	0.829800
H541	H54	0.585800	0.147300	0.681500
H551	H55	0.585100	0.219100	0.761800
H561	H56	0.678400	0.324000	0.836800
H571	H57	0.794000	0.356700	0.380700
H581	H58	0.709100	0.253200	0.332900
H591	H59	0.616600	0.319500	0.414300
H601	H60	0.625900	0.237300	0.352600
H611	H61	0.730100	0.559900	0.583200
H621	H62	0.914200	0.595700	0.561500
H631	H63	0.914900	0.676700	0.634000
H641	H64	0.821600	0.658400	0.645600
H651	H65	0.880700	0.794000	0.856700
H661	H66	0.832900	0.709100	0.753200
H671	H67	0.914300	0.616600	0.819500
H681	H68	0.852600	0.625900	0.737300
H691	H69	0.083200	0.730100	0.059900
H701	H70	0.061500	0.914200	0.095700
H711	H71	0.134000	0.914900	0.176700
H721	H72	0.145600	0.821600	0.158400
H731	H73	0.062700	0.706000	0.586700
H741	H74	0.044100	0.790900	0.623800
H751	H75	0.202900	0.883400	0.797700
H761	H76	0.111400	0.874100	0.726700
H771	H77	0.329800	0.769900	0.853100
H781	H78	0.181500	0.585800	0.647300
H791	H79	0.261800	0.585100	0.719100
H801	H80	0.336800	0.678400	0.824000
H811	H81	0.619300	0.476000	0.913300
H821	H82	0.667100	0.420300	0.876200
H831	H83	0.585700	0.405200	0.702300
H841	H84	0.647400	0.384700	0.773300
H851	H85	0.416800	0.476700	0.646900
H861	H86	0.438500	0.534200	0.852700
H871	H87	0.366000	0.542700	0.780900
H881	H88	0.354400	0.512800	0.676000
H891	H89	0.437300	0.024000	0.643300
H901	H90	0.455900	0.079700	0.746800
H911	H91	0.297100	0.094800	0.680500
H921	H92	0.388600	0.115300	0.762700
H931	H93	0.170200	0.023300	0.440100
H941	H94	0.318500	0.965800	0.404300
H951	H95	0.238200	0.957300	0.323300
H961	H96	0.163200	0.987200	0.341600
H971	H97	0.380700	0.856700	0.794000
H981	H98	0.332900	0.753200	0.709100
H991	H99	0.414300	0.819500	0.616600
H1001	H100	0.352600	0.737300	0.625900
H1011	H101	0.583200	0.059900	0.730100
H1021	H102	0.561500	0.095700	0.914200
H1031	H103	0.634000	0.176700	0.914900
H1041	H104	0.645600	0.158400	0.821600
H1051	H105	0.562700	0.586700	0.706000
H1061	H106	0.544100	0.623800	0.790900
H1071	H107	0.702900	0.797700	0.883400
H1081	H108	0.611400	0.726700	0.874100
H1091	H109	0.829800	0.853100	0.769900
H1101	H110	0.681500	0.647300	0.585800
H1111	H111	0.761800	0.719100	0.585100
H1121	H112	0.836800	0.824000	0.678400
H1131	H113	0.119300	0.913300	0.476000
H1141	H114	0.167100	0.876200	0.420300
H1151	H115	0.085700	0.702300	0.405200
H1161	H116	0.147400	0.773300	0.384700
H1171	H117	0.916800	0.646900	0.476700
H1181	H118	0.938500	0.852700	0.534200
H1191	H119	0.866000	0.780900	0.542700
H1201	H120	0.854400	0.676000	0.512800
H1211	H121	0.937300	0.643300	0.024000
H1221	H122	0.955900	0.746800	0.079700
H1231	H123	0.797100	0.680500	0.094800
H1241	H124	0.888600	0.762700	0.115300
H1251	H125	0.670200	0.440100	0.023300
H1261	H126	0.818500	0.404300	0.965800
H1271	H127	0.738200	0.323300	0.957300
H1281	H128	0.663200	0.341600	0.987200
H1291	H129	0.586700	0.206000	0.062700
H1301	H130	0.623800	0.290900	0.044100
H1311	H131	0.797700	0.383400	0.202900
H1321	H132	0.726700	0.374100	0.111400
H1331	H133	0.853100	0.269900	0.329800
H1341	H134	0.647300	0.085800	0.181500
H1351	H135	0.719100	0.085100	0.261800
H1361	H136	0.824000	0.178400	0.336800
H1371	H137	0.856700	0.294000	0.880700
H1381	H138	0.753200	0.209100	0.832900
H1391	H139	0.819500	0.116600	0.914300
H1401	H140	0.737300	0.125900	0.852600
H1411	H141	0.059900	0.230100	0.083200
H1421	H142	0.095700	0.414200	0.061500
H1431	H143	0.176700	0.414900	0.134000
H1441	H144	0.158400	0.321600	0.145600
H1451	H145	0.643300	0.524000	0.437300
H1461	H146	0.746800	0.579700	0.455900
H1471	H147	0.680500	0.594800	0.297100
H1481	H148	0.762700	0.615300	0.388600
H1491	H149	0.440100	0.523300	0.170200
H1501	H150	0.404300	0.465800	0.318500
H1511	H151	0.323300	0.457300	0.238200
H1521	H152	0.341600	0.487200	0.163200
H1531	H153	0.913300	0.976000	0.619300
H1541	H154	0.876200	0.920300	0.667100
H1551	H155	0.702300	0.905200	0.585700
H1561	H156	0.773300	0.884700	0.647400
H1571	H157	0.646900	0.976700	0.416800
H1581	H158	0.852700	0.034200	0.438500
H1591	H159	0.780900	0.042700	0.366000
H1601	H160	0.676000	0.012800	0.354400
H1611	H161	0.524000	0.937300	0.143300
H1621	H162	0.579700	0.955900	0.246800
H1631	H163	0.594800	0.797100	0.180500
H1641	H164	0.615300	0.888600	0.262700
H1651	H165	0.523300	0.670200	0.940100
H1661	H166	0.465800	0.818500	0.904300
H1671	H167	0.457300	0.738200	0.823300
H1681	H168	0.487200	0.663200	0.841600
H1691	H169	0.976000	0.119300	0.413300
H1701	H170	0.920300	0.167100	0.376200
H1711	H171	0.905200	0.085700	0.202300
H1721	H172	0.884700	0.147400	0.273300
H1731	H173	0.976700	0.916800	0.146900
H1741	H174	0.034200	0.938500	0.352700
H1751	H175	0.042700	0.866000	0.280900
H1761	H176	0.012800	0.854400	0.176000
H1771	H177	0.206000	0.562700	0.086700
H1781	H178	0.290900	0.544100	0.123800
H1791	H179	0.383400	0.702900	0.297700
H1801	H180	0.374100	0.611400	0.226700
H1811	H181	0.269900	0.829800	0.353100
H1821	H182	0.085800	0.681500	0.147300
H1831	H183	0.085100	0.761800	0.219100
H1841	H184	0.178400	0.836800	0.324000
H1851	H185	0.294000	0.380700	0.356700
H1861	H186	0.209100	0.332900	0.253200
H1871	H187	0.116600	0.414300	0.319500
H1881	H188	0.125900	0.352600	0.237300
H1891	H189	0.230100	0.583200	0.559900
H1901	H190	0.414200	0.561500	0.595700
H1911	H191	0.414900	0.634000	0.676700
H1921	H192	0.321600	0.645600	0.658400
C11	C1	0.175100	0.142900	0.236200
C21	C2	0.239100	0.188600	0.292500
C31	C3	0.130200	0.089600	0.239400
C41	C4	0.151800	0.079600	0.290600
C51	C5	0.256600	0.174700	0.345700
C61	C6	0.213000	0.120600	0.340400
C71	C7	0.089900	0.107400	0.122300
C81	C8	0.311300	0.299200	0.233500
C91	C9	0.188400	0.211200	0.123200
C101	C10	0.268100	0.249900	0.236600
C111	C11	0.157300	0.152100	0.182400
C121	C12	0.230200	0.257700	0.122500
C131	C13	0.204100	0.204000	0.181300
C141	C14	0.294100	0.303400	0.179500
C151	C15	0.285000	0.241700	0.293700
C161	C16	0.350700	0.290100	0.354600
C171	C17	0.406700	0.938900	0.263800
C181	C18	0.396100	0.946600	0.207500
C191	C19	0.350200	0.890800	0.260600
C201	C20	0.289000	0.861200	0.209400
C211	C21	0.329000	0.910900	0.154300
C221	C22	0.280200	0.872600	0.159600
C231	C23	0.485100	0.967600	0.377700
C241	C24	0.565700	0.077800	0.266500
C251	C25	0.588000	0.065200	0.376800
C261	C26	0.513300	0.031500	0.263400
C271	C27	0.469700	0.974900	0.317600
C281	C28	0.635200	0.107700	0.377500
C291	C29	0.522700	0.022800	0.318700
C301	C30	0.623900	0.114600	0.320500
C311	C31	0.448000	0.991300	0.206300
C321	C32	0.435500	0.996100	0.145400
C331	C33	0.093300	0.357100	0.532200
C341	C34	0.103900	0.311400	0.550500
C351	C35	0.149800	0.410400	0.540600
C361	C36	0.211000	0.420400	0.572200
C371	C37	0.171000	0.325300	0.581900
C381	C38	0.219800	0.379400	0.592400
C391	C39	0.014900	0.392600	0.482500
C401	C40	0.934300	0.200800	0.512100
C411	C41	0.912000	0.288800	0.477200
C421	C42	0.986700	0.250100	0.518200
C431	C43	0.030300	0.347900	0.505200
C441	C44	0.864800	0.242300	0.472500
C451	C45	0.977300	0.296000	0.500100
C461	C46	0.876100	0.196600	0.490700
C471	C47	0.052000	0.258300	0.543300
C481	C48	0.064500	0.209900	0.560600
C491	C49	0.324900	0.561100	0.967800
C501	C50	0.260900	0.553400	0.949500
C511	C51	0.369800	0.609200	0.959400
C521	C52	0.348200	0.638800	0.927800
C531	C53	0.243400	0.589100	0.918100
C541	C54	0.287000	0.627400	0.907600
C551	C55	0.410100	0.532400	0.017500
C561	C56	0.188700	0.422200	0.987900
C571	C57	0.311600	0.434800	0.022800
C581	C58	0.231900	0.468500	0.981800
C591	C59	0.342700	0.525100	0.994800
C601	C60	0.269800	0.392300	0.027500
C611	C61	0.295900	0.477200	0.999900
C621	C62	0.205900	0.385400	0.009300
C631	C63	0.215000	0.508700	0.956700
C641	C64	0.149300	0.503900	0.939400
C651	C65	0.032200	0.093300	0.857100
C661	C66	0.050500	0.103900	0.811400
C671	C67	0.040600	0.149800	0.910400
C681	C68	0.072200	0.211000	0.920400
C691	C69	0.081900	0.171000	0.825300
C701	C70	0.092400	0.219800	0.879400
C711	C71	0.982500	0.014900	0.892600
C721	C72	0.012100	0.934300	0.700800
C731	C73	0.977200	0.912000	0.788800
C741	C74	0.018200	0.986700	0.750100
C751	C75	0.005200	0.030300	0.847900
C761	C76	0.972500	0.864800	0.742300
C771	C77	0.000100	0.977300	0.796000
C781	C78	0.990700	0.876100	0.696600
C791	C79	0.043300	0.052000	0.758300
C801	C80	0.060600	0.064500	0.709900
C811	C81	0.467800	0.324900	0.061100
C821	C82	0.449500	0.260900	0.053400
C831	C83	0.459400	0.369800	0.109200
C841	C84	0.427800	0.348200	0.138800
C851	C85	0.418100	0.243400	0.089100
C861	C86	0.407600	0.287000	0.127400
C871	C87	0.517500	0.410100	0.032400
C881	C88	0.487900	0.188700	0.922200
C891	C89	0.522800	0.311600	0.934800
C901	C90	0.481800	0.231900	0.968500
C911	C91	0.494800	0.342700	0.025100
C921	C92	0.527500	0.269800	0.892300
C931	C93	0.499900	0.295900	0.977200
C941	C94	0.509300	0.205900	0.885400
C951	C95	0.456700	0.215000	0.008700
C961	C96	0.439400	0.149300	0.003900
C971	C97	0.736200	0.175100	0.642900
C981	C98	0.792500	0.239100	0.688600
C991	C99	0.739400	0.130200	0.589600
C1001	C100	0.790600	0.151800	0.579600
C1011	C101	0.845700	0.256600	0.674700
C1021	C102	0.840400	0.213000	0.620600
C1031	C103	0.622300	0.089900	0.607400
C1041	C104	0.733500	0.311300	0.799200
C1051	C105	0.623200	0.188400	0.711200
C1061	C106	0.736600	0.268100	0.749900
C1071	C107	0.682400	0.157300	0.652100
C1081	C108	0.622500	0.230200	0.757700
C1091	C109	0.681300	0.204100	0.704000
C1101	C110	0.679500	0.294100	0.803400
C1111	C111	0.793700	0.285000	0.741700
C1121	C112	0.854600	0.350700	0.790100
C1131	C113	0.763800	0.406700	0.438900
C1141	C114	0.707500	0.396100	0.446600
C1151	C115	0.760600	0.350200	0.390800
C1161	C116	0.709400	0.289000	0.361200
C1171	C117	0.654300	0.329000	0.410900
C1181	C118	0.659600	0.280200	0.372600
C1191	C119	0.877700	0.485100	0.467600
C1201	C120	0.766500	0.565700	0.577800
C1211	C121	0.876800	0.588000	0.565200
C1221	C122	0.763400	0.513300	0.531500
C1231	C123	0.817600	0.469700	0.474900
C1241	C124	0.877500	0.635200	0.607700
C1251	C125	0.818700	0.522700	0.522800
C1261	C126	0.820500	0.623900	0.614600
C1271	C127	0.706300	0.448000	0.491300
C1281	C128	0.645400	0.435500	0.496100
C1291	C129	0.938900	0.763800	0.906700
C1301	C130	0.946600	0.707500	0.896100
C1311	C131	0.890800	0.760600	0.850200
C1321	C132	0.861200	0.709400	0.789000
C1331	C133	0.910900	0.654300	0.829000
C1341	C134	0.872600	0.659600	0.780200
C1351	C135	0.967600	0.877700	0.985100
C1361	C136	0.077800	0.766500	0.065700
C1371	C137	0.065200	0.876800	0.088000
C1381	C138	0.031500	0.763400	0.013300
C1391	C139	0.974900	0.817600	0.969700
C1401	C140	0.107700	0.877500	0.135200
C1411	C141	0.022800	0.818700	0.022700
C1421	C142	0.114600	0.820500	0.123900
C1431	C143	0.991300	0.706300	0.948000
C1441	C144	0.996100	0.645400	0.935500
C1451	C145	0.142900	0.736200	0.675100
C1461	C146	0.188600	0.792500	0.739100
C1471	C147	0.089600	0.739400	0.630200
C1481	C148	0.079600	0.790600	0.651800
C1491	C149	0.174700	0.845700	0.756600
C1501	C150	0.120600	0.840400	0.713000
C1511	C151	0.107400	0.622300	0.589900
C1521	C152	0.299200	0.733500	0.811300
C1531	C153	0.211200	0.623200	0.688400
C1541	C154	0.249900	0.736600	0.768100
C1551	C155	0.152100	0.682400	0.657300
C1561	C156	0.257700	0.622500	0.730200
C1571	C157	0.204000	0.681300	0.704100
C1581	C158	0.303400	0.679500	0.794100
C1591	C159	0.241700	0.793700	0.785000
C1601	C160	0.290100	0.854600	0.850700
C1611	C161	0.561100	0.467800	0.824900
C1621	C162	0.553400	0.449500	0.760900
C1631	C163	0.609200	0.459400	0.869800
C1641	C164	0.638800	0.427800	0.848200
C1651	C165	0.589100	0.418100	0.743400
C1661	C166	0.627400	0.407600	0.787000
C1671	C167	0.532400	0.517500	0.910100
C1681	C168	0.422200	0.487900	0.688700
C1691	C169	0.434800	0.522800	0.811600
C1701	C170	0.468500	0.481800	0.731900
C1711	C171	0.525100	0.494800	0.842700
C1721	C172	0.392300	0.527500	0.769800
C1731	C173	0.477200	0.499900	0.795900
C1741	C174	0.385400	0.509300	0.705900
C1751	C175	0.508700	0.456700	0.715000
C1761	C176	0.503900	0.439400	0.649300
C1771	C177	0.357100	0.032200	0.593300
C1781	C178	0.311400	0.050500	0.603900
C1791	C179	0.410400	0.040600	0.649800
C1801	C180	0.420400	0.072200	0.711000
C1811	C181	0.325300	0.081900	0.671000
C1821	C182	0.379400	0.092400	0.719800
C1831	C183	0.392600	0.982500	0.514900
C1841	C184	0.200800	0.012100	0.434300
C1851	C185	0.288800	0.977200	0.412000
C1861	C186	0.250100	0.018200	0.486700
C1871	C187	0.347900	0.005200	0.530300
C1881	C188	0.242300	0.972500	0.364800
C1891	C189	0.296000	0.000100	0.477300
C1901	C190	0.196600	0.990700	0.376100
C1911	C191	0.258300	0.043300	0.552000
C1921	C192	0.209900	0.060600	0.564500
C1931	C193	0.438900	0.906700	0.763800
C1941	C194	0.446600	0.896100	0.707500
C1951	C195	0.390800	0.850200	0.760600
C1961	C196	0.361200	0.789000	0.709400
C1971	C197	0.410900	0.829000	0.654300
C1981	C198	0.372600	0.780200	0.659600
C1991	C199	0.467600	0.985100	0.877700
C2001	C200	0.577800	0.065700	0.766500
C2011	C201	0.565200	0.088000	0.876800
C2021	C202	0.531500	0.013300	0.763400
C2031	C203	0.474900	0.969700	0.817600
C2041	C204	0.607700	0.135200	0.877500
C2051	C205	0.522800	0.022700	0.818700
C2061	C206	0.614600	0.123900	0.820500
C2071	C207	0.491300	0.948000	0.706300
C2081	C208	0.496100	0.935500	0.645400
C2091	C209	0.642900	0.675100	0.736200
C2101	C210	0.688600	0.739100	0.792500
C2111	C211	0.589600	0.630200	0.739400
C2121	C212	0.579600	0.651800	0.790600
C2131	C213	0.674700	0.756600	0.845700
C2141	C214	0.620600	0.713000	0.840400
C2151	C215	0.607400	0.589900	0.622300
C2161	C216	0.799200	0.811300	0.733500
C2171	C217	0.711200	0.688400	0.623200
C2181	C218	0.749900	0.768100	0.736600
C2191	C219	0.652100	0.657300	0.682400
C2201	C220	0.757700	0.730200	0.622500
C2211	C221	0.704000	0.704100	0.681300
C2221	C222	0.803400	0.794100	0.679500
C2231	C223	0.741700	0.785000	0.793700
C2241	C224	0.790100	0.850700	0.854600
C2251	C225	0.061100	0.824900	0.467800
C2261	C226	0.053400	0.760900	0.449500
C2271	C227	0.109200	0.869800	0.459400
C2281	C228	0.138800	0.848200	0.427800
C2291	C229	0.089100	0.743400	0.418100
C2301	C230	0.127400	0.787000	0.407600
C2311	C231	0.032400	0.910100	0.517500
C2321	C232	0.922200	0.688700	0.487900
C2331	C233	0.934800	0.811600	0.522800
C2341	C234	0.968500	0.731900	0.481800
C2351	C235	0.025100	0.842700	0.494800
C2361	C236	0.892300	0.769800	0.527500
C2371	C237	0.977200	0.795900	0.499900
C2381	C238	0.885400	0.705900	0.509300
C2391	C239	0.008700	0.715000	0.456700
C2401	C240	0.003900	0.649300	0.439400
C2411	C241	0.857100	0.593300	0.032200
C2421	C242	0.811400	0.603900	0.050500
C2431	C243	0.910400	0.649800	0.040600
C2441	C244	0.920400	0.711000	0.072200
C2451	C245	0.825300	0.671000	0.081900
C2461	C246	0.879400	0.719800	0.092400
C2471	C247	0.892600	0.514900	0.982500
C2481	C248	0.700800	0.434300	0.012100
C2491	C249	0.788800	0.412000	0.977200
C2501	C250	0.750100	0.486700	0.018200
C2511	C251	0.847900	0.530300	0.005200
C2521	C252	0.742300	0.364800	0.972500
C2531	C253	0.796000	0.477300	0.000100
C2541	C254	0.696600	0.376100	0.990700
C2551	C255	0.758300	0.552000	0.043300
C2561	C256	0.709900	0.564500	0.060600
C2571	C257	0.675100	0.236200	0.142900
C2581	C258	0.739100	0.292500	0.188600
C2591	C259	0.630200	0.239400	0.089600
C2601	C260	0.651800	0.290600	0.079600
C2611	C261	0.756600	0.345700	0.174700
C2621	C262	0.713000	0.340400	0.120600
C2631	C263	0.589900	0.122300	0.107400
C2641	C264	0.811300	0.233500	0.299200
C2651	C265	0.688400	0.123200	0.211200
C2661	C266	0.768100	0.236600	0.249900
C2671	C267	0.657300	0.182400	0.152100
C2681	C268	0.730200	0.122500	0.257700
C2691	C269	0.704100	0.181300	0.204000
C2701	C270	0.794100	0.179500	0.303400
C2711	C271	0.785000	0.293700	0.241700
C2721	C272	0.850700	0.354600	0.290100
C2731	C273	0.906700	0.263800	0.938900
C2741	C274	0.896100	0.207500	0.946600
C2751	C275	0.850200	0.260600	0.890800
C2761	C276	0.789000	0.209400	0.861200
C2771	C277	0.829000	0.154300	0.910900
C2781	C278	0.780200	0.159600	0.872600
C2791	C279	0.985100	0.377700	0.967600
C2801	C280	0.065700	0.266500	0.077800
C2811	C281	0.088000	0.376800	0.065200
C2821	C282	0.013300	0.263400	0.031500
C2831	C283	0.969700	0.317600	0.974900
C2841	C284	0.135200	0.377500	0.107700
C2851	C285	0.022700	0.318700	0.022800
C2861	C286	0.123900	0.320500	0.114600
C2871	C287	0.948000	0.206300	0.991300
C2881	C288	0.935500	0.145400	0.996100
C2891	C289	0.593300	0.532200	0.357100
C2901	C290	0.603900	0.550500	0.311400
C2911	C291	0.649800	0.540600	0.410400
C2921	C292	0.711000	0.572200	0.420400
C2931	C293	0.671000	0.581900	0.325300
C2941	C294	0.719800	0.592400	0.379400
C2951	C295	0.514900	0.482500	0.392600
C2961	C296	0.434300	0.512100	0.200800
C2971	C297	0.412000	0.477200	0.288800
C2981	C298	0.486700	0.518200	0.250100
C2991	C299	0.530300	0.505200	0.347900
C3001	C300	0.364800	0.472500	0.242300
C3011	C301	0.477300	0.500100	0.296000
C3021	C302	0.376100	0.490700	0.196600
C3031	C303	0.552000	0.543300	0.258300
C3041	C304	0.564500	0.560600	0.209900
C3051	C305	0.824900	0.967800	0.561100
C3061	C306	0.760900	0.949500	0.553400
C3071	C307	0.869800	0.959400	0.609200
C3081	C308	0.848200	0.927800	0.638800
C3091	C309	0.743400	0.918100	0.589100
C3101	C310	0.787000	0.907600	0.627400
C3111	C311	0.910100	0.017500	0.532400
C3121	C312	0.688700	0.987900	0.422200
C3131	C313	0.811600	0.022800	0.434800
C3141	C314	0.731900	0.981800	0.468500
C3151	C315	0.842700	0.994800	0.525100
C3161	C316	0.769800	0.027500	0.392300
C3171	C317	0.795900	0.999900	0.477200
C3181	C318	0.705900	0.009300	0.385400
C3191	C319	0.715000	0.956700	0.508700
C3201	C320	0.649300	0.939400	0.503900
C3211	C321	0.532200	0.857100	0.093300
C3221	C322	0.550500	0.811400	0.103900
C3231	C323	0.540600	0.910400	0.149800
C3241	C324	0.572200	0.920400	0.211000
C3251	C325	0.581900	0.825300	0.171000
C3261	C326	0.592400	0.879400	0.219800
C3271	C327	0.482500	0.892600	0.014900
C3281	C328	0.512100	0.700800	0.934300
C3291	C329	0.477200	0.788800	0.912000
C3301	C330	0.518200	0.750100	0.986700
C3311	C331	0.505200	0.847900	0.030300
C3321	C332	0.472500	0.742300	0.864800
C3331	C333	0.500100	0.796000	0.977300
C3341	C334	0.490700	0.696600	0.876100
C3351	C335	0.543300	0.758300	0.052000
C3361	C336	0.560600	0.709900	0.064500
C3371	C337	0.967800	0.061100	0.324900
C3381	C338	0.949500	0.053400	0.260900
C3391	C339	0.959400	0.109200	0.369800
C3401	C340	0.927800	0.138800	0.348200
C3411	C341	0.918100	0.089100	0.243400
C3421	C342	0.907600	0.127400	0.287000
C3431	C343	0.017500	0.032400	0.410100
C3441	C344	0.987900	0.922200	0.188700
C3451	C345	0.022800	0.934800	0.311600
C3461	C346	0.981800	0.968500	0.231900
C3471	C347	0.994800	0.025100	0.342700
C3481	C348	0.027500	0.892300	0.269800
C3491	C349	0.999900	0.977200	0.295900
C3501	C350	0.009300	0.885400	0.205900
C3511	C351	0.956700	0.008700	0.215000
C3521	C352	0.939400	0.003900	0.149300
C3531	C353	0.236200	0.642900	0.175100
C3541	C354	0.292500	0.688600	0.239100
C3551	C355	0.239400	0.589600	0.130200
C3561	C356	0.290600	0.579600	0.151800
C3571	C357	0.345700	0.674700	0.256600
C3581	C358	0.340400	0.620600	0.213000
C3591	C359	0.122300	0.607400	0.089900
C3601	C360	0.233500	0.799200	0.311300
C3611	C361	0.123200	0.711200	0.188400
C3621	C362	0.236600	0.749900	0.268100
C3631	C363	0.182400	0.652100	0.157300
C3641	C364	0.122500	0.757700	0.230200
C3651	C365	0.181300	0.704000	0.204100
C3661	C366	0.179500	0.803400	0.294100
C3671	C367	0.293700	0.741700	0.285000
C3681	C368	0.354600	0.790100	0.350700
C3691	C369	0.263800	0.438900	0.406700
C3701	C370	0.207500	0.446600	0.396100
C3711	C371	0.260600	0.390800	0.350200
C3721	C372	0.209400	0.361200	0.289000
C3731	C373	0.154300	0.410900	0.329000
C3741	C374	0.159600	0.372600	0.280200
C3751	C375	0.377700	0.467600	0.485100
C3761	C376	0.266500	0.577800	0.565700
C3771	C377	0.376800	0.565200	0.588000
C3781	C378	0.263400	0.531500	0.513300
C3791	C379	0.317600	0.474900	0.469700
C3801	C380	0.377500	0.607700	0.635200
C3811	C381	0.318700	0.522800	0.522700
C3821	C382	0.320500	0.614600	0.623900
C3831	C383	0.206300	0.491300	0.448000
C3841	C384	0.145400	0.496100	0.435500
O11	O1	0.051360	0.130050	0.116310
O21	O2	0.401540	0.297450	0.350250
O31	O3	0.351100	0.319600	0.407700
O41	O4	0.075640	0.051890	0.087130
O51	O5	0.513740	0.935050	0.383690
O61	O6	0.447200	0.051290	0.149750
O71	O7	0.411900	0.943400	0.092300
O81	O8	0.464760	0.988510	0.412870
O91	O9	0.986260	0.369950	0.421310
O101	O10	0.052800	0.202550	0.604090
O111	O11	0.088100	0.180400	0.531500
O121	O12	0.035240	0.448110	0.523750
O131	O13	0.448640	0.564950	0.078690
O141	O14	0.098460	0.448710	0.895910
O151	O15	0.148900	0.556600	0.968500
O161	O16	0.424360	0.511490	0.976250
O171	O17	0.921310	0.986260	0.869950
O181	O18	0.104090	0.052800	0.702550
O191	O19	0.031500	0.088100	0.680400
O201	O20	0.023750	0.035240	0.948110
O211	O21	0.578690	0.448640	0.064950
O221	O22	0.395910	0.098460	0.948710
O231	O23	0.468500	0.148900	0.056600
O241	O24	0.476250	0.424360	0.011490
O251	O25	0.616310	0.051360	0.630050
O261	O26	0.850250	0.401540	0.797450
O271	O27	0.907700	0.351100	0.819600
O281	O28	0.587130	0.075640	0.551890
O291	O29	0.883690	0.513740	0.435050
O301	O30	0.649750	0.447200	0.551290
O311	O31	0.592300	0.411900	0.443400
O321	O32	0.912870	0.464760	0.488510
O331	O33	0.935050	0.883690	0.013740
O341	O34	0.051290	0.649750	0.947200
O351	O35	0.943400	0.592300	0.911900
O361	O36	0.988510	0.912870	0.964760
O371	O37	0.130050	0.616310	0.551360
O381	O38	0.297450	0.850250	0.901540
O391	O39	0.319600	0.907700	0.851100
O401	O40	0.051890	0.587130	0.575640
O411	O41	0.564950	0.578690	0.948640
O421	O42	0.448710	0.395910	0.598460
O431	O43	0.556600	0.468500	0.648900
O441	O44	0.511490	0.476250	0.924360
O451	O45	0.369950	0.921310	0.486260
O461	O46	0.202550	0.104090	0.552800
O471	O47	0.180400	0.031500	0.588100
O481	O48	0.448110	0.023750	0.535240
O491	O49	0.435050	0.013740	0.883690
O501	O50	0.551290	0.947200	0.649750
O511	O51	0.443400	0.911900	0.592300
O521	O52	0.488510	0.964760	0.912870
O531	O53	0.630050	0.551360	0.616310
O541	O54	0.797450	0.901540	0.850250
O551	O55	0.819600	0.851100	0.907700
O561	O56	0.551890	0.575640	0.587130
O571	O57	0.064950	0.948640	0.578690
O581	O58	0.948710	0.598460	0.395910
O591	O59	0.056600	0.648900	0.468500
O601	O60	0.011490	0.924360	0.476250
O611	O61	0.869950	0.486260	0.921310
O621	O62	0.702550	0.552800	0.104090
O631	O63	0.680400	0.588100	0.031500
O641	O64	0.948110	0.535240	0.023750
O651	O65	0.551360	0.116310	0.130050
O661	O66	0.901540	0.350250	0.297450
O671	O67	0.851100	0.407700	0.319600
O681	O68	0.575640	0.087130	0.051890
O691	O69	0.013740	0.383690	0.935050
O701	O70	0.947200	0.149750	0.051290
O711	O71	0.911900	0.092300	0.943400
O721	O72	0.964760	0.412870	0.988510
O731	O73	0.486260	0.421310	0.369950
O741	O74	0.552800	0.604090	0.202550
O751	O75	0.588100	0.531500	0.180400
O761	O76	0.535240	0.523750	0.448110
O771	O77	0.948640	0.078690	0.564950
O781	O78	0.598460	0.895910	0.448710
O791	O79	0.648900	0.968500	0.556600
O801	O80	0.924360	0.976250	0.511490
O811	O81	0.421310	0.869950	0.986260
O821	O82	0.604090	0.702550	0.052800
O831	O83	0.531500	0.680400	0.088100
O841	O84	0.523750	0.948110	0.035240
O851	O85	0.078690	0.064950	0.448640
O861	O86	0.895910	0.948710	0.098460
O871	O87	0.968500	0.056600	0.148900
O881	O88	0.976250	0.011490	0.424360
O891	O89	0.116310	0.630050	0.051360
O901	O90	0.350250	0.797450	0.401540
O911	O91	0.407700	0.819600	0.351100
O921	O92	0.087130	0.551890	0.075640
O931	O93	0.383690	0.435050	0.513740
O941	O94	0.149750	0.551290	0.447200
O951	O95	0.092300	0.443400	0.411900
O961	O96	0.412870	0.488510	0.464760
O971	O97	0.916860	0.000000	0.000000
O981	O98	0.500000	0.916860	0.500000
O991	O99	0.000000	0.500000	0.416860
O1001	O100	0.583140	0.583140	0.083140
O1011	O101	0.416860	0.000000	0.000000
O1021	O102	0.500000	0.416860	0.500000
O1031	O103	0.083140	0.083140	0.583140
O1041	O104	0.000000	0.500000	0.916860
