data_TISLIR_clean_PM
_symmetry_space_group_name_H-M	'P1'
_cell_length_a	8.517300
_cell_length_b	9.761500
_cell_length_c	22.405500
_cell_angle_alpha	90.000000
_cell_angle_beta	90.000000
_cell_angle_gamma	92.285000
_symmetry_Int_Tables_number 1

loop_
_symmetry_equiv_pos_as_xyz
'x,y,z'

loop_
_atom_site_label
_atom_site_type_symbol
_atom_site_fract_x
_atom_site_fract_y
_atom_site_fract_z
Cd11	Cd1	0.642500	0.982260	0.347820
Cd21	Cd2	0.329820	0.725730	0.397930
Cd31	Cd3	0.357500	0.517740	0.847820
Cd41	Cd4	0.670180	0.774270	0.897930
Cd51	Cd5	0.357500	0.017740	0.652180
Cd61	Cd6	0.670180	0.274270	0.602070
Cd71	Cd7	0.642500	0.482260	0.152180
Cd81	Cd8	0.329820	0.225730	0.102070
Cd91	Cd9	0.000000	0.500000	0.500000
Cd101	Cd10	0.000000	0.000000	0.000000
H11	H1	0.927300	0.815500	0.433900
H21	H2	0.381900	0.026000	0.232700
H31	H3	0.690100	0.302400	0.283600
H41	H4	0.618300	0.528000	0.470000
H51	H5	0.126700	0.164900	0.364200
H61	H6	0.304600	0.195100	0.349500
H71	H7	0.247700	0.192400	0.416000
H81	H8	0.072700	0.684500	0.933900
H91	H9	0.618100	0.474000	0.732700
H101	H10	0.309900	0.197600	0.783600
H111	H11	0.381700	0.972000	0.970000
H121	H12	0.873300	0.335100	0.864200
H131	H13	0.695400	0.304900	0.849500
H141	H14	0.752300	0.307600	0.916000
H151	H15	0.072700	0.184500	0.566100
H161	H16	0.618100	0.974000	0.767300
H171	H17	0.309900	0.697600	0.716400
H181	H18	0.381700	0.472000	0.530000
H191	H19	0.873300	0.835100	0.635800
H201	H20	0.695400	0.804900	0.650500
H211	H21	0.752300	0.807600	0.584000
H221	H22	0.927300	0.315500	0.066100
H231	H23	0.381900	0.526000	0.267300
H241	H24	0.690100	0.802400	0.216400
H251	H25	0.618300	0.028000	0.030000
H261	H26	0.126700	0.664900	0.135800
H271	H27	0.304600	0.695100	0.150500
H281	H28	0.247700	0.692400	0.084000
C11	C1	0.832700	0.764900	0.436500
C21	C2	0.830700	0.254500	0.414800
C31	C3	0.678700	0.141200	0.470300
C41	C4	0.444300	0.106200	0.234620
C51	C5	0.611500	0.255500	0.262100
C61	C6	0.665400	0.609600	0.456200
C71	C7	0.232500	0.152100	0.377300
C81	C8	0.261100	0.001700	0.380500
C91	C9	0.167300	0.735100	0.936500
C101	C10	0.169300	0.245500	0.914800
C111	C11	0.321300	0.358800	0.970300
C121	C12	0.555700	0.393800	0.734620
C131	C13	0.388500	0.244500	0.762100
C141	C14	0.334600	0.890400	0.956200
C151	C15	0.767500	0.347900	0.877300
C161	C16	0.738900	0.498300	0.880500
C171	C17	0.167300	0.235100	0.563500
C181	C18	0.169300	0.745500	0.585200
C191	C19	0.321300	0.858800	0.529700
C201	C20	0.555700	0.893800	0.765380
C211	C21	0.388500	0.744500	0.737900
C221	C22	0.334600	0.390400	0.543800
C231	C23	0.767500	0.847900	0.622700
C241	C24	0.738900	0.998300	0.619500
C251	C25	0.832700	0.264900	0.063500
C261	C26	0.830700	0.754500	0.085200
C271	C27	0.678700	0.641200	0.029700
C281	C28	0.444300	0.606200	0.265380
C291	C29	0.611500	0.755500	0.237900
C301	C30	0.665400	0.109600	0.043800
C311	C31	0.232500	0.652100	0.122700
C321	C32	0.261100	0.501700	0.119500
N11	N1	0.553800	0.130000	0.276760
N21	N2	0.728900	0.147400	0.413990
N31	N3	0.818400	0.642000	0.462290
N41	N4	0.843400	0.313100	0.467990
N51	N5	0.698300	0.807400	0.415060
N61	N6	0.587600	0.706300	0.428350
N71	N7	0.434000	0.207200	0.196500
N81	N8	0.744200	0.238900	0.504450
N91	N9	0.544900	0.305400	0.213920
N101	N10	0.446200	0.370000	0.776760
N111	N11	0.271100	0.352600	0.913990
N121	N12	0.181600	0.858000	0.962290
N131	N13	0.156600	0.186900	0.967990
N141	N14	0.301700	0.692600	0.915060
N151	N15	0.412400	0.793700	0.928350
N161	N16	0.566000	0.292800	0.696500
N171	N17	0.255800	0.261100	0.004450
N181	N18	0.455100	0.194600	0.713920
N191	N19	0.446200	0.870000	0.723240
N201	N20	0.271100	0.852600	0.586010
N211	N21	0.181600	0.358000	0.537710
N221	N22	0.156600	0.686900	0.532010
N231	N23	0.301700	0.192600	0.584940
N241	N24	0.412400	0.293700	0.571650
N251	N25	0.566000	0.792800	0.803500
N261	N26	0.255800	0.761100	0.495550
N271	N27	0.455100	0.694600	0.786080
N281	N28	0.553800	0.630000	0.223240
N291	N29	0.728900	0.647400	0.086010
N301	N30	0.818400	0.142000	0.037710
N311	N31	0.843400	0.813100	0.032010
N321	N32	0.698300	0.307400	0.084940
N331	N33	0.587600	0.206300	0.071650
N341	N34	0.434000	0.707200	0.303500
N351	N35	0.744200	0.738900	0.995550
N361	N36	0.544900	0.805400	0.286080
Cl11	Cl1	0.159040	0.508570	0.392200
Cl21	Cl2	0.840960	0.991430	0.892200
Cl31	Cl3	0.840960	0.491430	0.607800
Cl41	Cl4	0.159040	0.008570	0.107800
O11	O1	0.154200	0.915300	0.368410
O21	O2	0.395400	0.964700	0.396890
O31	O3	0.845800	0.584700	0.868410
O41	O4	0.604600	0.535300	0.896890
O51	O5	0.845800	0.084700	0.631590
O61	O6	0.604600	0.035300	0.603110
O71	O7	0.154200	0.415300	0.131590
O81	O8	0.395400	0.464700	0.103110
