data_TISPAO_clean_PM
_symmetry_space_group_name_H-M	'P1'
_cell_length_a	18.643400
_cell_length_b	18.643400
_cell_length_c	18.643400
_cell_angle_alpha	60.000000
_cell_angle_beta	60.000000
_cell_angle_gamma	60.000000
_symmetry_Int_Tables_number 1

loop_
_symmetry_equiv_pos_as_xyz
'x,y,z'

loop_
_atom_site_label
_atom_site_type_symbol
_atom_site_fract_x
_atom_site_fract_y
_atom_site_fract_z
Cu11	Cu1	0.569820	0.000000	0.430180
Cu21	Cu2	0.430180	0.000000	0.000000
Cu31	Cu3	0.569820	0.430180	0.000000
Cu41	Cu4	0.000000	0.430180	0.000000
Cu51	Cu5	0.000000	0.569820	0.000000
Cu61	Cu6	0.569820	0.000000	0.000000
Cu71	Cu7	0.430180	0.000000	0.569820
Cu81	Cu8	0.000000	0.000000	0.569820
Cu91	Cu9	0.000000	0.569820	0.430180
Cu101	Cu10	0.000000	0.000000	0.430180
Cu111	Cu11	0.430180	0.569820	0.000000
Cu121	Cu12	0.000000	0.430180	0.569820
H11	H1	0.270200	0.973800	0.270200
H21	H2	0.729800	0.514200	0.026200
H31	H3	0.514200	0.729800	0.729800
H41	H4	0.729800	0.514200	0.729800
H51	H5	0.729800	0.026200	0.729800
H61	H6	0.270200	0.270200	0.973800
H71	H7	0.973800	0.270200	0.270200
H81	H8	0.026200	0.729800	0.729800
H91	H9	0.270200	0.485800	0.973800
H101	H10	0.729800	0.026200	0.514200
H111	H11	0.973800	0.270200	0.485800
H121	H12	0.485800	0.973800	0.270200
H131	H13	0.270200	0.270200	0.485800
H141	H14	0.485800	0.270200	0.973800
H151	H15	0.026200	0.729800	0.514200
H161	H16	0.973800	0.485800	0.270200
H171	H17	0.270200	0.485800	0.270200
H181	H18	0.026200	0.514200	0.729800
H191	H19	0.485800	0.270200	0.270200
H201	H20	0.729800	0.729800	0.026200
H211	H21	0.729800	0.729800	0.514200
H221	H22	0.514200	0.729800	0.026200
H231	H23	0.514200	0.026200	0.729800
H241	H24	0.270200	0.973800	0.485800
C11	C1	0.029100	0.614100	0.614100
C21	C2	0.571200	0.700400	0.028000
C31	C3	0.385900	0.970900	0.257300
C41	C4	0.428800	0.299600	0.299600
C51	C5	0.614100	0.029100	0.742700
C61	C6	0.028000	0.700400	0.700400
C71	C7	0.430800	0.161000	0.430800
C81	C8	0.742700	0.029100	0.614100
C91	C9	0.029100	0.742700	0.614100
C101	C10	0.700400	0.028000	0.700400
C111	C11	0.430800	0.977400	0.430800
C121	C12	0.569200	0.569200	0.839000
C131	C13	0.569200	0.022600	0.569200
C141	C14	0.385900	0.257300	0.970900
C151	C15	0.700400	0.700400	0.571200
C161	C16	0.977400	0.161000	0.430800
C171	C17	0.977400	0.430800	0.430800
C181	C18	0.569200	0.022600	0.839000
C191	C19	0.569200	0.839000	0.022600
C201	C20	0.299600	0.972000	0.428800
C211	C21	0.839000	0.022600	0.569200
C221	C22	0.257300	0.970900	0.385900
C231	C23	0.569200	0.839000	0.569200
C241	C24	0.161000	0.977400	0.430800
C251	C25	0.299600	0.972000	0.299600
C261	C26	0.972000	0.299600	0.428800
C271	C27	0.022600	0.569200	0.839000
C281	C28	0.161000	0.430800	0.430800
C291	C29	0.700400	0.571200	0.700400
C301	C30	0.385900	0.385900	0.257300
C311	C31	0.700400	0.700400	0.028000
C321	C32	0.022600	0.569200	0.569200
C331	C33	0.614100	0.742700	0.029100
C341	C34	0.028000	0.700400	0.571200
C351	C35	0.428800	0.972000	0.299600
C361	C36	0.257300	0.385900	0.970900
C371	C37	0.742700	0.614100	0.029100
C381	C38	0.385900	0.385900	0.970900
C391	C39	0.970900	0.385900	0.257300
C401	C40	0.430800	0.977400	0.161000
C411	C41	0.299600	0.299600	0.972000
C421	C42	0.385900	0.970900	0.385900
C431	C43	0.977400	0.430800	0.161000
C441	C44	0.972000	0.428800	0.299600
C451	C45	0.029100	0.614100	0.742700
C461	C46	0.614100	0.742700	0.614100
C471	C47	0.385900	0.257300	0.385900
C481	C48	0.428800	0.299600	0.972000
C491	C49	0.742700	0.614100	0.614100
C501	C50	0.614100	0.029100	0.614100
C511	C51	0.028000	0.571200	0.700400
C521	C52	0.430800	0.430800	0.161000
C531	C53	0.700400	0.028000	0.571200
C541	C54	0.161000	0.430800	0.977400
C551	C55	0.839000	0.569200	0.022600
C561	C56	0.970900	0.257300	0.385900
C571	C57	0.571200	0.028000	0.700400
C581	C58	0.299600	0.428800	0.972000
C591	C59	0.700400	0.571200	0.028000
C601	C60	0.299600	0.299600	0.428800
C611	C61	0.430800	0.161000	0.977400
C621	C62	0.839000	0.569200	0.569200
C631	C63	0.614100	0.614100	0.029100
C641	C64	0.257300	0.385900	0.385900
C651	C65	0.299600	0.428800	0.299600
C661	C66	0.022600	0.839000	0.569200
C671	C67	0.970900	0.385900	0.385900
C681	C68	0.571200	0.700400	0.700400
C691	C69	0.614100	0.614100	0.742700
C701	C70	0.569200	0.569200	0.022600
C711	C71	0.430800	0.430800	0.977400
C721	C72	0.972000	0.299600	0.299600
S11	S1	0.000000	0.000000	0.308200
S21	S2	0.691800	0.308200	0.000000
S31	S3	0.000000	0.691800	0.000000
S41	S4	0.691800	0.000000	0.000000
S51	S5	0.308200	0.000000	0.691800
S61	S6	0.000000	0.691800	0.308200
S71	S7	0.691800	0.000000	0.308200
S81	S8	0.000000	0.308200	0.691800
S91	S9	0.000000	0.000000	0.691800
S101	S10	0.308200	0.691800	0.000000
S111	S11	0.000000	0.308200	0.000000
S121	S12	0.308200	0.000000	0.000000
O11	O1	0.612880	0.874200	0.020700
O21	O2	0.612880	0.492220	0.874200
O31	O3	0.874200	0.020700	0.612880
O41	O4	0.507780	0.387120	0.979300
O51	O5	0.979300	0.387120	0.507780
O61	O6	0.492220	0.612880	0.020700
O71	O7	0.387120	0.979300	0.125800
O81	O8	0.507780	0.125800	0.979300
O91	O9	0.874200	0.492220	0.612880
O101	O10	0.492220	0.020700	0.874200
O111	O11	0.125800	0.979300	0.387120
O121	O12	0.874200	0.612880	0.020700
O131	O13	0.612880	0.020700	0.874200
O141	O14	0.507780	0.125800	0.387120
O151	O15	0.020700	0.492220	0.874200
O161	O16	0.979300	0.387120	0.125800
O171	O17	0.020700	0.612880	0.874200
O181	O18	0.979300	0.507780	0.387120
O191	O19	0.874200	0.492220	0.020700
O201	O20	0.125800	0.507780	0.979300
O211	O21	0.492220	0.020700	0.612880
O221	O22	0.387120	0.507780	0.979300
O231	O23	0.125800	0.507780	0.387120
O241	O24	0.020700	0.874200	0.492220
O251	O25	0.979300	0.125800	0.507780
O261	O26	0.874200	0.020700	0.492220
O271	O27	0.020700	0.612880	0.492220
O281	O28	0.387120	0.125800	0.979300
O291	O29	0.125800	0.979300	0.507780
O301	O30	0.020700	0.492220	0.612880
O311	O31	0.387120	0.979300	0.507780
O321	O32	0.507780	0.387120	0.125800
O331	O33	0.387120	0.125800	0.507780
O341	O34	0.979300	0.125800	0.387120
O351	O35	0.979300	0.507780	0.125800
O361	O36	0.492220	0.612880	0.874200
O371	O37	0.492220	0.874200	0.612880
O381	O38	0.507780	0.979300	0.125800
O391	O39	0.612880	0.492220	0.020700
O401	O40	0.020700	0.874200	0.612880
O411	O41	0.387120	0.507780	0.125800
O421	O42	0.125800	0.387120	0.979300
O431	O43	0.612880	0.874200	0.492220
O441	O44	0.492220	0.874200	0.020700
O451	O45	0.125800	0.387120	0.507780
O461	O46	0.507780	0.979300	0.387120
O471	O47	0.874200	0.612880	0.492220
O481	O48	0.612880	0.020700	0.492220
