data_TIVYAZ01_clean_PM
_symmetry_space_group_name_H-M	'P1'
_cell_length_a	15.041000
_cell_length_b	23.862000
_cell_length_c	28.479000
_cell_angle_alpha	90.000000
_cell_angle_beta	90.000000
_cell_angle_gamma	90.000000
_symmetry_Int_Tables_number 1

loop_
_symmetry_equiv_pos_as_xyz
'x,y,z'

loop_
_atom_site_label
_atom_site_type_symbol
_atom_site_fract_x
_atom_site_fract_y
_atom_site_fract_z
Co11	Co1	0.590990	0.855270	0.977870
Co21	Co2	0.746350	0.794990	0.063150
Co31	Co3	0.090990	0.644730	0.022130
Co41	Co4	0.246350	0.705010	0.936850
Co51	Co5	0.409010	0.144730	0.477870
Co61	Co6	0.253650	0.205010	0.563150
Co71	Co7	0.909010	0.355270	0.522130
Co81	Co8	0.753650	0.294990	0.436850
Co91	Co9	0.409010	0.144730	0.022130
Co101	Co10	0.253650	0.205010	0.936850
Co111	Co11	0.909010	0.355270	0.977870
Co121	Co12	0.753650	0.294990	0.063150
Co131	Co13	0.590990	0.855270	0.522130
Co141	Co14	0.746350	0.794990	0.436850
Co151	Co15	0.090990	0.644730	0.477870
Co161	Co16	0.246350	0.705010	0.563150
Co171	Co17	0.101220	0.877830	0.750000
Co181	Co18	0.888060	0.943760	0.750000
Co191	Co19	0.601220	0.622170	0.250000
Co201	Co20	0.388060	0.556240	0.250000
Co211	Co21	0.898780	0.122170	0.250000
Co221	Co22	0.111940	0.056240	0.250000
Co231	Co23	0.398780	0.377830	0.750000
Co241	Co24	0.611940	0.443760	0.750000
H11	H1	0.046400	0.782700	0.871200
H21	H2	0.874400	0.750300	0.976300
H31	H3	0.804400	0.853000	0.870000
H41	H4	0.203800	0.041400	0.878500
H51	H5	0.407000	0.990300	0.959600
H61	H6	0.306200	0.886700	0.861700
H71	H7	0.546400	0.717300	0.128800
H81	H8	0.374400	0.749700	0.023700
H91	H9	0.304400	0.647000	0.130000
H101	H10	0.703800	0.458600	0.121500
H111	H11	0.907000	0.509700	0.040400
H121	H12	0.806200	0.613300	0.138300
H131	H13	0.953600	0.217300	0.371200
H141	H14	0.125600	0.249700	0.476300
H151	H15	0.195600	0.147000	0.370000
H161	H16	0.796200	0.958600	0.378500
H171	H17	0.593000	0.009700	0.459600
H181	H18	0.693800	0.113300	0.361700
H191	H19	0.453600	0.282700	0.628800
H201	H20	0.625600	0.250300	0.523700
H211	H21	0.695600	0.353000	0.630000
H221	H22	0.296200	0.541400	0.621500
H231	H23	0.093000	0.490300	0.540400
H241	H24	0.193800	0.386700	0.638300
H251	H25	0.953600	0.217300	0.128800
H261	H26	0.125600	0.249700	0.023700
H271	H27	0.195600	0.147000	0.130000
H281	H28	0.796200	0.958600	0.121500
H291	H29	0.593000	0.009700	0.040400
H301	H30	0.693800	0.113300	0.138300
H311	H31	0.453600	0.282700	0.871200
H321	H32	0.625600	0.250300	0.976300
H331	H33	0.695600	0.353000	0.870000
H341	H34	0.296200	0.541400	0.878500
H351	H35	0.093000	0.490300	0.959600
H361	H36	0.193800	0.386700	0.861700
H371	H37	0.046400	0.782700	0.628800
H381	H38	0.874400	0.750300	0.523700
H391	H39	0.804400	0.853000	0.630000
H401	H40	0.203800	0.041400	0.621500
H411	H41	0.407000	0.990300	0.540400
H421	H42	0.306200	0.886700	0.638300
H431	H43	0.546400	0.717300	0.371200
H441	H44	0.374400	0.749700	0.476300
H451	H45	0.304400	0.647000	0.370000
H461	H46	0.703800	0.458600	0.378500
H471	H47	0.907000	0.509700	0.459600
H481	H48	0.806200	0.613300	0.361700
C11	C1	0.952200	0.853200	0.818900
C21	C2	0.928700	0.822600	0.863680
C31	C3	0.990900	0.787700	0.884990
C41	C4	0.970600	0.760110	0.927080
C51	C5	0.888000	0.768170	0.948170
C61	C6	0.826000	0.803330	0.926660
C71	C7	0.846400	0.830050	0.884350
C81	C8	0.737500	0.814410	0.949150
C91	C9	0.039500	0.722170	0.948720
C101	C10	0.177300	0.951600	0.825750
C111	C11	0.243900	0.962300	0.864380
C121	C12	0.244400	0.013880	0.887200
C131	C13	0.305400	0.024530	0.923020
C141	C14	0.366700	0.983370	0.935500
C151	C15	0.368100	0.932060	0.912350
C161	C16	0.306200	0.921150	0.876920
C171	C17	0.308300	0.080900	0.946540
C181	C18	0.437200	0.888820	0.925820
C191	C19	0.452200	0.646800	0.181100
C201	C20	0.428700	0.677400	0.136320
C211	C21	0.490900	0.712300	0.115010
C221	C22	0.470600	0.739890	0.072920
C231	C23	0.388000	0.731830	0.051830
C241	C24	0.326000	0.696670	0.073340
C251	C25	0.346400	0.669950	0.115650
C261	C26	0.237500	0.685590	0.050850
C271	C27	0.539500	0.777830	0.051280
C281	C28	0.677300	0.548400	0.174250
C291	C29	0.743900	0.537700	0.135620
C301	C30	0.744400	0.486120	0.112800
C311	C31	0.805400	0.475470	0.076980
C321	C32	0.866700	0.516630	0.064500
C331	C33	0.868100	0.567940	0.087650
C341	C34	0.806200	0.578850	0.123080
C351	C35	0.808300	0.419100	0.053460
C361	C36	0.937200	0.611180	0.074180
C371	C37	0.047800	0.146800	0.318900
C381	C38	0.071300	0.177400	0.363680
C391	C39	0.009100	0.212300	0.384990
C401	C40	0.029400	0.239890	0.427080
C411	C41	0.112000	0.231830	0.448170
C421	C42	0.174000	0.196670	0.426660
C431	C43	0.153600	0.169950	0.384350
C441	C44	0.262500	0.185590	0.449150
C451	C45	0.960500	0.277830	0.448720
C461	C46	0.822700	0.048400	0.325750
C471	C47	0.756100	0.037700	0.364380
C481	C48	0.755600	0.986120	0.387200
C491	C49	0.694600	0.975470	0.423020
C501	C50	0.633300	0.016630	0.435500
C511	C51	0.631900	0.067940	0.412350
C521	C52	0.693800	0.078850	0.376920
C531	C53	0.691700	0.919100	0.446540
C541	C54	0.562800	0.111180	0.425820
C551	C55	0.547800	0.353200	0.681100
C561	C56	0.571300	0.322600	0.636320
C571	C57	0.509100	0.287700	0.615010
C581	C58	0.529400	0.260110	0.572920
C591	C59	0.612000	0.268170	0.551830
C601	C60	0.674000	0.303330	0.573340
C611	C61	0.653600	0.330050	0.615650
C621	C62	0.762500	0.314410	0.550850
C631	C63	0.460500	0.222170	0.551280
C641	C64	0.322700	0.451600	0.674250
C651	C65	0.256100	0.462300	0.635620
C661	C66	0.255600	0.513880	0.612800
C671	C67	0.194600	0.524530	0.576980
C681	C68	0.133300	0.483370	0.564500
C691	C69	0.131900	0.432060	0.587650
C701	C70	0.193800	0.421150	0.623080
C711	C71	0.191700	0.580900	0.553460
C721	C72	0.062800	0.388820	0.574180
C731	C73	0.047800	0.146800	0.181100
C741	C74	0.071300	0.177400	0.136320
C751	C75	0.009100	0.212300	0.115010
C761	C76	0.029400	0.239890	0.072920
C771	C77	0.112000	0.231830	0.051830
C781	C78	0.174000	0.196670	0.073340
C791	C79	0.153600	0.169950	0.115650
C801	C80	0.262500	0.185590	0.050850
C811	C81	0.960500	0.277830	0.051280
C821	C82	0.822700	0.048400	0.174250
C831	C83	0.756100	0.037700	0.135620
C841	C84	0.755600	0.986120	0.112800
C851	C85	0.694600	0.975470	0.076980
C861	C86	0.633300	0.016630	0.064500
C871	C87	0.631900	0.067940	0.087650
C881	C88	0.693800	0.078850	0.123080
C891	C89	0.691700	0.919100	0.053460
C901	C90	0.562800	0.111180	0.074180
C911	C91	0.547800	0.353200	0.818900
C921	C92	0.571300	0.322600	0.863680
C931	C93	0.509100	0.287700	0.884990
C941	C94	0.529400	0.260110	0.927080
C951	C95	0.612000	0.268170	0.948170
C961	C96	0.674000	0.303330	0.926660
C971	C97	0.653600	0.330050	0.884350
C981	C98	0.762500	0.314410	0.949150
C991	C99	0.460500	0.222170	0.948720
C1001	C100	0.322700	0.451600	0.825750
C1011	C101	0.256100	0.462300	0.864380
C1021	C102	0.255600	0.513880	0.887200
C1031	C103	0.194600	0.524530	0.923020
C1041	C104	0.133300	0.483370	0.935500
C1051	C105	0.131900	0.432060	0.912350
C1061	C106	0.193800	0.421150	0.876920
C1071	C107	0.191700	0.580900	0.946540
C1081	C108	0.062800	0.388820	0.925820
C1091	C109	0.952200	0.853200	0.681100
C1101	C110	0.928700	0.822600	0.636320
C1111	C111	0.990900	0.787700	0.615010
C1121	C112	0.970600	0.760110	0.572920
C1131	C113	0.888000	0.768170	0.551830
C1141	C114	0.826000	0.803330	0.573340
C1151	C115	0.846400	0.830050	0.615650
C1161	C116	0.737500	0.814410	0.550850
C1171	C117	0.039500	0.722170	0.551280
C1181	C118	0.177300	0.951600	0.674250
C1191	C119	0.243900	0.962300	0.635620
C1201	C120	0.244400	0.013880	0.612800
C1211	C121	0.305400	0.024530	0.576980
C1221	C122	0.366700	0.983370	0.564500
C1231	C123	0.368100	0.932060	0.587650
C1241	C124	0.306200	0.921150	0.623080
C1251	C125	0.308300	0.080900	0.553460
C1261	C126	0.437200	0.888820	0.574180
C1271	C127	0.452200	0.646800	0.318900
C1281	C128	0.428700	0.677400	0.363680
C1291	C129	0.490900	0.712300	0.384990
C1301	C130	0.470600	0.739890	0.427080
C1311	C131	0.388000	0.731830	0.448170
C1321	C132	0.326000	0.696670	0.426660
C1331	C133	0.346400	0.669950	0.384350
C1341	C134	0.237500	0.685590	0.449150
C1351	C135	0.539500	0.777830	0.448720
C1361	C136	0.677300	0.548400	0.325750
C1371	C137	0.743900	0.537700	0.364380
C1381	C138	0.744400	0.486120	0.387200
C1391	C139	0.805400	0.475470	0.423020
C1401	C140	0.866700	0.516630	0.435500
C1411	C141	0.868100	0.567940	0.412350
C1421	C142	0.806200	0.578850	0.376920
C1431	C143	0.808300	0.419100	0.446540
C1441	C144	0.937200	0.611180	0.425820
O11	O1	0.027800	0.842680	0.801970
O21	O2	0.894300	0.885990	0.803110
O31	O3	0.678200	0.840330	0.925730
O41	O4	0.721200	0.799180	0.990460
O51	O5	0.017400	0.697670	0.986580
O61	O6	0.111500	0.716540	0.927240
O71	O7	0.116000	0.987000	0.820990
O81	O8	0.188300	0.908400	0.800930
O91	O9	0.259700	0.118930	0.930080
O101	O10	0.359800	0.084650	0.981660
O111	O11	0.499900	0.907000	0.951900
O121	O12	0.430200	0.839140	0.912460
O131	O13	0.527800	0.657320	0.198030
O141	O14	0.394300	0.614010	0.196890
O151	O15	0.178200	0.659670	0.074270
O161	O16	0.221200	0.700820	0.009540
O171	O17	0.517400	0.802330	0.013420
O181	O18	0.611500	0.783460	0.072760
O191	O19	0.616000	0.513000	0.179010
O201	O20	0.688300	0.591600	0.199070
O211	O21	0.759700	0.381070	0.069920
O221	O22	0.859800	0.415350	0.018340
O231	O23	0.999900	0.593000	0.048100
O241	O24	0.930200	0.660860	0.087540
O251	O25	0.972200	0.157320	0.301970
O261	O26	0.105700	0.114010	0.303110
O271	O27	0.321800	0.159670	0.425730
O281	O28	0.278800	0.200820	0.490460
O291	O29	0.982600	0.302330	0.486580
O301	O30	0.888500	0.283460	0.427240
O311	O31	0.884000	0.013000	0.320990
O321	O32	0.811700	0.091600	0.300930
O331	O33	0.740300	0.881070	0.430080
O341	O34	0.640200	0.915350	0.481660
O351	O35	0.500100	0.093000	0.451900
O361	O36	0.569800	0.160860	0.412460
O371	O37	0.472200	0.342680	0.698030
O381	O38	0.605700	0.385990	0.696890
O391	O39	0.821800	0.340330	0.574270
O401	O40	0.778800	0.299180	0.509540
O411	O41	0.482600	0.197670	0.513420
O421	O42	0.388500	0.216540	0.572760
O431	O43	0.384000	0.487000	0.679010
O441	O44	0.311700	0.408400	0.699070
O451	O45	0.240300	0.618930	0.569920
O461	O46	0.140200	0.584650	0.518340
O471	O47	0.000100	0.407000	0.548100
O481	O48	0.069800	0.339140	0.587540
O491	O49	0.972200	0.157320	0.198030
O501	O50	0.105700	0.114010	0.196890
O511	O51	0.321800	0.159670	0.074270
O521	O52	0.278800	0.200820	0.009540
O531	O53	0.982600	0.302330	0.013420
O541	O54	0.888500	0.283460	0.072760
O551	O55	0.884000	0.013000	0.179010
O561	O56	0.811700	0.091600	0.199070
O571	O57	0.740300	0.881070	0.069920
O581	O58	0.640200	0.915350	0.018340
O591	O59	0.500100	0.093000	0.048100
O601	O60	0.569800	0.160860	0.087540
O611	O61	0.472200	0.342680	0.801970
O621	O62	0.605700	0.385990	0.803110
O631	O63	0.821800	0.340330	0.925730
O641	O64	0.778800	0.299180	0.990460
O651	O65	0.482600	0.197670	0.986580
O661	O66	0.388500	0.216540	0.927240
O671	O67	0.384000	0.487000	0.820990
O681	O68	0.311700	0.408400	0.800930
O691	O69	0.240300	0.618930	0.930080
O701	O70	0.140200	0.584650	0.981660
O711	O71	0.000100	0.407000	0.951900
O721	O72	0.069800	0.339140	0.912460
O731	O73	0.027800	0.842680	0.698030
O741	O74	0.894300	0.885990	0.696890
O751	O75	0.678200	0.840330	0.574270
O761	O76	0.721200	0.799180	0.509540
O771	O77	0.017400	0.697670	0.513420
O781	O78	0.111500	0.716540	0.572760
O791	O79	0.116000	0.987000	0.679010
O801	O80	0.188300	0.908400	0.699070
O811	O81	0.259700	0.118930	0.569920
O821	O82	0.359800	0.084650	0.518340
O831	O83	0.499900	0.907000	0.548100
O841	O84	0.430200	0.839140	0.587540
O851	O85	0.527800	0.657320	0.301970
O861	O86	0.394300	0.614010	0.303110
O871	O87	0.178200	0.659670	0.425730
O881	O88	0.221200	0.700820	0.490460
O891	O89	0.517400	0.802330	0.486580
O901	O90	0.611500	0.783460	0.427240
O911	O91	0.616000	0.513000	0.320990
O921	O92	0.688300	0.591600	0.300930
O931	O93	0.759700	0.381070	0.430080
O941	O94	0.859800	0.415350	0.481660
O951	O95	0.999900	0.593000	0.451900
O961	O96	0.930200	0.660860	0.412460
O971	O97	0.026000	0.955090	0.750000
O981	O98	0.526000	0.544910	0.250000
O991	O99	0.974000	0.044910	0.250000
O1001	O100	0.474000	0.455090	0.750000
