data_TIXCIO_clean_PM
_symmetry_space_group_name_H-M	'P1'
_cell_length_a	17.542000
_cell_length_b	17.542000
_cell_length_c	17.542000
_cell_angle_alpha	90.000000
_cell_angle_beta	90.000000
_cell_angle_gamma	90.000000
_symmetry_Int_Tables_number 1

loop_
_symmetry_equiv_pos_as_xyz
'x,y,z'

loop_
_atom_site_label
_atom_site_type_symbol
_atom_site_fract_x
_atom_site_fract_y
_atom_site_fract_z
N11	N1	0.541600	0.652200	0.199700
H11	H1	0.528000	0.670600	0.244400
N21	N2	0.542000	0.579400	0.098400
C11	C1	0.644700	0.746700	0.172800
C21	C2	0.628100	0.792200	0.235900
H21	H2	0.585800	0.779900	0.267400
C31	C3	0.597900	0.680100	0.154200
C41	C4	0.596100	0.634500	0.091900
H31	H3	0.628600	0.640300	0.049000
C51	C5	0.510500	0.591500	0.164400
H41	H4	0.470500	0.561400	0.185000
N31	N3	0.958400	0.347800	0.699700
H51	H5	0.972000	0.329400	0.744400
N41	N4	0.958000	0.420600	0.598400
C61	C6	0.855300	0.253300	0.672800
C71	C7	0.871900	0.207800	0.735900
H61	H6	0.914200	0.220100	0.767400
C81	C8	0.902100	0.319900	0.654200
C91	C9	0.903900	0.365500	0.591900
H71	H7	0.871400	0.359700	0.549000
C101	C10	0.989500	0.408500	0.664400
H81	H8	0.029500	0.438600	0.685000
N51	N5	0.458400	0.152200	0.300300
H91	H9	0.472000	0.170600	0.255600
N61	N6	0.458000	0.079400	0.401600
C111	C11	0.355300	0.246700	0.327200
C121	C12	0.371900	0.292200	0.264100
H101	H10	0.414200	0.279900	0.232600
C131	C13	0.402100	0.180100	0.345800
C141	C14	0.403900	0.134500	0.408100
H111	H11	0.371400	0.140300	0.451000
C151	C15	0.489500	0.091500	0.335600
H121	H12	0.529500	0.061400	0.315000
N71	N7	0.041600	0.847800	0.800300
H131	H13	0.028000	0.829400	0.755600
N81	N8	0.042000	0.920600	0.901600
C161	C16	0.144700	0.753300	0.827200
C171	C17	0.128100	0.707800	0.764100
H141	H14	0.085800	0.720100	0.732600
C181	C18	0.097900	0.819900	0.845800
C191	C19	0.096100	0.865500	0.908100
H151	H15	0.128600	0.859700	0.951000
C201	C20	0.010500	0.908500	0.835600
H161	H16	0.970500	0.938600	0.815000
N91	N9	0.199700	0.541600	0.652200
H171	H17	0.244400	0.528000	0.670600
N101	N10	0.098400	0.542000	0.579400
C211	C21	0.172800	0.644700	0.746700
C221	C22	0.235900	0.628100	0.792200
H181	H18	0.267400	0.585800	0.779900
C231	C23	0.154200	0.597900	0.680100
C241	C24	0.091900	0.596100	0.634500
H191	H19	0.049000	0.628600	0.640300
C251	C25	0.164400	0.510500	0.591500
H201	H20	0.185000	0.470500	0.561400
N111	N11	0.699700	0.958400	0.347800
H211	H21	0.744400	0.972000	0.329400
N121	N12	0.598400	0.958000	0.420600
C261	C26	0.672800	0.855300	0.253300
C271	C27	0.735900	0.871900	0.207800
H221	H22	0.767400	0.914200	0.220100
C281	C28	0.654200	0.902100	0.319900
C291	C29	0.591900	0.903900	0.365500
H231	H23	0.549000	0.871400	0.359700
C301	C30	0.664400	0.989500	0.408500
H241	H24	0.685000	0.029500	0.438600
N131	N13	0.300300	0.458400	0.152200
H251	H25	0.255600	0.472000	0.170600
N141	N14	0.401600	0.458000	0.079400
C311	C31	0.327200	0.355300	0.246700
C321	C32	0.264100	0.371900	0.292200
H261	H26	0.232600	0.414200	0.279900
C331	C33	0.345800	0.402100	0.180100
C341	C34	0.408100	0.403900	0.134500
H271	H27	0.451000	0.371400	0.140300
C351	C35	0.335600	0.489500	0.091500
H281	H28	0.315000	0.529500	0.061400
N151	N15	0.800300	0.041600	0.847800
H291	H29	0.755600	0.028000	0.829400
N161	N16	0.901600	0.042000	0.920600
C361	C36	0.827200	0.144700	0.753300
C371	C37	0.764100	0.128100	0.707800
H301	H30	0.732600	0.085800	0.720100
C381	C38	0.845800	0.097900	0.819900
C391	C39	0.908100	0.096100	0.865500
H311	H31	0.951000	0.128600	0.859700
C401	C40	0.835600	0.010500	0.908500
H321	H32	0.815000	0.970500	0.938600
N171	N17	0.652200	0.199700	0.541600
H331	H33	0.670600	0.244400	0.528000
N181	N18	0.579400	0.098400	0.542000
C411	C41	0.746700	0.172800	0.644700
C421	C42	0.792200	0.235900	0.628100
H341	H34	0.779900	0.267400	0.585800
C431	C43	0.680100	0.154200	0.597900
C441	C44	0.634500	0.091900	0.596100
H351	H35	0.640300	0.049000	0.628600
C451	C45	0.591500	0.164400	0.510500
H361	H36	0.561400	0.185000	0.470500
N191	N19	0.347800	0.699700	0.958400
H371	H37	0.329400	0.744400	0.972000
N201	N20	0.420600	0.598400	0.958000
C461	C46	0.253300	0.672800	0.855300
C471	C47	0.207800	0.735900	0.871900
H381	H38	0.220100	0.767400	0.914200
C481	C48	0.319900	0.654200	0.902100
C491	C49	0.365500	0.591900	0.903900
H391	H39	0.359700	0.549000	0.871400
C501	C50	0.408500	0.664400	0.989500
H401	H40	0.438600	0.685000	0.029500
N211	N21	0.152200	0.300300	0.458400
H411	H41	0.170600	0.255600	0.472000
N221	N22	0.079400	0.401600	0.458000
C511	C51	0.246700	0.327200	0.355300
C521	C52	0.292200	0.264100	0.371900
H421	H42	0.279900	0.232600	0.414200
C531	C53	0.180100	0.345800	0.402100
C541	C54	0.134500	0.408100	0.403900
H431	H43	0.140300	0.451000	0.371400
C551	C55	0.091500	0.335600	0.489500
H441	H44	0.061400	0.315000	0.529500
N231	N23	0.847800	0.800300	0.041600
H451	H45	0.829400	0.755600	0.028000
N241	N24	0.920600	0.901600	0.042000
C561	C56	0.753300	0.827200	0.144700
C571	C57	0.707800	0.764100	0.128100
H461	H46	0.720100	0.732600	0.085800
C581	C58	0.819900	0.845800	0.097900
C591	C59	0.865500	0.908100	0.096100
H471	H47	0.859700	0.951000	0.128600
C601	C60	0.908500	0.835600	0.010500
H481	H48	0.938600	0.815000	0.970500
N251	N25	0.458400	0.347800	0.800300
H491	H49	0.472000	0.329400	0.755600
N261	N26	0.458000	0.420600	0.901600
C611	C61	0.355300	0.253300	0.827200
C621	C62	0.371900	0.207800	0.764100
H501	H50	0.414200	0.220100	0.732600
C631	C63	0.402100	0.319900	0.845800
C641	C64	0.403900	0.365500	0.908100
H511	H51	0.371400	0.359700	0.951000
C651	C65	0.489500	0.408500	0.835600
H521	H52	0.529500	0.438600	0.815000
N271	N27	0.041600	0.652200	0.300300
H531	H53	0.028000	0.670600	0.255600
N281	N28	0.042000	0.579400	0.401600
C661	C66	0.144700	0.746700	0.327200
C671	C67	0.128100	0.792200	0.264100
H541	H54	0.085800	0.779900	0.232600
C681	C68	0.097900	0.680100	0.345800
C691	C69	0.096100	0.634500	0.408100
H551	H55	0.128600	0.640300	0.451000
C701	C70	0.010500	0.591500	0.335600
H561	H56	0.970500	0.561400	0.315000
N291	N29	0.541600	0.847800	0.699700
H571	H57	0.528000	0.829400	0.744400
N301	N30	0.542000	0.920600	0.598400
C711	C71	0.644700	0.753300	0.672800
C721	C72	0.628100	0.707800	0.735900
H581	H58	0.585800	0.720100	0.767400
C731	C73	0.597900	0.819900	0.654200
C741	C74	0.596100	0.865500	0.591900
H591	H59	0.628600	0.859700	0.549000
C751	C75	0.510500	0.908500	0.664400
H601	H60	0.470500	0.938600	0.685000
N311	N31	0.958400	0.152200	0.199700
H611	H61	0.972000	0.170600	0.244400
N321	N32	0.958000	0.079400	0.098400
C761	C76	0.855300	0.246700	0.172800
C771	C77	0.871900	0.292200	0.235900
H621	H62	0.914200	0.279900	0.267400
C781	C78	0.902100	0.180100	0.154200
C791	C79	0.903900	0.134500	0.091900
H631	H63	0.871400	0.140300	0.049000
C801	C80	0.989500	0.091500	0.164400
H641	H64	0.029500	0.061400	0.185000
N331	N33	0.800300	0.458400	0.347800
H651	H65	0.755600	0.472000	0.329400
N341	N34	0.901600	0.458000	0.420600
C811	C81	0.827200	0.355300	0.253300
C821	C82	0.764100	0.371900	0.207800
H661	H66	0.732600	0.414200	0.220100
C831	C83	0.845800	0.402100	0.319900
C841	C84	0.908100	0.403900	0.365500
H671	H67	0.951000	0.371400	0.359700
C851	C85	0.835600	0.489500	0.408500
H681	H68	0.815000	0.529500	0.438600
N351	N35	0.300300	0.041600	0.652200
H691	H69	0.255600	0.028000	0.670600
N361	N36	0.401600	0.042000	0.579400
C861	C86	0.327200	0.144700	0.746700
C871	C87	0.264100	0.128100	0.792200
H701	H70	0.232600	0.085800	0.779900
C881	C88	0.345800	0.097900	0.680100
C891	C89	0.408100	0.096100	0.634500
H711	H71	0.451000	0.128600	0.640300
C901	C90	0.335600	0.010500	0.591500
H721	H72	0.315000	0.970500	0.561400
N371	N37	0.699700	0.541600	0.847800
H731	H73	0.744400	0.528000	0.829400
N381	N38	0.598400	0.542000	0.920600
C911	C91	0.672800	0.644700	0.753300
C921	C92	0.735900	0.628100	0.707800
H741	H74	0.767400	0.585800	0.720100
C931	C93	0.654200	0.597900	0.819900
C941	C94	0.591900	0.596100	0.865500
H751	H75	0.549000	0.628600	0.859700
C951	C95	0.664400	0.510500	0.908500
H761	H76	0.685000	0.470500	0.938600
N391	N39	0.199700	0.958400	0.152200
H771	H77	0.244400	0.972000	0.170600
N401	N40	0.098400	0.958000	0.079400
C961	C96	0.172800	0.855300	0.246700
C971	C97	0.235900	0.871900	0.292200
H781	H78	0.267400	0.914200	0.279900
C981	C98	0.154200	0.902100	0.180100
C991	C99	0.091900	0.903900	0.134500
H791	H79	0.049000	0.871400	0.140300
C1001	C100	0.164400	0.989500	0.091500
H801	H80	0.185000	0.029500	0.061400
N411	N41	0.347800	0.800300	0.458400
H811	H81	0.329400	0.755600	0.472000
N421	N42	0.420600	0.901600	0.458000
C1011	C101	0.253300	0.827200	0.355300
C1021	C102	0.207800	0.764100	0.371900
H821	H82	0.220100	0.732600	0.414200
C1031	C103	0.319900	0.845800	0.402100
C1041	C104	0.365500	0.908100	0.403900
H831	H83	0.359700	0.951000	0.371400
C1051	C105	0.408500	0.835600	0.489500
H841	H84	0.438600	0.815000	0.529500
N431	N43	0.652200	0.300300	0.041600
H851	H85	0.670600	0.255600	0.028000
N441	N44	0.579400	0.401600	0.042000
C1061	C106	0.746700	0.327200	0.144700
C1071	C107	0.792200	0.264100	0.128100
H861	H86	0.779900	0.232600	0.085800
C1081	C108	0.680100	0.345800	0.097900
C1091	C109	0.634500	0.408100	0.096100
H871	H87	0.640300	0.451000	0.128600
C1101	C110	0.591500	0.335600	0.010500
H881	H88	0.561400	0.315000	0.970500
N451	N45	0.847800	0.699700	0.541600
H891	H89	0.829400	0.744400	0.528000
N461	N46	0.920600	0.598400	0.542000
C1111	C111	0.753300	0.672800	0.644700
C1121	C112	0.707800	0.735900	0.628100
H901	H90	0.720100	0.767400	0.585800
C1131	C113	0.819900	0.654200	0.597900
C1141	C114	0.865500	0.591900	0.596100
H911	H91	0.859700	0.549000	0.628600
C1151	C115	0.908500	0.664400	0.510500
H921	H92	0.938600	0.685000	0.470500
N471	N47	0.152200	0.199700	0.958400
H931	H93	0.170600	0.244400	0.972000
N481	N48	0.079400	0.098400	0.958000
C1161	C116	0.246700	0.172800	0.855300
C1171	C117	0.292200	0.235900	0.871900
H941	H94	0.279900	0.267400	0.914200
C1181	C118	0.180100	0.154200	0.902100
C1191	C119	0.134500	0.091900	0.903900
H951	H95	0.140300	0.049000	0.871400
C1201	C120	0.091500	0.164400	0.989500
H961	H96	0.061400	0.185000	0.029500
Cd11	Cd1	0.500000	0.500000	0.000000
Cd21	Cd2	0.000000	0.500000	0.500000
Cd31	Cd3	0.500000	0.000000	0.500000
Cd41	Cd4	0.000000	0.000000	0.000000
