data_TIXMET_clean_PM
_symmetry_space_group_name_H-M	'P1'
_cell_length_a	33.894000
_cell_length_b	13.229000
_cell_length_c	8.937000
_cell_angle_alpha	90.000000
_cell_angle_beta	104.370000
_cell_angle_gamma	90.000000
_symmetry_Int_Tables_number 1

loop_
_symmetry_equiv_pos_as_xyz
'x,y,z'

loop_
_atom_site_label
_atom_site_type_symbol
_atom_site_fract_x
_atom_site_fract_y
_atom_site_fract_z
Zn11	Zn1	0.148580	0.395700	0.160010
Zn21	Zn2	0.229320	0.641630	0.127240
P11	P1	0.195700	0.551640	0.403570
P21	P2	0.051630	0.382680	0.066600
H11	H1	0.057000	0.285000	0.107000
P31	P3	0.180050	0.209730	0.384600
H21	H2	0.162400	0.118900	0.388000
O11	O1	0.224710	0.627000	0.330500
O21	O2	0.158650	0.519600	0.281800
O31	O3	0.219400	0.457800	0.477000
O41	O4	0.184420	0.620000	0.525200
O51	O5	0.091820	0.411700	0.042000
O61	O6	0.017990	0.395200	0.922600
O71	O7	0.043920	0.428300	0.210000
O81	O8	0.215030	0.192300	0.314300
O91	O9	0.147550	0.274700	0.288700
O101	O10	0.192240	0.242800	0.547700
Zn31	Zn3	0.648580	0.895700	0.160010
Zn41	Zn4	0.729320	0.141630	0.127240
P41	P4	0.695700	0.051640	0.403570
P51	P5	0.551630	0.882680	0.066600
H31	H3	0.557000	0.785000	0.107000
P61	P6	0.680050	0.709730	0.384600
H41	H4	0.662400	0.618900	0.388000
O111	O11	0.724710	0.127000	0.330500
O121	O12	0.658650	0.019600	0.281800
O131	O13	0.719400	0.957800	0.477000
O141	O14	0.684420	0.120000	0.525200
O151	O15	0.591820	0.911700	0.042000
O161	O16	0.517990	0.895200	0.922600
O171	O17	0.543920	0.928300	0.210000
O181	O18	0.715030	0.692300	0.314300
O191	O19	0.647550	0.774700	0.288700
O201	O20	0.692240	0.742800	0.547700
Zn51	Zn5	0.851420	0.395700	0.339990
Zn61	Zn6	0.770680	0.641630	0.372760
P71	P7	0.804300	0.551640	0.096430
P81	P8	0.948370	0.382680	0.433400
H51	H5	0.943000	0.285000	0.393000
P91	P9	0.819950	0.209730	0.115400
H61	H6	0.837600	0.118900	0.112000
O211	O21	0.775290	0.627000	0.169500
O221	O22	0.841350	0.519600	0.218200
O231	O23	0.780600	0.457800	0.023000
O241	O24	0.815580	0.620000	0.974800
O251	O25	0.908180	0.411700	0.458000
O261	O26	0.982010	0.395200	0.577400
O271	O27	0.956080	0.428300	0.290000
O281	O28	0.784970	0.192300	0.185700
O291	O29	0.852450	0.274700	0.211300
O301	O30	0.807760	0.242800	0.952300
Zn71	Zn7	0.351420	0.895700	0.339990
Zn81	Zn8	0.270680	0.141630	0.372760
P101	P10	0.304300	0.051640	0.096430
P111	P11	0.448370	0.882680	0.433400
H71	H7	0.443000	0.785000	0.393000
P121	P12	0.319950	0.709730	0.115400
H81	H8	0.337600	0.618900	0.112000
O311	O31	0.275290	0.127000	0.169500
O321	O32	0.341350	0.019600	0.218200
O331	O33	0.280600	0.957800	0.023000
O341	O34	0.315580	0.120000	0.974800
O351	O35	0.408180	0.911700	0.458000
O361	O36	0.482010	0.895200	0.577400
O371	O37	0.456080	0.928300	0.290000
O381	O38	0.284970	0.692300	0.185700
O391	O39	0.352450	0.774700	0.211300
O401	O40	0.307760	0.742800	0.952300
Zn91	Zn9	0.851420	0.604300	0.839990
Zn101	Zn10	0.770680	0.358370	0.872760
P131	P13	0.804300	0.448360	0.596430
P141	P14	0.948370	0.617320	0.933400
H91	H9	0.943000	0.715000	0.893000
P151	P15	0.819950	0.790270	0.615400
H101	H10	0.837600	0.881100	0.612000
O411	O41	0.775290	0.373000	0.669500
O421	O42	0.841350	0.480400	0.718200
O431	O43	0.780600	0.542200	0.523000
O441	O44	0.815580	0.380000	0.474800
O451	O45	0.908180	0.588300	0.958000
O461	O46	0.982010	0.604800	0.077400
O471	O47	0.956080	0.571700	0.790000
O481	O48	0.784970	0.807700	0.685700
O491	O49	0.852450	0.725300	0.711300
O501	O50	0.807760	0.757200	0.452300
Zn111	Zn11	0.351420	0.104300	0.839990
Zn121	Zn12	0.270680	0.858370	0.872760
P161	P16	0.304300	0.948360	0.596430
P171	P17	0.448370	0.117320	0.933400
H111	H11	0.443000	0.215000	0.893000
P181	P18	0.319950	0.290270	0.615400
H121	H12	0.337600	0.381100	0.612000
O511	O51	0.275290	0.873000	0.669500
O521	O52	0.341350	0.980400	0.718200
O531	O53	0.280600	0.042200	0.523000
O541	O54	0.315580	0.880000	0.474800
O551	O55	0.408180	0.088300	0.958000
O561	O56	0.482010	0.104800	0.077400
O571	O57	0.456080	0.071700	0.790000
O581	O58	0.284970	0.307700	0.685700
O591	O59	0.352450	0.225300	0.711300
O601	O60	0.307760	0.257200	0.452300
Zn131	Zn13	0.148580	0.604300	0.660010
Zn141	Zn14	0.229320	0.358370	0.627240
P191	P19	0.195700	0.448360	0.903570
P201	P20	0.051630	0.617320	0.566600
H131	H13	0.057000	0.715000	0.607000
P211	P21	0.180050	0.790270	0.884600
H141	H14	0.162400	0.881100	0.888000
O611	O61	0.224710	0.373000	0.830500
O621	O62	0.158650	0.480400	0.781800
O631	O63	0.219400	0.542200	0.977000
O641	O64	0.184420	0.380000	0.025200
O651	O65	0.091820	0.588300	0.542000
O661	O66	0.017990	0.604800	0.422600
O671	O67	0.043920	0.571700	0.710000
O681	O68	0.215030	0.807700	0.814300
O691	O69	0.147550	0.725300	0.788700
O701	O70	0.192240	0.757200	0.047700
Zn151	Zn15	0.648580	0.104300	0.660010
Zn161	Zn16	0.729320	0.858370	0.627240
P221	P22	0.695700	0.948360	0.903570
P231	P23	0.551630	0.117320	0.566600
H151	H15	0.557000	0.215000	0.607000
P241	P24	0.680050	0.290270	0.884600
H161	H16	0.662400	0.381100	0.888000
O711	O71	0.724710	0.873000	0.830500
O721	O72	0.658650	0.980400	0.781800
O731	O73	0.719400	0.042200	0.977000
O741	O74	0.684420	0.880000	0.025200
O751	O75	0.591820	0.088300	0.542000
O761	O76	0.517990	0.104800	0.422600
O771	O77	0.543920	0.071700	0.710000
O781	O78	0.715030	0.307700	0.814300
O791	O79	0.647550	0.225300	0.788700
O801	O80	0.692240	0.257200	0.047700
Zn171	Zn17	0.000000	0.488620	0.750000
Zn181	Zn18	0.500000	0.988620	0.750000
Zn191	Zn19	0.000000	0.511380	0.250000
Zn201	Zn20	0.500000	0.011380	0.250000
