data_TOBKEC_clean_PM
_symmetry_space_group_name_H-M	'P1'
_cell_length_a	6.346200
_cell_length_b	16.580000
_cell_length_c	24.018000
_cell_angle_alpha	90.000000
_cell_angle_beta	90.683000
_cell_angle_gamma	90.000000
_symmetry_Int_Tables_number 1

loop_
_symmetry_equiv_pos_as_xyz
'x,y,z'

loop_
_atom_site_label
_atom_site_type_symbol
_atom_site_fract_x
_atom_site_fract_y
_atom_site_fract_z
Dy11	Dy1	0.262390	0.062170	0.023210
C11	C1	0.232800	0.944100	0.932200
C21	C2	0.273200	0.899100	0.881200
C31	C3	0.471100	0.861500	0.871300
C41	C4	0.493900	0.817800	0.820800
H11	H1	0.624900	0.792500	0.813400
C51	C5	0.332600	0.811000	0.782300
C61	C6	0.139800	0.850300	0.792400
H21	H2	0.028100	0.847000	0.765800
C71	C7	0.113700	0.892800	0.840400
H31	H3	0.983000	0.919100	0.846400
C81	C8	0.359300	0.761500	0.731300
C91	C9	0.194900	0.713300	0.711300
H41	H4	0.061600	0.715700	0.728800
C101	C10	0.222500	0.662400	0.666700
C111	C11	0.417500	0.659600	0.638600
C121	C12	0.577700	0.709500	0.658200
H51	H5	0.709700	0.708900	0.639900
C131	C13	0.550900	0.760100	0.703500
H61	H6	0.663300	0.793900	0.715600
C141	C14	0.451700	0.604400	0.591200
O11	O1	0.059400	0.981000	0.940300
O21	O2	0.372800	0.949200	0.970600
O31	O3	0.609300	0.616800	0.559700
O41	O4	0.322900	0.546400	0.584700
O51	O5	0.633900	0.863300	0.906400
O61	O6	0.055800	0.615100	0.651300
H71	H7	0.094300	0.582000	0.627000
Dy21	Dy2	0.737610	0.562170	0.476790
C151	C15	0.767200	0.444100	0.567800
C161	C16	0.726800	0.399100	0.618800
C171	C17	0.528900	0.361500	0.628700
C181	C18	0.506100	0.317800	0.679200
H81	H8	0.375100	0.292500	0.686600
C191	C19	0.667400	0.311000	0.717700
C201	C20	0.860200	0.350300	0.707600
H91	H9	0.971900	0.347000	0.734200
C211	C21	0.886300	0.392800	0.659600
H101	H10	0.017000	0.419100	0.653600
C221	C22	0.640700	0.261500	0.768700
C231	C23	0.805100	0.213300	0.788700
H111	H11	0.938400	0.215700	0.771200
C241	C24	0.777500	0.162400	0.833300
C251	C25	0.582500	0.159600	0.861400
C261	C26	0.422300	0.209500	0.841800
H121	H12	0.290300	0.208900	0.860100
C271	C27	0.449100	0.260100	0.796500
H131	H13	0.336700	0.293900	0.784400
C281	C28	0.548300	0.104400	0.908800
O71	O7	0.940600	0.481000	0.559700
O81	O8	0.627200	0.449200	0.529400
O91	O9	0.390700	0.116800	0.940300
O101	O10	0.677100	0.046400	0.915300
O111	O11	0.366100	0.363300	0.593600
O121	O12	0.944200	0.115100	0.848700
H141	H14	0.905700	0.082000	0.873000
Dy31	Dy3	0.737610	0.937830	0.976790
C291	C29	0.767200	0.055900	0.067800
C301	C30	0.726800	0.100900	0.118800
C311	C31	0.528900	0.138500	0.128700
C321	C32	0.506100	0.182200	0.179200
H151	H15	0.375100	0.207500	0.186600
C331	C33	0.667400	0.189000	0.217700
C341	C34	0.860200	0.149700	0.207600
H161	H16	0.971900	0.153000	0.234200
C351	C35	0.886300	0.107200	0.159600
H171	H17	0.017000	0.080900	0.153600
C361	C36	0.640700	0.238500	0.268700
C371	C37	0.805100	0.286700	0.288700
H181	H18	0.938400	0.284300	0.271200
C381	C38	0.777500	0.337600	0.333300
C391	C39	0.582500	0.340400	0.361400
C401	C40	0.422300	0.290500	0.341800
H191	H19	0.290300	0.291100	0.360100
C411	C41	0.449100	0.239900	0.296500
H201	H20	0.336700	0.206100	0.284400
C421	C42	0.548300	0.395600	0.408800
O131	O13	0.940600	0.019000	0.059700
O141	O14	0.627200	0.050800	0.029400
O151	O15	0.390700	0.383200	0.440300
O161	O16	0.677100	0.453600	0.415300
O171	O17	0.366100	0.136700	0.093600
O181	O18	0.944200	0.384900	0.348700
H211	H21	0.905700	0.418000	0.373000
Dy41	Dy4	0.262390	0.437830	0.523210
C431	C43	0.232800	0.555900	0.432200
C441	C44	0.273200	0.600900	0.381200
C451	C45	0.471100	0.638500	0.371300
C461	C46	0.493900	0.682200	0.320800
H221	H22	0.624900	0.707500	0.313400
C471	C47	0.332600	0.689000	0.282300
C481	C48	0.139800	0.649700	0.292400
H231	H23	0.028100	0.653000	0.265800
C491	C49	0.113700	0.607200	0.340400
H241	H24	0.983000	0.580900	0.346400
C501	C50	0.359300	0.738500	0.231300
C511	C51	0.194900	0.786700	0.211300
H251	H25	0.061600	0.784300	0.228800
C521	C52	0.222500	0.837600	0.166700
C531	C53	0.417500	0.840400	0.138600
C541	C54	0.577700	0.790500	0.158200
H261	H26	0.709700	0.791100	0.139900
C551	C55	0.550900	0.739900	0.203500
H271	H27	0.663300	0.706100	0.215600
C561	C56	0.451700	0.895600	0.091200
O191	O19	0.059400	0.519000	0.440300
O201	O20	0.372800	0.550800	0.470600
O211	O21	0.609300	0.883200	0.059700
O221	O22	0.322900	0.953600	0.084700
O231	O23	0.633900	0.636700	0.406400
O241	O24	0.055800	0.884900	0.151300
H281	H28	0.094300	0.918000	0.127000
