data_TODVOZ_clean_PM
_symmetry_space_group_name_H-M	'P1'
_cell_length_a	7.576400
_cell_length_b	14.120000
_cell_length_c	15.795000
_cell_angle_alpha	71.810000
_cell_angle_beta	87.780000
_cell_angle_gamma	79.380000
_symmetry_Int_Tables_number 1

loop_
_symmetry_equiv_pos_as_xyz
'x,y,z'

loop_
_atom_site_label
_atom_site_type_symbol
_atom_site_fract_x
_atom_site_fract_y
_atom_site_fract_z
Cd11	Cd1	0.021000	0.270300	0.726300
Cd21	Cd2	0.514190	0.166250	0.737730
C11	C1	0.339700	0.198300	0.881100
C21	C2	0.244400	0.242500	0.945800
C31	C3	0.189800	0.185300	0.023300
H11	H1	0.212500	0.115000	0.037200
C41	C4	0.102200	0.228700	0.081300
H21	H2	0.063800	0.188100	0.134700
C51	C5	0.069100	0.331000	0.063000
H31	H3	0.005200	0.360300	0.102700
C61	C6	0.131200	0.391100	0.985000
H41	H4	0.113500	0.461000	0.973300
C71	C7	0.217700	0.348500	0.925400
C81	C8	0.312800	0.546400	0.744900
C91	C9	0.325000	0.644700	0.734600
H51	H5	0.288300	0.672900	0.779700
C101	C10	0.391400	0.701400	0.657600
H61	H6	0.398900	0.768300	0.650900
C111	C11	0.446400	0.662600	0.590900
H71	H7	0.493200	0.701200	0.539000
C121	C12	0.430400	0.563900	0.602700
H81	H8	0.465500	0.536700	0.556800
C131	C13	0.366300	0.504400	0.677600
C141	C14	0.340200	0.402800	0.679100
C151	C15	0.091700	0.982900	0.901700
C161	C16	0.268100	0.930300	0.925000
H91	H9	0.314400	0.916100	0.982200
C171	C17	0.369000	0.900700	0.861800
H101	H10	0.485000	0.864700	0.877200
C181	C18	0.307900	0.921400	0.776600
H111	H11	0.380700	0.901100	0.734400
C191	C19	0.133300	0.974000	0.755100
H121	H12	0.086400	0.986700	0.698300
C201	C20	0.031500	0.006600	0.815700
C211	C21	0.849400	0.065800	0.787500
C221	C22	0.322500	0.101500	0.461600
C231	C23	0.291100	0.107300	0.375900
H131	H13	0.343800	0.055400	0.353500
C241	C24	0.181300	0.190300	0.323700
H141	H14	0.160300	0.194900	0.264800
C251	C25	0.103200	0.264800	0.353400
H151	H15	0.030300	0.321200	0.315400
C261	C26	0.129800	0.258900	0.441200
H161	H16	0.073600	0.310800	0.462900
C271	C27	0.240500	0.175200	0.496200
C281	C28	0.275900	0.173300	0.588400
C291	C29	0.538000	0.517700	0.962500
H171	H17	0.517300	0.587900	0.937800
C301	C30	0.652300	0.460700	0.911900
C311	C31	0.681800	0.355500	0.937900
H181	H18	0.631300	0.318700	0.989500
C321	C32	0.786200	0.307200	0.886100
H191	H19	0.805700	0.236700	0.903700
C331	C33	0.831500	0.455300	0.787700
H201	H20	0.882700	0.490900	0.735800
C341	C34	0.727300	0.508100	0.836300
H211	H21	0.708100	0.578600	0.816400
N11	N1	0.279700	0.402100	0.843400
N21	N2	0.243900	0.495800	0.826300
N31	N3	0.975000	0.017600	0.960000
N41	N4	0.434500	0.015600	0.519500
N51	N5	0.861500	0.355900	0.811800
O11	O1	0.255300	0.189200	0.817700
O21	O2	0.506500	0.174200	0.885600
O31	O3	0.475500	0.337500	0.682800
O41	O4	0.182800	0.393200	0.671000
O51	O5	0.825700	0.160200	0.763200
O61	O6	0.724100	0.021700	0.786400
O71	O7	0.143000	0.195700	0.629900
O81	O8	0.433300	0.149900	0.615600
Cd31	Cd3	0.979000	0.729700	0.273700
Cd41	Cd4	0.485810	0.833750	0.262270
C351	C35	0.660300	0.801700	0.118900
C361	C36	0.755600	0.757500	0.054200
C371	C37	0.810200	0.814700	0.976700
H221	H22	0.787500	0.885000	0.962800
C381	C38	0.897800	0.771300	0.918700
H231	H23	0.936200	0.811900	0.865300
C391	C39	0.930900	0.669000	0.937000
H241	H24	0.994800	0.639700	0.897300
C401	C40	0.868800	0.608900	0.015000
H251	H25	0.886500	0.539000	0.026700
C411	C41	0.782300	0.651500	0.074600
C421	C42	0.687200	0.453600	0.255100
C431	C43	0.675000	0.355300	0.265400
H261	H26	0.711700	0.327100	0.220300
C441	C44	0.608600	0.298600	0.342400
H271	H27	0.601100	0.231700	0.349100
C451	C45	0.553600	0.337400	0.409100
H281	H28	0.506800	0.298800	0.461000
C461	C46	0.569600	0.436100	0.397300
H291	H29	0.534500	0.463300	0.443200
C471	C47	0.633700	0.495600	0.322400
C481	C48	0.659800	0.597200	0.320900
C491	C49	0.908300	0.017100	0.098300
C501	C50	0.731900	0.069700	0.075000
H301	H30	0.685600	0.083900	0.017800
C511	C51	0.631000	0.099300	0.138200
H311	H31	0.515000	0.135300	0.122800
C521	C52	0.692100	0.078600	0.223400
H321	H32	0.619300	0.098900	0.265600
C531	C53	0.866700	0.026000	0.244900
H331	H33	0.913600	0.013300	0.301700
C541	C54	0.968500	0.993400	0.184300
C551	C55	0.150600	0.934200	0.212500
C561	C56	0.677500	0.898500	0.538400
C571	C57	0.708900	0.892700	0.624100
H341	H34	0.656200	0.944600	0.646500
C581	C58	0.818700	0.809700	0.676300
H351	H35	0.839700	0.805100	0.735200
C591	C59	0.896800	0.735200	0.646600
H361	H36	0.969700	0.678800	0.684600
C601	C60	0.870200	0.741100	0.558800
H371	H37	0.926400	0.689200	0.537100
C611	C61	0.759500	0.824800	0.503800
C621	C62	0.724100	0.826700	0.411600
C631	C63	0.462000	0.482300	0.037500
H381	H38	0.482700	0.412100	0.062200
C641	C64	0.347700	0.539300	0.088100
C651	C65	0.318200	0.644500	0.062100
H391	H39	0.368700	0.681300	0.010500
C661	C66	0.213800	0.692800	0.113900
H401	H40	0.194300	0.763300	0.096300
C671	C67	0.168500	0.544700	0.212300
H411	H41	0.117300	0.509100	0.264200
C681	C68	0.272700	0.491900	0.163700
H421	H42	0.291900	0.421400	0.183600
N61	N6	0.720300	0.597900	0.156600
N71	N7	0.756100	0.504200	0.173700
N81	N8	0.025000	0.982400	0.040000
N91	N9	0.565500	0.984400	0.480500
N101	N10	0.138500	0.644100	0.188200
O91	O9	0.744700	0.810800	0.182300
O101	O10	0.493500	0.825800	0.114400
O111	O11	0.524500	0.662500	0.317200
O121	O12	0.817200	0.606800	0.329000
O131	O13	0.174300	0.839800	0.236800
O141	O14	0.275900	0.978300	0.213600
O151	O15	0.857000	0.804300	0.370100
O161	O16	0.566700	0.850100	0.384400
