data_TOFTIT_clean_PM
_symmetry_space_group_name_H-M	'P1'
_cell_length_a	31.495500
_cell_length_b	31.495500
_cell_length_c	31.623400
_cell_angle_alpha	119.866000
_cell_angle_beta	119.866000
_cell_angle_gamma	90.000000
_symmetry_Int_Tables_number 1

loop_
_symmetry_equiv_pos_as_xyz
'x,y,z'

loop_
_atom_site_label
_atom_site_type_symbol
_atom_site_fract_x
_atom_site_fract_y
_atom_site_fract_z
Cu11	Cu1	0.769620	0.732280	0.251420
Cu21	Cu2	0.518190	0.480860	0.748570
Cu31	Cu3	0.481810	0.519140	0.251430
Cu41	Cu4	0.453330	0.165840	0.000010
Cu51	Cu5	0.809680	0.475760	0.334860
Cu61	Cu6	0.834160	0.453330	0.000000
Cu71	Cu7	0.732280	0.481810	0.251420
Cu81	Cu8	0.859100	0.809680	0.334860
Cu91	Cu9	0.750720	0.464560	0.000000
Cu101	Cu10	0.140900	0.190320	0.665140
Cu111	Cu11	0.525180	0.859100	0.334860
Cu121	Cu12	0.475760	0.525180	0.334860
Cu131	Cu13	0.464560	0.249280	0.000000
Cu141	Cu14	0.535440	0.750720	0.000000
Cu151	Cu15	0.230380	0.267720	0.748580
Cu161	Cu16	0.519140	0.769620	0.251430
Cu171	Cu17	0.249280	0.535440	0.000000
Cu181	Cu18	0.165840	0.546670	0.000000
Cu191	Cu19	0.474820	0.140900	0.665140
Cu201	Cu20	0.524240	0.474820	0.665140
Cu211	Cu21	0.546670	0.834160	0.999990
Cu221	Cu22	0.267720	0.518190	0.748580
Cu231	Cu23	0.190320	0.524240	0.665140
Cu241	Cu24	0.480860	0.230380	0.748570
H11	H1	0.926200	0.899200	0.410800
H21	H2	0.214500	0.746300	0.726600
H31	H3	0.274500	0.896900	0.784400
H41	H4	0.691300	0.786500	0.141000
H51	H5	0.930700	0.614600	0.123800
H61	H6	0.463900	0.182300	0.550800
H71	H7	0.564600	0.770700	0.856000
H81	H8	0.330200	0.519600	0.144400
H91	H9	0.624800	0.330200	0.144400
H101	H10	0.462300	0.207600	0.214000
H111	H11	0.490100	0.112500	0.215600
H121	H12	0.689400	0.500200	0.749600
H131	H13	0.073800	0.100800	0.589200
H141	H14	0.691600	0.934500	0.448800
H151	H15	0.725500	0.103100	0.215600
H161	H16	0.914700	0.435400	0.144000
H171	H17	0.308700	0.213500	0.859000
H181	H18	0.490800	0.069300	0.876200
H191	H19	0.511600	0.926200	0.410800
H201	H20	0.205800	0.468400	0.456600
H211	H21	0.322100	0.501400	0.826800
H221	H22	0.905800	0.445600	0.270600
H231	H23	0.185800	0.375200	0.855600
H241	H24	0.749200	0.011800	0.543400
H251	H25	0.069300	0.385400	0.876200
H261	H26	0.913100	0.631500	0.449200
H271	H27	0.817700	0.913100	0.449200
H281	H28	0.059900	0.445000	0.184400
H291	H29	0.516100	0.679300	0.317000
H301	H30	0.480400	0.185800	0.855600
H311	H31	0.940100	0.555000	0.815600
H321	H32	0.750600	0.310600	0.250400
H331	H33	0.484600	0.511600	0.410800
H341	H34	0.531600	0.749200	0.543400
H351	H35	0.939800	0.750600	0.250400
H361	H36	0.631500	0.536100	0.449200
H371	H37	0.487900	0.019700	0.273400
H381	H38	0.637700	0.516100	0.317000
H391	H39	0.674600	0.677900	0.173200
H401	H40	0.746300	0.512100	0.726600
H411	H41	0.814200	0.624800	0.144400
H421	H42	0.085300	0.564600	0.856000
H431	H43	0.364800	0.825000	0.270600
H441	H44	0.512100	0.980300	0.726600
H451	H45	0.019700	0.785500	0.273400
H461	H46	0.792400	0.248300	0.786000
H471	H47	0.509200	0.930700	0.123800
H481	H48	0.229300	0.708600	0.144000
H491	H49	0.504700	0.325400	0.826800
H501	H50	0.060200	0.249400	0.749600
H511	H51	0.751700	0.006400	0.214000
H521	H52	0.495300	0.674600	0.173200
H531	H53	0.086900	0.368500	0.550800
H541	H54	0.785500	0.253700	0.273400
H551	H55	0.554400	0.635200	0.729400
H561	H56	0.213500	0.550300	0.859000
H571	H57	0.291400	0.085300	0.856000
H581	H58	0.514300	0.691600	0.448800
H591	H59	0.645500	0.308700	0.859000
H601	H60	0.509900	0.887500	0.784400
H611	H61	0.614600	0.193100	0.123800
H621	H62	0.124500	0.739400	0.184400
H631	H63	0.112500	0.725500	0.215600
H641	H64	0.385400	0.806900	0.876200
H651	H65	0.249400	0.689400	0.749600
H661	H66	0.899200	0.484600	0.410800
H671	H67	0.708600	0.914700	0.144000
H681	H68	0.250800	0.988200	0.456600
H691	H69	0.445600	0.364800	0.270600
H701	H70	0.354500	0.691300	0.141000
H711	H71	0.325400	0.322100	0.826800
H721	H72	0.435400	0.229300	0.144000
H731	H73	0.515400	0.488400	0.589200
H741	H74	0.449700	0.354500	0.141000
H751	H75	0.094200	0.554400	0.729400
H761	H76	0.739400	0.059900	0.184400
H771	H77	0.794200	0.531600	0.543400
H781	H78	0.887500	0.274500	0.784400
H791	H79	0.786500	0.449700	0.141000
H801	H80	0.993600	0.537700	0.786000
H811	H81	0.011800	0.794200	0.543400
H821	H82	0.368500	0.463900	0.550800
H831	H83	0.679300	0.800900	0.317000
H841	H84	0.182300	0.086900	0.550800
H851	H85	0.501400	0.504700	0.826800
H861	H86	0.550300	0.645500	0.859000
H871	H87	0.483900	0.320700	0.683000
H881	H88	0.806900	0.490800	0.876200
H891	H89	0.199100	0.362300	0.683000
H901	H90	0.488400	0.073800	0.589200
H911	H91	0.519600	0.814200	0.144400
H921	H92	0.934500	0.757200	0.448800
H931	H93	0.445000	0.124500	0.184400
H941	H94	0.499800	0.939800	0.250400
H951	H95	0.800900	0.637700	0.317000
H961	H96	0.100800	0.515400	0.589200
H971	H97	0.980300	0.214500	0.726600
H981	H98	0.468400	0.250800	0.456600
H991	H99	0.555000	0.875500	0.815600
H1001	H100	0.248300	0.993600	0.786000
H1011	H101	0.308400	0.065500	0.551200
H1021	H102	0.320700	0.199100	0.683000
H1031	H103	0.498600	0.495300	0.173200
H1041	H104	0.362300	0.483900	0.683000
H1051	H105	0.310600	0.499800	0.250400
H1061	H106	0.065500	0.242800	0.551200
H1071	H107	0.103100	0.490100	0.215600
H1081	H108	0.175000	0.094200	0.729400
H1091	H109	0.635200	0.175000	0.729400
H1101	H110	0.253700	0.487900	0.273400
H1111	H111	0.500200	0.060200	0.749600
H1121	H112	0.193100	0.509200	0.123800
H1131	H113	0.896900	0.509900	0.784400
H1141	H114	0.537700	0.792400	0.786000
H1151	H115	0.375200	0.669800	0.855600
H1161	H116	0.988200	0.205800	0.456600
H1171	H117	0.006400	0.462300	0.214000
H1181	H118	0.825000	0.905800	0.270600
H1191	H119	0.485700	0.308400	0.551200
H1201	H120	0.669800	0.480400	0.855600
H1211	H121	0.207600	0.751700	0.214000
H1221	H122	0.536100	0.817700	0.449200
H1231	H123	0.260600	0.940100	0.815600
H1241	H124	0.757200	0.514300	0.448800
H1251	H125	0.677900	0.498600	0.173200
H1261	H126	0.770700	0.291400	0.856000
H1271	H127	0.242800	0.485700	0.551200
H1281	H128	0.875500	0.260600	0.815600
C11	C1	0.706330	0.229200	0.788800
C21	C2	0.711350	0.819680	0.159060
C31	C3	0.930550	0.697690	0.456840
C41	C4	0.445040	0.345550	0.236420
C51	C5	0.481680	0.300630	0.647860
C61	C6	0.855750	0.202480	0.740880
C71	C7	0.461600	0.144250	0.259120
C81	C8	0.178750	0.479850	0.241240
C91	C9	0.131370	0.388710	0.872300
C101	C10	0.472380	0.224020	0.651900
C111	C11	0.527620	0.775980	0.348100
C121	C12	0.640040	0.309500	0.156420
C131	C13	0.697690	0.526290	0.456840
C141	C14	0.851740	0.203210	0.323680
C151	C15	0.485830	0.147970	0.763360
C161	C16	0.770080	0.214800	0.763020
C171	C17	0.468550	0.219560	0.452720
C181	C18	0.535120	0.834270	0.642760
C191	C19	0.774520	0.168690	0.724620
C201	C20	0.808490	0.535120	0.642760
C211	C21	0.552290	0.660620	0.840940
C221	C22	0.120470	0.851740	0.323680
C231	C23	0.165730	0.892360	0.357240
C241	C24	0.796790	0.528060	0.676320
C251	C25	0.099250	0.351080	0.568720
C261	C26	0.761210	0.841520	0.210000
C271	C27	0.743390	0.364340	0.918320
C281	C28	0.831310	0.049900	0.275380
C291	C29	0.241440	0.777680	0.754280
C301	C30	0.503070	0.942130	0.189560
C311	C31	0.225480	0.831310	0.275380
C321	C32	0.277530	0.615390	0.763360
C331	C33	0.834910	0.529020	0.724880
C341	C34	0.752570	0.496930	0.810440
C351	C35	0.761310	0.474770	0.920680
C361	C36	0.885130	0.538400	0.740880
C371	C37	0.238790	0.158480	0.790000
C381	C38	0.921840	0.715590	0.219600
C391	C39	0.297760	0.504010	0.219600
C401	C40	0.373450	0.473760	0.621480
C411	C41	0.554960	0.654450	0.763580
C421	C42	0.782420	0.813900	0.239120
C431	C43	0.308890	0.152760	0.865360
C441	C44	0.531450	0.780440	0.547280
C451	C45	0.259070	0.516410	0.127700
C461	C46	0.293380	0.086410	0.568840
C471	C47	0.820480	0.572120	0.348100
C481	C48	0.890870	0.445040	0.236420
C491	C49	0.293670	0.770800	0.211200
C501	C50	0.660620	0.288650	0.840940
C511	C51	0.345550	0.791380	0.236420
C521	C52	0.706620	0.913590	0.431160
C531	C53	0.222320	0.487160	0.245720
C541	C54	0.202480	0.885130	0.740880
C551	C55	0.456700	0.425220	0.239120
C561	C56	0.889970	0.195860	0.724880
C571	C57	0.180320	0.552290	0.840940
C581	C58	0.858790	0.544330	0.659220
C591	C59	0.676770	0.864570	0.378240
C601	C60	0.525230	0.840630	0.079320
C611	C61	0.057570	0.767810	0.590800
C621	C62	0.278460	0.103560	0.839320
C631	C63	0.652770	0.518320	0.352140
C641	C64	0.810610	0.162410	0.708640
C651	C65	0.007060	0.451780	0.236980
C661	C66	0.186100	0.543300	0.760880
C671	C67	0.885110	0.141210	0.340780
C681	C68	0.868630	0.611290	0.127700
C691	C69	0.516410	0.868630	0.127700
C701	C70	0.083720	0.366080	0.856540
C711	C71	0.800430	0.114890	0.659220
C721	C72	0.841520	0.448790	0.210000
C731	C73	0.256610	0.635660	0.081680
C741	C74	0.114870	0.461600	0.259120
C751	C75	0.049900	0.444070	0.275380
C761	C76	0.834270	0.107640	0.642760
C771	C77	0.444070	0.225480	0.275380
C781	C78	0.109130	0.554960	0.763580
C791	C79	0.528060	0.879530	0.676320
C801	C80	0.504010	0.921840	0.219600
C811	C81	0.302310	0.473710	0.543160
C821	C82	0.984170	0.233160	0.452720
C831	C83	0.135430	0.298530	0.621760
C841	C84	0.069450	0.302310	0.543160
C851	C85	0.443530	0.287400	0.134640
C861	C86	0.529020	0.889970	0.724880
C871	C87	0.514170	0.852030	0.236640
C881	C88	0.284410	0.702240	0.780400
C891	C89	0.165090	0.470980	0.275120
C901	C90	0.766840	0.531450	0.547280
C911	C91	0.715590	0.297760	0.219600
C921	C92	0.177010	0.942430	0.409200
C931	C93	0.451780	0.229920	0.236980
C941	C94	0.821250	0.520150	0.758760
C951	C95	0.913590	0.724540	0.431160
C961	C96	0.937510	0.238610	0.758760
C971	C97	0.082470	0.559600	0.788800
C981	C98	0.772820	0.490460	0.856540
C991	C99	0.208620	0.109130	0.763580
C1001	C100	0.722470	0.384610	0.236640
C1011	C101	0.023400	0.758560	0.245720
C1021	C102	0.240850	0.069450	0.543160
C1031	C103	0.482430	0.293380	0.568840
C1041	C104	0.110030	0.804140	0.275120
C1051	C105	0.518320	0.699370	0.352140
C1061	C106	0.992940	0.548220	0.763020
C1071	C107	0.976600	0.241440	0.754280
C1081	C108	0.473710	0.240850	0.543160
C1091	C109	0.670980	0.488570	0.796420
C1101	C110	0.247430	0.503070	0.189560
C1111	C111	0.635660	0.825070	0.081680
C1121	C112	0.648920	0.530530	0.431280
C1131	C113	0.574780	0.217580	0.760880
C1141	C114	0.813900	0.456700	0.239120
C1151	C115	0.845610	0.728870	0.348040
C1161	C116	0.168690	0.950100	0.724620
C1171	C117	0.152760	0.556470	0.865360
C1181	C118	0.767810	0.533230	0.590800
C1191	C119	0.900750	0.648920	0.431280
C1201	C120	0.275460	0.482430	0.568840
C1211	C121	0.692150	0.329020	0.203580
C1221	C122	0.712600	0.308890	0.865360
C1231	C123	0.544330	0.800430	0.659220
C1241	C124	0.490460	0.083720	0.856540
C1251	C125	0.686490	0.247430	0.189560
C1261	C126	0.825070	0.446020	0.081680
C1271	C127	0.942430	0.232190	0.409200
C1281	C128	0.471940	0.120470	0.323680
C1291	C129	0.804140	0.165090	0.275120
C1301	C130	0.144250	0.797520	0.259120
C1311	C131	0.232190	0.466770	0.409200
C1321	C132	0.556470	0.712600	0.865360
C1331	C133	0.464880	0.165730	0.357240
C1341	C134	0.699370	0.833820	0.352140
C1351	C135	0.309500	0.516380	0.156420
C1361	C136	0.248030	0.147720	0.621480
C1371	C137	0.690500	0.483620	0.843580
C1381	C138	0.103560	0.560860	0.839320
C1391	C139	0.572120	0.527620	0.348100
C1401	C140	0.479850	0.062490	0.241240
C1411	C141	0.313510	0.752570	0.810440
C1421	C142	0.199570	0.885110	0.340780
C1431	C143	0.751970	0.852280	0.378520
C1441	C144	0.555930	0.774520	0.724620
C1451	C145	0.086410	0.275460	0.568840
C1461	C146	0.728870	0.502430	0.348040
C1471	C147	0.777680	0.512840	0.754280
C1481	C148	0.229920	0.785200	0.236980
C1491	C149	0.633920	0.227180	0.143460
C1501	C150	0.153080	0.359960	0.843580
C1511	C151	0.701470	0.513670	0.378240
C1521	C152	0.538400	0.855750	0.740880
C1531	C153	0.486330	0.323230	0.621760
C1541	C154	0.512840	0.976600	0.754280
C1551	C155	0.148260	0.796790	0.676320
C1561	C156	0.469470	0.217640	0.568720
C1571	C157	0.879530	0.148260	0.676320
C1581	C158	0.502430	0.619170	0.348040
C1591	C159	0.530530	0.782360	0.431280
C1601	C160	0.015830	0.766840	0.547280
C1611	C161	0.466770	0.177010	0.409200
C1621	C162	0.159370	0.445910	0.920680
C1631	C163	0.107640	0.808490	0.642760
C1641	C164	0.615390	0.485830	0.763360
C1651	C165	0.791380	0.890870	0.236420
C1661	C166	0.339380	0.711350	0.159060
C1671	C167	0.553980	0.743390	0.918320
C1681	C168	0.721540	0.896440	0.160680
C1691	C169	0.351080	0.469470	0.568720
C1701	C170	0.619170	0.845610	0.348040
C1711	C171	0.797520	0.114870	0.259120
C1721	C172	0.307850	0.670980	0.796420
C1731	C173	0.495990	0.078160	0.780400
C1741	C174	0.388710	0.740930	0.872300
C1751	C175	0.224020	0.179520	0.651900
C1761	C176	0.298530	0.486330	0.621760
C1771	C177	0.833820	0.652770	0.352140
C1781	C178	0.323230	0.135430	0.621760
C1791	C179	0.446020	0.256610	0.081680
C1801	C180	0.474770	0.159370	0.920680
C1811	C181	0.917530	0.440400	0.211200
C1821	C182	0.551210	0.631520	0.790000
C1831	C183	0.078160	0.284410	0.780400
C1841	C184	0.950100	0.555930	0.724620
C1851	C185	0.174930	0.553980	0.918320
C1861	C186	0.427880	0.472380	0.651900
C1871	C187	0.758560	0.222320	0.245720
C1881	C188	0.548220	0.770080	0.763020
C1891	C189	0.147970	0.277530	0.763360
C1901	C190	0.141210	0.455670	0.340780
C1911	C191	0.822990	0.057570	0.590800
C1921	C192	0.219560	0.984170	0.452720
C1931	C193	0.509540	0.916280	0.143460
C1941	C194	0.702240	0.495990	0.780400
C1951	C195	0.125440	0.307850	0.796420
C1961	C196	0.496930	0.057870	0.810440
C1971	C197	0.511430	0.874560	0.203580
C1981	C198	0.057870	0.313510	0.810440
C1991	C199	0.488570	0.125440	0.796420
C2001	C200	0.440400	0.293670	0.211200
C2011	C201	0.497570	0.380830	0.651960
C2021	C202	0.217580	0.186100	0.760880
C2031	C203	0.162410	0.898030	0.708640
C2041	C204	0.238610	0.821250	0.758760
C2051	C205	0.654450	0.208620	0.763580
C2061	C206	0.846920	0.640040	0.156420
C2071	C207	0.425220	0.782420	0.239120
C2081	C208	0.626550	0.526240	0.378520
C2091	C209	0.229200	0.082470	0.788800
C2101	C210	0.770800	0.917530	0.211200
C2111	C211	0.761390	0.178750	0.241240
C2121	C212	0.487160	0.023400	0.245720
C2131	C213	0.364340	0.174930	0.918320
C2141	C214	0.455670	0.199570	0.340780
C2151	C215	0.546230	0.810610	0.708640
C2161	C216	0.264240	0.721540	0.160680
C2171	C217	0.366080	0.772820	0.856540
C2181	C218	0.847240	0.443530	0.134640
C2191	C219	0.483590	0.131370	0.872300
C2201	C220	0.347230	0.481680	0.647860
C2211	C221	0.158480	0.551210	0.790000
C2221	C222	0.203210	0.471940	0.323680
C2231	C223	0.516380	0.846920	0.156420
C2241	C224	0.837590	0.101970	0.291360
C2251	C225	0.445910	0.761310	0.920680
C2261	C226	0.775980	0.820480	0.348100
C2271	C227	0.520150	0.937510	0.758760
C2281	C228	0.533230	0.822990	0.590800
C2291	C229	0.483620	0.153080	0.843580
C2301	C230	0.942130	0.686490	0.189560
C2311	C231	0.101970	0.453770	0.291360
C2321	C232	0.380830	0.154390	0.651960
C2331	C233	0.359960	0.690500	0.843580
C2341	C234	0.892360	0.191510	0.357240
C2351	C235	0.470980	0.110030	0.275120
C2361	C236	0.554090	0.238690	0.079320
C2371	C237	0.840630	0.554090	0.079320
C2381	C238	0.898030	0.546230	0.708640
C2391	C239	0.233160	0.468550	0.452720
C2401	C240	0.147720	0.373450	0.621480
C2411	C241	0.195860	0.834910	0.724880
C2421	C242	0.384610	0.514170	0.236640
C2431	C243	0.517570	0.706620	0.431160
C2441	C244	0.217640	0.099250	0.568720
C2451	C245	0.559600	0.706330	0.788800
C2461	C246	0.271130	0.497570	0.651960
C2471	C247	0.368480	0.761210	0.210000
C2481	C248	0.439140	0.264240	0.160680
C2491	C249	0.166180	0.347230	0.647860
C2501	C250	0.735760	0.278460	0.839320
C2511	C251	0.329020	0.511430	0.203580
C2521	C252	0.526240	0.751970	0.378520
C2531	C253	0.189390	0.837590	0.291360
C2541	C254	0.062490	0.761390	0.241240
C2551	C255	0.214800	0.992940	0.763020
C2561	C256	0.691110	0.847240	0.134640
C2571	C257	0.227180	0.509540	0.143460
C2581	C258	0.473760	0.248030	0.621480
C2591	C259	0.526290	0.759150	0.456840
C2601	C260	0.288650	0.180320	0.840940
C2611	C261	0.852030	0.722470	0.236640
C2621	C262	0.780440	0.015830	0.547280
C2631	C263	0.191510	0.464880	0.357240
C2641	C264	0.896440	0.439140	0.160680
C2651	C265	0.874560	0.692150	0.203580
C2661	C266	0.238690	0.525230	0.079320
C2671	C267	0.759150	0.930550	0.456840
C2681	C268	0.819680	0.447710	0.159060
C2691	C269	0.611290	0.259070	0.127700
C2701	C270	0.154390	0.271130	0.651960
C2711	C271	0.852280	0.626550	0.378520
C2721	C272	0.448790	0.368480	0.210000
C2731	C273	0.287400	0.691110	0.134640
C2741	C274	0.782360	0.900750	0.431280
C2751	C275	0.631520	0.238790	0.790000
C2761	C276	0.543300	0.574780	0.760880
C2771	C277	0.114890	0.858790	0.659220
C2781	C278	0.560860	0.735760	0.839320
C2791	C279	0.740930	0.483590	0.872300
C2801	C280	0.453770	0.189390	0.291360
C2811	C281	0.785200	0.007060	0.236980
C2821	C282	0.179520	0.427880	0.651900
C2831	C283	0.916280	0.633920	0.143460
C2841	C284	0.513670	0.676770	0.378240
C2851	C285	0.864570	0.701470	0.378240
C2861	C286	0.724540	0.517570	0.431160
C2871	C287	0.300630	0.166180	0.647860
C2881	C288	0.447710	0.339380	0.159060
N11	N1	0.314310	0.836790	0.831020
N21	N2	0.798760	0.968230	0.239940
N31	N3	0.575000	0.705940	0.721360
N41	N4	0.522550	0.949240	0.806500
N51	N5	0.213600	0.493240	0.203760
N61	N6	0.716050	0.142740	0.193500
N71	N7	0.990160	0.710520	0.203760
N81	N8	0.047460	0.721400	0.579920
N91	N9	0.009840	0.289480	0.796240
N101	N10	0.037500	0.429000	0.302500
N111	N11	0.308460	0.471600	0.470400
N121	N12	0.005770	0.685690	0.168980
N131	N13	0.728290	0.201240	0.760060
N141	N14	0.916400	0.526100	0.780400
N151	N15	0.691540	0.528400	0.529600
N161	N16	0.209220	0.018510	0.489020
N171	N17	0.685690	0.163210	0.168980
N181	N18	0.015420	0.575000	0.721360
N191	N19	0.271710	0.798760	0.239940
N201	N20	0.981490	0.720200	0.510980
N211	N21	0.473900	0.136000	0.219600
N221	N22	0.467540	0.141480	0.420080
N231	N23	0.529490	0.790780	0.510980
N241	N24	0.962500	0.571000	0.697500
N251	N25	0.283950	0.857260	0.806500
N261	N26	0.429000	0.265000	0.302500
N271	N27	0.516710	0.994230	0.831020
N281	N28	0.050760	0.716050	0.193500
N291	N29	0.279800	0.470510	0.489020
N301	N30	0.477450	0.050760	0.193500
N311	N31	0.984580	0.425000	0.278640
N321	N32	0.294060	0.853640	0.278640
N331	N33	0.571000	0.735000	0.697500
N341	N34	0.994230	0.314310	0.831020
N351	N35	0.864000	0.254300	0.780400
N361	N36	0.493240	0.990160	0.203760
N371	N37	0.836790	0.516710	0.831020
N381	N38	0.786400	0.506760	0.796240
N391	N39	0.278600	0.467540	0.420080
N401	N40	0.705940	0.146360	0.721360
N411	N41	0.141480	0.952540	0.420080
N421	N42	0.558820	0.728290	0.760060
N431	N43	0.720200	0.529490	0.510980
N441	N44	0.721400	0.532460	0.579920
N451	N45	0.790780	0.981490	0.510980
N461	N46	0.838060	0.001200	0.529600
N471	N47	0.526100	0.864000	0.780400
N481	N48	0.710520	0.213600	0.203760
N491	N49	0.001200	0.691540	0.529600
N501	N50	0.745700	0.083600	0.219600
N511	N51	0.735000	0.126500	0.697500
N521	N52	0.506760	0.009840	0.796240
N531	N53	0.873500	0.037500	0.302500
N541	N54	0.483290	0.005770	0.168980
N551	N55	0.853640	0.984580	0.278640
N561	N56	0.126500	0.962500	0.697500
N571	N57	0.470510	0.209220	0.489020
N581	N58	0.265000	0.873500	0.302500
N591	N59	0.949240	0.283950	0.806500
N601	N60	0.142740	0.477450	0.193500
N611	N61	0.163210	0.483290	0.168980
N621	N62	0.254300	0.916400	0.780400
N631	N63	0.136000	0.745700	0.219600
N641	N64	0.018510	0.279800	0.489020
N651	N65	0.532460	0.858520	0.579920
N661	N66	0.998800	0.308460	0.470400
N671	N67	0.528400	0.838060	0.529600
N681	N68	0.471600	0.161940	0.470400
N691	N69	0.968230	0.441180	0.239940
N701	N70	0.441180	0.271710	0.239940
N711	N71	0.425000	0.294060	0.278640
N721	N72	0.031770	0.558820	0.760060
N731	N73	0.201240	0.031770	0.760060
N741	N74	0.161940	0.998800	0.470400
N751	N75	0.146360	0.015420	0.721360
N761	N76	0.952540	0.278600	0.420080
N771	N77	0.858520	0.047460	0.579920
N781	N78	0.857260	0.522550	0.806500
N791	N79	0.289480	0.786400	0.796240
N801	N80	0.083600	0.473900	0.219600
O11	O1	0.476170	0.205300	0.938480
O21	O2	0.229980	0.538620	0.785800
O31	O3	0.803910	0.467520	0.938820
O41	O4	0.770020	0.461380	0.214200
O51	O5	0.597170	0.483470	0.716420
O61	O6	0.229350	0.506190	0.629440
O71	O7	0.556970	0.789800	0.937580
O81	O8	0.210200	0.619390	0.062420
O91	O9	0.548030	0.719580	0.938080
O101	O10	0.380610	0.147780	0.937580
O111	O11	0.506190	0.400090	0.629440
O121	O12	0.493810	0.599910	0.370560
O131	O13	0.667650	0.485040	0.184260
O141	O14	0.767050	0.402830	0.283580
O151	O15	0.523620	0.746580	0.300400
O161	O16	0.550350	0.172940	0.713620
O171	O17	0.467520	0.134910	0.938820
O181	O18	0.549630	0.532170	0.372700
O191	O19	0.462310	0.733180	0.938480
O201	O20	0.516610	0.699220	0.184260
O211	O21	0.827060	0.836730	0.286380
O221	O22	0.609950	0.781500	0.061920
O231	O23	0.232950	0.597170	0.716420
O241	O24	0.619390	0.852220	0.062420
O251	O25	0.555820	0.247180	0.785800
O261	O26	0.483470	0.119250	0.716420
O271	O27	0.266820	0.523830	0.061520
O281	O28	0.800060	0.707290	0.302020
O291	O29	0.470430	0.530460	0.401820
O301	O30	0.446180	0.476380	0.699600
O311	O31	0.530460	0.931390	0.401820
O321	O32	0.871360	0.470430	0.401820
O331	O33	0.119250	0.232950	0.716420
O341	O34	0.746580	0.776780	0.300400
O351	O35	0.443030	0.210200	0.062420
O361	O36	0.449650	0.827060	0.286380
O371	O37	0.253420	0.223220	0.699600
O381	O38	0.483390	0.300780	0.815740
O391	O39	0.590960	0.485070	0.784600
O401	O40	0.292710	0.498040	0.697980
O411	O41	0.700470	0.409040	0.215400
O421	O42	0.205300	0.462310	0.938480
O431	O43	0.068610	0.128640	0.598180
O441	O44	0.840530	0.549630	0.372700
O451	O45	0.789800	0.380610	0.937580
O461	O46	0.332350	0.514960	0.815740
O471	O47	0.299530	0.590960	0.784600
O481	O48	0.752820	0.770020	0.214200
O491	O49	0.176930	0.159470	0.627300
O501	O50	0.223220	0.446180	0.699600
O511	O51	0.444180	0.752820	0.214200
O521	O52	0.770650	0.493810	0.370560
O531	O53	0.514930	0.806360	0.215400
O541	O54	0.459320	0.449650	0.286380
O551	O55	0.733180	0.476170	0.938480
O561	O56	0.553820	0.523620	0.300400
O571	O57	0.134910	0.471300	0.938820
O581	O58	0.163270	0.540680	0.713620
O591	O59	0.540680	0.550350	0.713620
O601	O60	0.538620	0.555820	0.785800
O611	O61	0.781500	0.451970	0.061920
O621	O62	0.199940	0.292710	0.697980
O631	O63	0.450370	0.467830	0.627300
O641	O64	0.836730	0.459320	0.286380
O651	O65	0.280420	0.609950	0.061920
O661	O66	0.806360	0.700470	0.215400
O671	O67	0.471300	0.803910	0.938820
O681	O68	0.400090	0.123250	0.629440
O691	O69	0.402830	0.516530	0.283580
O701	O70	0.476380	0.253420	0.699600
O711	O71	0.516530	0.880750	0.283580
O721	O72	0.528700	0.196090	0.061180
O731	O73	0.405270	0.199940	0.697980
O741	O74	0.196090	0.532480	0.061180
O751	O75	0.537690	0.266820	0.061520
O761	O76	0.469540	0.068610	0.598180
O771	O77	0.193640	0.299530	0.784600
O781	O78	0.523830	0.794700	0.061520
O791	O79	0.865090	0.528700	0.061180
O801	O80	0.599910	0.876750	0.370560
O811	O81	0.876750	0.770650	0.370560
O821	O82	0.794700	0.537690	0.061520
O831	O83	0.776780	0.553820	0.300400
O841	O84	0.529570	0.469540	0.598180
O851	O85	0.532170	0.823070	0.372700
O861	O86	0.823070	0.840530	0.372700
O871	O87	0.498040	0.405270	0.697980
O881	O88	0.390050	0.218500	0.938080
O891	O89	0.159470	0.450370	0.627300
O901	O90	0.719580	0.390050	0.938080
O911	O91	0.128640	0.529570	0.598180
O921	O92	0.300780	0.332350	0.815740
O931	O93	0.247180	0.229980	0.785800
O941	O94	0.409040	0.514930	0.215400
O951	O95	0.852220	0.443030	0.062420
O961	O96	0.147780	0.556970	0.937580
O971	O97	0.485070	0.193640	0.784600
O981	O98	0.218500	0.548030	0.938080
O991	O99	0.123250	0.229350	0.629440
O1001	O100	0.880750	0.767050	0.283580
O1011	O101	0.501960	0.594730	0.302020
O1021	O102	0.514960	0.483390	0.815740
O1031	O103	0.461380	0.444180	0.214200
O1041	O104	0.451970	0.280420	0.061920
O1051	O105	0.931390	0.871360	0.401820
O1061	O106	0.707290	0.501960	0.302020
O1071	O107	0.172940	0.163270	0.713620
O1081	O108	0.467830	0.176930	0.627300
O1091	O109	0.485040	0.516610	0.184260
O1101	O110	0.699220	0.667650	0.184260
O1111	O111	0.532480	0.865090	0.061180
O1121	O112	0.594730	0.800060	0.302020
