data_TOHJIL_clean_PM
_symmetry_space_group_name_H-M	'P1'
_cell_length_a	9.879200
_cell_length_b	12.079800
_cell_length_c	12.259100
_cell_angle_alpha	109.808000
_cell_angle_beta	100.045000
_cell_angle_gamma	102.515000
_symmetry_Int_Tables_number 1

loop_
_symmetry_equiv_pos_as_xyz
'x,y,z'

loop_
_atom_site_label
_atom_site_type_symbol
_atom_site_fract_x
_atom_site_fract_y
_atom_site_fract_z
U11	U1	0.896200	0.174110	0.521610
U21	U2	0.136820	0.337240	0.988420
P11	P1	0.742800	0.337900	0.366200
P21	P2	0.017100	0.542500	0.208500
P31	P3	0.035500	0.047400	0.728300
P41	P4	0.722800	0.758500	0.779400
O11	O1	0.646600	0.230600	0.251100
H11	H1	0.562200	0.229000	0.245700
O21	O2	0.658600	0.387200	0.452500
O31	O3	0.862500	0.296500	0.421600
O41	O4	0.128900	0.505600	0.142900
O51	O5	0.887300	0.548800	0.124400
O61	O6	0.093700	0.667300	0.309100
O71	O7	0.133100	0.169600	0.825900
O81	O8	0.921400	0.065500	0.639600
O91	O9	0.132700	0.980500	0.663900
O101	O10	0.620400	0.830800	0.822600
O111	O11	0.643600	0.628000	0.688600
O121	O12	0.828100	0.758600	0.886500
C11	C1	0.829500	0.456700	0.325600
H21	H2	0.757400	0.470800	0.271400
H31	H3	0.870300	0.532000	0.397500
C21	C2	0.949800	0.431400	0.264600
H41	H4	0.912800	0.351000	0.198700
H51	H5	0.028500	0.428800	0.322500
C31	C3	0.943400	0.955800	0.798900
H61	H6	0.014200	0.936700	0.849300
H71	H7	0.895800	0.004500	0.850700
C41	C4	0.833900	0.837700	0.710700
H81	H8	0.883500	0.783500	0.667800
H91	H9	0.772500	0.855700	0.652100
U31	U3	0.103800	0.825890	0.478390
U41	U4	0.863180	0.662760	0.011580
P51	P5	0.257200	0.662100	0.633800
P61	P6	0.982900	0.457500	0.791500
P71	P7	0.964500	0.952600	0.271700
P81	P8	0.277200	0.241500	0.220600
O131	O13	0.353400	0.769400	0.748900
H101	H10	0.437800	0.771000	0.754300
O141	O14	0.341400	0.612800	0.547500
O151	O15	0.137500	0.703500	0.578400
O161	O16	0.871100	0.494400	0.857100
O171	O17	0.112700	0.451200	0.875600
O181	O18	0.906300	0.332700	0.690900
O191	O19	0.866900	0.830400	0.174100
O201	O20	0.078600	0.934500	0.360400
O211	O21	0.867300	0.019500	0.336100
O221	O22	0.379600	0.169200	0.177400
O231	O23	0.356400	0.372000	0.311400
O241	O24	0.171900	0.241400	0.113500
C51	C5	0.170500	0.543300	0.674400
H111	H11	0.242600	0.529200	0.728600
H121	H12	0.129700	0.468000	0.602500
C61	C6	0.050200	0.568600	0.735400
H131	H13	0.087200	0.649000	0.801300
H141	H14	0.971500	0.571200	0.677500
C71	C7	0.056600	0.044200	0.201100
H151	H15	0.985800	0.063300	0.150700
H161	H16	0.104200	0.995500	0.149300
C81	C8	0.166100	0.162300	0.289300
H171	H17	0.116500	0.216500	0.332200
H181	H18	0.227500	0.144300	0.347900
U51	U5	0.500000	0.500000	0.500000
