data_TOHQEO_clean_PM
_symmetry_space_group_name_H-M	'P1'
_cell_length_a	16.238700
_cell_length_b	18.670100
_cell_length_c	21.656500
_cell_angle_alpha	90.000000
_cell_angle_beta	106.138000
_cell_angle_gamma	90.000000
_symmetry_Int_Tables_number 1

loop_
_symmetry_equiv_pos_as_xyz
'x,y,z'

loop_
_atom_site_label
_atom_site_type_symbol
_atom_site_fract_x
_atom_site_fract_y
_atom_site_fract_z
C11	C1	0.597800	0.066700	0.273810
C21	C2	0.681000	0.093900	0.314880
C31	C3	0.756900	0.061800	0.312520
H11	H1	0.754900	0.021000	0.287600
C41	C4	0.834800	0.088900	0.346210
H21	H2	0.884800	0.065900	0.344100
C51	C5	0.840400	0.150310	0.383440
C61	C6	0.764800	0.180520	0.388500
H31	H3	0.766700	0.219900	0.415100
C71	C7	0.686600	0.152700	0.354360
H41	H4	0.636500	0.174200	0.358100
C81	C8	0.991100	0.169100	0.386920
C91	C9	0.983100	0.184100	0.324030
H51	H5	0.931900	0.202700	0.298300
C101	C10	0.050700	0.172000	0.298400
H61	H6	0.043900	0.181800	0.255200
C111	C11	0.127500	0.145900	0.335110
C121	C12	0.135400	0.135200	0.398980
H71	H7	0.187900	0.120400	0.425800
C131	C13	0.068400	0.145500	0.424240
H81	H8	0.075400	0.136300	0.467600
C141	C14	0.198000	0.127700	0.306970
C151	C15	0.183800	0.108000	0.244730
H91	H9	0.128400	0.109200	0.217400
C161	C16	0.250200	0.086100	0.221340
H101	H10	0.237300	0.072200	0.178500
C171	C17	0.346300	0.109400	0.314010
H111	H11	0.403100	0.112800	0.338500
C181	C18	0.282600	0.131600	0.341280
H121	H12	0.297500	0.149200	0.383100
C191	C19	0.933800	0.229870	0.465730
C201	C20	0.983500	0.290120	0.464950
H131	H13	0.009400	0.296400	0.432000
C211	C21	0.994500	0.340550	0.512870
H141	H14	0.028600	0.380400	0.512500
C221	C22	0.955170	0.332670	0.561880
C231	C23	0.907300	0.271510	0.562340
H151	H15	0.881700	0.264800	0.595400
C241	C24	0.896600	0.220820	0.515280
H161	H16	0.864300	0.180100	0.516600
C251	C25	0.961600	0.390480	0.610060
C261	C26	0.847000	0.562440	0.609460
C271	C27	0.766710	0.598620	0.571900
C281	C28	0.767000	0.666100	0.546400
H171	H17	0.819100	0.688900	0.550100
C291	C29	0.691600	0.700800	0.515350
H181	H18	0.693200	0.747100	0.499900
C301	C30	0.613200	0.666260	0.507250
C311	C31	0.613000	0.597700	0.531540
H191	H19	0.561200	0.573600	0.525700
C321	C32	0.688100	0.564800	0.564170
H201	H20	0.686400	0.519300	0.581300
C331	C33	0.462200	0.683600	0.500660
C341	C34	0.469500	0.689000	0.565370
H211	H21	0.519100	0.707700	0.593200
C351	C35	0.402900	0.666600	0.588720
H221	H22	0.409200	0.669200	0.632700
C361	C36	0.327100	0.640410	0.548650
C371	C37	0.319400	0.638600	0.482770
H231	H23	0.268300	0.623000	0.454500
C381	C38	0.386200	0.659600	0.458890
H241	H24	0.380200	0.657700	0.414900
C391	C39	0.257300	0.614480	0.574520
C401	C40	0.248400	0.637300	0.633060
H251	H25	0.288100	0.669200	0.657700
C411	C41	0.181900	0.613480	0.655360
H261	H26	0.177600	0.630500	0.694700
C421	C42	0.197700	0.564800	0.542660
H271	H27	0.201300	0.546000	0.503700
C431	C43	0.133300	0.542830	0.567890
H281	H28	0.094400	0.509100	0.545100
C441	C44	0.524400	0.748500	0.425070
C451	C45	0.571400	0.741900	0.381210
H291	H29	0.610500	0.704700	0.385400
C461	C46	0.561000	0.789810	0.331260
H301	H30	0.594000	0.784500	0.302600
C471	C47	0.502900	0.845480	0.322640
C481	C48	0.455500	0.851100	0.366620
H311	H31	0.415500	0.887800	0.362000
C491	C49	0.466000	0.804200	0.416620
H321	H32	0.433300	0.809700	0.445400
C501	C50	0.493100	0.897970	0.269640
Co11	Co1	0.023150	0.537230	0.658820
Co21	Co2	0.926950	0.455540	0.720330
N11	N1	0.330300	0.083770	0.255410
N21	N2	0.123140	0.566980	0.623090
N31	N3	0.921140	0.180150	0.414450
N41	N4	0.534350	0.700520	0.477270
O11	O1	0.926210	0.379840	0.654360
O21	O2	0.999810	0.447120	0.602940
O31	O3	0.529650	0.088080	0.284880
O41	O4	0.600950	0.024720	0.229460
O51	O5	0.840160	0.511230	0.645250
O61	O6	0.917730	0.585610	0.603320
O71	O7	0.444840	0.950860	0.269590
O81	O8	0.533890	0.887340	0.228780
C511	C51	0.097800	0.433300	0.773810
C521	C52	0.181000	0.406100	0.814880
C531	C53	0.256900	0.438200	0.812520
H331	H33	0.254900	0.479000	0.787600
C541	C54	0.334800	0.411100	0.846210
H341	H34	0.384800	0.434100	0.844100
C551	C55	0.340400	0.349690	0.883440
C561	C56	0.264800	0.319480	0.888500
H351	H35	0.266700	0.280100	0.915100
C571	C57	0.186600	0.347300	0.854360
H361	H36	0.136500	0.325800	0.858100
C581	C58	0.491100	0.330900	0.886920
C591	C59	0.483100	0.315900	0.824030
H371	H37	0.431900	0.297300	0.798300
C601	C60	0.550700	0.328000	0.798400
H381	H38	0.543900	0.318200	0.755200
C611	C61	0.627500	0.354100	0.835110
C621	C62	0.635400	0.364800	0.898980
H391	H39	0.687900	0.379600	0.925800
C631	C63	0.568400	0.354500	0.924240
H401	H40	0.575400	0.363700	0.967600
C641	C64	0.698000	0.372300	0.806970
C651	C65	0.683800	0.392000	0.744730
H411	H41	0.628400	0.390800	0.717400
C661	C66	0.750200	0.413900	0.721340
H421	H42	0.737300	0.427800	0.678500
C671	C67	0.846300	0.390600	0.814010
H431	H43	0.903100	0.387200	0.838500
C681	C68	0.782600	0.368400	0.841280
H441	H44	0.797500	0.350800	0.883100
C691	C69	0.433800	0.270130	0.965730
C701	C70	0.483500	0.209880	0.964950
H451	H45	0.509400	0.203600	0.932000
C711	C71	0.494500	0.159450	0.012870
H461	H46	0.528600	0.119600	0.012500
C721	C72	0.455170	0.167330	0.061880
C731	C73	0.407300	0.228490	0.062340
H471	H47	0.381700	0.235200	0.095400
C741	C74	0.396600	0.279180	0.015280
H481	H48	0.364300	0.319900	0.016600
C751	C75	0.461600	0.109520	0.110060
C761	C76	0.347000	0.937560	0.109460
C771	C77	0.266710	0.901380	0.071900
C781	C78	0.267000	0.833900	0.046400
H491	H49	0.319100	0.811100	0.050100
C791	C79	0.191600	0.799200	0.015350
H501	H50	0.193200	0.752900	0.999900
C801	C80	0.113200	0.833740	0.007250
C811	C81	0.113000	0.902300	0.031540
H511	H51	0.061200	0.926400	0.025700
C821	C82	0.188100	0.935200	0.064170
H521	H52	0.186400	0.980700	0.081300
C831	C83	0.962200	0.816400	0.000660
C841	C84	0.969500	0.811000	0.065370
H531	H53	0.019100	0.792300	0.093200
C851	C85	0.902900	0.833400	0.088720
H541	H54	0.909200	0.830800	0.132700
C861	C86	0.827100	0.859590	0.048650
C871	C87	0.819400	0.861400	0.982770
H551	H55	0.768300	0.877000	0.954500
C881	C88	0.886200	0.840400	0.958890
H561	H56	0.880200	0.842300	0.914900
C891	C89	0.757300	0.885520	0.074520
C901	C90	0.748400	0.862700	0.133060
H571	H57	0.788100	0.830800	0.157700
C911	C91	0.681900	0.886520	0.155360
H581	H58	0.677600	0.869500	0.194700
C921	C92	0.697700	0.935200	0.042660
H591	H59	0.701300	0.954000	0.003700
C931	C93	0.633300	0.957170	0.067890
H601	H60	0.594400	0.990900	0.045100
C941	C94	0.024400	0.751500	0.925070
C951	C95	0.071400	0.758100	0.881210
H611	H61	0.110500	0.795300	0.885400
C961	C96	0.061000	0.710190	0.831260
H621	H62	0.094000	0.715500	0.802600
C971	C97	0.002900	0.654520	0.822640
C981	C98	0.955500	0.648900	0.866620
H631	H63	0.915500	0.612200	0.862000
C991	C99	0.966000	0.695800	0.916620
H641	H64	0.933300	0.690300	0.945400
C1001	C100	0.993100	0.602030	0.769640
Co31	Co3	0.523150	0.962770	0.158820
Co41	Co4	0.426950	0.044460	0.220330
N51	N5	0.830300	0.416230	0.755410
N61	N6	0.623140	0.933020	0.123090
N71	N7	0.421140	0.319850	0.914450
N81	N8	0.034350	0.799480	0.977270
O91	O9	0.426210	0.120160	0.154360
O101	O10	0.499810	0.052880	0.102940
O111	O11	0.029650	0.411920	0.784880
O121	O12	0.100950	0.475280	0.729460
O131	O13	0.340160	0.988770	0.145250
O141	O14	0.417730	0.914390	0.103320
O151	O15	0.944840	0.549140	0.769590
O161	O16	0.033890	0.612660	0.728780
C1011	C101	0.902200	0.566700	0.226190
C1021	C102	0.819000	0.593900	0.185120
C1031	C103	0.743100	0.561800	0.187480
H651	H65	0.745100	0.521000	0.212400
C1041	C104	0.665200	0.588900	0.153790
H661	H66	0.615200	0.565900	0.155900
C1051	C105	0.659600	0.650310	0.116560
C1061	C106	0.735200	0.680520	0.111500
H671	H67	0.733300	0.719900	0.084900
C1071	C107	0.813400	0.652700	0.145640
H681	H68	0.863500	0.674200	0.141900
C1081	C108	0.508900	0.669100	0.113080
C1091	C109	0.516900	0.684100	0.175970
H691	H69	0.568100	0.702700	0.201700
C1101	C110	0.449300	0.672000	0.201600
H701	H70	0.456100	0.681800	0.244800
C1111	C111	0.372500	0.645900	0.164890
C1121	C112	0.364600	0.635200	0.101020
H711	H71	0.312100	0.620400	0.074200
C1131	C113	0.431600	0.645500	0.075760
H721	H72	0.424600	0.636300	0.032400
C1141	C114	0.302000	0.627700	0.193030
C1151	C115	0.316200	0.608000	0.255270
H731	H73	0.371600	0.609200	0.282600
C1161	C116	0.249800	0.586100	0.278660
H741	H74	0.262700	0.572200	0.321500
C1171	C117	0.153700	0.609400	0.185990
H751	H75	0.096900	0.612800	0.161500
C1181	C118	0.217400	0.631600	0.158720
H761	H76	0.202500	0.649200	0.116900
C1191	C119	0.566200	0.729870	0.034270
C1201	C120	0.516500	0.790120	0.035050
H771	H77	0.490600	0.796400	0.068000
C1211	C121	0.505500	0.840550	0.987130
H781	H78	0.471400	0.880400	0.987500
C1221	C122	0.544830	0.832670	0.938120
C1231	C123	0.592700	0.771510	0.937660
H791	H79	0.618300	0.764800	0.904600
C1241	C124	0.603400	0.720820	0.984720
H801	H80	0.635700	0.680100	0.983400
C1251	C125	0.538400	0.890480	0.889940
C1261	C126	0.653000	0.062440	0.890540
C1271	C127	0.733290	0.098620	0.928100
C1281	C128	0.733000	0.166100	0.953600
H811	H81	0.680900	0.188900	0.949900
C1291	C129	0.808400	0.200800	0.984650
H821	H82	0.806800	0.247100	0.000100
C1301	C130	0.886800	0.166260	0.992750
C1311	C131	0.887000	0.097700	0.968460
H831	H83	0.938800	0.073600	0.974300
C1321	C132	0.811900	0.064800	0.935830
H841	H84	0.813600	0.019300	0.918700
C1331	C133	0.037800	0.183600	0.999340
C1341	C134	0.030500	0.189000	0.934630
H851	H85	0.980900	0.207700	0.906800
C1351	C135	0.097100	0.166600	0.911280
H861	H86	0.090800	0.169200	0.867300
C1361	C136	0.172900	0.140410	0.951350
C1371	C137	0.180600	0.138600	0.017230
H871	H87	0.231700	0.123000	0.045500
C1381	C138	0.113800	0.159600	0.041110
H881	H88	0.119800	0.157700	0.085100
C1391	C139	0.242700	0.114480	0.925480
C1401	C140	0.251600	0.137300	0.866940
H891	H89	0.211900	0.169200	0.842300
C1411	C141	0.318100	0.113480	0.844640
H901	H90	0.322400	0.130500	0.805300
C1421	C142	0.302300	0.064800	0.957340
H911	H91	0.298700	0.046000	0.996300
C1431	C143	0.366700	0.042830	0.932110
H921	H92	0.405600	0.009100	0.954900
C1441	C144	0.975600	0.248500	0.074930
C1451	C145	0.928600	0.241900	0.118790
H931	H93	0.889500	0.204700	0.114600
C1461	C146	0.939000	0.289810	0.168740
H941	H94	0.906000	0.284500	0.197400
C1471	C147	0.997100	0.345480	0.177360
C1481	C148	0.044500	0.351100	0.133380
H951	H95	0.084500	0.387800	0.138000
C1491	C149	0.034000	0.304200	0.083380
H961	H96	0.066700	0.309700	0.054600
C1501	C150	0.006900	0.397970	0.230360
Co51	Co5	0.476850	0.037230	0.841180
Co61	Co6	0.573050	0.955540	0.779670
N91	N9	0.169700	0.583770	0.244590
N101	N10	0.376860	0.066980	0.876910
N111	N11	0.578860	0.680150	0.085550
N121	N12	0.965650	0.200520	0.022730
O171	O17	0.573790	0.879840	0.845640
O181	O18	0.500190	0.947120	0.897060
O191	O19	0.970350	0.588080	0.215120
O201	O20	0.899050	0.524720	0.270540
O211	O21	0.659840	0.011230	0.854750
O221	O22	0.582270	0.085610	0.896680
O231	O23	0.055160	0.450860	0.230410
O241	O24	0.966110	0.387340	0.271220
C1511	C151	0.402200	0.933300	0.726190
C1521	C152	0.319000	0.906100	0.685120
C1531	C153	0.243100	0.938200	0.687480
H971	H97	0.245100	0.979000	0.712400
C1541	C154	0.165200	0.911100	0.653790
H981	H98	0.115200	0.934100	0.655900
C1551	C155	0.159600	0.849690	0.616560
C1561	C156	0.235200	0.819480	0.611500
H991	H99	0.233300	0.780100	0.584900
C1571	C157	0.313400	0.847300	0.645640
H1001	H100	0.363500	0.825800	0.641900
C1581	C158	0.008900	0.830900	0.613080
C1591	C159	0.016900	0.815900	0.675970
H1011	H101	0.068100	0.797300	0.701700
C1601	C160	0.949300	0.828000	0.701600
H1021	H102	0.956100	0.818200	0.744800
C1611	C161	0.872500	0.854100	0.664890
C1621	C162	0.864600	0.864800	0.601020
H1031	H103	0.812100	0.879600	0.574200
C1631	C163	0.931600	0.854500	0.575760
H1041	H104	0.924600	0.863700	0.532400
C1641	C164	0.802000	0.872300	0.693030
C1651	C165	0.816200	0.892000	0.755270
H1051	H105	0.871600	0.890800	0.782600
C1661	C166	0.749800	0.913900	0.778660
H1061	H106	0.762700	0.927800	0.821500
C1671	C167	0.653700	0.890600	0.685990
H1071	H107	0.596900	0.887200	0.661500
C1681	C168	0.717400	0.868400	0.658720
H1081	H108	0.702500	0.850800	0.616900
C1691	C169	0.066200	0.770130	0.534270
C1701	C170	0.016500	0.709880	0.535050
H1091	H109	0.990600	0.703600	0.568000
C1711	C171	0.005500	0.659450	0.487130
H1101	H110	0.971400	0.619600	0.487500
C1721	C172	0.044830	0.667330	0.438120
C1731	C173	0.092700	0.728490	0.437660
H1111	H111	0.118300	0.735200	0.404600
C1741	C174	0.103400	0.779180	0.484720
H1121	H112	0.135700	0.819900	0.483400
C1751	C175	0.038400	0.609520	0.389940
C1761	C176	0.153000	0.437560	0.390540
C1771	C177	0.233290	0.401380	0.428100
C1781	C178	0.233000	0.333900	0.453600
H1131	H113	0.180900	0.311100	0.449900
C1791	C179	0.308400	0.299200	0.484650
H1141	H114	0.306800	0.252900	0.500100
C1801	C180	0.386800	0.333740	0.492750
C1811	C181	0.387000	0.402300	0.468460
H1151	H115	0.438800	0.426400	0.474300
C1821	C182	0.311900	0.435200	0.435830
H1161	H116	0.313600	0.480700	0.418700
C1831	C183	0.537800	0.316400	0.499340
C1841	C184	0.530500	0.311000	0.434630
H1171	H117	0.480900	0.292300	0.406800
C1851	C185	0.597100	0.333400	0.411280
H1181	H118	0.590800	0.330800	0.367300
C1861	C186	0.672900	0.359590	0.451350
C1871	C187	0.680600	0.361400	0.517230
H1191	H119	0.731700	0.377000	0.545500
C1881	C188	0.613800	0.340400	0.541110
H1201	H120	0.619800	0.342300	0.585100
C1891	C189	0.742700	0.385520	0.425480
C1901	C190	0.751600	0.362700	0.366940
H1211	H121	0.711900	0.330800	0.342300
C1911	C191	0.818100	0.386520	0.344640
H1221	H122	0.822400	0.369500	0.305300
C1921	C192	0.802300	0.435200	0.457340
H1231	H123	0.798700	0.454000	0.496300
C1931	C193	0.866700	0.457170	0.432110
H1241	H124	0.905600	0.490900	0.454900
C1941	C194	0.475600	0.251500	0.574930
C1951	C195	0.428600	0.258100	0.618790
H1251	H125	0.389500	0.295300	0.614600
C1961	C196	0.439000	0.210190	0.668740
H1261	H126	0.406000	0.215500	0.697400
C1971	C197	0.497100	0.154520	0.677360
C1981	C198	0.544500	0.148900	0.633380
H1271	H127	0.584500	0.112200	0.638000
C1991	C199	0.534000	0.195800	0.583380
H1281	H128	0.566700	0.190300	0.554600
C2001	C200	0.506900	0.102030	0.730360
Co71	Co7	0.976850	0.462770	0.341180
Co81	Co8	0.073050	0.544460	0.279670
N131	N13	0.669700	0.916230	0.744590
N141	N14	0.876860	0.433020	0.376910
N151	N15	0.078860	0.819850	0.585550
N161	N16	0.465650	0.299480	0.522730
O251	O25	0.073790	0.620160	0.345640
O261	O26	0.000190	0.552880	0.397060
O271	O27	0.470350	0.911920	0.715120
O281	O28	0.399050	0.975280	0.770540
O291	O29	0.159840	0.488770	0.354750
O301	O30	0.082270	0.414390	0.396680
O311	O31	0.555160	0.049140	0.730410
O321	O32	0.466110	0.112660	0.771220
