data_TOHSAL_clean_PM
_symmetry_space_group_name_H-M	'P1'
_cell_length_a	24.546700
_cell_length_b	24.546700
_cell_length_c	40.140300
_cell_angle_alpha	72.196000
_cell_angle_beta	72.196000
_cell_angle_gamma	90.000000
_symmetry_Int_Tables_number 1

loop_
_symmetry_equiv_pos_as_xyz
'x,y,z'

loop_
_atom_site_label
_atom_site_type_symbol
_atom_site_fract_x
_atom_site_fract_y
_atom_site_fract_z
Cu11	Cu1	0.235880	0.561590	0.948100
Cu21	Cu2	0.209770	0.964760	0.000240
Cu31	Cu3	0.316020	0.490310	0.948100
Cu41	Cu4	0.289990	0.035000	0.000240
Cu51	Cu5	0.561590	0.316020	0.448100
Cu61	Cu6	0.964760	0.289990	0.500240
Cu71	Cu7	0.490310	0.235880	0.448100
Cu81	Cu8	0.035000	0.209770	0.500240
H11	H1	0.137500	0.147300	0.864600
H21	H2	0.156100	0.075500	0.912600
H31	H3	0.279000	0.185600	0.912800
H41	H4	0.260300	0.257300	0.865000
H51	H5	0.281800	0.396200	0.817800
H61	H6	0.308600	0.431900	0.859000
H71	H7	0.167700	0.519300	0.871400
H81	H8	0.140900	0.483700	0.830200
H91	H9	0.179200	0.494000	0.762400
H101	H10	0.145700	0.271200	0.756200
H111	H11	0.169000	0.199800	0.803400
H121	H12	0.209400	0.321300	0.841400
H131	H13	0.450000	0.372600	0.535000
H141	H14	0.379400	0.386900	0.585000
H151	H15	0.267200	0.271200	0.579600
H161	H16	0.338000	0.257100	0.529400
H171	H17	0.134900	0.249500	0.628400
H181	H18	0.102200	0.224400	0.585600
H191	H19	0.008000	0.360600	0.577000
H201	H20	0.040700	0.385700	0.619800
H211	H21	0.032200	0.344900	0.685600
H221	H22	0.258100	0.377800	0.691600
H231	H23	0.327000	0.355100	0.646000
H241	H24	0.205100	0.328600	0.603000
H251	H25	0.977500	0.331100	0.742000
H261	H26	0.978500	0.398000	0.725200
H271	H27	0.907700	0.362500	0.786200
H281	H28	0.953900	0.407400	0.785400
H291	H29	0.957000	0.341400	0.802800
H301	H30	0.211900	0.545200	0.700000
H311	H31	0.150200	0.553400	0.722000
H321	H32	0.189600	0.628600	0.667400
H331	H33	0.131200	0.600200	0.669000
H341	H34	0.189600	0.586400	0.645000
H351	H35	0.497900	0.988100	0.864600
H361	H36	0.431300	0.011900	0.912600
H371	H37	0.308200	0.901600	0.912800
H381	H38	0.374700	0.877700	0.865000
H391	H39	0.400400	0.786000	0.817800
H401	H40	0.332400	0.709100	0.859000
H411	H41	0.460900	0.609300	0.871400
H421	H42	0.528900	0.686100	0.830200
H431	H43	0.558400	0.743600	0.762400
H441	H44	0.598100	0.972600	0.756200
H451	H45	0.527600	0.996800	0.803400
H461	H46	0.449200	0.837300	0.841400
H471	H47	0.515000	0.092400	0.535000
H481	H48	0.535600	0.028100	0.585000
H491	H49	0.653200	0.149200	0.579600
H501	H50	0.632600	0.213500	0.529400
H511	H51	0.736700	0.122100	0.628400
H521	H52	0.812200	0.190000	0.585600
H531	H53	0.915000	0.062400	0.577000
H541	H54	0.839500	0.994500	0.619800
H551	H55	0.782200	0.969500	0.685600
H561	H56	0.550300	0.930600	0.691600
H571	H57	0.527000	0.998900	0.646000
H581	H58	0.691900	0.068400	0.603000
H591	H59	0.780500	0.926900	0.742000
H601	H60	0.796300	0.876800	0.725200
H611	H61	0.806100	0.851300	0.786200
H621	H62	0.760700	0.807200	0.785400
H631	H63	0.740200	0.855800	0.802800
H641	H64	0.588100	0.754800	0.700000
H651	H65	0.627800	0.724600	0.722000
H661	H66	0.643000	0.704000	0.667400
H671	H67	0.699800	0.730800	0.669000
H681	H68	0.665400	0.768600	0.645000
H691	H69	0.147300	0.497900	0.364600
H701	H70	0.075500	0.431300	0.412600
H711	H71	0.185600	0.308200	0.412800
H721	H72	0.257300	0.374700	0.365000
H731	H73	0.396200	0.400400	0.317800
H741	H74	0.431900	0.332400	0.359000
H751	H75	0.519300	0.460900	0.371400
H761	H76	0.483700	0.528900	0.330200
H771	H77	0.494000	0.558400	0.262400
H781	H78	0.271200	0.598100	0.256200
H791	H79	0.199800	0.527600	0.303400
H801	H80	0.321300	0.449200	0.341400
H811	H81	0.372600	0.515000	0.035000
H821	H82	0.386900	0.535600	0.085000
H831	H83	0.271200	0.653200	0.079600
H841	H84	0.257100	0.632600	0.029400
H851	H85	0.249500	0.736700	0.128400
H861	H86	0.224400	0.812200	0.085600
H871	H87	0.360600	0.915000	0.077000
H881	H88	0.385700	0.839500	0.119800
H891	H89	0.344900	0.782200	0.185600
H901	H90	0.377800	0.550300	0.191600
H911	H91	0.355100	0.527000	0.146000
H921	H92	0.328600	0.691900	0.103000
H931	H93	0.331100	0.780500	0.242000
H941	H94	0.398000	0.796300	0.225200
H951	H95	0.362500	0.806100	0.286200
H961	H96	0.407400	0.760700	0.285400
H971	H97	0.341400	0.740200	0.302800
H981	H98	0.545200	0.588100	0.200000
H991	H99	0.553400	0.627800	0.222000
H1001	H100	0.628600	0.643000	0.167400
H1011	H101	0.600200	0.699800	0.169000
H1021	H102	0.586400	0.665400	0.145000
H1031	H103	0.988100	0.137500	0.364600
H1041	H104	0.011900	0.156100	0.412600
H1051	H105	0.901600	0.279000	0.412800
H1061	H106	0.877700	0.260300	0.365000
H1071	H107	0.786000	0.281800	0.317800
H1081	H108	0.709100	0.308600	0.359000
H1091	H109	0.609300	0.167700	0.371400
H1101	H110	0.686100	0.140900	0.330200
H1111	H111	0.743600	0.179200	0.262400
H1121	H112	0.972600	0.145700	0.256200
H1131	H113	0.996800	0.169000	0.303400
H1141	H114	0.837300	0.209400	0.341400
H1151	H115	0.092400	0.450000	0.035000
H1161	H116	0.028100	0.379400	0.085000
H1171	H117	0.149200	0.267200	0.079600
H1181	H118	0.213500	0.338000	0.029400
H1191	H119	0.122100	0.134900	0.128400
H1201	H120	0.190000	0.102200	0.085600
H1211	H121	0.062400	0.008000	0.077000
H1221	H122	0.994500	0.040700	0.119800
H1231	H123	0.969500	0.032200	0.185600
H1241	H124	0.930600	0.258100	0.191600
H1251	H125	0.998900	0.327000	0.146000
H1261	H126	0.068400	0.205100	0.103000
H1271	H127	0.926900	0.977500	0.242000
H1281	H128	0.876800	0.978500	0.225200
H1291	H129	0.851300	0.907700	0.286200
H1301	H130	0.807200	0.953900	0.285400
H1311	H131	0.855800	0.957000	0.302800
H1321	H132	0.754800	0.211900	0.200000
H1331	H133	0.724600	0.150200	0.222000
H1341	H134	0.704000	0.189600	0.167400
H1351	H135	0.730800	0.131200	0.169000
H1361	H136	0.768600	0.189600	0.145000
C11	C1	0.196950	0.209650	0.859900
C21	C2	0.165610	0.154880	0.874240
C31	C3	0.176850	0.111650	0.903100
C41	C4	0.219490	0.123190	0.917620
C51	C5	0.250840	0.177960	0.903280
C61	C6	0.239590	0.221190	0.874420
C71	C7	0.242250	0.490350	0.903300
C81	C8	0.208590	0.436290	0.819820
C91	C9	0.259180	0.420670	0.828440
C101	C10	0.275310	0.442190	0.853220
C111	C11	0.240920	0.479320	0.869360
C121	C12	0.190330	0.494860	0.860740
C131	C13	0.174180	0.473310	0.835980
C141	C14	0.450280	0.299080	0.498640
C151	C15	0.155210	0.380610	0.739980
C161	C16	0.158750	0.438950	0.737900
C171	C17	0.176900	0.455540	0.763800
C181	C18	0.191610	0.413710	0.791780
C191	C19	0.188060	0.355360	0.793880
C201	C20	0.169920	0.338850	0.767960
C211	C21	0.160070	0.281870	0.772460
C221	C22	0.171680	0.238380	0.801840
C231	C23	0.187210	0.255510	0.827780
C241	C24	0.196850	0.311350	0.824100
C251	C25	0.401280	0.313380	0.527040
C261	C26	0.413750	0.352510	0.543780
C271	C27	0.371110	0.361110	0.573980
C281	C28	0.316080	0.330580	0.587440
C291	C29	0.303580	0.291450	0.570700
C301	C30	0.346150	0.282850	0.540500
C311	C31	0.026990	0.271290	0.549620
C321	C32	0.091130	0.320130	0.628540
C331	C33	0.109690	0.271590	0.618220
C341	C34	0.090000	0.256400	0.592400
C351	C35	0.051760	0.289960	0.576880
C361	C36	0.033250	0.338510	0.587180
C371	C37	0.052890	0.353590	0.613020
C381	C38	0.223820	0.085120	0.950160
C391	C39	0.145240	0.369640	0.708120
C401	C40	0.086840	0.364740	0.710520
C411	C41	0.070770	0.348140	0.683920
C421	C42	0.113150	0.336250	0.654900
C431	C43	0.171560	0.341060	0.652480
C441	C44	0.187620	0.357750	0.679100
C451	C45	0.247150	0.364850	0.674900
C461	C46	0.288590	0.353390	0.647220
C471	C47	0.271530	0.338730	0.620340
C481	C48	0.214920	0.335120	0.622160
C491	C49	0.986700	0.367700	0.744600
C501	C50	0.947400	0.370000	0.783600
C511	C51	0.172300	0.544200	0.700200
C521	C52	0.170500	0.594400	0.667400
C531	C53	0.443150	0.930450	0.859900
C541	C54	0.460150	0.970880	0.874240
C551	C55	0.420050	0.985250	0.903100
C561	C56	0.362890	0.959190	0.917620
C571	C57	0.345880	0.918760	0.903280
C581	C58	0.385990	0.904390	0.874420
C591	C59	0.354450	0.606350	0.903300
C601	C60	0.471590	0.743890	0.819820
C611	C61	0.412380	0.750890	0.828440
C621	C62	0.371470	0.704590	0.853220
C631	C63	0.389720	0.651320	0.869360
C641	C64	0.448930	0.644400	0.860740
C651	C65	0.489840	0.690710	0.835980
C661	C66	0.551080	0.202280	0.498640
C671	C67	0.604810	0.879410	0.739980
C681	C68	0.603350	0.823150	0.737900
C691	C69	0.559300	0.780660	0.763800
C701	C70	0.516610	0.794510	0.791780
C711	C71	0.518060	0.850760	0.793880
C721	C72	0.562120	0.893190	0.767960
C731	C73	0.567470	0.945670	0.772460
C741	C74	0.526480	0.959780	0.801840
C751	C75	0.485010	0.916710	0.827780
C761	C76	0.479050	0.864550	0.824100
C771	C77	0.571680	0.159580	0.527040
C781	C78	0.542470	0.103710	0.543780
C791	C79	0.554910	0.064910	0.573980
C801	C80	0.596480	0.081980	0.587440
C811	C81	0.625720	0.137850	0.570700
C821	C82	0.613350	0.176650	0.540500
C831	C83	0.923390	0.179090	0.549620
C841	C84	0.780330	0.051330	0.628540
C851	C85	0.772090	0.110190	0.618220
C861	C86	0.817600	0.151200	0.592400
C871	C87	0.871360	0.133160	0.576880
C881	C88	0.879570	0.074310	0.587180
C891	C89	0.834090	0.033390	0.613020
C901	C90	0.326020	0.964720	0.950160
C911	C91	0.646640	0.922240	0.708120
C921	C92	0.702640	0.924740	0.710520
C931	C93	0.745310	0.967940	0.683920
C941	C94	0.731950	0.008850	0.654900
C951	C95	0.675960	0.006460	0.652480
C961	C96	0.633280	0.963150	0.679100
C971	C97	0.577950	0.960250	0.674900
C981	C98	0.564190	0.999390	0.647220
C991	C99	0.608130	0.040930	0.620340
C1001	C100	0.662920	0.042720	0.622160
C1011	C101	0.768700	0.887700	0.744600
C1021	C102	0.769000	0.846400	0.783600
C1031	C103	0.627500	0.755600	0.700200
C1041	C104	0.662100	0.738200	0.667400
C1051	C105	0.209650	0.443150	0.359900
C1061	C106	0.154880	0.460150	0.374240
C1071	C107	0.111650	0.420050	0.403100
C1081	C108	0.123190	0.362890	0.417620
C1091	C109	0.177960	0.345880	0.403280
C1101	C110	0.221190	0.385990	0.374420
C1111	C111	0.490350	0.354450	0.403300
C1121	C112	0.436290	0.471590	0.319820
C1131	C113	0.420670	0.412380	0.328440
C1141	C114	0.442190	0.371470	0.353220
C1151	C115	0.479320	0.389720	0.369360
C1161	C116	0.494860	0.448930	0.360740
C1171	C117	0.473310	0.489840	0.335980
C1181	C118	0.299080	0.551080	0.998640
C1191	C119	0.380610	0.604810	0.239980
C1201	C120	0.438950	0.603350	0.237900
C1211	C121	0.455540	0.559300	0.263800
C1221	C122	0.413710	0.516610	0.291780
C1231	C123	0.355360	0.518060	0.293880
C1241	C124	0.338850	0.562120	0.267960
C1251	C125	0.281870	0.567470	0.272460
C1261	C126	0.238380	0.526480	0.301840
C1271	C127	0.255510	0.485010	0.327780
C1281	C128	0.311350	0.479050	0.324100
C1291	C129	0.313380	0.571680	0.027040
C1301	C130	0.352510	0.542470	0.043780
C1311	C131	0.361110	0.554910	0.073980
C1321	C132	0.330580	0.596480	0.087440
C1331	C133	0.291450	0.625720	0.070700
C1341	C134	0.282850	0.613350	0.040500
C1351	C135	0.271290	0.923390	0.049620
C1361	C136	0.320130	0.780330	0.128540
C1371	C137	0.271590	0.772090	0.118220
C1381	C138	0.256400	0.817600	0.092400
C1391	C139	0.289960	0.871360	0.076880
C1401	C140	0.338510	0.879570	0.087180
C1411	C141	0.353590	0.834090	0.113020
C1421	C142	0.085120	0.326020	0.450160
C1431	C143	0.369640	0.646640	0.208120
C1441	C144	0.364740	0.702640	0.210520
C1451	C145	0.348140	0.745310	0.183920
C1461	C146	0.336250	0.731950	0.154900
C1471	C147	0.341060	0.675960	0.152480
C1481	C148	0.357750	0.633280	0.179100
C1491	C149	0.364850	0.577950	0.174900
C1501	C150	0.353390	0.564190	0.147220
C1511	C151	0.338730	0.608130	0.120340
C1521	C152	0.335120	0.662920	0.122160
C1531	C153	0.367700	0.768700	0.244600
C1541	C154	0.370000	0.769000	0.283600
C1551	C155	0.544200	0.627500	0.200200
C1561	C156	0.594400	0.662100	0.167400
C1571	C157	0.930450	0.196950	0.359900
C1581	C158	0.970880	0.165610	0.374240
C1591	C159	0.985250	0.176850	0.403100
C1601	C160	0.959190	0.219490	0.417620
C1611	C161	0.918760	0.250840	0.403280
C1621	C162	0.904390	0.239590	0.374420
C1631	C163	0.606350	0.242250	0.403300
C1641	C164	0.743890	0.208590	0.319820
C1651	C165	0.750890	0.259180	0.328440
C1661	C166	0.704590	0.275310	0.353220
C1671	C167	0.651320	0.240920	0.369360
C1681	C168	0.644400	0.190330	0.360740
C1691	C169	0.690710	0.174180	0.335980
C1701	C170	0.202280	0.450280	0.998640
C1711	C171	0.879410	0.155210	0.239980
C1721	C172	0.823150	0.158750	0.237900
C1731	C173	0.780660	0.176900	0.263800
C1741	C174	0.794510	0.191610	0.291780
C1751	C175	0.850760	0.188060	0.293880
C1761	C176	0.893190	0.169920	0.267960
C1771	C177	0.945670	0.160070	0.272460
C1781	C178	0.959780	0.171680	0.301840
C1791	C179	0.916710	0.187210	0.327780
C1801	C180	0.864550	0.196850	0.324100
C1811	C181	0.159580	0.401280	0.027040
C1821	C182	0.103710	0.413750	0.043780
C1831	C183	0.064910	0.371110	0.073980
C1841	C184	0.081980	0.316080	0.087440
C1851	C185	0.137850	0.303580	0.070700
C1861	C186	0.176650	0.346150	0.040500
C1871	C187	0.179090	0.026990	0.049620
C1881	C188	0.051330	0.091130	0.128540
C1891	C189	0.110190	0.109690	0.118220
C1901	C190	0.151200	0.090000	0.092400
C1911	C191	0.133160	0.051760	0.076880
C1921	C192	0.074310	0.033250	0.087180
C1931	C193	0.033390	0.052890	0.113020
C1941	C194	0.964720	0.223820	0.450160
C1951	C195	0.922240	0.145240	0.208120
C1961	C196	0.924740	0.086840	0.210520
C1971	C197	0.967940	0.070770	0.183920
C1981	C198	0.008850	0.113150	0.154900
C1991	C199	0.006460	0.171560	0.152480
C2001	C200	0.963150	0.187620	0.179100
C2011	C201	0.960250	0.247150	0.174900
C2021	C202	0.999390	0.288590	0.147220
C2031	C203	0.040930	0.271530	0.120340
C2041	C204	0.042720	0.214920	0.122160
C2051	C205	0.887700	0.986700	0.244600
C2061	C206	0.846400	0.947400	0.283600
C2071	C207	0.755600	0.172300	0.200200
C2081	C208	0.738200	0.170500	0.167400
O11	O1	0.222990	0.531390	0.911420
O21	O2	0.497270	0.327970	0.488260
O31	O3	0.198940	0.030140	0.961320
O41	O4	0.992280	0.304880	0.538240
O51	O5	0.051150	0.234050	0.538700
O61	O6	0.267210	0.091410	0.962980
O71	O7	0.292770	0.472810	0.910260
O81	O8	0.434090	0.263490	0.487220
O91	O9	0.153420	0.482020	0.707360
O101	O10	0.049470	0.374870	0.740260
O111	O11	0.365590	0.557190	0.911420
O121	O12	0.514470	0.183770	0.488260
O131	O13	0.339740	0.008540	0.961320
O141	O14	0.969480	0.156880	0.538240
O151	O15	0.910150	0.227250	0.538700
O161	O16	0.269810	0.945610	0.962980
O171	O17	0.296970	0.616930	0.910260
O181	O18	0.578690	0.249290	0.487220
O191	O19	0.639220	0.810620	0.707360
O201	O20	0.710270	0.884870	0.740260
O211	O21	0.531390	0.365590	0.411420
O221	O22	0.327970	0.514470	0.988260
O231	O23	0.030140	0.339740	0.461320
O241	O24	0.304880	0.969480	0.038240
O251	O25	0.234050	0.910150	0.038700
O261	O26	0.091410	0.269810	0.462980
O271	O27	0.472810	0.296970	0.410260
O281	O28	0.263490	0.578690	0.987220
O291	O29	0.482020	0.639220	0.207360
O301	O30	0.374870	0.710270	0.240260
O311	O31	0.557190	0.222990	0.411420
O321	O32	0.183770	0.497270	0.988260
O331	O33	0.008540	0.198940	0.461320
O341	O34	0.156880	0.992280	0.038240
O351	O35	0.227250	0.051150	0.038700
O361	O36	0.945610	0.267210	0.462980
O371	O37	0.616930	0.292770	0.410260
O381	O38	0.249290	0.434090	0.987220
O391	O39	0.810620	0.153420	0.207360
O401	O40	0.884870	0.049470	0.240260
Cu91	Cu9	0.764120	0.438410	0.051900
Cu101	Cu10	0.790230	0.035240	0.999760
Cu111	Cu11	0.683980	0.509690	0.051900
Cu121	Cu12	0.710010	0.965000	0.999760
Cu131	Cu13	0.438410	0.683980	0.551900
Cu141	Cu14	0.035240	0.710010	0.499760
Cu151	Cu15	0.509690	0.764120	0.551900
Cu161	Cu16	0.965000	0.790230	0.499760
H1371	H137	0.862500	0.852700	0.135400
H1381	H138	0.843900	0.924500	0.087400
H1391	H139	0.721000	0.814400	0.087200
H1401	H140	0.739700	0.742700	0.135000
H1411	H141	0.718200	0.603800	0.182200
H1421	H142	0.691400	0.568100	0.141000
H1431	H143	0.832300	0.480700	0.128600
H1441	H144	0.859100	0.516300	0.169800
H1451	H145	0.820800	0.506000	0.237600
H1461	H146	0.854300	0.728800	0.243800
H1471	H147	0.831000	0.800200	0.196600
H1481	H148	0.790600	0.678700	0.158600
H1491	H149	0.550000	0.627400	0.465000
H1501	H150	0.620600	0.613100	0.415000
H1511	H151	0.732800	0.728800	0.420400
H1521	H152	0.662000	0.742900	0.470600
H1531	H153	0.865100	0.750500	0.371600
H1541	H154	0.897800	0.775600	0.414400
H1551	H155	0.992000	0.639400	0.423000
H1561	H156	0.959300	0.614300	0.380200
H1571	H157	0.967800	0.655100	0.314400
H1581	H158	0.741900	0.622200	0.308400
H1591	H159	0.673000	0.644900	0.354000
H1601	H160	0.794900	0.671400	0.397000
H1611	H161	0.022500	0.668900	0.258000
H1621	H162	0.021500	0.602000	0.274800
H1631	H163	0.092300	0.637500	0.213800
H1641	H164	0.046100	0.592600	0.214600
H1651	H165	0.043000	0.658600	0.197200
H1661	H166	0.788100	0.454800	0.300000
H1671	H167	0.849800	0.446600	0.278000
H1681	H168	0.810400	0.371400	0.332600
H1691	H169	0.868800	0.399800	0.331000
H1701	H170	0.810400	0.413600	0.355000
H1711	H171	0.502100	0.011900	0.135400
H1721	H172	0.568700	0.988100	0.087400
H1731	H173	0.691800	0.098400	0.087200
H1741	H174	0.625300	0.122300	0.135000
H1751	H175	0.599600	0.214000	0.182200
H1761	H176	0.667600	0.290900	0.141000
H1771	H177	0.539100	0.390700	0.128600
H1781	H178	0.471100	0.313900	0.169800
H1791	H179	0.441600	0.256400	0.237600
H1801	H180	0.401900	0.027400	0.243800
H1811	H181	0.472400	0.003200	0.196600
H1821	H182	0.550800	0.162700	0.158600
H1831	H183	0.485000	0.907600	0.465000
H1841	H184	0.464400	0.971900	0.415000
H1851	H185	0.346800	0.850800	0.420400
H1861	H186	0.367400	0.786500	0.470600
H1871	H187	0.263300	0.877900	0.371600
H1881	H188	0.187800	0.810000	0.414400
H1891	H189	0.085000	0.937600	0.423000
H1901	H190	0.160500	0.005500	0.380200
H1911	H191	0.217800	0.030500	0.314400
H1921	H192	0.449700	0.069400	0.308400
H1931	H193	0.473000	0.001100	0.354000
H1941	H194	0.308100	0.931600	0.397000
H1951	H195	0.219500	0.073100	0.258000
H1961	H196	0.203700	0.123200	0.274800
H1971	H197	0.193900	0.148700	0.213800
H1981	H198	0.239300	0.192800	0.214600
H1991	H199	0.259800	0.144200	0.197200
H2001	H200	0.411900	0.245200	0.300000
H2011	H201	0.372200	0.275400	0.278000
H2021	H202	0.357000	0.296000	0.332600
H2031	H203	0.300200	0.269200	0.331000
H2041	H204	0.334600	0.231400	0.355000
H2051	H205	0.852700	0.502100	0.635400
H2061	H206	0.924500	0.568700	0.587400
H2071	H207	0.814400	0.691800	0.587200
H2081	H208	0.742700	0.625300	0.635000
H2091	H209	0.603800	0.599600	0.682200
H2101	H210	0.568100	0.667600	0.641000
H2111	H211	0.480700	0.539100	0.628600
H2121	H212	0.516300	0.471100	0.669800
H2131	H213	0.506000	0.441600	0.737600
H2141	H214	0.728800	0.401900	0.743800
H2151	H215	0.800200	0.472400	0.696600
H2161	H216	0.678700	0.550800	0.658600
H2171	H217	0.627400	0.485000	0.965000
H2181	H218	0.613100	0.464400	0.915000
H2191	H219	0.728800	0.346800	0.920400
H2201	H220	0.742900	0.367400	0.970600
H2211	H221	0.750500	0.263300	0.871600
H2221	H222	0.775600	0.187800	0.914400
H2231	H223	0.639400	0.085000	0.923000
H2241	H224	0.614300	0.160500	0.880200
H2251	H225	0.655100	0.217800	0.814400
H2261	H226	0.622200	0.449700	0.808400
H2271	H227	0.644900	0.473000	0.854000
H2281	H228	0.671400	0.308100	0.897000
H2291	H229	0.668900	0.219500	0.758000
H2301	H230	0.602000	0.203700	0.774800
H2311	H231	0.637500	0.193900	0.713800
H2321	H232	0.592600	0.239300	0.714600
H2331	H233	0.658600	0.259800	0.697200
H2341	H234	0.454800	0.411900	0.800000
H2351	H235	0.446600	0.372200	0.778000
H2361	H236	0.371400	0.357000	0.832600
H2371	H237	0.399800	0.300200	0.831000
H2381	H238	0.413600	0.334600	0.855000
H2391	H239	0.011900	0.862500	0.635400
H2401	H240	0.988100	0.843900	0.587400
H2411	H241	0.098400	0.721000	0.587200
H2421	H242	0.122300	0.739700	0.635000
H2431	H243	0.214000	0.718200	0.682200
H2441	H244	0.290900	0.691400	0.641000
H2451	H245	0.390700	0.832300	0.628600
H2461	H246	0.313900	0.859100	0.669800
H2471	H247	0.256400	0.820800	0.737600
H2481	H248	0.027400	0.854300	0.743800
H2491	H249	0.003200	0.831000	0.696600
H2501	H250	0.162700	0.790600	0.658600
H2511	H251	0.907600	0.550000	0.965000
H2521	H252	0.971900	0.620600	0.915000
H2531	H253	0.850800	0.732800	0.920400
H2541	H254	0.786500	0.662000	0.970600
H2551	H255	0.877900	0.865100	0.871600
H2561	H256	0.810000	0.897800	0.914400
H2571	H257	0.937600	0.992000	0.923000
H2581	H258	0.005500	0.959300	0.880200
H2591	H259	0.030500	0.967800	0.814400
H2601	H260	0.069400	0.741900	0.808400
H2611	H261	0.001100	0.673000	0.854000
H2621	H262	0.931600	0.794900	0.897000
H2631	H263	0.073100	0.022500	0.758000
H2641	H264	0.123200	0.021500	0.774800
H2651	H265	0.148700	0.092300	0.713800
H2661	H266	0.192800	0.046100	0.714600
H2671	H267	0.144200	0.043000	0.697200
H2681	H268	0.245200	0.788100	0.800000
H2691	H269	0.275400	0.849800	0.778000
H2701	H270	0.296000	0.810400	0.832600
H2711	H271	0.269200	0.868800	0.831000
H2721	H272	0.231400	0.810400	0.855000
C2091	C209	0.803050	0.790350	0.140100
C2101	C210	0.834390	0.845120	0.125760
C2111	C211	0.823150	0.888350	0.096900
C2121	C212	0.780510	0.876810	0.082380
C2131	C213	0.749160	0.822040	0.096720
C2141	C214	0.760410	0.778810	0.125580
C2151	C215	0.757750	0.509650	0.096700
C2161	C216	0.791410	0.563710	0.180180
C2171	C217	0.740820	0.579330	0.171560
C2181	C218	0.724690	0.557810	0.146780
C2191	C219	0.759080	0.520680	0.130640
C2201	C220	0.809670	0.505140	0.139260
C2211	C221	0.825820	0.526690	0.164020
C2221	C222	0.549720	0.700920	0.501360
C2231	C223	0.844790	0.619390	0.260020
C2241	C224	0.841250	0.561050	0.262100
C2251	C225	0.823100	0.544460	0.236200
C2261	C226	0.808390	0.586290	0.208220
C2271	C227	0.811940	0.644640	0.206120
C2281	C228	0.830080	0.661150	0.232040
C2291	C229	0.839930	0.718130	0.227540
C2301	C230	0.828320	0.761620	0.198160
C2311	C231	0.812790	0.744490	0.172220
C2321	C232	0.803150	0.688650	0.175900
C2331	C233	0.598720	0.686620	0.472960
C2341	C234	0.586250	0.647490	0.456220
C2351	C235	0.628890	0.638890	0.426020
C2361	C236	0.683920	0.669420	0.412560
C2371	C237	0.696420	0.708550	0.429300
C2381	C238	0.653850	0.717150	0.459500
C2391	C239	0.973010	0.728710	0.450380
C2401	C240	0.908870	0.679870	0.371460
C2411	C241	0.890310	0.728410	0.381780
C2421	C242	0.910000	0.743600	0.407600
C2431	C243	0.948240	0.710040	0.423120
C2441	C244	0.966750	0.661490	0.412820
C2451	C245	0.947110	0.646410	0.386980
C2461	C246	0.776180	0.914880	0.049840
C2471	C247	0.854760	0.630360	0.291880
C2481	C248	0.913160	0.635260	0.289480
C2491	C249	0.929230	0.651860	0.316080
C2501	C250	0.886850	0.663750	0.345100
C2511	C251	0.828440	0.658940	0.347520
C2521	C252	0.812380	0.642250	0.320900
C2531	C253	0.752850	0.635150	0.325100
C2541	C254	0.711410	0.646610	0.352780
C2551	C255	0.728470	0.661270	0.379660
C2561	C256	0.785080	0.664880	0.377840
C2571	C257	0.013300	0.632300	0.255400
C2581	C258	0.052600	0.630000	0.216400
C2591	C259	0.827700	0.455800	0.299800
C2601	C260	0.829500	0.405600	0.332600
C2611	C261	0.556850	0.069550	0.140100
C2621	C262	0.539850	0.029120	0.125760
C2631	C263	0.579950	0.014750	0.096900
C2641	C264	0.637110	0.040810	0.082380
C2651	C265	0.654120	0.081240	0.096720
C2661	C266	0.614010	0.095610	0.125580
C2671	C267	0.645550	0.393650	0.096700
C2681	C268	0.528410	0.256110	0.180180
C2691	C269	0.587620	0.249110	0.171560
C2701	C270	0.628530	0.295410	0.146780
C2711	C271	0.610280	0.348680	0.130640
C2721	C272	0.551070	0.355600	0.139260
C2731	C273	0.510160	0.309290	0.164020
C2741	C274	0.448920	0.797720	0.501360
C2751	C275	0.395190	0.120590	0.260020
C2761	C276	0.396650	0.176850	0.262100
C2771	C277	0.440700	0.219340	0.236200
C2781	C278	0.483390	0.205490	0.208220
C2791	C279	0.481940	0.149240	0.206120
C2801	C280	0.437880	0.106810	0.232040
C2811	C281	0.432530	0.054330	0.227540
C2821	C282	0.473520	0.040220	0.198160
C2831	C283	0.514990	0.083290	0.172220
C2841	C284	0.520950	0.135450	0.175900
C2851	C285	0.428320	0.840420	0.472960
C2861	C286	0.457530	0.896290	0.456220
C2871	C287	0.445090	0.935090	0.426020
C2881	C288	0.403520	0.918020	0.412560
C2891	C289	0.374280	0.862150	0.429300
C2901	C290	0.386650	0.823350	0.459500
C2911	C291	0.076610	0.820910	0.450380
C2921	C292	0.219670	0.948670	0.371460
C2931	C293	0.227910	0.889810	0.381780
C2941	C294	0.182400	0.848800	0.407600
C2951	C295	0.128640	0.866840	0.423120
C2961	C296	0.120430	0.925690	0.412820
C2971	C297	0.165910	0.966610	0.386980
C2981	C298	0.673980	0.035280	0.049840
C2991	C299	0.353360	0.077760	0.291880
C3001	C300	0.297360	0.075260	0.289480
C3011	C301	0.254690	0.032060	0.316080
C3021	C302	0.268050	0.991150	0.345100
C3031	C303	0.324040	0.993540	0.347520
C3041	C304	0.366720	0.036850	0.320900
C3051	C305	0.422050	0.039750	0.325100
C3061	C306	0.435810	0.000610	0.352780
C3071	C307	0.391870	0.959070	0.379660
C3081	C308	0.337080	0.957280	0.377840
C3091	C309	0.231300	0.112300	0.255400
C3101	C310	0.231000	0.153600	0.216400
C3111	C311	0.372500	0.244400	0.299800
C3121	C312	0.337900	0.261800	0.332600
C3131	C313	0.790350	0.556850	0.640100
C3141	C314	0.845120	0.539850	0.625760
C3151	C315	0.888350	0.579950	0.596900
C3161	C316	0.876810	0.637110	0.582380
C3171	C317	0.822040	0.654120	0.596720
C3181	C318	0.778810	0.614010	0.625580
C3191	C319	0.509650	0.645550	0.596700
C3201	C320	0.563710	0.528410	0.680180
C3211	C321	0.579330	0.587620	0.671560
C3221	C322	0.557810	0.628530	0.646780
C3231	C323	0.520680	0.610280	0.630640
C3241	C324	0.505140	0.551070	0.639260
C3251	C325	0.526690	0.510160	0.664020
C3261	C326	0.700920	0.448920	0.001360
C3271	C327	0.619390	0.395190	0.760020
C3281	C328	0.561050	0.396650	0.762100
C3291	C329	0.544460	0.440700	0.736200
C3301	C330	0.586290	0.483390	0.708220
C3311	C331	0.644640	0.481940	0.706120
C3321	C332	0.661150	0.437880	0.732040
C3331	C333	0.718130	0.432530	0.727540
C3341	C334	0.761620	0.473520	0.698160
C3351	C335	0.744490	0.514990	0.672220
C3361	C336	0.688650	0.520950	0.675900
C3371	C337	0.686620	0.428320	0.972960
C3381	C338	0.647490	0.457530	0.956220
C3391	C339	0.638890	0.445090	0.926020
C3401	C340	0.669420	0.403520	0.912560
C3411	C341	0.708550	0.374280	0.929300
C3421	C342	0.717150	0.386650	0.959500
C3431	C343	0.728710	0.076610	0.950380
C3441	C344	0.679870	0.219670	0.871460
C3451	C345	0.728410	0.227910	0.881780
C3461	C346	0.743600	0.182400	0.907600
C3471	C347	0.710040	0.128640	0.923120
C3481	C348	0.661490	0.120430	0.912820
C3491	C349	0.646410	0.165910	0.886980
C3501	C350	0.914880	0.673980	0.549840
C3511	C351	0.630360	0.353360	0.791880
C3521	C352	0.635260	0.297360	0.789480
C3531	C353	0.651860	0.254690	0.816080
C3541	C354	0.663750	0.268050	0.845100
C3551	C355	0.658940	0.324040	0.847520
C3561	C356	0.642250	0.366720	0.820900
C3571	C357	0.635150	0.422050	0.825100
C3581	C358	0.646610	0.435810	0.852780
C3591	C359	0.661270	0.391870	0.879660
C3601	C360	0.664880	0.337080	0.877840
C3611	C361	0.632300	0.231300	0.755400
C3621	C362	0.630000	0.231000	0.716400
C3631	C363	0.455800	0.372500	0.799800
C3641	C364	0.405600	0.337900	0.832600
C3651	C365	0.069550	0.803050	0.640100
C3661	C366	0.029120	0.834390	0.625760
C3671	C367	0.014750	0.823150	0.596900
C3681	C368	0.040810	0.780510	0.582380
C3691	C369	0.081240	0.749160	0.596720
C3701	C370	0.095610	0.760410	0.625580
C3711	C371	0.393650	0.757750	0.596700
C3721	C372	0.256110	0.791410	0.680180
C3731	C373	0.249110	0.740820	0.671560
C3741	C374	0.295410	0.724690	0.646780
C3751	C375	0.348680	0.759080	0.630640
C3761	C376	0.355600	0.809670	0.639260
C3771	C377	0.309290	0.825820	0.664020
C3781	C378	0.797720	0.549720	0.001360
C3791	C379	0.120590	0.844790	0.760020
C3801	C380	0.176850	0.841250	0.762100
C3811	C381	0.219340	0.823100	0.736200
C3821	C382	0.205490	0.808390	0.708220
C3831	C383	0.149240	0.811940	0.706120
C3841	C384	0.106810	0.830080	0.732040
C3851	C385	0.054330	0.839930	0.727540
C3861	C386	0.040220	0.828320	0.698160
C3871	C387	0.083290	0.812790	0.672220
C3881	C388	0.135450	0.803150	0.675900
C3891	C389	0.840420	0.598720	0.972960
C3901	C390	0.896290	0.586250	0.956220
C3911	C391	0.935090	0.628890	0.926020
C3921	C392	0.918020	0.683920	0.912560
C3931	C393	0.862150	0.696420	0.929300
C3941	C394	0.823350	0.653850	0.959500
C3951	C395	0.820910	0.973010	0.950380
C3961	C396	0.948670	0.908870	0.871460
C3971	C397	0.889810	0.890310	0.881780
C3981	C398	0.848800	0.910000	0.907600
C3991	C399	0.866840	0.948240	0.923120
C4001	C400	0.925690	0.966750	0.912820
C4011	C401	0.966610	0.947110	0.886980
C4021	C402	0.035280	0.776180	0.549840
C4031	C403	0.077760	0.854760	0.791880
C4041	C404	0.075260	0.913160	0.789480
C4051	C405	0.032060	0.929230	0.816080
C4061	C406	0.991150	0.886850	0.845100
C4071	C407	0.993540	0.828440	0.847520
C4081	C408	0.036850	0.812380	0.820900
C4091	C409	0.039750	0.752850	0.825100
C4101	C410	0.000610	0.711410	0.852780
C4111	C411	0.959070	0.728470	0.879660
C4121	C412	0.957280	0.785080	0.877840
C4131	C413	0.112300	0.013300	0.755400
C4141	C414	0.153600	0.052600	0.716400
C4151	C415	0.244400	0.827700	0.799800
C4161	C416	0.261800	0.829500	0.832600
O411	O41	0.777010	0.468610	0.088580
O421	O42	0.502730	0.672030	0.511740
O431	O43	0.801060	0.969860	0.038680
O441	O44	0.007720	0.695120	0.461760
O451	O45	0.948850	0.765950	0.461300
O461	O46	0.732790	0.908590	0.037020
O471	O47	0.707230	0.527190	0.089740
O481	O48	0.565910	0.736510	0.512780
O491	O49	0.846580	0.517980	0.292640
O501	O50	0.950530	0.625130	0.259740
O511	O51	0.634410	0.442810	0.088580
O521	O52	0.485530	0.816230	0.511740
O531	O53	0.660260	0.991460	0.038680
O541	O54	0.030520	0.843120	0.461760
O551	O55	0.089850	0.772750	0.461300
O561	O56	0.730190	0.054390	0.037020
O571	O57	0.703030	0.383070	0.089740
O581	O58	0.421310	0.750710	0.512780
O591	O59	0.360780	0.189380	0.292640
O601	O60	0.289730	0.115130	0.259740
O611	O61	0.468610	0.634410	0.588580
O621	O62	0.672030	0.485530	0.011740
O631	O63	0.969860	0.660260	0.538680
O641	O64	0.695120	0.030520	0.961760
O651	O65	0.765950	0.089850	0.961300
O661	O66	0.908590	0.730190	0.537020
O671	O67	0.527190	0.703030	0.589740
O681	O68	0.736510	0.421310	0.012780
O691	O69	0.517980	0.360780	0.792640
O701	O70	0.625130	0.289730	0.759740
O711	O71	0.442810	0.777010	0.588580
O721	O72	0.816230	0.502730	0.011740
O731	O73	0.991460	0.801060	0.538680
O741	O74	0.843120	0.007720	0.961760
O751	O75	0.772750	0.948850	0.961300
O761	O76	0.054390	0.732790	0.537020
O771	O77	0.383070	0.707230	0.589740
O781	O78	0.750710	0.565910	0.012780
O791	O79	0.189380	0.846580	0.792640
O801	O80	0.115130	0.950530	0.759740
