data_TOJLOT_clean_PM
_symmetry_space_group_name_H-M	'P1'
_cell_length_a	18.241000
_cell_length_b	18.241000
_cell_length_c	18.241000
_cell_angle_alpha	90.000000
_cell_angle_beta	90.000000
_cell_angle_gamma	90.000000
_symmetry_Int_Tables_number 1

loop_
_symmetry_equiv_pos_as_xyz
'x,y,z'

loop_
_atom_site_label
_atom_site_type_symbol
_atom_site_fract_x
_atom_site_fract_y
_atom_site_fract_z
C11	C1	0.287400	0.656100	0.124700
C21	C2	0.319500	0.600100	0.088900
H11	H1	0.244500	0.677100	0.104000
H21	H2	0.298200	0.581700	0.045100
C31	C3	0.212600	0.843900	0.124700
C41	C4	0.180500	0.899900	0.088900
H31	H3	0.255500	0.822900	0.104000
H41	H4	0.201800	0.918300	0.045100
C51	C5	0.212600	0.656100	0.375300
C61	C6	0.180500	0.600100	0.411100
H51	H5	0.255500	0.677100	0.396000
H61	H6	0.201800	0.581700	0.454900
C71	C7	0.287400	0.843900	0.375300
C81	C8	0.319500	0.899900	0.411100
H71	H7	0.244500	0.822900	0.396000
H81	H8	0.298200	0.918300	0.454900
C91	C9	0.124700	0.287400	0.656100
C101	C10	0.088900	0.319500	0.600100
H91	H9	0.104000	0.244500	0.677100
H101	H10	0.045100	0.298200	0.581700
C111	C11	0.124700	0.212600	0.843900
C121	C12	0.088900	0.180500	0.899900
H111	H11	0.104000	0.255500	0.822900
H121	H12	0.045100	0.201800	0.918300
C131	C13	0.375300	0.212600	0.656100
C141	C14	0.411100	0.180500	0.600100
H131	H13	0.396000	0.255500	0.677100
H141	H14	0.454900	0.201800	0.581700
C151	C15	0.375300	0.287400	0.843900
C161	C16	0.411100	0.319500	0.899900
H151	H15	0.396000	0.244500	0.822900
H161	H16	0.454900	0.298200	0.918300
C171	C17	0.656100	0.124700	0.287400
C181	C18	0.600100	0.088900	0.319500
H171	H17	0.677100	0.104000	0.244500
H181	H18	0.581700	0.045100	0.298200
C191	C19	0.843900	0.124700	0.212600
C201	C20	0.899900	0.088900	0.180500
H191	H19	0.822900	0.104000	0.255500
H201	H20	0.918300	0.045100	0.201800
C211	C21	0.656100	0.375300	0.212600
C221	C22	0.600100	0.411100	0.180500
H211	H21	0.677100	0.396000	0.255500
H221	H22	0.581700	0.454900	0.201800
C231	C23	0.843900	0.375300	0.287400
C241	C24	0.899900	0.411100	0.319500
H231	H23	0.822900	0.396000	0.244500
H241	H24	0.918300	0.454900	0.298200
C251	C25	0.843900	0.212600	0.124700
C261	C26	0.899900	0.180500	0.088900
H251	H25	0.822900	0.255500	0.104000
H261	H26	0.918300	0.201800	0.045100
C271	C27	0.656100	0.287400	0.124700
C281	C28	0.600100	0.319500	0.088900
H271	H27	0.677100	0.244500	0.104000
H281	H28	0.581700	0.298200	0.045100
C291	C29	0.843900	0.287400	0.375300
C301	C30	0.899900	0.319500	0.411100
H291	H29	0.822900	0.244500	0.396000
H301	H30	0.918300	0.298200	0.454900
C311	C31	0.656100	0.212600	0.375300
C321	C32	0.600100	0.180500	0.411100
H311	H31	0.677100	0.255500	0.396000
H321	H32	0.581700	0.201800	0.454900
C331	C33	0.212600	0.375300	0.656100
C341	C34	0.180500	0.411100	0.600100
H331	H33	0.255500	0.396000	0.677100
H341	H34	0.201800	0.454900	0.581700
C351	C35	0.287400	0.375300	0.843900
C361	C36	0.319500	0.411100	0.899900
H351	H35	0.244500	0.396000	0.822900
H361	H36	0.298200	0.454900	0.918300
C371	C37	0.287400	0.124700	0.656100
C381	C38	0.319500	0.088900	0.600100
H371	H37	0.244500	0.104000	0.677100
H381	H38	0.298200	0.045100	0.581700
C391	C39	0.212600	0.124700	0.843900
C401	C40	0.180500	0.088900	0.899900
H391	H39	0.255500	0.104000	0.822900
H401	H40	0.201800	0.045100	0.918300
C411	C41	0.375300	0.843900	0.287400
C421	C42	0.411100	0.899900	0.319500
H411	H41	0.396000	0.822900	0.244500
H421	H42	0.454900	0.918300	0.298200
C431	C43	0.375300	0.656100	0.212600
C441	C44	0.411100	0.600100	0.180500
H431	H43	0.396000	0.677100	0.255500
H441	H44	0.454900	0.581700	0.201800
C451	C45	0.124700	0.843900	0.212600
C461	C46	0.088900	0.899900	0.180500
H451	H45	0.104000	0.822900	0.255500
H461	H46	0.045100	0.918300	0.201800
C471	C47	0.124700	0.656100	0.287400
C481	C48	0.088900	0.600100	0.319500
H471	H47	0.104000	0.677100	0.244500
H481	H48	0.045100	0.581700	0.298200
C491	C49	0.384000	0.568900	0.116000
N11	N1	0.312500	0.683900	0.187500
C501	C50	0.418800	0.505300	0.081200
C511	C51	0.116000	0.931100	0.116000
N21	N2	0.187500	0.816100	0.187500
C521	C52	0.081200	0.994700	0.081200
C531	C53	0.116000	0.568900	0.384000
N31	N3	0.187500	0.683900	0.312500
C541	C54	0.081200	0.505300	0.418800
C551	C55	0.384000	0.931100	0.384000
N41	N4	0.312500	0.816100	0.312500
C561	C56	0.418800	0.994700	0.418800
C571	C57	0.116000	0.384000	0.568900
N51	N5	0.187500	0.312500	0.683900
C581	C58	0.081200	0.418800	0.505300
C591	C59	0.116000	0.116000	0.931100
N61	N6	0.187500	0.187500	0.816100
C601	C60	0.081200	0.081200	0.994700
C611	C61	0.384000	0.116000	0.568900
N71	N7	0.312500	0.187500	0.683900
C621	C62	0.418800	0.081200	0.505300
C631	C63	0.384000	0.384000	0.931100
N81	N8	0.312500	0.312500	0.816100
C641	C64	0.418800	0.418800	0.994700
C651	C65	0.568900	0.116000	0.384000
N91	N9	0.683900	0.187500	0.312500
C661	C66	0.505300	0.081200	0.418800
C671	C67	0.931100	0.116000	0.116000
N101	N10	0.816100	0.187500	0.187500
C681	C68	0.994700	0.081200	0.081200
C691	C69	0.568900	0.384000	0.116000
N111	N11	0.683900	0.312500	0.187500
C701	C70	0.505300	0.418800	0.081200
C711	C71	0.931100	0.384000	0.384000
N121	N12	0.816100	0.312500	0.312500
C721	C72	0.994700	0.418800	0.418800
N131	N13	0.387400	0.478900	0.021100
N141	N14	0.112600	0.021100	0.021100
N151	N15	0.112600	0.478900	0.478900
N161	N16	0.387400	0.021100	0.478900
N171	N17	0.021100	0.387400	0.478900
N181	N18	0.021100	0.112600	0.021100
N191	N19	0.478900	0.112600	0.478900
N201	N20	0.478900	0.387400	0.021100
N211	N21	0.478900	0.021100	0.387400
N221	N22	0.021100	0.021100	0.112600
N231	N23	0.478900	0.478900	0.112600
N241	N24	0.021100	0.478900	0.387400
Cu11	Cu1	0.250000	0.750000	0.250000
Cu21	Cu2	0.250000	0.250000	0.750000
Cu31	Cu3	0.750000	0.250000	0.250000
C731	C73	0.156100	0.787400	0.875300
C741	C74	0.100100	0.819500	0.911100
H491	H49	0.177100	0.744500	0.896000
H501	H50	0.081700	0.798200	0.954900
C751	C75	0.343900	0.712600	0.875300
C761	C76	0.399900	0.680500	0.911100
H511	H51	0.322900	0.755500	0.896000
H521	H52	0.418300	0.701800	0.954900
C771	C77	0.156100	0.712600	0.624700
C781	C78	0.100100	0.680500	0.588900
H531	H53	0.177100	0.755500	0.604000
H541	H54	0.081700	0.701800	0.545100
C791	C79	0.343900	0.787400	0.624700
C801	C80	0.399900	0.819500	0.588900
H551	H55	0.322900	0.744500	0.604000
H561	H56	0.418300	0.798200	0.545100
C811	C81	0.787400	0.624700	0.343900
C821	C82	0.819500	0.588900	0.399900
H571	H57	0.744500	0.604000	0.322900
H581	H58	0.798200	0.545100	0.418300
C831	C83	0.712600	0.624700	0.156100
C841	C84	0.680500	0.588900	0.100100
H591	H59	0.755500	0.604000	0.177100
H601	H60	0.701800	0.545100	0.081700
C851	C85	0.712600	0.875300	0.343900
C861	C86	0.680500	0.911100	0.399900
H611	H61	0.755500	0.896000	0.322900
H621	H62	0.701800	0.954900	0.418300
C871	C87	0.787400	0.875300	0.156100
C881	C88	0.819500	0.911100	0.100100
H631	H63	0.744500	0.896000	0.177100
H641	H64	0.798200	0.954900	0.081700
C891	C89	0.624700	0.156100	0.712600
C901	C90	0.588900	0.100100	0.680500
H651	H65	0.604000	0.177100	0.755500
H661	H66	0.545100	0.081700	0.701800
C911	C91	0.624700	0.343900	0.787400
C921	C92	0.588900	0.399900	0.819500
H671	H67	0.604000	0.322900	0.744500
H681	H68	0.545100	0.418300	0.798200
C931	C93	0.875300	0.156100	0.787400
C941	C94	0.911100	0.100100	0.819500
H691	H69	0.896000	0.177100	0.744500
H701	H70	0.954900	0.081700	0.798200
C951	C95	0.875300	0.343900	0.712600
C961	C96	0.911100	0.399900	0.680500
H711	H71	0.896000	0.322900	0.755500
H721	H72	0.954900	0.418300	0.701800
C971	C97	0.712600	0.343900	0.875300
C981	C98	0.680500	0.399900	0.911100
H731	H73	0.755500	0.322900	0.896000
H741	H74	0.701800	0.418300	0.954900
C991	C99	0.787400	0.156100	0.875300
C1001	C100	0.819500	0.100100	0.911100
H751	H75	0.744500	0.177100	0.896000
H761	H76	0.798200	0.081700	0.954900
C1011	C101	0.787400	0.343900	0.624700
C1021	C102	0.819500	0.399900	0.588900
H771	H77	0.744500	0.322900	0.604000
H781	H78	0.798200	0.418300	0.545100
C1031	C103	0.712600	0.156100	0.624700
C1041	C104	0.680500	0.100100	0.588900
H791	H79	0.755500	0.177100	0.604000
H801	H80	0.701800	0.081700	0.545100
C1051	C105	0.875300	0.712600	0.343900
C1061	C106	0.911100	0.680500	0.399900
H811	H81	0.896000	0.755500	0.322900
H821	H82	0.954900	0.701800	0.418300
C1071	C107	0.875300	0.787400	0.156100
C1081	C108	0.911100	0.819500	0.100100
H831	H83	0.896000	0.744500	0.177100
H841	H84	0.954900	0.798200	0.081700
C1091	C109	0.624700	0.787400	0.343900
C1101	C110	0.588900	0.819500	0.399900
H851	H85	0.604000	0.744500	0.322900
H861	H86	0.545100	0.798200	0.418300
C1111	C111	0.624700	0.712600	0.156100
C1121	C112	0.588900	0.680500	0.100100
H871	H87	0.604000	0.755500	0.177100
H881	H88	0.545100	0.701800	0.081700
C1131	C113	0.343900	0.875300	0.712600
C1141	C114	0.399900	0.911100	0.680500
H891	H89	0.322900	0.896000	0.755500
H901	H90	0.418300	0.954900	0.701800
C1151	C115	0.156100	0.875300	0.787400
C1161	C116	0.100100	0.911100	0.819500
H911	H91	0.177100	0.896000	0.744500
H921	H92	0.081700	0.954900	0.798200
C1171	C117	0.343900	0.624700	0.787400
C1181	C118	0.399900	0.588900	0.819500
H931	H93	0.322900	0.604000	0.744500
H941	H94	0.418300	0.545100	0.798200
C1191	C119	0.156100	0.624700	0.712600
C1201	C120	0.100100	0.588900	0.680500
H951	H95	0.177100	0.604000	0.755500
H961	H96	0.081700	0.545100	0.701800
C1211	C121	0.068900	0.884000	0.884000
N251	N25	0.183900	0.812500	0.812500
C1221	C122	0.005300	0.918800	0.918800
C1231	C123	0.431100	0.616000	0.884000
N261	N26	0.316100	0.687500	0.812500
C1241	C124	0.494700	0.581200	0.918800
C1251	C125	0.068900	0.616000	0.616000
N271	N27	0.183900	0.687500	0.687500
C1261	C126	0.005300	0.581200	0.581200
C1271	C127	0.431100	0.884000	0.616000
N281	N28	0.316100	0.812500	0.687500
C1281	C128	0.494700	0.918800	0.581200
C1291	C129	0.884000	0.616000	0.431100
N291	N29	0.812500	0.687500	0.316100
C1301	C130	0.918800	0.581200	0.494700
C1311	C131	0.616000	0.616000	0.068900
N301	N30	0.687500	0.687500	0.183900
C1321	C132	0.581200	0.581200	0.005300
C1331	C133	0.616000	0.884000	0.431100
N311	N31	0.687500	0.812500	0.316100
C1341	C134	0.581200	0.918800	0.494700
C1351	C135	0.884000	0.884000	0.068900
N321	N32	0.812500	0.812500	0.183900
C1361	C136	0.918800	0.918800	0.005300
C1371	C137	0.616000	0.068900	0.616000
N331	N33	0.687500	0.183900	0.687500
C1381	C138	0.581200	0.005300	0.581200
C1391	C139	0.616000	0.431100	0.884000
N341	N34	0.687500	0.316100	0.812500
C1401	C140	0.581200	0.494700	0.918800
C1411	C141	0.884000	0.068900	0.884000
N351	N35	0.812500	0.183900	0.812500
C1421	C142	0.918800	0.005300	0.918800
C1431	C143	0.884000	0.431100	0.616000
N361	N36	0.812500	0.316100	0.687500
C1441	C144	0.918800	0.494700	0.581200
N371	N37	0.978900	0.887400	0.978900
N381	N38	0.521100	0.612600	0.978900
N391	N39	0.978900	0.612600	0.521100
N401	N40	0.521100	0.887400	0.521100
N411	N41	0.887400	0.521100	0.521100
N421	N42	0.612600	0.521100	0.978900
N431	N43	0.612600	0.978900	0.521100
N441	N44	0.887400	0.978900	0.978900
N451	N45	0.521100	0.978900	0.612600
N461	N46	0.521100	0.521100	0.887400
N471	N47	0.978900	0.978900	0.887400
N481	N48	0.978900	0.521100	0.612600
Cu41	Cu4	0.250000	0.750000	0.750000
Cu51	Cu5	0.750000	0.750000	0.250000
Cu61	Cu6	0.750000	0.250000	0.750000
