data_TOJXOH_clean_PM
_symmetry_space_group_name_H-M	'P1'
_cell_length_a	10.174600
_cell_length_b	10.174600
_cell_length_c	29.510700
_cell_angle_alpha	90.000000
_cell_angle_beta	90.000000
_cell_angle_gamma	90.000000
_symmetry_Int_Tables_number 1

loop_
_symmetry_equiv_pos_as_xyz
'x,y,z'

loop_
_atom_site_label
_atom_site_type_symbol
_atom_site_fract_x
_atom_site_fract_y
_atom_site_fract_z
S11	S1	0.342840	0.399740	0.941630
S21	S2	0.074600	0.667580	0.914640
C11	C1	0.062800	0.783800	0.875300
C21	C2	0.219600	0.428900	0.977390
N11	N1	0.135600	0.448400	0.002630
N21	N2	0.051400	0.866800	0.849170
S31	S3	0.842840	0.899740	0.441630
S41	S4	0.574600	0.167580	0.414640
C31	C3	0.562800	0.283800	0.375300
C41	C4	0.719600	0.928900	0.477390
N31	N3	0.635600	0.948400	0.502630
N41	N4	0.551400	0.366800	0.349170
S51	S5	0.657160	0.600260	0.941630
S61	S6	0.925400	0.332420	0.914640
C51	C5	0.937200	0.216200	0.875300
C61	C6	0.780400	0.571100	0.977390
N51	N5	0.864400	0.551600	0.002630
N61	N6	0.948600	0.133200	0.849170
S71	S7	0.157160	0.100260	0.441630
S81	S8	0.425400	0.832420	0.414640
C71	C7	0.437200	0.716200	0.375300
C81	C8	0.280400	0.071100	0.477390
N71	N7	0.364400	0.051600	0.502630
N81	N8	0.448600	0.633200	0.349170
S91	S9	0.399740	0.657160	0.058370
S101	S10	0.667580	0.925400	0.085360
C91	C9	0.783800	0.937200	0.124700
C101	C10	0.428900	0.780400	0.022610
N91	N9	0.448400	0.864400	0.997370
N101	N10	0.866800	0.948600	0.150830
S111	S11	0.899740	0.157160	0.558370
S121	S12	0.167580	0.425400	0.585360
C111	C11	0.283800	0.437200	0.624700
C121	C12	0.928900	0.280400	0.522610
N111	N11	0.948400	0.364400	0.497370
N121	N12	0.366800	0.448600	0.650830
S131	S13	0.600260	0.342840	0.058370
S141	S14	0.332420	0.074600	0.085360
C131	C13	0.216200	0.062800	0.124700
C141	C14	0.571100	0.219600	0.022610
N131	N13	0.551600	0.135600	0.997370
N141	N14	0.133200	0.051400	0.150830
S151	S15	0.100260	0.842840	0.558370
S161	S16	0.832420	0.574600	0.585360
C151	C15	0.716200	0.562800	0.624700
C161	C16	0.071100	0.719600	0.522610
N151	N15	0.051600	0.635600	0.497370
N161	N16	0.633200	0.551400	0.650830
S171	S17	0.157160	0.399740	0.808370
S181	S18	0.425400	0.667580	0.835360
C171	C17	0.437200	0.783800	0.874700
C181	C18	0.280400	0.428900	0.772610
N171	N17	0.364400	0.448400	0.747370
N181	N18	0.448600	0.866800	0.900830
S191	S19	0.657160	0.899740	0.308370
S201	S20	0.925400	0.167580	0.335360
C191	C19	0.937200	0.283800	0.374700
C201	C20	0.780400	0.928900	0.272610
N191	N19	0.864400	0.948400	0.247370
N201	N20	0.948600	0.366800	0.400830
S211	S21	0.842840	0.600260	0.808370
S221	S22	0.574600	0.332420	0.835360
C211	C21	0.562800	0.216200	0.874700
C221	C22	0.719600	0.571100	0.772610
N211	N21	0.635600	0.551600	0.747370
N221	N22	0.551400	0.133200	0.900830
S231	S23	0.342840	0.100260	0.308370
S241	S24	0.074600	0.832420	0.335360
C231	C23	0.062800	0.716200	0.374700
C241	C24	0.219600	0.071100	0.272610
N231	N23	0.135600	0.051600	0.247370
N241	N24	0.051400	0.633200	0.400830
S251	S25	0.100260	0.657160	0.691630
S261	S26	0.832420	0.925400	0.664640
C251	C25	0.716200	0.937200	0.625300
C261	C26	0.071100	0.780400	0.727390
N251	N25	0.051600	0.864400	0.752630
N261	N26	0.633200	0.948600	0.599170
S271	S27	0.600260	0.157160	0.191630
S281	S28	0.332420	0.425400	0.164640
C271	C27	0.216200	0.437200	0.125300
C281	C28	0.571100	0.280400	0.227390
N271	N27	0.551600	0.364400	0.252630
N281	N28	0.133200	0.448600	0.099170
S291	S29	0.899740	0.342840	0.691630
S301	S30	0.167580	0.074600	0.664640
C291	C29	0.283800	0.062800	0.625300
C301	C30	0.928900	0.219600	0.727390
N291	N29	0.948400	0.135600	0.752630
N301	N30	0.366800	0.051400	0.599170
S311	S31	0.399740	0.842840	0.191630
S321	S32	0.667580	0.574600	0.164640
C311	C31	0.783800	0.562800	0.125300
C321	C32	0.428900	0.719600	0.227390
N311	N31	0.448400	0.635600	0.252630
N321	N32	0.866800	0.551400	0.099170
Hg11	Hg1	0.250000	0.529530	0.875000
Hg21	Hg2	0.750000	0.029530	0.375000
Hg31	Hg3	0.750000	0.470470	0.875000
Hg41	Hg4	0.250000	0.970470	0.375000
Hg51	Hg5	0.529530	0.750000	0.125000
Hg61	Hg6	0.470470	0.250000	0.125000
Hg71	Hg7	0.970470	0.750000	0.625000
Hg81	Hg8	0.029530	0.250000	0.625000
Ni11	Ni1	0.000000	0.500000	0.050600
Ni21	Ni2	0.500000	0.000000	0.550600
Ni31	Ni3	0.500000	0.000000	0.949400
Ni41	Ni4	0.000000	0.500000	0.449400
Ni51	Ni5	0.500000	0.500000	0.699400
Ni61	Ni6	0.000000	0.000000	0.199400
Ni71	Ni7	0.000000	0.000000	0.800600
Ni81	Ni8	0.500000	0.500000	0.300600
