data_TOLGOR_clean_PM
_symmetry_space_group_name_H-M	'P1'
_cell_length_a	16.155000
_cell_length_b	16.893000
_cell_length_c	20.514000
_cell_angle_alpha	110.628000
_cell_angle_beta	90.000000
_cell_angle_gamma	90.000000
_symmetry_Int_Tables_number 1

loop_
_symmetry_equiv_pos_as_xyz
'x,y,z'

loop_
_atom_site_label
_atom_site_type_symbol
_atom_site_fract_x
_atom_site_fract_y
_atom_site_fract_z
Cd11	Cd1	0.082080	0.746640	0.744480
Cd21	Cd2	0.014910	0.822490	0.934010
Cd31	Cd3	0.582080	0.253360	0.755520
Cd41	Cd4	0.514910	0.177510	0.565990
H11	H1	0.152700	0.854100	0.866200
H21	H2	0.163400	0.762100	0.866900
H31	H3	0.046000	0.830600	0.635300
H41	H4	0.964100	0.822800	0.542900
H51	H5	0.900000	0.594300	0.526800
H61	H6	0.975300	0.605700	0.620600
H71	H7	0.825400	0.895900	0.503400
H81	H8	0.803000	0.853100	0.557600
H91	H9	0.735200	0.863200	0.506500
H101	H10	0.892300	0.523100	0.325900
H111	H11	0.889000	0.522400	0.402100
H121	H12	0.965200	0.562300	0.377600
H131	H13	0.708500	0.835300	0.399800
H141	H14	0.689500	0.752500	0.336000
H151	H15	0.728600	0.679900	0.204800
H161	H16	0.747100	0.723100	0.150100
H171	H17	0.674000	0.755800	0.203100
H181	H18	0.918800	0.013300	0.299300
H191	H19	0.990500	0.946400	0.281100
H201	H20	0.961000	0.988900	0.358500
H211	H21	0.858000	0.715200	0.106600
H221	H22	0.919100	0.713500	0.005200
H231	H23	0.933200	0.956600	0.080900
H241	H24	0.903200	0.964900	0.192900
H251	H25	0.321400	0.013800	0.833300
H261	H26	0.404800	0.098100	0.795000
H271	H27	0.330000	0.977200	0.601200
H281	H28	0.232100	0.908700	0.640000
H291	H29	0.919900	0.531000	0.695000
H301	H30	0.832100	0.415800	0.661000
H311	H31	0.770200	0.473000	0.863000
H321	H32	0.862600	0.583600	0.894400
H331	H33	0.652700	0.145900	0.633800
H341	H34	0.663400	0.237900	0.633100
H351	H35	0.546000	0.169400	0.864700
H361	H36	0.464100	0.177200	0.957100
H371	H37	0.400000	0.405700	0.973200
H381	H38	0.475300	0.394300	0.879400
H391	H39	0.325400	0.104100	0.996600
H401	H40	0.303000	0.146900	0.942400
H411	H41	0.235200	0.136800	0.993500
H421	H42	0.392300	0.476900	0.174100
H431	H43	0.389000	0.477600	0.097900
H441	H44	0.465200	0.437700	0.122400
H451	H45	0.208500	0.164700	0.100200
H461	H46	0.189500	0.247500	0.164000
H471	H47	0.228600	0.320100	0.295200
H481	H48	0.247100	0.276900	0.349900
H491	H49	0.174000	0.244200	0.296900
H501	H50	0.418800	0.986700	0.200700
H511	H51	0.490500	0.053600	0.218900
H521	H52	0.461000	0.011100	0.141500
H531	H53	0.358000	0.284800	0.393400
H541	H54	0.419100	0.286500	0.494800
H551	H55	0.433200	0.043400	0.419100
H561	H56	0.403200	0.035100	0.307100
H571	H57	0.821400	0.986200	0.666700
H581	H58	0.904800	0.901900	0.705000
H591	H59	0.830000	0.022800	0.898800
H601	H60	0.732100	0.091300	0.860000
H611	H61	0.419900	0.469000	0.805000
H621	H62	0.332100	0.584200	0.839000
H631	H63	0.270200	0.527000	0.637000
H641	H64	0.362600	0.416400	0.605600
C11	C1	0.015600	0.781500	0.614000
C21	C2	0.965300	0.776800	0.557900
C31	C3	0.918300	0.709300	0.524300
C41	C4	0.927700	0.644800	0.549300
C51	C5	0.974500	0.650600	0.604300
C61	C6	0.867400	0.705100	0.466200
C71	C7	0.816000	0.768200	0.459500
C81	C8	0.793000	0.852700	0.511400
C91	C9	0.861300	0.642800	0.398600
C101	C10	0.906400	0.553900	0.373600
C111	C11	0.733400	0.788000	0.363000
C121	C12	0.787000	0.793700	0.248000
C131	C13	0.728900	0.732500	0.196800
C141	C14	0.849300	0.842000	0.229300
C151	C15	0.878400	0.895600	0.299500
C161	C16	0.943000	0.968000	0.310700
C171	C17	0.876600	0.839500	0.164900
C181	C18	0.879700	0.765200	0.104400
C191	C19	0.913700	0.764500	0.042000
C201	C20	0.925800	0.906000	0.088600
C211	C21	0.902000	0.913400	0.156100
C221	C22	0.207600	0.898700	0.768700
C231	C23	0.266800	0.949900	0.741200
C241	C24	0.320400	0.008100	0.786500
C251	C25	0.371900	0.057400	0.763200
C261	C26	0.375700	0.047500	0.693200
C271	C27	0.326000	0.988000	0.648700
C281	C28	0.269600	0.943800	0.671500
C291	C29	0.436300	0.099900	0.669600
C301	C30	0.955900	0.650100	0.815300
C311	C31	0.899700	0.570600	0.795500
C321	C32	0.889700	0.519100	0.729000
C331	C33	0.837900	0.449800	0.707500
C341	C34	0.792300	0.433900	0.764000
C351	C35	0.730100	0.360100	0.738600
C361	C36	0.801200	0.483400	0.828700
C371	C37	0.855200	0.551000	0.847600
C381	C38	0.515600	0.218500	0.886000
C391	C39	0.465300	0.223200	0.942100
C401	C40	0.418300	0.290700	0.975700
C411	C41	0.427700	0.355200	0.950700
C421	C42	0.474500	0.349400	0.895700
C431	C43	0.367400	0.294900	0.033800
C441	C44	0.316000	0.231800	0.040500
C451	C45	0.293000	0.147300	0.988600
C461	C46	0.361300	0.357200	0.101400
C471	C47	0.406400	0.446100	0.126400
C481	C48	0.233400	0.212000	0.137000
C491	C49	0.287000	0.206300	0.252000
C501	C50	0.228900	0.267500	0.303200
C511	C51	0.349300	0.158000	0.270700
C521	C52	0.378400	0.104400	0.200500
C531	C53	0.443000	0.032000	0.189300
C541	C54	0.376600	0.160500	0.335100
C551	C55	0.379700	0.234800	0.395600
C561	C56	0.413700	0.235500	0.458000
C571	C57	0.425800	0.094000	0.411400
C581	C58	0.402000	0.086600	0.343900
C591	C59	0.707600	0.101300	0.731300
C601	C60	0.766800	0.050100	0.758800
C611	C61	0.820400	0.991900	0.713500
C621	C62	0.871900	0.942600	0.736800
C631	C63	0.875700	0.952500	0.806800
C641	C64	0.826000	0.012000	0.851300
C651	C65	0.769600	0.056200	0.828500
C661	C66	0.936300	0.900100	0.830400
C671	C67	0.455900	0.349900	0.684700
C681	C68	0.399700	0.429400	0.704500
C691	C69	0.389700	0.480900	0.771000
C701	C70	0.337900	0.550200	0.792500
C711	C71	0.292300	0.566100	0.736000
C721	C72	0.230100	0.639900	0.761400
C731	C73	0.301200	0.516600	0.671300
C741	C74	0.355200	0.449000	0.652400
N11	N1	0.021800	0.721100	0.637600
N21	N2	0.787000	0.740300	0.392700
N31	N3	0.814000	0.661100	0.353900
N41	N4	0.838600	0.881600	0.349400
N51	N5	0.784600	0.819800	0.318100
N61	N6	0.938900	0.836700	0.034600
N71	N7	0.521800	0.278900	0.862400
N81	N8	0.287000	0.259700	0.107300
N91	N9	0.314000	0.338900	0.146100
N101	N10	0.338600	0.118400	0.150600
N111	N11	0.284600	0.180200	0.181900
N121	N12	0.438900	0.163300	0.465400
O11	O1	0.208800	0.913300	0.832300
O21	O2	0.163700	0.845600	0.724600
O31	O3	0.476400	0.154800	0.715900
O41	O4	0.436800	0.092200	0.606900
O51	O5	0.950900	0.700500	0.877200
O61	O6	0.002200	0.652400	0.769300
O71	O7	0.723600	0.323100	0.670300
O81	O8	0.688100	0.347300	0.783200
O91	O9	0.124400	0.800900	0.858100
O101	O10	0.708800	0.086700	0.667700
O111	O11	0.663700	0.154400	0.775400
O121	O12	0.976400	0.845200	0.784100
O131	O13	0.936800	0.907800	0.893100
O141	O14	0.450900	0.299500	0.622800
O151	O15	0.502200	0.347600	0.730700
O161	O16	0.223600	0.676900	0.829700
O171	O17	0.188100	0.652700	0.716800
O181	O18	0.624400	0.199100	0.641900
Cd51	Cd5	0.917920	0.253360	0.255520
Cd61	Cd6	0.985090	0.177510	0.065990
Cd71	Cd7	0.417920	0.746640	0.244480
Cd81	Cd8	0.485090	0.822490	0.434010
H651	H65	0.847300	0.145900	0.133800
H661	H66	0.836600	0.237900	0.133100
H671	H67	0.954000	0.169400	0.364700
H681	H68	0.035900	0.177200	0.457100
H691	H69	0.100000	0.405700	0.473200
H701	H70	0.024700	0.394300	0.379400
H711	H71	0.174600	0.104100	0.496600
H721	H72	0.197000	0.146900	0.442400
H731	H73	0.264800	0.136800	0.493500
H741	H74	0.107700	0.476900	0.674100
H751	H75	0.111000	0.477600	0.597900
H761	H76	0.034800	0.437700	0.622400
H771	H77	0.291500	0.164700	0.600200
H781	H78	0.310500	0.247500	0.664000
H791	H79	0.271400	0.320100	0.795200
H801	H80	0.252900	0.276900	0.849900
H811	H81	0.326000	0.244200	0.796900
H821	H82	0.081200	0.986700	0.700700
H831	H83	0.009500	0.053600	0.718900
H841	H84	0.039000	0.011100	0.641500
H851	H85	0.142000	0.284800	0.893400
H861	H86	0.080900	0.286500	0.994800
H871	H87	0.066800	0.043400	0.919100
H881	H88	0.096800	0.035100	0.807100
H891	H89	0.678600	0.986200	0.166700
H901	H90	0.595200	0.901900	0.205000
H911	H91	0.670000	0.022800	0.398800
H921	H92	0.767900	0.091300	0.360000
H931	H93	0.080100	0.469000	0.305000
H941	H94	0.167900	0.584200	0.339000
H951	H95	0.229800	0.527000	0.137000
H961	H96	0.137400	0.416400	0.105600
H971	H97	0.347300	0.854100	0.366200
H981	H98	0.336600	0.762100	0.366900
H991	H99	0.454000	0.830600	0.135300
H1001	H100	0.535900	0.822800	0.042900
H1011	H101	0.600000	0.594300	0.026800
H1021	H102	0.524700	0.605700	0.120600
H1031	H103	0.674600	0.895900	0.003400
H1041	H104	0.697000	0.853100	0.057600
H1051	H105	0.764800	0.863200	0.006500
H1061	H106	0.607700	0.523100	0.825900
H1071	H107	0.611000	0.522400	0.902100
H1081	H108	0.534800	0.562300	0.877600
H1091	H109	0.791500	0.835300	0.899800
H1101	H110	0.810500	0.752500	0.836000
H1111	H111	0.771400	0.679900	0.704800
H1121	H112	0.752900	0.723100	0.650100
H1131	H113	0.826000	0.755800	0.703100
H1141	H114	0.581200	0.013300	0.799300
H1151	H115	0.509500	0.946400	0.781100
H1161	H116	0.539000	0.988900	0.858500
H1171	H117	0.642000	0.715200	0.606600
H1181	H118	0.580900	0.713500	0.505200
H1191	H119	0.566800	0.956600	0.580900
H1201	H120	0.596800	0.964900	0.692900
H1211	H121	0.178600	0.013800	0.333300
H1221	H122	0.095200	0.098100	0.295000
H1231	H123	0.170000	0.977200	0.101200
H1241	H124	0.267900	0.908700	0.140000
H1251	H125	0.580100	0.531000	0.195000
H1261	H126	0.667900	0.415800	0.161000
H1271	H127	0.729800	0.473000	0.363000
H1281	H128	0.637400	0.583600	0.394400
C751	C75	0.984400	0.218500	0.386000
C761	C76	0.034700	0.223200	0.442100
C771	C77	0.081700	0.290700	0.475700
C781	C78	0.072300	0.355200	0.450700
C791	C79	0.025500	0.349400	0.395700
C801	C80	0.132600	0.294900	0.533800
C811	C81	0.184000	0.231800	0.540500
C821	C82	0.207000	0.147300	0.488600
C831	C83	0.138700	0.357200	0.601400
C841	C84	0.093600	0.446100	0.626400
C851	C85	0.266600	0.212000	0.637000
C861	C86	0.213000	0.206300	0.752000
C871	C87	0.271100	0.267500	0.803200
C881	C88	0.150700	0.158000	0.770700
C891	C89	0.121600	0.104400	0.700500
C901	C90	0.057000	0.032000	0.689300
C911	C91	0.123400	0.160500	0.835100
C921	C92	0.120300	0.234800	0.895600
C931	C93	0.086300	0.235500	0.958000
C941	C94	0.074200	0.094000	0.911400
C951	C95	0.098000	0.086600	0.843900
C961	C96	0.792400	0.101300	0.231300
C971	C97	0.733200	0.050100	0.258800
C981	C98	0.679600	0.991900	0.213500
C991	C99	0.628100	0.942600	0.236800
C1001	C100	0.624300	0.952500	0.306800
C1011	C101	0.674000	0.012000	0.351300
C1021	C102	0.730400	0.056200	0.328500
C1031	C103	0.563700	0.900100	0.330400
C1041	C104	0.044100	0.349900	0.184700
C1051	C105	0.100300	0.429400	0.204500
C1061	C106	0.110300	0.480900	0.271000
C1071	C107	0.162100	0.550200	0.292500
C1081	C108	0.207700	0.566100	0.236000
C1091	C109	0.269900	0.639900	0.261400
C1101	C110	0.198800	0.516600	0.171300
C1111	C111	0.144800	0.449000	0.152400
C1121	C112	0.484400	0.781500	0.114000
C1131	C113	0.534700	0.776800	0.057900
C1141	C114	0.581700	0.709300	0.024300
C1151	C115	0.572300	0.644800	0.049300
C1161	C116	0.525500	0.650600	0.104300
C1171	C117	0.632600	0.705100	0.966200
C1181	C118	0.684000	0.768200	0.959500
C1191	C119	0.707000	0.852700	0.011400
C1201	C120	0.638700	0.642800	0.898600
C1211	C121	0.593600	0.553900	0.873600
C1221	C122	0.766600	0.788000	0.863000
C1231	C123	0.713000	0.793700	0.748000
C1241	C124	0.771100	0.732500	0.696800
C1251	C125	0.650700	0.842000	0.729300
C1261	C126	0.621600	0.895600	0.799500
C1271	C127	0.557000	0.968000	0.810700
C1281	C128	0.623400	0.839500	0.664900
C1291	C129	0.620300	0.765200	0.604400
C1301	C130	0.586300	0.764500	0.542000
C1311	C131	0.574200	0.906000	0.588600
C1321	C132	0.598000	0.913400	0.656100
C1331	C133	0.292400	0.898700	0.268700
C1341	C134	0.233200	0.949900	0.241200
C1351	C135	0.179600	0.008100	0.286500
C1361	C136	0.128100	0.057400	0.263200
C1371	C137	0.124300	0.047500	0.193200
C1381	C138	0.174000	0.988000	0.148700
C1391	C139	0.230400	0.943800	0.171500
C1401	C140	0.063700	0.099900	0.169600
C1411	C141	0.544100	0.650100	0.315300
C1421	C142	0.600300	0.570600	0.295500
C1431	C143	0.610300	0.519100	0.229000
C1441	C144	0.662100	0.449800	0.207500
C1451	C145	0.707700	0.433900	0.264000
C1461	C146	0.769900	0.360100	0.238600
C1471	C147	0.698800	0.483400	0.328700
C1481	C148	0.644800	0.551000	0.347600
N131	N13	0.978200	0.278900	0.362400
N141	N14	0.213000	0.259700	0.607300
N151	N15	0.186000	0.338900	0.646100
N161	N16	0.161400	0.118400	0.650600
N171	N17	0.215400	0.180200	0.681900
N181	N18	0.061100	0.163300	0.965400
N191	N19	0.478200	0.721100	0.137600
N201	N20	0.713000	0.740300	0.892700
N211	N21	0.686000	0.661100	0.853900
N221	N22	0.661400	0.881600	0.849400
N231	N23	0.715400	0.819800	0.818100
N241	N24	0.561100	0.836700	0.534600
O191	O19	0.791200	0.086700	0.167700
O201	O20	0.836300	0.154400	0.275400
O211	O21	0.523600	0.845200	0.284100
O221	O22	0.563200	0.907800	0.393100
O231	O23	0.049100	0.299500	0.122800
O241	O24	0.997800	0.347600	0.230700
O251	O25	0.276400	0.676900	0.329700
O261	O26	0.311900	0.652700	0.216800
O271	O27	0.875600	0.199100	0.141900
O281	O28	0.291200	0.913300	0.332300
O291	O29	0.336300	0.845600	0.224600
O301	O30	0.023600	0.154800	0.215900
O311	O31	0.063200	0.092200	0.106900
O321	O32	0.549100	0.700500	0.377200
O331	O33	0.497800	0.652400	0.269300
O341	O34	0.776400	0.323100	0.170300
O351	O35	0.811900	0.347300	0.283200
O361	O36	0.375600	0.800900	0.358100
