data_TOLYOJ_clean_PM
_symmetry_space_group_name_H-M	'P1'
_cell_length_a	9.582000
_cell_length_b	10.467000
_cell_length_c	17.920000
_cell_angle_alpha	74.753000
_cell_angle_beta	77.643000
_cell_angle_gamma	73.093000
_symmetry_Int_Tables_number 1

loop_
_symmetry_equiv_pos_as_xyz
'x,y,z'

loop_
_atom_site_label
_atom_site_type_symbol
_atom_site_fract_x
_atom_site_fract_y
_atom_site_fract_z
N11	N1	0.098900	0.849700	0.847200
N21	N2	0.732300	0.849000	0.085300
N31	N3	0.299600	0.113700	0.367100
O11	O1	0.053300	0.839900	0.922700
O21	O2	0.166700	0.808800	0.570300
O31	O3	0.385800	0.827600	0.581600
O41	O4	0.861500	0.858900	0.094900
O51	O5	0.200100	0.874900	0.079700
O61	O6	0.337100	0.708300	0.018600
O71	O7	0.318000	0.008800	0.428900
O81	O8	0.168000	0.553900	0.178900
O91	O9	0.299000	0.411200	0.099800
C11	C1	0.239600	0.848500	0.816800
H11	H1	0.304400	0.849700	0.848400
C21	C2	0.288900	0.845500	0.739300
H21	H2	0.386600	0.845900	0.718900
C31	C3	0.195800	0.842000	0.691200
C41	C4	0.054800	0.842500	0.723500
H31	H3	0.990500	0.836600	0.693100
C51	C5	0.003400	0.851500	0.800800
H41	H4	0.904100	0.858800	0.820700
C61	C6	0.254400	0.822900	0.607600
C71	C7	0.616400	0.865500	0.143200
H51	H5	0.627400	0.884900	0.189100
C81	C8	0.481200	0.853500	0.133900
H61	H6	0.401300	0.866300	0.173500
C91	C9	0.463700	0.822400	0.066300
C101	C10	0.584900	0.806700	0.008400
H71	H7	0.576500	0.787000	0.962200
C111	C11	0.717600	0.820000	0.018700
H81	H8	0.798200	0.809000	0.979300
C121	C12	0.324100	0.797900	0.053500
C131	C13	0.239400	0.242300	0.375500
H91	H9	0.210500	0.261500	0.425200
C141	C14	0.220600	0.345000	0.310900
H101	H10	0.173500	0.433700	0.316800
C151	C15	0.270500	0.320000	0.236100
C161	C16	0.353000	0.080900	0.293800
H111	H11	0.397800	0.991200	0.288900
C171	C17	0.336600	0.186000	0.229300
H121	H12	0.370600	0.167000	0.179800
C181	C18	0.244400	0.438100	0.167200
N41	N4	0.901100	0.150300	0.152800
N51	N5	0.267700	0.151000	0.914700
N61	N6	0.700400	0.886300	0.632900
O101	O10	0.946700	0.160100	0.077300
O111	O11	0.833300	0.191200	0.429700
O121	O12	0.614200	0.172400	0.418400
O131	O13	0.138500	0.141100	0.905100
O141	O14	0.799900	0.125100	0.920300
O151	O15	0.662900	0.291700	0.981400
O161	O16	0.682000	0.991200	0.571100
O171	O17	0.832000	0.446100	0.821100
O181	O18	0.701000	0.588800	0.900200
C191	C19	0.760400	0.151500	0.183200
H131	H13	0.695600	0.150300	0.151600
C201	C20	0.711100	0.154500	0.260700
H141	H14	0.613400	0.154100	0.281100
C211	C21	0.804200	0.158000	0.308800
C221	C22	0.945200	0.157500	0.276500
H151	H15	0.009500	0.163400	0.306900
C231	C23	0.996600	0.148500	0.199200
H161	H16	0.095900	0.141200	0.179300
C241	C24	0.745600	0.177100	0.392400
C251	C25	0.383600	0.134500	0.856800
H171	H17	0.372600	0.115100	0.810900
C261	C26	0.518800	0.146500	0.866100
H181	H18	0.598700	0.133700	0.826500
C271	C27	0.536300	0.177600	0.933700
C281	C28	0.415100	0.193300	0.991600
H191	H19	0.423500	0.213000	0.037800
C291	C29	0.282400	0.180000	0.981300
H201	H20	0.201800	0.191000	0.020700
C301	C30	0.675900	0.202100	0.946500
C311	C31	0.760600	0.757700	0.624500
H211	H21	0.789500	0.738500	0.574800
C321	C32	0.779400	0.655000	0.689100
H221	H22	0.826500	0.566300	0.683200
C331	C33	0.729500	0.680000	0.763900
C341	C34	0.647000	0.919100	0.706200
H231	H23	0.602200	0.008800	0.711100
C351	C35	0.663400	0.814000	0.770700
H241	H24	0.629400	0.833000	0.820200
C361	C36	0.755600	0.561900	0.832800
Na11	Na1	0.000000	0.000000	0.000000
Na21	Na2	0.500000	0.000000	0.500000
Na31	Na3	0.500000	0.500000	0.000000
