data_TONBUU_charged_PM
_symmetry_space_group_name_H-M	'P1'
_cell_length_a	14.115700
_cell_length_b	17.866900
_cell_length_c	19.839400
_cell_angle_alpha	91.256000
_cell_angle_beta	90.000000
_cell_angle_gamma	90.000000
_symmetry_Int_Tables_number 1

loop_
_symmetry_equiv_pos_as_xyz
'x,y,z'

loop_
_atom_site_label
_atom_site_type_symbol
_atom_site_fract_x
_atom_site_fract_y
_atom_site_fract_z
Ni11	Ni1	0.948100	0.751940	0.570930
Ni21	Ni2	0.184030	0.797430	0.584080
Ni31	Ni3	0.205920	0.302630	0.556380
Ni41	Ni4	0.448100	0.748060	0.929070
Ni51	Ni5	0.684030	0.702570	0.915920
Ni61	Ni6	0.705920	0.197370	0.943620
Ni71	Ni7	0.051900	0.248060	0.429070
Ni81	Ni8	0.815970	0.202570	0.415920
Ni91	Ni9	0.794080	0.697370	0.443620
Ni101	Ni10	0.551900	0.251940	0.070930
Ni111	Ni11	0.315970	0.297430	0.084080
Ni121	Ni12	0.294080	0.802630	0.056380
H11	H1	0.010100	0.681900	0.427500
H21	H2	0.998300	0.461600	0.376400
H31	H3	0.192000	0.536600	0.514900
H41	H4	0.862900	0.962100	0.399400
H51	H5	0.135100	0.031900	0.427200
H61	H6	0.071000	0.812700	0.443700
H71	H7	0.060300	0.703000	0.958800
H81	H8	0.925500	0.704000	0.779300
H91	H9	0.206200	0.745200	0.789200
H101	H10	0.600800	0.363900	0.498800
H111	H11	0.566500	0.447100	0.518000
H121	H12	0.510500	0.398900	0.461300
H131	H13	0.590700	0.360300	0.623700
H141	H14	0.490300	0.344000	0.654900
H151	H15	0.541500	0.282800	0.609600
H161	H16	0.365300	0.380000	0.509300
H171	H17	0.510100	0.818100	0.072500
H181	H18	0.498300	0.038400	0.123600
H191	H19	0.692000	0.963400	0.985100
H201	H20	0.362900	0.537900	0.100600
H211	H21	0.635100	0.468100	0.072800
H221	H22	0.571000	0.687300	0.056300
H231	H23	0.560300	0.797000	0.541200
H241	H24	0.425500	0.796000	0.720700
H251	H25	0.706200	0.754800	0.710800
H261	H26	0.100800	0.136100	0.001200
H271	H27	0.066500	0.052900	0.982000
H281	H28	0.010500	0.101100	0.038700
H291	H29	0.090700	0.139700	0.876300
H301	H30	0.990300	0.156000	0.845100
H311	H31	0.041500	0.217200	0.890400
H321	H32	0.865300	0.120000	0.990700
H331	H33	0.989900	0.318100	0.572500
H341	H34	0.001700	0.538400	0.623600
H351	H35	0.808000	0.463400	0.485100
H361	H36	0.137100	0.037900	0.600600
H371	H37	0.864900	0.968100	0.572800
H381	H38	0.929000	0.187300	0.556300
H391	H39	0.939700	0.297000	0.041200
H401	H40	0.074500	0.296000	0.220700
H411	H41	0.793800	0.254800	0.210800
H421	H42	0.399200	0.636100	0.501200
H431	H43	0.433500	0.552900	0.482000
H441	H44	0.489500	0.601100	0.538700
H451	H45	0.409300	0.639700	0.376300
H461	H46	0.509700	0.656000	0.345100
H471	H47	0.458500	0.717200	0.390400
H481	H48	0.634700	0.620000	0.490700
H491	H49	0.489900	0.181900	0.927500
H501	H50	0.501700	0.961600	0.876400
H511	H51	0.308000	0.036600	0.014900
H521	H52	0.637100	0.462100	0.899400
H531	H53	0.364900	0.531900	0.927200
H541	H54	0.429000	0.312700	0.943700
H551	H55	0.439700	0.203000	0.458800
H561	H56	0.574500	0.204000	0.279300
H571	H57	0.293800	0.245200	0.289200
H581	H58	0.899200	0.863900	0.998800
H591	H59	0.933500	0.947100	0.018000
H601	H60	0.989500	0.898900	0.961300
H611	H61	0.909300	0.860300	0.123700
H621	H62	0.009700	0.844000	0.154900
H631	H63	0.958500	0.782800	0.109600
H641	H64	0.134700	0.880000	0.009300
C11	C1	0.066700	0.741900	0.697400
C21	C2	0.142500	0.681600	0.519400
C31	C3	0.108400	0.618000	0.476700
C41	C4	0.033300	0.632400	0.431500
C51	C5	0.992200	0.575200	0.393300
C61	C6	0.025900	0.502300	0.401600
C71	C7	0.099000	0.488100	0.446600
C81	C8	0.141000	0.546100	0.484100
C91	C9	0.122800	0.406500	0.462000
C101	C10	0.885800	0.815900	0.429500
C111	C11	0.956000	0.878400	0.424000
C121	C12	0.926500	0.951700	0.410300
C131	C13	0.993900	0.009500	0.413100
C141	C14	0.089300	0.992800	0.426100
C151	C15	0.117600	0.920100	0.436500
C161	C16	0.050800	0.862400	0.436000
C171	C17	0.219800	0.904900	0.454400
C181	C18	0.964800	0.091100	0.410700
C191	C19	0.236400	0.734900	0.921500
C201	C20	0.147400	0.723200	0.878400
C211	C21	0.062300	0.707200	0.911300
C221	C22	0.980400	0.700000	0.873300
C231	C23	0.981700	0.709300	0.804800
C241	C24	0.066400	0.726200	0.772700
C251	C25	0.149000	0.732800	0.810900
C261	C26	0.888900	0.684400	0.910300
C271	C27	0.909100	0.591500	0.347900
C281	C28	0.391400	0.362900	0.550300
C291	C29	0.544600	0.396000	0.504700
C301	C30	0.529900	0.336400	0.615100
C311	C31	0.566700	0.758100	0.802600
C321	C32	0.642500	0.818400	0.980600
C331	C33	0.608400	0.882000	0.023300
C341	C34	0.533300	0.867600	0.068500
C351	C35	0.492200	0.924800	0.106700
C361	C36	0.525900	0.997700	0.098400
C371	C37	0.599000	0.011900	0.053400
C381	C38	0.641000	0.953900	0.015900
C391	C39	0.622800	0.093500	0.038000
C401	C40	0.385800	0.684100	0.070500
C411	C41	0.456000	0.621600	0.076000
C421	C42	0.426500	0.548300	0.089700
C431	C43	0.493900	0.490500	0.086900
C441	C44	0.589300	0.507200	0.073900
C451	C45	0.617600	0.579900	0.063500
C461	C46	0.550800	0.637600	0.064000
C471	C47	0.719800	0.595100	0.045600
C481	C48	0.464800	0.408900	0.089300
C491	C49	0.736400	0.765100	0.578500
C501	C50	0.647400	0.776800	0.621600
C511	C51	0.562300	0.792800	0.588700
C521	C52	0.480400	0.800000	0.626700
C531	C53	0.481700	0.790700	0.695200
C541	C54	0.566400	0.773800	0.727300
C551	C55	0.649000	0.767200	0.689100
C561	C56	0.388900	0.815600	0.589700
C571	C57	0.409100	0.908500	0.152100
C581	C58	0.891400	0.137100	0.949700
C591	C59	0.044600	0.104000	0.995300
C601	C60	0.029900	0.163600	0.884900
C611	C61	0.933300	0.258100	0.302600
C621	C62	0.857500	0.318400	0.480600
C631	C63	0.891600	0.382000	0.523300
C641	C64	0.966700	0.367600	0.568500
C651	C65	0.007800	0.424800	0.606700
C661	C66	0.974100	0.497700	0.598400
C671	C67	0.901000	0.511900	0.553400
C681	C68	0.859000	0.453900	0.515900
C691	C69	0.877200	0.593500	0.538000
C701	C70	0.114200	0.184100	0.570500
C711	C71	0.044000	0.121600	0.576000
C721	C72	0.073500	0.048300	0.589700
C731	C73	0.006100	0.990500	0.586900
C741	C74	0.910700	0.007200	0.573900
C751	C75	0.882400	0.079900	0.563500
C761	C76	0.949200	0.137600	0.564000
C771	C77	0.780200	0.095100	0.545600
C781	C78	0.035200	0.908900	0.589300
C791	C79	0.763600	0.265100	0.078500
C801	C80	0.852600	0.276800	0.121600
C811	C81	0.937700	0.292800	0.088700
C821	C82	0.019600	0.300000	0.126700
C831	C83	0.018300	0.290700	0.195200
C841	C84	0.933600	0.273800	0.227300
C851	C85	0.851000	0.267200	0.189100
C861	C86	0.111100	0.315600	0.089700
C871	C87	0.090900	0.408500	0.652100
C881	C88	0.608600	0.637100	0.449700
C891	C89	0.455400	0.604000	0.495300
C901	C90	0.470100	0.663600	0.384900
C911	C91	0.433300	0.241900	0.197400
C921	C92	0.357500	0.181600	0.019400
C931	C93	0.391600	0.118000	0.976700
C941	C94	0.466700	0.132400	0.931500
C951	C95	0.507800	0.075200	0.893300
C961	C96	0.474100	0.002300	0.901600
C971	C97	0.401000	0.988100	0.946600
C981	C98	0.359000	0.046100	0.984100
C991	C99	0.377200	0.906500	0.962000
C1001	C100	0.614200	0.315900	0.929500
C1011	C101	0.544000	0.378400	0.924000
C1021	C102	0.573500	0.451700	0.910300
C1031	C103	0.506100	0.509500	0.913100
C1041	C104	0.410700	0.492800	0.926100
C1051	C105	0.382400	0.420100	0.936500
C1061	C106	0.449200	0.362400	0.936000
C1071	C107	0.280200	0.404900	0.954400
C1081	C108	0.535200	0.591100	0.910700
C1091	C109	0.263600	0.234900	0.421500
C1101	C110	0.352600	0.223200	0.378400
C1111	C111	0.437700	0.207200	0.411300
C1121	C112	0.519600	0.200000	0.373300
C1131	C113	0.518300	0.209300	0.304800
C1141	C114	0.433600	0.226200	0.272700
C1151	C115	0.351000	0.232800	0.310900
C1161	C116	0.611100	0.184400	0.410300
C1171	C117	0.590900	0.091500	0.847900
C1181	C118	0.108600	0.862900	0.050300
C1191	C119	0.955400	0.896000	0.004700
C1201	C120	0.970100	0.836400	0.115100
N11	N1	0.483800	0.366600	0.556100
N21	N2	0.983800	0.133400	0.943900
N31	N3	0.516200	0.633400	0.443900
N41	N4	0.016200	0.866600	0.056100
O11	O1	0.989800	0.738400	0.668100
O21	O2	0.148400	0.757000	0.673100
O31	O3	0.085400	0.736700	0.533400
O41	O4	0.225500	0.684600	0.543100
O51	O5	0.073400	0.358100	0.432400
O61	O6	0.188200	0.396000	0.504500
O71	O7	0.906200	0.763100	0.469500
O81	O8	0.812700	0.811700	0.394300
O91	O9	0.234800	0.840400	0.484100
O101	O10	0.281400	0.949400	0.442200
O111	O11	0.877100	0.103200	0.400700
O121	O12	0.029100	0.137400	0.418500
O131	O13	0.220100	0.748800	0.983900
O141	O14	0.314500	0.730600	0.892000
O151	O15	0.813600	0.678800	0.877300
O161	O16	0.895100	0.679700	0.974800
O171	O17	0.860400	0.651100	0.360300
O181	O18	0.891200	0.546200	0.301700
O191	O19	0.335500	0.338100	0.592600
O201	O20	0.489800	0.761600	0.831900
O211	O21	0.648400	0.743000	0.826900
O221	O22	0.585400	0.763300	0.966600
O231	O23	0.725500	0.815400	0.956900
O241	O24	0.573400	0.141900	0.067600
O251	O25	0.688200	0.104000	0.995500
O261	O26	0.406200	0.736900	0.030500
O271	O27	0.312700	0.688300	0.105700
O281	O28	0.734800	0.659600	0.015900
O291	O29	0.781400	0.550600	0.057800
O301	O30	0.377100	0.396800	0.099300
O311	O31	0.529100	0.362600	0.081500
O321	O32	0.720100	0.751200	0.516100
O331	O33	0.814500	0.769400	0.608000
O341	O34	0.313600	0.821200	0.622700
O351	O35	0.395100	0.820300	0.525200
O361	O36	0.360400	0.848900	0.139700
O371	O37	0.391200	0.953800	0.198300
O381	O38	0.835500	0.161900	0.907400
O391	O39	0.010200	0.261600	0.331900
O401	O40	0.851600	0.243000	0.326900
O411	O41	0.914600	0.263300	0.466600
O421	O42	0.774500	0.315400	0.456900
O431	O43	0.926600	0.641900	0.567600
O441	O44	0.811800	0.604000	0.495500
O451	O45	0.093800	0.236900	0.530500
O461	O46	0.187300	0.188300	0.605700
O471	O47	0.765200	0.159600	0.515900
O481	O48	0.718600	0.050600	0.557800
O491	O49	0.122900	0.896800	0.599300
O501	O50	0.970900	0.862600	0.581500
O511	O51	0.779900	0.251200	0.016100
O521	O52	0.685500	0.269400	0.108000
O531	O53	0.186400	0.321200	0.122700
O541	O54	0.104900	0.320300	0.025200
O551	O55	0.139600	0.348900	0.639700
O561	O56	0.108800	0.453800	0.698300
O571	O57	0.664500	0.661900	0.407400
O581	O58	0.510200	0.238400	0.168100
O591	O59	0.351600	0.257000	0.173100
O601	O60	0.414600	0.236700	0.033400
O611	O61	0.274500	0.184600	0.043100
O621	O62	0.426600	0.858100	0.932400
O631	O63	0.311800	0.896000	0.004500
O641	O64	0.593800	0.263100	0.969500
O651	O65	0.687300	0.311700	0.894300
O661	O66	0.265200	0.340400	0.984100
O671	O67	0.218600	0.449400	0.942200
O681	O68	0.622900	0.603200	0.900700
O691	O69	0.470900	0.637400	0.918500
O701	O70	0.279900	0.248800	0.483900
O711	O71	0.185500	0.230600	0.392000
O721	O72	0.686400	0.178800	0.377300
O731	O73	0.604900	0.179700	0.474800
O741	O74	0.639600	0.151100	0.860300
O751	O75	0.608800	0.046200	0.801700
O761	O76	0.164500	0.838100	0.092600
H651	H65	0.766800	0.846500	0.810600
H661	H66	0.720300	0.922400	0.836400
H671	H67	0.818700	0.896200	0.866200
H681	H68	0.889800	0.040600	0.763100
H691	H69	0.818700	0.036800	0.824400
H701	H70	0.920700	0.001500	0.830400
H711	H71	0.945700	0.921100	0.718500
H721	H72	0.880400	0.849300	0.719700
H731	H73	0.942600	0.871200	0.783300
H741	H74	0.789200	0.978600	0.682100
H751	H75	0.734100	0.905100	0.700500
H761	H76	0.706300	0.982100	0.735300
C1211	C121	0.779200	0.897400	0.826300
C1221	C122	0.866900	0.010600	0.799900
C1231	C123	0.906800	0.890800	0.747300
C1241	C124	0.759300	0.951900	0.717600
N51	N5	0.828600	0.937400	0.775300
H771	H77	0.266800	0.653500	0.689400
H781	H78	0.220300	0.577600	0.663600
H791	H79	0.318700	0.603800	0.633800
H801	H80	0.389800	0.459400	0.736900
H811	H81	0.318700	0.463200	0.675600
H821	H82	0.420700	0.498500	0.669600
H831	H83	0.445700	0.578900	0.781500
H841	H84	0.380400	0.650700	0.780300
H851	H85	0.442600	0.628800	0.716700
H861	H86	0.289200	0.521400	0.817900
H871	H87	0.234100	0.594900	0.799500
H881	H88	0.206300	0.517900	0.764700
C1251	C125	0.279200	0.602600	0.673700
C1261	C126	0.366900	0.489400	0.700100
C1271	C127	0.406800	0.609200	0.752700
C1281	C128	0.259300	0.548100	0.782400
N61	N6	0.328600	0.562600	0.724700
H891	H89	0.233200	0.153500	0.189400
H901	H90	0.279700	0.077600	0.163600
H911	H91	0.181300	0.103800	0.133800
H921	H92	0.110200	0.959400	0.236900
H931	H93	0.181300	0.963200	0.175600
H941	H94	0.079300	0.998500	0.169600
H951	H95	0.054300	0.078900	0.281500
H961	H96	0.119600	0.150700	0.280300
H971	H97	0.057400	0.128800	0.216700
H981	H98	0.210800	0.021400	0.317900
H991	H99	0.265900	0.094900	0.299500
H1001	H100	0.293700	0.017900	0.264700
C1291	C129	0.220800	0.102600	0.173700
C1301	C130	0.133100	0.989400	0.200100
C1311	C131	0.093200	0.109200	0.252700
C1321	C132	0.240700	0.048100	0.282400
N71	N7	0.171400	0.062600	0.224700
H1011	H101	0.733200	0.346500	0.310600
H1021	H102	0.779700	0.422400	0.336400
H1031	H103	0.681300	0.396200	0.366200
H1041	H104	0.610200	0.540600	0.263100
H1051	H105	0.681300	0.536800	0.324400
H1061	H106	0.579300	0.501500	0.330400
H1071	H107	0.554300	0.421100	0.218500
H1081	H108	0.619600	0.349300	0.219700
H1091	H109	0.557400	0.371200	0.283300
H1101	H110	0.710800	0.478600	0.182100
H1111	H111	0.765900	0.405100	0.200500
H1121	H112	0.793700	0.482100	0.235300
C1331	C133	0.720800	0.397400	0.326300
C1341	C134	0.633100	0.510600	0.299900
C1351	C135	0.593200	0.390800	0.247300
C1361	C136	0.740700	0.451900	0.217600
N81	N8	0.671400	0.437400	0.275300
