data_TONBOO_clean_PM
_symmetry_space_group_name_H-M	'P1'
_cell_length_a	11.397200
_cell_length_b	11.825500
_cell_length_c	18.991400
_cell_angle_alpha	90.000000
_cell_angle_beta	90.000000
_cell_angle_gamma	118.038000
_symmetry_Int_Tables_number 1

loop_
_symmetry_equiv_pos_as_xyz
'x,y,z'

loop_
_atom_site_label
_atom_site_type_symbol
_atom_site_fract_x
_atom_site_fract_y
_atom_site_fract_z
Co11	Co1	0.316290	0.167960	0.505680
Co21	Co2	0.183710	0.332040	0.005680
Co31	Co3	0.683710	0.832040	0.494320
Co41	Co4	0.816290	0.667960	0.994320
Co51	Co5	0.500000	0.500000	0.500000
Co61	Co6	0.000000	0.000000	0.000000
H11	H1	0.538300	0.111500	0.335400
H21	H2	0.839000	0.494800	0.233500
H31	H3	0.704600	0.492600	0.321200
H41	H4	0.918300	0.373100	0.153000
H51	H5	0.741400	0.991800	0.163100
H61	H6	0.612700	0.990700	0.252500
H71	H7	0.207700	0.491300	0.552800
H81	H8	0.144500	0.649100	0.604200
H91	H9	0.992100	0.257900	0.396400
H101	H10	0.161300	0.935500	0.530700
H111	H11	0.353800	0.938300	0.549100
H121	H12	0.272300	0.822800	0.495900
H131	H13	0.384200	0.956000	0.465200
H141	H14	0.072100	0.945900	0.428000
H151	H15	0.108600	0.830500	0.424900
H161	H16	0.208900	0.964400	0.388600
H171	H17	0.961700	0.388500	0.835400
H181	H18	0.661000	0.005200	0.733500
H191	H19	0.795400	0.007400	0.821200
H201	H20	0.581700	0.126900	0.653000
H211	H21	0.758600	0.508200	0.663100
H221	H22	0.887300	0.509300	0.752500
H231	H23	0.292300	0.008700	0.052800
H241	H24	0.355500	0.850900	0.104200
H251	H25	0.507900	0.242100	0.896400
H261	H26	0.338700	0.564500	0.030700
H271	H27	0.146200	0.561700	0.049100
H281	H28	0.227700	0.677200	0.995900
H291	H29	0.115800	0.544000	0.965200
H301	H30	0.427900	0.554100	0.928000
H311	H31	0.391400	0.669500	0.924900
H321	H32	0.291100	0.535600	0.888600
H331	H33	0.461700	0.888500	0.664600
H341	H34	0.161000	0.505200	0.766500
H351	H35	0.295400	0.507400	0.678800
H361	H36	0.081700	0.626900	0.847000
H371	H37	0.258600	0.008200	0.836900
H381	H38	0.387300	0.009300	0.747500
H391	H39	0.792300	0.508700	0.447200
H401	H40	0.855500	0.350900	0.395800
H411	H41	0.007900	0.742100	0.603600
H421	H42	0.838700	0.064500	0.469300
H431	H43	0.646200	0.061700	0.450900
H441	H44	0.727700	0.177200	0.504100
H451	H45	0.615800	0.044000	0.534800
H461	H46	0.927900	0.054100	0.572000
H471	H47	0.891400	0.169500	0.575100
H481	H48	0.791100	0.035600	0.611400
H491	H49	0.038300	0.611500	0.164600
H501	H50	0.339000	0.994800	0.266500
H511	H51	0.204600	0.992600	0.178800
H521	H52	0.418300	0.873100	0.347000
H531	H53	0.241400	0.491800	0.336900
H541	H54	0.112700	0.490700	0.247500
H551	H55	0.707700	0.991300	0.947200
H561	H56	0.644500	0.149100	0.895800
H571	H57	0.492100	0.757900	0.103600
H581	H58	0.661300	0.435500	0.969300
H591	H59	0.853800	0.438300	0.950900
H601	H60	0.772300	0.322800	0.004100
H611	H61	0.884200	0.456000	0.034800
H621	H62	0.572100	0.445900	0.072000
H631	H63	0.608600	0.330500	0.075100
H641	H64	0.708900	0.464400	0.111400
C11	C1	0.517600	0.301200	0.395700
C21	C2	0.606000	0.299800	0.337220
C31	C3	0.598600	0.186900	0.314420
C41	C4	0.680400	0.183700	0.259110
C51	C5	0.773800	0.300600	0.228270
C61	C6	0.780400	0.416500	0.253270
C71	C7	0.699400	0.416100	0.305650
C81	C8	0.856400	0.297300	0.173710
C91	C9	0.846900	0.184000	0.149340
C101	C10	0.938400	0.181700	0.092800
C111	C11	0.751300	0.068000	0.179710
C121	C12	0.671600	0.067200	0.232950
C131	C13	0.195700	0.296300	0.479570
C141	C14	0.114900	0.365900	0.476430
C151	C15	0.138100	0.462800	0.521970
C161	C16	0.054000	0.521900	0.523890
C171	C17	0.074300	0.621200	0.572050
C181	C18	0.006600	0.323200	0.428390
C191	C19	0.317100	0.917100	0.501420
C201	C20	0.144600	0.922600	0.426890
C211	C21	0.982400	0.198800	0.895700
C221	C22	0.894000	0.200200	0.837220
C231	C23	0.901400	0.313100	0.814420
C241	C24	0.819600	0.316300	0.759110
C251	C25	0.726200	0.199400	0.728270
C261	C26	0.719600	0.083500	0.753270
C271	C27	0.800600	0.083900	0.805650
C281	C28	0.643600	0.202700	0.673710
C291	C29	0.653100	0.316000	0.649340
C301	C30	0.561600	0.318300	0.592800
C311	C31	0.748700	0.432000	0.679710
C321	C32	0.828400	0.432800	0.732950
C331	C33	0.304300	0.203700	0.979570
C341	C34	0.385100	0.134100	0.976430
C351	C35	0.361900	0.037200	0.021970
C361	C36	0.446000	0.978100	0.023890
C371	C37	0.425700	0.878800	0.072050
C381	C38	0.493400	0.176800	0.928390
C391	C39	0.182900	0.582900	0.001420
C401	C40	0.355400	0.577400	0.926890
C411	C41	0.482400	0.698800	0.604300
C421	C42	0.394000	0.700200	0.662780
C431	C43	0.401400	0.813100	0.685580
C441	C44	0.319600	0.816300	0.740890
C451	C45	0.226200	0.699400	0.771730
C461	C46	0.219600	0.583500	0.746730
C471	C47	0.300600	0.583900	0.694350
C481	C48	0.143600	0.702700	0.826290
C491	C49	0.153100	0.816000	0.850660
C501	C50	0.061600	0.818300	0.907200
C511	C51	0.248700	0.932000	0.820290
C521	C52	0.328400	0.932800	0.767050
C531	C53	0.804300	0.703700	0.520430
C541	C54	0.885100	0.634100	0.523570
C551	C55	0.861900	0.537200	0.478030
C561	C56	0.946000	0.478100	0.476110
C571	C57	0.925700	0.378800	0.427950
C581	C58	0.993400	0.676800	0.571610
C591	C59	0.682900	0.082900	0.498580
C601	C60	0.855400	0.077400	0.573110
C611	C61	0.017600	0.801200	0.104300
C621	C62	0.106000	0.799800	0.162780
C631	C63	0.098600	0.686900	0.185580
C641	C64	0.180400	0.683700	0.240890
C651	C65	0.273800	0.800600	0.271730
C661	C66	0.280400	0.916500	0.246730
C671	C67	0.199400	0.916100	0.194350
C681	C68	0.356400	0.797300	0.326290
C691	C69	0.346900	0.684000	0.350660
C701	C70	0.438400	0.681700	0.407200
C711	C71	0.251300	0.568000	0.320290
C721	C72	0.171600	0.567200	0.267050
C731	C73	0.695700	0.796300	0.020430
C741	C74	0.614900	0.865900	0.023570
C751	C75	0.638100	0.962800	0.978030
C761	C76	0.554000	0.021900	0.976110
C771	C77	0.574300	0.121200	0.927950
C781	C78	0.506600	0.823200	0.071610
C791	C79	0.817100	0.417100	0.998580
C801	C80	0.644600	0.422600	0.073110
N11	N1	0.220400	0.967300	0.493390
N21	N2	0.279600	0.532700	0.993390
N31	N3	0.779600	0.032700	0.506610
N41	N4	0.720400	0.467300	0.006610
O11	O1	0.304980	0.343410	0.514370
O21	O2	0.425430	0.195000	0.416120
O31	O3	0.543060	0.409850	0.419250
O41	O4	0.021880	0.289120	0.067740
O51	O5	0.926900	0.074520	0.076730
O61	O6	0.153050	0.188850	0.451130
O71	O7	0.195020	0.156590	0.014370
O81	O8	0.074570	0.305000	0.916120
O91	O9	0.956940	0.090150	0.919250
O101	O10	0.478120	0.210880	0.567740
O111	O11	0.573100	0.425480	0.576730
O121	O12	0.346950	0.311150	0.951130
O131	O13	0.695020	0.656590	0.485630
O141	O14	0.574570	0.805000	0.583880
O151	O15	0.456940	0.590150	0.580750
O161	O16	0.978120	0.710880	0.932260
O171	O17	0.073100	0.925480	0.923270
O181	O18	0.846950	0.811150	0.548870
O191	O19	0.804980	0.843410	0.985630
O201	O20	0.925430	0.695000	0.083880
O211	O21	0.043060	0.909850	0.080750
O221	O22	0.521880	0.789120	0.432260
O231	O23	0.426900	0.574520	0.423270
O241	O24	0.653050	0.688850	0.048870
