data_TONMEQ_clean_PM
_symmetry_space_group_name_H-M	'P1'
_cell_length_a	10.272400
_cell_length_b	13.312600
_cell_length_c	15.294900
_cell_angle_alpha	100.307000
_cell_angle_beta	107.572000
_cell_angle_gamma	100.414000
_symmetry_Int_Tables_number 1

loop_
_symmetry_equiv_pos_as_xyz
'x,y,z'

loop_
_atom_site_label
_atom_site_type_symbol
_atom_site_fract_x
_atom_site_fract_y
_atom_site_fract_z
Ba11	Ba1	0.526430	0.820360	0.988160
Ba21	Ba2	0.913220	0.075250	0.109660
C11	C1	0.345500	0.292700	0.303300
C21	C2	0.485400	0.312800	0.359800
H11	H1	0.551600	0.299800	0.331900
C31	C3	0.529000	0.351500	0.456300
H21	H2	0.624200	0.367100	0.492600
C41	C4	0.431900	0.367400	0.499500
H31	H3	0.460500	0.392300	0.564900
C51	C5	0.291200	0.345700	0.444100
C61	C6	0.246300	0.311500	0.346700
C71	C7	0.303300	0.247200	0.198500
C81	C8	0.092800	0.298000	0.291900
C91	C9	0.222700	0.382000	0.578400
C101	C10	0.247200	0.305300	0.626000
H41	H4	0.240800	0.237700	0.593100
C111	C11	0.281400	0.329500	0.723600
C121	C12	0.291000	0.430300	0.772100
H51	H5	0.315800	0.447000	0.837700
C131	C13	0.263700	0.506800	0.722700
C141	C14	0.227800	0.482100	0.624600
H61	H6	0.207700	0.532300	0.590900
C151	C15	0.306200	0.249400	0.778400
C161	C16	0.278700	0.615300	0.777200
C171	C17	0.605700	0.988500	0.790400
C181	C18	0.677500	0.993800	0.727700
H71	H7	0.775300	0.017600	0.750500
C191	C19	0.605200	0.964000	0.631200
H81	H8	0.655300	0.968200	0.589900
C201	C20	0.462400	0.928700	0.595400
H91	H9	0.414900	0.907900	0.530300
C211	C21	0.388200	0.924100	0.658100
C221	C22	0.458300	0.953700	0.755000
C231	C23	0.689700	0.015000	0.894100
C241	C24	0.367700	0.950600	0.816800
C251	C25	0.174100	0.861800	0.530800
C261	C26	0.135600	0.940000	0.486800
H101	H10	0.150500	0.008000	0.522500
C271	C27	0.074600	0.915300	0.388500
C281	C28	0.055400	0.813500	0.335900
H111	H11	0.016500	0.797100	0.270200
C291	C29	0.093900	0.736500	0.381100
C301	C30	0.151200	0.760200	0.478800
H121	H12	0.174200	0.708000	0.509300
C311	C31	0.036500	0.997400	0.337400
C321	C32	0.076200	0.630200	0.320800
O11	O1	0.174600	0.205900	0.151600
O21	O2	0.398400	0.252900	0.163500
O31	O3	0.826300	0.859800	0.028500
H131	H13	0.821000	0.829000	0.973500
H141	H14	0.868000	0.826000	0.064000
O41	O4	0.059800	0.372600	0.258900
O51	O5	0.005500	0.213800	0.284200
O61	O6	0.185900	0.360400	0.480100
O71	O7	0.295800	0.156500	0.725800
H151	H15	0.309700	0.111900	0.758800
O81	O8	0.335900	0.269100	0.863800
O91	O9	0.320500	0.641700	0.862500
O101	O10	0.242000	0.677400	0.720300
H161	H16	0.256700	0.735600	0.759800
O111	O11	0.822000	0.032800	0.917000
O121	O12	0.625100	0.015800	0.952700
O131	O13	0.329700	0.867500	0.840200
O141	O14	0.327700	0.032000	0.839800
O151	O15	0.242400	0.888100	0.628700
O161	O16	0.073400	0.092300	0.391700
H171	H17	0.053900	0.146100	0.366200
O171	O17	0.979600	0.974400	0.252600
O181	O18	0.034100	0.610600	0.235200
O191	O19	0.111300	0.561400	0.369000
H181	H18	0.110400	0.510300	0.326400
Ba31	Ba3	0.473570	0.179640	0.011840
Ba41	Ba4	0.086780	0.924750	0.890340
C331	C33	0.654500	0.707300	0.696700
C341	C34	0.514600	0.687200	0.640200
H191	H19	0.448400	0.700200	0.668100
C351	C35	0.471000	0.648500	0.543700
H201	H20	0.375800	0.632900	0.507400
C361	C36	0.568100	0.632600	0.500500
H211	H21	0.539500	0.607700	0.435100
C371	C37	0.708800	0.654300	0.555900
C381	C38	0.753700	0.688500	0.653300
C391	C39	0.696700	0.752800	0.801500
C401	C40	0.907200	0.702000	0.708100
C411	C41	0.777300	0.618000	0.421600
C421	C42	0.752800	0.694700	0.374000
H221	H22	0.759200	0.762300	0.406900
C431	C43	0.718600	0.670500	0.276400
C441	C44	0.709000	0.569700	0.227900
H231	H23	0.684200	0.553000	0.162300
C451	C45	0.736300	0.493200	0.277300
C461	C46	0.772200	0.517900	0.375400
H241	H24	0.792300	0.467700	0.409100
C471	C47	0.693800	0.750600	0.221600
C481	C48	0.721300	0.384700	0.222800
C491	C49	0.394300	0.011500	0.209600
C501	C50	0.322500	0.006200	0.272300
H251	H25	0.224700	0.982400	0.249500
C511	C51	0.394800	0.036000	0.368800
H261	H26	0.344700	0.031800	0.410100
C521	C52	0.537600	0.071300	0.404600
H271	H27	0.585100	0.092100	0.469700
C531	C53	0.611800	0.075900	0.341900
C541	C54	0.541700	0.046300	0.245000
C551	C55	0.310300	0.985000	0.105900
C561	C56	0.632300	0.049400	0.183200
C571	C57	0.825900	0.138200	0.469200
C581	C58	0.864400	0.060000	0.513200
H281	H28	0.849500	0.992000	0.477500
C591	C59	0.925400	0.084700	0.611500
C601	C60	0.944600	0.186500	0.664100
H291	H29	0.983500	0.202900	0.729800
C611	C61	0.906100	0.263500	0.618900
C621	C62	0.848800	0.239800	0.521200
H301	H30	0.825800	0.292000	0.490700
C631	C63	0.963500	0.002600	0.662600
C641	C64	0.923800	0.369800	0.679200
O201	O20	0.825400	0.794100	0.848400
O211	O21	0.601600	0.747100	0.836500
O221	O22	0.173700	0.140200	0.971500
H311	H31	0.179000	0.171000	0.026500
H321	H32	0.132000	0.174000	0.936000
O231	O23	0.940200	0.627400	0.741100
O241	O24	0.994500	0.786200	0.715800
O251	O25	0.814100	0.639600	0.519900
O261	O26	0.704200	0.843500	0.274200
H331	H33	0.690300	0.888100	0.241200
O271	O27	0.664100	0.730900	0.136200
O281	O28	0.679500	0.358300	0.137500
O291	O29	0.758000	0.322600	0.279700
H341	H34	0.743300	0.264400	0.240200
O301	O30	0.178000	0.967200	0.083000
O311	O31	0.374900	0.984200	0.047300
O321	O32	0.670300	0.132500	0.159800
O331	O33	0.672300	0.968000	0.160200
O341	O34	0.757600	0.111900	0.371300
O351	O35	0.926600	0.907700	0.608300
H351	H35	0.946100	0.853900	0.633800
O361	O36	0.020400	0.025600	0.747400
O371	O37	0.965900	0.389400	0.764800
O381	O38	0.888700	0.438600	0.631000
H361	H36	0.889600	0.489700	0.673600
