data_TOQCIL_clean_PM
_symmetry_space_group_name_H-M	'P1'
_cell_length_a	5.305000
_cell_length_b	9.296000
_cell_length_c	15.474000
_cell_angle_alpha	86.462000
_cell_angle_beta	86.420000
_cell_angle_gamma	78.906000
_symmetry_Int_Tables_number 1

loop_
_symmetry_equiv_pos_as_xyz
'x,y,z'

loop_
_atom_site_label
_atom_site_type_symbol
_atom_site_fract_x
_atom_site_fract_y
_atom_site_fract_z
Zn11	Zn1	0.775600	0.619000	0.263550
Zn21	Zn2	0.277900	0.555500	0.396330
Zn31	Zn3	0.205700	0.575500	0.099750
Zn41	Zn4	0.015400	0.150900	0.257450
P11	P1	0.762100	0.395600	0.118500
P21	P2	0.827300	0.363200	0.407300
P31	P3	0.212100	0.796000	0.240500
O11	O1	0.100000	0.673700	0.298200
O21	O2	0.890000	0.514800	0.157500
O31	O3	0.649000	0.496400	0.360600
O41	O4	0.492000	0.780500	0.259300
O51	O5	0.101000	0.391300	0.402000
O61	O6	0.282000	0.656500	0.500100
O71	O7	0.476000	0.428500	0.150400
O81	O8	0.177000	0.768600	0.145100
O91	O9	0.206000	0.591600	0.978700
O101	O10	0.815000	0.223400	0.360700
O111	O11	0.060000	0.943800	0.265100
O121	O12	0.884000	0.244500	0.151400
Zn51	Zn5	0.224400	0.381000	0.736450
Zn61	Zn6	0.722100	0.444500	0.603670
Zn71	Zn7	0.794300	0.424500	0.900250
Zn81	Zn8	0.984600	0.849100	0.742550
P41	P4	0.237900	0.604400	0.881500
P51	P5	0.172700	0.636800	0.592700
P61	P6	0.787900	0.204000	0.759500
O131	O13	0.900000	0.326300	0.701800
O141	O14	0.110000	0.485200	0.842500
O151	O15	0.351000	0.503600	0.639400
O161	O16	0.508000	0.219500	0.740700
O171	O17	0.899000	0.608700	0.598000
O181	O18	0.718000	0.343500	0.499900
O191	O19	0.524000	0.571500	0.849600
O201	O20	0.823000	0.231400	0.854900
O211	O21	0.794000	0.408400	0.021300
O221	O22	0.185000	0.776600	0.639300
O231	O23	0.940000	0.056200	0.734900
O241	O24	0.116000	0.755500	0.848600
