data_TOTVUV_clean_PM
_symmetry_space_group_name_H-M	'P1'
_cell_length_a	7.378100
_cell_length_b	13.574000
_cell_length_c	13.578000
_cell_angle_alpha	113.181000
_cell_angle_beta	103.841000
_cell_angle_gamma	90.952000
_symmetry_Int_Tables_number 1

loop_
_symmetry_equiv_pos_as_xyz
'x,y,z'

loop_
_atom_site_label
_atom_site_type_symbol
_atom_site_fract_x
_atom_site_fract_y
_atom_site_fract_z
Cd11	Cd1	0.315650	0.227850	0.985770
Cd21	Cd2	0.365730	0.768450	0.605020
Cd31	Cd3	0.820320	0.244990	0.004160
Cd41	Cd4	0.600710	0.437710	0.237740
Cd51	Cd5	0.179680	0.755010	0.995840
Cd61	Cd6	0.399290	0.562290	0.762260
Cd71	Cd7	0.684350	0.772150	0.014230
Cd81	Cd8	0.634270	0.231550	0.394980
Cd91	Cd9	0.500000	0.500000	0.500000
H11	H1	0.080400	0.225300	0.518500
H21	H2	0.783800	0.400200	0.753600
H31	H3	0.806500	0.716900	0.356300
H41	H4	0.904600	0.405200	0.867300
H51	H5	0.825800	0.893700	0.733800
H61	H6	0.070600	0.999200	0.165400
H71	H7	0.095400	0.594800	0.132700
H81	H8	0.919600	0.774700	0.481500
H91	H9	0.174200	0.106300	0.266200
H101	H10	0.216200	0.599800	0.246400
H111	H11	0.929400	0.000800	0.834600
H121	H12	0.193500	0.283100	0.643700
C11	C1	0.958900	0.617600	0.411700
C21	C2	0.371600	0.596800	0.142500
C31	C3	0.830900	0.941400	0.809900
C41	C4	0.666900	0.693900	0.460400
C51	C5	0.628400	0.403200	0.857500
C61	C6	0.169100	0.058600	0.190100
C71	C7	0.646800	0.984500	0.814000
C81	C8	0.198800	0.565400	0.166600
C91	C9	0.157000	0.291400	0.574100
C101	C10	0.140200	0.444900	0.128000
C111	C11	0.333100	0.306100	0.539600
C121	C12	0.353200	0.015500	0.186000
C131	C13	0.801200	0.434600	0.833400
C141	C14	0.859800	0.555100	0.872000
C151	C15	0.122300	0.120600	0.116100
C161	C16	0.041100	0.382400	0.588300
C171	C17	0.843000	0.708600	0.425900
C181	C18	0.877700	0.879400	0.883900
N11	N1	0.626600	0.082200	0.882900
N21	N2	0.658300	0.606900	0.132000
N31	N3	0.348300	0.989200	0.794400
N41	N4	0.048100	0.814400	0.211300
N51	N5	0.884900	0.166500	0.698800
N61	N6	0.189000	0.527500	0.431900
N71	N7	0.437700	0.082300	0.868700
N81	N8	0.042900	0.458100	0.364500
N91	N9	0.651700	0.010800	0.205600
N101	N10	0.985400	0.791300	0.115400
N111	N11	0.102000	0.486100	0.648600
N121	N12	0.614600	0.334900	0.904100
N131	N13	0.341700	0.393100	0.868000
N141	N14	0.373400	0.917800	0.117100
N151	N15	0.951900	0.185600	0.788700
N161	N16	0.537900	0.559100	0.164700
N171	N17	0.115100	0.833500	0.301200
N181	N18	0.565700	0.669200	0.090400
N191	N19	0.957100	0.541900	0.635500
N201	N20	0.462100	0.440900	0.835300
N211	N21	0.811000	0.472500	0.568100
N221	N22	0.385400	0.665100	0.095900
N231	N23	0.860100	0.372000	0.537400
N241	N24	0.562300	0.917700	0.131300
N251	N25	0.898000	0.513900	0.351400
N261	N26	0.014600	0.208700	0.884600
N271	N27	0.139900	0.628000	0.462600
N281	N28	0.520400	0.073600	0.242100
N291	N29	0.479600	0.926400	0.757900
N301	N30	0.434300	0.330800	0.909600
O11	O1	0.573100	0.601000	0.411500
O21	O2	0.620600	0.773700	0.530400
O31	O3	0.028800	0.837600	0.885000
O41	O4	0.426900	0.399000	0.588500
O51	O5	0.269500	0.384700	0.133500
O61	O6	0.502800	0.641100	0.660600
O71	O7	0.379400	0.226300	0.469600
O81	O8	0.610200	0.276100	0.108000
O91	O9	0.765100	0.877000	0.937700
O101	O10	0.234900	0.123000	0.062300
O111	O11	0.970100	0.414400	0.096000
O121	O12	0.497200	0.358900	0.339400
O131	O13	0.730500	0.615300	0.866500
O141	O14	0.029900	0.585600	0.904000
O151	O15	0.389800	0.723900	0.892000
O161	O16	0.971200	0.162400	0.115000
