data_TOVJAR_clean_PM
_symmetry_space_group_name_H-M	'P1'
_cell_length_a	36.155000
_cell_length_b	18.566000
_cell_length_c	48.725000
_cell_angle_alpha	90.000000
_cell_angle_beta	90.000000
_cell_angle_gamma	90.000000
_symmetry_Int_Tables_number 1

loop_
_symmetry_equiv_pos_as_xyz
'x,y,z'

loop_
_atom_site_label
_atom_site_type_symbol
_atom_site_fract_x
_atom_site_fract_y
_atom_site_fract_z
Fe11	Fe1	0.982060	0.965670	0.209410
Fe21	Fe2	0.957510	0.025600	0.270700
Fe31	Fe3	0.029740	0.096760	0.237950
Fe41	Fe4	0.208230	0.520800	0.455010
Fe51	Fe5	0.283900	0.596000	0.485610
Fe61	Fe6	0.233790	0.469460	0.516470
O11	O1	0.001070	0.016290	0.298710
O21	O2	0.045760	0.081120	0.278530
O31	O3	0.203270	0.415710	0.455380
O41	O4	0.223280	0.373560	0.494520
O51	O5	0.251770	0.679410	0.472040
O61	O6	0.208610	0.630770	0.448000
O71	O7	0.251250	0.506940	0.426430
O81	O8	0.297110	0.568790	0.446300
O91	O9	0.453690	0.082300	0.272630
O101	O10	0.470230	0.130050	0.233530
O111	O11	0.501380	0.816160	0.249790
O121	O12	0.458570	0.866980	0.276530
O131	O13	0.274650	0.629280	0.523780
O141	O14	0.242230	0.547430	0.545450
O151	O15	0.462210	0.933190	0.706400
O161	O16	0.431740	0.018300	0.727490
O171	O17	0.087480	0.964160	0.747360
O181	O18	0.071590	0.009440	0.706870
O191	O19	0.163200	0.537210	0.477860
O201	O20	0.177920	0.491970	0.517890
O211	O21	0.009750	0.958330	0.679210
O221	O22	0.975220	0.877410	0.700100
O231	O23	0.788570	0.565310	0.520370
O241	O24	0.819240	0.478120	0.499710
O251	O25	0.972530	0.892540	0.176400
O261	O26	0.923380	0.024400	0.305200
O271	O27	0.075410	0.165600	0.237530
O281	O28	0.991660	0.026860	0.240530
O291	O29	0.172810	0.517230	0.421190
O301	O30	0.223920	0.399910	0.551370
O311	O31	0.241590	0.529330	0.485450
C11	C1	0.032300	0.045200	0.298200
C21	C2	0.057780	0.042100	0.322830
C31	C3	0.088100	0.082800	0.325970
H11	H1	0.093100	0.117700	0.312200
C41	C4	0.111700	0.078300	0.346730
H21	H2	0.133800	0.105900	0.346800
C51	C5	0.102970	0.030900	0.368990
C61	C6	0.073100	0.990500	0.367280
H31	H3	0.068400	0.956300	0.381300
C71	C7	0.047270	0.996400	0.344870
H41	H4	0.024400	0.971100	0.344800
C81	C8	0.127700	0.028100	0.394480
C91	C9	0.139820	0.088700	0.405680
H51	H5	0.130400	0.133200	0.399000
C101	C10	0.165650	0.090000	0.426740
C111	C11	0.178870	0.024500	0.435630
H61	H6	0.196500	0.023400	0.450100
C121	C12	0.167190	0.959900	0.424090
C131	C13	0.139550	0.961400	0.403010
H71	H7	0.129900	0.918300	0.395300
C141	C14	0.175710	0.157800	0.439420
C151	C15	0.182110	0.223400	0.422910
H81	H8	0.178200	0.220700	0.403700
C161	C16	0.193160	0.286700	0.433530
H91	H9	0.196100	0.327400	0.421900
C171	C17	0.200010	0.292200	0.460270
C181	C18	0.199900	0.231500	0.475780
H101	H10	0.205700	0.235700	0.494700
C191	C19	0.192130	0.166400	0.465830
H111	H11	0.197600	0.125000	0.476500
C201	C20	0.210900	0.365100	0.470780
C211	C21	0.181130	0.889300	0.433960
C221	C22	0.210410	0.881800	0.449270
H121	H12	0.221300	0.924200	0.456600
C231	C23	0.226970	0.815900	0.455770
H131	H13	0.250100	0.814900	0.464900
C241	C24	0.209940	0.753800	0.448970
C251	C25	0.176430	0.758400	0.434700
H141	H14	0.165800	0.716800	0.426500
C261	C26	0.158340	0.827500	0.432720
H151	H15	0.132300	0.831200	0.430700
C271	C27	0.224940	0.683200	0.457040
C281	C28	0.283280	0.532000	0.427820
C291	C29	0.308490	0.511200	0.404480
C301	C30	0.299170	0.463300	0.384520
H161	H16	0.276500	0.437600	0.385900
C311	C31	0.322350	0.451200	0.362190
H171	H17	0.314500	0.420200	0.347800
C321	C32	0.356520	0.483900	0.360740
C331	C33	0.366490	0.530100	0.380680
H181	H18	0.389600	0.554300	0.379400
C341	C34	0.343800	0.543000	0.402940
H191	H19	0.352100	0.573600	0.417300
C351	C35	0.381230	0.479200	0.337330
C361	C36	0.389920	0.411800	0.324740
H201	H20	0.380600	0.368600	0.332600
C371	C37	0.412170	0.407900	0.300690
C381	C38	0.424540	0.473700	0.288490
H211	H21	0.440100	0.471800	0.272800
C391	C39	0.414200	0.541400	0.299270
C401	C40	0.395910	0.540500	0.325720
H221	H22	0.393900	0.584500	0.335600
C411	C41	0.425200	0.337600	0.289920
C421	C42	0.424520	0.281700	0.306440
H231	H23	0.416800	0.286300	0.325000
C431	C43	0.436210	0.211300	0.295160
H241	H24	0.436200	0.170100	0.306700
C441	C44	0.447250	0.204100	0.267860
C451	C45	0.446950	0.264000	0.251840
H251	H25	0.456500	0.260900	0.233700
C461	C46	0.432910	0.331500	0.261210
H261	H26	0.428900	0.370500	0.249000
C471	C47	0.457370	0.132900	0.256470
C481	C48	0.431990	0.609000	0.291120
C491	C49	0.466980	0.615600	0.278190
H271	H27	0.482100	0.574100	0.276200
C501	C50	0.479150	0.679500	0.268690
H281	H28	0.501600	0.681200	0.258600
C511	C51	0.460190	0.741400	0.273130
C521	C52	0.421530	0.737100	0.281650
H291	H29	0.404300	0.774900	0.278400
C531	C53	0.411980	0.674300	0.294700
H301	H30	0.391200	0.674400	0.306600
C541	C54	0.473500	0.814500	0.266290
C551	C55	0.257420	0.607500	0.544200
C561	C56	0.256870	0.654300	0.568170
C571	C57	0.279190	0.715800	0.568510
H311	H31	0.293000	0.729800	0.552800
C581	C58	0.280400	0.756500	0.593250
H321	H32	0.297700	0.794700	0.594900
C591	C59	0.256740	0.741700	0.615230
C601	C60	0.232590	0.685600	0.613100
H331	H33	0.215300	0.676100	0.627300
C611	C61	0.233700	0.642300	0.589620
H341	H34	0.217400	0.602300	0.588600
C621	C62	0.257000	0.790000	0.639910
C631	C63	0.292980	0.814900	0.649880
H351	H35	0.315300	0.801400	0.640900
C641	C64	0.293400	0.858500	0.672800
C651	C65	0.259520	0.880000	0.685090
H361	H36	0.259900	0.909000	0.701200
C661	C66	0.226970	0.859900	0.674210
C671	C67	0.225260	0.815500	0.650950
H371	H37	0.202100	0.803500	0.643000
C681	C68	0.329290	0.885300	0.683310
C691	C69	0.361450	0.844200	0.679990
H381	H38	0.360400	0.797500	0.672100
C701	C70	0.394730	0.873100	0.688440
H391	H39	0.416800	0.848300	0.683600
C711	C71	0.397830	0.934500	0.703170
C721	C72	0.365930	0.977800	0.704120
H401	H40	0.367600	0.026600	0.709800
C731	C73	0.332430	0.949000	0.696840
H411	H41	0.310500	0.974600	0.701400
C741	C74	0.434490	0.962700	0.712730
C751	C75	0.190690	0.887000	0.687680
C761	C76	0.187280	0.892600	0.714920
H421	H42	0.207000	0.876700	0.726300
C771	C77	0.156140	0.920800	0.726850
H431	H43	0.154400	0.922900	0.746300
C781	C78	0.126930	0.946300	0.710870
C791	C79	0.131810	0.941500	0.682290
H441	H44	0.113400	0.960900	0.670600
C801	C80	0.162130	0.909900	0.670890
H451	H45	0.163700	0.903700	0.651600
C811	C81	0.093390	0.978600	0.722960
C821	C82	0.157830	0.527100	0.503210
C831	C83	0.123710	0.558500	0.515320
C841	C84	0.120150	0.564900	0.542680
H461	H46	0.139500	0.549300	0.554400
C851	C85	0.088460	0.594000	0.553690
H471	H47	0.087300	0.599700	0.573000
C861	C86	0.058530	0.615300	0.538540
C871	C87	0.063440	0.612100	0.509650
H481	H48	0.044900	0.630500	0.497700
C881	C88	0.095370	0.582200	0.499110
H491	H49	0.097700	0.577800	0.479800
C891	C89	0.025320	0.647600	0.548820
C901	C90	0.025140	0.693900	0.571060
H501	H50	0.048200	0.712100	0.577400
C911	C91	0.992970	0.715500	0.584690
C921	C92	0.959760	0.693200	0.573280
H511	H51	0.937400	0.711000	0.580900
C931	C93	0.957630	0.646300	0.551260
C941	C94	0.990410	0.621900	0.539570
H521	H52	0.989500	0.587600	0.525100
C951	C95	0.993400	0.762400	0.609660
C961	C96	0.016850	0.823000	0.611180
H531	H53	0.033500	0.832000	0.596500
C971	C97	0.016510	0.869500	0.633170
H541	H54	0.031700	0.911200	0.633200
C981	C98	0.993620	0.854600	0.655290
C991	C99	0.969930	0.797600	0.652610
H551	H55	0.952100	0.790000	0.666700
C1001	C100	0.970300	0.751700	0.631360
H561	H56	0.954300	0.711100	0.631400
C1011	C101	0.992540	0.900200	0.679830
C1021	C102	0.921980	0.620800	0.540690
C1031	C103	0.888560	0.656500	0.544710
H571	H57	0.888800	0.699600	0.555200
C1041	C104	0.854820	0.632900	0.534310
H581	H58	0.833500	0.662500	0.535400
C1051	C105	0.852980	0.565100	0.522390
C1061	C106	0.886710	0.530200	0.515350
H591	H59	0.887000	0.491700	0.502500
C1071	C107	0.919840	0.554300	0.527940
H601	H60	0.941100	0.524200	0.527600
C1081	C108	0.818120	0.534400	0.513190
Co11	Co1	0.984000	0.955220	0.209560
Co21	Co2	0.962630	0.024400	0.270410
Co31	Co3	0.033200	0.086720	0.241330
Co41	Co4	0.212790	0.525800	0.455040
Co51	Co5	0.278350	0.587400	0.484800
Co61	Co6	0.233600	0.458200	0.517490
Fe71	Fe7	0.017940	0.034330	0.709410
Fe81	Fe8	0.042490	0.974400	0.770700
Fe91	Fe9	0.970260	0.903240	0.737950
Fe101	Fe10	0.791770	0.479200	0.955010
Fe111	Fe11	0.716100	0.404000	0.985610
Fe121	Fe12	0.766210	0.530540	0.016470
O321	O32	0.998930	0.983710	0.798710
O331	O33	0.954240	0.918880	0.778530
O341	O34	0.796730	0.584290	0.955380
O351	O35	0.776720	0.626440	0.994520
O361	O36	0.748230	0.320590	0.972040
O371	O37	0.791390	0.369230	0.948000
O381	O38	0.748750	0.493060	0.926430
O391	O39	0.702890	0.431210	0.946300
O401	O40	0.546310	0.917700	0.772630
O411	O41	0.529770	0.869950	0.733530
O421	O42	0.498620	0.183840	0.749790
O431	O43	0.541430	0.133020	0.776530
O441	O44	0.725350	0.370720	0.023780
O451	O45	0.757770	0.452570	0.045450
O461	O46	0.537790	0.066810	0.206400
O471	O47	0.568260	0.981700	0.227490
O481	O48	0.912520	0.035840	0.247360
O491	O49	0.928410	0.990560	0.206870
O501	O50	0.836800	0.462790	0.977860
O511	O51	0.822080	0.508030	0.017890
O521	O52	0.990250	0.041670	0.179210
O531	O53	0.024780	0.122590	0.200100
O541	O54	0.211430	0.434690	0.020370
O551	O55	0.180760	0.521880	0.999710
O561	O56	0.027470	0.107460	0.676400
O571	O57	0.076620	0.975600	0.805200
O581	O58	0.924590	0.834400	0.737530
O591	O59	0.008340	0.973140	0.740530
O601	O60	0.827190	0.482770	0.921190
O611	O61	0.776080	0.600090	0.051370
O621	O62	0.758410	0.470670	0.985450
C1091	C109	0.967700	0.954800	0.798200
C1101	C110	0.942220	0.957900	0.822830
C1111	C111	0.911900	0.917200	0.825970
H611	H61	0.906900	0.882300	0.812200
C1121	C112	0.888300	0.921700	0.846730
H621	H62	0.866200	0.894100	0.846800
C1131	C113	0.897030	0.969100	0.868990
C1141	C114	0.926900	0.009500	0.867280
H631	H63	0.931600	0.043700	0.881300
C1151	C115	0.952730	0.003600	0.844870
H641	H64	0.975600	0.028900	0.844800
C1161	C116	0.872300	0.971900	0.894480
C1171	C117	0.860180	0.911300	0.905680
H651	H65	0.869600	0.866800	0.899000
C1181	C118	0.834350	0.910000	0.926740
C1191	C119	0.821130	0.975500	0.935630
H661	H66	0.803500	0.976600	0.950100
C1201	C120	0.832810	0.040100	0.924090
C1211	C121	0.860450	0.038600	0.903010
H671	H67	0.870100	0.081700	0.895300
C1221	C122	0.824290	0.842200	0.939420
C1231	C123	0.817890	0.776600	0.922910
H681	H68	0.821800	0.779300	0.903700
C1241	C124	0.806840	0.713300	0.933530
H691	H69	0.803900	0.672600	0.921900
C1251	C125	0.799990	0.707800	0.960270
C1261	C126	0.800100	0.768500	0.975780
H701	H70	0.794300	0.764300	0.994700
C1271	C127	0.807870	0.833600	0.965830
H711	H71	0.802400	0.875000	0.976500
C1281	C128	0.789100	0.634900	0.970780
C1291	C129	0.818870	0.110700	0.933960
C1301	C130	0.789590	0.118200	0.949270
H721	H72	0.778700	0.075800	0.956600
C1311	C131	0.773030	0.184100	0.955770
H731	H73	0.749900	0.185100	0.964900
C1321	C132	0.790060	0.246200	0.948970
C1331	C133	0.823570	0.241600	0.934700
H741	H74	0.834200	0.283200	0.926500
C1341	C134	0.841660	0.172500	0.932720
H751	H75	0.867700	0.168800	0.930700
C1351	C135	0.775060	0.316800	0.957040
C1361	C136	0.716720	0.468000	0.927820
C1371	C137	0.691510	0.488800	0.904480
C1381	C138	0.700830	0.536700	0.884520
H761	H76	0.723500	0.562400	0.885900
C1391	C139	0.677650	0.548800	0.862190
H771	H77	0.685500	0.579800	0.847800
C1401	C140	0.643480	0.516100	0.860740
C1411	C141	0.633510	0.469900	0.880680
H781	H78	0.610400	0.445700	0.879400
C1421	C142	0.656200	0.457000	0.902940
H791	H79	0.647900	0.426400	0.917300
C1431	C143	0.618770	0.520800	0.837330
C1441	C144	0.610080	0.588200	0.824740
H801	H80	0.619400	0.631400	0.832600
C1451	C145	0.587830	0.592100	0.800690
C1461	C146	0.575460	0.526300	0.788490
H811	H81	0.559900	0.528200	0.772800
C1471	C147	0.585800	0.458600	0.799270
C1481	C148	0.604090	0.459500	0.825720
H821	H82	0.606100	0.415500	0.835600
C1491	C149	0.574800	0.662400	0.789920
C1501	C150	0.575480	0.718300	0.806440
H831	H83	0.583200	0.713700	0.825000
C1511	C151	0.563790	0.788700	0.795160
H841	H84	0.563800	0.829900	0.806700
C1521	C152	0.552750	0.795900	0.767860
C1531	C153	0.553050	0.736000	0.751840
H851	H85	0.543500	0.739100	0.733700
C1541	C154	0.567090	0.668500	0.761210
H861	H86	0.571100	0.629500	0.749000
C1551	C155	0.542630	0.867100	0.756470
C1561	C156	0.568010	0.391000	0.791120
C1571	C157	0.533020	0.384400	0.778190
H871	H87	0.517900	0.425900	0.776200
C1581	C158	0.520850	0.320500	0.768690
H881	H88	0.498400	0.318800	0.758600
C1591	C159	0.539810	0.258600	0.773130
C1601	C160	0.578470	0.262900	0.781650
H891	H89	0.595700	0.225100	0.778400
C1611	C161	0.588020	0.325700	0.794700
H901	H90	0.608800	0.325600	0.806600
C1621	C162	0.526500	0.185500	0.766290
C1631	C163	0.742580	0.392500	0.044200
C1641	C164	0.743130	0.345700	0.068170
C1651	C165	0.720810	0.284200	0.068510
H911	H91	0.707000	0.270200	0.052800
C1661	C166	0.719600	0.243500	0.093250
H921	H92	0.702300	0.205300	0.094900
C1671	C167	0.743260	0.258300	0.115230
C1681	C168	0.767410	0.314400	0.113100
H931	H93	0.784700	0.323900	0.127300
C1691	C169	0.766300	0.357700	0.089620
H941	H94	0.782600	0.397700	0.088600
C1701	C170	0.743000	0.210000	0.139910
C1711	C171	0.707020	0.185100	0.149880
H951	H95	0.684700	0.198600	0.140900
C1721	C172	0.706600	0.141500	0.172800
C1731	C173	0.740480	0.120000	0.185090
H961	H96	0.740100	0.091000	0.201200
C1741	C174	0.773030	0.140100	0.174210
C1751	C175	0.774740	0.184500	0.150950
H971	H97	0.797900	0.196500	0.143000
C1761	C176	0.670710	0.114700	0.183310
C1771	C177	0.638550	0.155800	0.179990
H981	H98	0.639600	0.202500	0.172100
C1781	C178	0.605270	0.126900	0.188440
H991	H99	0.583200	0.151700	0.183600
C1791	C179	0.602170	0.065500	0.203170
C1801	C180	0.634070	0.022200	0.204120
H1001	H100	0.632400	0.973400	0.209800
C1811	C181	0.667570	0.051000	0.196840
H1011	H101	0.689500	0.025400	0.201400
C1821	C182	0.565510	0.037300	0.212730
C1831	C183	0.809310	0.113000	0.187680
C1841	C184	0.812720	0.107400	0.214920
H1021	H102	0.793000	0.123300	0.226300
C1851	C185	0.843860	0.079200	0.226850
H1031	H103	0.845600	0.077100	0.246300
C1861	C186	0.873070	0.053700	0.210870
C1871	C187	0.868190	0.058500	0.182290
H1041	H104	0.886600	0.039100	0.170600
C1881	C188	0.837870	0.090100	0.170890
H1051	H105	0.836300	0.096300	0.151600
C1891	C189	0.906610	0.021400	0.222960
C1901	C190	0.842170	0.472900	0.003210
C1911	C191	0.876290	0.441500	0.015320
C1921	C192	0.879850	0.435100	0.042680
H1061	H106	0.860500	0.450700	0.054400
C1931	C193	0.911540	0.406000	0.053690
H1071	H107	0.912700	0.400300	0.073000
C1941	C194	0.941470	0.384700	0.038540
C1951	C195	0.936560	0.387900	0.009650
H1081	H108	0.955100	0.369500	0.997700
C1961	C196	0.904630	0.417800	0.999110
H1091	H109	0.902300	0.422200	0.979800
C1971	C197	0.974680	0.352400	0.048820
C1981	C198	0.974860	0.306100	0.071060
H1101	H110	0.951800	0.287900	0.077400
C1991	C199	0.007030	0.284500	0.084690
C2001	C200	0.040240	0.306800	0.073280
H1111	H111	0.062600	0.289000	0.080900
C2011	C201	0.042370	0.353700	0.051260
C2021	C202	0.009590	0.378100	0.039570
H1121	H112	0.010500	0.412400	0.025100
C2031	C203	0.006600	0.237600	0.109660
C2041	C204	0.983150	0.177000	0.111180
H1131	H113	0.966500	0.168000	0.096500
C2051	C205	0.983490	0.130500	0.133170
H1141	H114	0.968300	0.088800	0.133200
C2061	C206	0.006380	0.145400	0.155290
C2071	C207	0.030070	0.202400	0.152610
H1151	H115	0.047900	0.210000	0.166700
C2081	C208	0.029700	0.248300	0.131360
H1161	H116	0.045700	0.288900	0.131400
C2091	C209	0.007460	0.099800	0.179830
C2101	C210	0.078020	0.379200	0.040690
C2111	C211	0.111440	0.343500	0.044710
H1171	H117	0.111200	0.300400	0.055200
C2121	C212	0.145180	0.367100	0.034310
H1181	H118	0.166500	0.337500	0.035400
C2131	C213	0.147020	0.434900	0.022390
C2141	C214	0.113290	0.469800	0.015350
H1191	H119	0.113000	0.508300	0.002500
C2151	C215	0.080160	0.445700	0.027940
H1201	H120	0.058900	0.475800	0.027600
C2161	C216	0.181880	0.465600	0.013190
Co71	Co7	0.016000	0.044780	0.709560
Co81	Co8	0.037370	0.975600	0.770410
Co91	Co9	0.966800	0.913280	0.741330
Co101	Co10	0.787210	0.474200	0.955040
Co111	Co11	0.721650	0.412600	0.984800
Co121	Co12	0.766400	0.541800	0.017490
Fe131	Fe13	0.482060	0.034330	0.209410
Fe141	Fe14	0.457510	0.974400	0.270700
Fe151	Fe15	0.529740	0.903240	0.237950
Fe161	Fe16	0.708230	0.479200	0.455010
Fe171	Fe17	0.783900	0.404000	0.485610
Fe181	Fe18	0.733790	0.530540	0.516470
O631	O63	0.501070	0.983710	0.298710
O641	O64	0.545760	0.918880	0.278530
O651	O65	0.703270	0.584290	0.455380
O661	O66	0.723280	0.626440	0.494520
O671	O67	0.751770	0.320590	0.472040
O681	O68	0.708610	0.369230	0.448000
O691	O69	0.751250	0.493060	0.426430
O701	O70	0.797110	0.431210	0.446300
O711	O71	0.953690	0.917700	0.272630
O721	O72	0.970230	0.869950	0.233530
O731	O73	0.001380	0.183840	0.249790
O741	O74	0.958570	0.133020	0.276530
O751	O75	0.774650	0.370720	0.523780
O761	O76	0.742230	0.452570	0.545450
O771	O77	0.962210	0.066810	0.706400
O781	O78	0.931740	0.981700	0.727490
O791	O79	0.587480	0.035840	0.747360
O801	O80	0.571590	0.990560	0.706870
O811	O81	0.663200	0.462790	0.477860
O821	O82	0.677920	0.508030	0.517890
O831	O83	0.509750	0.041670	0.679210
O841	O84	0.475220	0.122590	0.700100
O851	O85	0.288570	0.434690	0.520370
O861	O86	0.319240	0.521880	0.499710
O871	O87	0.472530	0.107460	0.176400
O881	O88	0.423380	0.975600	0.305200
O891	O89	0.575410	0.834400	0.237530
O901	O90	0.491660	0.973140	0.240530
O911	O91	0.672810	0.482770	0.421190
O921	O92	0.723920	0.600090	0.551370
O931	O93	0.741590	0.470670	0.485450
C2171	C217	0.532300	0.954800	0.298200
C2181	C218	0.557780	0.957900	0.322830
C2191	C219	0.588100	0.917200	0.325970
H1211	H121	0.593100	0.882300	0.312200
C2201	C220	0.611700	0.921700	0.346730
H1221	H122	0.633800	0.894100	0.346800
C2211	C221	0.602970	0.969100	0.368990
C2221	C222	0.573100	0.009500	0.367280
H1231	H123	0.568400	0.043700	0.381300
C2231	C223	0.547270	0.003600	0.344870
H1241	H124	0.524400	0.028900	0.344800
C2241	C224	0.627700	0.971900	0.394480
C2251	C225	0.639820	0.911300	0.405680
H1251	H125	0.630400	0.866800	0.399000
C2261	C226	0.665650	0.910000	0.426740
C2271	C227	0.678870	0.975500	0.435630
H1261	H126	0.696500	0.976600	0.450100
C2281	C228	0.667190	0.040100	0.424090
C2291	C229	0.639550	0.038600	0.403010
H1271	H127	0.629900	0.081700	0.395300
C2301	C230	0.675710	0.842200	0.439420
C2311	C231	0.682110	0.776600	0.422910
H1281	H128	0.678200	0.779300	0.403700
C2321	C232	0.693160	0.713300	0.433530
H1291	H129	0.696100	0.672600	0.421900
C2331	C233	0.700010	0.707800	0.460270
C2341	C234	0.699900	0.768500	0.475780
H1301	H130	0.705700	0.764300	0.494700
C2351	C235	0.692130	0.833600	0.465830
H1311	H131	0.697600	0.875000	0.476500
C2361	C236	0.710900	0.634900	0.470780
C2371	C237	0.681130	0.110700	0.433960
C2381	C238	0.710410	0.118200	0.449270
H1321	H132	0.721300	0.075800	0.456600
C2391	C239	0.726970	0.184100	0.455770
H1331	H133	0.750100	0.185100	0.464900
C2401	C240	0.709940	0.246200	0.448970
C2411	C241	0.676430	0.241600	0.434700
H1341	H134	0.665800	0.283200	0.426500
C2421	C242	0.658340	0.172500	0.432720
H1351	H135	0.632300	0.168800	0.430700
C2431	C243	0.724940	0.316800	0.457040
C2441	C244	0.783280	0.468000	0.427820
C2451	C245	0.808490	0.488800	0.404480
C2461	C246	0.799170	0.536700	0.384520
H1361	H136	0.776500	0.562400	0.385900
C2471	C247	0.822350	0.548800	0.362190
H1371	H137	0.814500	0.579800	0.347800
C2481	C248	0.856520	0.516100	0.360740
C2491	C249	0.866490	0.469900	0.380680
H1381	H138	0.889600	0.445700	0.379400
C2501	C250	0.843800	0.457000	0.402940
H1391	H139	0.852100	0.426400	0.417300
C2511	C251	0.881230	0.520800	0.337330
C2521	C252	0.889920	0.588200	0.324740
H1401	H140	0.880600	0.631400	0.332600
C2531	C253	0.912170	0.592100	0.300690
C2541	C254	0.924540	0.526300	0.288490
H1411	H141	0.940100	0.528200	0.272800
C2551	C255	0.914200	0.458600	0.299270
C2561	C256	0.895910	0.459500	0.325720
H1421	H142	0.893900	0.415500	0.335600
C2571	C257	0.925200	0.662400	0.289920
C2581	C258	0.924520	0.718300	0.306440
H1431	H143	0.916800	0.713700	0.325000
C2591	C259	0.936210	0.788700	0.295160
H1441	H144	0.936200	0.829900	0.306700
C2601	C260	0.947250	0.795900	0.267860
C2611	C261	0.946950	0.736000	0.251840
H1451	H145	0.956500	0.739100	0.233700
C2621	C262	0.932910	0.668500	0.261210
H1461	H146	0.928900	0.629500	0.249000
C2631	C263	0.957370	0.867100	0.256470
C2641	C264	0.931990	0.391000	0.291120
C2651	C265	0.966980	0.384400	0.278190
H1471	H147	0.982100	0.425900	0.276200
C2661	C266	0.979150	0.320500	0.268690
H1481	H148	0.001600	0.318800	0.258600
C2671	C267	0.960190	0.258600	0.273130
C2681	C268	0.921530	0.262900	0.281650
H1491	H149	0.904300	0.225100	0.278400
C2691	C269	0.911980	0.325700	0.294700
H1501	H150	0.891200	0.325600	0.306600
C2701	C270	0.973500	0.185500	0.266290
C2711	C271	0.757420	0.392500	0.544200
C2721	C272	0.756870	0.345700	0.568170
C2731	C273	0.779190	0.284200	0.568510
H1511	H151	0.793000	0.270200	0.552800
C2741	C274	0.780400	0.243500	0.593250
H1521	H152	0.797700	0.205300	0.594900
C2751	C275	0.756740	0.258300	0.615230
C2761	C276	0.732590	0.314400	0.613100
H1531	H153	0.715300	0.323900	0.627300
C2771	C277	0.733700	0.357700	0.589620
H1541	H154	0.717400	0.397700	0.588600
C2781	C278	0.757000	0.210000	0.639910
C2791	C279	0.792980	0.185100	0.649880
H1551	H155	0.815300	0.198600	0.640900
C2801	C280	0.793400	0.141500	0.672800
C2811	C281	0.759520	0.120000	0.685090
H1561	H156	0.759900	0.091000	0.701200
C2821	C282	0.726970	0.140100	0.674210
C2831	C283	0.725260	0.184500	0.650950
H1571	H157	0.702100	0.196500	0.643000
C2841	C284	0.829290	0.114700	0.683310
C2851	C285	0.861450	0.155800	0.679990
H1581	H158	0.860400	0.202500	0.672100
C2861	C286	0.894730	0.126900	0.688440
H1591	H159	0.916800	0.151700	0.683600
C2871	C287	0.897830	0.065500	0.703170
C2881	C288	0.865930	0.022200	0.704120
H1601	H160	0.867600	0.973400	0.709800
C2891	C289	0.832430	0.051000	0.696840
H1611	H161	0.810500	0.025400	0.701400
C2901	C290	0.934490	0.037300	0.712730
C2911	C291	0.690690	0.113000	0.687680
C2921	C292	0.687280	0.107400	0.714920
H1621	H162	0.707000	0.123300	0.726300
C2931	C293	0.656140	0.079200	0.726850
H1631	H163	0.654400	0.077100	0.746300
C2941	C294	0.626930	0.053700	0.710870
C2951	C295	0.631810	0.058500	0.682290
H1641	H164	0.613400	0.039100	0.670600
C2961	C296	0.662130	0.090100	0.670890
H1651	H165	0.663700	0.096300	0.651600
C2971	C297	0.593390	0.021400	0.722960
C2981	C298	0.657830	0.472900	0.503210
C2991	C299	0.623710	0.441500	0.515320
C3001	C300	0.620150	0.435100	0.542680
H1661	H166	0.639500	0.450700	0.554400
C3011	C301	0.588460	0.406000	0.553690
H1671	H167	0.587300	0.400300	0.573000
C3021	C302	0.558530	0.384700	0.538540
C3031	C303	0.563440	0.387900	0.509650
H1681	H168	0.544900	0.369500	0.497700
C3041	C304	0.595370	0.417800	0.499110
H1691	H169	0.597700	0.422200	0.479800
C3051	C305	0.525320	0.352400	0.548820
C3061	C306	0.525140	0.306100	0.571060
H1701	H170	0.548200	0.287900	0.577400
C3071	C307	0.492970	0.284500	0.584690
C3081	C308	0.459760	0.306800	0.573280
H1711	H171	0.437400	0.289000	0.580900
C3091	C309	0.457630	0.353700	0.551260
C3101	C310	0.490410	0.378100	0.539570
H1721	H172	0.489500	0.412400	0.525100
C3111	C311	0.493400	0.237600	0.609660
C3121	C312	0.516850	0.177000	0.611180
H1731	H173	0.533500	0.168000	0.596500
C3131	C313	0.516510	0.130500	0.633170
H1741	H174	0.531700	0.088800	0.633200
C3141	C314	0.493620	0.145400	0.655290
C3151	C315	0.469930	0.202400	0.652610
H1751	H175	0.452100	0.210000	0.666700
C3161	C316	0.470300	0.248300	0.631360
H1761	H176	0.454300	0.288900	0.631400
C3171	C317	0.492540	0.099800	0.679830
C3181	C318	0.421980	0.379200	0.540690
C3191	C319	0.388560	0.343500	0.544710
H1771	H177	0.388800	0.300400	0.555200
C3201	C320	0.354820	0.367100	0.534310
H1781	H178	0.333500	0.337500	0.535400
C3211	C321	0.352980	0.434900	0.522390
C3221	C322	0.386710	0.469800	0.515350
H1791	H179	0.387000	0.508300	0.502500
C3231	C323	0.419840	0.445700	0.527940
H1801	H180	0.441100	0.475800	0.527600
C3241	C324	0.318120	0.465600	0.513190
Co131	Co13	0.484000	0.044780	0.209560
Co141	Co14	0.462630	0.975600	0.270410
Co151	Co15	0.533200	0.913280	0.241330
Co161	Co16	0.712790	0.474200	0.455040
Co171	Co17	0.778350	0.412600	0.484800
Co181	Co18	0.733600	0.541800	0.517490
Fe191	Fe19	0.517940	0.965670	0.709410
Fe201	Fe20	0.542490	0.025600	0.770700
Fe211	Fe21	0.470260	0.096760	0.737950
Fe221	Fe22	0.291770	0.520800	0.955010
Fe231	Fe23	0.216100	0.596000	0.985610
Fe241	Fe24	0.266210	0.469460	0.016470
O941	O94	0.498930	0.016290	0.798710
O951	O95	0.454240	0.081120	0.778530
O961	O96	0.296730	0.415710	0.955380
O971	O97	0.276720	0.373560	0.994520
O981	O98	0.248230	0.679410	0.972040
O991	O99	0.291390	0.630770	0.948000
O1001	O100	0.248750	0.506940	0.926430
O1011	O101	0.202890	0.568790	0.946300
O1021	O102	0.046310	0.082300	0.772630
O1031	O103	0.029770	0.130050	0.733530
O1041	O104	0.998620	0.816160	0.749790
O1051	O105	0.041430	0.866980	0.776530
O1061	O106	0.225350	0.629280	0.023780
O1071	O107	0.257770	0.547430	0.045450
O1081	O108	0.037790	0.933190	0.206400
O1091	O109	0.068260	0.018300	0.227490
O1101	O110	0.412520	0.964160	0.247360
O1111	O111	0.428410	0.009440	0.206870
O1121	O112	0.336800	0.537210	0.977860
O1131	O113	0.322080	0.491970	0.017890
O1141	O114	0.490250	0.958330	0.179210
O1151	O115	0.524780	0.877410	0.200100
O1161	O116	0.711430	0.565310	0.020370
O1171	O117	0.680760	0.478120	0.999710
O1181	O118	0.527470	0.892540	0.676400
O1191	O119	0.576620	0.024400	0.805200
O1201	O120	0.424590	0.165600	0.737530
O1211	O121	0.508340	0.026860	0.740530
O1221	O122	0.327190	0.517230	0.921190
O1231	O123	0.276080	0.399910	0.051370
O1241	O124	0.258410	0.529330	0.985450
C3251	C325	0.467700	0.045200	0.798200
C3261	C326	0.442220	0.042100	0.822830
C3271	C327	0.411900	0.082800	0.825970
H1811	H181	0.406900	0.117700	0.812200
C3281	C328	0.388300	0.078300	0.846730
H1821	H182	0.366200	0.105900	0.846800
C3291	C329	0.397030	0.030900	0.868990
C3301	C330	0.426900	0.990500	0.867280
H1831	H183	0.431600	0.956300	0.881300
C3311	C331	0.452730	0.996400	0.844870
H1841	H184	0.475600	0.971100	0.844800
C3321	C332	0.372300	0.028100	0.894480
C3331	C333	0.360180	0.088700	0.905680
H1851	H185	0.369600	0.133200	0.899000
C3341	C334	0.334350	0.090000	0.926740
C3351	C335	0.321130	0.024500	0.935630
H1861	H186	0.303500	0.023400	0.950100
C3361	C336	0.332810	0.959900	0.924090
C3371	C337	0.360450	0.961400	0.903010
H1871	H187	0.370100	0.918300	0.895300
C3381	C338	0.324290	0.157800	0.939420
C3391	C339	0.317890	0.223400	0.922910
H1881	H188	0.321800	0.220700	0.903700
C3401	C340	0.306840	0.286700	0.933530
H1891	H189	0.303900	0.327400	0.921900
C3411	C341	0.299990	0.292200	0.960270
C3421	C342	0.300100	0.231500	0.975780
H1901	H190	0.294300	0.235700	0.994700
C3431	C343	0.307870	0.166400	0.965830
H1911	H191	0.302400	0.125000	0.976500
C3441	C344	0.289100	0.365100	0.970780
C3451	C345	0.318870	0.889300	0.933960
C3461	C346	0.289590	0.881800	0.949270
H1921	H192	0.278700	0.924200	0.956600
C3471	C347	0.273030	0.815900	0.955770
H1931	H193	0.249900	0.814900	0.964900
C3481	C348	0.290060	0.753800	0.948970
C3491	C349	0.323570	0.758400	0.934700
H1941	H194	0.334200	0.716800	0.926500
C3501	C350	0.341660	0.827500	0.932720
H1951	H195	0.367700	0.831200	0.930700
C3511	C351	0.275060	0.683200	0.957040
C3521	C352	0.216720	0.532000	0.927820
C3531	C353	0.191510	0.511200	0.904480
C3541	C354	0.200830	0.463300	0.884520
H1961	H196	0.223500	0.437600	0.885900
C3551	C355	0.177650	0.451200	0.862190
H1971	H197	0.185500	0.420200	0.847800
C3561	C356	0.143480	0.483900	0.860740
C3571	C357	0.133510	0.530100	0.880680
H1981	H198	0.110400	0.554300	0.879400
C3581	C358	0.156200	0.543000	0.902940
H1991	H199	0.147900	0.573600	0.917300
C3591	C359	0.118770	0.479200	0.837330
C3601	C360	0.110080	0.411800	0.824740
H2001	H200	0.119400	0.368600	0.832600
C3611	C361	0.087830	0.407900	0.800690
C3621	C362	0.075460	0.473700	0.788490
H2011	H201	0.059900	0.471800	0.772800
C3631	C363	0.085800	0.541400	0.799270
C3641	C364	0.104090	0.540500	0.825720
H2021	H202	0.106100	0.584500	0.835600
C3651	C365	0.074800	0.337600	0.789920
C3661	C366	0.075480	0.281700	0.806440
H2031	H203	0.083200	0.286300	0.825000
C3671	C367	0.063790	0.211300	0.795160
H2041	H204	0.063800	0.170100	0.806700
C3681	C368	0.052750	0.204100	0.767860
C3691	C369	0.053050	0.264000	0.751840
H2051	H205	0.043500	0.260900	0.733700
C3701	C370	0.067090	0.331500	0.761210
H2061	H206	0.071100	0.370500	0.749000
C3711	C371	0.042630	0.132900	0.756470
C3721	C372	0.068010	0.609000	0.791120
C3731	C373	0.033020	0.615600	0.778190
H2071	H207	0.017900	0.574100	0.776200
C3741	C374	0.020850	0.679500	0.768690
H2081	H208	0.998400	0.681200	0.758600
C3751	C375	0.039810	0.741400	0.773130
C3761	C376	0.078470	0.737100	0.781650
H2091	H209	0.095700	0.774900	0.778400
C3771	C377	0.088020	0.674300	0.794700
H2101	H210	0.108800	0.674400	0.806600
C3781	C378	0.026500	0.814500	0.766290
C3791	C379	0.242580	0.607500	0.044200
C3801	C380	0.243130	0.654300	0.068170
C3811	C381	0.220810	0.715800	0.068510
H2111	H211	0.207000	0.729800	0.052800
C3821	C382	0.219600	0.756500	0.093250
H2121	H212	0.202300	0.794700	0.094900
C3831	C383	0.243260	0.741700	0.115230
C3841	C384	0.267410	0.685600	0.113100
H2131	H213	0.284700	0.676100	0.127300
C3851	C385	0.266300	0.642300	0.089620
H2141	H214	0.282600	0.602300	0.088600
C3861	C386	0.243000	0.790000	0.139910
C3871	C387	0.207020	0.814900	0.149880
H2151	H215	0.184700	0.801400	0.140900
C3881	C388	0.206600	0.858500	0.172800
C3891	C389	0.240480	0.880000	0.185090
H2161	H216	0.240100	0.909000	0.201200
C3901	C390	0.273030	0.859900	0.174210
C3911	C391	0.274740	0.815500	0.150950
H2171	H217	0.297900	0.803500	0.143000
C3921	C392	0.170710	0.885300	0.183310
C3931	C393	0.138550	0.844200	0.179990
H2181	H218	0.139600	0.797500	0.172100
C3941	C394	0.105270	0.873100	0.188440
H2191	H219	0.083200	0.848300	0.183600
C3951	C395	0.102170	0.934500	0.203170
C3961	C396	0.134070	0.977800	0.204120
H2201	H220	0.132400	0.026600	0.209800
C3971	C397	0.167570	0.949000	0.196840
H2211	H221	0.189500	0.974600	0.201400
C3981	C398	0.065510	0.962700	0.212730
C3991	C399	0.309310	0.887000	0.187680
C4001	C400	0.312720	0.892600	0.214920
H2221	H222	0.293000	0.876700	0.226300
C4011	C401	0.343860	0.920800	0.226850
H2231	H223	0.345600	0.922900	0.246300
C4021	C402	0.373070	0.946300	0.210870
C4031	C403	0.368190	0.941500	0.182290
H2241	H224	0.386600	0.960900	0.170600
C4041	C404	0.337870	0.909900	0.170890
H2251	H225	0.336300	0.903700	0.151600
C4051	C405	0.406610	0.978600	0.222960
C4061	C406	0.342170	0.527100	0.003210
C4071	C407	0.376290	0.558500	0.015320
C4081	C408	0.379850	0.564900	0.042680
H2261	H226	0.360500	0.549300	0.054400
C4091	C409	0.411540	0.594000	0.053690
H2271	H227	0.412700	0.599700	0.073000
C4101	C410	0.441470	0.615300	0.038540
C4111	C411	0.436560	0.612100	0.009650
H2281	H228	0.455100	0.630500	0.997700
C4121	C412	0.404630	0.582200	0.999110
H2291	H229	0.402300	0.577800	0.979800
C4131	C413	0.474680	0.647600	0.048820
C4141	C414	0.474860	0.693900	0.071060
H2301	H230	0.451800	0.712100	0.077400
C4151	C415	0.507030	0.715500	0.084690
C4161	C416	0.540240	0.693200	0.073280
H2311	H231	0.562600	0.711000	0.080900
C4171	C417	0.542370	0.646300	0.051260
C4181	C418	0.509590	0.621900	0.039570
H2321	H232	0.510500	0.587600	0.025100
C4191	C419	0.506600	0.762400	0.109660
C4201	C420	0.483150	0.823000	0.111180
H2331	H233	0.466500	0.832000	0.096500
C4211	C421	0.483490	0.869500	0.133170
H2341	H234	0.468300	0.911200	0.133200
C4221	C422	0.506380	0.854600	0.155290
C4231	C423	0.530070	0.797600	0.152610
H2351	H235	0.547900	0.790000	0.166700
C4241	C424	0.529700	0.751700	0.131360
H2361	H236	0.545700	0.711100	0.131400
C4251	C425	0.507460	0.900200	0.179830
C4261	C426	0.578020	0.620800	0.040690
C4271	C427	0.611440	0.656500	0.044710
H2371	H237	0.611200	0.699600	0.055200
C4281	C428	0.645180	0.632900	0.034310
H2381	H238	0.666500	0.662500	0.035400
C4291	C429	0.647020	0.565100	0.022390
C4301	C430	0.613290	0.530200	0.015350
H2391	H239	0.613000	0.491700	0.002500
C4311	C431	0.580160	0.554300	0.027940
H2401	H240	0.558900	0.524200	0.027600
C4321	C432	0.681880	0.534400	0.013190
Co191	Co19	0.516000	0.955220	0.709560
Co201	Co20	0.537370	0.024400	0.770410
Co211	Co21	0.466800	0.086720	0.741330
Co221	Co22	0.287210	0.525800	0.955040
Co231	Co23	0.221650	0.587400	0.984800
Co241	Co24	0.266400	0.458200	0.017490
