data_TOVKOG_clean_PM
_symmetry_space_group_name_H-M	'P1'
_cell_length_a	24.952700
_cell_length_b	24.952700
_cell_length_c	24.952700
_cell_angle_alpha	87.986600
_cell_angle_beta	87.986600
_cell_angle_gamma	87.986600
_symmetry_Int_Tables_number 1

loop_
_symmetry_equiv_pos_as_xyz
'x,y,z'

loop_
_atom_site_label
_atom_site_type_symbol
_atom_site_fract_x
_atom_site_fract_y
_atom_site_fract_z
Fe11	Fe1	0.870020	0.869930	0.352660
Fe21	Fe2	0.322650	0.746270	0.841260
Fe31	Fe3	0.352660	0.870020	0.869930
Fe41	Fe4	0.746570	0.322890	0.841260
Fe51	Fe5	0.841260	0.746570	0.322890
Fe61	Fe6	0.841260	0.322650	0.746270
Fe71	Fe7	0.322890	0.841260	0.746570
Fe81	Fe8	0.746270	0.841260	0.322650
Fe91	Fe9	0.869930	0.352660	0.870020
H11	H1	0.222700	0.966100	0.728400
H21	H2	0.937700	0.540800	0.642400
H31	H3	0.800200	0.179000	0.685300
H41	H4	0.459600	0.676300	0.903700
H51	H5	0.029100	0.136200	0.734800
H61	H6	0.936000	0.501100	0.827200
H71	H7	0.995300	0.886000	0.227900
H81	H8	0.561900	0.560300	0.678000
H91	H9	0.879700	0.003800	0.248800
H101	H10	0.742300	0.034500	0.625500
H111	H11	0.826000	0.498300	0.946000
H121	H12	0.516400	0.722200	0.610500
H131	H13	0.625500	0.742300	0.034500
H141	H14	0.884100	0.065600	0.176000
H151	H15	0.691900	0.478000	0.584700
H161	H16	0.501100	0.827200	0.936000
H171	H17	0.792600	0.583100	0.970500
H181	H18	0.676300	0.903700	0.459600
H191	H19	0.065600	0.176000	0.884100
H201	H20	0.003800	0.248800	0.879700
H211	H21	0.793400	0.968900	0.582700
H221	H22	0.560300	0.678000	0.561900
H231	H23	0.967100	0.208900	0.730100
H241	H24	0.746000	0.629100	0.029600
H251	H25	0.886000	0.227900	0.995300
H261	H26	0.208900	0.730100	0.967100
H271	H27	0.459300	0.905500	0.676600
H281	H28	0.768800	0.658500	0.448500
H291	H29	0.176000	0.884100	0.065600
H301	H30	0.739900	0.410100	0.631300
H311	H31	0.627100	0.627800	0.923000
H321	H32	0.448500	0.768800	0.658500
H331	H33	0.068800	0.874200	0.168900
H341	H34	0.584700	0.691900	0.478000
H351	H35	0.540600	0.940100	0.642900
H361	H36	0.610500	0.516400	0.722200
H371	H37	0.034500	0.625500	0.742300
H381	H38	0.582700	0.793400	0.968900
H391	H39	0.676600	0.459300	0.905500
H401	H40	0.678000	0.561900	0.560300
H411	H41	0.410100	0.631300	0.739900
H421	H42	0.498300	0.946000	0.826000
H431	H43	0.478000	0.584700	0.691900
H441	H44	0.827200	0.936000	0.501100
H451	H45	0.631300	0.739900	0.410100
H461	H46	0.642900	0.540600	0.940100
H471	H47	0.659600	0.775800	0.094100
H481	H48	0.968900	0.582700	0.793400
H491	H49	0.039200	0.716700	0.163100
H501	H50	0.940100	0.642900	0.540600
H511	H51	0.163100	0.039200	0.716700
H521	H52	0.966100	0.728400	0.222700
H531	H53	0.179000	0.685300	0.800200
H541	H54	0.656400	0.094200	0.773800
H551	H55	0.540800	0.642400	0.937700
H561	H56	0.775800	0.094100	0.659600
H571	H57	0.178700	0.800200	0.681700
H581	H58	0.227900	0.995300	0.886000
H591	H59	0.728400	0.222700	0.966100
H601	H60	0.136200	0.734800	0.029100
H611	H61	0.722200	0.610500	0.516400
H621	H62	0.642400	0.937700	0.540800
H631	H63	0.583100	0.970500	0.792600
H641	H64	0.734800	0.029100	0.136200
H651	H65	0.905500	0.676600	0.459300
H661	H66	0.903700	0.459600	0.676300
H671	H67	0.716700	0.163100	0.039200
H681	H68	0.029600	0.746000	0.629100
H691	H69	0.629100	0.029600	0.746000
H701	H70	0.658500	0.448500	0.768800
H711	H71	0.874200	0.168900	0.068800
H721	H72	0.970500	0.792600	0.583100
H731	H73	0.946000	0.826000	0.498300
H741	H74	0.685300	0.800200	0.179000
H751	H75	0.681700	0.178700	0.800200
H761	H76	0.730100	0.967100	0.208900
H771	H77	0.800200	0.681700	0.178700
H781	H78	0.168900	0.068800	0.874200
H791	H79	0.627800	0.923000	0.627100
H801	H80	0.923000	0.627100	0.627800
H811	H81	0.773800	0.656400	0.094200
H821	H82	0.094100	0.659600	0.775800
H831	H83	0.094200	0.773800	0.656400
H841	H84	0.248800	0.879700	0.003800
C11	C1	0.375710	0.733100	0.730690
C21	C2	0.703670	0.422950	0.704480
C31	C3	0.794570	0.159860	0.060300
C41	C4	0.917020	0.484610	0.700040
C51	C5	0.622020	0.685070	0.472020
C61	C6	0.665230	0.454510	0.731400
C71	C7	0.225950	0.850140	0.008960
C81	C8	0.844580	0.179580	0.047630
C91	C9	0.916430	0.472910	0.754960
C101	C10	0.688140	0.756640	0.111240
C111	C11	0.769580	0.955720	0.557750
C121	C12	0.621110	0.972930	0.690120
C131	C13	0.030180	0.751280	0.176210
C141	C14	0.578590	0.577640	0.647570
C151	C15	0.700210	0.484040	0.919370
C161	C16	0.688570	0.039690	0.688680
C171	C17	0.952720	0.642800	0.643340
C181	C18	0.937110	0.532840	0.679930
C191	C19	0.804490	0.980040	0.235300
C201	C20	0.975890	0.618500	0.688270
C211	C21	0.932900	0.806800	0.272300
C221	C22	0.060300	0.794570	0.159860
C231	C23	0.086650	0.713430	0.713040
C241	C24	0.202240	0.761440	0.987240
C251	C25	0.231110	0.974190	0.808230
C261	C26	0.747600	0.183400	0.749700
C271	C27	0.646610	0.503600	0.648970
C281	C28	0.211680	0.987030	0.758180
C291	C29	0.803100	0.935700	0.273200
C301	C30	0.749700	0.747600	0.183400
C311	C31	0.150540	0.809780	0.052250
C321	C32	0.711160	0.019040	0.641710
C331	C33	0.636700	0.494820	0.703690
C341	C34	0.237300	0.768500	0.753200
C351	C35	0.642800	0.643340	0.952720
C361	C36	0.052250	0.150540	0.809780
C371	C37	0.509300	0.789660	0.936060
C381	C38	0.730690	0.375710	0.733100
C391	C39	0.789050	0.507730	0.942110
C401	C40	0.753200	0.237300	0.768500
C411	C41	0.955890	0.769410	0.558350
C421	C42	0.809780	0.052250	0.150540
C431	C43	0.533600	0.936490	0.680510
C441	C44	0.972930	0.690120	0.621110
C451	C45	0.713570	0.431720	0.649780
C461	C46	0.703690	0.636700	0.494820
C471	C47	0.680510	0.533600	0.936490
C481	C48	0.182910	0.852830	0.045500
C491	C49	0.472020	0.622020	0.685070
C501	C50	0.454510	0.731400	0.665230
C511	C51	0.704720	0.772420	0.160720
C521	C52	0.111240	0.688140	0.756640
C531	C53	0.555870	0.624850	0.625780
C541	C54	0.649780	0.713570	0.431720
C551	C55	0.641710	0.711160	0.019040
C561	C56	0.273200	0.803100	0.935700
C571	C57	0.942110	0.789050	0.507730
C581	C58	0.503600	0.648970	0.646610
C591	C59	0.008960	0.225950	0.850140
C601	C60	0.974190	0.808230	0.231110
C611	C61	0.704480	0.703670	0.422950
C621	C62	0.507730	0.942110	0.789050
C631	C63	0.685070	0.472020	0.622020
C641	C64	0.472910	0.754960	0.916430
C651	C65	0.643970	0.016150	0.713290
C661	C66	0.647570	0.578590	0.577640
C671	C67	0.756640	0.111240	0.688140
C681	C68	0.898820	0.770320	0.420020
C691	C69	0.179580	0.047630	0.844580
C701	C70	0.688270	0.975890	0.618500
C711	C71	0.713040	0.086650	0.713430
C721	C72	0.851460	0.214860	0.004360
C731	C73	0.919370	0.700210	0.484040
C741	C74	0.045500	0.182910	0.852830
C751	C75	0.690120	0.621110	0.972930
C761	C76	0.159860	0.060300	0.794570
C771	C77	0.713290	0.643970	0.016150
C781	C78	0.987240	0.202240	0.761440
C791	C79	0.569450	0.714690	0.956280
C801	C80	0.769930	0.896230	0.420330
C811	C81	0.624850	0.625780	0.555870
C821	C82	0.935700	0.273200	0.803100
C831	C83	0.731400	0.665230	0.454510
C841	C84	0.272300	0.932900	0.806800
C851	C85	0.688680	0.688570	0.039690
C861	C86	0.948320	0.715880	0.573010
C871	C87	0.484610	0.700040	0.917020
C881	C88	0.754690	0.470810	0.922730
C891	C89	0.625780	0.555870	0.624850
C901	C90	0.679930	0.937110	0.532840
C911	C91	0.751280	0.176210	0.030180
C921	C92	0.761440	0.987240	0.202240
C931	C93	0.004360	0.851460	0.214860
C941	C94	0.557750	0.769580	0.955720
C951	C95	0.758180	0.211680	0.987030
C961	C96	0.733100	0.730690	0.375710
C971	C97	0.494820	0.703690	0.636700
C981	C98	0.214860	0.004360	0.851460
C991	C99	0.956280	0.569450	0.714690
C1001	C100	0.047630	0.844580	0.179580
C1011	C101	0.484040	0.919370	0.700210
C1021	C102	0.754960	0.916430	0.472910
C1031	C103	0.685910	0.111210	0.756110
C1041	C104	0.176210	0.030180	0.751280
C1051	C105	0.573010	0.948320	0.715880
C1061	C106	0.532840	0.679930	0.937110
C1071	C107	0.111210	0.756110	0.685910
C1081	C108	0.159290	0.764190	0.023810
C1091	C109	0.160570	0.772890	0.701910
C1101	C110	0.019040	0.641710	0.711160
C1111	C111	0.789660	0.936060	0.509300
C1121	C112	0.850140	0.008960	0.225950
C1131	C113	0.235300	0.804490	0.980040
C1141	C114	0.770320	0.420020	0.898820
C1151	C115	0.577640	0.647570	0.578590
C1161	C116	0.756110	0.685910	0.111210
C1171	C117	0.764190	0.023810	0.159290
C1181	C118	0.980040	0.235300	0.804490
C1191	C119	0.160720	0.704720	0.772420
C1201	C120	0.769410	0.558350	0.955890
C1211	C121	0.715880	0.573010	0.948320
C1221	C122	0.643340	0.952720	0.642800
C1231	C123	0.806800	0.272300	0.932900
C1241	C124	0.896230	0.420330	0.769930
C1251	C125	0.936060	0.509300	0.789660
C1261	C126	0.470810	0.922730	0.754690
C1271	C127	0.701910	0.160570	0.772890
C1281	C128	0.558350	0.955890	0.769410
C1291	C129	0.713430	0.713040	0.086650
C1301	C130	0.420330	0.769930	0.896230
C1311	C131	0.922730	0.754690	0.470810
C1321	C132	0.422950	0.704480	0.703670
C1331	C133	0.714690	0.956280	0.569450
C1341	C134	0.936490	0.680510	0.533600
C1351	C135	0.772890	0.701910	0.160570
C1361	C136	0.772420	0.160720	0.704720
C1371	C137	0.987030	0.758180	0.211680
C1381	C138	0.420020	0.898820	0.770320
C1391	C139	0.852830	0.045500	0.182910
C1401	C140	0.808230	0.231110	0.974190
C1411	C141	0.016150	0.713290	0.643970
C1421	C142	0.039690	0.688680	0.688570
C1431	C143	0.700040	0.917020	0.484610
C1441	C144	0.768500	0.753200	0.237300
C1451	C145	0.618500	0.688270	0.975890
C1461	C146	0.023810	0.159290	0.764190
C1471	C147	0.648970	0.646610	0.503600
C1481	C148	0.183400	0.749700	0.747600
C1491	C149	0.955720	0.557750	0.769580
C1501	C150	0.431720	0.649780	0.713570
N11	N1	0.812580	0.088750	0.107610
N21	N2	0.124330	0.102800	0.779320
N31	N3	0.779320	0.124330	0.102800
N41	N4	0.102800	0.779320	0.124330
N51	N5	0.088750	0.107610	0.812580
N61	N6	0.107610	0.812580	0.088750
O11	O1	0.847520	0.923920	0.294920
O21	O2	0.251390	0.742990	0.793990
O31	O3	0.793990	0.251390	0.742990
O41	O4	0.845990	0.293890	0.923690
O51	O5	0.763580	0.910480	0.280280
O61	O6	0.910480	0.280280	0.763580
O71	O7	0.774590	0.360220	0.714110
O81	O8	0.413460	0.904290	0.823280
O91	O9	0.387330	0.741020	0.881640
O101	O10	0.282230	0.911030	0.760930
O111	O11	0.739320	0.388530	0.881540
O121	O12	0.741020	0.881640	0.387330
O131	O13	0.293890	0.923690	0.845990
O141	O14	0.714110	0.774590	0.360220
O151	O15	0.901640	0.413480	0.823960
O161	O16	0.820750	0.335420	0.820760
O171	O17	0.252360	0.802970	0.738200
O181	O18	0.714510	0.359400	0.775760
O191	O19	0.923690	0.845990	0.293890
O201	O20	0.742990	0.793990	0.251390
O211	O21	0.388530	0.881540	0.739320
O221	O22	0.911030	0.760930	0.282230
O231	O23	0.335420	0.820760	0.820750
O241	O24	0.823280	0.413460	0.904290
O251	O25	0.923920	0.294920	0.847520
O261	O26	0.820760	0.820750	0.335420
O271	O27	0.802970	0.738200	0.252360
O281	O28	0.359400	0.775760	0.714510
O291	O29	0.881540	0.739320	0.388530
O301	O30	0.738200	0.252360	0.802970
O311	O31	0.360220	0.714110	0.774590
O321	O32	0.904290	0.823280	0.413460
O331	O33	0.760930	0.282230	0.911030
O341	O34	0.881640	0.387330	0.741020
O351	O35	0.775760	0.714510	0.359400
O361	O36	0.294920	0.847520	0.923920
O371	O37	0.413480	0.823960	0.901640
O381	O38	0.823960	0.901640	0.413480
O391	O39	0.280280	0.763580	0.910480
