data_TOVKEW_clean_PM
_symmetry_space_group_name_H-M	'P1'
_cell_length_a	14.920800
_cell_length_b	38.398000
_cell_length_c	41.280000
_cell_angle_alpha	90.000000
_cell_angle_beta	90.000000
_cell_angle_gamma	90.000000
_symmetry_Int_Tables_number 1

loop_
_symmetry_equiv_pos_as_xyz
'x,y,z'

loop_
_atom_site_label
_atom_site_type_symbol
_atom_site_fract_x
_atom_site_fract_y
_atom_site_fract_z
Fe11	Fe1	0.247270	0.250000	0.656920
Fe21	Fe2	0.927800	0.750000	0.391920
Fe31	Fe3	0.040040	0.750000	0.812630
Fe41	Fe4	0.959960	0.750000	0.312630
Fe51	Fe5	0.072200	0.250000	0.608080
Fe61	Fe6	0.752730	0.250000	0.156920
Fe71	Fe7	0.040040	0.250000	0.687370
Fe81	Fe8	0.752730	0.750000	0.343080
Fe91	Fe9	0.072200	0.750000	0.891920
Fe101	Fe10	0.959960	0.250000	0.187370
Fe111	Fe11	0.247270	0.750000	0.843080
Fe121	Fe12	0.927800	0.250000	0.108080
H11	H1	0.172600	0.830500	0.951800
H21	H2	0.436100	0.043400	0.826600
H31	H3	0.607100	0.821600	0.401500
H41	H4	0.778700	0.450700	0.091000
H51	H5	0.141100	0.433000	0.960900
H61	H6	0.424500	0.993200	0.860700
H71	H7	0.570400	0.030800	0.648500
H81	H8	0.011800	0.961000	0.518000
H91	H9	0.858900	0.567000	0.039100
H101	H10	0.397900	0.493600	0.976100
H111	H11	0.368200	0.545800	0.905000
H121	H12	0.401000	0.413900	0.982000
H131	H13	0.758900	0.869400	0.485500
H141	H14	0.605900	0.080800	0.286000
H151	H15	0.103000	0.079500	0.570600
H161	H16	0.827400	0.830500	0.451800
H171	H17	0.554400	0.566100	0.939800
H181	H18	0.273700	0.128100	0.173000
H191	H19	0.701000	0.079000	0.000700
H201	H20	0.395900	0.922300	0.579900
H211	H21	0.469900	0.376200	0.017700
H221	H22	0.103000	0.831900	0.411600
H231	H23	0.469900	0.876200	0.482300
H241	H24	0.401000	0.586100	0.518000
H251	H25	0.420100	0.019400	0.421300
H261	H26	0.101100	0.673000	0.741500
H271	H27	0.599000	0.086100	0.482000
H281	H28	0.660000	0.038200	0.464800
H291	H29	0.273700	0.871900	0.327000
H301	H30	0.895700	0.645300	0.976800
H311	H31	0.420100	0.519400	0.078700
H321	H32	0.506000	0.981900	0.633000
H331	H33	0.488100	0.930200	0.596600
H341	H34	0.723600	0.589500	0.115400
H351	H35	0.344500	0.108400	0.072300
H361	H36	0.364500	0.542800	0.035800
H371	H37	0.429600	0.969200	0.351500
H381	H38	0.394100	0.580800	0.714000
H391	H39	0.464500	0.859800	0.935900
H401	H40	0.635500	0.042800	0.964200
H411	H41	0.394100	0.419200	0.786000
H421	H42	0.831500	0.669900	0.818000
H431	H43	0.145400	0.635500	0.702300
H441	H44	0.276400	0.089500	0.884600
H451	H45	0.607100	0.678400	0.401500
H461	H46	0.464500	0.140200	0.564100
H471	H47	0.831500	0.830100	0.818000
H481	H48	0.793500	0.374500	0.580000
H491	H49	0.735400	0.962100	0.089500
H501	H50	0.546600	0.005100	0.550800
H511	H51	0.264600	0.962100	0.589500
H521	H52	0.324100	0.071500	0.160500
H531	H53	0.368200	0.454200	0.595000
H541	H54	0.831500	0.169900	0.682000
H551	H55	0.602100	0.993600	0.023900
H561	H56	0.488100	0.430200	0.903400
H571	H57	0.342100	0.670300	0.780100
H581	H58	0.397900	0.993600	0.523900
H591	H59	0.299000	0.579000	0.999300
H601	H60	0.793500	0.625500	0.920000
H611	H61	0.612900	0.367700	0.259500
H621	H62	0.535500	0.859800	0.435900
H631	H63	0.141100	0.567000	0.539100
H641	H64	0.241100	0.869400	0.985500
H651	H65	0.424500	0.493200	0.639300
H661	H66	0.395900	0.577700	0.579900
H671	H67	0.340000	0.538200	0.535200
H681	H68	0.394100	0.919200	0.714000
H691	H69	0.392900	0.178400	0.598500
H701	H70	0.506000	0.018100	0.867000
H711	H71	0.488100	0.069800	0.903400
H721	H72	0.831500	0.330100	0.682000
H731	H73	0.324100	0.428500	0.160500
H741	H74	0.387100	0.867700	0.740500
H751	H75	0.612900	0.632300	0.240500
H761	H76	0.424500	0.006800	0.639300
H771	H77	0.145400	0.364500	0.797700
H781	H78	0.101100	0.827000	0.741500
H791	H79	0.793500	0.125500	0.580000
H801	H80	0.898900	0.673000	0.241500
H811	H81	0.464500	0.359800	0.564100
H821	H82	0.103000	0.920500	0.929400
H831	H83	0.725000	0.505700	0.112600
H841	H84	0.701000	0.579000	0.499300
H851	H85	0.579900	0.980600	0.578700
H861	H86	0.324100	0.928500	0.339500
H871	H87	0.631800	0.545800	0.405000
H881	H88	0.103000	0.331900	0.088400
H891	H89	0.872500	0.528100	0.511600
H901	H90	0.535500	0.640200	0.435900
H911	H91	0.660000	0.538200	0.035200
H921	H92	0.392900	0.321600	0.598500
H931	H93	0.394100	0.080800	0.786000
H941	H94	0.635500	0.457200	0.964200
H951	H95	0.344500	0.391600	0.072300
H961	H96	0.420100	0.980600	0.078700
H971	H97	0.897000	0.920500	0.429400
H981	H98	0.570400	0.969200	0.851500
H991	H99	0.436100	0.543400	0.673400
H1001	H100	0.230000	0.874000	0.656700
H1011	H101	0.660000	0.461800	0.464800
H1021	H102	0.599000	0.413900	0.482000
H1031	H103	0.415100	0.954100	0.939000
H1041	H104	0.420100	0.480600	0.421300
H1051	H105	0.599000	0.913900	0.018000
H1061	H106	0.469900	0.123800	0.017700
H1071	H107	0.898900	0.327000	0.258500
H1081	H108	0.701000	0.421000	0.000700
H1091	H109	0.735400	0.537900	0.089500
H1101	H110	0.127500	0.471900	0.488400
H1111	H111	0.726300	0.371900	0.673000
H1121	H112	0.755700	0.995400	0.011500
H1131	H113	0.778700	0.549300	0.409000
H1141	H114	0.103000	0.420500	0.570600
H1151	H115	0.605900	0.419200	0.286000
H1161	H116	0.607100	0.178400	0.098500
H1171	H117	0.221300	0.549300	0.909000
H1181	H118	0.453400	0.505100	0.449200
H1191	H119	0.511900	0.069800	0.403400
H1201	H120	0.145400	0.135500	0.797700
H1211	H121	0.725000	0.994300	0.112600
H1221	H122	0.397900	0.006400	0.976100
H1231	H123	0.612900	0.132300	0.259500
H1241	H124	0.726300	0.628100	0.827000
H1251	H125	0.364500	0.957200	0.035800
H1261	H126	0.141100	0.067000	0.960900
H1271	H127	0.570400	0.469200	0.648500
H1281	H128	0.584900	0.954100	0.439000
H1291	H129	0.575500	0.993200	0.360700
H1301	H130	0.436100	0.456600	0.826600
H1311	H131	0.401000	0.086100	0.982000
H1321	H132	0.172600	0.669500	0.951800
H1331	H133	0.168500	0.830100	0.318000
H1341	H134	0.387100	0.632300	0.740500
H1351	H135	0.340000	0.461800	0.964800
H1361	H136	0.827400	0.669500	0.451800
H1371	H137	0.631800	0.045800	0.095000
H1381	H138	0.264600	0.037900	0.910500
H1391	H139	0.340000	0.961800	0.535200
H1401	H140	0.206500	0.874500	0.420000
H1411	H141	0.494000	0.481900	0.367000
H1421	H142	0.579900	0.019400	0.921300
H1431	H143	0.127500	0.528100	0.011600
H1441	H144	0.897000	0.331900	0.588400
H1451	H145	0.758900	0.630600	0.485500
H1461	H146	0.037100	0.882200	0.961000
H1471	H147	0.605900	0.919200	0.214000
H1481	H148	0.570400	0.530800	0.851500
H1491	H149	0.778700	0.049300	0.091000
H1501	H150	0.364500	0.457200	0.464200
H1511	H151	0.854600	0.135500	0.297700
H1521	H152	0.101100	0.327000	0.758500
H1531	H153	0.445600	0.066100	0.060200
H1541	H154	0.395900	0.077700	0.920100
H1551	H155	0.494000	0.981900	0.133000
H1561	H156	0.584900	0.545900	0.439000
H1571	H157	0.206500	0.374500	0.080000
H1581	H158	0.221300	0.049300	0.591000
H1591	H159	0.436100	0.956600	0.673400
H1601	H160	0.575500	0.493200	0.139300
H1611	H161	0.895700	0.145300	0.523200
H1621	H162	0.554400	0.933900	0.939800
H1631	H163	0.546600	0.494900	0.550800
H1641	H164	0.635500	0.542800	0.535800
H1651	H165	0.897000	0.079500	0.070600
H1661	H166	0.104300	0.145300	0.023200
H1671	H167	0.299000	0.079000	0.500700
H1681	H168	0.221300	0.950700	0.909000
H1691	H169	0.368200	0.954200	0.905000
H1701	H170	0.675900	0.428500	0.660500
H1711	H171	0.701000	0.921000	0.499300
H1721	H172	0.324100	0.571500	0.339500
H1731	H173	0.275000	0.494300	0.887400
H1741	H174	0.530100	0.876200	0.982300
H1751	H175	0.276400	0.410500	0.884600
H1761	H176	0.127500	0.971900	0.011600
H1771	H177	0.858900	0.933000	0.039100
H1781	H178	0.575500	0.006800	0.139300
H1791	H179	0.392900	0.821600	0.901500
H1801	H180	0.563900	0.543400	0.173400
H1811	H181	0.145400	0.864500	0.702300
H1821	H182	0.988200	0.039000	0.482000
H1831	H183	0.011800	0.461000	0.982000
H1841	H184	0.897000	0.831900	0.911600
H1851	H185	0.530100	0.123800	0.517700
H1861	H186	0.415100	0.545900	0.939000
H1871	H187	0.854600	0.635500	0.202300
H1881	H188	0.546600	0.994900	0.949200
H1891	H189	0.241100	0.630600	0.985500
H1901	H190	0.755700	0.504600	0.011500
H1911	H191	0.604100	0.422300	0.420100
H1921	H192	0.415100	0.454100	0.561000
H1931	H193	0.854600	0.864500	0.202300
H1941	H194	0.897000	0.579500	0.429400
H1951	H195	0.535500	0.140200	0.064100
H1961	H196	0.602100	0.493600	0.476100
H1971	H197	0.230000	0.374000	0.843300
H1981	H198	0.511900	0.930200	0.096600
H1991	H199	0.655500	0.608400	0.927700
H2001	H200	0.898900	0.827000	0.241500
H2011	H201	0.206500	0.125500	0.080000
H2021	H202	0.511900	0.430200	0.403400
H2031	H203	0.141100	0.933000	0.539100
H2041	H204	0.735400	0.462100	0.410500
H2051	H205	0.344500	0.891600	0.427700
H2061	H206	0.244300	0.495400	0.988500
H2071	H207	0.604100	0.577700	0.079900
H2081	H208	0.770000	0.874000	0.156700
H2091	H209	0.723600	0.089500	0.384600
H2101	H210	0.723600	0.910500	0.115400
H2111	H211	0.631800	0.954200	0.405000
H2121	H212	0.453400	0.494900	0.050800
H2131	H213	0.387100	0.367700	0.759500
H2141	H214	0.241100	0.369400	0.514500
H2151	H215	0.758900	0.369400	0.014500
H2161	H216	0.725000	0.494300	0.387400
H2171	H217	0.655500	0.108400	0.572300
H2181	H218	0.604100	0.922300	0.079900
H2191	H219	0.172600	0.169500	0.548200
H2201	H220	0.755700	0.495400	0.488500
H2211	H221	0.563900	0.043400	0.326600
H2221	H222	0.554400	0.433900	0.560200
H2231	H223	0.168500	0.169900	0.182000
H2241	H224	0.988200	0.461000	0.482000
H2251	H225	0.675900	0.571500	0.839500
H2261	H226	0.770000	0.374000	0.343300
H2271	H227	0.168500	0.669900	0.318000
H2281	H228	0.011800	0.539000	0.518000
H2291	H229	0.392900	0.678400	0.901500
H2301	H230	0.675900	0.928500	0.839500
H2311	H231	0.898900	0.173000	0.258500
H2321	H232	0.103000	0.579500	0.929400
H2331	H233	0.469900	0.623800	0.482300
H2341	H234	0.872500	0.471900	0.988400
H2351	H235	0.726300	0.128100	0.673000
H2361	H236	0.342100	0.170300	0.719900
H2371	H237	0.962900	0.882200	0.461000
H2381	H238	0.429600	0.030800	0.148500
H2391	H239	0.299000	0.921000	0.999300
H2401	H240	0.275000	0.505700	0.612600
H2411	H241	0.424500	0.506800	0.860700
H2421	H242	0.511900	0.569800	0.096600
H2431	H243	0.364500	0.042800	0.464200
H2441	H244	0.276400	0.589500	0.615400
H2451	H245	0.273700	0.628100	0.327000
H2461	H246	0.037100	0.382200	0.539000
H2471	H247	0.584900	0.454100	0.061000
H2481	H248	0.584900	0.045900	0.061000
H2491	H249	0.264600	0.537900	0.589500
H2501	H250	0.037100	0.117800	0.539000
H2511	H251	0.599000	0.586100	0.018000
H2521	H252	0.429600	0.469200	0.148500
H2531	H253	0.858900	0.433000	0.460900
H2541	H254	0.342100	0.329700	0.719900
H2551	H255	0.655500	0.391600	0.572300
H2561	H256	0.725000	0.005700	0.387400
H2571	H257	0.872500	0.028100	0.988400
H2581	H258	0.103000	0.168100	0.088400
H2591	H259	0.230000	0.626000	0.656700
H2601	H260	0.488100	0.569800	0.596600
H2611	H261	0.770000	0.126000	0.343300
H2621	H262	0.827400	0.169500	0.048200
H2631	H263	0.494000	0.518100	0.133000
H2641	H264	0.726300	0.871900	0.827000
H2651	H265	0.770000	0.626000	0.156700
H2661	H266	0.602100	0.506400	0.023900
H2671	H267	0.657900	0.829700	0.280100
H2681	H268	0.168500	0.330100	0.182000
H2691	H269	0.342100	0.829700	0.780100
H2701	H270	0.563900	0.456600	0.326600
H2711	H271	0.755700	0.004600	0.488500
H2721	H272	0.172600	0.330500	0.548200
H2731	H273	0.897000	0.668100	0.911600
H2741	H274	0.206500	0.625500	0.420000
H2751	H275	0.758900	0.130600	0.014500
H2761	H276	0.244300	0.504600	0.511500
H2771	H277	0.387100	0.132300	0.759500
H2781	H278	0.453400	0.005100	0.050800
H2791	H279	0.127500	0.028100	0.488400
H2801	H280	0.723600	0.410500	0.384600
H2811	H281	0.244300	0.004600	0.988500
H2821	H282	0.605900	0.580800	0.214000
H2831	H283	0.735400	0.037900	0.410500
H2841	H284	0.607100	0.321600	0.098500
H2851	H285	0.104300	0.854700	0.476800
H2861	H286	0.230000	0.126000	0.843300
H2871	H287	0.602100	0.006400	0.476100
H2881	H288	0.401000	0.913900	0.518000
H2891	H289	0.415100	0.045900	0.561000
H2901	H290	0.604100	0.077700	0.420100
H2911	H291	0.494000	0.018100	0.367000
H2921	H292	0.037100	0.617800	0.961000
H2931	H293	0.657900	0.170300	0.219900
H2941	H294	0.858900	0.067000	0.460900
H2951	H295	0.273700	0.371900	0.173000
H2961	H296	0.530100	0.376200	0.517700
H2971	H297	0.895700	0.854700	0.976800
H2981	H298	0.011800	0.039000	0.982000
H2991	H299	0.872500	0.971900	0.511600
H3001	H300	0.554400	0.066100	0.560200
H3011	H301	0.344500	0.608400	0.427700
H3021	H302	0.453400	0.994900	0.449200
H3031	H303	0.221300	0.450700	0.591000
H3041	H304	0.275000	0.005700	0.887400
H3051	H305	0.635500	0.957200	0.535800
H3061	H306	0.535500	0.359800	0.064100
H3071	H307	0.579900	0.519400	0.578700
H3081	H308	0.397900	0.506400	0.523900
H3091	H309	0.675900	0.071500	0.660500
H3101	H310	0.657900	0.670300	0.280100
H3111	H311	0.299000	0.421000	0.500700
H3121	H312	0.104300	0.354700	0.023200
H3131	H313	0.657900	0.329700	0.219900
H3141	H314	0.897000	0.420500	0.070600
H3151	H315	0.778700	0.950700	0.409000
H3161	H316	0.275000	0.994300	0.612600
H3171	H317	0.104300	0.645300	0.476800
H3181	H318	0.546600	0.505100	0.949200
H3191	H319	0.895700	0.354700	0.523200
H3201	H320	0.506000	0.518100	0.633000
H3211	H321	0.962900	0.117800	0.039000
H3221	H322	0.827400	0.330500	0.048200
H3231	H323	0.962900	0.382200	0.039000
H3241	H324	0.395900	0.422300	0.920100
H3251	H325	0.276400	0.910500	0.615400
H3261	H326	0.445600	0.433900	0.060200
H3271	H327	0.101100	0.173000	0.758500
H3281	H328	0.854600	0.364500	0.297700
H3291	H329	0.445600	0.933900	0.439800
H3301	H330	0.988200	0.539000	0.018000
H3311	H331	0.612900	0.867700	0.240500
H3321	H332	0.575500	0.506800	0.360700
H3331	H333	0.103000	0.668100	0.411600
H3341	H334	0.241100	0.130600	0.514500
H3351	H335	0.962900	0.617800	0.461000
H3361	H336	0.506000	0.481900	0.867000
H3371	H337	0.429600	0.530800	0.351500
H3381	H338	0.897000	0.168100	0.588400
H3391	H339	0.530100	0.623800	0.982300
H3401	H340	0.579900	0.480600	0.921300
H3411	H341	0.368200	0.045800	0.595000
H3421	H342	0.793500	0.874500	0.920000
H3431	H343	0.988200	0.961000	0.018000
H3441	H344	0.264600	0.462100	0.910500
H3451	H345	0.655500	0.891600	0.927700
H3461	H346	0.660000	0.961800	0.035200
H3471	H347	0.631800	0.454200	0.095000
H3481	H348	0.244300	0.995400	0.511500
H3491	H349	0.563900	0.956600	0.173400
H3501	H350	0.464500	0.640200	0.935900
H3511	H351	0.340000	0.038200	0.964800
H3521	H352	0.445600	0.566100	0.439800
C11	C1	0.640200	0.059800	0.359340
C21	C2	0.698300	0.395700	0.308440
C31	C3	0.593600	0.392160	0.011900
C41	C4	0.813800	0.358040	0.281800
C51	C5	0.406400	0.392160	0.511900
C61	C6	0.729900	0.871550	0.217460
C71	C7	0.729200	0.891680	0.161190
C81	C8	0.219000	0.619900	0.524100
C91	C9	0.274800	0.322520	0.577070
C101	C10	0.640300	0.581680	0.503740
C111	C11	0.797300	0.544160	0.429990
C121	C12	0.674300	0.403710	0.618590
C131	C13	0.200500	0.865060	0.399410
C141	C14	0.996000	0.606000	0.973900
C151	C15	0.423400	0.067330	0.081230
C161	C16	0.464500	0.962740	0.557160
C171	C17	0.823600	0.161410	0.661120
C181	C18	0.301700	0.395700	0.808440
C191	C19	0.612200	0.536920	0.112290
C201	C20	0.391500	0.940430	0.668820
C211	C21	0.781000	0.380100	0.475900
C221	C22	0.012300	0.572700	0.983500
C231	C23	0.823600	0.338590	0.661120
C241	C24	0.301700	0.104300	0.808440
C251	C25	0.217500	0.012890	0.523730
C261	C26	0.799500	0.134940	0.600590
C271	C27	0.905400	0.444900	0.028400
C281	C28	0.219000	0.119900	0.975900
C291	C29	0.546600	0.992290	0.123150
C301	C30	0.301300	0.663210	0.764330
C311	C31	0.586200	0.453450	0.632380
C321	C32	0.350300	0.071670	0.140040
C331	C33	0.860000	0.895200	0.006200
C341	C34	0.510200	0.938610	0.532480
C351	C35	0.856900	0.031720	0.010000
C361	C36	0.494800	0.107870	0.506480
C371	C37	0.240100	0.136320	0.155610
C381	C38	0.750500	0.019600	0.053300
C391	C39	0.453700	0.543300	0.396130
C401	C40	0.870800	0.562150	0.442010
C411	C41	0.350300	0.928330	0.359960
C421	C42	0.668400	0.503380	0.432920
C431	C43	0.359800	0.440200	0.859340
C441	C44	0.176400	0.661410	0.338880
C451	C45	0.094600	0.055100	0.528400
C461	C46	0.674300	0.596290	0.881410
C471	C47	0.537200	0.584910	0.015390
C481	C48	0.129200	0.562150	0.942010
C491	C49	0.362200	0.131350	0.534610
C501	C50	0.671800	0.859860	0.240680
C511	C51	0.912200	0.876600	0.984400
C521	C52	0.489800	0.438610	0.467520
C531	C53	0.813900	0.297570	0.210710
C541	C54	0.056700	0.201890	0.141290
C551	C55	0.759900	0.363680	0.655610
C561	C56	0.216000	0.324140	0.735010
C571	C57	0.750500	0.980400	0.446700
C581	C58	0.602300	0.968780	0.420960
C591	C59	0.744400	0.122940	0.625220
C601	C60	0.638800	0.668800	0.418770
C611	C61	0.453700	0.956700	0.396130
C621	C62	0.527200	0.008790	0.930900
C631	C63	0.301700	0.895700	0.691560
C641	C64	0.056700	0.701890	0.358710
C651	C65	0.535500	0.462740	0.442840
C661	C66	0.462800	0.415090	0.984610
C671	C67	0.813900	0.797570	0.289290
C681	C68	0.612200	0.963080	0.112290
C691	C69	0.888800	0.076000	0.478800
C701	C70	0.595200	0.354240	0.060300
C711	C71	0.602300	0.031220	0.079040
C721	C72	0.331600	0.003380	0.567080
C731	C73	0.453400	0.992290	0.623150
C741	C74	0.143100	0.468280	0.510000
C751	C75	0.546600	0.007710	0.376850
C761	C76	0.943300	0.201890	0.641290
C771	C77	0.600600	0.559510	0.525490
C781	C78	0.943300	0.798110	0.858710
C791	C79	0.186100	0.202430	0.710710
C801	C80	0.087800	0.623400	0.484400
C811	C81	0.301300	0.836790	0.764330
C821	C82	0.725900	0.140410	0.031300
C831	C83	0.435600	0.440820	0.913050
C841	C84	0.729900	0.371550	0.282540
C851	C85	0.619400	0.979820	0.042570
C861	C86	0.404800	0.854240	0.939700
C871	C87	0.129200	0.937850	0.942010
C881	C88	0.216000	0.675860	0.764990
C891	C89	0.004000	0.606000	0.473900
C901	C90	0.576600	0.067330	0.581230
C911	C91	0.274800	0.677480	0.922930
C921	C92	0.453700	0.043300	0.103870
C931	C93	0.537200	0.084910	0.484610
C941	C94	0.781000	0.880100	0.024100
C951	C95	0.674300	0.096290	0.618590
C961	C96	0.012300	0.072700	0.516500
C971	C97	0.301300	0.163210	0.735670
C981	C98	0.546300	0.456700	0.603870
C991	C99	0.462800	0.915090	0.515390
C1001	C100	0.781000	0.619900	0.024100
C1011	C101	0.546300	0.043300	0.603870
C1021	C102	0.301300	0.336790	0.735670
C1031	C103	0.012300	0.427300	0.516500
C1041	C104	0.784000	0.675860	0.264990
C1051	C105	0.216000	0.824140	0.764990
C1061	C106	0.638800	0.831200	0.418770
C1071	C107	0.240100	0.363680	0.155610
C1081	C108	0.535500	0.537260	0.057160
C1091	C109	0.453700	0.456700	0.103870
C1101	C110	0.576600	0.432670	0.581230
C1111	C111	0.124200	0.825780	0.363640
C1121	C112	0.359700	0.581680	0.003740
C1131	C113	0.619400	0.520180	0.042570
C1141	C114	0.813800	0.141960	0.281800
C1151	C115	0.137400	0.660220	0.394340
C1161	C116	0.186200	0.858040	0.718200
C1171	C117	0.637800	0.868650	0.465390
C1181	C118	0.729900	0.128450	0.282540
C1191	C119	0.435600	0.059180	0.913050
C1201	C120	0.725900	0.359590	0.031300
C1211	C121	0.987700	0.427300	0.016500
C1221	C122	0.186100	0.297570	0.710710
C1231	C123	0.406400	0.107840	0.511900
C1241	C124	0.698700	0.163210	0.235670
C1251	C125	0.767900	0.336460	0.051940
C1261	C126	0.546300	0.956700	0.896130
C1271	C127	0.943300	0.298110	0.641290
C1281	C128	0.586200	0.953450	0.867620
C1291	C129	0.595200	0.145760	0.060300
C1301	C130	0.608500	0.440430	0.331180
C1311	C131	0.517800	0.515000	0.405770
C1321	C132	0.482200	0.515000	0.905770
C1331	C133	0.472800	0.991210	0.069100
C1341	C134	0.527200	0.491210	0.930900
C1351	C135	0.387800	0.036920	0.887710
C1361	C136	0.056700	0.798110	0.358710
C1371	C137	0.759900	0.136320	0.655610
C1381	C138	0.813900	0.202430	0.210710
C1391	C139	0.987700	0.572700	0.483500
C1401	C140	0.489800	0.061390	0.467520
C1411	C141	0.586200	0.546550	0.867620
C1421	C142	0.453400	0.007710	0.876850
C1431	C143	0.094600	0.444900	0.528400
C1441	C144	0.270100	0.628450	0.717460
C1451	C145	0.359800	0.059800	0.859340
C1461	C146	0.967800	0.559500	0.008500
C1471	C147	0.987700	0.072700	0.016500
C1481	C148	0.640200	0.940200	0.140660
C1491	C149	0.537200	0.915090	0.015390
C1501	C150	0.671800	0.640140	0.240680
C1511	C151	0.240100	0.636320	0.344390
C1521	C152	0.406400	0.607840	0.988100
C1531	C153	0.750500	0.480400	0.053300
C1541	C154	0.856900	0.468280	0.010000
C1551	C155	0.159700	0.335160	0.758320
C1561	C156	0.586200	0.046550	0.632380
C1571	C157	0.397700	0.968780	0.920960
C1581	C158	0.219000	0.380100	0.975900
C1591	C159	0.510200	0.061390	0.967520
C1601	C160	0.638200	0.592950	0.911560
C1611	C161	0.159700	0.835160	0.741680
C1621	C162	0.799500	0.365060	0.600590
C1631	C163	0.217500	0.487110	0.523730
C1641	C164	0.159700	0.664840	0.741680
C1651	C165	0.694300	0.519890	0.096620
C1661	C166	0.781000	0.119900	0.475900
C1671	C167	0.094600	0.555100	0.971600
C1681	C168	0.537200	0.415090	0.484610
C1691	C169	0.423400	0.432670	0.081230
C1701	C170	0.875800	0.674220	0.863640
C1711	C171	0.176400	0.838590	0.338880
C1721	C172	0.635800	0.917720	0.194260
C1731	C173	0.274800	0.177480	0.577070
C1741	C174	0.769500	0.703080	0.400580
C1751	C175	0.769500	0.796920	0.400580
C1761	C176	0.435600	0.940820	0.586950
C1771	C177	0.784000	0.824140	0.264990
C1781	C178	0.232100	0.336460	0.551940
C1791	C179	0.674300	0.903710	0.881410
C1801	C180	0.576600	0.932670	0.918770
C1811	C181	0.698300	0.895700	0.191560
C1821	C182	0.305700	0.519890	0.596620
C1831	C183	0.593600	0.107840	0.011900
C1841	C184	0.698300	0.104300	0.308440
C1851	C185	0.640200	0.440200	0.359340
C1861	C186	0.840300	0.664840	0.241680
C1871	C187	0.840300	0.835160	0.241680
C1881	C188	0.328200	0.640140	0.740680
C1891	C189	0.576600	0.567330	0.918770
C1901	C190	0.996000	0.894000	0.973900
C1911	C191	0.124200	0.174220	0.136360
C1921	C192	0.637800	0.368650	0.034610
C1931	C193	0.767900	0.163540	0.051940
C1941	C194	0.640300	0.418320	0.996260
C1951	C195	0.200500	0.365060	0.100590
C1961	C196	0.860000	0.604800	0.006200
C1971	C197	0.249500	0.019600	0.553300
C1981	C198	0.217500	0.987110	0.976270
C1991	C199	0.725200	0.677480	0.422930
C2001	C200	0.362200	0.868650	0.965390
C2011	C201	0.505200	0.107870	0.006480
C2021	C202	0.143100	0.531720	0.990000
C2031	C203	0.967800	0.440500	0.491500
C2041	C204	0.137400	0.160220	0.105660
C2051	C205	0.870800	0.937850	0.442010
C2061	C206	0.527200	0.991210	0.569100
C2071	C207	0.472800	0.508790	0.069100
C2081	C208	0.482200	0.015000	0.594230
C2091	C209	0.996000	0.394000	0.526100
C2101	C210	0.725900	0.640410	0.468700
C2111	C211	0.391500	0.559570	0.668820
C2121	C212	0.517800	0.485000	0.094230
C2131	C213	0.325700	0.596290	0.381410
C2141	C214	0.325700	0.403710	0.118590
C2151	C215	0.404800	0.145760	0.560300
C2161	C216	0.359700	0.081680	0.496260
C2171	C217	0.494800	0.392130	0.506480
C2181	C218	0.671800	0.140140	0.259320
C2191	C219	0.200500	0.634940	0.399410
C2201	C220	0.840300	0.164840	0.258320
C2211	C221	0.593600	0.892160	0.488100
C2221	C222	0.782500	0.012890	0.023730
C2231	C223	0.888800	0.424000	0.478800
C2241	C224	0.967800	0.940500	0.008500
C2251	C225	0.435600	0.559180	0.586950
C2261	C226	0.380600	0.479820	0.957430
C2271	C227	0.380600	0.020180	0.957430
C2281	C228	0.325700	0.903710	0.381410
C2291	C229	0.619400	0.020180	0.457430
C2301	C230	0.176400	0.338590	0.161120
C2311	C231	0.608500	0.559570	0.168820
C2321	C232	0.399400	0.559510	0.025490
C2331	C233	0.464500	0.037260	0.942840
C2341	C234	0.510200	0.438610	0.967520
C2351	C235	0.361800	0.407050	0.088440
C2361	C236	0.472800	0.008790	0.430900
C2371	C237	0.202700	0.955840	0.929990
C2381	C238	0.608500	0.059570	0.331180
C2391	C239	0.759900	0.636320	0.844390
C2401	C240	0.364200	0.082280	0.805740
C2411	C241	0.729900	0.628450	0.217460
C2421	C242	0.595200	0.645760	0.439700
C2431	C243	0.159700	0.164840	0.758320
C2441	C244	0.140000	0.604800	0.506200
C2451	C245	0.888800	0.924000	0.021200
C2461	C246	0.870800	0.062150	0.057990
C2471	C247	0.299500	0.913910	0.636100
C2481	C248	0.004000	0.894000	0.473900
C2491	C249	0.725200	0.322520	0.077070
C2501	C250	0.698700	0.336790	0.235670
C2511	C251	0.494800	0.607870	0.993520
C2521	C252	0.759900	0.863680	0.844390
C2531	C253	0.744400	0.877060	0.874780
C2541	C254	0.111200	0.076000	0.978800
C2551	C255	0.769500	0.203080	0.099420
C2561	C256	0.602300	0.468780	0.079040
C2571	C257	0.462800	0.084910	0.984610
C2581	C258	0.216000	0.175860	0.735010
C2591	C259	0.230500	0.796920	0.900580
C2601	C260	0.331600	0.996620	0.932920
C2611	C261	0.362200	0.368650	0.534610
C2621	C262	0.725200	0.822520	0.422930
C2631	C263	0.270100	0.371550	0.782540
C2641	C264	0.905400	0.055100	0.028400
C2651	C265	0.600600	0.440490	0.974510
C2661	C266	0.453400	0.492290	0.876850
C2671	C267	0.862600	0.839780	0.894340
C2681	C268	0.399400	0.059510	0.474510
C2691	C269	0.270800	0.108320	0.838810
C2701	C270	0.012300	0.927300	0.983500
C2711	C271	0.362200	0.631350	0.965390
C2721	C272	0.862600	0.339780	0.605660
C2731	C273	0.823600	0.661410	0.838880
C2741	C274	0.249500	0.980400	0.946700
C2751	C275	0.413800	0.453450	0.132380
C2761	C276	0.423400	0.567330	0.418770
C2771	C277	0.860000	0.104800	0.493800
C2781	C278	0.274100	0.359590	0.531300
C2791	C279	0.505200	0.607870	0.493520
C2801	C280	0.729200	0.391680	0.338810
C2811	C281	0.301700	0.604300	0.691560
C2821	C282	0.744400	0.622940	0.874780
C2831	C283	0.875800	0.325780	0.636360
C2841	C284	0.649700	0.928330	0.859960
C2851	C285	0.782500	0.512890	0.476270
C2861	C286	0.397700	0.031220	0.579040
C2871	C287	0.600600	0.940490	0.525490
C2881	C288	0.004000	0.394000	0.026100
C2891	C289	0.612200	0.036920	0.387710
C2901	C290	0.240100	0.863680	0.344390
C2911	C291	0.032200	0.440500	0.991500
C2921	C292	0.217500	0.512890	0.976270
C2931	C293	0.361200	0.831200	0.918770
C2941	C294	0.888800	0.576000	0.021200
C2951	C295	0.270800	0.891680	0.661190
C2961	C296	0.032200	0.559500	0.508500
C2971	C297	0.494800	0.892130	0.993520
C2981	C298	0.784000	0.175860	0.235010
C2991	C299	0.638800	0.168800	0.081230
C3001	C300	0.862600	0.660220	0.894340
C3011	C301	0.527200	0.508790	0.569100
C3021	C302	0.274100	0.859590	0.968700
C3031	C303	0.299500	0.413910	0.863900
C3041	C304	0.413800	0.953450	0.367620
C3051	C305	0.391500	0.059570	0.831180
C3061	C306	0.637800	0.631350	0.465390
C3071	C307	0.032200	0.940500	0.508500
C3081	C308	0.505200	0.892130	0.493520
C3091	C309	0.649700	0.428330	0.640040
C3101	C310	0.905400	0.555100	0.471600
C3111	C311	0.219000	0.880100	0.524100
C3121	C312	0.767900	0.836460	0.448060
C3131	C313	0.638200	0.407050	0.588440
C3141	C314	0.813800	0.641960	0.218200
C3151	C315	0.635800	0.417720	0.305740
C3161	C316	0.140000	0.395200	0.993800
C3171	C317	0.361200	0.168800	0.581230
C3181	C318	0.840300	0.335160	0.258320
C3191	C319	0.413800	0.546550	0.367620
C3201	C320	0.668400	0.003380	0.067080
C3211	C321	0.635800	0.582280	0.194260
C3221	C322	0.482200	0.985000	0.905770
C3231	C323	0.698300	0.604300	0.191560
C3241	C324	0.186200	0.358040	0.781800
C3251	C325	0.856900	0.968280	0.490000
C3261	C326	0.744400	0.377060	0.625220
C3271	C327	0.750500	0.519600	0.446700
C3281	C328	0.694300	0.480110	0.403380
C3291	C329	0.700500	0.413910	0.363900
C3301	C330	0.087800	0.376600	0.015600
C3311	C331	0.453400	0.507710	0.623150
C3321	C332	0.305700	0.019890	0.903380
C3331	C333	0.729200	0.608320	0.161190
C3341	C334	0.137400	0.839780	0.394340
C3351	C335	0.856900	0.531720	0.490000
C3361	C336	0.202700	0.455840	0.570010
C3371	C337	0.875800	0.825780	0.863640
C3381	C338	0.698700	0.663210	0.264330
C3391	C339	0.232100	0.663540	0.948060
C3401	C340	0.546600	0.507710	0.123150
C3411	C341	0.564400	0.059180	0.413050
C3421	C342	0.423400	0.932670	0.418770
C3431	C343	0.087800	0.876600	0.484400
C3441	C344	0.564400	0.440820	0.413050
C3451	C345	0.328200	0.859860	0.740680
C3461	C346	0.249500	0.519600	0.946700
C3471	C347	0.638200	0.907050	0.911560
C3481	C348	0.202700	0.044160	0.570010
C3491	C349	0.328200	0.140140	0.759320
C3501	C350	0.129200	0.437850	0.557990
C3511	C351	0.305700	0.480110	0.903380
C3521	C352	0.143100	0.031720	0.510000
C3531	C353	0.087800	0.123400	0.015600
C3541	C354	0.700500	0.086090	0.363900
C3551	C355	0.694300	0.019890	0.403380
C3561	C356	0.361200	0.668800	0.918770
C3571	C357	0.943300	0.701890	0.858710
C3581	C358	0.700500	0.586090	0.136100
C3591	C359	0.186200	0.141960	0.781800
C3601	C360	0.912200	0.123400	0.515600
C3611	C361	0.668400	0.496620	0.067080
C3621	C362	0.640300	0.918320	0.503740
C3631	C363	0.797300	0.044160	0.070010
C3641	C364	0.230500	0.296920	0.599420
C3651	C365	0.140000	0.104800	0.993800
C3661	C366	0.635800	0.082280	0.305740
C3671	C367	0.274800	0.822520	0.922930
C3681	C368	0.387800	0.463080	0.887710
C3691	C369	0.638200	0.092950	0.588440
C3701	C370	0.331600	0.503380	0.932920
C3711	C371	0.649700	0.071670	0.640040
C3721	C372	0.111200	0.576000	0.521200
C3731	C373	0.725900	0.859590	0.468700
C3741	C374	0.380600	0.520180	0.542570
C3751	C375	0.489800	0.561390	0.032480
C3761	C376	0.905400	0.944900	0.471600
C3771	C377	0.464500	0.537260	0.557160
C3781	C378	0.299500	0.086090	0.863900
C3791	C379	0.694300	0.980110	0.096620
C3801	C380	0.638800	0.331200	0.081230
C3811	C381	0.784000	0.324140	0.235010
C3821	C382	0.612200	0.463080	0.387710
C3831	C383	0.232100	0.836460	0.948060
C3841	C384	0.359700	0.918320	0.003740
C3851	C385	0.406400	0.892160	0.988100
C3861	C386	0.186200	0.641960	0.718200
C3871	C387	0.032200	0.059500	0.991500
C3881	C388	0.004000	0.106000	0.026100
C3891	C389	0.350300	0.571670	0.359960
C3901	C390	0.387800	0.536920	0.612290
C3911	C391	0.397700	0.468780	0.579040
C3921	C392	0.230500	0.203080	0.599420
C3931	C393	0.305700	0.980110	0.596620
C3941	C394	0.875800	0.174220	0.636360
C3951	C395	0.640200	0.559800	0.140660
C3961	C396	0.270800	0.608320	0.661190
C3971	C397	0.137400	0.339780	0.105660
C3981	C398	0.637800	0.131350	0.034610
C3991	C399	0.729200	0.108320	0.338810
C4001	C400	0.987700	0.927300	0.483500
C4011	C401	0.274100	0.140410	0.531300
C4021	C402	0.860000	0.395200	0.493800
C4031	C403	0.094600	0.944900	0.971600
C4041	C404	0.413800	0.046550	0.132380
C4051	C405	0.700500	0.913910	0.136100
C4061	C406	0.813900	0.702430	0.289290
C4071	C407	0.782500	0.987110	0.476270
C4081	C408	0.232100	0.163540	0.551940
C4091	C409	0.270800	0.391680	0.838810
C4101	C410	0.797300	0.955840	0.429990
C4111	C411	0.399400	0.440490	0.474510
C4121	C412	0.505200	0.392130	0.006480
C4131	C413	0.564400	0.559180	0.086950
C4141	C414	0.600600	0.059510	0.974510
C4151	C415	0.602300	0.531220	0.420960
C4161	C416	0.380600	0.979820	0.542570
C4171	C417	0.489800	0.938610	0.032480
C4181	C418	0.270100	0.128450	0.782540
C4191	C419	0.608500	0.940430	0.168820
C4201	C420	0.186100	0.702430	0.789290
C4211	C421	0.546600	0.492290	0.376850
C4221	C422	0.056700	0.298110	0.141290
C4231	C423	0.769500	0.296920	0.099420
C4241	C424	0.912200	0.376600	0.515600
C4251	C425	0.361200	0.331200	0.581230
C4261	C426	0.111200	0.424000	0.978800
C4271	C427	0.510200	0.561390	0.532480
C4281	C428	0.361800	0.592950	0.411560
C4291	C429	0.350300	0.428330	0.140040
C4301	C430	0.668400	0.996620	0.432920
C4311	C431	0.270100	0.871550	0.717460
C4321	C432	0.725200	0.177480	0.077070
C4331	C433	0.870800	0.437850	0.057990
C4341	C434	0.399400	0.940490	0.025490
C4351	C435	0.124200	0.674220	0.363640
C4361	C436	0.255600	0.122940	0.125220
C4371	C437	0.186100	0.797570	0.789290
C4381	C438	0.397700	0.531220	0.920960
C4391	C439	0.472800	0.491210	0.430900
C4401	C440	0.255600	0.877060	0.374780
C4411	C441	0.361800	0.092950	0.088440
C4421	C442	0.464500	0.462740	0.942840
C4431	C443	0.517800	0.985000	0.405770
C4441	C444	0.359800	0.559800	0.640660
C4451	C445	0.404800	0.354240	0.560300
C4461	C446	0.176400	0.161410	0.161120
C4471	C447	0.619400	0.479820	0.457430
C4481	C448	0.255600	0.377060	0.125220
C4491	C449	0.535500	0.037260	0.442840
C4501	C450	0.649700	0.571670	0.859960
C4511	C451	0.797300	0.455840	0.070010
C4521	C452	0.331600	0.496620	0.567080
C4531	C453	0.255600	0.622940	0.374780
C4541	C454	0.364200	0.917720	0.694260
C4551	C455	0.546300	0.543300	0.896130
C4561	C456	0.387800	0.963080	0.612290
C4571	C457	0.782500	0.487110	0.023730
C4581	C458	0.862600	0.160220	0.605660
C4591	C459	0.202700	0.544160	0.929990
C4601	C460	0.140000	0.895200	0.506200
C4611	C461	0.671800	0.359860	0.259320
C4621	C462	0.391500	0.440430	0.831180
C4631	C463	0.359700	0.418320	0.496260
C4641	C464	0.799500	0.865060	0.899410
C4651	C465	0.325700	0.096290	0.118590
C4661	C466	0.328200	0.359860	0.759320
C4671	C467	0.517800	0.015000	0.094230
C4681	C468	0.361800	0.907050	0.411560
C4691	C469	0.230500	0.703080	0.900580
C4701	C470	0.593600	0.607840	0.488100
C4711	C471	0.912200	0.623400	0.984400
C4721	C472	0.364200	0.417720	0.805740
C4731	C473	0.799500	0.634940	0.899410
C4741	C474	0.364200	0.582280	0.694260
C4751	C475	0.996000	0.106000	0.526100
C4761	C476	0.595200	0.854240	0.439700
C4771	C477	0.482200	0.485000	0.594230
C4781	C478	0.823600	0.838590	0.838880
C4791	C479	0.274100	0.640410	0.968700
C4801	C480	0.111200	0.924000	0.521200
C4811	C481	0.967800	0.059500	0.491500
C4821	C482	0.535500	0.962740	0.057160
C4831	C483	0.813800	0.858040	0.218200
C4841	C484	0.404800	0.645760	0.939700
C4851	C485	0.359800	0.940200	0.640660
C4861	C486	0.564400	0.940820	0.086950
C4871	C487	0.129200	0.062150	0.557990
C4881	C488	0.249500	0.480400	0.553300
C4891	C489	0.299500	0.586090	0.636100
C4901	C490	0.143100	0.968280	0.990000
C4911	C491	0.200500	0.134940	0.100590
C4921	C492	0.698700	0.836790	0.264330
C4931	C493	0.640300	0.081680	0.996260
C4941	C494	0.124200	0.325780	0.136360
C4951	C495	0.767900	0.663540	0.448060
C4961	C496	0.462800	0.584910	0.515390
O11	O1	0.756900	0.150100	0.494000
O21	O2	0.256500	0.612000	0.547100
O31	O3	0.957200	0.287730	0.669520
O41	O4	0.891400	0.712840	0.288400
O51	O5	0.272200	0.286700	0.623490
O61	O6	0.120500	0.750000	0.849150
O71	O7	0.957200	0.712270	0.830480
O81	O8	0.256500	0.388000	0.952900
O91	O9	0.754000	0.287780	0.191240
O101	O10	0.155800	0.713200	0.908800
O111	O11	0.155800	0.213200	0.591200
O121	O12	0.891400	0.212840	0.211600
O131	O13	0.982700	0.787100	0.883400
O141	O14	0.957200	0.787730	0.830480
O151	O15	0.879500	0.750000	0.349150
O161	O16	0.844200	0.213200	0.091200
O171	O17	0.108600	0.712840	0.788400
O181	O18	0.844200	0.286800	0.091200
O191	O19	0.256500	0.888000	0.547100
O201	O20	0.891400	0.287160	0.211600
O211	O21	0.844200	0.713200	0.408800
O221	O22	0.155800	0.286800	0.591200
O231	O23	0.754000	0.212220	0.191240
O241	O24	0.256500	0.112000	0.952900
O251	O25	0.756900	0.349900	0.494000
O261	O26	0.756900	0.849900	0.006000
O271	O27	0.108600	0.287160	0.711600
O281	O28	0.243100	0.650100	0.506000
O291	O29	0.727800	0.786700	0.376510
O301	O30	0.743500	0.388000	0.452900
O311	O31	0.727800	0.286700	0.123490
O321	O32	0.879500	0.250000	0.150850
O331	O33	0.754000	0.787780	0.308760
O341	O34	0.246000	0.712220	0.808760
O351	O35	0.108600	0.787160	0.788400
O361	O36	0.042800	0.212270	0.169520
O371	O37	0.743500	0.888000	0.047100
O381	O38	0.743500	0.112000	0.452900
O391	O39	0.982700	0.212900	0.616600
O401	O40	0.957200	0.212270	0.669520
O411	O41	0.246000	0.287780	0.691240
O421	O42	0.272200	0.786700	0.876510
O431	O43	0.727800	0.713300	0.376510
O441	O44	0.754000	0.712220	0.308760
O451	O45	0.243100	0.150100	0.994000
O461	O46	0.844200	0.786800	0.408800
O471	O47	0.017300	0.212900	0.116600
O481	O48	0.017300	0.712900	0.383400
O491	O49	0.017300	0.287100	0.116600
O501	O50	0.155800	0.786800	0.908800
O511	O51	0.272200	0.213300	0.623490
O521	O52	0.982700	0.712900	0.883400
O531	O53	0.042800	0.787730	0.330480
O541	O54	0.246000	0.212220	0.691240
O551	O55	0.243100	0.349900	0.994000
O561	O56	0.246000	0.787780	0.808760
O571	O57	0.982700	0.287100	0.616600
O581	O58	0.891400	0.787160	0.288400
O591	O59	0.017300	0.787100	0.383400
O601	O60	0.743500	0.612000	0.047100
O611	O61	0.042800	0.287730	0.169520
O621	O62	0.272200	0.713300	0.876510
O631	O63	0.727800	0.213300	0.123490
O641	O64	0.243100	0.849900	0.506000
O651	O65	0.756900	0.650100	0.006000
O661	O66	0.108600	0.212840	0.711600
O671	O67	0.042800	0.712270	0.330480
O681	O68	0.120500	0.250000	0.650850
