data_TOVWIM_clean_PM
_symmetry_space_group_name_H-M	'P1'
_cell_length_a	26.655000
_cell_length_b	26.655000
_cell_length_c	32.281000
_cell_angle_alpha	65.615500
_cell_angle_beta	65.615500
_cell_angle_gamma	60.000000
_symmetry_Int_Tables_number 1

loop_
_symmetry_equiv_pos_as_xyz
'x,y,z'

loop_
_atom_site_label
_atom_site_type_symbol
_atom_site_fract_x
_atom_site_fract_y
_atom_site_fract_z
Zn11	Zn1	0.325360	0.562030	0.233880
Zn21	Zn2	0.562030	0.878730	0.233880
Zn31	Zn3	0.250000	0.715270	0.250000
Zn41	Zn4	0.852970	0.724750	0.599480
Zn51	Zn5	0.062030	0.825360	0.733880
Zn61	Zn6	0.378460	0.255370	0.766480
Zn71	Zn7	0.831620	0.831620	0.505140
Zn81	Zn8	0.099690	0.755370	0.266480
Zn91	Zn9	0.378730	0.062030	0.733880
Zn101	Zn10	0.599690	0.378460	0.766480
Zn111	Zn11	0.621540	0.744630	0.233520
Zn121	Zn12	0.900310	0.244630	0.733520
Zn131	Zn13	0.878730	0.325360	0.233880
Zn141	Zn14	0.822800	0.852970	0.599480
Zn151	Zn15	0.937970	0.174640	0.266120
Zn161	Zn16	0.668380	0.668380	0.994860
Zn171	Zn17	0.400310	0.621540	0.233520
Zn181	Zn18	0.825360	0.378730	0.733880
Zn191	Zn19	0.284730	0.215270	0.750000
Zn201	Zn20	0.724750	0.822800	0.599480
Zn211	Zn21	0.255370	0.599690	0.766480
Zn221	Zn22	0.784730	0.250000	0.250000
Zn231	Zn23	0.677200	0.775250	0.900520
Zn241	Zn24	0.755370	0.878460	0.266480
Zn251	Zn25	0.224750	0.352970	0.099480
Zn261	Zn26	0.147030	0.275250	0.400520
Zn271	Zn27	0.775250	0.647030	0.900520
Zn281	Zn28	0.621270	0.937970	0.266120
Zn291	Zn29	0.647030	0.677200	0.900520
Zn301	Zn30	0.352970	0.322800	0.099480
Zn311	Zn31	0.174640	0.621270	0.266120
Zn321	Zn32	0.750000	0.284730	0.750000
Zn331	Zn33	0.674640	0.437970	0.766120
Zn341	Zn34	0.121270	0.674640	0.766120
Zn351	Zn35	0.121540	0.900310	0.733520
Zn361	Zn36	0.168380	0.168380	0.494860
Zn371	Zn37	0.244630	0.121540	0.733520
Zn381	Zn38	0.215270	0.750000	0.750000
Zn391	Zn39	0.322800	0.224750	0.099480
Zn401	Zn40	0.878460	0.099690	0.266480
Zn411	Zn41	0.331620	0.331620	0.005140
Zn421	Zn42	0.177200	0.147030	0.400520
Zn431	Zn43	0.275250	0.177200	0.400520
Zn441	Zn44	0.437970	0.121270	0.766120
Zn451	Zn45	0.744630	0.400310	0.233520
Zn461	Zn46	0.715270	0.784730	0.250000
H11	H1	0.263800	0.932600	0.003900
H21	H2	0.978000	0.370300	0.946900
H31	H3	0.076300	0.895000	0.590300
H41	H4	0.435500	0.384700	0.296700
H51	H5	0.178800	0.390900	0.708100
H61	H6	0.446400	0.829700	0.520400
H71	H7	0.053600	0.296500	0.979600
H81	H8	0.578600	0.059200	0.430400
H91	H9	0.179100	0.251000	0.567500
H101	H10	0.749000	0.997600	0.432500
H111	H11	0.097300	0.479600	0.028500
H121	H12	0.781400	0.722000	0.989500
H131	H13	0.006900	0.267300	0.586400
H141	H14	0.639400	0.767300	0.086400
H151	H15	0.214400	0.982300	0.365700
H161	H16	0.395000	0.576300	0.090300
H171	H17	0.864000	0.319200	0.352700
H181	H18	0.923700	0.105000	0.409700
H191	H19	0.686900	0.480300	0.949300
H201	H20	0.520400	0.605400	0.971500
H211	H21	0.540200	0.534600	0.835400
H221	H22	0.796500	0.553600	0.479600
H231	H23	0.519700	0.116500	0.050700
H241	H24	0.473000	0.793000	0.899800
H251	H25	0.278000	0.492900	0.010500
H261	H26	0.778000	0.718600	0.510500
H271	H27	0.061600	0.605000	0.909700
H281	H28	0.589800	0.034600	0.335400
H291	H29	0.402700	0.105400	0.471500
H301	H30	0.982300	0.437600	0.365700
H311	H31	0.034600	0.040200	0.335400
H321	H32	0.979600	0.597300	0.528500
H331	H33	0.679100	0.502400	0.067500
H341	H34	0.164600	0.998800	0.013500
H351	H35	0.068200	0.421400	0.569600
H361	H36	0.200300	0.736200	0.996100
H371	H37	0.116900	0.564500	0.703300
H381	H38	0.751000	0.679100	0.067500
H391	H39	0.067400	0.200300	0.996100
H401	H40	0.992900	0.778000	0.510500
H411	H41	0.605400	0.902700	0.971500
H421	H42	0.935200	0.582500	0.613000
H431	H43	0.112400	0.455700	0.814400
H441	H44	0.506900	0.639400	0.086400
H451	H45	0.535900	0.136000	0.647300
H461	H46	0.251000	0.002400	0.567500
H471	H47	0.233900	0.956900	0.753800
H481	H48	0.555400	0.456900	0.253800
H491	H49	0.929200	0.253700	0.945700
H501	H50	0.869300	0.935200	0.613000
H511	H51	0.502400	0.751000	0.067500
H521	H52	0.544300	0.382500	0.185600
H531	H53	0.795200	0.129700	0.553100
H541	H54	0.383100	0.884700	0.796700
H551	H55	0.186900	0.383500	0.449300
H561	H56	0.894600	0.979600	0.528500
H571	H57	0.236200	0.700300	0.496100
H581	H58	0.616900	0.115300	0.203300
H591	H59	0.394600	0.097300	0.028500
H601	H60	0.959800	0.410200	0.664600
H611	H61	0.464100	0.864000	0.352700
H621	H62	0.082500	0.435200	0.113000
H631	H63	0.296500	0.670300	0.979600
H641	H64	0.884700	0.935500	0.796700
H651	H65	0.733900	0.555400	0.253800
H661	H66	0.955700	0.612400	0.314400
H671	H67	0.819900	0.601800	0.106800
H681	H68	0.455700	0.617500	0.814400
H691	H69	0.044300	0.387600	0.685600
H701	H70	0.570800	0.628600	0.554300
H711	H71	0.383500	0.980300	0.449300
H721	H72	0.517700	0.285600	0.134300
H731	H73	0.078600	0.431800	0.930400
H741	H74	0.528500	0.180100	0.893200
H751	H75	0.700300	0.567400	0.496100
H761	H76	0.902700	0.520400	0.971500
H771	H77	0.382500	0.887600	0.185600
H781	H78	0.203500	0.446400	0.520400
H791	H79	0.959100	0.906600	0.628300
H801	H80	0.062400	0.517700	0.134300
H811	H81	0.997600	0.820900	0.432500
H821	H82	0.819200	0.364000	0.852700
H831	H83	0.890900	0.678800	0.208100
H841	H84	0.371400	0.753700	0.445700
H851	H85	0.507100	0.781400	0.989500
H861	H86	0.017700	0.562400	0.634300
H871	H87	0.605000	0.423700	0.909700
H881	H88	0.432600	0.763800	0.503900
H891	H89	0.539600	0.920300	0.829600
H901	H90	0.480300	0.883500	0.949300
H911	H91	0.665800	0.707000	0.600200
H921	H92	0.898200	0.680100	0.393200
H931	H93	0.597300	0.894600	0.528500
H941	H94	0.834200	0.473000	0.899800
H951	H95	0.431800	0.559200	0.930400
H961	H96	0.973000	0.334200	0.399800
H971	H97	0.313100	0.519700	0.050700
H981	H98	0.829700	0.203500	0.520400
H991	H99	0.390900	0.722200	0.708100
H1001	H100	0.678800	0.222200	0.208100
H1011	H101	0.534600	0.089800	0.835400
H1021	H102	0.249000	0.320900	0.932500
H1031	H103	0.369300	0.082500	0.113000
H1041	H104	0.704800	0.978000	0.946900
H1051	H105	0.636000	0.035900	0.147300
H1061	H106	0.028500	0.898200	0.393200
H1071	H107	0.553600	0.170300	0.479600
H1081	H108	0.564500	0.615300	0.703300
H1091	H109	0.222000	0.281400	0.489500
H1101	H110	0.871400	0.929200	0.945700
H1111	H111	0.093400	0.494000	0.371700
H1121	H112	0.329700	0.946400	0.020400
H1131	H113	0.438400	0.076300	0.590300
H1141	H114	0.497600	0.249000	0.932500
H1151	H115	0.944600	0.766100	0.246200
H1161	H116	0.040200	0.589800	0.335400
H1171	H117	0.417500	0.130700	0.387000
H1181	H118	0.935500	0.383100	0.796700
H1191	H119	0.471500	0.819900	0.106800
H1201	H120	0.079700	0.289500	0.170400
H1211	H121	0.001200	0.176900	0.986500
H1221	H122	0.360600	0.232700	0.913600
H1231	H123	0.299700	0.432600	0.503900
H1241	H124	0.527000	0.207000	0.100200
H1251	H125	0.965400	0.959800	0.664600
H1261	H126	0.321200	0.777800	0.791900
H1271	H127	0.777800	0.109100	0.791900
H1281	H128	0.994000	0.593400	0.871700
H1291	H129	0.710500	0.539600	0.829600
H1301	H130	0.820900	0.749000	0.432500
H1311	H131	0.628600	0.246300	0.554300
H1321	H132	0.437600	0.214400	0.365700
H1331	H133	0.089800	0.540200	0.835400
H1341	H134	0.960400	0.789500	0.670400
H1351	H135	0.998800	0.823100	0.013500
H1361	H136	0.753700	0.429200	0.445700
H1371	H137	0.501200	0.335400	0.486500
H1381	H138	0.568200	0.440800	0.069600
H1391	H139	0.320900	0.497600	0.932500
H1401	H140	0.180100	0.398200	0.893200
H1411	H141	0.022000	0.629700	0.053100
H1421	H142	0.921400	0.568200	0.069600
H1431	H143	0.821200	0.609100	0.291900
H1441	H144	0.165800	0.527000	0.100200
H1451	H145	0.938400	0.395000	0.090300
H1461	H146	0.423700	0.061600	0.909700
H1471	H147	0.522000	0.795200	0.553100
H1481	H148	0.116500	0.313100	0.050700
H1491	H149	0.421400	0.940800	0.569600
H1501	H150	0.540900	0.994000	0.871700
H1511	H151	0.420300	0.039600	0.329600
H1521	H152	0.115300	0.064500	0.203300
H1531	H153	0.285600	0.062400	0.134300
H1541	H154	0.964100	0.819200	0.852700
H1551	H155	0.870300	0.478000	0.446900
H1561	H156	0.410200	0.965400	0.664600
H1571	H157	0.222200	0.890900	0.208100
H1581	H158	0.920300	0.710500	0.829600
H1591	H159	0.883100	0.435500	0.296700
H1601	H160	0.105400	0.020400	0.471500
H1611	H161	0.002400	0.179100	0.567500
H1621	H162	0.793000	0.834200	0.899800
H1631	H163	0.616500	0.019700	0.550700
H1641	H164	0.559200	0.078600	0.930400
H1651	H165	0.232700	0.493100	0.913600
H1661	H166	0.440800	0.921400	0.069600
H1671	H167	0.835400	0.001200	0.986500
H1681	H168	0.334200	0.293000	0.399800
H1691	H169	0.387600	0.882500	0.685600
H1701	H170	0.722200	0.178800	0.708100
H1711	H171	0.479600	0.394600	0.028500
H1721	H172	0.406600	0.459100	0.128300
H1731	H173	0.364000	0.964100	0.852700
H1741	H174	0.732700	0.860600	0.413600
H1751	H175	0.444600	0.543100	0.746200
H1761	H176	0.459800	0.465400	0.164600
H1771	H177	0.117500	0.955700	0.314400
H1781	H178	0.210500	0.420300	0.329600
H1791	H179	0.576300	0.938400	0.090300
H1801	H180	0.932600	0.799700	0.003900
H1811	H181	0.946400	0.703500	0.020400
H1821	H182	0.460400	0.079700	0.170400
H1831	H183	0.253700	0.871400	0.945700
H1841	H184	0.676900	0.501200	0.486500
H1851	H185	0.931800	0.578600	0.430400
H1861	H186	0.218600	0.278000	0.010500
H1871	H187	0.910200	0.459800	0.164600
H1881	H188	0.459100	0.006000	0.128300
H1891	H189	0.492900	0.218600	0.010500
H1901	H190	0.993100	0.732700	0.413600
H1911	H191	0.493100	0.360600	0.913600
H1921	H192	0.887600	0.544300	0.185600
H1931	H193	0.027000	0.665800	0.600200
H1941	H194	0.718600	0.992900	0.510500
H1951	H195	0.064500	0.616900	0.203300
H1961	H196	0.370300	0.704800	0.946900
H1971	H197	0.204800	0.870300	0.446900
H1981	H198	0.435200	0.369300	0.113000
H1991	H199	0.035900	0.180800	0.147300
H2001	H200	0.615300	0.116900	0.703300
H2011	H201	0.019700	0.813100	0.550700
H2021	H202	0.562400	0.785600	0.634300
H2031	H203	0.860600	0.993100	0.413600
H2041	H204	0.664600	0.323100	0.513500
H2051	H205	0.478000	0.204800	0.446900
H2061	H206	0.277800	0.821200	0.291900
H2071	H207	0.267300	0.139400	0.586400
H2081	H208	0.680800	0.535900	0.647300
H2091	H209	0.176900	0.835400	0.986500
H2101	H210	0.335400	0.676900	0.486500
H2111	H211	0.722000	0.507100	0.989500
H2121	H212	0.789500	0.579700	0.670400
H2131	H213	0.323100	0.498800	0.513500
H2141	H214	0.384700	0.883100	0.296700
H2151	H215	0.064800	0.417500	0.387000
H2161	H216	0.006000	0.406600	0.128300
H2171	H217	0.593400	0.540900	0.871700
H2181	H218	0.543100	0.266100	0.746200
H2191	H219	0.109100	0.321200	0.791900
H2201	H220	0.506000	0.959100	0.628300
H2211	H221	0.295200	0.022000	0.053100
H2221	H222	0.465400	0.910200	0.164600
H2231	H223	0.319200	0.464100	0.352700
H2241	H224	0.105000	0.561600	0.409700
H2251	H225	0.007100	0.222000	0.489500
H2261	H226	0.055400	0.233900	0.753800
H2271	H227	0.799700	0.263800	0.003900
H2281	H228	0.767300	0.506900	0.086400
H2291	H229	0.940800	0.068200	0.569600
H2301	H230	0.895000	0.438400	0.590300
H2311	H231	0.707000	0.027000	0.600200
H2321	H232	0.917500	0.564800	0.887000
H2331	H233	0.130700	0.064800	0.387000
H2341	H234	0.128600	0.070800	0.054300
H2351	H235	0.703500	0.329700	0.020400
H2361	H236	0.612400	0.117500	0.314400
H2371	H237	0.714400	0.937600	0.865700
H2381	H238	0.498800	0.664600	0.513500
H2391	H239	0.763800	0.299700	0.503900
H2401	H240	0.398200	0.528500	0.893200
H2411	H241	0.629700	0.295200	0.053100
H2421	H242	0.746300	0.128600	0.054300
H2431	H243	0.129700	0.522000	0.553100
H2441	H244	0.482300	0.714400	0.865700
H2451	H245	0.101800	0.319900	0.606800
H2461	H246	0.882500	0.044300	0.685600
H2471	H247	0.617500	0.112400	0.814400
H2481	H248	0.766100	0.043100	0.246200
H2491	H249	0.319900	0.971500	0.606800
H2501	H250	0.785600	0.017700	0.634300
H2511	H251	0.680100	0.028500	0.393200
H2521	H252	0.564800	0.630700	0.887000
H2531	H253	0.494000	0.040900	0.371700
H2541	H254	0.207000	0.165800	0.100200
H2551	H255	0.561600	0.923700	0.409700
H2561	H256	0.040900	0.093400	0.371700
H2571	H257	0.246300	0.570800	0.554300
H2581	H258	0.980300	0.186900	0.449300
H2591	H259	0.039600	0.210500	0.329600
H2601	H260	0.059200	0.931800	0.430400
H2611	H261	0.281400	0.007100	0.489500
H2621	H262	0.609100	0.277800	0.291900
H2631	H263	0.601800	0.471500	0.106800
H2641	H264	0.266100	0.444600	0.746200
H2651	H265	0.429200	0.371400	0.445700
H2661	H266	0.937600	0.482300	0.865700
H2671	H267	0.293000	0.973000	0.399800
H2681	H268	0.582500	0.869300	0.613000
H2691	H269	0.956900	0.055400	0.753800
H2701	H270	0.670300	0.053600	0.979600
H2711	H271	0.289500	0.460400	0.170400
H2721	H272	0.579700	0.960400	0.670400
H2731	H273	0.456900	0.733900	0.253800
H2741	H274	0.906600	0.506000	0.628300
H2751	H275	0.170300	0.796500	0.479600
H2761	H276	0.736200	0.067400	0.996100
H2771	H277	0.136000	0.680800	0.647300
H2781	H278	0.043100	0.944600	0.246200
H2791	H279	0.567400	0.236200	0.496100
H2801	H280	0.883500	0.686900	0.949300
H2811	H281	0.823100	0.164600	0.013500
H2821	H282	0.070800	0.746300	0.054300
H2831	H283	0.971500	0.101800	0.606800
H2841	H284	0.630700	0.917500	0.887000
H2851	H285	0.813100	0.616500	0.550700
H2861	H286	0.139400	0.006900	0.586400
H2871	H287	0.180800	0.636000	0.147300
H2881	H288	0.020400	0.402700	0.471500
C11	C1	0.014560	0.733710	0.808270
C21	C2	0.401830	0.935530	0.855910
C31	C3	0.628310	0.956610	0.871970
C41	C4	0.626310	0.808210	0.071670
C51	C5	0.569700	0.192330	0.725920
C61	C6	0.682160	0.183990	0.212600
C71	C7	0.578750	0.316010	0.287400
C81	C8	0.807670	0.487950	0.274080
C91	C9	0.324850	0.973350	0.164450
C101	C10	0.059280	0.528580	0.841460
C111	C11	0.598170	0.064470	0.144090
C121	C12	0.787300	0.529000	0.472700
C131	C13	0.317840	0.816010	0.787400
C141	C14	0.072930	0.478230	0.828110
C151	C15	0.805150	0.439400	0.263250
C161	C16	0.309540	0.994240	0.505580
C171	C17	0.021830	0.328430	0.525110
C181	C18	0.238610	0.549310	0.164070
C191	C19	0.535900	0.249900	0.483200
C201	C20	0.315380	0.333080	0.384560
C211	C21	0.031750	0.505950	0.141050
C221	C22	0.084800	0.671300	0.352700
C231	C23	0.285420	0.141820	0.498140
C241	C24	0.410710	0.089110	0.573770
C251	C25	0.343920	0.642420	0.741040
C261	C26	0.574620	0.641820	0.998140
C271	C27	0.502500	0.074300	0.363000
C281	C28	0.521830	0.624630	0.025110
C291	C29	0.048010	0.238610	0.164070
C301	C30	0.891200	0.084800	0.352700
C311	C31	0.987950	0.307670	0.774080
C321	C32	0.272620	0.343920	0.741040
C331	C33	0.734490	0.076620	0.235460
C341	C34	0.493810	0.626310	0.071670
C351	C35	0.834580	0.708480	0.448460
C361	C36	0.401230	0.545230	0.947110
C371	C37	0.822910	0.020120	0.796970
C381	C38	0.266290	0.556540	0.191730
C391	C39	0.675150	0.026650	0.835550
C401	C40	0.556540	0.985440	0.191730
C411	C41	0.453430	0.576620	0.735460
C421	C42	0.875610	0.588510	0.494270
C431	C43	0.943460	0.233710	0.308270
C441	C44	0.088510	0.375610	0.994270
C451	C45	0.880060	0.974720	0.790310
C461	C46	0.069700	0.012050	0.225920
C471	C47	0.785420	0.574620	0.998140
C481	C48	0.769920	0.514520	0.865840
C491	C49	0.950690	0.261390	0.335930
C501	C50	0.316010	0.817840	0.287400
C511	C51	0.979880	0.640000	0.203030
C521	C52	0.156080	0.227380	0.758960
C531	C53	0.889130	0.501730	0.002910
C541	C54	0.060200	0.502500	0.363000
C551	C55	0.178750	0.994050	0.358950
C561	C56	0.541610	0.088510	0.994270
C571	C57	0.120730	0.978230	0.328110
C581	C58	0.265510	0.923380	0.764540
C591	C59	0.809540	0.690640	0.005580
C601	C60	0.930300	0.987950	0.774080
C611	C61	0.714580	0.858180	0.501860
C621	C62	0.182160	0.421250	0.712600
C631	C63	0.208820	0.048320	0.062640
C641	C64	0.966980	0.315380	0.384560
C651	C65	0.994050	0.468250	0.358950
C661	C66	0.060600	0.694850	0.236750
C671	C67	0.830560	0.485360	0.451820
C681	C68	0.608800	0.828700	0.147300
C691	C69	0.939400	0.305150	0.763250
C701	C70	0.471420	0.429320	0.158540
C711	C71	0.214580	0.425380	0.001860
C721	C72	0.229410	0.408030	0.728800
C731	C73	0.505760	0.190460	0.994420
C741	C74	0.227380	0.857580	0.758960
C751	C75	0.656080	0.357580	0.258960
C761	C76	0.971000	0.712700	0.027300
C771	C77	0.559280	0.070680	0.341460
C781	C78	0.119940	0.025280	0.209690
C791	C79	0.588920	0.930020	0.027540
C801	C80	0.876130	0.833330	0.880810
C811	C81	0.025280	0.645090	0.209690
C821	C82	0.409730	0.876130	0.880810
C831	C83	0.667090	0.027490	0.425030
C841	C84	0.573590	0.410890	0.926230
C851	C85	0.939800	0.497500	0.637000
C861	C86	0.492200	0.805150	0.263250
C871	C87	0.921250	0.682160	0.212600
C881	C88	0.241800	0.409400	0.341600
C891	C89	0.035900	0.231000	0.983200
C901	C90	0.007200	0.241800	0.341600
C911	C91	0.177090	0.979880	0.203030
C921	C92	0.749900	0.035900	0.983200
C931	C93	0.119610	0.332910	0.574970
C941	C94	0.078750	0.317840	0.787400
C951	C95	0.091970	0.270590	0.771200
C961	C96	0.590270	0.123870	0.119190
C971	C97	0.291180	0.819780	0.437360
C981	C98	0.309840	0.716040	0.475880
C991	C99	0.106430	0.401230	0.947110
C1001	C100	0.951990	0.761390	0.835930
C1011	C101	0.358180	0.214580	0.001860
C1021	C102	0.998270	0.610870	0.497090
C1031	C103	0.393770	0.110870	0.997090
C1041	C104	0.671570	0.875370	0.474890
C1051	C105	0.765510	0.546570	0.264540
C1061	C106	0.544930	0.668930	0.548210
C1071	C107	0.110870	0.498270	0.997090
C1081	C108	0.451680	0.291180	0.437360
C1091	C109	0.543110	0.628310	0.871970
C1101	C110	0.962650	0.526650	0.335550
C1111	C111	0.666920	0.033020	0.615440
C1121	C112	0.930020	0.453520	0.027540
C1131	C113	0.849720	0.769920	0.865840
C1141	C114	0.729410	0.133760	0.228800
C1151	C115	0.514520	0.849720	0.865840
C1161	C116	0.090270	0.666670	0.619190
C1171	C117	0.854910	0.474720	0.290310
C1181	C118	0.666670	0.623870	0.619190
C1191	C119	0.046480	0.569980	0.472460
C1201	C120	0.391710	0.150310	0.903670
C1211	C121	0.815380	0.466980	0.884560
C1221	C122	0.791180	0.951680	0.937360
C1231	C123	0.456890	0.371690	0.128030
C1241	C124	0.824850	0.037350	0.664450
C1251	C125	0.056540	0.766290	0.691730
C1261	C126	0.537350	0.324850	0.164450
C1271	C127	0.546570	0.423380	0.264540
C1281	C128	0.772620	0.142420	0.241040
C1291	C129	0.089110	0.926410	0.573770
C1301	C130	0.069980	0.546480	0.972460
C1311	C131	0.588510	0.041610	0.494270
C1321	C132	0.521770	0.379270	0.171890
C1331	C133	0.075300	0.248600	0.372500
C1341	C134	0.366240	0.770590	0.271200
C1351	C135	0.380060	0.854910	0.290310
C1361	C136	0.194850	0.560600	0.736750
C1371	C137	0.576620	0.234490	0.735460
C1381	C138	0.528580	0.570680	0.841460
C1391	C139	0.589290	0.910890	0.426230
C1401	C140	0.166670	0.590270	0.119190
C1411	C141	0.977900	0.169800	0.481400
C1421	C142	0.333080	0.966980	0.384560
C1431	C143	0.748600	0.575300	0.872500
C1441	C144	0.027490	0.880390	0.425030
C1451	C145	0.708820	0.180220	0.562640
C1461	C146	0.564470	0.098170	0.644090
C1471	C147	0.843920	0.772620	0.241040
C1481	C148	0.690640	0.494240	0.005580
C1491	C149	0.250100	0.964100	0.016800
C1501	C150	0.507200	0.909400	0.841600
C1511	C151	0.901830	0.306730	0.355910
C1521	C152	0.291520	0.991520	0.551540
C1531	C153	0.333330	0.376130	0.380810
C1541	C154	0.415200	0.608800	0.147300
C1551	C155	0.012050	0.692330	0.225920
C1561	C156	0.806730	0.401830	0.855910
C1571	C157	0.485440	0.056540	0.691730
C1581	C158	0.020120	0.360000	0.796970
C1591	C159	0.527490	0.167090	0.925030
C1601	C160	0.991520	0.165420	0.551540
C1611	C161	0.893770	0.998270	0.497090
C1621	C162	0.893570	0.598770	0.052890
C1631	C163	0.669440	0.267740	0.048180
C1641	C164	0.166920	0.184620	0.115440
C1651	C165	0.289000	0.971000	0.027300
C1661	C166	0.985440	0.266290	0.191730
C1671	C167	0.955070	0.262070	0.951790
C1681	C168	0.165420	0.291520	0.551540
C1691	C169	0.974720	0.354910	0.790310
C1701	C170	0.485360	0.232260	0.451820
C1711	C171	0.373690	0.191790	0.928330
C1721	C172	0.909400	0.741800	0.841600
C1731	C173	0.945690	0.349690	0.596330
C1741	C174	0.237930	0.544930	0.548210
C1751	C175	0.462650	0.675150	0.835550
C1761	C176	0.816010	0.078750	0.787400
C1771	C177	0.466980	0.833080	0.884560
C1781	C178	0.445690	0.608290	0.096330
C1791	C179	0.543390	0.871690	0.628030
C1801	C180	0.014520	0.269920	0.365840
C1811	C181	0.287300	0.711000	0.972700
C1821	C182	0.954770	0.098770	0.552890
C1831	C183	0.789000	0.212700	0.527300
C1841	C184	0.421250	0.683990	0.712600
C1851	C185	0.303600	0.075300	0.372500
C1861	C186	0.435530	0.901830	0.355910
C1871	C187	0.828700	0.415200	0.147300
C1881	C188	0.126310	0.993810	0.571670
C1891	C189	0.668930	0.237930	0.548210
C1901	C190	0.731000	0.535900	0.483200
C1911	C191	0.925700	0.939800	0.637000
C1921	C192	0.985480	0.730080	0.634160
C1931	C193	0.262070	0.831070	0.951790
C1941	C194	0.953430	0.734490	0.235460
C1951	C195	0.929320	0.971420	0.658540
C1961	C196	0.871690	0.956890	0.628030
C1971	C197	0.283960	0.501760	0.524120
C1981	C198	0.620730	0.072930	0.828110
C1991	C199	0.045230	0.901230	0.447110
C2001	C200	0.832910	0.619610	0.074970
C2011	C201	0.454770	0.893570	0.052890
C2021	C202	0.680220	0.208820	0.062640
C2031	C203	0.054310	0.650310	0.403670
C2041	C204	0.175150	0.962650	0.335550
C2051	C205	0.624630	0.828430	0.025110
C2061	C206	0.309360	0.505760	0.994420
C2071	C207	0.968250	0.494050	0.858950
C2081	C208	0.665420	0.491520	0.051540
C2091	C209	0.043390	0.456890	0.128030
C2101	C210	0.671300	0.891200	0.352700
C2111	C211	0.993810	0.308210	0.571670
C2121	C212	0.693270	0.564470	0.644090
C2131	C213	0.430300	0.807670	0.274080
C2141	C214	0.738610	0.548010	0.664070
C2151	C215	0.891710	0.054310	0.403670
C2161	C216	0.828430	0.521830	0.025110
C2171	C217	0.427070	0.879270	0.671890
C2181	C218	0.690460	0.005760	0.494420
C2191	C219	0.129100	0.330200	0.018600
C2201	C220	0.529000	0.211000	0.472700
C2211	C221	0.973350	0.537350	0.164450
C2221	C222	0.371690	0.043390	0.128030
C2231	C223	0.426410	0.589110	0.073770
C2241	C224	0.334580	0.508480	0.948460
C2251	C225	0.833080	0.815380	0.884560
C2261	C226	0.455070	0.331070	0.451790
C2271	C227	0.641820	0.785420	0.998140
C2281	C228	0.522100	0.129100	0.018600
C2291	C229	0.349690	0.108290	0.596330
C2301	C230	0.683990	0.182160	0.712600
C2311	C231	0.425380	0.358180	0.001860
C2321	C232	0.440720	0.929320	0.658540
C2331	C233	0.168930	0.044930	0.048210
C2341	C234	0.692330	0.069700	0.225920
C2351	C235	0.389130	0.106230	0.502910
C2361	C236	0.393570	0.954770	0.552890
C2371	C237	0.951680	0.319780	0.937360
C2381	C238	0.953520	0.430020	0.527540
C2391	C239	0.328700	0.108800	0.647300
C2401	C240	0.379270	0.927070	0.171890
C2411	C241	0.526650	0.175150	0.335550
C2421	C242	0.073590	0.589290	0.426230
C2431	C243	0.251400	0.424700	0.127500
C2441	C244	0.678750	0.968250	0.858950
C2451	C245	0.608290	0.849690	0.096330
C2461	C246	0.548320	0.708820	0.562640
C2471	C247	0.650280	0.985480	0.634160
C2481	C248	0.211000	0.787300	0.472700
C2491	C249	0.956610	0.543110	0.871970
C2501	C250	0.360000	0.822910	0.796970
C2511	C251	0.821250	0.005950	0.641050
C2521	C252	0.809360	0.690460	0.494420
C2531	C253	0.992800	0.758200	0.658400
C2541	C254	0.192330	0.512050	0.725920
C2551	C255	0.133760	0.908030	0.228800
C2561	C256	0.349720	0.014520	0.365840
C2571	C257	0.808210	0.493810	0.071670
C2581	C258	0.026650	0.462650	0.835550
C2591	C259	0.183990	0.921250	0.212600
C2601	C260	0.494240	0.809540	0.005580
C2611	C261	0.751400	0.696400	0.627500
C2621	C262	0.487950	0.430300	0.274080
C2631	C263	0.370900	0.977900	0.481400
C2641	C264	0.108800	0.915200	0.647300
C2651	C265	0.762070	0.455070	0.451790
C2661	C266	0.150280	0.230080	0.134160
C2671	C267	0.858180	0.925380	0.501860
C2681	C268	0.642420	0.272620	0.741040
C2691	C269	0.005760	0.809360	0.494420
C2701	C270	0.598770	0.454770	0.052890
C2711	C271	0.909730	0.333330	0.380810
C2721	C272	0.098770	0.393570	0.552890
C2731	C273	0.761390	0.450690	0.835930
C2741	C274	0.049310	0.738610	0.664070
C2751	C275	0.410890	0.089290	0.926230
C2761	C276	0.248600	0.303600	0.372500
C2771	C277	0.001730	0.389130	0.502910
C2781	C278	0.357580	0.727380	0.258960
C2791	C279	0.831070	0.955070	0.951790
C2801	C280	0.453520	0.588920	0.027540
C2811	C281	0.041610	0.875610	0.494270
C2821	C282	0.935530	0.806730	0.855910
C2831	C283	0.926410	0.410710	0.573770
C2841	C284	0.915200	0.328700	0.647300
C2851	C285	0.322910	0.860000	0.296970
C2861	C286	0.190460	0.309360	0.994420
C2871	C287	0.791520	0.665420	0.051540
C2881	C288	0.142420	0.843920	0.241040
C2891	C289	0.712700	0.289000	0.027300
C2901	C290	0.184620	0.533020	0.115440
C2911	C291	0.650310	0.891710	0.403670
C2921	C292	0.191790	0.506190	0.928330
C2931	C293	0.923380	0.046570	0.764540
C2941	C294	0.014640	0.669440	0.048180
C2951	C295	0.750100	0.269000	0.516800
C2961	C296	0.554310	0.391710	0.903670
C2971	C297	0.514560	0.943460	0.308270
C2981	C298	0.767740	0.169440	0.548180
C2991	C299	0.269920	0.349720	0.365840
C3001	C300	0.591970	0.366240	0.271200
C3011	C301	0.411080	0.069980	0.972460
C3021	C302	0.924700	0.751400	0.627500
C3031	C303	0.956890	0.543390	0.628030
C3041	C304	0.076620	0.953430	0.235460
C3051	C305	0.332910	0.972510	0.574970
C3061	C306	0.124630	0.021830	0.525110
C3071	C307	0.450690	0.951990	0.835930
C3081	C308	0.408030	0.633760	0.728800
C3091	C309	0.501730	0.606230	0.002910
C3101	C310	0.424700	0.196400	0.127500
C3111	C311	0.548010	0.049310	0.664070
C3121	C312	0.074620	0.285420	0.498140
C3131	C313	0.783960	0.190160	0.024120
C3141	C314	0.232260	0.830560	0.451820
C3151	C315	0.506190	0.373690	0.928330
C3161	C316	0.233710	0.514560	0.308270
C3171	C317	0.391200	0.171300	0.852700
C3181	C318	0.590600	0.992800	0.658400
C3191	C319	0.494050	0.678750	0.858950
C3201	C320	0.998240	0.216040	0.975880
C3211	C321	0.234490	0.453430	0.735460
C3221	C322	0.677090	0.140000	0.703030
C3231	C323	0.971420	0.440720	0.658540
C3241	C324	0.879270	0.021770	0.671890
C3251	C325	0.633760	0.229410	0.728800
C3261	C326	0.817840	0.578750	0.287400
C3271	C327	0.070680	0.028580	0.341460
C3281	C328	0.380390	0.527490	0.925030
C3291	C329	0.531750	0.821250	0.641050
C3301	C330	0.451990	0.950690	0.335930
C3311	C331	0.940720	0.471420	0.158540
C3321	C332	0.430020	0.088920	0.527540
C3331	C333	0.911080	0.046480	0.472460
C3341	C334	0.212700	0.471000	0.527300
C3351	C335	0.508480	0.208480	0.948460
C3361	C336	0.570680	0.059280	0.841460
C3371	C337	0.002500	0.560200	0.863000
C3381	C338	0.478170	0.375370	0.974890
C3391	C339	0.028580	0.559280	0.341460
C3401	C340	0.216040	0.809840	0.975880
C3411	C341	0.925380	0.714580	0.501860
C3421	C342	0.560600	0.507800	0.736750
C3431	C343	0.560200	0.574300	0.863000
C3441	C344	0.171300	0.584800	0.852700
C3451	C345	0.230080	0.485480	0.134160
C3461	C346	0.606230	0.889130	0.002910
C3471	C347	0.696400	0.924700	0.627500
C3481	C348	0.819780	0.451680	0.437360
C3491	C349	0.429320	0.940720	0.158540
C3501	C350	0.694850	0.007800	0.236750
C3511	C351	0.169800	0.370900	0.481400
C3521	C352	0.270590	0.866240	0.771200
C3531	C353	0.464100	0.750100	0.516800
C3541	C354	0.375370	0.171570	0.974890
C3551	C355	0.321250	0.031750	0.141050
C3561	C356	0.477900	0.870900	0.981400
C3571	C357	0.021770	0.427070	0.671890
C3581	C358	0.001760	0.783960	0.024120
C3591	C359	0.569980	0.911080	0.472460
C3601	C360	0.645090	0.119940	0.209690
C3611	C361	0.479880	0.677090	0.703030
C3621	C362	0.007800	0.060600	0.236750
C3631	C363	0.328430	0.124630	0.525110
C3641	C364	0.064470	0.193270	0.144090
C3651	C365	0.443460	0.014560	0.808270
C3661	C366	0.733710	0.443460	0.808270
C3671	C367	0.006190	0.691790	0.428330
C3681	C368	0.231000	0.749900	0.983200
C3691	C369	0.439800	0.425700	0.137000
C3701	C370	0.629100	0.022100	0.518600
C3711	C371	0.512050	0.569700	0.725920
C3721	C372	0.507800	0.194850	0.736750
C3731	C373	0.770590	0.591970	0.271200
C3741	C374	0.737930	0.168930	0.048210
C3751	C375	0.208480	0.334580	0.948460
C3761	C376	0.269000	0.464100	0.516800
C3771	C377	0.866240	0.091970	0.771200
C3781	C378	0.008480	0.834580	0.448460
C3791	C379	0.833330	0.409730	0.880810
C3801	C380	0.927070	0.521770	0.171890
C3811	C381	0.128310	0.043110	0.371970
C3821	C382	0.330200	0.522100	0.018600
C3831	C383	0.473350	0.824850	0.664450
C3841	C384	0.474720	0.380060	0.290310
C3851	C385	0.169440	0.514640	0.548180
C3861	C386	0.319780	0.791180	0.937360
C3871	C387	0.860000	0.520120	0.296970
C3881	C388	0.193270	0.598170	0.144090
C3891	C389	0.910890	0.073590	0.426230
C3901	C390	0.901230	0.606430	0.447110
C3911	C391	0.497500	0.925700	0.637000
C3921	C392	0.167090	0.380390	0.925030
C3931	C393	0.491520	0.791520	0.051540
C3941	C394	0.306730	0.435530	0.355910
C3951	C395	0.472510	0.832910	0.074970
C3961	C396	0.606430	0.045230	0.447110
C3971	C397	0.809840	0.998240	0.975880
C3981	C398	0.849690	0.445690	0.096330
C3991	C399	0.525280	0.619940	0.709690
C4001	C400	0.716040	0.498240	0.475880
C4011	C401	0.803600	0.748600	0.872500
C4021	C402	0.048320	0.680220	0.062640
C4031	C403	0.997500	0.439800	0.137000
C4041	C404	0.258200	0.492800	0.158400
C4051	C405	0.978230	0.572930	0.328110
C4061	C406	0.727380	0.656080	0.258960
C4071	C407	0.261390	0.451990	0.335930
C4081	C408	0.190640	0.309540	0.505580
C4091	C409	0.619940	0.145090	0.709690
C4101	C410	0.308210	0.126310	0.571670
C4111	C411	0.908030	0.729410	0.228800
C4121	C412	0.425700	0.997500	0.137000
C4131	C413	0.549310	0.048010	0.164070
C4141	C414	0.106230	0.001730	0.502910
C4151	C415	0.145090	0.525280	0.709690
C4161	C416	0.584800	0.391200	0.852700
C4171	C417	0.171570	0.478170	0.974890
C4181	C418	0.089290	0.573590	0.926230
C4191	C419	0.123870	0.166670	0.119190
C4201	C420	0.439400	0.492200	0.263250
C4211	C421	0.589110	0.910710	0.073770
C4221	C422	0.043110	0.456610	0.371970
C4231	C423	0.354910	0.880060	0.790310
C4241	C424	0.958390	0.124390	0.505730
C4251	C425	0.574300	0.002500	0.863000
C4261	C426	0.190160	0.001760	0.024120
C4271	C427	0.046570	0.265510	0.764540
C4281	C428	0.766290	0.485440	0.691730
C4291	C429	0.711000	0.029000	0.972700
C4301	C430	0.730080	0.650280	0.634160
C4311	C431	0.972510	0.119610	0.574970
C4321	C432	0.623870	0.090270	0.619190
C4331	C433	0.267740	0.014640	0.048180
C4341	C434	0.423380	0.765510	0.264540
C4351	C435	0.857580	0.156080	0.758960
C4361	C436	0.037350	0.473350	0.664450
C4371	C437	0.409400	0.007200	0.341600
C4381	C438	0.330560	0.732260	0.951820
C4391	C439	0.141820	0.074620	0.498140
C4401	C440	0.985360	0.330560	0.951820
C4411	C441	0.456610	0.128310	0.371970
C4421	C442	0.458390	0.911490	0.005730
C4431	C443	0.140000	0.479880	0.703030
C4441	C444	0.880390	0.667090	0.425030
C4451	C445	0.108290	0.945690	0.596330
C4461	C446	0.830200	0.629100	0.518600
C4471	C447	0.307670	0.930300	0.774080
C4481	C448	0.533020	0.166920	0.115440
C4491	C449	0.124390	0.411490	0.505730
C4501	C450	0.501760	0.690160	0.524120
C4511	C451	0.375610	0.541610	0.994270
C4521	C452	0.376130	0.909730	0.380810
C4531	C453	0.575300	0.803600	0.872500
C4541	C454	0.331070	0.762070	0.451790
C4551	C455	0.498270	0.393770	0.997090
C4561	C456	0.196400	0.251400	0.127500
C4571	C457	0.044930	0.737930	0.048210
C4581	C458	0.619610	0.472510	0.074970
C4591	C459	0.022100	0.830200	0.518600
C4601	C460	0.249900	0.731000	0.483200
C4611	C461	0.978170	0.671570	0.474890
C4621	C462	0.520120	0.322910	0.296970
C4631	C463	0.994240	0.190640	0.505580
C4641	C464	0.875370	0.978170	0.474890
C4651	C465	0.964100	0.769000	0.016800
C4661	C466	0.468250	0.178750	0.358950
C4671	C467	0.485480	0.150280	0.134160
C4681	C468	0.090600	0.258200	0.158400
C4691	C469	0.691790	0.873690	0.428330
C4701	C470	0.992200	0.939400	0.763250
C4711	C471	0.514640	0.767740	0.548180
C4721	C472	0.546480	0.411080	0.972460
C4731	C473	0.572930	0.120730	0.328110
C4741	C474	0.684620	0.666920	0.615440
C4751	C475	0.911490	0.624390	0.005730
C4761	C476	0.610870	0.893770	0.497090
C4771	C477	0.005950	0.531750	0.641050
C4781	C478	0.088920	0.953520	0.527540
C4791	C479	0.708480	0.008480	0.448460
C4801	C480	0.769000	0.250100	0.016800
C4811	C481	0.505950	0.321250	0.141050
C4821	C482	0.910710	0.426410	0.073770
C4831	C483	0.033020	0.684620	0.615440
C4841	C484	0.492800	0.090600	0.158400
C4851	C485	0.640000	0.177090	0.203030
C4861	C486	0.074300	0.060200	0.363000
C4871	C487	0.690160	0.283960	0.524120
C4881	C488	0.411490	0.958390	0.505730
C4891	C489	0.732260	0.985360	0.951820
C4901	C490	0.471000	0.789000	0.527300
C4911	C491	0.873690	0.006190	0.428330
C4921	C492	0.669800	0.477900	0.981400
C4931	C493	0.741800	0.507200	0.841600
C4941	C494	0.624390	0.458390	0.005730
C4951	C495	0.545230	0.106430	0.947110
C4961	C496	0.870900	0.669800	0.981400
C4971	C497	0.498240	0.309840	0.475880
C4981	C498	0.150310	0.554310	0.903670
C4991	C499	0.305150	0.992200	0.763250
C5001	C500	0.758200	0.590600	0.658400
C5011	C501	0.180220	0.548320	0.562640
C5021	C502	0.029000	0.287300	0.972700
C5031	C503	0.098170	0.693270	0.644090
C5041	C504	0.478230	0.620730	0.828110
N11	N1	0.620940	0.637640	0.600080
N21	N2	0.273850	0.909450	0.314550
N31	N3	0.120940	0.641340	0.100080
N41	N4	0.893800	0.527000	0.521600
N51	N5	0.497850	0.726150	0.685450
N61	N6	0.543740	0.224240	0.319380
N71	N7	0.862360	0.879060	0.899920
N81	N8	0.090550	0.497850	0.685450
N91	N9	0.275760	0.956260	0.180620
N101	N10	0.572480	0.991480	0.000360
N111	N11	0.606200	0.442400	0.978400
N121	N12	0.991480	0.435680	0.000360
N131	N13	0.775760	0.087360	0.680620
N141	N14	0.909450	0.502150	0.314550
N151	N15	0.807870	0.905770	0.916690
N161	N16	0.587360	0.275760	0.180620
N171	N17	0.641340	0.137640	0.100080
N181	N18	0.393800	0.557600	0.021600
N191	N19	0.141340	0.620940	0.600080
N201	N20	0.879060	0.358660	0.899920
N211	N21	0.427520	0.008520	0.999640
N221	N22	0.379060	0.362360	0.399920
N231	N23	0.927520	0.064320	0.499640
N241	N24	0.002150	0.409450	0.814550
N251	N25	0.527000	0.057600	0.521600
N261	N26	0.473000	0.942400	0.478400
N271	N27	0.087360	0.456260	0.680620
N281	N28	0.412640	0.724240	0.819380
N291	N29	0.692130	0.130330	0.583310
N301	N30	0.137640	0.120940	0.100080
N311	N31	0.557600	0.027000	0.021600
N321	N32	0.491480	0.072480	0.500360
N331	N33	0.405770	0.307870	0.416690
N341	N34	0.594230	0.692130	0.583310
N351	N35	0.307870	0.869670	0.416690
N361	N36	0.442400	0.973000	0.978400
N371	N37	0.094230	0.630330	0.083310
N381	N38	0.997850	0.590550	0.185450
N391	N39	0.008520	0.564320	0.999640
N401	N40	0.226150	0.997850	0.185450
N411	N41	0.072480	0.935680	0.500360
N421	N42	0.064320	0.508520	0.499640
N431	N43	0.630330	0.192130	0.083310
N441	N44	0.369670	0.807870	0.916690
N451	N45	0.456260	0.775760	0.680620
N461	N46	0.564320	0.427520	0.999640
N471	N47	0.224240	0.912640	0.319380
N481	N48	0.358660	0.862360	0.899920
N491	N49	0.858660	0.379060	0.399920
N501	N50	0.973000	0.606200	0.978400
N511	N51	0.912640	0.543740	0.319380
N521	N52	0.508520	0.927520	0.499640
N531	N53	0.726150	0.090550	0.685450
N541	N54	0.637640	0.141340	0.600080
N551	N55	0.027000	0.393800	0.021600
N561	N56	0.942400	0.106200	0.478400
N571	N57	0.502150	0.273850	0.314550
N581	N58	0.905770	0.369670	0.916690
N591	N59	0.362360	0.858660	0.399920
N601	N60	0.935680	0.491480	0.500360
N611	N61	0.773850	0.002150	0.814550
N621	N62	0.106200	0.473000	0.478400
N631	N63	0.057600	0.893800	0.521600
N641	N64	0.192130	0.094230	0.083310
N651	N65	0.590550	0.226150	0.185450
N661	N66	0.130330	0.594230	0.583310
N671	N67	0.724240	0.043740	0.819380
N681	N68	0.956260	0.587360	0.180620
N691	N69	0.869670	0.405770	0.416690
N701	N70	0.409450	0.773850	0.814550
N711	N71	0.043740	0.412640	0.819380
N721	N72	0.435680	0.572480	0.000360
O11	O1	0.677640	0.889330	0.628070
O21	O2	0.131440	0.619710	0.831370
O31	O3	0.094450	0.231260	0.520130
O41	O4	0.119710	0.631440	0.331370
O51	O5	0.654160	0.731260	0.020130
O61	O6	0.177640	0.304960	0.128070
O71	O7	0.108390	0.649020	0.237080
O81	O8	0.994490	0.891610	0.762920
O91	O9	0.240920	0.806350	0.757910
O101	O10	0.372110	0.199550	0.744430
O111	O11	0.864700	0.073120	0.335660
O121	O12	0.914550	0.712620	0.622340
O131	O13	0.257980	0.036250	0.755060
O141	O14	0.358520	0.192240	0.044310
O151	O15	0.244190	0.606870	0.200910
O161	O16	0.494490	0.850980	0.262920
O171	O17	0.582520	0.868560	0.168630
O181	O18	0.183910	0.699550	0.244430
O191	O19	0.595070	0.641480	0.955690
O201	O20	0.872110	0.183910	0.244430
O211	O21	0.850980	0.391610	0.262920
O221	O22	0.380290	0.582520	0.168630
O231	O23	0.926880	0.273480	0.664340
O241	O24	0.307760	0.141480	0.455690
O251	O25	0.880290	0.368560	0.668630
O261	O26	0.316090	0.627890	0.255570
O271	O27	0.809850	0.470320	0.706280
O281	O28	0.889330	0.804960	0.628070
O291	O29	0.845840	0.905550	0.479870
O301	O30	0.141480	0.095070	0.455690
O311	O31	0.334430	0.596750	0.750280
O321	O32	0.986450	0.190150	0.293720
O331	O33	0.448030	0.106870	0.700910
O341	O34	0.917480	0.119710	0.331370
O351	O35	0.414550	0.250490	0.122340
O361	O36	0.694820	0.306350	0.257910
O371	O37	0.073120	0.726520	0.335660
O381	O38	0.834430	0.818540	0.250280
O391	O39	0.807760	0.595070	0.955690
O401	O40	0.773480	0.426880	0.164340
O411	O41	0.950710	0.257980	0.755060
O421	O42	0.106870	0.744190	0.700910
O431	O43	0.585450	0.749510	0.877660
O441	O44	0.404930	0.358520	0.044310
O451	O45	0.805180	0.759080	0.242090
O461	O46	0.231260	0.154160	0.520130
O471	O47	0.903250	0.165570	0.749720
O481	O48	0.350980	0.994490	0.762920
O491	O49	0.049290	0.742020	0.244940
O501	O50	0.192240	0.404930	0.044310
O511	O51	0.695040	0.610670	0.871930
O521	O52	0.816090	0.300450	0.755570
O531	O53	0.641480	0.807760	0.955690
O541	O54	0.463750	0.242020	0.744940
O551	O55	0.450710	0.536250	0.255060
O561	O56	0.804960	0.677640	0.628070
O571	O57	0.181460	0.903250	0.749720
O581	O58	0.712620	0.750490	0.622340
O591	O59	0.822360	0.695040	0.871930
O601	O60	0.631440	0.917480	0.331370
O611	O61	0.549290	0.463750	0.744940
O621	O62	0.692240	0.858520	0.544310
O631	O63	0.742020	0.963750	0.244940
O641	O64	0.608390	0.505510	0.737080
O651	O65	0.529680	0.986450	0.293720
O661	O66	0.619710	0.417480	0.831370
O671	O67	0.573120	0.364700	0.835660
O681	O68	0.893130	0.255810	0.299090
O691	O69	0.199550	0.683910	0.744430
O701	O70	0.393130	0.051970	0.799090
O711	O71	0.405550	0.345840	0.979870
O721	O72	0.691250	0.691250	0.926250
O731	O73	0.693650	0.259080	0.742090
O741	O74	0.868560	0.380290	0.168630
O751	O75	0.800450	0.316090	0.255570
O761	O76	0.149020	0.608390	0.737080
O771	O77	0.699550	0.872110	0.244430
O781	O78	0.308750	0.308750	0.073750
O791	O79	0.250490	0.212620	0.122340
O801	O80	0.486450	0.029680	0.793720
O811	O81	0.403250	0.681460	0.249720
O821	O82	0.750490	0.914550	0.622340
O831	O83	0.096750	0.834430	0.250280
O841	O84	0.649020	0.005510	0.237080
O851	O85	0.368560	0.082520	0.668630
O861	O86	0.322360	0.110670	0.371930
O871	O87	0.665570	0.403250	0.249720
O881	O88	0.740920	0.694820	0.257910
O891	O89	0.195040	0.322360	0.371930
O901	O90	0.082520	0.880290	0.668630
O911	O91	0.212620	0.414550	0.122340
O921	O92	0.259080	0.305180	0.742090
O931	O93	0.226520	0.573120	0.835660
O941	O94	0.309850	0.513550	0.206280
O951	O95	0.594450	0.654160	0.020130
O961	O96	0.127890	0.816090	0.755570
O971	O97	0.051970	0.755810	0.799090
O981	O98	0.191250	0.191250	0.426250
O991	O99	0.194820	0.240920	0.757910
O1001	O100	0.757980	0.450710	0.255060
O1011	O101	0.417480	0.131440	0.831370
O1021	O102	0.470320	0.013550	0.706280
O1031	O103	0.610670	0.822360	0.871930
O1041	O104	0.963750	0.049290	0.244940
O1051	O105	0.858520	0.904930	0.544310
O1061	O106	0.891610	0.350980	0.762920
O1071	O107	0.808750	0.808750	0.573750
O1081	O108	0.627890	0.800450	0.255570
O1091	O109	0.513550	0.970320	0.206280
O1101	O110	0.193650	0.805180	0.242090
O1111	O111	0.029680	0.690150	0.793720
O1121	O112	0.036250	0.950710	0.755060
O1131	O113	0.904930	0.692240	0.544310
O1141	O114	0.306350	0.740920	0.257910
O1151	O115	0.905550	0.768740	0.479870
O1161	O116	0.731260	0.594450	0.020130
O1171	O117	0.391610	0.494490	0.262920
O1181	O118	0.389330	0.177640	0.128070
O1191	O119	0.345840	0.268740	0.979870
O1201	O120	0.005510	0.108390	0.237080
O1211	O121	0.755810	0.393130	0.799090
O1221	O122	0.135300	0.926880	0.664340
O1231	O123	0.305180	0.693650	0.742090
O1241	O124	0.759080	0.193650	0.242090
O1251	O125	0.768740	0.845840	0.479870
O1261	O126	0.085450	0.287380	0.377660
O1271	O127	0.013550	0.809850	0.706280
O1281	O128	0.249510	0.085450	0.377660
O1291	O129	0.536250	0.757980	0.255060
O1301	O130	0.690150	0.486450	0.793720
O1311	O131	0.635300	0.773480	0.164340
O1321	O132	0.318540	0.334430	0.750280
O1331	O133	0.505510	0.149020	0.737080
O1341	O134	0.426880	0.635300	0.164340
O1351	O135	0.095070	0.307760	0.455690
O1361	O136	0.726520	0.864700	0.335660
O1371	O137	0.787380	0.585450	0.877660
O1381	O138	0.110670	0.195040	0.371930
O1391	O139	0.606870	0.948030	0.200910
O1401	O140	0.744190	0.448030	0.700910
O1411	O141	0.154160	0.094450	0.520130
O1421	O142	0.304960	0.389330	0.128070
O1431	O143	0.300450	0.127890	0.755570
O1441	O144	0.268740	0.405550	0.979870
O1451	O145	0.818540	0.096750	0.250280
O1461	O146	0.806350	0.194820	0.757910
O1471	O147	0.551970	0.893130	0.299090
O1481	O148	0.596750	0.318540	0.750280
O1491	O149	0.970320	0.309850	0.206280
O1501	O150	0.749510	0.787380	0.877660
O1511	O151	0.683910	0.372110	0.744430
O1521	O152	0.364700	0.226520	0.835660
O1531	O153	0.165570	0.181460	0.749720
O1541	O154	0.190150	0.529680	0.293720
O1551	O155	0.273480	0.135300	0.664340
O1561	O156	0.948030	0.244190	0.200910
O1571	O157	0.681460	0.665570	0.249720
O1581	O158	0.255810	0.551970	0.299090
O1591	O159	0.287380	0.249510	0.377660
O1601	O160	0.242020	0.549290	0.744940
