data_TOWLIC_clean_PM
_symmetry_space_group_name_H-M	'P1'
_cell_length_a	16.697000
_cell_length_b	13.848000
_cell_length_c	10.873000
_cell_angle_alpha	90.000000
_cell_angle_beta	101.620000
_cell_angle_gamma	90.000000
_symmetry_Int_Tables_number 1

loop_
_symmetry_equiv_pos_as_xyz
'x,y,z'

loop_
_atom_site_label
_atom_site_type_symbol
_atom_site_fract_x
_atom_site_fract_y
_atom_site_fract_z
Fe11	Fe1	0.934800	0.630600	0.857800
O11	O1	0.871500	0.413800	0.971800
O21	O2	0.836300	0.540300	0.836000
O31	O3	0.711400	0.351100	0.921600
O41	O4	0.624000	0.214300	0.020300
O51	O5	0.517500	0.241100	0.858400
O61	O6	0.991500	0.406500	0.809500
O71	O7	0.981300	0.560000	0.726000
O81	O8	0.864500	0.711500	0.715800
C11	C1	0.823500	0.461200	0.895300
C21	C2	0.734600	0.429200	0.857100
C31	C3	0.677600	0.457000	0.765400
H11	H1	0.680900	0.506800	0.706600
C41	C4	0.606400	0.395800	0.770500
H21	H2	0.553600	0.399100	0.718200
C51	C5	0.632800	0.333700	0.866400
C61	C6	0.586200	0.255000	0.918100
C71	C7	0.986600	0.467300	0.722300
C81	C8	0.999300	0.427500	0.597500
C91	C9	0.998500	0.326400	0.567400
H31	H3	0.996400	0.272800	0.621100
Co11	Co1	0.934200	0.633700	0.876600
Fe21	Fe2	0.434800	0.130600	0.857800
O91	O9	0.371500	0.913800	0.971800
O101	O10	0.336300	0.040300	0.836000
O111	O11	0.211400	0.851100	0.921600
O121	O12	0.124000	0.714300	0.020300
O131	O13	0.017500	0.741100	0.858400
O141	O14	0.491500	0.906500	0.809500
O151	O15	0.481300	0.060000	0.726000
O161	O16	0.364500	0.211500	0.715800
C101	C10	0.323500	0.961200	0.895300
C111	C11	0.234600	0.929200	0.857100
C121	C12	0.177600	0.957000	0.765400
H41	H4	0.180900	0.006800	0.706600
C131	C13	0.106400	0.895800	0.770500
H51	H5	0.053600	0.899100	0.718200
C141	C14	0.132800	0.833700	0.866400
C151	C15	0.086200	0.755000	0.918100
C161	C16	0.486600	0.967300	0.722300
C171	C17	0.499300	0.927500	0.597500
C181	C18	0.498500	0.826400	0.567400
H61	H6	0.496400	0.772800	0.621100
Co21	Co2	0.434200	0.133700	0.876600
Fe31	Fe3	0.065200	0.630600	0.142200
O171	O17	0.128500	0.413800	0.028200
O181	O18	0.163700	0.540300	0.164000
O191	O19	0.288600	0.351100	0.078400
O201	O20	0.376000	0.214300	0.979700
O211	O21	0.482500	0.241100	0.141600
O221	O22	0.008500	0.406500	0.190500
O231	O23	0.018700	0.560000	0.274000
O241	O24	0.135500	0.711500	0.284200
C191	C19	0.176500	0.461200	0.104700
C201	C20	0.265400	0.429200	0.142900
C211	C21	0.322400	0.457000	0.234600
H71	H7	0.319100	0.506800	0.293400
C221	C22	0.393600	0.395800	0.229500
H81	H8	0.446400	0.399100	0.281800
C231	C23	0.367200	0.333700	0.133600
C241	C24	0.413800	0.255000	0.081900
C251	C25	0.013400	0.467300	0.277700
C261	C26	0.000700	0.427500	0.402500
C271	C27	0.001500	0.326400	0.432600
H91	H9	0.003600	0.272800	0.378900
Co31	Co3	0.065800	0.633700	0.123400
Fe41	Fe4	0.565200	0.130600	0.142200
O251	O25	0.628500	0.913800	0.028200
O261	O26	0.663700	0.040300	0.164000
O271	O27	0.788600	0.851100	0.078400
O281	O28	0.876000	0.714300	0.979700
O291	O29	0.982500	0.741100	0.141600
O301	O30	0.508500	0.906500	0.190500
O311	O31	0.518700	0.060000	0.274000
O321	O32	0.635500	0.211500	0.284200
C281	C28	0.676500	0.961200	0.104700
C291	C29	0.765400	0.929200	0.142900
C301	C30	0.822400	0.957000	0.234600
H101	H10	0.819100	0.006800	0.293400
C311	C31	0.893600	0.895800	0.229500
H111	H11	0.946400	0.899100	0.281800
C321	C32	0.867200	0.833700	0.133600
C331	C33	0.913800	0.755000	0.081900
C341	C34	0.513400	0.967300	0.277700
C351	C35	0.500700	0.927500	0.402500
C361	C36	0.501500	0.826400	0.432600
H121	H12	0.503600	0.772800	0.378900
Co41	Co4	0.565800	0.133700	0.123400
O331	O33	0.000000	0.482900	0.500000
O341	O34	0.500000	0.982900	0.500000
O351	O35	0.000000	0.568100	0.000000
Fe51	Fe5	0.000000	0.419500	0.000000
Co51	Co5	0.000000	0.432300	0.000000
O361	O36	0.500000	0.068100	0.000000
Fe61	Fe6	0.500000	0.919500	0.000000
Co61	Co6	0.500000	0.932300	0.000000
