data_TOWNEA_clean_PM
_symmetry_space_group_name_H-M	'P1'
_cell_length_a	21.757000
_cell_length_b	21.757000
_cell_length_c	35.299000
_cell_angle_alpha	90.000000
_cell_angle_beta	90.000000
_cell_angle_gamma	90.000000
_symmetry_Int_Tables_number 1

loop_
_symmetry_equiv_pos_as_xyz
'x,y,z'

loop_
_atom_site_label
_atom_site_type_symbol
_atom_site_fract_x
_atom_site_fract_y
_atom_site_fract_z
Fe11	Fe1	0.997610	0.656860	0.236100
Fe21	Fe2	0.005460	0.806230	0.225880
Fe31	Fe3	0.000240	0.716560	0.149680
Fe41	Fe4	0.994540	0.193770	0.725880
Fe51	Fe5	0.999760	0.283440	0.649680
Fe61	Fe6	0.494540	0.306230	0.024120
Fe71	Fe7	0.497610	0.843140	0.513900
Fe81	Fe8	0.499760	0.216560	0.100320
Fe91	Fe9	0.500240	0.783440	0.600320
Fe101	Fe10	0.502390	0.156860	0.013900
Fe111	Fe11	0.002390	0.343140	0.736100
Fe121	Fe12	0.505460	0.693770	0.524120
H11	H1	0.819000	0.181800	0.781800
H21	H2	0.804600	0.501000	0.594500
H31	H3	0.867200	0.838700	0.094900
H41	H4	0.278200	0.390400	0.182300
H51	H5	0.319900	0.649100	0.380200
H61	H6	0.616700	0.932100	0.639800
H71	H7	0.657000	0.116100	0.138200
H81	H8	0.301800	0.496300	0.089000
H91	H9	0.221800	0.890400	0.067700
H101	H10	0.263600	0.818400	0.324200
H111	H11	0.790100	0.905600	0.074000
H121	H12	0.761500	0.961400	0.182200
H131	H13	0.624600	0.013000	0.044700
H141	H14	0.651900	0.159600	0.938300
H151	H15	0.838600	0.894400	0.203000
H161	H16	0.680100	0.350900	0.880200
H171	H17	0.198200	0.996300	0.161000
H181	H18	0.768300	0.545700	0.092100
H191	H19	0.709900	0.405600	0.176000
H201	H20	0.157000	0.383900	0.611800
H211	H21	0.319000	0.318200	0.968200
H221	H22	0.714500	0.851100	0.389100
H231	H23	0.888600	0.841000	0.319200
H241	H24	0.731700	0.045700	0.157900
H251	H25	0.151900	0.340400	0.811700
H261	H26	0.209900	0.094400	0.574000
H271	H27	0.161400	0.105600	0.703000
H281	H28	0.738500	0.461400	0.067800
H291	H29	0.388600	0.659000	0.430800
H301	H30	0.124600	0.487000	0.705300
H311	H31	0.800700	0.442500	0.185600
H321	H32	0.763600	0.681600	0.425800
H331	H33	0.348100	0.840400	0.438300
H341	H34	0.667000	0.940900	0.529400
H351	H35	0.132800	0.161300	0.594900
H361	H36	0.333000	0.059100	0.029400
H371	H37	0.199300	0.557500	0.685600
H381	H38	0.304600	0.999000	0.155500
H391	H39	0.116700	0.567900	0.110200
H401	H40	0.843000	0.616100	0.111800
H411	H41	0.833000	0.440900	0.720600
H421	H42	0.236400	0.318400	0.925800
H431	H43	0.779400	0.669400	0.362300
H441	H44	0.368100	0.148600	0.931600
H451	H45	0.868100	0.351400	0.818400
H461	H46	0.644000	0.675700	0.661300
H471	H47	0.131900	0.648600	0.318400
H481	H48	0.879600	0.069800	0.682000
H491	H49	0.290100	0.594400	0.676000
H501	H50	0.695400	0.001000	0.655500
H511	H51	0.356000	0.324300	0.161300
H521	H52	0.180100	0.149100	0.869800
H531	H53	0.167000	0.559100	0.220600
H541	H54	0.245600	0.490200	0.204900
H551	H55	0.181000	0.818200	0.281800
H561	H56	0.661400	0.394400	0.047000
H571	H57	0.285500	0.148900	0.889100
H581	H58	0.379600	0.430200	0.068000
H591	H59	0.848100	0.659600	0.311700
H601	H60	0.338600	0.605600	0.547000
H611	H61	0.698200	0.503700	0.589000
H621	H62	0.736400	0.181600	0.824200
H631	H63	0.268300	0.954300	0.657900
H641	H64	0.745600	0.009800	0.545100
H651	H65	0.778200	0.109600	0.567700
H661	H66	0.611400	0.341000	0.930800
H671	H67	0.367200	0.661300	0.655100
H681	H68	0.801800	0.003700	0.661000
H691	H69	0.111400	0.159000	0.819200
H701	H70	0.383300	0.067900	0.139800
H711	H71	0.254400	0.990200	0.045100
H721	H72	0.631900	0.851400	0.431600
H731	H73	0.720600	0.169400	0.887700
H741	H74	0.856000	0.175700	0.588700
H751	H75	0.785500	0.351100	0.860900
H761	H76	0.754400	0.509800	0.704900
H771	H77	0.279400	0.830600	0.387700
H781	H78	0.238500	0.038600	0.682200
H791	H79	0.343000	0.883900	0.638200
H801	H80	0.721800	0.609600	0.682300
H811	H81	0.883300	0.432100	0.610200
H821	H82	0.261500	0.538600	0.567800
H831	H83	0.144000	0.824300	0.088700
H841	H84	0.214500	0.648900	0.360900
H851	H85	0.632800	0.338700	0.155100
H861	H86	0.681000	0.681800	0.468200
H871	H87	0.120400	0.930200	0.182000
H881	H88	0.220600	0.330600	0.862300
H891	H89	0.620400	0.569800	0.568000
H901	H90	0.699300	0.942500	0.064400
H911	H91	0.300700	0.057500	0.564400
H921	H92	0.875400	0.513000	0.205300
H931	H93	0.231700	0.454300	0.592100
H941	H94	0.195400	0.499000	0.094500
H951	H95	0.819900	0.850900	0.369800
H961	H96	0.375400	0.987000	0.544700
C11	C1	0.201200	0.898500	0.090920
C21	C2	0.187800	0.783820	0.297810
C31	C3	0.293200	0.738900	0.379190
C41	C4	0.148700	0.733400	0.296090
C51	C5	0.280600	0.006000	0.064310
C61	C6	0.246800	0.733700	0.346530
C71	C7	0.283000	0.563500	0.585550
C81	C8	0.875100	0.128900	0.637330
C91	C9	0.710000	0.039000	0.134880
C101	C10	0.717320	0.550500	0.637590
C111	C11	0.706800	0.261100	0.879190
C121	C12	0.282680	0.449500	0.137590
C131	C13	0.783000	0.936500	0.164450
C141	C14	0.360100	0.639800	0.599070
C151	C15	0.865500	0.430100	0.666850
C161	C16	0.906400	0.264000	0.773700
C171	C17	0.414200	0.886000	0.576900
C181	C18	0.141000	0.922100	0.158820
C191	C19	0.690700	0.977800	0.079330
C201	C20	0.919300	0.738800	0.278900
C211	C21	0.763200	0.216040	0.823030
C221	C22	0.142900	0.552100	0.129400
C231	C23	0.593600	0.764000	0.476300
C241	C24	0.810400	0.488800	0.620090
C251	C25	0.834400	0.580900	0.126820
C261	C26	0.086900	0.175300	0.666600
C271	C27	0.207700	0.683230	0.344800
C281	C28	0.633600	0.306190	0.922070
C291	C29	0.124900	0.871100	0.137330
C301	C30	0.782680	0.050500	0.612410
C311	C31	0.845000	0.140760	0.603380
C321	C32	0.155000	0.859240	0.103380
C331	C33	0.093600	0.736000	0.273700
C341	C34	0.134500	0.569900	0.166850
C351	C35	0.310400	0.011200	0.129910
C361	C36	0.125200	0.250600	0.810670
C371	C37	0.658600	0.816920	0.430420
C381	C38	0.866400	0.806190	0.327930
C391	C39	0.698500	0.204260	0.896450
C401	C40	0.189600	0.511200	0.120090
C411	C41	0.798800	0.101500	0.590920
C421	C42	0.812200	0.216180	0.797810
C431	C43	0.146300	0.480400	0.682360
C441	C44	0.646300	0.019600	0.067640
C451	C45	0.419300	0.761200	0.471100
C461	C46	0.842400	0.698420	0.323480
C471	C47	0.687800	0.716180	0.452190
C481	C48	0.853700	0.519600	0.182360
C491	C49	0.655000	0.640760	0.646620
C501	C50	0.717000	0.436500	0.085550
C511	C51	0.406400	0.236000	0.976300
C521	C52	0.200000	0.096700	0.600220
C531	C53	0.268600	0.560200	0.623860
C541	C54	0.809300	0.477800	0.170670
C551	C55	0.133600	0.193810	0.827930
C561	C56	0.800000	0.903300	0.100220
C571	C57	0.312200	0.283820	0.952190
C581	C58	0.707700	0.816770	0.405200
C591	C59	0.639900	0.360200	0.099070
C601	C60	0.327300	0.046900	0.055000
C611	C61	0.671300	0.396700	0.073150
C621	C62	0.345000	0.359240	0.146620
C631	C63	0.841400	0.316920	0.819580
C641	C64	0.359000	0.422100	0.091180
C651	C65	0.301500	0.795740	0.396450
C661	C66	0.236800	0.783960	0.323030
C671	C67	0.746800	0.766300	0.403470
C681	C68	0.624900	0.628900	0.612670
C691	C69	0.768600	0.939800	0.126140
C701	C70	0.277400	0.012500	0.612950
C711	C71	0.231400	0.060200	0.626140
C721	C72	0.641000	0.577900	0.591180
C731	C73	0.263200	0.283960	0.926970
C741	C74	0.586900	0.324700	0.083400
C751	C75	0.859000	0.077900	0.658820
C761	C76	0.413100	0.675300	0.583400
C771	C77	0.227880	0.488200	0.148240
C781	C78	0.085200	0.614500	0.176800
C791	C79	0.772120	0.511800	0.648240
C801	C80	0.792300	0.316770	0.844800
C811	C81	0.731400	0.439800	0.123860
C821	C82	0.309300	0.022200	0.579330
C831	C83	0.689600	0.988800	0.629910
C841	C84	0.634500	0.930100	0.583150
C851	C85	0.375100	0.371100	0.112670
C861	C86	0.157600	0.301580	0.823480
C871	C87	0.198500	0.295740	0.853550
C881	C88	0.585200	0.885500	0.573200
C891	C89	0.722600	0.987500	0.112950
C901	C90	0.793200	0.761100	0.370810
C911	C91	0.190700	0.522200	0.670670
C921	C92	0.874800	0.749400	0.310670
C931	C93	0.625200	0.249400	0.939330
C941	C94	0.292300	0.183230	0.905200
C951	C95	0.672700	0.953100	0.555000
C961	C96	0.687200	0.538630	0.603640
C971	C97	0.825600	0.812030	0.358000
C981	C98	0.812800	0.038630	0.646360
C991	C99	0.345700	0.636400	0.637380
C1001	C100	0.253200	0.233700	0.903470
C1011	C101	0.219400	0.506000	0.185690
C1021	C102	0.165600	0.419100	0.626820
C1031	C103	0.801500	0.704260	0.353550
C1041	C104	0.187200	0.961370	0.146360
C1051	C105	0.674400	0.312030	0.892000
C1061	C106	0.827300	0.453100	0.695000
C1071	C107	0.172700	0.546900	0.195000
C1081	C108	0.222600	0.512500	0.637050
C1091	C109	0.580600	0.672900	0.595300
C1101	C110	0.154300	0.136400	0.612620
C1111	C111	0.866200	0.571200	0.160440
C1121	C112	0.334400	0.919100	0.623180
C1131	C113	0.342400	0.801580	0.426520
C1141	C114	0.585800	0.114000	0.076900
C1151	C115	0.580700	0.238800	0.971100
C1161	C116	0.736800	0.716040	0.426970
C1171	C117	0.727880	0.011800	0.601760
C1181	C118	0.665600	0.080900	0.123180
C1191	C119	0.357100	0.052100	0.120600
C1201	C120	0.325600	0.687970	0.392000
C1211	C121	0.080700	0.261200	0.778900
C1221	C122	0.080600	0.827100	0.154700
C1231	C123	0.633800	0.071200	0.089560
C1241	C124	0.654300	0.363600	0.137380
C1251	C125	0.374800	0.750600	0.439330
C1261	C126	0.657600	0.198420	0.926520
C1271	C127	0.351300	0.233400	0.953910
C1281	C128	0.753200	0.266300	0.846530
C1291	C129	0.290000	0.961000	0.634880
C1301	C130	0.210000	0.461000	0.615120
C1311	C131	0.648700	0.766600	0.453910
C1321	C132	0.133800	0.428800	0.660440
C1331	C133	0.341400	0.183080	0.930420
C1341	C134	0.914800	0.385500	0.676800
C1351	C135	0.777400	0.487500	0.137050
C1361	C136	0.857100	0.447900	0.629400
C1371	C137	0.298800	0.398500	0.159080
C1381	C138	0.790000	0.539000	0.115120
C1391	C139	0.701200	0.601500	0.659080
C1401	C140	0.845700	0.863600	0.112620
C1411	C141	0.919400	0.172900	0.654700
C1421	C142	0.312800	0.461370	0.103640
C1431	C143	0.158600	0.683080	0.319580
C1441	C144	0.206800	0.238900	0.870810
C1451	C145	0.913100	0.824700	0.166600
C1461	C146	0.174400	0.187970	0.858000
C1471	C147	0.353700	0.980400	0.567640
C1481	C148	0.851300	0.266600	0.796090
C1491	C149	0.366200	0.928800	0.589560
C1501	C150	0.414800	0.114500	0.073200
C1511	C151	0.828700	0.896700	0.176850
C1521	C152	0.217000	0.063500	0.664450
C1531	C153	0.217320	0.949500	0.112410
C1541	C154	0.365500	0.069900	0.083150
C1551	C155	0.700000	0.403300	0.149780
C1561	C156	0.085800	0.386000	0.673100
C1571	C157	0.139900	0.139800	0.650930
C1581	C158	0.366400	0.693810	0.422070
C1591	C159	0.719400	0.994000	0.564310
C1601	C160	0.272120	0.988200	0.101760
C1611	C161	0.860100	0.860200	0.150930
C1621	C162	0.780600	0.494000	0.685690
C1631	C163	0.171300	0.103300	0.676850
C1641	C164	0.914200	0.614000	0.173100
C1651	C165	0.642900	0.947900	0.620600
C1661	C166	0.300000	0.596700	0.649780
C1671	C167	0.419400	0.327100	0.095300
C1681	C168	0.328700	0.603300	0.573150
O11	O1	0.061900	0.212700	0.642320
O21	O2	0.940800	0.355000	0.650610
O31	O3	0.559200	0.855000	0.599390
O41	O4	0.002500	0.726500	0.203200
O51	O5	0.569700	0.883100	0.537450
O61	O6	0.938100	0.787300	0.142320
O71	O7	0.059700	0.393000	0.703460
O81	O8	0.924700	0.687700	0.264450
O91	O9	0.916100	0.214400	0.753710
O101	O10	0.930300	0.383100	0.712550
O111	O11	0.046500	0.213200	0.771520
O121	O12	0.927600	0.657700	0.150920
O131	O13	0.453500	0.713200	0.478480
O141	O14	0.575300	0.187700	0.985550
O151	O15	0.546500	0.286800	0.978480
O161	O16	0.497500	0.226500	0.046800
O171	O17	0.502500	0.773500	0.546800
O181	O18	0.572400	0.157700	0.099080
O191	O19	0.927200	0.830400	0.200850
O201	O20	0.059200	0.645000	0.150610
O211	O21	0.069700	0.616900	0.212550
O221	O22	0.583900	0.714400	0.496290
O231	O23	0.559700	0.107000	0.046540
O241	O24	0.072400	0.342300	0.650920
O251	O25	0.947900	0.156000	0.684280
O261	O26	0.443300	0.191500	0.974950
O271	O27	0.427600	0.842300	0.599080
O281	O28	0.075300	0.312300	0.764450
O291	O29	0.438100	0.712700	0.607680
O301	O30	0.561900	0.287300	0.107680
O311	O31	0.430500	0.274900	0.111950
O321	O32	0.552100	0.656000	0.565720
O331	O33	0.440300	0.893000	0.546540
O341	O34	0.940300	0.607000	0.203460
O351	O35	0.572800	0.330400	0.049150
O361	O36	0.556700	0.808500	0.474950
O371	O37	0.072800	0.169600	0.700850
O381	O38	0.416100	0.285600	0.996290
O391	O39	0.943300	0.308500	0.775050
O401	O40	0.953500	0.786800	0.271520
O411	O41	0.052100	0.844000	0.184280
O421	O42	0.430300	0.116900	0.037450
O431	O43	0.083900	0.785600	0.253710
O441	O44	0.056700	0.691500	0.275050
O451	O45	0.447900	0.344000	0.065720
O461	O46	0.930500	0.225100	0.638050
O471	O47	0.569500	0.725100	0.611950
O481	O48	0.427200	0.669600	0.549150
O491	O49	0.440800	0.145000	0.099390
O501	O50	0.997500	0.273500	0.703200
O511	O51	0.424700	0.812300	0.485550
O521	O52	0.069500	0.774900	0.138050
Fe131	Fe13	0.806230	0.005460	0.774120
Fe141	Fe14	0.193770	0.994540	0.274120
Fe151	Fe15	0.216560	0.499760	0.899680
Fe161	Fe16	0.283440	0.999760	0.350320
Fe171	Fe17	0.306230	0.494540	0.975880
Fe181	Fe18	0.783440	0.500240	0.399680
Fe191	Fe19	0.156860	0.502390	0.986100
Fe201	Fe20	0.843140	0.497610	0.486100
Fe211	Fe21	0.343140	0.002390	0.263900
Fe221	Fe22	0.716560	0.000240	0.850320
Fe231	Fe23	0.693770	0.505460	0.475880
Fe241	Fe24	0.656860	0.997610	0.763900
H971	H97	0.432100	0.883300	0.389800
H981	H98	0.499000	0.195400	0.905500
H991	H99	0.338700	0.632800	0.844900
H1001	H100	0.169400	0.720600	0.112300
H1011	H101	0.930200	0.120400	0.818000
H1021	H102	0.648900	0.214500	0.639100
H1031	H103	0.318400	0.236400	0.074200
H1041	H104	0.594400	0.290100	0.324000
H1051	H105	0.932100	0.616700	0.360200
H1061	H106	0.069800	0.879600	0.318000
H1071	H107	0.850900	0.819900	0.630200
H1081	H108	0.059100	0.333000	0.970600
H1091	H109	0.440900	0.833000	0.279400
H1101	H110	0.905600	0.790100	0.926000
H1111	H111	0.159600	0.651900	0.061700
H1121	H112	0.818400	0.263600	0.675800
H1131	H113	0.351400	0.868100	0.181600
H1141	H114	0.430200	0.379600	0.932000
H1151	H115	0.567900	0.116700	0.889800
H1161	H116	0.038600	0.238500	0.317800
H1171	H117	0.442500	0.800700	0.814400
H1181	H118	0.330600	0.220600	0.137700
H1191	H119	0.883900	0.343000	0.361800
H1201	H120	0.094400	0.209900	0.426000
H1211	H121	0.830600	0.279400	0.612300
H1221	H122	0.116100	0.657000	0.861800
H1231	H123	0.175700	0.856000	0.411300
H1241	H124	0.824300	0.144000	0.911300
H1251	H125	0.940900	0.667000	0.470600
H1261	H126	0.487000	0.124600	0.294700
H1271	H127	0.894400	0.838600	0.797000
H1281	H128	0.013000	0.624600	0.955300
H1291	H129	0.818200	0.181000	0.718200
H1301	H130	0.841000	0.888600	0.680800
H1311	H131	0.990200	0.254400	0.954900
H1321	H132	0.675700	0.644000	0.338700
H1331	H133	0.181800	0.819000	0.218200
H1341	H134	0.954300	0.268300	0.342100
H1351	H135	0.999000	0.304600	0.844500
H1361	H136	0.605600	0.338600	0.453000
H1371	H137	0.159000	0.111400	0.180800
H1381	H138	0.661300	0.367200	0.344900
H1391	H139	0.009800	0.745600	0.454900
H1401	H140	0.513000	0.875400	0.794700
H1411	H141	0.649100	0.319900	0.619800
H1421	H142	0.557500	0.199300	0.314400
H1431	H143	0.149100	0.180100	0.130200
H1441	H144	0.545700	0.768300	0.907900
H1451	H145	0.496300	0.301800	0.911000
H1461	H146	0.109600	0.778200	0.432300
H1471	H147	0.509800	0.754400	0.295100
H1481	H148	0.318200	0.319000	0.031800
H1491	H149	0.383900	0.157000	0.388200
H1501	H150	0.105600	0.161400	0.297000
H1511	H151	0.340400	0.151900	0.188300
H1521	H152	0.350900	0.680100	0.119800
H1531	H153	0.616100	0.843000	0.888200
H1541	H154	0.559100	0.167000	0.779400
H1551	H155	0.942500	0.699300	0.935600
H1561	H156	0.569800	0.620400	0.432000
H1571	H157	0.851400	0.631900	0.568400
H1581	H158	0.341000	0.611400	0.069200
H1591	H159	0.838700	0.867200	0.905100
H1601	H160	0.890400	0.221800	0.932300
H1611	H161	0.669400	0.779400	0.637700
H1621	H162	0.001000	0.695400	0.344500
H1631	H163	0.840400	0.348100	0.561700
H1641	H164	0.394400	0.661400	0.953000
H1651	H165	0.057500	0.300700	0.435600
H1661	H166	0.681800	0.681000	0.531800
H1671	H167	0.148600	0.368100	0.068400
H1681	H168	0.648600	0.131900	0.681600
H1691	H169	0.067900	0.383300	0.860200
H1701	H170	0.659000	0.388600	0.569200
H1711	H171	0.351100	0.785500	0.139100
H1721	H172	0.490200	0.245600	0.795100
H1731	H173	0.538600	0.261500	0.432200
H1741	H174	0.461400	0.738500	0.932200
H1751	H175	0.324300	0.356000	0.838700
H1761	H176	0.961400	0.761500	0.817800
H1771	H177	0.851100	0.714500	0.610900
H1781	H178	0.996300	0.198200	0.839000
H1791	H179	0.454300	0.231700	0.407900
H1801	H180	0.609600	0.721800	0.317700
H1811	H181	0.501000	0.804600	0.405500
H1821	H182	0.181600	0.736400	0.175800
H1831	H183	0.503700	0.698200	0.411000
H1841	H184	0.987000	0.375400	0.455300
H1851	H185	0.161300	0.132800	0.405100
H1861	H186	0.045700	0.731700	0.842100
H1871	H187	0.405600	0.709900	0.824000
H1881	H188	0.659600	0.848100	0.688300
H1891	H189	0.390400	0.278200	0.817700
H1901	H190	0.681600	0.763600	0.574200
H1911	H191	0.148900	0.285500	0.110900
H1921	H192	0.003700	0.801800	0.339000
C1691	C169	0.488800	0.810400	0.379910
C1701	C170	0.824700	0.913100	0.833400
C1711	C171	0.363600	0.654300	0.862620
C1721	C172	0.012500	0.277400	0.387050
C1731	C173	0.898500	0.201200	0.909080
C1741	C174	0.114500	0.414800	0.926800
C1751	C175	0.639800	0.360100	0.400930
C1761	C176	0.871100	0.124900	0.862670
C1771	C177	0.961000	0.290000	0.365120
C1781	C178	0.396700	0.671300	0.926850
C1791	C179	0.577900	0.641000	0.408820
C1801	C180	0.961370	0.187200	0.853640
C1811	C181	0.204260	0.698500	0.103550
C1821	C182	0.301580	0.157600	0.176520
C1831	C183	0.324700	0.586900	0.916600
C1841	C184	0.863600	0.845700	0.887380
C1851	C185	0.860200	0.860100	0.849070
C1861	C186	0.511200	0.189600	0.879910
C1871	C187	0.903300	0.800000	0.899780
C1881	C188	0.371100	0.375100	0.887330
C1891	C189	0.006000	0.280600	0.935690
C1901	C190	0.519600	0.853700	0.817640
C1911	C191	0.385500	0.914800	0.323200
C1921	C192	0.628900	0.624900	0.387330
C1931	C193	0.250600	0.125200	0.189330
C1941	C194	0.512500	0.222600	0.362950
C1951	C195	0.766300	0.746800	0.596530
C1961	C196	0.487500	0.777400	0.862950
C1971	C197	0.939800	0.768600	0.873860
C1981	C198	0.698420	0.842400	0.676520
C1991	C199	0.096700	0.200000	0.399780
C2001	C200	0.236000	0.406400	0.023700
C2011	C201	0.261200	0.080700	0.221100
C2021	C202	0.039000	0.710000	0.865120
C2031	C203	0.683230	0.207700	0.655200
C2041	C204	0.539000	0.790000	0.884880
C2051	C205	0.306190	0.633600	0.077930
C2061	C206	0.994000	0.719400	0.435690
C2071	C207	0.216040	0.763200	0.176970
C2081	C208	0.403300	0.700000	0.850220
C2091	C209	0.494000	0.780600	0.314310
C2101	C210	0.953100	0.672700	0.445000
C2111	C211	0.552100	0.142900	0.870600
C2121	C212	0.140760	0.845000	0.396620
C2131	C213	0.453100	0.827300	0.305000
C2141	C214	0.546900	0.172700	0.805000
C2151	C215	0.980400	0.353700	0.432360
C2161	C216	0.461000	0.210000	0.384880
C2171	C217	0.896700	0.828700	0.823150
C2181	C218	0.233400	0.351300	0.046090
C2191	C219	0.477800	0.809300	0.829330
C2201	C220	0.596700	0.300000	0.350220
C2211	C221	0.261100	0.706800	0.120810
C2221	C222	0.749400	0.874800	0.689330
C2231	C223	0.011800	0.727880	0.398240
C2241	C224	0.419100	0.165600	0.373180
C2251	C225	0.114000	0.585800	0.923100
C2261	C226	0.136400	0.154300	0.387380
C2271	C227	0.077900	0.859000	0.341180
C2281	C228	0.827100	0.080600	0.845300
C2291	C229	0.766600	0.648700	0.546090
C2301	C230	0.264000	0.906400	0.226300
C2311	C231	0.601500	0.701200	0.340920
C2321	C232	0.885500	0.585200	0.426800
C2331	C233	0.580900	0.834400	0.873180
C2341	C234	0.816770	0.707700	0.594800
C2351	C235	0.783960	0.236800	0.676970
C2361	C236	0.538630	0.687200	0.396360
C2371	C237	0.175300	0.086900	0.333400
C2381	C238	0.733400	0.148700	0.703910
C2391	C239	0.238800	0.580700	0.028900
C2401	C240	0.930100	0.634500	0.416850
C2411	C241	0.687970	0.325600	0.608000
C2421	C242	0.603300	0.328700	0.426850
C2431	C243	0.988800	0.689600	0.370090
C2441	C244	0.398500	0.298800	0.840920
C2451	C245	0.764000	0.593600	0.523700
C2461	C246	0.560200	0.268600	0.376140
C2471	C247	0.052100	0.357100	0.879400
C2481	C248	0.360200	0.639900	0.900930
C2491	C249	0.733700	0.246800	0.653470
C2501	C250	0.449500	0.282680	0.862410
C2511	C251	0.949500	0.217320	0.887590
C2521	C252	0.922100	0.141000	0.841180
C2531	C253	0.386000	0.085800	0.326900
C2541	C254	0.672900	0.580600	0.404700
C2551	C255	0.738800	0.919300	0.721100
C2561	C256	0.038630	0.812800	0.353640
C2571	C257	0.071200	0.633800	0.910440
C2581	C258	0.128900	0.875100	0.362670
C2591	C259	0.761100	0.793200	0.629190
C2601	C260	0.736000	0.093600	0.726300
C2611	C261	0.571200	0.866200	0.839560
C2621	C262	0.859240	0.155000	0.896620
C2631	C263	0.283820	0.312200	0.047810
C2641	C264	0.614000	0.914200	0.826900
C2651	C265	0.550500	0.717320	0.362410
C2661	C266	0.327100	0.419400	0.904700
C2671	C267	0.738900	0.293200	0.620810
C2681	C268	0.640760	0.655000	0.353380
C2691	C269	0.693810	0.366400	0.577930
C2701	C270	0.198420	0.657600	0.073480
C2711	C271	0.461370	0.312800	0.896360
C2721	C272	0.050500	0.782680	0.387590
C2731	C273	0.439800	0.731400	0.876140
C2741	C274	0.011200	0.310400	0.870090
C2751	C275	0.063500	0.217000	0.335550
C2761	C276	0.812030	0.825600	0.642000
C2771	C277	0.172900	0.919400	0.345300
C2781	C278	0.430100	0.865500	0.333150
C2791	C279	0.447900	0.857100	0.370600
C2801	C280	0.060200	0.231400	0.373860
C2811	C281	0.216180	0.812200	0.202190
C2821	C282	0.636400	0.345700	0.362620
C2831	C283	0.249400	0.625200	0.060670
C2841	C284	0.522200	0.190700	0.329330
C2851	C285	0.675300	0.413100	0.416600
C2861	C286	0.716040	0.736800	0.573030
C2871	C287	0.480400	0.146300	0.317640
C2881	C288	0.046900	0.327300	0.945000
C2891	C289	0.101500	0.798800	0.409080
C2901	C290	0.295740	0.198500	0.146450
C2911	C291	0.988200	0.272120	0.898240
C2921	C292	0.359240	0.345000	0.853380
C2931	C293	0.506000	0.219400	0.814310
C2941	C294	0.022200	0.309300	0.420670
C2951	C295	0.783820	0.187800	0.702190
C2961	C296	0.193810	0.133600	0.172070
C2971	C297	0.428800	0.133800	0.339560
C2981	C298	0.704260	0.801500	0.646450
C2991	C299	0.316920	0.841400	0.180420
C3001	C300	0.683080	0.158600	0.680420
C3011	C301	0.187970	0.174400	0.142000
C3021	C302	0.886000	0.414200	0.423100
C3031	C303	0.422100	0.359000	0.908820
C3041	C304	0.436500	0.717000	0.914450
C3051	C305	0.569900	0.134500	0.833150
C3061	C306	0.183080	0.341400	0.069580
C3071	C307	0.233700	0.253200	0.096530
C3081	C308	0.716180	0.687800	0.547810
C3091	C309	0.761200	0.419300	0.528900
C3101	C310	0.069900	0.365500	0.916850
C3111	C311	0.614500	0.085200	0.823200
C3121	C312	0.283960	0.263200	0.073030
C3131	C313	0.266300	0.753200	0.153470
C3141	C314	0.750600	0.374800	0.560670
C3151	C315	0.795740	0.301500	0.603550
C3161	C316	0.266600	0.851300	0.203910
C3171	C317	0.806190	0.866400	0.672070
C3181	C318	0.183230	0.292300	0.094800
C3191	C319	0.987500	0.722600	0.887050
C3201	C320	0.936500	0.783000	0.835550
C3211	C321	0.316770	0.792300	0.155200
C3221	C322	0.488200	0.227880	0.851760
C3231	C323	0.080900	0.665600	0.876820
C3241	C324	0.103300	0.171300	0.323150
C3251	C325	0.919100	0.334400	0.376820
C3261	C326	0.816920	0.658600	0.569580
C3271	C327	0.563500	0.283000	0.414450
C3281	C328	0.312030	0.674400	0.108000
C3291	C329	0.928800	0.366200	0.410440
C3301	C330	0.977800	0.690700	0.920670
C3311	C331	0.019600	0.646300	0.932360
C3321	C332	0.511800	0.772120	0.351760
C3331	C333	0.801580	0.342400	0.573480
C3341	C334	0.139800	0.139900	0.349070
C3351	C335	0.947900	0.642900	0.379400
C3361	C336	0.238900	0.206800	0.129190
O531	O53	0.287300	0.561900	0.892320
O541	O54	0.883100	0.569700	0.462550
O551	O55	0.657700	0.927600	0.849080
O561	O56	0.808500	0.556700	0.525050
O571	O57	0.213200	0.046500	0.228480
O581	O58	0.274900	0.430500	0.888050
O591	O59	0.616900	0.069700	0.787450
O601	O60	0.330400	0.572800	0.950850
O611	O61	0.774900	0.069500	0.861950
O621	O62	0.212700	0.061900	0.357680
O631	O63	0.714400	0.583900	0.503710
O641	O64	0.773500	0.502500	0.453200
O651	O65	0.226500	0.497500	0.953200
O661	O66	0.726500	0.002500	0.796800
O671	O67	0.383100	0.930300	0.287450
O681	O68	0.285600	0.416100	0.003710
O691	O69	0.645000	0.059200	0.849390
O701	O70	0.273500	0.997500	0.296800
O711	O71	0.855000	0.559200	0.400610
O721	O72	0.844000	0.052100	0.815720
O731	O73	0.214400	0.916100	0.246290
O741	O74	0.355000	0.940800	0.349390
O751	O75	0.712700	0.438100	0.392320
O761	O76	0.145000	0.440800	0.900610
O771	O77	0.116900	0.430300	0.962550
O781	O78	0.344000	0.447900	0.934280
O791	O79	0.157700	0.572400	0.900920
O801	O80	0.342300	0.072400	0.349080
O811	O81	0.830400	0.927200	0.799150
O821	O82	0.393000	0.059700	0.296540
O831	O83	0.725100	0.569500	0.388050
O841	O84	0.312300	0.075300	0.235550
O851	O85	0.713200	0.453500	0.521520
O861	O86	0.787300	0.938100	0.857680
O871	O87	0.687700	0.924700	0.735550
O881	O88	0.286800	0.546500	0.021520
O891	O89	0.785600	0.083900	0.746290
O901	O90	0.812300	0.424700	0.514450
O911	O91	0.842300	0.427600	0.400920
O921	O92	0.308500	0.943300	0.224950
O931	O93	0.225100	0.930500	0.361950
O941	O94	0.107000	0.559700	0.953460
O951	O95	0.191500	0.443300	0.025050
O961	O96	0.156000	0.947900	0.315720
O971	O97	0.786800	0.953500	0.728480
O981	O98	0.669600	0.427200	0.450850
O991	O99	0.169600	0.072800	0.299150
O1001	O100	0.893000	0.440300	0.453460
O1011	O101	0.656000	0.552100	0.434280
O1021	O102	0.691500	0.056700	0.724950
O1031	O103	0.187700	0.575300	0.014450
O1041	O104	0.607000	0.940300	0.796540
