data_TOWNOK_clean_PM
_symmetry_space_group_name_H-M	'P1'
_cell_length_a	12.308100
_cell_length_b	12.308100
_cell_length_c	27.375000
_cell_angle_alpha	90.000000
_cell_angle_beta	90.000000
_cell_angle_gamma	120.000000
_symmetry_Int_Tables_number 1

loop_
_symmetry_equiv_pos_as_xyz
'x,y,z'

loop_
_atom_site_label
_atom_site_type_symbol
_atom_site_fract_x
_atom_site_fract_y
_atom_site_fract_z
Fe11	Fe1	0.486410	0.243210	0.750000
Fe21	Fe2	0.513590	0.756800	0.250000
Fe31	Fe3	0.243200	0.486400	0.250000
Fe41	Fe4	0.756800	0.513600	0.750000
Fe51	Fe5	0.243200	0.756790	0.250000
Fe61	Fe6	0.756800	0.243210	0.750000
H11	H1	0.316400	0.931400	0.105900
H21	H2	0.282200	0.974700	0.456400
H31	H3	0.307500	0.025300	0.543600
H41	H4	0.066300	0.710400	0.126500
H51	H5	0.710400	0.066300	0.873500
H61	H6	0.615000	0.931400	0.394100
H71	H7	0.355900	0.066300	0.626500
H81	H8	0.615000	0.683600	0.105900
H91	H9	0.068600	0.385000	0.105900
H101	H10	0.289600	0.933700	0.373500
H111	H11	0.355900	0.289600	0.873500
H121	H12	0.933700	0.289600	0.626500
H131	H13	0.717800	0.025300	0.956400
H141	H14	0.644100	0.710400	0.373500
H151	H15	0.307500	0.282200	0.956400
H161	H16	0.931400	0.316400	0.894100
H171	H17	0.066300	0.355900	0.373500
H181	H18	0.931400	0.615000	0.605900
H191	H19	0.385000	0.316400	0.605900
H201	H20	0.974700	0.692500	0.956400
H211	H21	0.710400	0.644100	0.626500
H221	H22	0.717800	0.692500	0.543600
H231	H23	0.683600	0.615000	0.894100
H241	H24	0.933700	0.644100	0.873500
H251	H25	0.282200	0.307500	0.043600
H261	H26	0.974700	0.282200	0.543600
H271	H27	0.692500	0.974700	0.043600
H281	H28	0.025300	0.717800	0.043600
H291	H29	0.644100	0.933700	0.126500
H301	H30	0.289600	0.355900	0.126500
H311	H31	0.683600	0.068600	0.605900
H321	H32	0.692500	0.717800	0.456400
H331	H33	0.385000	0.068600	0.894100
H341	H34	0.025300	0.307500	0.456400
H351	H35	0.068600	0.683600	0.394100
H361	H36	0.316400	0.385000	0.394100
C11	C1	0.550200	0.111900	0.823510
C21	C2	0.940800	0.587200	0.894920
C31	C3	0.888100	0.449800	0.676490
C41	C4	0.940800	0.353600	0.605080
C51	C5	0.412800	0.353600	0.894920
C61	C6	0.452400	0.392900	0.593870
C71	C7	0.607100	0.059500	0.593870
C81	C8	0.353600	0.412800	0.105080
C91	C9	0.353600	0.940800	0.394920
C101	C10	0.350200	0.967600	0.443690
C111	C11	0.438300	0.550200	0.323510
C121	C12	0.587200	0.940800	0.105080
C131	C13	0.032400	0.649800	0.056310
C141	C14	0.463800	0.016300	0.526510
C151	C15	0.547100	0.076500	0.876240
C161	C16	0.550200	0.438300	0.676490
C171	C17	0.412800	0.059200	0.605080
C181	C18	0.447500	0.983700	0.473490
C191	C19	0.971500	0.426900	0.954980
C201	C20	0.392900	0.452400	0.406130
C211	C21	0.016300	0.552500	0.026510
C221	C22	0.449800	0.888100	0.323510
C231	C23	0.587200	0.646400	0.394920
C241	C24	0.573100	0.028500	0.545020
C251	C25	0.940500	0.547600	0.593870
C261	C26	0.536200	0.983700	0.026510
C271	C27	0.076500	0.547100	0.123760
C281	C28	0.544600	0.573100	0.045020
C291	C29	0.646400	0.059200	0.894920
C301	C30	0.452900	0.529400	0.123760
C311	C31	0.552500	0.016300	0.973490
C321	C32	0.888100	0.438300	0.823510
C331	C33	0.529400	0.076500	0.623760
C341	C34	0.547100	0.470600	0.623760
C351	C35	0.028500	0.455400	0.045020
C361	C36	0.971500	0.544600	0.545020
C371	C37	0.649800	0.032400	0.943690
C381	C38	0.032400	0.382600	0.443690
C391	C39	0.350200	0.382600	0.056310
C401	C40	0.649800	0.617400	0.556310
C411	C41	0.547600	0.940500	0.406130
C421	C42	0.544600	0.971500	0.454980
C431	C43	0.455400	0.426900	0.545020
C441	C44	0.573100	0.544600	0.954980
C451	C45	0.426900	0.971500	0.045020
C461	C46	0.382600	0.032400	0.556310
C471	C47	0.059200	0.412800	0.394920
C481	C48	0.452400	0.059500	0.906130
C491	C49	0.059500	0.452400	0.093870
C501	C50	0.452900	0.923500	0.376240
C511	C51	0.923500	0.452900	0.623760
C521	C52	0.607100	0.547600	0.906130
C531	C53	0.470600	0.547100	0.376240
C541	C54	0.940500	0.392900	0.906130
C551	C55	0.617400	0.967600	0.056310
C561	C56	0.923500	0.470600	0.876240
C571	C57	0.111900	0.550200	0.176490
C581	C58	0.561700	0.111900	0.676490
C591	C59	0.438300	0.888100	0.176490
C601	C60	0.447500	0.463800	0.026510
C611	C61	0.967600	0.617400	0.943690
C621	C62	0.470600	0.923500	0.123760
C631	C63	0.536200	0.552500	0.473490
C641	C64	0.449800	0.561700	0.176490
C651	C65	0.028500	0.573100	0.454980
C661	C66	0.561700	0.449800	0.823510
C671	C67	0.455400	0.028500	0.954980
C681	C68	0.552500	0.536200	0.526510
C691	C69	0.983700	0.447500	0.526510
C701	C70	0.967600	0.350200	0.556310
C711	C71	0.059500	0.607100	0.406130
C721	C72	0.392900	0.940500	0.093870
C731	C73	0.426900	0.455400	0.454980
C741	C74	0.983700	0.536200	0.973490
C751	C75	0.076500	0.529400	0.376240
C761	C76	0.111900	0.561700	0.323510
C771	C77	0.617400	0.649800	0.443690
C781	C78	0.059200	0.646400	0.105080
C791	C79	0.529400	0.452900	0.876240
C801	C80	0.463800	0.447500	0.973490
C811	C81	0.016300	0.463800	0.473490
C821	C82	0.547600	0.607100	0.093870
C831	C83	0.646400	0.587200	0.605080
C841	C84	0.382600	0.350200	0.943690
S11	S1	0.340790	0.340790	0.500000
S21	S2	0.000000	0.340790	0.000000
S31	S3	0.000000	0.659210	0.500000
S41	S4	0.340790	0.000000	0.000000
S51	S5	0.659210	0.000000	0.500000
S61	S6	0.659210	0.659210	0.000000
O11	O1	0.524100	0.854200	0.311290
O21	O2	0.885200	0.224300	0.011290
O31	O3	0.224300	0.339100	0.511290
O41	O4	0.475900	0.145800	0.811290
O51	O5	0.775700	0.660900	0.011290
O61	O6	0.475700	0.363300	0.796920
O71	O7	0.636700	0.112400	0.796920
O81	O8	0.224300	0.885200	0.988710
O91	O9	0.660900	0.885200	0.511290
O101	O10	0.339100	0.114800	0.011290
O111	O11	0.475700	0.112400	0.703080
O121	O12	0.114800	0.775700	0.511290
O131	O13	0.333330	0.666660	0.250000
O141	O14	0.145800	0.475900	0.188710
O151	O15	0.112400	0.636700	0.203080
O161	O16	0.775700	0.114800	0.488710
O171	O17	0.363300	0.887600	0.296920
O181	O18	0.114800	0.339100	0.988710
O191	O19	0.524300	0.636700	0.296920
O201	O20	0.660900	0.775700	0.988710
O211	O21	0.524300	0.887600	0.203080
O221	O22	0.330100	0.475900	0.311290
O231	O23	0.669900	0.145800	0.688710
O241	O24	0.636700	0.524300	0.703080
O251	O25	0.887600	0.524300	0.796920
O261	O26	0.363300	0.475700	0.203080
O271	O27	0.475900	0.330100	0.688710
O281	O28	0.666670	0.333340	0.750000
O291	O29	0.330100	0.854200	0.188710
O301	O30	0.887600	0.363300	0.703080
O311	O31	0.854200	0.524100	0.688710
O321	O32	0.112400	0.475700	0.296920
O331	O33	0.669900	0.524100	0.811290
O341	O34	0.885200	0.660900	0.488710
O351	O35	0.339100	0.224300	0.488710
O361	O36	0.854200	0.330100	0.811290
O371	O37	0.145800	0.669900	0.311290
O381	O38	0.524100	0.669900	0.188710
