data_TOZFOF_clean_PM
_symmetry_space_group_name_H-M	'P1'
_cell_length_a	55.289000
_cell_length_b	28.916000
_cell_length_c	17.468000
_cell_angle_alpha	90.000000
_cell_angle_beta	95.920000
_cell_angle_gamma	90.000000
_symmetry_Int_Tables_number 1

loop_
_symmetry_equiv_pos_as_xyz
'x,y,z'

loop_
_atom_site_label
_atom_site_type_symbol
_atom_site_fract_x
_atom_site_fract_y
_atom_site_fract_z
Ru11	Ru1	0.362110	0.189570	0.542340
O11	O1	0.348700	0.254600	0.576800
O21	O2	0.393600	0.199500	0.601800
O31	O3	0.328000	0.175800	0.502600
O41	O4	0.375000	0.124200	0.517300
O51	O5	0.370200	0.213700	0.451100
N11	N1	0.351000	0.161100	0.647800
C11	C1	0.358800	0.291100	0.569200
C21	C2	0.412200	0.215200	0.584400
C31	C3	0.313700	0.181800	0.446500
C41	C4	0.373500	0.107400	0.452700
Ru21	Ru2	0.390950	0.266340	0.445280
Ru31	Ru3	0.359290	0.183580	0.350800
C51	C5	0.365700	0.127200	0.680500
C61	C6	0.328600	0.174300	0.668000
O61	O6	0.374000	0.300100	0.528500
C71	C7	0.348700	0.330300	0.613700
O71	O7	0.416600	0.239300	0.525800
C81	C8	0.436300	0.215500	0.639100
O81	O8	0.321800	0.182400	0.383200
C91	C9	0.286600	0.171600	0.434500
O91	O9	0.366800	0.119600	0.389100
C101	C10	0.382900	0.057500	0.457500
O101	O10	0.411400	0.242600	0.365900
O111	O11	0.367300	0.298100	0.364400
N21	N2	0.412800	0.325800	0.442300
O121	O12	0.393500	0.178800	0.320700
O131	O13	0.351200	0.242800	0.293300
N31	N3	0.347700	0.149800	0.245300
H11	H1	0.380800	0.120900	0.661900
C111	C11	0.357900	0.101400	0.742300
C121	C12	0.321700	0.147600	0.728500
H21	H2	0.319200	0.198600	0.642900
H31	H3	0.348900	0.321100	0.667700
H41	H4	0.331900	0.336200	0.592100
H51	H5	0.358300	0.358500	0.610200
H61	H6	0.449900	0.230000	0.616500
H71	H7	0.440000	0.182800	0.649800
H81	H8	0.433600	0.231300	0.687100
H91	H9	0.277000	0.197800	0.412300
H101	H10	0.281500	0.164300	0.485200
H111	H11	0.283800	0.144600	0.400700
H121	H12	0.373600	0.038400	0.490300
H131	H13	0.400000	0.058200	0.479200
H141	H14	0.381800	0.044300	0.405600
C131	C13	0.411200	0.205600	0.332600
C141	C14	0.354700	0.284300	0.306100
C151	C15	0.416700	0.342400	0.370200
C161	C16	0.424900	0.343900	0.508900
H151	H15	0.367400	0.077300	0.767100
C171	C17	0.336000	0.111800	0.766800
H161	H16	0.306300	0.153400	0.746100
C181	C18	0.431600	0.201300	0.278900
C191	C19	0.345300	0.317300	0.240000
H171	H17	0.407900	0.330000	0.325200
C201	C20	0.433500	0.378000	0.364400
C211	C21	0.441800	0.379400	0.502100
H181	H18	0.421600	0.332400	0.557800
C221	C22	0.325800	0.083200	0.826200
H191	H19	0.425700	0.208800	0.225600
H201	H20	0.437600	0.169400	0.281700
H211	H21	0.444800	0.222400	0.296900
H221	H22	0.338800	0.297200	0.197500
H231	H23	0.357900	0.337400	0.222700
H241	H24	0.332100	0.336300	0.256500
H251	H25	0.436300	0.389900	0.315500
C231	C23	0.445900	0.396100	0.430900
H261	H26	0.450800	0.391400	0.547100
O141	O14	0.305300	0.089100	0.844300
O151	O15	0.338700	0.051200	0.849300
C241	C24	0.463200	0.434200	0.416500
Ru41	Ru4	0.282420	0.061190	0.914740
O161	O16	0.473900	0.448900	0.479300
O171	O17	0.465100	0.445300	0.347000
O181	O18	0.303100	0.086000	0.008700
O191	O19	0.257500	0.039500	0.985100
O201	O20	0.259300	0.037500	0.823800
O211	O21	0.338400	0.048100	0.021000
C251	C25	0.322800	0.075100	0.041400
C261	C26	0.331800	0.102300	0.114200
C271	C27	0.318000	0.138600	0.139500
C281	C28	0.353900	0.090400	0.155600
C291	C29	0.226500	0.042100	0.095000
C301	C30	0.228500	0.041600	0.683200
C311	C31	0.326400	0.161800	0.205500
H271	H27	0.303400	0.147000	0.109400
H281	H28	0.363600	0.065900	0.139100
C321	C32	0.361700	0.114200	0.221400
C331	C33	0.211600	0.041500	0.155500
H291	H29	0.231800	0.070500	0.075400
C341	C34	0.213500	0.041500	0.613700
H301	H30	0.233600	0.070200	0.706400
H311	H31	0.317000	0.186700	0.222300
H321	H32	0.376300	0.106300	0.252000
H331	H33	0.206700	0.069900	0.176900
H341	H34	0.208200	0.069800	0.590100
O221	O22	0.210500	0.051500	0.444400
O231	O23	0.166000	0.949600	0.518400
C351	C35	0.215700	0.072800	0.380200
C361	C36	0.144400	0.939300	0.504600
O241	O24	0.207600	0.050100	0.318700
C371	C37	0.233000	0.109100	0.395100
O251	O25	0.131300	0.948400	0.447900
C381	C38	0.134200	0.906100	0.562400
O261	O26	0.164300	0.949300	0.231000
O271	O27	0.131000	0.949500	0.285700
H351	H35	0.248200	0.098600	0.376600
H361	H36	0.235700	0.115700	0.450400
H371	H37	0.227300	0.137200	0.367400
H381	H38	0.116700	0.911500	0.561700
H391	H39	0.142200	0.912100	0.614100
H401	H40	0.137000	0.873900	0.548200
C391	C39	0.144400	0.933700	0.242700
C401	C40	0.135000	0.891600	0.194300
H411	H41	0.149200	0.872300	0.186900
H421	H42	0.126900	0.900800	0.144000
H431	H43	0.123600	0.874100	0.222500
Ru51	Ru5	0.862110	0.689570	0.542340
O281	O28	0.848700	0.754600	0.576800
O291	O29	0.893600	0.699500	0.601800
O301	O30	0.828000	0.675800	0.502600
O311	O31	0.875000	0.624200	0.517300
O321	O32	0.870200	0.713700	0.451100
N41	N4	0.851000	0.661100	0.647800
C411	C41	0.858800	0.791100	0.569200
C421	C42	0.912200	0.715200	0.584400
C431	C43	0.813700	0.681800	0.446500
C441	C44	0.873500	0.607400	0.452700
Ru61	Ru6	0.890950	0.766340	0.445280
Ru71	Ru7	0.859290	0.683580	0.350800
C451	C45	0.865700	0.627200	0.680500
C461	C46	0.828600	0.674300	0.668000
O331	O33	0.874000	0.800100	0.528500
C471	C47	0.848700	0.830300	0.613700
O341	O34	0.916600	0.739300	0.525800
C481	C48	0.936300	0.715500	0.639100
O351	O35	0.821800	0.682400	0.383200
C491	C49	0.786600	0.671600	0.434500
O361	O36	0.866800	0.619600	0.389100
C501	C50	0.882900	0.557500	0.457500
O371	O37	0.911400	0.742600	0.365900
O381	O38	0.867300	0.798100	0.364400
N51	N5	0.912800	0.825800	0.442300
O391	O39	0.893500	0.678800	0.320700
O401	O40	0.851200	0.742800	0.293300
N61	N6	0.847700	0.649800	0.245300
H441	H44	0.880800	0.620900	0.661900
C511	C51	0.857900	0.601400	0.742300
C521	C52	0.821700	0.647600	0.728500
H451	H45	0.819200	0.698600	0.642900
H461	H46	0.848900	0.821100	0.667700
H471	H47	0.831900	0.836200	0.592100
H481	H48	0.858300	0.858500	0.610200
H491	H49	0.949900	0.730000	0.616500
H501	H50	0.940000	0.682800	0.649800
H511	H51	0.933600	0.731300	0.687100
H521	H52	0.777000	0.697800	0.412300
H531	H53	0.781500	0.664300	0.485200
H541	H54	0.783800	0.644600	0.400700
H551	H55	0.873600	0.538400	0.490300
H561	H56	0.900000	0.558200	0.479200
H571	H57	0.881800	0.544300	0.405600
C531	C53	0.911200	0.705600	0.332600
C541	C54	0.854700	0.784300	0.306100
C551	C55	0.916700	0.842400	0.370200
C561	C56	0.924900	0.843900	0.508900
H581	H58	0.867400	0.577300	0.767100
C571	C57	0.836000	0.611800	0.766800
H591	H59	0.806300	0.653400	0.746100
C581	C58	0.931600	0.701300	0.278900
C591	C59	0.845300	0.817300	0.240000
H601	H60	0.907900	0.830000	0.325200
C601	C60	0.933500	0.878000	0.364400
C611	C61	0.941800	0.879400	0.502100
H611	H61	0.921600	0.832400	0.557800
C621	C62	0.825800	0.583200	0.826200
H621	H62	0.925700	0.708800	0.225600
H631	H63	0.937600	0.669400	0.281700
H641	H64	0.944800	0.722400	0.296900
H651	H65	0.838800	0.797200	0.197500
H661	H66	0.857900	0.837400	0.222700
H671	H67	0.832100	0.836300	0.256500
H681	H68	0.936300	0.889900	0.315500
C631	C63	0.945900	0.896100	0.430900
H691	H69	0.950800	0.891400	0.547100
O411	O41	0.805300	0.589100	0.844300
O421	O42	0.838700	0.551200	0.849300
C641	C64	0.963200	0.934200	0.416500
Ru81	Ru8	0.782420	0.561190	0.914740
O431	O43	0.973900	0.948900	0.479300
O441	O44	0.965100	0.945300	0.347000
O451	O45	0.803100	0.586000	0.008700
O461	O46	0.757500	0.539500	0.985100
O471	O47	0.759300	0.537500	0.823800
O481	O48	0.838400	0.548100	0.021000
C651	C65	0.822800	0.575100	0.041400
C661	C66	0.831800	0.602300	0.114200
C671	C67	0.818000	0.638600	0.139500
C681	C68	0.853900	0.590400	0.155600
C691	C69	0.726500	0.542100	0.095000
C701	C70	0.728500	0.541600	0.683200
C711	C71	0.826400	0.661800	0.205500
H701	H70	0.803400	0.647000	0.109400
H711	H71	0.863600	0.565900	0.139100
C721	C72	0.861700	0.614200	0.221400
C731	C73	0.711600	0.541500	0.155500
H721	H72	0.731800	0.570500	0.075400
C741	C74	0.713500	0.541500	0.613700
H731	H73	0.733600	0.570200	0.706400
H741	H74	0.817000	0.686700	0.222300
H751	H75	0.876300	0.606300	0.252000
H761	H76	0.706700	0.569900	0.176900
H771	H77	0.708200	0.569800	0.590100
O491	O49	0.710500	0.551500	0.444400
O501	O50	0.666000	0.449600	0.518400
C751	C75	0.715700	0.572800	0.380200
C761	C76	0.644400	0.439300	0.504600
O511	O51	0.707600	0.550100	0.318700
C771	C77	0.733000	0.609100	0.395100
O521	O52	0.631300	0.448400	0.447900
C781	C78	0.634200	0.406100	0.562400
O531	O53	0.664300	0.449300	0.231000
O541	O54	0.631000	0.449500	0.285700
H781	H78	0.748200	0.598600	0.376600
H791	H79	0.735700	0.615700	0.450400
H801	H80	0.727300	0.637200	0.367400
H811	H81	0.616700	0.411500	0.561700
H821	H82	0.642200	0.412100	0.614100
H831	H83	0.637000	0.373900	0.548200
C791	C79	0.644400	0.433700	0.242700
C801	C80	0.635000	0.391600	0.194300
H841	H84	0.649200	0.372300	0.186900
H851	H85	0.626900	0.400800	0.144000
H861	H86	0.623600	0.374100	0.222500
Ru91	Ru9	0.637890	0.189570	0.457660
O551	O55	0.651300	0.254600	0.423200
O561	O56	0.606400	0.199500	0.398200
O571	O57	0.672000	0.175800	0.497400
O581	O58	0.625000	0.124200	0.482700
O591	O59	0.629800	0.213700	0.548900
N71	N7	0.649000	0.161100	0.352200
C811	C81	0.641200	0.291100	0.430800
C821	C82	0.587800	0.215200	0.415600
C831	C83	0.686300	0.181800	0.553500
C841	C84	0.626500	0.107400	0.547300
Ru101	Ru10	0.609050	0.266340	0.554720
Ru111	Ru11	0.640710	0.183580	0.649200
C851	C85	0.634300	0.127200	0.319500
C861	C86	0.671400	0.174300	0.332000
O601	O60	0.626000	0.300100	0.471500
C871	C87	0.651300	0.330300	0.386300
O611	O61	0.583400	0.239300	0.474200
C881	C88	0.563700	0.215500	0.360900
O621	O62	0.678200	0.182400	0.616800
C891	C89	0.713400	0.171600	0.565500
O631	O63	0.633200	0.119600	0.610900
C901	C90	0.617100	0.057500	0.542500
O641	O64	0.588600	0.242600	0.634100
O651	O65	0.632700	0.298100	0.635600
N81	N8	0.587200	0.325800	0.557700
O661	O66	0.606500	0.178800	0.679300
O671	O67	0.648800	0.242800	0.706700
N91	N9	0.652300	0.149800	0.754700
H871	H87	0.619200	0.120900	0.338100
C911	C91	0.642100	0.101400	0.257700
C921	C92	0.678300	0.147600	0.271500
H881	H88	0.680800	0.198600	0.357100
H891	H89	0.651100	0.321100	0.332300
H901	H90	0.668100	0.336200	0.407900
H911	H91	0.641700	0.358500	0.389800
H921	H92	0.550100	0.230000	0.383500
H931	H93	0.560000	0.182800	0.350200
H941	H94	0.566400	0.231300	0.312900
H951	H95	0.723000	0.197800	0.587700
H961	H96	0.718500	0.164300	0.514800
H971	H97	0.716200	0.144600	0.599300
H981	H98	0.626400	0.038400	0.509700
H991	H99	0.600000	0.058200	0.520800
H1001	H100	0.618200	0.044300	0.594400
C931	C93	0.588800	0.205600	0.667400
C941	C94	0.645300	0.284300	0.693900
C951	C95	0.583300	0.342400	0.629800
C961	C96	0.575100	0.343900	0.491100
H1011	H101	0.632600	0.077300	0.232900
C971	C97	0.664000	0.111800	0.233200
H1021	H102	0.693700	0.153400	0.253900
C981	C98	0.568400	0.201300	0.721100
C991	C99	0.654700	0.317300	0.760000
H1031	H103	0.592100	0.330000	0.674800
C1001	C100	0.566500	0.378000	0.635600
C1011	C101	0.558200	0.379400	0.497900
H1041	H104	0.578400	0.332400	0.442200
C1021	C102	0.674200	0.083200	0.173800
H1051	H105	0.574300	0.208800	0.774400
H1061	H106	0.562400	0.169400	0.718300
H1071	H107	0.555200	0.222400	0.703100
H1081	H108	0.661200	0.297200	0.802500
H1091	H109	0.642100	0.337400	0.777300
H1101	H110	0.667900	0.336300	0.743500
H1111	H111	0.563700	0.389900	0.684500
C1031	C103	0.554100	0.396100	0.569100
H1121	H112	0.549200	0.391400	0.452900
O681	O68	0.694700	0.089100	0.155700
O691	O69	0.661300	0.051200	0.150700
C1041	C104	0.536800	0.434200	0.583500
Ru121	Ru12	0.717580	0.061190	0.085260
O701	O70	0.526100	0.448900	0.520700
O711	O71	0.534900	0.445300	0.653000
O721	O72	0.696900	0.086000	0.991300
O731	O73	0.742500	0.039500	0.014900
O741	O74	0.740700	0.037500	0.176200
O751	O75	0.661600	0.048100	0.979000
C1051	C105	0.677200	0.075100	0.958600
C1061	C106	0.668200	0.102300	0.885800
C1071	C107	0.682000	0.138600	0.860500
C1081	C108	0.646100	0.090400	0.844400
C1091	C109	0.773500	0.042100	0.905000
C1101	C110	0.771500	0.041600	0.316800
C1111	C111	0.673600	0.161800	0.794500
H1131	H113	0.696600	0.147000	0.890600
H1141	H114	0.636400	0.065900	0.860900
C1121	C112	0.638300	0.114200	0.778600
C1131	C113	0.788400	0.041500	0.844500
H1151	H115	0.768200	0.070500	0.924600
C1141	C114	0.786500	0.041500	0.386300
H1161	H116	0.766400	0.070200	0.293600
H1171	H117	0.683000	0.186700	0.777700
H1181	H118	0.623700	0.106300	0.748000
H1191	H119	0.793300	0.069900	0.823100
H1201	H120	0.791800	0.069800	0.409900
O761	O76	0.789500	0.051500	0.555600
O771	O77	0.834000	0.949600	0.481600
C1151	C115	0.784300	0.072800	0.619800
C1161	C116	0.855600	0.939300	0.495400
O781	O78	0.792400	0.050100	0.681300
C1171	C117	0.767000	0.109100	0.604900
O791	O79	0.868700	0.948400	0.552100
C1181	C118	0.865800	0.906100	0.437600
O801	O80	0.835700	0.949300	0.769000
O811	O81	0.869000	0.949500	0.714300
H1211	H121	0.751800	0.098600	0.623400
H1221	H122	0.764300	0.115700	0.549600
H1231	H123	0.772700	0.137200	0.632600
H1241	H124	0.883300	0.911500	0.438300
H1251	H125	0.857800	0.912100	0.385900
H1261	H126	0.863000	0.873900	0.451800
C1191	C119	0.855600	0.933700	0.757300
C1201	C120	0.865000	0.891600	0.805700
H1271	H127	0.850800	0.872300	0.813100
H1281	H128	0.873100	0.900800	0.856000
H1291	H129	0.876400	0.874100	0.777500
Ru131	Ru13	0.137890	0.689570	0.457660
O821	O82	0.151300	0.754600	0.423200
O831	O83	0.106400	0.699500	0.398200
O841	O84	0.172000	0.675800	0.497400
O851	O85	0.125000	0.624200	0.482700
O861	O86	0.129800	0.713700	0.548900
N101	N10	0.149000	0.661100	0.352200
C1211	C121	0.141200	0.791100	0.430800
C1221	C122	0.087800	0.715200	0.415600
C1231	C123	0.186300	0.681800	0.553500
C1241	C124	0.126500	0.607400	0.547300
Ru141	Ru14	0.109050	0.766340	0.554720
Ru151	Ru15	0.140710	0.683580	0.649200
C1251	C125	0.134300	0.627200	0.319500
C1261	C126	0.171400	0.674300	0.332000
O871	O87	0.126000	0.800100	0.471500
C1271	C127	0.151300	0.830300	0.386300
O881	O88	0.083400	0.739300	0.474200
C1281	C128	0.063700	0.715500	0.360900
O891	O89	0.178200	0.682400	0.616800
C1291	C129	0.213400	0.671600	0.565500
O901	O90	0.133200	0.619600	0.610900
C1301	C130	0.117100	0.557500	0.542500
O911	O91	0.088600	0.742600	0.634100
O921	O92	0.132700	0.798100	0.635600
N111	N11	0.087200	0.825800	0.557700
O931	O93	0.106500	0.678800	0.679300
O941	O94	0.148800	0.742800	0.706700
N121	N12	0.152300	0.649800	0.754700
H1301	H130	0.119200	0.620900	0.338100
C1311	C131	0.142100	0.601400	0.257700
C1321	C132	0.178300	0.647600	0.271500
H1311	H131	0.180800	0.698600	0.357100
H1321	H132	0.151100	0.821100	0.332300
H1331	H133	0.168100	0.836200	0.407900
H1341	H134	0.141700	0.858500	0.389800
H1351	H135	0.050100	0.730000	0.383500
H1361	H136	0.060000	0.682800	0.350200
H1371	H137	0.066400	0.731300	0.312900
H1381	H138	0.223000	0.697800	0.587700
H1391	H139	0.218500	0.664300	0.514800
H1401	H140	0.216200	0.644600	0.599300
H1411	H141	0.126400	0.538400	0.509700
H1421	H142	0.100000	0.558200	0.520800
H1431	H143	0.118200	0.544300	0.594400
C1331	C133	0.088800	0.705600	0.667400
C1341	C134	0.145300	0.784300	0.693900
C1351	C135	0.083300	0.842400	0.629800
C1361	C136	0.075100	0.843900	0.491100
H1441	H144	0.132600	0.577300	0.232900
C1371	C137	0.164000	0.611800	0.233200
H1451	H145	0.193700	0.653400	0.253900
C1381	C138	0.068400	0.701300	0.721100
C1391	C139	0.154700	0.817300	0.760000
H1461	H146	0.092100	0.830000	0.674800
C1401	C140	0.066500	0.878000	0.635600
C1411	C141	0.058200	0.879400	0.497900
H1471	H147	0.078400	0.832400	0.442200
C1421	C142	0.174200	0.583200	0.173800
H1481	H148	0.074300	0.708800	0.774400
H1491	H149	0.062400	0.669400	0.718300
H1501	H150	0.055200	0.722400	0.703100
H1511	H151	0.161200	0.797200	0.802500
H1521	H152	0.142100	0.837400	0.777300
H1531	H153	0.167900	0.836300	0.743500
H1541	H154	0.063700	0.889900	0.684500
C1431	C143	0.054100	0.896100	0.569100
H1551	H155	0.049200	0.891400	0.452900
O951	O95	0.194700	0.589100	0.155700
O961	O96	0.161300	0.551200	0.150700
C1441	C144	0.036800	0.934200	0.583500
Ru161	Ru16	0.217580	0.561190	0.085260
O971	O97	0.026100	0.948900	0.520700
O981	O98	0.034900	0.945300	0.653000
O991	O99	0.196900	0.586000	0.991300
O1001	O100	0.242500	0.539500	0.014900
O1011	O101	0.240700	0.537500	0.176200
O1021	O102	0.161600	0.548100	0.979000
C1451	C145	0.177200	0.575100	0.958600
C1461	C146	0.168200	0.602300	0.885800
C1471	C147	0.182000	0.638600	0.860500
C1481	C148	0.146100	0.590400	0.844400
C1491	C149	0.273500	0.542100	0.905000
C1501	C150	0.271500	0.541600	0.316800
C1511	C151	0.173600	0.661800	0.794500
H1561	H156	0.196600	0.647000	0.890600
H1571	H157	0.136400	0.565900	0.860900
C1521	C152	0.138300	0.614200	0.778600
C1531	C153	0.288400	0.541500	0.844500
H1581	H158	0.268200	0.570500	0.924600
C1541	C154	0.286500	0.541500	0.386300
H1591	H159	0.266400	0.570200	0.293600
H1601	H160	0.183000	0.686700	0.777700
H1611	H161	0.123700	0.606300	0.748000
H1621	H162	0.293300	0.569900	0.823100
H1631	H163	0.291800	0.569800	0.409900
O1031	O103	0.289500	0.551500	0.555600
O1041	O104	0.334000	0.449600	0.481600
C1551	C155	0.284300	0.572800	0.619800
C1561	C156	0.355600	0.439300	0.495400
O1051	O105	0.292400	0.550100	0.681300
C1571	C157	0.267000	0.609100	0.604900
O1061	O106	0.368700	0.448400	0.552100
C1581	C158	0.365800	0.406100	0.437600
O1071	O107	0.335700	0.449300	0.769000
O1081	O108	0.369000	0.449500	0.714300
H1641	H164	0.251800	0.598600	0.623400
H1651	H165	0.264300	0.615700	0.549600
H1661	H166	0.272700	0.637200	0.632600
H1671	H167	0.383300	0.411500	0.438300
H1681	H168	0.357800	0.412100	0.385900
H1691	H169	0.363000	0.373900	0.451800
C1591	C159	0.355600	0.433700	0.757300
C1601	C160	0.365000	0.391600	0.805700
H1701	H170	0.350800	0.372300	0.813100
H1711	H171	0.373100	0.400800	0.856000
H1721	H172	0.376400	0.374100	0.777500
Ru171	Ru17	0.637890	0.810430	0.457660
O1091	O109	0.651300	0.745400	0.423200
O1101	O110	0.606400	0.800500	0.398200
O1111	O111	0.672000	0.824200	0.497400
O1121	O112	0.625000	0.875800	0.482700
O1131	O113	0.629800	0.786300	0.548900
N131	N13	0.649000	0.838900	0.352200
C1611	C161	0.641200	0.708900	0.430800
C1621	C162	0.587800	0.784800	0.415600
C1631	C163	0.686300	0.818200	0.553500
C1641	C164	0.626500	0.892600	0.547300
Ru181	Ru18	0.609050	0.733660	0.554720
Ru191	Ru19	0.640710	0.816420	0.649200
C1651	C165	0.634300	0.872800	0.319500
C1661	C166	0.671400	0.825700	0.332000
O1141	O114	0.626000	0.699900	0.471500
C1671	C167	0.651300	0.669700	0.386300
O1151	O115	0.583400	0.760700	0.474200
C1681	C168	0.563700	0.784500	0.360900
O1161	O116	0.678200	0.817600	0.616800
C1691	C169	0.713400	0.828400	0.565500
O1171	O117	0.633200	0.880400	0.610900
C1701	C170	0.617100	0.942500	0.542500
O1181	O118	0.588600	0.757400	0.634100
O1191	O119	0.632700	0.701900	0.635600
N141	N14	0.587200	0.674200	0.557700
O1201	O120	0.606500	0.821200	0.679300
O1211	O121	0.648800	0.757200	0.706700
N151	N15	0.652300	0.850200	0.754700
H1731	H173	0.619200	0.879100	0.338100
C1711	C171	0.642100	0.898600	0.257700
C1721	C172	0.678300	0.852400	0.271500
H1741	H174	0.680800	0.801400	0.357100
H1751	H175	0.651100	0.678900	0.332300
H1761	H176	0.668100	0.663800	0.407900
H1771	H177	0.641700	0.641500	0.389800
H1781	H178	0.550100	0.770000	0.383500
H1791	H179	0.560000	0.817200	0.350200
H1801	H180	0.566400	0.768700	0.312900
H1811	H181	0.723000	0.802200	0.587700
H1821	H182	0.718500	0.835700	0.514800
H1831	H183	0.716200	0.855400	0.599300
H1841	H184	0.626400	0.961600	0.509700
H1851	H185	0.600000	0.941800	0.520800
H1861	H186	0.618200	0.955700	0.594400
C1731	C173	0.588800	0.794400	0.667400
C1741	C174	0.645300	0.715700	0.693900
C1751	C175	0.583300	0.657600	0.629800
C1761	C176	0.575100	0.656100	0.491100
H1871	H187	0.632600	0.922700	0.232900
C1771	C177	0.664000	0.888200	0.233200
H1881	H188	0.693700	0.846600	0.253900
C1781	C178	0.568400	0.798700	0.721100
C1791	C179	0.654700	0.682700	0.760000
H1891	H189	0.592100	0.670000	0.674800
C1801	C180	0.566500	0.622000	0.635600
C1811	C181	0.558200	0.620600	0.497900
H1901	H190	0.578400	0.667600	0.442200
C1821	C182	0.674200	0.916800	0.173800
H1911	H191	0.574300	0.791200	0.774400
H1921	H192	0.562400	0.830600	0.718300
H1931	H193	0.555200	0.777600	0.703100
H1941	H194	0.661200	0.702800	0.802500
H1951	H195	0.642100	0.662600	0.777300
H1961	H196	0.667900	0.663700	0.743500
H1971	H197	0.563700	0.610100	0.684500
C1831	C183	0.554100	0.603900	0.569100
H1981	H198	0.549200	0.608600	0.452900
O1221	O122	0.694700	0.910900	0.155700
O1231	O123	0.661300	0.948800	0.150700
C1841	C184	0.536800	0.565800	0.583500
Ru201	Ru20	0.717580	0.938810	0.085260
O1241	O124	0.526100	0.551100	0.520700
O1251	O125	0.534900	0.554700	0.653000
O1261	O126	0.696900	0.914000	0.991300
O1271	O127	0.742500	0.960500	0.014900
O1281	O128	0.740700	0.962500	0.176200
O1291	O129	0.661600	0.951900	0.979000
C1851	C185	0.677200	0.924900	0.958600
C1861	C186	0.668200	0.897700	0.885800
C1871	C187	0.682000	0.861400	0.860500
C1881	C188	0.646100	0.909600	0.844400
C1891	C189	0.773500	0.957900	0.905000
C1901	C190	0.771500	0.958400	0.316800
C1911	C191	0.673600	0.838200	0.794500
H1991	H199	0.696600	0.853000	0.890600
H2001	H200	0.636400	0.934100	0.860900
C1921	C192	0.638300	0.885800	0.778600
C1931	C193	0.788400	0.958500	0.844500
H2011	H201	0.768200	0.929500	0.924600
C1941	C194	0.786500	0.958500	0.386300
H2021	H202	0.766400	0.929800	0.293600
H2031	H203	0.683000	0.813300	0.777700
H2041	H204	0.623700	0.893700	0.748000
H2051	H205	0.793300	0.930100	0.823100
H2061	H206	0.791800	0.930200	0.409900
O1301	O130	0.789500	0.948500	0.555600
O1311	O131	0.834000	0.050400	0.481600
C1951	C195	0.784300	0.927200	0.619800
C1961	C196	0.855600	0.060700	0.495400
O1321	O132	0.792400	0.949900	0.681300
C1971	C197	0.767000	0.890900	0.604900
O1331	O133	0.868700	0.051600	0.552100
C1981	C198	0.865800	0.093900	0.437600
O1341	O134	0.835700	0.050700	0.769000
O1351	O135	0.869000	0.050500	0.714300
H2071	H207	0.751800	0.901400	0.623400
H2081	H208	0.764300	0.884300	0.549600
H2091	H209	0.772700	0.862800	0.632600
H2101	H210	0.883300	0.088500	0.438300
H2111	H211	0.857800	0.087900	0.385900
H2121	H212	0.863000	0.126100	0.451800
C1991	C199	0.855600	0.066300	0.757300
C2001	C200	0.865000	0.108400	0.805700
H2131	H213	0.850800	0.127700	0.813100
H2141	H214	0.873100	0.099200	0.856000
H2151	H215	0.876400	0.125900	0.777500
Ru211	Ru21	0.137890	0.310430	0.457660
O1361	O136	0.151300	0.245400	0.423200
O1371	O137	0.106400	0.300500	0.398200
O1381	O138	0.172000	0.324200	0.497400
O1391	O139	0.125000	0.375800	0.482700
O1401	O140	0.129800	0.286300	0.548900
N161	N16	0.149000	0.338900	0.352200
C2011	C201	0.141200	0.208900	0.430800
C2021	C202	0.087800	0.284800	0.415600
C2031	C203	0.186300	0.318200	0.553500
C2041	C204	0.126500	0.392600	0.547300
Ru221	Ru22	0.109050	0.233660	0.554720
Ru231	Ru23	0.140710	0.316420	0.649200
C2051	C205	0.134300	0.372800	0.319500
C2061	C206	0.171400	0.325700	0.332000
O1411	O141	0.126000	0.199900	0.471500
C2071	C207	0.151300	0.169700	0.386300
O1421	O142	0.083400	0.260700	0.474200
C2081	C208	0.063700	0.284500	0.360900
O1431	O143	0.178200	0.317600	0.616800
C2091	C209	0.213400	0.328400	0.565500
O1441	O144	0.133200	0.380400	0.610900
C2101	C210	0.117100	0.442500	0.542500
O1451	O145	0.088600	0.257400	0.634100
O1461	O146	0.132700	0.201900	0.635600
N171	N17	0.087200	0.174200	0.557700
O1471	O147	0.106500	0.321200	0.679300
O1481	O148	0.148800	0.257200	0.706700
N181	N18	0.152300	0.350200	0.754700
H2161	H216	0.119200	0.379100	0.338100
C2111	C211	0.142100	0.398600	0.257700
C2121	C212	0.178300	0.352400	0.271500
H2171	H217	0.180800	0.301400	0.357100
H2181	H218	0.151100	0.178900	0.332300
H2191	H219	0.168100	0.163800	0.407900
H2201	H220	0.141700	0.141500	0.389800
H2211	H221	0.050100	0.270000	0.383500
H2221	H222	0.060000	0.317200	0.350200
H2231	H223	0.066400	0.268700	0.312900
H2241	H224	0.223000	0.302200	0.587700
H2251	H225	0.218500	0.335700	0.514800
H2261	H226	0.216200	0.355400	0.599300
H2271	H227	0.126400	0.461600	0.509700
H2281	H228	0.100000	0.441800	0.520800
H2291	H229	0.118200	0.455700	0.594400
C2131	C213	0.088800	0.294400	0.667400
C2141	C214	0.145300	0.215700	0.693900
C2151	C215	0.083300	0.157600	0.629800
C2161	C216	0.075100	0.156100	0.491100
H2301	H230	0.132600	0.422700	0.232900
C2171	C217	0.164000	0.388200	0.233200
H2311	H231	0.193700	0.346600	0.253900
C2181	C218	0.068400	0.298700	0.721100
C2191	C219	0.154700	0.182700	0.760000
H2321	H232	0.092100	0.170000	0.674800
C2201	C220	0.066500	0.122000	0.635600
C2211	C221	0.058200	0.120600	0.497900
H2331	H233	0.078400	0.167600	0.442200
C2221	C222	0.174200	0.416800	0.173800
H2341	H234	0.074300	0.291200	0.774400
H2351	H235	0.062400	0.330600	0.718300
H2361	H236	0.055200	0.277600	0.703100
H2371	H237	0.161200	0.202800	0.802500
H2381	H238	0.142100	0.162600	0.777300
H2391	H239	0.167900	0.163700	0.743500
H2401	H240	0.063700	0.110100	0.684500
C2231	C223	0.054100	0.103900	0.569100
H2411	H241	0.049200	0.108600	0.452900
O1491	O149	0.194700	0.410900	0.155700
O1501	O150	0.161300	0.448800	0.150700
C2241	C224	0.036800	0.065800	0.583500
Ru241	Ru24	0.217580	0.438810	0.085260
O1511	O151	0.026100	0.051100	0.520700
O1521	O152	0.034900	0.054700	0.653000
O1531	O153	0.196900	0.414000	0.991300
O1541	O154	0.242500	0.460500	0.014900
O1551	O155	0.240700	0.462500	0.176200
O1561	O156	0.161600	0.451900	0.979000
C2251	C225	0.177200	0.424900	0.958600
C2261	C226	0.168200	0.397700	0.885800
C2271	C227	0.182000	0.361400	0.860500
C2281	C228	0.146100	0.409600	0.844400
C2291	C229	0.273500	0.457900	0.905000
C2301	C230	0.271500	0.458400	0.316800
C2311	C231	0.173600	0.338200	0.794500
H2421	H242	0.196600	0.353000	0.890600
H2431	H243	0.136400	0.434100	0.860900
C2321	C232	0.138300	0.385800	0.778600
C2331	C233	0.288400	0.458500	0.844500
H2441	H244	0.268200	0.429500	0.924600
C2341	C234	0.286500	0.458500	0.386300
H2451	H245	0.266400	0.429800	0.293600
H2461	H246	0.183000	0.313300	0.777700
H2471	H247	0.123700	0.393700	0.748000
H2481	H248	0.293300	0.430100	0.823100
H2491	H249	0.291800	0.430200	0.409900
O1571	O157	0.289500	0.448500	0.555600
O1581	O158	0.334000	0.550400	0.481600
C2351	C235	0.284300	0.427200	0.619800
C2361	C236	0.355600	0.560700	0.495400
O1591	O159	0.292400	0.449900	0.681300
C2371	C237	0.267000	0.390900	0.604900
O1601	O160	0.368700	0.551600	0.552100
C2381	C238	0.365800	0.593900	0.437600
O1611	O161	0.335700	0.550700	0.769000
O1621	O162	0.369000	0.550500	0.714300
H2501	H250	0.251800	0.401400	0.623400
H2511	H251	0.264300	0.384300	0.549600
H2521	H252	0.272700	0.362800	0.632600
H2531	H253	0.383300	0.588500	0.438300
H2541	H254	0.357800	0.587900	0.385900
H2551	H255	0.363000	0.626100	0.451800
C2391	C239	0.355600	0.566300	0.757300
C2401	C240	0.365000	0.608400	0.805700
H2561	H256	0.350800	0.627700	0.813100
H2571	H257	0.373100	0.599200	0.856000
H2581	H258	0.376400	0.625900	0.777500
Ru251	Ru25	0.362110	0.810430	0.542340
O1631	O163	0.348700	0.745400	0.576800
O1641	O164	0.393600	0.800500	0.601800
O1651	O165	0.328000	0.824200	0.502600
O1661	O166	0.375000	0.875800	0.517300
O1671	O167	0.370200	0.786300	0.451100
N191	N19	0.351000	0.838900	0.647800
C2411	C241	0.358800	0.708900	0.569200
C2421	C242	0.412200	0.784800	0.584400
C2431	C243	0.313700	0.818200	0.446500
C2441	C244	0.373500	0.892600	0.452700
Ru261	Ru26	0.390950	0.733660	0.445280
Ru271	Ru27	0.359290	0.816420	0.350800
C2451	C245	0.365700	0.872800	0.680500
C2461	C246	0.328600	0.825700	0.668000
O1681	O168	0.374000	0.699900	0.528500
C2471	C247	0.348700	0.669700	0.613700
O1691	O169	0.416600	0.760700	0.525800
C2481	C248	0.436300	0.784500	0.639100
O1701	O170	0.321800	0.817600	0.383200
C2491	C249	0.286600	0.828400	0.434500
O1711	O171	0.366800	0.880400	0.389100
C2501	C250	0.382900	0.942500	0.457500
O1721	O172	0.411400	0.757400	0.365900
O1731	O173	0.367300	0.701900	0.364400
N201	N20	0.412800	0.674200	0.442300
O1741	O174	0.393500	0.821200	0.320700
O1751	O175	0.351200	0.757200	0.293300
N211	N21	0.347700	0.850200	0.245300
H2591	H259	0.380800	0.879100	0.661900
C2511	C251	0.357900	0.898600	0.742300
C2521	C252	0.321700	0.852400	0.728500
H2601	H260	0.319200	0.801400	0.642900
H2611	H261	0.348900	0.678900	0.667700
H2621	H262	0.331900	0.663800	0.592100
H2631	H263	0.358300	0.641500	0.610200
H2641	H264	0.449900	0.770000	0.616500
H2651	H265	0.440000	0.817200	0.649800
H2661	H266	0.433600	0.768700	0.687100
H2671	H267	0.277000	0.802200	0.412300
H2681	H268	0.281500	0.835700	0.485200
H2691	H269	0.283800	0.855400	0.400700
H2701	H270	0.373600	0.961600	0.490300
H2711	H271	0.400000	0.941800	0.479200
H2721	H272	0.381800	0.955700	0.405600
C2531	C253	0.411200	0.794400	0.332600
C2541	C254	0.354700	0.715700	0.306100
C2551	C255	0.416700	0.657600	0.370200
C2561	C256	0.424900	0.656100	0.508900
H2731	H273	0.367400	0.922700	0.767100
C2571	C257	0.336000	0.888200	0.766800
H2741	H274	0.306300	0.846600	0.746100
C2581	C258	0.431600	0.798700	0.278900
C2591	C259	0.345300	0.682700	0.240000
H2751	H275	0.407900	0.670000	0.325200
C2601	C260	0.433500	0.622000	0.364400
C2611	C261	0.441800	0.620600	0.502100
H2761	H276	0.421600	0.667600	0.557800
C2621	C262	0.325800	0.916800	0.826200
H2771	H277	0.425700	0.791200	0.225600
H2781	H278	0.437600	0.830600	0.281700
H2791	H279	0.444800	0.777600	0.296900
H2801	H280	0.338800	0.702800	0.197500
H2811	H281	0.357900	0.662600	0.222700
H2821	H282	0.332100	0.663700	0.256500
H2831	H283	0.436300	0.610100	0.315500
C2631	C263	0.445900	0.603900	0.430900
H2841	H284	0.450800	0.608600	0.547100
O1761	O176	0.305300	0.910900	0.844300
O1771	O177	0.338700	0.948800	0.849300
C2641	C264	0.463200	0.565800	0.416500
Ru281	Ru28	0.282420	0.938810	0.914740
O1781	O178	0.473900	0.551100	0.479300
O1791	O179	0.465100	0.554700	0.347000
O1801	O180	0.303100	0.914000	0.008700
O1811	O181	0.257500	0.960500	0.985100
O1821	O182	0.259300	0.962500	0.823800
O1831	O183	0.338400	0.951900	0.021000
C2651	C265	0.322800	0.924900	0.041400
C2661	C266	0.331800	0.897700	0.114200
C2671	C267	0.318000	0.861400	0.139500
C2681	C268	0.353900	0.909600	0.155600
C2691	C269	0.226500	0.957900	0.095000
C2701	C270	0.228500	0.958400	0.683200
C2711	C271	0.326400	0.838200	0.205500
H2851	H285	0.303400	0.853000	0.109400
H2861	H286	0.363600	0.934100	0.139100
C2721	C272	0.361700	0.885800	0.221400
C2731	C273	0.211600	0.958500	0.155500
H2871	H287	0.231800	0.929500	0.075400
C2741	C274	0.213500	0.958500	0.613700
H2881	H288	0.233600	0.929800	0.706400
H2891	H289	0.317000	0.813300	0.222300
H2901	H290	0.376300	0.893700	0.252000
H2911	H291	0.206700	0.930100	0.176900
H2921	H292	0.208200	0.930200	0.590100
O1841	O184	0.210500	0.948500	0.444400
O1851	O185	0.166000	0.050400	0.518400
C2751	C275	0.215700	0.927200	0.380200
C2761	C276	0.144400	0.060700	0.504600
O1861	O186	0.207600	0.949900	0.318700
C2771	C277	0.233000	0.890900	0.395100
O1871	O187	0.131300	0.051600	0.447900
C2781	C278	0.134200	0.093900	0.562400
O1881	O188	0.164300	0.050700	0.231000
O1891	O189	0.131000	0.050500	0.285700
H2931	H293	0.248200	0.901400	0.376600
H2941	H294	0.235700	0.884300	0.450400
H2951	H295	0.227300	0.862800	0.367400
H2961	H296	0.116700	0.088500	0.561700
H2971	H297	0.142200	0.087900	0.614100
H2981	H298	0.137000	0.126100	0.548200
C2791	C279	0.144400	0.066300	0.242700
C2801	C280	0.135000	0.108400	0.194300
H2991	H299	0.149200	0.127700	0.186900
H3001	H300	0.126900	0.099200	0.144000
H3011	H301	0.123600	0.125900	0.222500
Ru291	Ru29	0.862110	0.310430	0.542340
O1901	O190	0.848700	0.245400	0.576800
O1911	O191	0.893600	0.300500	0.601800
O1921	O192	0.828000	0.324200	0.502600
O1931	O193	0.875000	0.375800	0.517300
O1941	O194	0.870200	0.286300	0.451100
N221	N22	0.851000	0.338900	0.647800
C2811	C281	0.858800	0.208900	0.569200
C2821	C282	0.912200	0.284800	0.584400
C2831	C283	0.813700	0.318200	0.446500
C2841	C284	0.873500	0.392600	0.452700
Ru301	Ru30	0.890950	0.233660	0.445280
Ru311	Ru31	0.859290	0.316420	0.350800
C2851	C285	0.865700	0.372800	0.680500
C2861	C286	0.828600	0.325700	0.668000
O1951	O195	0.874000	0.199900	0.528500
C2871	C287	0.848700	0.169700	0.613700
O1961	O196	0.916600	0.260700	0.525800
C2881	C288	0.936300	0.284500	0.639100
O1971	O197	0.821800	0.317600	0.383200
C2891	C289	0.786600	0.328400	0.434500
O1981	O198	0.866800	0.380400	0.389100
C2901	C290	0.882900	0.442500	0.457500
O1991	O199	0.911400	0.257400	0.365900
O2001	O200	0.867300	0.201900	0.364400
N231	N23	0.912800	0.174200	0.442300
O2011	O201	0.893500	0.321200	0.320700
O2021	O202	0.851200	0.257200	0.293300
N241	N24	0.847700	0.350200	0.245300
H3021	H302	0.880800	0.379100	0.661900
C2911	C291	0.857900	0.398600	0.742300
C2921	C292	0.821700	0.352400	0.728500
H3031	H303	0.819200	0.301400	0.642900
H3041	H304	0.848900	0.178900	0.667700
H3051	H305	0.831900	0.163800	0.592100
H3061	H306	0.858300	0.141500	0.610200
H3071	H307	0.949900	0.270000	0.616500
H3081	H308	0.940000	0.317200	0.649800
H3091	H309	0.933600	0.268700	0.687100
H3101	H310	0.777000	0.302200	0.412300
H3111	H311	0.781500	0.335700	0.485200
H3121	H312	0.783800	0.355400	0.400700
H3131	H313	0.873600	0.461600	0.490300
H3141	H314	0.900000	0.441800	0.479200
H3151	H315	0.881800	0.455700	0.405600
C2931	C293	0.911200	0.294400	0.332600
C2941	C294	0.854700	0.215700	0.306100
C2951	C295	0.916700	0.157600	0.370200
C2961	C296	0.924900	0.156100	0.508900
H3161	H316	0.867400	0.422700	0.767100
C2971	C297	0.836000	0.388200	0.766800
H3171	H317	0.806300	0.346600	0.746100
C2981	C298	0.931600	0.298700	0.278900
C2991	C299	0.845300	0.182700	0.240000
H3181	H318	0.907900	0.170000	0.325200
C3001	C300	0.933500	0.122000	0.364400
C3011	C301	0.941800	0.120600	0.502100
H3191	H319	0.921600	0.167600	0.557800
C3021	C302	0.825800	0.416800	0.826200
H3201	H320	0.925700	0.291200	0.225600
H3211	H321	0.937600	0.330600	0.281700
H3221	H322	0.944800	0.277600	0.296900
H3231	H323	0.838800	0.202800	0.197500
H3241	H324	0.857900	0.162600	0.222700
H3251	H325	0.832100	0.163700	0.256500
H3261	H326	0.936300	0.110100	0.315500
C3031	C303	0.945900	0.103900	0.430900
H3271	H327	0.950800	0.108600	0.547100
O2031	O203	0.805300	0.410900	0.844300
O2041	O204	0.838700	0.448800	0.849300
C3041	C304	0.963200	0.065800	0.416500
Ru321	Ru32	0.782420	0.438810	0.914740
O2051	O205	0.973900	0.051100	0.479300
O2061	O206	0.965100	0.054700	0.347000
O2071	O207	0.803100	0.414000	0.008700
O2081	O208	0.757500	0.460500	0.985100
O2091	O209	0.759300	0.462500	0.823800
O2101	O210	0.838400	0.451900	0.021000
C3051	C305	0.822800	0.424900	0.041400
C3061	C306	0.831800	0.397700	0.114200
C3071	C307	0.818000	0.361400	0.139500
C3081	C308	0.853900	0.409600	0.155600
C3091	C309	0.726500	0.457900	0.095000
C3101	C310	0.728500	0.458400	0.683200
C3111	C311	0.826400	0.338200	0.205500
H3281	H328	0.803400	0.353000	0.109400
H3291	H329	0.863600	0.434100	0.139100
C3121	C312	0.861700	0.385800	0.221400
C3131	C313	0.711600	0.458500	0.155500
H3301	H330	0.731800	0.429500	0.075400
C3141	C314	0.713500	0.458500	0.613700
H3311	H331	0.733600	0.429800	0.706400
H3321	H332	0.817000	0.313300	0.222300
H3331	H333	0.876300	0.393700	0.252000
H3341	H334	0.706700	0.430100	0.176900
H3351	H335	0.708200	0.430200	0.590100
O2111	O211	0.710500	0.448500	0.444400
O2121	O212	0.666000	0.550400	0.518400
C3151	C315	0.715700	0.427200	0.380200
C3161	C316	0.644400	0.560700	0.504600
O2131	O213	0.707600	0.449900	0.318700
C3171	C317	0.733000	0.390900	0.395100
O2141	O214	0.631300	0.551600	0.447900
C3181	C318	0.634200	0.593900	0.562400
O2151	O215	0.664300	0.550700	0.231000
O2161	O216	0.631000	0.550500	0.285700
H3361	H336	0.748200	0.401400	0.376600
H3371	H337	0.735700	0.384300	0.450400
H3381	H338	0.727300	0.362800	0.367400
H3391	H339	0.616700	0.588500	0.561700
H3401	H340	0.642200	0.587900	0.614100
H3411	H341	0.637000	0.626100	0.548200
C3191	C319	0.644400	0.566300	0.242700
C3201	C320	0.635000	0.608400	0.194300
H3421	H342	0.649200	0.627700	0.186900
H3431	H343	0.626900	0.599200	0.144000
H3441	H344	0.623600	0.625900	0.222500
Ru331	Ru33	0.337530	0.000000	0.934700
O2171	O217	0.300570	0.000000	0.920300
C3211	C321	0.253100	0.000000	0.007800
C3221	C322	0.251400	0.000000	0.799700
C3231	C323	0.232500	0.000000	0.062300
C3241	C324	0.236200	0.000000	0.718400
N251	N25	0.205400	0.000000	0.186900
N261	N26	0.206100	0.000000	0.579400
Ru341	Ru34	0.185350	0.000000	0.285180
Ru351	Ru35	0.186960	0.000000	0.475400
O2181	O218	0.170700	0.000000	0.382600
Ru361	Ru36	0.134150	0.000000	0.367430
N271	N27	0.095100	0.000000	0.355500
C3251	C325	0.083000	0.000000	0.281800
C3261	C326	0.083300	0.000000	0.421000
H3451	H345	0.091600	0.000000	0.237400
C3271	C327	0.057500	0.000000	0.275600
C3281	C328	0.057700	0.000000	0.413700
H3461	H346	0.092300	0.000000	0.470300
H3471	H347	0.048400	0.000000	0.226500
C3291	C329	0.045700	0.000000	0.341600
H3481	H348	0.049100	0.000000	0.457900
C3301	C330	0.017900	0.000000	0.327800
O2191	O219	0.007400	0.000000	0.385100
O2201	O220	0.010300	0.000000	0.260300
Ru371	Ru37	0.837530	0.500000	0.934700
O2211	O221	0.800570	0.500000	0.920300
C3311	C331	0.753100	0.500000	0.007800
C3321	C332	0.751400	0.500000	0.799700
C3331	C333	0.732500	0.500000	0.062300
C3341	C334	0.736200	0.500000	0.718400
N281	N28	0.705400	0.500000	0.186900
N291	N29	0.706100	0.500000	0.579400
Ru381	Ru38	0.685350	0.500000	0.285180
Ru391	Ru39	0.686960	0.500000	0.475400
O2221	O222	0.670700	0.500000	0.382600
Ru401	Ru40	0.634150	0.500000	0.367430
N301	N30	0.595100	0.500000	0.355500
C3351	C335	0.583000	0.500000	0.281800
C3361	C336	0.583300	0.500000	0.421000
H3491	H349	0.591600	0.500000	0.237400
C3371	C337	0.557500	0.500000	0.275600
C3381	C338	0.557700	0.500000	0.413700
H3501	H350	0.592300	0.500000	0.470300
H3511	H351	0.548400	0.500000	0.226500
C3391	C339	0.545700	0.500000	0.341600
H3521	H352	0.549100	0.500000	0.457900
C3401	C340	0.517900	0.500000	0.327800
O2231	O223	0.507400	0.500000	0.385100
O2241	O224	0.510300	0.500000	0.260300
Ru411	Ru41	0.662470	0.000000	0.065300
O2251	O225	0.699430	0.000000	0.079700
C3411	C341	0.746900	0.000000	0.992200
C3421	C342	0.748600	0.000000	0.200300
C3431	C343	0.767500	0.000000	0.937700
C3441	C344	0.763800	0.000000	0.281600
N311	N31	0.794600	0.000000	0.813100
N321	N32	0.793900	0.000000	0.420600
Ru421	Ru42	0.814650	0.000000	0.714820
Ru431	Ru43	0.813040	0.000000	0.524600
O2261	O226	0.829300	0.000000	0.617400
Ru441	Ru44	0.865850	0.000000	0.632570
N331	N33	0.904900	0.000000	0.644500
C3451	C345	0.917000	0.000000	0.718200
C3461	C346	0.916700	0.000000	0.579000
H3531	H353	0.908400	0.000000	0.762600
C3471	C347	0.942500	0.000000	0.724400
C3481	C348	0.942300	0.000000	0.586300
H3541	H354	0.907700	0.000000	0.529700
H3551	H355	0.951600	0.000000	0.773500
C3491	C349	0.954300	0.000000	0.658400
H3561	H356	0.950900	0.000000	0.542100
C3501	C350	0.982100	0.000000	0.672200
O2271	O227	0.992600	0.000000	0.614900
O2281	O228	0.989700	0.000000	0.739700
Ru451	Ru45	0.162470	0.500000	0.065300
O2291	O229	0.199430	0.500000	0.079700
C3511	C351	0.246900	0.500000	0.992200
C3521	C352	0.248600	0.500000	0.200300
C3531	C353	0.267500	0.500000	0.937700
C3541	C354	0.263800	0.500000	0.281600
N341	N34	0.294600	0.500000	0.813100
N351	N35	0.293900	0.500000	0.420600
Ru461	Ru46	0.314650	0.500000	0.714820
Ru471	Ru47	0.313040	0.500000	0.524600
O2301	O230	0.329300	0.500000	0.617400
Ru481	Ru48	0.365850	0.500000	0.632570
N361	N36	0.404900	0.500000	0.644500
C3551	C355	0.417000	0.500000	0.718200
C3561	C356	0.416700	0.500000	0.579000
H3571	H357	0.408400	0.500000	0.762600
C3571	C357	0.442500	0.500000	0.724400
C3581	C358	0.442300	0.500000	0.586300
H3581	H358	0.407700	0.500000	0.529700
H3591	H359	0.451600	0.500000	0.773500
C3591	C359	0.454300	0.500000	0.658400
H3601	H360	0.450900	0.500000	0.542100
C3601	C360	0.482100	0.500000	0.672200
O2311	O231	0.492600	0.500000	0.614900
O2321	O232	0.489700	0.500000	0.739700
Co11	Co1	0.500000	0.500000	0.500000
Co21	Co2	0.000000	0.000000	0.500000
Co31	Co3	0.474850	0.500000	0.298900
Co41	Co4	0.974850	0.000000	0.298900
Co51	Co5	0.525150	0.500000	0.701100
Co61	Co6	0.025150	0.000000	0.701100
