data_TUBCEA_clean_PM
_symmetry_space_group_name_H-M	'P1'
_cell_length_a	10.102000
_cell_length_b	10.769000
_cell_length_c	14.495300
_cell_angle_alpha	98.012500
_cell_angle_beta	95.703700
_cell_angle_gamma	110.535000
_symmetry_Int_Tables_number 1

loop_
_symmetry_equiv_pos_as_xyz
'x,y,z'

loop_
_atom_site_label
_atom_site_type_symbol
_atom_site_fract_x
_atom_site_fract_y
_atom_site_fract_z
Cd11	Cd1	0.000000	0.500000	0.000000
Cd21	Cd2	0.902620	0.362990	0.402750
Cd31	Cd3	0.023080	0.277070	0.179150
Cd41	Cd4	0.097380	0.637010	0.597250
Cd51	Cd5	0.976920	0.722930	0.820850
H11	H1	0.331200	0.052900	0.831100
H21	H2	0.167800	0.924900	0.335800
H31	H3	0.597900	0.581100	0.659500
H41	H4	0.457200	0.201400	0.187200
H51	H5	0.728600	0.535800	0.073600
H61	H6	0.822100	0.862400	0.686400
H71	H7	0.648400	0.491300	0.390300
H81	H8	0.526800	0.213500	0.932600
H91	H9	0.542800	0.798600	0.812800
H101	H10	0.076100	0.016600	0.927600
H111	H11	0.177900	0.137600	0.313600
H121	H12	0.832200	0.075100	0.664200
H131	H13	0.271400	0.464200	0.926400
H141	H14	0.923900	0.983400	0.072400
H151	H15	0.530900	0.464800	0.151500
H161	H16	0.085900	0.228800	0.916500
H171	H17	0.402100	0.418900	0.340500
H181	H18	0.351600	0.508700	0.609700
H191	H19	0.668800	0.947100	0.168900
H201	H20	0.469100	0.535200	0.848500
H211	H21	0.271300	0.043200	0.073200
H221	H22	0.473200	0.786500	0.067400
H231	H23	0.728700	0.956800	0.926800
H241	H24	0.914100	0.771200	0.083500
C11	C1	0.353800	0.463400	0.471000
C21	C2	0.481900	0.520800	0.910000
C31	C3	0.299900	0.808700	0.739100
C41	C4	0.646200	0.536600	0.529000
C51	C5	0.034500	0.822000	0.214100
C61	C6	0.587500	0.966000	0.152600
C71	C7	0.877400	0.938000	0.731600
C81	C8	0.362600	0.478500	0.956500
C91	C9	0.582300	0.088200	0.189100
C101	C10	0.348700	0.022100	0.095800
C111	C11	0.529100	0.129600	0.908900
C121	C12	0.462100	0.119100	0.162100
C131	C13	0.802800	0.577900	0.561300
C141	C14	0.965500	0.178000	0.785900
C151	C15	0.026300	0.029100	0.874400
C161	C16	0.122600	0.062000	0.268400
C171	C17	0.651300	0.977900	0.904200
C181	C18	0.221800	0.794100	0.998000
C191	C19	0.256700	0.404200	0.097100
C201	C20	0.588300	0.493300	0.434600
C211	C21	0.883100	0.065600	0.718100
C221	C22	0.411700	0.506700	0.565400
C231	C23	0.384400	0.458700	0.047000
C241	C24	0.987900	0.314800	0.770400
C251	C25	0.034700	0.156700	0.867500
C261	C26	0.743300	0.595800	0.902900
C271	C27	0.518100	0.479200	0.090000
C281	C28	0.700100	0.191300	0.260900
C291	C29	0.559200	0.547600	0.596100
C301	C30	0.537900	0.880900	0.837900
C311	C31	0.470900	0.870400	0.091100
C321	C32	0.412500	0.034000	0.847400
C331	C33	0.778200	0.205900	0.002000
C341	C34	0.351000	0.899900	0.064900
C351	C35	0.116900	0.934400	0.281900
C361	C36	0.012100	0.685200	0.229600
C371	C37	0.649000	0.100100	0.935100
C381	C38	0.615600	0.541300	0.953000
C391	C39	0.637400	0.521500	0.043500
C401	C40	0.417700	0.911800	0.810900
C411	C41	0.965300	0.843300	0.132500
C421	C42	0.197200	0.422100	0.438700
C431	C43	0.973700	0.970900	0.125600
C441	C44	0.440800	0.452400	0.403900
N11	N1	0.995200	0.651400	0.314100
N21	N2	0.982400	0.477300	0.215400
N31	N3	0.022200	0.478800	0.696600
N41	N4	0.977800	0.521200	0.303400
N51	N5	0.995300	0.421200	0.834200
N61	N6	0.950800	0.923100	0.809100
N71	N7	0.017600	0.522700	0.784600
N81	N8	0.004800	0.348600	0.685900
N91	N9	0.004700	0.578800	0.165800
N101	N10	0.049200	0.076900	0.190900
O11	O1	0.125700	0.463600	0.496800
O21	O2	0.725700	0.626000	0.823800
O31	O3	0.329000	0.730400	0.680000
O41	O4	0.172000	0.808700	0.735300
O51	O5	0.828000	0.191300	0.264700
O61	O6	0.799000	0.326700	0.999200
O71	O7	0.201000	0.673300	0.000800
O81	O8	0.853200	0.163500	0.052600
O91	O9	0.864100	0.651700	0.638700
O101	O10	0.146800	0.836500	0.947400
O111	O11	0.135900	0.348300	0.361300
O121	O12	0.274300	0.374000	0.176200
O131	O13	0.671000	0.269600	0.320000
O141	O14	0.132200	0.386200	0.053200
O151	O15	0.874300	0.536400	0.503200
O161	O16	0.867800	0.613800	0.946800
