data_TUCJAD_clean_PM
_symmetry_space_group_name_H-M	'P1'
_cell_length_a	9.855200
_cell_length_b	17.982800
_cell_length_c	21.359000
_cell_angle_alpha	103.912000
_cell_angle_beta	90.000000
_cell_angle_gamma	90.000000
_symmetry_Int_Tables_number 1

loop_
_symmetry_equiv_pos_as_xyz
'x,y,z'

loop_
_atom_site_label
_atom_site_type_symbol
_atom_site_fract_x
_atom_site_fract_y
_atom_site_fract_z
Mn11	Mn1	0.118220	0.196390	0.121390
Mn21	Mn2	0.105400	0.278830	0.293970
Mn31	Mn3	0.282620	0.286110	0.442580
Mn41	Mn4	0.618220	0.803610	0.378610
Mn51	Mn5	0.605400	0.721170	0.206030
Mn61	Mn6	0.782620	0.713890	0.057420
Mn71	Mn7	0.881780	0.803610	0.878610
Mn81	Mn8	0.894600	0.721170	0.706030
Mn91	Mn9	0.717380	0.713890	0.557420
Mn101	Mn10	0.381780	0.196390	0.621390
Mn111	Mn11	0.394600	0.278830	0.793970
Mn121	Mn12	0.217380	0.286110	0.942580
H11	H1	0.846200	0.074700	0.326900
H21	H2	0.776300	0.939200	0.308100
H31	H3	0.099400	0.386700	0.098600
H41	H4	0.020600	0.501800	0.066600
H51	H5	0.792300	0.289400	0.360100
H61	H6	0.560900	0.281100	0.402800
H71	H7	0.346200	0.925300	0.173100
H81	H8	0.276300	0.060800	0.191900
H91	H9	0.599400	0.613300	0.401400
H101	H10	0.520600	0.498200	0.433400
H111	H11	0.292300	0.710600	0.139900
H121	H12	0.060900	0.718900	0.097200
H131	H13	0.153800	0.925300	0.673100
H141	H14	0.223700	0.060800	0.691900
H151	H15	0.900600	0.613300	0.901400
H161	H16	0.979400	0.498200	0.933400
H171	H17	0.207700	0.710600	0.639900
H181	H18	0.439100	0.718900	0.597200
H191	H19	0.653800	0.074700	0.826900
H201	H20	0.723700	0.939200	0.808100
H211	H21	0.400600	0.386700	0.598600
H221	H22	0.479400	0.501800	0.566600
H231	H23	0.707700	0.289400	0.860100
H241	H24	0.939100	0.281100	0.902800
C11	C1	0.924900	0.052990	0.236130
C21	C2	0.861700	0.037600	0.287700
C31	C3	0.821000	0.960020	0.276790
C41	C4	0.852900	0.918790	0.216980
C51	C5	0.979800	0.127150	0.228790
C61	C6	0.817700	0.837540	0.186210
C71	C7	0.978700	0.413060	0.178560
C81	C8	0.035700	0.421740	0.122810
C91	C9	0.991000	0.487660	0.104470
C101	C10	0.900400	0.528890	0.147200
C111	C11	0.007700	0.355060	0.214420
C121	C12	0.830500	0.601530	0.144840
C131	C13	0.871300	0.256970	0.438220
C141	C14	0.773700	0.275290	0.399380
C151	C15	0.640900	0.270890	0.424140
C161	C16	0.640000	0.250500	0.481920
C171	C17	0.018700	0.259750	0.432410
C181	C18	0.528500	0.240950	0.524580
C191	C19	0.424900	0.947010	0.263870
C201	C20	0.361700	0.962400	0.212300
C211	C21	0.321000	0.039980	0.223210
C221	C22	0.352900	0.081210	0.283020
C231	C23	0.479800	0.872850	0.271210
C241	C24	0.317700	0.162460	0.313790
C251	C25	0.478700	0.586940	0.321440
C261	C26	0.535700	0.578260	0.377190
C271	C27	0.491000	0.512340	0.395530
C281	C28	0.400400	0.471110	0.352800
C291	C29	0.507700	0.644940	0.285580
C301	C30	0.330500	0.398470	0.355160
C311	C31	0.371300	0.743030	0.061780
C321	C32	0.273700	0.724710	0.100620
C331	C33	0.140900	0.729110	0.075860
C341	C34	0.140000	0.749500	0.018080
C351	C35	0.518700	0.740250	0.067590
C361	C36	0.028500	0.759050	0.975420
C371	C37	0.075100	0.947010	0.763870
C381	C38	0.138300	0.962400	0.712300
C391	C39	0.179000	0.039980	0.723210
C401	C40	0.147100	0.081210	0.783020
C411	C41	0.020200	0.872850	0.771210
C421	C42	0.182300	0.162460	0.813790
C431	C43	0.021300	0.586940	0.821440
C441	C44	0.964300	0.578260	0.877190
C451	C45	0.009000	0.512340	0.895530
C461	C46	0.099600	0.471110	0.852800
C471	C47	0.992300	0.644940	0.785580
C481	C48	0.169500	0.398470	0.855160
C491	C49	0.128700	0.743030	0.561780
C501	C50	0.226300	0.724710	0.600620
C511	C51	0.359100	0.729110	0.575860
C521	C52	0.360000	0.749500	0.518080
C531	C53	0.981300	0.740250	0.567590
C541	C54	0.471500	0.759050	0.475420
C551	C55	0.575100	0.052990	0.736130
C561	C56	0.638300	0.037600	0.787700
C571	C57	0.679000	0.960020	0.776790
C581	C58	0.647100	0.918790	0.716980
C591	C59	0.520200	0.127150	0.728790
C601	C60	0.682300	0.837540	0.686210
C611	C61	0.521300	0.413060	0.678560
C621	C62	0.464300	0.421740	0.622810
C631	C63	0.509000	0.487660	0.604470
C641	C64	0.599600	0.528890	0.647200
C651	C65	0.492300	0.355060	0.714420
C661	C66	0.669500	0.601530	0.644840
C671	C67	0.628700	0.256970	0.938220
C681	C68	0.726300	0.275290	0.899380
C691	C69	0.859100	0.270890	0.924140
C701	C70	0.860000	0.250500	0.981920
C711	C71	0.481300	0.259750	0.932410
C721	C72	0.971500	0.240950	0.024580
S11	S1	0.867550	0.486690	0.209720
S21	S2	0.803140	0.235760	0.505650
S31	S3	0.935310	0.973080	0.173010
S41	S4	0.367550	0.513310	0.290280
S51	S5	0.303140	0.764240	0.994350
S61	S6	0.435310	0.026920	0.326990
S71	S7	0.132450	0.513310	0.790280
S81	S8	0.196860	0.764240	0.494350
S91	S9	0.064690	0.026920	0.826990
S101	S10	0.632450	0.486690	0.709720
S111	S11	0.696860	0.235760	0.005650
S121	S12	0.564690	0.973080	0.673010
O11	O1	0.032290	0.126620	0.174740
O21	O2	0.973120	0.183240	0.276240
O31	O3	0.835590	0.815060	0.126660
O41	O4	0.769560	0.798790	0.222870
O51	O5	0.097190	0.303710	0.192610
O61	O6	0.951640	0.359220	0.267660
O71	O7	0.869960	0.633540	0.101630
O81	O8	0.740440	0.624550	0.186160
O91	O9	0.070770	0.295580	0.393660
O101	O10	0.090510	0.232130	0.469510
O111	O11	0.408030	0.255060	0.512010
O121	O12	0.560460	0.217770	0.573420
O131	O13	0.532290	0.873380	0.325260
O141	O14	0.473120	0.816760	0.223760
O151	O15	0.335590	0.184940	0.373340
O161	O16	0.269560	0.201210	0.277130
O171	O17	0.597190	0.696290	0.307390
O181	O18	0.451640	0.640780	0.232340
O191	O19	0.369960	0.366460	0.398370
O201	O20	0.240440	0.375450	0.313840
O211	O21	0.570770	0.704420	0.106340
O221	O22	0.590510	0.767870	0.030490
O231	O23	0.908030	0.744940	0.987990
O241	O24	0.060460	0.782230	0.926580
O251	O25	0.967710	0.873380	0.825260
O261	O26	0.026880	0.816760	0.723760
O271	O27	0.164410	0.184940	0.873340
O281	O28	0.230440	0.201210	0.777130
O291	O29	0.902810	0.696290	0.807390
O301	O30	0.048360	0.640780	0.732340
O311	O31	0.130040	0.366460	0.898370
O321	O32	0.259560	0.375450	0.813840
O331	O33	0.929230	0.704420	0.606340
O341	O34	0.909490	0.767870	0.530490
O351	O35	0.591970	0.744940	0.487990
O361	O36	0.439540	0.782230	0.426580
O371	O37	0.467710	0.126620	0.674740
O381	O38	0.526880	0.183240	0.776240
O391	O39	0.664410	0.815060	0.626660
O401	O40	0.730440	0.798790	0.722870
O411	O41	0.402810	0.303710	0.692610
O421	O42	0.548360	0.359220	0.767660
O431	O43	0.630040	0.633540	0.601630
O441	O44	0.759560	0.624550	0.686160
O451	O45	0.429230	0.295580	0.893660
O461	O46	0.409490	0.232130	0.969510
O471	O47	0.091970	0.255060	0.012010
O481	O48	0.939540	0.217770	0.073420
