data_TUGFAE_clean_PM
_symmetry_space_group_name_H-M	'P1'
_cell_length_a	17.088000
_cell_length_b	14.769000
_cell_length_c	14.165000
_cell_angle_alpha	90.000000
_cell_angle_beta	116.039000
_cell_angle_gamma	90.000000
_symmetry_Int_Tables_number 1

loop_
_symmetry_equiv_pos_as_xyz
'x,y,z'

loop_
_atom_site_label
_atom_site_type_symbol
_atom_site_fract_x
_atom_site_fract_y
_atom_site_fract_z
Ni11	Ni1	0.794980	0.001510	0.998050
Ni21	Ni2	0.804730	0.015930	0.254530
O11	O1	0.484900	0.916900	0.355200
O21	O2	0.868300	0.986700	0.915200
N11	N1	0.399200	0.926200	0.292200
N21	N2	0.952300	0.976200	0.969200
C11	C1	0.350500	0.851000	0.266400
H11	H1	0.375300	0.794500	0.290200
C21	C2	0.261400	0.860000	0.203000
H21	H2	0.226200	0.808700	0.185300
C31	C3	0.224400	0.943200	0.166200
C41	C4	0.275700	0.015000	0.190800
H31	H3	0.252600	0.071400	0.163200
C51	C5	0.366100	0.006600	0.259300
H41	H4	0.401300	0.057700	0.280600
C61	C6	0.004600	0.048500	0.007000
H51	H5	0.980800	0.106200	0.990100
C71	C7	0.091500	0.039600	0.069400
H61	H6	0.126200	0.091100	0.092700
C81	C8	0.128600	0.955600	0.098200
C91	C9	0.075000	0.881200	0.057000
H71	H7	0.099000	0.823500	0.072800
C101	C10	0.988200	0.890000	0.994300
H81	H8	0.953300	0.839000	0.968400
O31	O3	0.385300	0.411000	0.590300
O41	O4	0.388400	0.388800	0.748100
O51	O5	0.729500	0.108500	0.905800
O61	O6	0.717600	0.080500	0.745200
C111	C11	0.646100	0.279800	0.814200
C121	C12	0.730300	0.311100	0.886900
H91	H9	0.777200	0.271500	0.908400
C131	C13	0.744000	0.397200	0.925600
H101	H10	0.799300	0.415300	0.973900
C141	C14	0.673300	0.459100	0.891900
H111	H11	0.682600	0.518300	0.916900
C151	C15	0.592400	0.432200	0.823300
H121	H12	0.546700	0.473600	0.801500
C161	C16	0.576100	0.344300	0.785100
C171	C17	0.491000	0.315200	0.708500
C181	C18	0.482400	0.230800	0.661700
H131	H13	0.428600	0.213600	0.608800
C191	C19	0.550000	0.173500	0.691000
H141	H14	0.541800	0.118300	0.656300
C201	C20	0.630200	0.193000	0.769700
C211	C21	0.414300	0.378800	0.678900
C221	C22	0.700000	0.123700	0.809500
O71	O7	0.889000	0.918400	0.254400
O81	O8	0.859700	0.896300	0.086400
O91	O9	0.225100	0.616900	0.261500
O101	O10	0.203500	0.586700	0.403500
C231	C23	0.960000	0.725000	0.158200
C241	C24	0.881600	0.700400	0.070500
H151	H15	0.833900	0.739100	0.048200
C251	C25	0.874800	0.622100	0.018700
H161	H16	0.823500	0.607400	0.960300
C261	C26	0.948000	0.561800	0.055100
H171	H17	0.943500	0.507300	0.020200
C271	C27	0.021900	0.582200	0.137700
H181	H18	0.067900	0.541200	0.160800
C281	C28	0.032200	0.667900	0.192500
C291	C29	0.109700	0.688600	0.280900
C301	C30	0.116100	0.763100	0.336900
H191	H19	0.167000	0.774600	0.397400
C311	C31	0.044200	0.826300	0.304200
H201	H20	0.049500	0.879200	0.342000
C321	C32	0.968100	0.807400	0.216800
C331	C33	0.187200	0.626300	0.318500
C341	C34	0.898700	0.881600	0.181600
O111	O11	0.726400	0.022700	0.089600
H211	H21	0.686700	0.982700	0.072900
H221	H22	0.701600	0.074100	0.074300
Ni31	Ni3	0.294980	0.501510	0.998050
Ni41	Ni4	0.304730	0.515930	0.254530
O121	O12	0.984900	0.416900	0.355200
O131	O13	0.368300	0.486700	0.915200
N31	N3	0.899200	0.426200	0.292200
N41	N4	0.452300	0.476200	0.969200
C351	C35	0.850500	0.351000	0.266400
H231	H23	0.875300	0.294500	0.290200
C361	C36	0.761400	0.360000	0.203000
H241	H24	0.726200	0.308700	0.185300
C371	C37	0.724400	0.443200	0.166200
C381	C38	0.775700	0.515000	0.190800
H251	H25	0.752600	0.571400	0.163200
C391	C39	0.866100	0.506600	0.259300
H261	H26	0.901300	0.557700	0.280600
C401	C40	0.504600	0.548500	0.007000
H271	H27	0.480800	0.606200	0.990100
C411	C41	0.591500	0.539600	0.069400
H281	H28	0.626200	0.591100	0.092700
C421	C42	0.628600	0.455600	0.098200
C431	C43	0.575000	0.381200	0.057000
H291	H29	0.599000	0.323500	0.072800
C441	C44	0.488200	0.390000	0.994300
H301	H30	0.453300	0.339000	0.968400
O141	O14	0.885300	0.911000	0.590300
O151	O15	0.888400	0.888800	0.748100
O161	O16	0.229500	0.608500	0.905800
O171	O17	0.217600	0.580500	0.745200
C451	C45	0.146100	0.779800	0.814200
C461	C46	0.230300	0.811100	0.886900
H311	H31	0.277200	0.771500	0.908400
C471	C47	0.244000	0.897200	0.925600
H321	H32	0.299300	0.915300	0.973900
C481	C48	0.173300	0.959100	0.891900
H331	H33	0.182600	0.018300	0.916900
C491	C49	0.092400	0.932200	0.823300
H341	H34	0.046700	0.973600	0.801500
C501	C50	0.076100	0.844300	0.785100
C511	C51	0.991000	0.815200	0.708500
C521	C52	0.982400	0.730800	0.661700
H351	H35	0.928600	0.713600	0.608800
C531	C53	0.050000	0.673500	0.691000
H361	H36	0.041800	0.618300	0.656300
C541	C54	0.130200	0.693000	0.769700
C551	C55	0.914300	0.878800	0.678900
C561	C56	0.200000	0.623700	0.809500
O181	O18	0.389000	0.418400	0.254400
O191	O19	0.359700	0.396300	0.086400
O201	O20	0.725100	0.116900	0.261500
O211	O21	0.703500	0.086700	0.403500
C571	C57	0.460000	0.225000	0.158200
C581	C58	0.381600	0.200400	0.070500
H371	H37	0.333900	0.239100	0.048200
C591	C59	0.374800	0.122100	0.018700
H381	H38	0.323500	0.107400	0.960300
C601	C60	0.448000	0.061800	0.055100
H391	H39	0.443500	0.007300	0.020200
C611	C61	0.521900	0.082200	0.137700
H401	H40	0.567900	0.041200	0.160800
C621	C62	0.532200	0.167900	0.192500
C631	C63	0.609700	0.188600	0.280900
C641	C64	0.616100	0.263100	0.336900
H411	H41	0.667000	0.274600	0.397400
C651	C65	0.544200	0.326300	0.304200
H421	H42	0.549500	0.379200	0.342000
C661	C66	0.468100	0.307400	0.216800
C671	C67	0.687200	0.126300	0.318500
C681	C68	0.398700	0.381600	0.181600
O221	O22	0.226400	0.522700	0.089600
H431	H43	0.186700	0.482700	0.072900
H441	H44	0.201600	0.574100	0.074300
Ni51	Ni5	0.794980	0.998490	0.498050
Ni61	Ni6	0.804730	0.984070	0.754530
O231	O23	0.484900	0.083100	0.855200
O241	O24	0.868300	0.013300	0.415200
N51	N5	0.399200	0.073800	0.792200
N61	N6	0.952300	0.023800	0.469200
C691	C69	0.350500	0.149000	0.766400
H451	H45	0.375300	0.205500	0.790200
C701	C70	0.261400	0.140000	0.703000
H461	H46	0.226200	0.191300	0.685300
C711	C71	0.224400	0.056800	0.666200
C721	C72	0.275700	0.985000	0.690800
H471	H47	0.252600	0.928600	0.663200
C731	C73	0.366100	0.993400	0.759300
H481	H48	0.401300	0.942300	0.780600
C741	C74	0.004600	0.951500	0.507000
H491	H49	0.980800	0.893800	0.490100
C751	C75	0.091500	0.960400	0.569400
H501	H50	0.126200	0.908900	0.592700
C761	C76	0.128600	0.044400	0.598200
C771	C77	0.075000	0.118800	0.557000
H511	H51	0.099000	0.176500	0.572800
C781	C78	0.988200	0.110000	0.494300
H521	H52	0.953300	0.161000	0.468400
O251	O25	0.385300	0.589000	0.090300
O261	O26	0.388400	0.611200	0.248100
O271	O27	0.729500	0.891500	0.405800
O281	O28	0.717600	0.919500	0.245200
C791	C79	0.646100	0.720200	0.314200
C801	C80	0.730300	0.688900	0.386900
H531	H53	0.777200	0.728500	0.408400
C811	C81	0.744000	0.602800	0.425600
H541	H54	0.799300	0.584700	0.473900
C821	C82	0.673300	0.540900	0.391900
H551	H55	0.682600	0.481700	0.416900
C831	C83	0.592400	0.567800	0.323300
H561	H56	0.546700	0.526400	0.301500
C841	C84	0.576100	0.655700	0.285100
C851	C85	0.491000	0.684800	0.208500
C861	C86	0.482400	0.769200	0.161700
H571	H57	0.428600	0.786400	0.108800
C871	C87	0.550000	0.826500	0.191000
H581	H58	0.541800	0.881700	0.156300
C881	C88	0.630200	0.807000	0.269700
C891	C89	0.414300	0.621200	0.178900
C901	C90	0.700000	0.876300	0.309500
O291	O29	0.889000	0.081600	0.754400
O301	O30	0.859700	0.103700	0.586400
O311	O31	0.225100	0.383100	0.761500
O321	O32	0.203500	0.413300	0.903500
C911	C91	0.960000	0.275000	0.658200
C921	C92	0.881600	0.299600	0.570500
H591	H59	0.833900	0.260900	0.548200
C931	C93	0.874800	0.377900	0.518700
H601	H60	0.823500	0.392600	0.460300
C941	C94	0.948000	0.438200	0.555100
H611	H61	0.943500	0.492700	0.520200
C951	C95	0.021900	0.417800	0.637700
H621	H62	0.067900	0.458800	0.660800
C961	C96	0.032200	0.332100	0.692500
C971	C97	0.109700	0.311400	0.780900
C981	C98	0.116100	0.236900	0.836900
H631	H63	0.167000	0.225400	0.897400
C991	C99	0.044200	0.173700	0.804200
H641	H64	0.049500	0.120800	0.842000
C1001	C100	0.968100	0.192600	0.716800
C1011	C101	0.187200	0.373700	0.818500
C1021	C102	0.898700	0.118400	0.681600
O331	O33	0.726400	0.977300	0.589600
H651	H65	0.686700	0.017300	0.572900
H661	H66	0.701600	0.925900	0.574300
Ni71	Ni7	0.294980	0.498490	0.498050
Ni81	Ni8	0.304730	0.484070	0.754530
O341	O34	0.984900	0.583100	0.855200
O351	O35	0.368300	0.513300	0.415200
N71	N7	0.899200	0.573800	0.792200
N81	N8	0.452300	0.523800	0.469200
C1031	C103	0.850500	0.649000	0.766400
H671	H67	0.875300	0.705500	0.790200
C1041	C104	0.761400	0.640000	0.703000
H681	H68	0.726200	0.691300	0.685300
C1051	C105	0.724400	0.556800	0.666200
C1061	C106	0.775700	0.485000	0.690800
H691	H69	0.752600	0.428600	0.663200
C1071	C107	0.866100	0.493400	0.759300
H701	H70	0.901300	0.442300	0.780600
C1081	C108	0.504600	0.451500	0.507000
H711	H71	0.480800	0.393800	0.490100
C1091	C109	0.591500	0.460400	0.569400
H721	H72	0.626200	0.408900	0.592700
C1101	C110	0.628600	0.544400	0.598200
C1111	C111	0.575000	0.618800	0.557000
H731	H73	0.599000	0.676500	0.572800
C1121	C112	0.488200	0.610000	0.494300
H741	H74	0.453300	0.661000	0.468400
O361	O36	0.885300	0.089000	0.090300
O371	O37	0.888400	0.111200	0.248100
O381	O38	0.229500	0.391500	0.405800
O391	O39	0.217600	0.419500	0.245200
C1131	C113	0.146100	0.220200	0.314200
C1141	C114	0.230300	0.188900	0.386900
H751	H75	0.277200	0.228500	0.408400
C1151	C115	0.244000	0.102800	0.425600
H761	H76	0.299300	0.084700	0.473900
C1161	C116	0.173300	0.040900	0.391900
H771	H77	0.182600	0.981700	0.416900
C1171	C117	0.092400	0.067800	0.323300
H781	H78	0.046700	0.026400	0.301500
C1181	C118	0.076100	0.155700	0.285100
C1191	C119	0.991000	0.184800	0.208500
C1201	C120	0.982400	0.269200	0.161700
H791	H79	0.928600	0.286400	0.108800
C1211	C121	0.050000	0.326500	0.191000
H801	H80	0.041800	0.381700	0.156300
C1221	C122	0.130200	0.307000	0.269700
C1231	C123	0.914300	0.121200	0.178900
C1241	C124	0.200000	0.376300	0.309500
O401	O40	0.389000	0.581600	0.754400
O411	O41	0.359700	0.603700	0.586400
O421	O42	0.725100	0.883100	0.761500
O431	O43	0.703500	0.913300	0.903500
C1251	C125	0.460000	0.775000	0.658200
C1261	C126	0.381600	0.799600	0.570500
H811	H81	0.333900	0.760900	0.548200
C1271	C127	0.374800	0.877900	0.518700
H821	H82	0.323500	0.892600	0.460300
C1281	C128	0.448000	0.938200	0.555100
H831	H83	0.443500	0.992700	0.520200
C1291	C129	0.521900	0.917800	0.637700
H841	H84	0.567900	0.958800	0.660800
C1301	C130	0.532200	0.832100	0.692500
C1311	C131	0.609700	0.811400	0.780900
C1321	C132	0.616100	0.736900	0.836900
H851	H85	0.667000	0.725400	0.897400
C1331	C133	0.544200	0.673700	0.804200
H861	H86	0.549500	0.620800	0.842000
C1341	C134	0.468100	0.692600	0.716800
C1351	C135	0.687200	0.873700	0.818500
C1361	C136	0.398700	0.618400	0.681600
O441	O44	0.226400	0.477300	0.589600
H871	H87	0.186700	0.517300	0.572900
H881	H88	0.201600	0.425900	0.574300
