data_TUGSUK_ion_b_PM
_symmetry_space_group_name_H-M	'P1'
_cell_length_a	15.376200
_cell_length_b	25.984700
_cell_length_c	25.443100
_cell_angle_alpha	90.000000
_cell_angle_beta	97.626000
_cell_angle_gamma	90.000000
_symmetry_Int_Tables_number 1

loop_
_symmetry_equiv_pos_as_xyz
'x,y,z'

loop_
_atom_site_label
_atom_site_type_symbol
_atom_site_fract_x
_atom_site_fract_y
_atom_site_fract_z
Cu11	Cu1	0.643130	0.658200	0.181520
Cu21	Cu2	0.471230	0.733700	0.240200
Cu31	Cu3	0.297730	0.687680	0.794220
S41	S4	0.736770	0.521190	0.218120
O51	O5	0.654700	0.499900	0.193500
O61	O6	0.765100	0.485200	0.259900
O71	O7	0.801400	0.522800	0.179800
O81	O8	0.725100	0.574440	0.237100
S91	S9	0.395800	0.647200	0.049800
O101	O10	0.413600	0.627000	0.104400
O111	O11	0.478900	0.645800	0.027000
O121	O12	0.332800	0.614300	0.018500
O131	O13	0.361800	0.698500	0.053500
S141	S14	0.561810	0.845120	0.410750
O151	O15	0.567500	0.852400	0.353700
O161	O16	0.474100	0.861100	0.419600
O171	O17	0.582600	0.794500	0.419800
O181	O18	0.622800	0.879900	0.441200
S191	S19	0.983860	0.842200	0.193420
O201	O20	0.892000	0.857200	0.190000
O211	O21	0.999800	0.794370	0.219900
O221	O22	0.038300	0.883100	0.222700
O231	O23	0.015600	0.833000	0.139600
N241	N24	0.563600	0.725210	0.141200
N251	N25	0.496400	0.747030	0.164010
N261	N26	0.503800	0.786100	0.089420
N271	N27	0.445900	0.776490	0.815790
N281	N28	0.381500	0.749810	0.836710
N291	N29	0.442500	0.803690	0.896550
N301	N30	0.680400	0.700800	0.246110
N311	N31	0.618300	0.727460	0.270220
N321	N32	0.749200	0.748170	0.308820
N331	N33	0.177900	0.736380	0.333430
N341	N34	0.190100	0.788090	0.322280
N351	N35	0.064000	0.781520	0.351460
N361	N36	0.328200	0.738420	0.207830
N371	N37	0.263900	0.764680	0.229610
N381	N38	0.199900	0.708350	0.174160
N391	N39	0.776000	0.721920	0.140900
N401	N40	0.755500	0.672890	0.156430
N411	N41	0.888100	0.670070	0.135830
N421	N42	0.528200	0.309840	0.249140
N431	N43	0.591800	0.340350	0.231430
N441	N44	0.486300	0.389310	0.251490
N451	N45	0.473700	0.657710	0.231130
N461	N46	0.539600	0.630420	0.211690
N471	N47	0.450500	0.575820	0.240440
C481	C48	0.567300	0.749140	0.096700
H491	H49	0.608100	0.741900	0.072800
C501	C50	0.462000	0.782900	0.132300
H511	H51	0.413900	0.804000	0.138600
C521	C52	0.481600	0.808140	0.852800
H531	H53	0.528600	0.831000	0.849000
C541	C54	0.380400	0.766470	0.885000
H551	H55	0.342000	0.754400	0.908600
C561	C56	0.490200	0.824080	0.044600
C571	C57	0.472900	0.793810	0.993000
H581	H58	0.419500	0.772400	0.992800
H591	H59	0.523000	0.770800	0.989300
C601	C60	0.460300	0.832620	0.947000
C611	C61	0.379400	0.867100	0.952800
H621	H62	0.368800	0.891400	0.922700
H631	H63	0.326400	0.845600	0.953200
C641	C64	0.399000	0.896600	0.004700
H651	H65	0.348200	0.919500	0.008800
C661	C66	0.411600	0.858100	0.051800
H671	H67	0.422600	0.876900	0.085900
H681	H68	0.358300	0.836800	0.052000
C691	C69	0.572800	0.856700	0.045100
H701	H70	0.623600	0.834300	0.041300
H711	H71	0.585000	0.875400	0.079200
C721	C72	0.558900	0.895100	0.999200
H731	H73	0.612800	0.916700	0.999400
C741	C74	0.542100	0.865200	0.947100
H751	H75	0.534300	0.889400	0.916900
H761	H76	0.593000	0.842800	0.943300
C771	C77	0.481100	0.929400	0.005200
H781	H78	0.472600	0.954600	0.975800
H791	H79	0.492200	0.948700	0.039000
C801	C80	0.758500	0.714100	0.269900
H811	H81	0.812800	0.701700	0.261000
C821	C82	0.661000	0.754800	0.307400
H831	H83	0.634500	0.776600	0.330600
C841	C84	0.101600	0.734400	0.350700
H851	H85	0.075700	0.703700	0.361500
C861	C86	0.121500	0.813750	0.332900
H871	H87	0.113400	0.849800	0.328300
C881	C88	0.817200	0.775800	0.344500
C891	C89	0.907700	0.763540	0.329000
H901	H90	0.910200	0.773800	0.291700
H911	H91	0.919400	0.726200	0.332400
C921	C92	0.975800	0.793550	0.366200
C931	C93	0.959300	0.851500	0.360100
H941	H94	0.004500	0.870800	0.383700
H951	H95	0.962400	0.862200	0.323100
C961	C96	0.868100	0.863000	0.375100
H971	H97	0.856400	0.900800	0.371200
C981	C98	0.799900	0.834060	0.338000
H991	H99	0.803100	0.844500	0.300900
H1001	H100	0.740400	0.842300	0.346500
C1011	C101	0.812700	0.759900	0.401700
H1021	H102	0.753600	0.767200	0.411200
H1031	H103	0.823800	0.722500	0.405900
C1041	C104	0.881400	0.789800	0.438100
H1051	H105	0.878700	0.779100	0.475600
C1061	C106	0.972600	0.777400	0.423700
H1071	H107	0.017800	0.796300	0.447500
H1081	H108	0.984400	0.740100	0.427800
C1091	C109	0.863900	0.847400	0.432800
H1101	H110	0.908500	0.866600	0.456800
H1111	H111	0.805300	0.855500	0.442700
C1121	C112	0.287900	0.704700	0.174600
H1131	H113	0.316300	0.681100	0.153900
C1141	C114	0.187900	0.746300	0.208800
H1151	H115	0.132600	0.757900	0.216900
C1161	C116	0.855800	0.718800	0.128800
H1171	H117	0.887200	0.746900	0.116700
C1181	C118	0.823600	0.642200	0.152900
H1191	H119	0.826200	0.606500	0.161000
C1201	C120	0.134700	0.672500	0.145300
C1211	C121	0.142100	0.674600	0.086200
H1221	H122	0.201900	0.664600	0.080000
H1231	H123	0.130700	0.710000	0.072800
C1241	C124	0.074400	0.637400	0.057100
H1251	H125	0.078600	0.638300	0.018300
C1261	C126	0.982700	0.654100	0.066700
H1271	H127	0.938400	0.630800	0.047500
H1281	H128	0.970900	0.689500	0.053200
C1291	C129	0.976000	0.652300	0.126300
C1301	C130	0.043100	0.689370	0.155700
H1311	H131	0.031300	0.725000	0.142800
H1321	H132	0.039200	0.688500	0.194200
C1331	C133	0.153500	0.618500	0.166500
H1341	H134	0.150100	0.617700	0.205100
H1351	H135	0.213200	0.607900	0.160700
C1361	C136	0.085400	0.581600	0.137600
H1371	H137	0.097600	0.545900	0.151300
C1381	C138	0.993700	0.597450	0.147300
H1391	H139	0.989000	0.596200	0.185700
H1401	H140	0.949800	0.573500	0.128800
C1411	C141	0.092400	0.582900	0.078000
H1421	H142	0.151900	0.572000	0.071800
H1431	H143	0.049300	0.558800	0.059100
C1441	C144	0.465300	0.340260	0.260700
H1451	H145	0.413200	0.329300	0.273600
C1461	C146	0.565000	0.387890	0.233300
H1471	H147	0.596100	0.417100	0.223400
C1481	C148	0.420200	0.623950	0.247900
H1491	H149	0.368500	0.632000	0.263000
C1501	C150	0.523700	0.581730	0.217600
H1511	H151	0.558800	0.554400	0.207300
C1521	C152	0.429200	0.433330	0.262800
C1531	C153	0.410500	0.527470	0.257200
C1541	C154	0.470000	0.482870	0.245100
H1551	H155	0.474400	0.481500	0.206600
H1561	H156	0.529700	0.487500	0.264500
C1571	C157	0.318900	0.521210	0.226200
H1581	H158	0.322600	0.520800	0.187700
H1591	H159	0.281100	0.550400	0.233900
C1601	C160	0.279800	0.470630	0.242800
H1611	H161	0.220000	0.465900	0.222500
C1621	C162	0.338900	0.425520	0.231200
H1631	H163	0.313300	0.392600	0.241500
H1641	H164	0.343800	0.424200	0.192800
C1651	C165	0.423000	0.434680	0.321400
H1661	H166	0.482300	0.438700	0.341500
H1671	H167	0.397700	0.402000	0.332400
C1681	C168	0.364800	0.479850	0.333400
H1691	H169	0.360500	0.481000	0.372200
C1701	C170	0.404100	0.530230	0.316200
H1711	H171	0.366500	0.559600	0.323700
H1721	H172	0.463200	0.535500	0.336300
C1731	C173	0.272600	0.472200	0.302100
H1741	H174	0.246900	0.439600	0.313000
H1751	H175	0.233600	0.500800	0.309700
O1761	O176	0.608300	0.611960	0.120020
H1771	H177	0.638100	0.618800	0.094700
H1781	H178	0.554100	0.616000	0.108100
O1791	O179	0.323800	0.637890	0.853580
H1801	H180	0.372100	0.645200	0.873100
H1811	H181	0.283000	0.637600	0.873600
Cu2181	Cu218	0.356870	0.158200	0.318480
Cu2191	Cu219	0.528770	0.233700	0.259800
Cu2201	Cu220	0.702270	0.187680	0.705780
S2211	S221	0.263230	0.021190	0.281880
O2221	O222	0.345300	0.999900	0.306500
O2231	O223	0.234900	0.985200	0.240100
O2241	O224	0.198600	0.022800	0.320200
O2251	O225	0.274900	0.074440	0.262900
S2261	S226	0.604200	0.147200	0.450200
O2271	O227	0.586400	0.127000	0.395600
O2281	O228	0.521100	0.145800	0.473000
O2291	O229	0.667200	0.114300	0.481500
O2301	O230	0.638200	0.198500	0.446500
S2311	S231	0.438190	0.345120	0.089250
O2321	O232	0.432500	0.352400	0.146300
O2331	O233	0.525900	0.361100	0.080400
O2341	O234	0.417400	0.294500	0.080200
O2351	O235	0.377200	0.379900	0.058800
S2361	S236	0.016140	0.342200	0.306580
O2371	O237	0.108000	0.357200	0.310000
O2381	O238	0.000200	0.294370	0.280100
O2391	O239	0.961700	0.383100	0.277300
O2401	O240	0.984400	0.333000	0.360400
N2411	N241	0.436400	0.225210	0.358800
N2421	N242	0.503600	0.247030	0.335990
N2431	N243	0.496200	0.286100	0.410580
N2441	N244	0.554100	0.276490	0.684210
N2451	N245	0.618500	0.249810	0.663290
N2461	N246	0.557500	0.303690	0.603450
N2471	N247	0.319600	0.200800	0.253890
N2481	N248	0.381700	0.227460	0.229780
N2491	N249	0.250800	0.248170	0.191180
N2501	N250	0.822100	0.236380	0.166570
N2511	N251	0.809900	0.288090	0.177720
N2521	N252	0.936000	0.281520	0.148540
N2531	N253	0.671800	0.238420	0.292170
N2541	N254	0.736100	0.264680	0.270390
N2551	N255	0.800100	0.208350	0.325840
N2561	N256	0.224000	0.221920	0.359100
N2571	N257	0.244500	0.172890	0.343570
N2581	N258	0.111900	0.170070	0.364170
N2591	N259	0.471800	0.809840	0.250860
N2601	N260	0.408200	0.840350	0.268570
N2611	N261	0.513700	0.889310	0.248510
N2621	N262	0.526300	0.157710	0.268870
N2631	N263	0.460400	0.130420	0.288310
N2641	N264	0.549500	0.075820	0.259560
C2651	C265	0.432700	0.249140	0.403300
H2661	H266	0.391900	0.241900	0.427200
C2671	C267	0.538000	0.282900	0.367700
H2681	H268	0.586100	0.304000	0.361400
C2691	C269	0.518400	0.308140	0.647200
H2701	H270	0.471400	0.331000	0.651000
C2711	C271	0.619600	0.266470	0.615000
H2721	H272	0.658000	0.254400	0.591400
C2731	C273	0.509800	0.324080	0.455400
C2741	C274	0.527100	0.293810	0.507000
H2751	H275	0.580500	0.272400	0.507200
H2761	H276	0.477000	0.270800	0.510700
C2771	C277	0.539700	0.332620	0.553000
C2781	C278	0.620600	0.367100	0.547200
H2791	H279	0.631200	0.391400	0.577300
H2801	H280	0.673600	0.345600	0.546800
C2811	C281	0.601000	0.396600	0.495300
H2821	H282	0.651800	0.419500	0.491200
C2831	C283	0.588400	0.358100	0.448200
H2841	H284	0.577400	0.376900	0.414100
H2851	H285	0.641700	0.336800	0.448000
C2861	C286	0.427200	0.356700	0.454900
H2871	H287	0.376400	0.334300	0.458700
H2881	H288	0.415000	0.375400	0.420800
C2891	C289	0.441100	0.395100	0.500800
H2901	H290	0.387200	0.416700	0.500600
C2911	C291	0.457900	0.365200	0.552900
H2921	H292	0.465700	0.389400	0.583100
H2931	H293	0.407000	0.342800	0.556700
C2941	C294	0.518900	0.429400	0.494800
H2951	H295	0.527400	0.454600	0.524200
H2961	H296	0.507800	0.448700	0.461000
C2971	C297	0.241500	0.214100	0.230100
H2981	H298	0.187200	0.201700	0.239000
C2991	C299	0.339000	0.254800	0.192600
H3001	H300	0.365500	0.276600	0.169400
C3011	C301	0.898400	0.234400	0.149300
H3021	H302	0.924300	0.203700	0.138500
C3031	C303	0.878500	0.313750	0.167100
H3041	H304	0.886600	0.349800	0.171700
C3051	C305	0.182800	0.275800	0.155500
C3061	C306	0.092300	0.263540	0.171000
H3071	H307	0.089800	0.273800	0.208300
H3081	H308	0.080600	0.226200	0.167600
C3091	C309	0.024200	0.293550	0.133800
C3101	C310	0.040700	0.351500	0.139900
H3111	H311	0.995500	0.370800	0.116300
H3121	H312	0.037600	0.362200	0.176900
C3131	C313	0.131900	0.363000	0.124900
H3141	H314	0.143600	0.400800	0.128800
C3151	C315	0.200100	0.334060	0.162000
H3161	H316	0.196900	0.344500	0.199100
H3171	H317	0.259600	0.342300	0.153500
C3181	C318	0.187300	0.259900	0.098300
H3191	H319	0.246400	0.267200	0.088800
H3201	H320	0.176200	0.222500	0.094100
C3211	C321	0.118600	0.289800	0.061900
H3221	H322	0.121300	0.279100	0.024400
C3231	C323	0.027400	0.277400	0.076300
H3241	H324	0.982200	0.296300	0.052500
H3251	H325	0.015600	0.240100	0.072200
C3261	C326	0.136100	0.347400	0.067200
H3271	H327	0.091500	0.366600	0.043200
H3281	H328	0.194700	0.355500	0.057300
C3291	C329	0.712100	0.204700	0.325400
H3301	H330	0.683700	0.181100	0.346100
C3311	C331	0.812100	0.246300	0.291200
H3321	H332	0.867400	0.257900	0.283100
C3331	C333	0.144200	0.218800	0.371200
H3341	H334	0.112800	0.246900	0.383300
C3351	C335	0.176400	0.142200	0.347100
H3361	H336	0.173800	0.106500	0.339000
C3371	C337	0.865300	0.172500	0.354700
C3381	C338	0.857900	0.174600	0.413800
H3391	H339	0.798100	0.164600	0.420000
H3401	H340	0.869300	0.210000	0.427200
C3411	C341	0.925600	0.137400	0.442900
H3421	H342	0.921400	0.138300	0.481700
C3431	C343	0.017300	0.154100	0.433300
H3441	H344	0.061600	0.130800	0.452500
H3451	H345	0.029100	0.189500	0.446800
C3461	C346	0.024000	0.152300	0.373700
C3471	C347	0.956900	0.189370	0.344300
H3481	H348	0.968700	0.225000	0.357200
H3491	H349	0.960800	0.188500	0.305800
C3501	C350	0.846500	0.118500	0.333500
H3511	H351	0.849900	0.117700	0.294900
H3521	H352	0.786800	0.107900	0.339300
C3531	C353	0.914600	0.081600	0.362400
H3541	H354	0.902400	0.045900	0.348700
C3551	C355	0.006300	0.097450	0.352700
H3561	H356	0.011000	0.096200	0.314300
H3571	H357	0.050200	0.073500	0.371200
C3581	C358	0.907600	0.082900	0.422000
H3591	H359	0.848100	0.072000	0.428200
H3601	H360	0.950700	0.058800	0.440900
C3611	C361	0.534700	0.840260	0.239300
H3621	H362	0.586800	0.829300	0.226400
C3631	C363	0.435000	0.887890	0.266700
H3641	H364	0.403900	0.917100	0.276600
C3651	C365	0.579800	0.123950	0.252100
H3661	H366	0.631500	0.132000	0.237000
C3671	C367	0.476300	0.081730	0.282400
H3681	H368	0.441200	0.054400	0.292700
C3691	C369	0.570800	0.933330	0.237200
C3701	C370	0.589500	0.027470	0.242800
C3711	C371	0.530000	0.982870	0.254900
H3721	H372	0.525600	0.981500	0.293400
H3731	H373	0.470300	0.987500	0.235500
C3741	C374	0.681100	0.021210	0.273800
H3751	H375	0.677400	0.020800	0.312300
H3761	H376	0.718900	0.050400	0.266100
C3771	C377	0.720200	0.970630	0.257200
H3781	H378	0.780000	0.965900	0.277500
C3791	C379	0.661100	0.925520	0.268800
H3801	H380	0.686700	0.892600	0.258500
H3811	H381	0.656200	0.924200	0.307200
C3821	C382	0.577000	0.934680	0.178600
H3831	H383	0.517700	0.938700	0.158500
H3841	H384	0.602300	0.902000	0.167600
C3851	C385	0.635200	0.979850	0.166600
H3861	H386	0.639500	0.981000	0.127800
C3871	C387	0.595900	0.030230	0.183800
H3881	H388	0.633500	0.059600	0.176300
H3891	H389	0.536800	0.035500	0.163700
C3901	C390	0.727400	0.972200	0.197900
H3911	H391	0.753100	0.939600	0.187000
H3921	H392	0.766400	0.000800	0.190300
O3931	O393	0.391700	0.111960	0.379980
H3941	H394	0.361900	0.118800	0.405300
H3951	H395	0.445900	0.116000	0.391900
O3961	O396	0.676200	0.137890	0.646420
H3971	H397	0.627900	0.145200	0.626900
H3981	H398	0.717000	0.137600	0.626400
Cu4351	Cu435	0.356870	0.341800	0.818480
Cu4361	Cu436	0.528770	0.266300	0.759800
Cu4371	Cu437	0.702270	0.312320	0.205780
S4381	S438	0.263230	0.478810	0.781880
O4391	O439	0.345300	0.500100	0.806500
O4401	O440	0.234900	0.514800	0.740100
O4411	O441	0.198600	0.477200	0.820200
O4421	O442	0.274900	0.425560	0.762900
S4431	S443	0.604200	0.352800	0.950200
O4441	O444	0.586400	0.373000	0.895600
O4451	O445	0.521100	0.354200	0.973000
O4461	O446	0.667200	0.385700	0.981500
O4471	O447	0.638200	0.301500	0.946500
S4481	S448	0.438190	0.154880	0.589250
O4491	O449	0.432500	0.147600	0.646300
O4501	O450	0.525900	0.138900	0.580400
O4511	O451	0.417400	0.205500	0.580200
O4521	O452	0.377200	0.120100	0.558800
S4531	S453	0.016140	0.157800	0.806580
O4541	O454	0.108000	0.142800	0.810000
O4551	O455	0.000200	0.205630	0.780100
O4561	O456	0.961700	0.116900	0.777300
O4571	O457	0.984400	0.167000	0.860400
N4581	N458	0.436400	0.274790	0.858800
N4591	N459	0.503600	0.252970	0.835990
N4601	N460	0.496200	0.213900	0.910580
N4611	N461	0.554100	0.223510	0.184210
N4621	N462	0.618500	0.250190	0.163290
N4631	N463	0.557500	0.196310	0.103450
N4641	N464	0.319600	0.299200	0.753890
N4651	N465	0.381700	0.272540	0.729780
N4661	N466	0.250800	0.251830	0.691180
N4671	N467	0.822100	0.263620	0.666570
N4681	N468	0.809900	0.211910	0.677720
N4691	N469	0.936000	0.218480	0.648540
N4701	N470	0.671800	0.261580	0.792170
N4711	N471	0.736100	0.235320	0.770390
N4721	N472	0.800100	0.291650	0.825840
N4731	N473	0.224000	0.278080	0.859100
N4741	N474	0.244500	0.327110	0.843570
N4751	N475	0.111900	0.329930	0.864170
N4761	N476	0.471800	0.690160	0.750860
N4771	N477	0.408200	0.659650	0.768570
N4781	N478	0.513700	0.610690	0.748510
N4791	N479	0.526300	0.342290	0.768870
N4801	N480	0.460400	0.369580	0.788310
N4811	N481	0.549500	0.424180	0.759560
C4821	C482	0.432700	0.250860	0.903300
H4831	H483	0.391900	0.258100	0.927200
C4841	C484	0.538000	0.217100	0.867700
H4851	H485	0.586100	0.196000	0.861400
C4861	C486	0.518400	0.191860	0.147200
H4871	H487	0.471400	0.169000	0.151000
C4881	C488	0.619600	0.233530	0.115000
H4891	H489	0.658000	0.245600	0.091400
C4901	C490	0.509800	0.175920	0.955400
C4911	C491	0.527100	0.206190	0.007000
H4921	H492	0.580500	0.227600	0.007200
H4931	H493	0.477000	0.229200	0.010700
C4941	C494	0.539700	0.167380	0.053000
C4951	C495	0.620600	0.132900	0.047200
H4961	H496	0.631200	0.108600	0.077300
H4971	H497	0.673600	0.154400	0.046800
C4981	C498	0.601000	0.103400	0.995300
H4991	H499	0.651800	0.080500	0.991200
C5001	C500	0.588400	0.141900	0.948200
H5011	H501	0.577400	0.123100	0.914100
H5021	H502	0.641700	0.163200	0.948000
C5031	C503	0.427200	0.143300	0.954900
H5041	H504	0.376400	0.165700	0.958700
H5051	H505	0.415000	0.124600	0.920800
C5061	C506	0.441100	0.104900	0.000800
H5071	H507	0.387200	0.083300	0.000600
C5081	C508	0.457900	0.134800	0.052900
H5091	H509	0.465700	0.110600	0.083100
H5101	H510	0.407000	0.157200	0.056700
C5111	C511	0.518900	0.070600	0.994800
H5121	H512	0.527400	0.045400	0.024200
H5131	H513	0.507800	0.051300	0.961000
C5141	C514	0.241500	0.285900	0.730100
H5151	H515	0.187200	0.298300	0.739000
C5161	C516	0.339000	0.245200	0.692600
H5171	H517	0.365500	0.223400	0.669400
C5181	C518	0.898400	0.265600	0.649300
H5191	H519	0.924300	0.296300	0.638500
C5201	C520	0.878500	0.186250	0.667100
H5211	H521	0.886600	0.150200	0.671700
C5221	C522	0.182800	0.224200	0.655500
C5231	C523	0.092300	0.236460	0.671000
H5241	H524	0.089800	0.226200	0.708300
H5251	H525	0.080600	0.273800	0.667600
C5261	C526	0.024200	0.206450	0.633800
C5271	C527	0.040700	0.148500	0.639900
H5281	H528	0.995500	0.129200	0.616300
H5291	H529	0.037600	0.137800	0.676900
C5301	C530	0.131900	0.137000	0.624900
H5311	H531	0.143600	0.099200	0.628800
C5321	C532	0.200100	0.165940	0.662000
H5331	H533	0.196900	0.155500	0.699100
H5341	H534	0.259600	0.157700	0.653500
C5351	C535	0.187300	0.240100	0.598300
H5361	H536	0.246400	0.232800	0.588800
H5371	H537	0.176200	0.277500	0.594100
C5381	C538	0.118600	0.210200	0.561900
H5391	H539	0.121300	0.220900	0.524400
C5401	C540	0.027400	0.222600	0.576300
H5411	H541	0.982200	0.203700	0.552500
H5421	H542	0.015600	0.259900	0.572200
C5431	C543	0.136100	0.152600	0.567200
H5441	H544	0.091500	0.133400	0.543200
H5451	H545	0.194700	0.144500	0.557300
C5461	C546	0.712100	0.295300	0.825400
H5471	H547	0.683700	0.318900	0.846100
C5481	C548	0.812100	0.253700	0.791200
H5491	H549	0.867400	0.242100	0.783100
C5501	C550	0.144200	0.281200	0.871200
H5511	H551	0.112800	0.253100	0.883300
C5521	C552	0.176400	0.357800	0.847100
H5531	H553	0.173800	0.393500	0.839000
C5541	C554	0.865300	0.327500	0.854700
C5551	C555	0.857900	0.325400	0.913800
H5561	H556	0.798100	0.335400	0.920000
H5571	H557	0.869300	0.290000	0.927200
C5581	C558	0.925600	0.362600	0.942900
H5591	H559	0.921400	0.361700	0.981700
C5601	C560	0.017300	0.345900	0.933300
H5611	H561	0.061600	0.369200	0.952500
H5621	H562	0.029100	0.310500	0.946800
C5631	C563	0.024000	0.347700	0.873700
C5641	C564	0.956900	0.310630	0.844300
H5651	H565	0.968700	0.275000	0.857200
H5661	H566	0.960800	0.311500	0.805800
C5671	C567	0.846500	0.381500	0.833500
H5681	H568	0.849900	0.382300	0.794900
H5691	H569	0.786800	0.392100	0.839300
C5701	C570	0.914600	0.418400	0.862400
H5711	H571	0.902400	0.454100	0.848700
C5721	C572	0.006300	0.402550	0.852700
H5731	H573	0.011000	0.403800	0.814300
H5741	H574	0.050200	0.426500	0.871200
C5751	C575	0.907600	0.417100	0.922000
H5761	H576	0.848100	0.428000	0.928200
H5771	H577	0.950700	0.441200	0.940900
C5781	C578	0.534700	0.659740	0.739300
H5791	H579	0.586800	0.670700	0.726400
C5801	C580	0.435000	0.612110	0.766700
H5811	H581	0.403900	0.582900	0.776600
C5821	C582	0.579800	0.376050	0.752100
H5831	H583	0.631500	0.368000	0.737000
C5841	C584	0.476300	0.418270	0.782400
H5851	H585	0.441200	0.445600	0.792700
C5861	C586	0.570800	0.566670	0.737200
C5871	C587	0.589500	0.472530	0.742800
C5881	C588	0.530000	0.517130	0.754900
H5891	H589	0.525600	0.518500	0.793400
H5901	H590	0.470300	0.512500	0.735500
C5911	C591	0.681100	0.478790	0.773800
H5921	H592	0.677400	0.479200	0.812300
H5931	H593	0.718900	0.449600	0.766100
C5941	C594	0.720200	0.529370	0.757200
H5951	H595	0.780000	0.534100	0.777500
C5961	C596	0.661100	0.574480	0.768800
H5971	H597	0.686700	0.607400	0.758500
H5981	H598	0.656200	0.575800	0.807200
C5991	C599	0.577000	0.565320	0.678600
H6001	H600	0.517700	0.561300	0.658500
H6011	H601	0.602300	0.598000	0.667600
C6021	C602	0.635200	0.520150	0.666600
H6031	H603	0.639500	0.519000	0.627800
C6041	C604	0.595900	0.469770	0.683800
H6051	H605	0.633500	0.440400	0.676300
H6061	H606	0.536800	0.464500	0.663700
C6071	C607	0.727400	0.527800	0.697900
H6081	H608	0.753100	0.560400	0.687000
H6091	H609	0.766400	0.499200	0.690300
O6101	O610	0.391700	0.388040	0.879980
H6111	H611	0.361900	0.381200	0.905300
H6121	H612	0.445900	0.384000	0.891900
O6131	O613	0.676200	0.362110	0.146420
H6141	H614	0.627900	0.354800	0.126900
H6151	H615	0.717000	0.362400	0.126400
Cu6521	Cu652	0.643130	0.841800	0.681520
Cu6531	Cu653	0.471230	0.766300	0.740200
Cu6541	Cu654	0.297730	0.812320	0.294220
S6551	S655	0.736770	0.978810	0.718120
O6561	O656	0.654700	0.000100	0.693500
O6571	O657	0.765100	0.014800	0.759900
O6581	O658	0.801400	0.977200	0.679800
O6591	O659	0.725100	0.925560	0.737100
S6601	S660	0.395800	0.852800	0.549800
O6611	O661	0.413600	0.873000	0.604400
O6621	O662	0.478900	0.854200	0.527000
O6631	O663	0.332800	0.885700	0.518500
O6641	O664	0.361800	0.801500	0.553500
S6651	S665	0.561810	0.654880	0.910750
O6661	O666	0.567500	0.647600	0.853700
O6671	O667	0.474100	0.638900	0.919600
O6681	O668	0.582600	0.705500	0.919800
O6691	O669	0.622800	0.620100	0.941200
S6701	S670	0.983860	0.657800	0.693420
O6711	O671	0.892000	0.642800	0.690000
O6721	O672	0.999800	0.705630	0.719900
O6731	O673	0.038300	0.616900	0.722700
O6741	O674	0.015600	0.667000	0.639600
N6751	N675	0.563600	0.774790	0.641200
N6761	N676	0.496400	0.752970	0.664010
N6771	N677	0.503800	0.713900	0.589420
N6781	N678	0.445900	0.723510	0.315790
N6791	N679	0.381500	0.750190	0.336710
N6801	N680	0.442500	0.696310	0.396550
N6811	N681	0.680400	0.799200	0.746110
N6821	N682	0.618300	0.772540	0.770220
N6831	N683	0.749200	0.751830	0.808820
N6841	N684	0.177900	0.763620	0.833430
N6851	N685	0.190100	0.711910	0.822280
N6861	N686	0.064000	0.718480	0.851460
N6871	N687	0.328200	0.761580	0.707830
N6881	N688	0.263900	0.735320	0.729610
N6891	N689	0.199900	0.791650	0.674160
N6901	N690	0.776000	0.778080	0.640900
N6911	N691	0.755500	0.827110	0.656430
N6921	N692	0.888100	0.829930	0.635830
N6931	N693	0.528200	0.190160	0.749140
N6941	N694	0.591800	0.159650	0.731430
N6951	N695	0.486300	0.110690	0.751490
N6961	N696	0.473700	0.842290	0.731130
N6971	N697	0.539600	0.869580	0.711690
N6981	N698	0.450500	0.924180	0.740440
C6991	C699	0.567300	0.750860	0.596700
H7001	H700	0.608100	0.758100	0.572800
C7011	C701	0.462000	0.717100	0.632300
H7021	H702	0.413900	0.696000	0.638600
C7031	C703	0.481600	0.691860	0.352800
H7041	H704	0.528600	0.669000	0.349000
C7051	C705	0.380400	0.733530	0.385000
H7061	H706	0.342000	0.745600	0.408600
C7071	C707	0.490200	0.675920	0.544600
C7081	C708	0.472900	0.706190	0.493000
H7091	H709	0.419500	0.727600	0.492800
H7101	H710	0.523000	0.729200	0.489300
C7111	C711	0.460300	0.667380	0.447000
C7121	C712	0.379400	0.632900	0.452800
H7131	H713	0.368800	0.608600	0.422700
H7141	H714	0.326400	0.654400	0.453200
C7151	C715	0.399000	0.603400	0.504700
H7161	H716	0.348200	0.580500	0.508800
C7171	C717	0.411600	0.641900	0.551800
H7181	H718	0.422600	0.623100	0.585900
H7191	H719	0.358300	0.663200	0.552000
C7201	C720	0.572800	0.643300	0.545100
H7211	H721	0.623600	0.665700	0.541300
H7221	H722	0.585000	0.624600	0.579200
C7231	C723	0.558900	0.604900	0.499200
H7241	H724	0.612800	0.583300	0.499400
C7251	C725	0.542100	0.634800	0.447100
H7261	H726	0.534300	0.610600	0.416900
H7271	H727	0.593000	0.657200	0.443300
C7281	C728	0.481100	0.570600	0.505200
H7291	H729	0.472600	0.545400	0.475800
H7301	H730	0.492200	0.551300	0.539000
C7311	C731	0.758500	0.785900	0.769900
H7321	H732	0.812800	0.798300	0.761000
C7331	C733	0.661000	0.745200	0.807400
H7341	H734	0.634500	0.723400	0.830600
C7351	C735	0.101600	0.765600	0.850700
H7361	H736	0.075700	0.796300	0.861500
C7371	C737	0.121500	0.686250	0.832900
H7381	H738	0.113400	0.650200	0.828300
C7391	C739	0.817200	0.724200	0.844500
C7401	C740	0.907700	0.736460	0.829000
H7411	H741	0.910200	0.726200	0.791700
H7421	H742	0.919400	0.773800	0.832400
C7431	C743	0.975800	0.706450	0.866200
C7441	C744	0.959300	0.648500	0.860100
H7451	H745	0.004500	0.629200	0.883700
H7461	H746	0.962400	0.637800	0.823100
C7471	C747	0.868100	0.637000	0.875100
H7481	H748	0.856400	0.599200	0.871200
C7491	C749	0.799900	0.665940	0.838000
H7501	H750	0.803100	0.655500	0.800900
H7511	H751	0.740400	0.657700	0.846500
C7521	C752	0.812700	0.740100	0.901700
H7531	H753	0.753600	0.732800	0.911200
H7541	H754	0.823800	0.777500	0.905900
C7551	C755	0.881400	0.710200	0.938100
H7561	H756	0.878700	0.720900	0.975600
C7571	C757	0.972600	0.722600	0.923700
H7581	H758	0.017800	0.703700	0.947500
H7591	H759	0.984400	0.759900	0.927800
C7601	C760	0.863900	0.652600	0.932800
H7611	H761	0.908500	0.633400	0.956800
H7621	H762	0.805300	0.644500	0.942700
C7631	C763	0.287900	0.795300	0.674600
H7641	H764	0.316300	0.818900	0.653900
C7651	C765	0.187900	0.753700	0.708800
H7661	H766	0.132600	0.742100	0.716900
C7671	C767	0.855800	0.781200	0.628800
H7681	H768	0.887200	0.753100	0.616700
C7691	C769	0.823600	0.857800	0.652900
H7701	H770	0.826200	0.893500	0.661000
C7711	C771	0.134700	0.827500	0.645300
C7721	C772	0.142100	0.825400	0.586200
H7731	H773	0.201900	0.835400	0.580000
H7741	H774	0.130700	0.790000	0.572800
C7751	C775	0.074400	0.862600	0.557100
H7761	H776	0.078600	0.861700	0.518300
C7771	C777	0.982700	0.845900	0.566700
H7781	H778	0.938400	0.869200	0.547500
H7791	H779	0.970900	0.810500	0.553200
C7801	C780	0.976000	0.847700	0.626300
C7811	C781	0.043100	0.810630	0.655700
H7821	H782	0.031300	0.775000	0.642800
H7831	H783	0.039200	0.811500	0.694200
C7841	C784	0.153500	0.881500	0.666500
H7851	H785	0.150100	0.882300	0.705100
H7861	H786	0.213200	0.892100	0.660700
C7871	C787	0.085400	0.918400	0.637600
H7881	H788	0.097600	0.954100	0.651300
C7891	C789	0.993700	0.902550	0.647300
H7901	H790	0.989000	0.903800	0.685700
H7911	H791	0.949800	0.926500	0.628800
C7921	C792	0.092400	0.917100	0.578000
H7931	H793	0.151900	0.928000	0.571800
H7941	H794	0.049300	0.941200	0.559100
C7951	C795	0.465300	0.159740	0.760700
H7961	H796	0.413200	0.170700	0.773600
C7971	C797	0.565000	0.112110	0.733300
H7981	H798	0.596100	0.082900	0.723400
C7991	C799	0.420200	0.876050	0.747900
H8001	H800	0.368500	0.868000	0.763000
C8011	C801	0.523700	0.918270	0.717600
H8021	H802	0.558800	0.945600	0.707300
C8031	C803	0.429200	0.066670	0.762800
C8041	C804	0.410500	0.972530	0.757200
C8051	C805	0.470000	0.017130	0.745100
H8061	H806	0.474400	0.018500	0.706600
H8071	H807	0.529700	0.012500	0.764500
C8081	C808	0.318900	0.978790	0.726200
H8091	H809	0.322600	0.979200	0.687700
H8101	H810	0.281100	0.949600	0.733900
C8111	C811	0.279800	0.029370	0.742800
H8121	H812	0.220000	0.034100	0.722500
C8131	C813	0.338900	0.074480	0.731200
H8141	H814	0.313300	0.107400	0.741500
H8151	H815	0.343800	0.075800	0.692800
C8161	C816	0.423000	0.065320	0.821400
H8171	H817	0.482300	0.061300	0.841500
H8181	H818	0.397700	0.098000	0.832400
C8191	C819	0.364800	0.020150	0.833400
H8201	H820	0.360500	0.019000	0.872200
C8211	C821	0.404100	0.969770	0.816200
H8221	H822	0.366500	0.940400	0.823700
H8231	H823	0.463200	0.964500	0.836300
C8241	C824	0.272600	0.027800	0.802100
H8251	H825	0.246900	0.060400	0.813000
H8261	H826	0.233600	0.999200	0.809700
O8271	O827	0.608300	0.888040	0.620020
H8281	H828	0.638100	0.881200	0.594700
H8291	H829	0.554100	0.884000	0.608100
O8301	O830	0.323800	0.862110	0.353580
H8311	H831	0.372100	0.854800	0.373100
H8321	H832	0.283000	0.862400	0.373600
