data_TUJGIQ_clean_PM
_symmetry_space_group_name_H-M	'P1'
_cell_length_a	24.949700
_cell_length_b	9.485200
_cell_length_c	21.731900
_cell_angle_alpha	90.000000
_cell_angle_beta	102.261000
_cell_angle_gamma	90.000000
_symmetry_Int_Tables_number 1

loop_
_symmetry_equiv_pos_as_xyz
'x,y,z'

loop_
_atom_site_label
_atom_site_type_symbol
_atom_site_fract_x
_atom_site_fract_y
_atom_site_fract_z
Cu11	Cu1	0.797090	0.578820	0.470430
N11	N1	0.874640	0.648100	0.482420
N21	N2	0.222630	0.990200	0.462510
C11	C1	0.888930	0.735200	0.440690
H11	H1	0.861100	0.769200	0.407200
C21	C2	0.942140	0.778800	0.443600
H21	H2	0.950200	0.841300	0.412700
C31	C3	0.983690	0.731300	0.491670
C41	C4	0.968820	0.640100	0.534900
H31	H3	0.996000	0.603600	0.568500
C51	C5	0.914460	0.602100	0.529260
H41	H4	0.905100	0.540800	0.559900
C61	C6	0.041430	0.769600	0.496620
H51	H5	0.068200	0.725700	0.528500
C71	C7	0.058400	0.862100	0.459100
H61	H6	0.031000	0.907300	0.428300
C81	C8	0.115610	0.900800	0.460830
C91	C9	0.127050	0.996800	0.416800
H71	H7	0.098100	0.035200	0.385800
C101	C10	0.180710	0.036200	0.418360
H81	H8	0.188000	0.098300	0.386800
C111	C11	0.211860	0.896900	0.504690
H91	H9	0.241600	0.862600	0.536000
C121	C12	0.159990	0.848400	0.504870
H101	H10	0.154500	0.779800	0.534800
Cu21	Cu2	0.297090	0.078820	0.470430
N31	N3	0.374640	0.148100	0.482420
N41	N4	0.722630	0.490200	0.462510
C131	C13	0.388930	0.235200	0.440690
H111	H11	0.361100	0.269200	0.407200
C141	C14	0.442140	0.278800	0.443600
H121	H12	0.450200	0.341300	0.412700
C151	C15	0.483690	0.231300	0.491670
C161	C16	0.468820	0.140100	0.534900
H131	H13	0.496000	0.103600	0.568500
C171	C17	0.414460	0.102100	0.529260
H141	H14	0.405100	0.040800	0.559900
C181	C18	0.541430	0.269600	0.496620
H151	H15	0.568200	0.225700	0.528500
C191	C19	0.558400	0.362100	0.459100
H161	H16	0.531000	0.407300	0.428300
C201	C20	0.615610	0.400800	0.460830
C211	C21	0.627050	0.496800	0.416800
H171	H17	0.598100	0.535200	0.385800
C221	C22	0.680710	0.536200	0.418360
H181	H18	0.688000	0.598300	0.386800
C231	C23	0.711860	0.396900	0.504690
H191	H19	0.741600	0.362600	0.536000
C241	C24	0.659990	0.348400	0.504870
H201	H20	0.654500	0.279800	0.534800
O11	O1	0.232930	0.798000	0.066220
O21	O2	0.307830	0.923500	0.061960
O31	O3	0.292200	0.036700	0.381190
O41	O4	0.365020	0.892300	0.394990
O51	O5	0.176290	0.805200	0.274440
O61	O6	0.244150	0.749500	0.350200
N51	N5	0.225610	0.799200	0.298100
C251	C25	0.274040	0.866500	0.090780
C261	C26	0.286960	0.888000	0.161200
C271	C27	0.334480	0.956900	0.191350
H211	H21	0.358900	0.993300	0.167200
C281	C28	0.346780	0.973300	0.256660
H221	H22	0.380000	0.018100	0.276600
C291	C29	0.311000	0.925000	0.292530
C301	C30	0.264250	0.854600	0.261540
C311	C31	0.252110	0.833900	0.196980
H231	H23	0.220200	0.783000	0.177500
C321	C32	0.324670	0.950200	0.363260
O71	O7	0.732930	0.298000	0.066220
O81	O8	0.807830	0.423500	0.061960
O91	O9	0.792200	0.536700	0.381190
O101	O10	0.865020	0.392300	0.394990
O111	O11	0.676290	0.305200	0.274440
O121	O12	0.744150	0.249500	0.350200
N61	N6	0.725610	0.299200	0.298100
C331	C33	0.774040	0.366500	0.090780
C341	C34	0.786960	0.388000	0.161200
C351	C35	0.834480	0.456900	0.191350
H241	H24	0.858900	0.493300	0.167200
C361	C36	0.846780	0.473300	0.256660
H251	H25	0.880000	0.518100	0.276600
C371	C37	0.811000	0.425000	0.292530
C381	C38	0.764250	0.354600	0.261540
C391	C39	0.752110	0.333900	0.196980
H261	H26	0.720200	0.283000	0.177500
C401	C40	0.824670	0.450200	0.363260
O131	O13	0.232930	0.202000	0.566220
O141	O14	0.307830	0.076500	0.561960
O151	O15	0.292200	0.963300	0.881190
O161	O16	0.365020	0.107700	0.894990
O171	O17	0.176290	0.194800	0.774440
O181	O18	0.244150	0.250500	0.850200
N71	N7	0.225610	0.200800	0.798100
C411	C41	0.274040	0.133500	0.590780
C421	C42	0.286960	0.112000	0.661200
C431	C43	0.334480	0.043100	0.691350
H271	H27	0.358900	0.006700	0.667200
C441	C44	0.346780	0.026700	0.756660
H281	H28	0.380000	0.981900	0.776600
C451	C45	0.311000	0.075000	0.792530
C461	C46	0.264250	0.145400	0.761540
C471	C47	0.252110	0.166100	0.696980
H291	H29	0.220200	0.217000	0.677500
C481	C48	0.324670	0.049800	0.863260
O191	O19	0.732930	0.702000	0.566220
O201	O20	0.807830	0.576500	0.561960
O211	O21	0.792200	0.463300	0.881190
O221	O22	0.865020	0.607700	0.894990
O231	O23	0.676290	0.694800	0.774440
O241	O24	0.744150	0.750500	0.850200
N81	N8	0.725610	0.700800	0.798100
C491	C49	0.774040	0.633500	0.590780
C501	C50	0.786960	0.612000	0.661200
C511	C51	0.834480	0.543100	0.691350
H301	H30	0.858900	0.506700	0.667200
C521	C52	0.846780	0.526700	0.756660
H311	H31	0.880000	0.481900	0.776600
C531	C53	0.811000	0.575000	0.792530
C541	C54	0.764250	0.645400	0.761540
C551	C55	0.752110	0.666100	0.696980
H321	H32	0.720200	0.717000	0.677500
C561	C56	0.824670	0.549800	0.863260
Cu31	Cu3	0.797090	0.421180	0.970430
N91	N9	0.874640	0.351900	0.982420
N101	N10	0.222630	0.009800	0.962510
C571	C57	0.888930	0.264800	0.940690
H331	H33	0.861100	0.230800	0.907200
C581	C58	0.942140	0.221200	0.943600
H341	H34	0.950200	0.158700	0.912700
C591	C59	0.983690	0.268700	0.991670
C601	C60	0.968820	0.359900	0.034900
H351	H35	0.996000	0.396400	0.068500
C611	C61	0.914460	0.397900	0.029260
H361	H36	0.905100	0.459200	0.059900
C621	C62	0.041430	0.230400	0.996620
H371	H37	0.068200	0.274300	0.028500
C631	C63	0.058400	0.137900	0.959100
H381	H38	0.031000	0.092700	0.928300
C641	C64	0.115610	0.099200	0.960830
C651	C65	0.127050	0.003200	0.916800
H391	H39	0.098100	0.964800	0.885800
C661	C66	0.180710	0.963800	0.918360
H401	H40	0.188000	0.901700	0.886800
C671	C67	0.211860	0.103100	0.004690
H411	H41	0.241600	0.137400	0.036000
C681	C68	0.159990	0.151600	0.004870
H421	H42	0.154500	0.220200	0.034800
Cu41	Cu4	0.297090	0.921180	0.970430
N111	N11	0.374640	0.851900	0.982420
N121	N12	0.722630	0.509800	0.962510
C691	C69	0.388930	0.764800	0.940690
H431	H43	0.361100	0.730800	0.907200
C701	C70	0.442140	0.721200	0.943600
H441	H44	0.450200	0.658700	0.912700
C711	C71	0.483690	0.768700	0.991670
C721	C72	0.468820	0.859900	0.034900
H451	H45	0.496000	0.896400	0.068500
C731	C73	0.414460	0.897900	0.029260
H461	H46	0.405100	0.959200	0.059900
C741	C74	0.541430	0.730400	0.996620
H471	H47	0.568200	0.774300	0.028500
C751	C75	0.558400	0.637900	0.959100
H481	H48	0.531000	0.592700	0.928300
C761	C76	0.615610	0.599200	0.960830
C771	C77	0.627050	0.503200	0.916800
H491	H49	0.598100	0.464800	0.885800
C781	C78	0.680710	0.463800	0.918360
H501	H50	0.688000	0.401700	0.886800
C791	C79	0.711860	0.603100	0.004690
H511	H51	0.741600	0.637400	0.036000
C801	C80	0.659990	0.651600	0.004870
H521	H52	0.654500	0.720200	0.034800
O251	O25	0.767070	0.798000	0.433780
O261	O26	0.692170	0.923500	0.438040
O271	O27	0.707800	0.036700	0.118810
O281	O28	0.634980	0.892300	0.105010
O291	O29	0.823710	0.805200	0.225560
O301	O30	0.755850	0.749500	0.149800
N131	N13	0.774390	0.799200	0.201900
C811	C81	0.725960	0.866500	0.409220
C821	C82	0.713040	0.888000	0.338800
C831	C83	0.665520	0.956900	0.308650
H531	H53	0.641100	0.993300	0.332800
C841	C84	0.653220	0.973300	0.243340
H541	H54	0.620000	0.018100	0.223400
C851	C85	0.689000	0.925000	0.207470
C861	C86	0.735750	0.854600	0.238460
C871	C87	0.747890	0.833900	0.303020
H551	H55	0.779800	0.783000	0.322500
C881	C88	0.675330	0.950200	0.136740
O311	O31	0.267070	0.298000	0.433780
O321	O32	0.192170	0.423500	0.438040
O331	O33	0.207800	0.536700	0.118810
O341	O34	0.134980	0.392300	0.105010
O351	O35	0.323710	0.305200	0.225560
O361	O36	0.255850	0.249500	0.149800
N141	N14	0.274390	0.299200	0.201900
C891	C89	0.225960	0.366500	0.409220
C901	C90	0.213040	0.388000	0.338800
C911	C91	0.165520	0.456900	0.308650
H561	H56	0.141100	0.493300	0.332800
C921	C92	0.153220	0.473300	0.243340
H571	H57	0.120000	0.518100	0.223400
C931	C93	0.189000	0.425000	0.207470
C941	C94	0.235750	0.354600	0.238460
C951	C95	0.247890	0.333900	0.303020
H581	H58	0.279800	0.283000	0.322500
C961	C96	0.175330	0.450200	0.136740
Cu51	Cu5	0.202910	0.578820	0.029570
N151	N15	0.125360	0.648100	0.017580
N161	N16	0.777370	0.990200	0.037490
C971	C97	0.111070	0.735200	0.059310
H591	H59	0.138900	0.769200	0.092800
C981	C98	0.057860	0.778800	0.056400
H601	H60	0.049800	0.841300	0.087300
C991	C99	0.016310	0.731300	0.008330
C1001	C100	0.031180	0.640100	0.965100
H611	H61	0.004000	0.603600	0.931500
C1011	C101	0.085540	0.602100	0.970740
H621	H62	0.094900	0.540800	0.940100
C1021	C102	0.958570	0.769600	0.003380
H631	H63	0.931800	0.725700	0.971500
C1031	C103	0.941600	0.862100	0.040900
H641	H64	0.969000	0.907300	0.071700
C1041	C104	0.884390	0.900800	0.039170
C1051	C105	0.872950	0.996800	0.083200
H651	H65	0.901900	0.035200	0.114200
C1061	C106	0.819290	0.036200	0.081640
H661	H66	0.812000	0.098300	0.113200
C1071	C107	0.788140	0.896900	0.995310
H671	H67	0.758400	0.862600	0.964000
C1081	C108	0.840010	0.848400	0.995130
H681	H68	0.845500	0.779800	0.965200
Cu61	Cu6	0.702910	0.078820	0.029570
N171	N17	0.625360	0.148100	0.017580
N181	N18	0.277370	0.490200	0.037490
C1091	C109	0.611070	0.235200	0.059310
H691	H69	0.638900	0.269200	0.092800
C1101	C110	0.557860	0.278800	0.056400
H701	H70	0.549800	0.341300	0.087300
C1111	C111	0.516310	0.231300	0.008330
C1121	C112	0.531180	0.140100	0.965100
H711	H71	0.504000	0.103600	0.931500
C1131	C113	0.585540	0.102100	0.970740
H721	H72	0.594900	0.040800	0.940100
C1141	C114	0.458570	0.269600	0.003380
H731	H73	0.431800	0.225700	0.971500
C1151	C115	0.441600	0.362100	0.040900
H741	H74	0.469000	0.407300	0.071700
C1161	C116	0.384390	0.400800	0.039170
C1171	C117	0.372950	0.496800	0.083200
H751	H75	0.401900	0.535200	0.114200
C1181	C118	0.319290	0.536200	0.081640
H761	H76	0.312000	0.598300	0.113200
C1191	C119	0.288140	0.396900	0.995310
H771	H77	0.258400	0.362600	0.964000
C1201	C120	0.340010	0.348400	0.995130
H781	H78	0.345500	0.279800	0.965200
Cu71	Cu7	0.202910	0.421180	0.529570
N191	N19	0.125360	0.351900	0.517580
N201	N20	0.777370	0.009800	0.537490
C1211	C121	0.111070	0.264800	0.559310
H791	H79	0.138900	0.230800	0.592800
C1221	C122	0.057860	0.221200	0.556400
H801	H80	0.049800	0.158700	0.587300
C1231	C123	0.016310	0.268700	0.508330
C1241	C124	0.031180	0.359900	0.465100
H811	H81	0.004000	0.396400	0.431500
C1251	C125	0.085540	0.397900	0.470740
H821	H82	0.094900	0.459200	0.440100
C1261	C126	0.958570	0.230400	0.503380
H831	H83	0.931800	0.274300	0.471500
C1271	C127	0.941600	0.137900	0.540900
H841	H84	0.969000	0.092700	0.571700
C1281	C128	0.884390	0.099200	0.539170
C1291	C129	0.872950	0.003200	0.583200
H851	H85	0.901900	0.964800	0.614200
C1301	C130	0.819290	0.963800	0.581640
H861	H86	0.812000	0.901700	0.613200
C1311	C131	0.788140	0.103100	0.495310
H871	H87	0.758400	0.137400	0.464000
C1321	C132	0.840010	0.151600	0.495130
H881	H88	0.845500	0.220200	0.465200
Cu81	Cu8	0.702910	0.921180	0.529570
N211	N21	0.625360	0.851900	0.517580
N221	N22	0.277370	0.509800	0.537490
C1331	C133	0.611070	0.764800	0.559310
H891	H89	0.638900	0.730800	0.592800
C1341	C134	0.557860	0.721200	0.556400
H901	H90	0.549800	0.658700	0.587300
C1351	C135	0.516310	0.768700	0.508330
C1361	C136	0.531180	0.859900	0.465100
H911	H91	0.504000	0.896400	0.431500
C1371	C137	0.585540	0.897900	0.470740
H921	H92	0.594900	0.959200	0.440100
C1381	C138	0.458570	0.730400	0.503380
H931	H93	0.431800	0.774300	0.471500
C1391	C139	0.441600	0.637900	0.540900
H941	H94	0.469000	0.592700	0.571700
C1401	C140	0.384390	0.599200	0.539170
C1411	C141	0.372950	0.503200	0.583200
H951	H95	0.401900	0.464800	0.614200
C1421	C142	0.319290	0.463800	0.581640
H961	H96	0.312000	0.401700	0.613200
C1431	C143	0.288140	0.603100	0.495310
H971	H97	0.258400	0.637400	0.464000
C1441	C144	0.340010	0.651600	0.495130
H981	H98	0.345500	0.720200	0.465200
O371	O37	0.767070	0.202000	0.933780
O381	O38	0.692170	0.076500	0.938040
O391	O39	0.707800	0.963300	0.618810
O401	O40	0.634980	0.107700	0.605010
O411	O41	0.823710	0.194800	0.725560
O421	O42	0.755850	0.250500	0.649800
N231	N23	0.774390	0.200800	0.701900
C1451	C145	0.725960	0.133500	0.909220
C1461	C146	0.713040	0.112000	0.838800
C1471	C147	0.665520	0.043100	0.808650
H991	H99	0.641100	0.006700	0.832800
C1481	C148	0.653220	0.026700	0.743340
H1001	H100	0.620000	0.981900	0.723400
C1491	C149	0.689000	0.075000	0.707470
C1501	C150	0.735750	0.145400	0.738460
C1511	C151	0.747890	0.166100	0.803020
H1011	H101	0.779800	0.217000	0.822500
C1521	C152	0.675330	0.049800	0.636740
O431	O43	0.267070	0.702000	0.933780
O441	O44	0.192170	0.576500	0.938040
O451	O45	0.207800	0.463300	0.618810
O461	O46	0.134980	0.607700	0.605010
O471	O47	0.323710	0.694800	0.725560
O481	O48	0.255850	0.750500	0.649800
N241	N24	0.274390	0.700800	0.701900
C1531	C153	0.225960	0.633500	0.909220
C1541	C154	0.213040	0.612000	0.838800
C1551	C155	0.165520	0.543100	0.808650
H1021	H102	0.141100	0.506700	0.832800
C1561	C156	0.153220	0.526700	0.743340
H1031	H103	0.120000	0.481900	0.723400
C1571	C157	0.189000	0.575000	0.707470
C1581	C158	0.235750	0.645400	0.738460
C1591	C159	0.247890	0.666100	0.803020
H1041	H104	0.279800	0.717000	0.822500
C1601	C160	0.175330	0.549800	0.636740
