data_TUKCUZ_clean_PM
_symmetry_space_group_name_H-M	'P1'
_cell_length_a	9.812000
_cell_length_b	14.283000
_cell_length_c	19.572000
_cell_angle_alpha	90.000000
_cell_angle_beta	96.941000
_cell_angle_gamma	90.000000
_symmetry_Int_Tables_number 1

loop_
_symmetry_equiv_pos_as_xyz
'x,y,z'

loop_
_atom_site_label
_atom_site_type_symbol
_atom_site_fract_x
_atom_site_fract_y
_atom_site_fract_z
Cd11	Cd1	0.734020	0.249520	0.348630
C11	C1	0.260600	0.986700	0.276600
H11	H1	0.228500	0.003100	0.231600
C21	C2	0.180300	0.998900	0.329200
C31	C3	0.224200	0.974200	0.396400
H21	H2	0.167800	0.982800	0.430800
C41	C4	0.354200	0.936300	0.411300
C51	C5	0.438800	0.924400	0.360000
H31	H3	0.526800	0.900100	0.370200
C61	C6	0.389400	0.949500	0.293100
C71	C7	0.994400	0.111800	0.345500
H41	H4	0.044000	0.146300	0.380400
C81	C8	0.833300	0.063200	0.271000
H51	H5	0.748000	0.057600	0.244900
C91	C9	0.942600	0.007100	0.265800
H61	H6	0.947400	0.957700	0.235200
C101	C10	0.323200	0.901700	0.532400
H71	H7	0.234000	0.924500	0.530200
C111	C11	0.516200	0.839100	0.568900
H81	H8	0.586300	0.810100	0.597500
C121	C12	0.525200	0.865600	0.503300
H91	H9	0.600000	0.857900	0.478800
C131	C13	0.566600	0.864100	0.238000
H101	H10	0.583900	0.818400	0.271800
C141	C14	0.572400	0.943500	0.145900
H111	H11	0.596300	0.963400	0.103700
C151	C15	0.477300	0.984500	0.180200
H121	H12	0.424000	0.036500	0.166300
C161	C16	0.533900	0.251600	0.233300
C171	C17	0.316200	0.206900	0.989500
C181	C18	0.307200	0.205700	0.065600
C191	C19	0.421300	0.227900	0.112100
H131	H13	0.505700	0.238900	0.096500
C201	C20	0.408600	0.233700	0.182000
C211	C21	0.283600	0.218900	0.204700
H141	H14	0.275400	0.223800	0.251400
C221	C22	0.168800	0.196600	0.158500
C231	C23	0.181400	0.188100	0.089100
H151	H15	0.106100	0.170800	0.058300
N11	N1	0.867400	0.129300	0.320500
N21	N2	0.044300	0.037400	0.314240
N31	N3	0.389900	0.861000	0.587300
N41	N4	0.401100	0.906200	0.479900
N51	N5	0.628400	0.868700	0.182300
N61	N6	0.475100	0.933600	0.239960
O11	O1	0.650700	0.241200	0.215200
O21	O2	0.517200	0.274700	0.293220
O31	O3	0.413600	0.249000	0.966900
O41	O4	0.219600	0.169900	0.950250
O51	O5	0.048300	0.183400	0.184940
H161	H16	0.989800	0.164900	0.154500
Cd21	Cd2	0.765980	0.749520	0.151370
C241	C24	0.239400	0.486700	0.223400
H171	H17	0.271500	0.503100	0.268400
C251	C25	0.319700	0.498900	0.170800
C261	C26	0.275800	0.474200	0.103600
H181	H18	0.332200	0.482800	0.069200
C271	C27	0.145800	0.436300	0.088700
C281	C28	0.061200	0.424400	0.140000
H191	H19	0.973200	0.400100	0.129800
C291	C29	0.110600	0.449500	0.206900
C301	C30	0.505600	0.611800	0.154500
H201	H20	0.456000	0.646300	0.119600
C311	C31	0.666700	0.563200	0.229000
H211	H21	0.752000	0.557600	0.255100
C321	C32	0.557400	0.507100	0.234200
H221	H22	0.552600	0.457700	0.264800
C331	C33	0.176800	0.401700	0.967600
H231	H23	0.266000	0.424500	0.969800
C341	C34	0.983800	0.339100	0.931100
H241	H24	0.913700	0.310100	0.902500
C351	C35	0.974800	0.365600	0.996700
H251	H25	0.900000	0.357900	0.021200
C361	C36	0.933400	0.364100	0.262000
H261	H26	0.916100	0.318400	0.228200
C371	C37	0.927600	0.443500	0.354100
H271	H27	0.903700	0.463400	0.396300
C381	C38	0.022700	0.484500	0.319800
H281	H28	0.076000	0.536500	0.333700
C391	C39	0.966100	0.751600	0.266700
C401	C40	0.183800	0.706900	0.510500
C411	C41	0.192800	0.705700	0.434400
C421	C42	0.078700	0.727900	0.387900
H291	H29	0.994300	0.738900	0.403500
C431	C43	0.091400	0.733700	0.318000
C441	C44	0.216400	0.718900	0.295300
H301	H30	0.224600	0.723800	0.248600
C451	C45	0.331200	0.696600	0.341500
C461	C46	0.318600	0.688100	0.410900
H311	H31	0.393900	0.670800	0.441700
N71	N7	0.632600	0.629300	0.179500
N81	N8	0.455700	0.537400	0.185760
N91	N9	0.110100	0.361000	0.912700
N101	N10	0.098900	0.406200	0.020100
N111	N11	0.871600	0.368700	0.317700
N121	N12	0.024900	0.433600	0.260040
O61	O6	0.849300	0.741200	0.284800
O71	O7	0.982800	0.774700	0.206780
O81	O8	0.086400	0.749000	0.533100
O91	O9	0.280400	0.669900	0.549750
O101	O10	0.451700	0.683400	0.315060
H321	H32	0.510200	0.664900	0.345500
Cd31	Cd3	0.265980	0.750480	0.651370
C471	C47	0.739400	0.013300	0.723400
H331	H33	0.771500	0.996900	0.768400
C481	C48	0.819700	0.001100	0.670800
C491	C49	0.775800	0.025800	0.603600
H341	H34	0.832200	0.017200	0.569200
C501	C50	0.645800	0.063700	0.588700
C511	C51	0.561200	0.075600	0.640000
H351	H35	0.473200	0.099900	0.629800
C521	C52	0.610600	0.050500	0.706900
C531	C53	0.005600	0.888200	0.654500
H361	H36	0.956000	0.853700	0.619600
C541	C54	0.166700	0.936800	0.729000
H371	H37	0.252000	0.942400	0.755100
C551	C55	0.057400	0.992900	0.734200
H381	H38	0.052600	0.042300	0.764800
C561	C56	0.676800	0.098300	0.467600
H391	H39	0.766000	0.075500	0.469800
C571	C57	0.483800	0.160900	0.431100
H401	H40	0.413700	0.189900	0.402500
C581	C58	0.474800	0.134400	0.496700
H411	H41	0.400000	0.142100	0.521200
C591	C59	0.433400	0.135900	0.762000
H421	H42	0.416100	0.181600	0.728200
C601	C60	0.427600	0.056500	0.854100
H431	H43	0.403700	0.036600	0.896300
C611	C61	0.522700	0.015500	0.819800
H441	H44	0.576000	0.963500	0.833700
C621	C62	0.466100	0.748400	0.766700
C631	C63	0.683800	0.793100	0.010500
C641	C64	0.692800	0.794300	0.934400
C651	C65	0.578700	0.772100	0.887900
H451	H45	0.494300	0.761100	0.903500
C661	C66	0.591400	0.766300	0.818000
C671	C67	0.716400	0.781100	0.795300
H461	H46	0.724600	0.776200	0.748600
C681	C68	0.831200	0.803400	0.841500
C691	C69	0.818600	0.811900	0.910900
H471	H47	0.893900	0.829200	0.941700
N131	N13	0.132600	0.870700	0.679500
N141	N14	0.955700	0.962600	0.685760
N151	N15	0.610100	0.139000	0.412700
N161	N16	0.598900	0.093800	0.520100
N171	N17	0.371600	0.131300	0.817700
N181	N18	0.524900	0.066400	0.760040
O111	O11	0.349300	0.758800	0.784800
O121	O12	0.482800	0.725300	0.706780
O131	O13	0.586400	0.751000	0.033100
O141	O14	0.780400	0.830100	0.049750
O151	O15	0.951700	0.816600	0.815060
H481	H48	0.010200	0.835100	0.845500
Cd41	Cd4	0.234020	0.250480	0.848630
C701	C70	0.760600	0.513300	0.776600
H491	H49	0.728500	0.496900	0.731600
C711	C71	0.680300	0.501100	0.829200
C721	C72	0.724200	0.525800	0.896400
H501	H50	0.667800	0.517200	0.930800
C731	C73	0.854200	0.563700	0.911300
C741	C74	0.938800	0.575600	0.860000
H511	H51	0.026800	0.599900	0.870200
C751	C75	0.889400	0.550500	0.793100
C761	C76	0.494400	0.388200	0.845500
H521	H52	0.544000	0.353700	0.880400
C771	C77	0.333300	0.436800	0.771000
H531	H53	0.248000	0.442400	0.744900
C781	C78	0.442600	0.492900	0.765800
H541	H54	0.447400	0.542300	0.735200
C791	C79	0.823200	0.598300	0.032400
H551	H55	0.734000	0.575500	0.030200
C801	C80	0.016200	0.660900	0.068900
H561	H56	0.086300	0.689900	0.097500
C811	C81	0.025200	0.634400	0.003300
H571	H57	0.100000	0.642100	0.978800
C821	C82	0.066600	0.635900	0.738000
H581	H58	0.083900	0.681600	0.771800
C831	C83	0.072400	0.556500	0.645900
H591	H59	0.096300	0.536600	0.603700
C841	C84	0.977300	0.515500	0.680200
H601	H60	0.924000	0.463500	0.666300
C851	C85	0.033900	0.248400	0.733300
C861	C86	0.816200	0.293100	0.489500
C871	C87	0.807200	0.294300	0.565600
C881	C88	0.921300	0.272100	0.612100
H611	H61	0.005700	0.261100	0.596500
C891	C89	0.908600	0.266300	0.682000
C901	C90	0.783600	0.281100	0.704700
H621	H62	0.775400	0.276200	0.751400
C911	C91	0.668800	0.303400	0.658500
C921	C92	0.681400	0.311900	0.589100
H631	H63	0.606100	0.329200	0.558300
N191	N19	0.367400	0.370700	0.820500
N201	N20	0.544300	0.462600	0.814240
N211	N21	0.889900	0.639000	0.087300
N221	N22	0.901100	0.593800	0.979900
N231	N23	0.128400	0.631300	0.682300
N241	N24	0.975100	0.566400	0.739960
O161	O16	0.150700	0.258800	0.715200
O171	O17	0.017200	0.225300	0.793220
O181	O18	0.913600	0.251000	0.466900
O191	O19	0.719600	0.330100	0.450250
O201	O20	0.548300	0.316600	0.684940
H641	H64	0.489800	0.335100	0.654500
