data_TUKDAG_clean_PM
_symmetry_space_group_name_H-M	'P1'
_cell_length_a	11.564000
_cell_length_b	22.347000
_cell_length_c	10.179000
_cell_angle_alpha	90.000000
_cell_angle_beta	103.343000
_cell_angle_gamma	90.000000
_symmetry_Int_Tables_number 1

loop_
_symmetry_equiv_pos_as_xyz
'x,y,z'

loop_
_atom_site_label
_atom_site_type_symbol
_atom_site_fract_x
_atom_site_fract_y
_atom_site_fract_z
Cd11	Cd1	0.186770	0.090060	0.854860
C11	C1	0.170800	0.787230	0.748100
H11	H1	0.095700	0.788700	0.690300
C21	C2	0.227500	0.839210	0.801200
C31	C3	0.341500	0.836940	0.884200
H21	H2	0.379800	0.871900	0.920000
C41	C4	0.397200	0.782040	0.912700
C51	C5	0.341400	0.729100	0.863100
H31	H3	0.379000	0.692400	0.883500
C61	C6	0.227300	0.732920	0.782200
C71	C7	0.199200	0.946420	0.845100
H41	H4	0.261800	0.949400	0.920800
C81	C8	0.050700	0.967820	0.684500
H51	H5	0.990500	0.989500	0.627900
C91	C9	0.072700	0.909390	0.670200
H61	H6	0.031400	0.883600	0.604100
C101	C10	0.595300	0.825690	0.996300
H71	H7	0.583100	0.857200	0.935000
C111	C11	0.672100	0.768150	0.158500
H81	H8	0.725200	0.751800	0.232600
C121	C12	0.563900	0.745070	0.101200
H91	H9	0.529700	0.710900	0.128000
C131	C13	0.043900	0.672950	0.735900
H101	H10	0.998400	0.701100	0.768600
C141	C14	0.098900	0.593560	0.648900
H111	H11	0.096200	0.555900	0.609600
C151	C15	0.196400	0.628840	0.679800
H121	H12	0.271500	0.620400	0.666200
C161	C16	0.266100	0.071460	0.134400
C171	C17	0.286700	0.090160	0.631700
C181	C18	0.663300	0.071130	0.465400
H131	H13	0.694700	0.110100	0.453900
H141	H14	0.686200	0.043600	0.403700
H151	H15	0.694200	0.057700	0.556300
C191	C19	0.337900	0.075030	0.278400
C201	C20	0.281500	0.084860	0.383400
H161	H16	0.199700	0.090500	0.365000
C211	C21	0.348300	0.086260	0.516300
C221	C22	0.471100	0.081140	0.541400
H171	H17	0.515400	0.082300	0.630100
C231	C23	0.529400	0.074350	0.437600
C241	C24	0.460900	0.070060	0.306400
H181	H18	0.498200	0.063700	0.235900
N11	N1	0.129600	0.991030	0.794900
N21	N2	0.169400	0.895420	0.773900
N31	N3	0.692300	0.818860	0.091900
N41	N4	0.515300	0.781870	0.997000
N51	N5	0.003870	0.621580	0.684000
N61	N6	0.160790	0.680030	0.735800
O11	O1	0.162800	0.090950	0.104900
O21	O2	0.317330	0.050680	0.047110
O31	O3	0.184270	0.112000	0.612900
O41	O4	0.340300	0.069480	0.744210
Cd21	Cd2	0.813230	0.590060	0.645140
C251	C25	0.829200	0.287230	0.751900
H191	H19	0.904300	0.288700	0.809700
C261	C26	0.772500	0.339210	0.698800
C271	C27	0.658500	0.336940	0.615800
H201	H20	0.620200	0.371900	0.580000
C281	C28	0.602800	0.282040	0.587300
C291	C29	0.658600	0.229100	0.636900
H211	H21	0.621000	0.192400	0.616500
C301	C30	0.772700	0.232920	0.717800
C311	C31	0.800800	0.446420	0.654900
H221	H22	0.738200	0.449400	0.579200
C321	C32	0.949300	0.467820	0.815500
H231	H23	0.009500	0.489500	0.872100
C331	C33	0.927300	0.409390	0.829800
H241	H24	0.968600	0.383600	0.895900
C341	C34	0.404700	0.325690	0.503700
H251	H25	0.416900	0.357200	0.565000
C351	C35	0.327900	0.268150	0.341500
H261	H26	0.274800	0.251800	0.267400
C361	C36	0.436100	0.245070	0.398800
H271	H27	0.470300	0.210900	0.372000
C371	C37	0.956100	0.172950	0.764100
H281	H28	0.001600	0.201100	0.731400
C381	C38	0.901100	0.093560	0.851100
H291	H29	0.903800	0.055900	0.890400
C391	C39	0.803600	0.128840	0.820200
H301	H30	0.728500	0.120400	0.833800
C401	C40	0.733900	0.571460	0.365600
C411	C41	0.713300	0.590160	0.868300
C421	C42	0.336700	0.571130	0.034600
H311	H31	0.305300	0.610100	0.046100
H321	H32	0.313800	0.543600	0.096300
H331	H33	0.305800	0.557700	0.943700
C431	C43	0.662100	0.575030	0.221600
C441	C44	0.718500	0.584860	0.116600
H341	H34	0.800300	0.590500	0.135000
C451	C45	0.651700	0.586260	0.983700
C461	C46	0.528900	0.581140	0.958600
H351	H35	0.484600	0.582300	0.869900
C471	C47	0.470600	0.574350	0.062400
C481	C48	0.539100	0.570060	0.193600
H361	H36	0.501800	0.563700	0.264100
N71	N7	0.870400	0.491030	0.705100
N81	N8	0.830600	0.395420	0.726100
N91	N9	0.307700	0.318860	0.408100
N101	N10	0.484700	0.281870	0.503000
N111	N11	0.996130	0.121580	0.816000
N121	N12	0.839210	0.180030	0.764200
O51	O5	0.837200	0.590950	0.395100
O61	O6	0.682670	0.550680	0.452890
O71	O7	0.815730	0.612000	0.887100
O81	O8	0.659700	0.569480	0.755790
Cd31	Cd3	0.813230	0.909940	0.145140
C491	C49	0.829200	0.212770	0.251900
H371	H37	0.904300	0.211300	0.309700
C501	C50	0.772500	0.160790	0.198800
C511	C51	0.658500	0.163060	0.115800
H381	H38	0.620200	0.128100	0.080000
C521	C52	0.602800	0.217960	0.087300
C531	C53	0.658600	0.270900	0.136900
H391	H39	0.621000	0.307600	0.116500
C541	C54	0.772700	0.267080	0.217800
C551	C55	0.800800	0.053580	0.154900
H401	H40	0.738200	0.050600	0.079200
C561	C56	0.949300	0.032180	0.315500
H411	H41	0.009500	0.010500	0.372100
C571	C57	0.927300	0.090610	0.329800
H421	H42	0.968600	0.116400	0.395900
C581	C58	0.404700	0.174310	0.003700
H431	H43	0.416900	0.142800	0.065000
C591	C59	0.327900	0.231850	0.841500
H441	H44	0.274800	0.248200	0.767400
C601	C60	0.436100	0.254930	0.898800
H451	H45	0.470300	0.289100	0.872000
C611	C61	0.956100	0.327050	0.264100
H461	H46	0.001600	0.298900	0.231400
C621	C62	0.901100	0.406440	0.351100
H471	H47	0.903800	0.444100	0.390400
C631	C63	0.803600	0.371160	0.320200
H481	H48	0.728500	0.379600	0.333800
C641	C64	0.733900	0.928540	0.865600
C651	C65	0.713300	0.909840	0.368300
C661	C66	0.336700	0.928870	0.534600
H491	H49	0.305300	0.889900	0.546100
H501	H50	0.313800	0.956400	0.596300
H511	H51	0.305800	0.942300	0.443700
C671	C67	0.662100	0.924970	0.721600
C681	C68	0.718500	0.915140	0.616600
H521	H52	0.800300	0.909500	0.635000
C691	C69	0.651700	0.913740	0.483700
C701	C70	0.528900	0.918860	0.458600
H531	H53	0.484600	0.917700	0.369900
C711	C71	0.470600	0.925650	0.562400
C721	C72	0.539100	0.929940	0.693600
H541	H54	0.501800	0.936300	0.764100
N131	N13	0.870400	0.008970	0.205100
N141	N14	0.830600	0.104580	0.226100
N151	N15	0.307700	0.181140	0.908100
N161	N16	0.484700	0.218130	0.003000
N171	N17	0.996130	0.378420	0.316000
N181	N18	0.839210	0.319970	0.264200
O91	O9	0.837200	0.909050	0.895100
O101	O10	0.682670	0.949320	0.952890
O111	O11	0.815730	0.888000	0.387100
O121	O12	0.659700	0.930520	0.255790
Cd41	Cd4	0.186770	0.409940	0.354860
C731	C73	0.170800	0.712770	0.248100
H551	H55	0.095700	0.711300	0.190300
C741	C74	0.227500	0.660790	0.301200
C751	C75	0.341500	0.663060	0.384200
H561	H56	0.379800	0.628100	0.420000
C761	C76	0.397200	0.717960	0.412700
C771	C77	0.341400	0.770900	0.363100
H571	H57	0.379000	0.807600	0.383500
C781	C78	0.227300	0.767080	0.282200
C791	C79	0.199200	0.553580	0.345100
H581	H58	0.261800	0.550600	0.420800
C801	C80	0.050700	0.532180	0.184500
H591	H59	0.990500	0.510500	0.127900
C811	C81	0.072700	0.590610	0.170200
H601	H60	0.031400	0.616400	0.104100
C821	C82	0.595300	0.674310	0.496300
H611	H61	0.583100	0.642800	0.435000
C831	C83	0.672100	0.731850	0.658500
H621	H62	0.725200	0.748200	0.732600
C841	C84	0.563900	0.754930	0.601200
H631	H63	0.529700	0.789100	0.628000
C851	C85	0.043900	0.827050	0.235900
H641	H64	0.998400	0.798900	0.268600
C861	C86	0.098900	0.906440	0.148900
H651	H65	0.096200	0.944100	0.109600
C871	C87	0.196400	0.871160	0.179800
H661	H66	0.271500	0.879600	0.166200
C881	C88	0.266100	0.428540	0.634400
C891	C89	0.286700	0.409840	0.131700
C901	C90	0.663300	0.428870	0.965400
H671	H67	0.694700	0.389900	0.953900
H681	H68	0.686200	0.456400	0.903700
H691	H69	0.694200	0.442300	0.056300
C911	C91	0.337900	0.424970	0.778400
C921	C92	0.281500	0.415140	0.883400
H701	H70	0.199700	0.409500	0.865000
C931	C93	0.348300	0.413740	0.016300
C941	C94	0.471100	0.418860	0.041400
H711	H71	0.515400	0.417700	0.130100
C951	C95	0.529400	0.425650	0.937600
C961	C96	0.460900	0.429940	0.806400
H721	H72	0.498200	0.436300	0.735900
N191	N19	0.129600	0.508970	0.294900
N201	N20	0.169400	0.604580	0.273900
N211	N21	0.692300	0.681140	0.591900
N221	N22	0.515300	0.718130	0.497000
N231	N23	0.003870	0.878420	0.184000
N241	N24	0.160790	0.819970	0.235800
O131	O13	0.162800	0.409050	0.604900
O141	O14	0.317330	0.449320	0.547110
O151	O15	0.184270	0.388000	0.112900
O161	O16	0.340300	0.430520	0.244210
