data_TUKYIJ_clean_PM
_symmetry_space_group_name_H-M	'P1'
_cell_length_a	23.382300
_cell_length_b	23.382300
_cell_length_c	28.185700
_cell_angle_alpha	90.000000
_cell_angle_beta	90.000000
_cell_angle_gamma	90.000000
_symmetry_Int_Tables_number 1

loop_
_symmetry_equiv_pos_as_xyz
'x,y,z'

loop_
_atom_site_label
_atom_site_type_symbol
_atom_site_fract_x
_atom_site_fract_y
_atom_site_fract_z
Ag11	Ag1	0.557020	0.503060	0.473470
C11	C1	0.403900	0.446110	0.331280
H11	H1	0.422900	0.409800	0.333700
H21	H2	0.409800	0.461700	0.300200
H31	H3	0.363600	0.441000	0.336700
C21	C2	0.427450	0.485900	0.367300
C31	C3	0.425890	0.545170	0.369970
C41	C4	0.454730	0.558930	0.411810
C51	C5	0.464700	0.616780	0.432450
H41	H4	0.470700	0.613400	0.466000
H51	H5	0.431900	0.640500	0.426600
H61	H6	0.497800	0.633700	0.418000
C61	C6	0.293020	0.581500	0.358990
H71	H7	0.297500	0.594500	0.391100
H81	H8	0.291200	0.540500	0.358600
H91	H9	0.258400	0.596900	0.345900
C71	C7	0.342490	0.600890	0.330200
C81	C8	0.400430	0.584910	0.335320
C91	C9	0.428860	0.615100	0.300640
C101	C10	0.491100	0.618800	0.288990
H101	H10	0.506400	0.580900	0.285500
H111	H11	0.510800	0.638200	0.314100
H121	H12	0.496000	0.639500	0.259900
C111	C11	0.710500	0.318840	0.437800
H131	H13	0.710100	0.287400	0.459700
H141	H14	0.748600	0.324200	0.425900
H151	H15	0.685200	0.310800	0.411800
C121	C12	0.691370	0.371960	0.462600
C131	C13	0.719570	0.409770	0.492420
C141	C14	0.679360	0.452010	0.503520
C151	C15	0.686260	0.504090	0.533340
H161	H16	0.690700	0.536900	0.513200
H171	H17	0.719500	0.500000	0.553100
H181	H18	0.653000	0.508900	0.552900
N11	N1	0.473460	0.511410	0.433390
N21	N2	0.456150	0.467670	0.405380
H191	H19	0.462900	0.432200	0.411400
N31	N3	0.389190	0.645470	0.276740
H201	H20	0.396800	0.667200	0.253000
N41	N4	0.336220	0.637780	0.294420
N51	N5	0.629450	0.440960	0.482630
N61	N6	0.637960	0.391890	0.457790
H211	H21	0.612100	0.375500	0.440900
Ag21	Ag2	0.057020	0.003060	0.973470
C161	C16	0.903900	0.946110	0.831280
H221	H22	0.922900	0.909800	0.833700
H231	H23	0.909800	0.961700	0.800200
H241	H24	0.863600	0.941000	0.836700
C171	C17	0.927450	0.985900	0.867300
C181	C18	0.925890	0.045170	0.869970
C191	C19	0.954730	0.058930	0.911810
C201	C20	0.964700	0.116780	0.932450
H251	H25	0.970700	0.113400	0.966000
H261	H26	0.931900	0.140500	0.926600
H271	H27	0.997800	0.133700	0.918000
C211	C21	0.793020	0.081500	0.858990
H281	H28	0.797500	0.094500	0.891100
H291	H29	0.791200	0.040500	0.858600
H301	H30	0.758400	0.096900	0.845900
C221	C22	0.842490	0.100890	0.830200
C231	C23	0.900430	0.084910	0.835320
C241	C24	0.928860	0.115100	0.800640
C251	C25	0.991100	0.118800	0.788990
H311	H31	0.006400	0.080900	0.785500
H321	H32	0.010800	0.138200	0.814100
H331	H33	0.996000	0.139500	0.759900
C261	C26	0.210500	0.818840	0.937800
H341	H34	0.210100	0.787400	0.959700
H351	H35	0.248600	0.824200	0.925900
H361	H36	0.185200	0.810800	0.911800
C271	C27	0.191370	0.871960	0.962600
C281	C28	0.219570	0.909770	0.992420
C291	C29	0.179360	0.952010	0.003520
C301	C30	0.186260	0.004090	0.033340
H371	H37	0.190700	0.036900	0.013200
H381	H38	0.219500	0.000000	0.053100
H391	H39	0.153000	0.008900	0.052900
N71	N7	0.973460	0.011410	0.933390
N81	N8	0.956150	0.967670	0.905380
H401	H40	0.962900	0.932200	0.911400
N91	N9	0.889190	0.145470	0.776740
H411	H41	0.896800	0.167200	0.753000
N101	N10	0.836220	0.137780	0.794420
N111	N11	0.129450	0.940960	0.982630
N121	N12	0.137960	0.891890	0.957790
H421	H42	0.112100	0.875500	0.940900
Ag31	Ag3	0.942980	0.496940	0.973470
C311	C31	0.096100	0.553890	0.831280
H431	H43	0.077100	0.590200	0.833700
H441	H44	0.090200	0.538300	0.800200
H451	H45	0.136400	0.559000	0.836700
C321	C32	0.072550	0.514100	0.867300
C331	C33	0.074110	0.454830	0.869970
C341	C34	0.045270	0.441070	0.911810
C351	C35	0.035300	0.383220	0.932450
H461	H46	0.029300	0.386600	0.966000
H471	H47	0.068100	0.359500	0.926600
H481	H48	0.002200	0.366300	0.918000
C361	C36	0.206980	0.418500	0.858990
H491	H49	0.202500	0.405500	0.891100
H501	H50	0.208800	0.459500	0.858600
H511	H51	0.241600	0.403100	0.845900
C371	C37	0.157510	0.399110	0.830200
C381	C38	0.099570	0.415090	0.835320
C391	C39	0.071140	0.384900	0.800640
C401	C40	0.008900	0.381200	0.788990
H521	H52	0.993600	0.419100	0.785500
H531	H53	0.989200	0.361800	0.814100
H541	H54	0.004000	0.360500	0.759900
C411	C41	0.789500	0.681160	0.937800
H551	H55	0.789900	0.712600	0.959700
H561	H56	0.751400	0.675800	0.925900
H571	H57	0.814800	0.689200	0.911800
C421	C42	0.808630	0.628040	0.962600
C431	C43	0.780430	0.590230	0.992420
C441	C44	0.820640	0.547990	0.003520
C451	C45	0.813740	0.495910	0.033340
H581	H58	0.809300	0.463100	0.013200
H591	H59	0.780500	0.500000	0.053100
H601	H60	0.847000	0.491100	0.052900
N131	N13	0.026540	0.488590	0.933390
N141	N14	0.043850	0.532330	0.905380
H611	H61	0.037100	0.567800	0.911400
N151	N15	0.110810	0.354530	0.776740
H621	H62	0.103200	0.332800	0.753000
N161	N16	0.163780	0.362220	0.794420
N171	N17	0.870550	0.559040	0.982630
N181	N18	0.862040	0.608110	0.957790
H631	H63	0.887900	0.624500	0.940900
Ag41	Ag4	0.442980	0.996940	0.473470
C461	C46	0.596100	0.053890	0.331280
H641	H64	0.577100	0.090200	0.333700
H651	H65	0.590200	0.038300	0.300200
H661	H66	0.636400	0.059000	0.336700
C471	C47	0.572550	0.014100	0.367300
C481	C48	0.574110	0.954830	0.369970
C491	C49	0.545270	0.941070	0.411810
C501	C50	0.535300	0.883220	0.432450
H671	H67	0.529300	0.886600	0.466000
H681	H68	0.568100	0.859500	0.426600
H691	H69	0.502200	0.866300	0.418000
C511	C51	0.706980	0.918500	0.358990
H701	H70	0.702500	0.905500	0.391100
H711	H71	0.708800	0.959500	0.358600
H721	H72	0.741600	0.903100	0.345900
C521	C52	0.657510	0.899110	0.330200
C531	C53	0.599570	0.915090	0.335320
C541	C54	0.571140	0.884900	0.300640
C551	C55	0.508900	0.881200	0.288990
H731	H73	0.493600	0.919100	0.285500
H741	H74	0.489200	0.861800	0.314100
H751	H75	0.504000	0.860500	0.259900
C561	C56	0.289500	0.181160	0.437800
H761	H76	0.289900	0.212600	0.459700
H771	H77	0.251400	0.175800	0.425900
H781	H78	0.314800	0.189200	0.411800
C571	C57	0.308630	0.128040	0.462600
C581	C58	0.280430	0.090230	0.492420
C591	C59	0.320640	0.047990	0.503520
C601	C60	0.313740	0.995910	0.533340
H791	H79	0.309300	0.963100	0.513200
H801	H80	0.280500	0.000000	0.553100
H811	H81	0.347000	0.991100	0.552900
N191	N19	0.526540	0.988590	0.433390
N201	N20	0.543850	0.032330	0.405380
H821	H82	0.537100	0.067800	0.411400
N211	N21	0.610810	0.854530	0.276740
H831	H83	0.603200	0.832800	0.253000
N221	N22	0.663780	0.862220	0.294420
N231	N23	0.370550	0.059040	0.482630
N241	N24	0.362040	0.108110	0.457790
H841	H84	0.387900	0.124500	0.440900
Ag51	Ag5	0.746940	0.307020	0.723470
C611	C61	0.803890	0.153900	0.581280
H851	H85	0.840200	0.172900	0.583700
H861	H86	0.788300	0.159800	0.550200
H871	H87	0.809000	0.113600	0.586700
C621	C62	0.764100	0.177450	0.617300
C631	C63	0.704830	0.175890	0.619970
C641	C64	0.691070	0.204730	0.661810
C651	C65	0.633220	0.214700	0.682450
H881	H88	0.636600	0.220700	0.716000
H891	H89	0.609500	0.181900	0.676600
H901	H90	0.616300	0.247800	0.668000
C661	C66	0.668500	0.043020	0.608990
H911	H91	0.655500	0.047500	0.641100
H921	H92	0.709500	0.041200	0.608600
H931	H93	0.653100	0.008400	0.595900
C671	C67	0.649110	0.092490	0.580200
C681	C68	0.665090	0.150430	0.585320
C691	C69	0.634900	0.178860	0.550640
C701	C70	0.631200	0.241100	0.538990
H941	H94	0.669100	0.256400	0.535500
H951	H95	0.611800	0.260800	0.564100
H961	H96	0.610500	0.246000	0.509900
C711	C71	0.931160	0.460500	0.687800
H971	H97	0.962600	0.460100	0.709700
H981	H98	0.925800	0.498600	0.675900
H991	H99	0.939200	0.435200	0.661800
C721	C72	0.878040	0.441370	0.712600
C731	C73	0.840230	0.469570	0.742420
C741	C74	0.797990	0.429360	0.753520
C751	C75	0.745910	0.436260	0.783340
H1001	H100	0.713100	0.440700	0.763200
H1011	H101	0.750000	0.469500	0.803100
H1021	H102	0.741100	0.403000	0.802900
N251	N25	0.738590	0.223460	0.683390
N261	N26	0.782330	0.206150	0.655380
H1031	H103	0.817800	0.212900	0.661400
N271	N27	0.604530	0.139190	0.526740
H1041	H104	0.582800	0.146800	0.503000
N281	N28	0.612220	0.086220	0.544420
N291	N29	0.809040	0.379450	0.732630
N301	N30	0.858110	0.387960	0.707790
H1051	H105	0.874500	0.362100	0.690900
Ag61	Ag6	0.246940	0.807020	0.223470
C761	C76	0.303890	0.653900	0.081280
H1061	H106	0.340200	0.672900	0.083700
H1071	H107	0.288300	0.659800	0.050200
H1081	H108	0.309000	0.613600	0.086700
C771	C77	0.264100	0.677450	0.117300
C781	C78	0.204830	0.675890	0.119970
C791	C79	0.191070	0.704730	0.161810
C801	C80	0.133220	0.714700	0.182450
H1091	H109	0.136600	0.720700	0.216000
H1101	H110	0.109500	0.681900	0.176600
H1111	H111	0.116300	0.747800	0.168000
C811	C81	0.168500	0.543020	0.108990
H1121	H112	0.155500	0.547500	0.141100
H1131	H113	0.209500	0.541200	0.108600
H1141	H114	0.153100	0.508400	0.095900
C821	C82	0.149110	0.592490	0.080200
C831	C83	0.165090	0.650430	0.085320
C841	C84	0.134900	0.678860	0.050640
C851	C85	0.131200	0.741100	0.038990
H1151	H115	0.169100	0.756400	0.035500
H1161	H116	0.111800	0.760800	0.064100
H1171	H117	0.110500	0.746000	0.009900
C861	C86	0.431160	0.960500	0.187800
H1181	H118	0.462600	0.960100	0.209700
H1191	H119	0.425800	0.998600	0.175900
H1201	H120	0.439200	0.935200	0.161800
C871	C87	0.378040	0.941370	0.212600
C881	C88	0.340230	0.969570	0.242420
C891	C89	0.297990	0.929360	0.253520
C901	C90	0.245910	0.936260	0.283340
H1211	H121	0.213100	0.940700	0.263200
H1221	H122	0.250000	0.969500	0.303100
H1231	H123	0.241100	0.903000	0.302900
N311	N31	0.238590	0.723460	0.183390
N321	N32	0.282330	0.706150	0.155380
H1241	H124	0.317800	0.712900	0.161400
N331	N33	0.104530	0.639190	0.026740
H1251	H125	0.082800	0.646800	0.003000
N341	N34	0.112220	0.586220	0.044420
N351	N35	0.309040	0.879450	0.232630
N361	N36	0.358110	0.887960	0.207790
H1261	H126	0.374500	0.862100	0.190900
Ag71	Ag7	0.753060	0.692980	0.223470
C911	C91	0.696110	0.846100	0.081280
H1271	H127	0.659800	0.827100	0.083700
H1281	H128	0.711700	0.840200	0.050200
H1291	H129	0.691000	0.886400	0.086700
C921	C92	0.735900	0.822550	0.117300
C931	C93	0.795170	0.824110	0.119970
C941	C94	0.808930	0.795270	0.161810
C951	C95	0.866780	0.785300	0.182450
H1301	H130	0.863400	0.779300	0.216000
H1311	H131	0.890500	0.818100	0.176600
H1321	H132	0.883700	0.752200	0.168000
C961	C96	0.831500	0.956980	0.108990
H1331	H133	0.844500	0.952500	0.141100
H1341	H134	0.790500	0.958800	0.108600
H1351	H135	0.846900	0.991600	0.095900
C971	C97	0.850890	0.907510	0.080200
C981	C98	0.834910	0.849570	0.085320
C991	C99	0.865100	0.821140	0.050640
C1001	C100	0.868800	0.758900	0.038990
H1361	H136	0.830900	0.743600	0.035500
H1371	H137	0.888200	0.739200	0.064100
H1381	H138	0.889500	0.754000	0.009900
C1011	C101	0.568840	0.539500	0.187800
H1391	H139	0.537400	0.539900	0.209700
H1401	H140	0.574200	0.501400	0.175900
H1411	H141	0.560800	0.564800	0.161800
C1021	C102	0.621960	0.558630	0.212600
C1031	C103	0.659770	0.530430	0.242420
C1041	C104	0.702010	0.570640	0.253520
C1051	C105	0.754090	0.563740	0.283340
H1421	H142	0.786900	0.559300	0.263200
H1431	H143	0.750000	0.530500	0.303100
H1441	H144	0.758900	0.597000	0.302900
N371	N37	0.761410	0.776540	0.183390
N381	N38	0.717670	0.793850	0.155380
H1451	H145	0.682200	0.787100	0.161400
N391	N39	0.895470	0.860810	0.026740
H1461	H146	0.917200	0.853200	0.003000
N401	N40	0.887780	0.913780	0.044420
N411	N41	0.690960	0.620550	0.232630
N421	N42	0.641890	0.612040	0.207790
H1471	H147	0.625500	0.637900	0.190900
Ag81	Ag8	0.253060	0.192980	0.723470
C1061	C106	0.196110	0.346100	0.581280
H1481	H148	0.159800	0.327100	0.583700
H1491	H149	0.211700	0.340200	0.550200
H1501	H150	0.191000	0.386400	0.586700
C1071	C107	0.235900	0.322550	0.617300
C1081	C108	0.295170	0.324110	0.619970
C1091	C109	0.308930	0.295270	0.661810
C1101	C110	0.366780	0.285300	0.682450
H1511	H151	0.363400	0.279300	0.716000
H1521	H152	0.390500	0.318100	0.676600
H1531	H153	0.383700	0.252200	0.668000
C1111	C111	0.331500	0.456980	0.608990
H1541	H154	0.344500	0.452500	0.641100
H1551	H155	0.290500	0.458800	0.608600
H1561	H156	0.346900	0.491600	0.595900
C1121	C112	0.350890	0.407510	0.580200
C1131	C113	0.334910	0.349570	0.585320
C1141	C114	0.365100	0.321140	0.550640
C1151	C115	0.368800	0.258900	0.538990
H1571	H157	0.330900	0.243600	0.535500
H1581	H158	0.388200	0.239200	0.564100
H1591	H159	0.389500	0.254000	0.509900
C1161	C116	0.068840	0.039500	0.687800
H1601	H160	0.037400	0.039900	0.709700
H1611	H161	0.074200	0.001400	0.675900
H1621	H162	0.060800	0.064800	0.661800
C1171	C117	0.121960	0.058630	0.712600
C1181	C118	0.159770	0.030430	0.742420
C1191	C119	0.202010	0.070640	0.753520
C1201	C120	0.254090	0.063740	0.783340
H1631	H163	0.286900	0.059300	0.763200
H1641	H164	0.250000	0.030500	0.803100
H1651	H165	0.258900	0.097000	0.802900
N431	N43	0.261410	0.276540	0.683390
N441	N44	0.217670	0.293850	0.655380
H1661	H166	0.182200	0.287100	0.661400
N451	N45	0.395470	0.360810	0.526740
H1671	H167	0.417200	0.353200	0.503000
N461	N46	0.387780	0.413780	0.544420
N471	N47	0.190960	0.120550	0.732630
N481	N48	0.141890	0.112040	0.707790
H1681	H168	0.125500	0.137900	0.690900
Ag91	Ag9	0.942980	0.503060	0.526530
C1211	C121	0.096100	0.446110	0.668720
H1691	H169	0.077100	0.409800	0.666300
H1701	H170	0.090200	0.461700	0.699800
H1711	H171	0.136400	0.441000	0.663300
C1221	C122	0.072550	0.485900	0.632700
C1231	C123	0.074110	0.545170	0.630030
C1241	C124	0.045270	0.558930	0.588190
C1251	C125	0.035300	0.616780	0.567550
H1721	H172	0.029300	0.613400	0.534000
H1731	H173	0.068100	0.640500	0.573400
H1741	H174	0.002200	0.633700	0.582000
C1261	C126	0.206980	0.581500	0.641010
H1751	H175	0.202500	0.594500	0.608900
H1761	H176	0.208800	0.540500	0.641400
H1771	H177	0.241600	0.596900	0.654100
C1271	C127	0.157510	0.600890	0.669800
C1281	C128	0.099570	0.584910	0.664680
C1291	C129	0.071140	0.615100	0.699360
C1301	C130	0.008900	0.618800	0.711010
H1781	H178	0.993600	0.580900	0.714500
H1791	H179	0.989200	0.638200	0.685900
H1801	H180	0.004000	0.639500	0.740100
C1311	C131	0.789500	0.318840	0.562200
H1811	H181	0.789900	0.287400	0.540300
H1821	H182	0.751400	0.324200	0.574100
H1831	H183	0.814800	0.310800	0.588200
C1321	C132	0.808630	0.371960	0.537400
C1331	C133	0.780430	0.409770	0.507580
C1341	C134	0.820640	0.452010	0.496480
C1351	C135	0.813740	0.504090	0.466660
H1841	H184	0.809300	0.536900	0.486800
H1851	H185	0.780500	0.500000	0.446900
H1861	H186	0.847000	0.508900	0.447100
N491	N49	0.026540	0.511410	0.566610
N501	N50	0.043850	0.467670	0.594620
H1871	H187	0.037100	0.432200	0.588600
N511	N51	0.110810	0.645470	0.723260
H1881	H188	0.103200	0.667200	0.747000
N521	N52	0.163780	0.637780	0.705580
N531	N53	0.870550	0.440960	0.517370
N541	N54	0.862040	0.391890	0.542210
H1891	H189	0.887900	0.375500	0.559100
Ag101	Ag10	0.442980	0.003060	0.026530
C1361	C136	0.596100	0.946110	0.168720
H1901	H190	0.577100	0.909800	0.166300
H1911	H191	0.590200	0.961700	0.199800
H1921	H192	0.636400	0.941000	0.163300
C1371	C137	0.572550	0.985900	0.132700
C1381	C138	0.574110	0.045170	0.130030
C1391	C139	0.545270	0.058930	0.088190
C1401	C140	0.535300	0.116780	0.067550
H1931	H193	0.529300	0.113400	0.034000
H1941	H194	0.568100	0.140500	0.073400
H1951	H195	0.502200	0.133700	0.082000
C1411	C141	0.706980	0.081500	0.141010
H1961	H196	0.702500	0.094500	0.108900
H1971	H197	0.708800	0.040500	0.141400
H1981	H198	0.741600	0.096900	0.154100
C1421	C142	0.657510	0.100890	0.169800
C1431	C143	0.599570	0.084910	0.164680
C1441	C144	0.571140	0.115100	0.199360
C1451	C145	0.508900	0.118800	0.211010
H1991	H199	0.493600	0.080900	0.214500
H2001	H200	0.489200	0.138200	0.185900
H2011	H201	0.504000	0.139500	0.240100
C1461	C146	0.289500	0.818840	0.062200
H2021	H202	0.289900	0.787400	0.040300
H2031	H203	0.251400	0.824200	0.074100
H2041	H204	0.314800	0.810800	0.088200
C1471	C147	0.308630	0.871960	0.037400
C1481	C148	0.280430	0.909770	0.007580
C1491	C149	0.320640	0.952010	0.996480
C1501	C150	0.313740	0.004090	0.966660
H2051	H205	0.309300	0.036900	0.986800
H2061	H206	0.280500	0.000000	0.946900
H2071	H207	0.347000	0.008900	0.947100
N551	N55	0.526540	0.011410	0.066610
N561	N56	0.543850	0.967670	0.094620
H2081	H208	0.537100	0.932200	0.088600
N571	N57	0.610810	0.145470	0.223260
H2091	H209	0.603200	0.167200	0.247000
N581	N58	0.663780	0.137780	0.205580
N591	N59	0.370550	0.940960	0.017370
N601	N60	0.362040	0.891890	0.042210
H2101	H210	0.387900	0.875500	0.059100
Ag111	Ag11	0.557020	0.496940	0.026530
C1511	C151	0.403900	0.553890	0.168720
H2111	H211	0.422900	0.590200	0.166300
H2121	H212	0.409800	0.538300	0.199800
H2131	H213	0.363600	0.559000	0.163300
C1521	C152	0.427450	0.514100	0.132700
C1531	C153	0.425890	0.454830	0.130030
C1541	C154	0.454730	0.441070	0.088190
C1551	C155	0.464700	0.383220	0.067550
H2141	H214	0.470700	0.386600	0.034000
H2151	H215	0.431900	0.359500	0.073400
H2161	H216	0.497800	0.366300	0.082000
C1561	C156	0.293020	0.418500	0.141010
H2171	H217	0.297500	0.405500	0.108900
H2181	H218	0.291200	0.459500	0.141400
H2191	H219	0.258400	0.403100	0.154100
C1571	C157	0.342490	0.399110	0.169800
C1581	C158	0.400430	0.415090	0.164680
C1591	C159	0.428860	0.384900	0.199360
C1601	C160	0.491100	0.381200	0.211010
H2201	H220	0.506400	0.419100	0.214500
H2211	H221	0.510800	0.361800	0.185900
H2221	H222	0.496000	0.360500	0.240100
C1611	C161	0.710500	0.681160	0.062200
H2231	H223	0.710100	0.712600	0.040300
H2241	H224	0.748600	0.675800	0.074100
H2251	H225	0.685200	0.689200	0.088200
C1621	C162	0.691370	0.628040	0.037400
C1631	C163	0.719570	0.590230	0.007580
C1641	C164	0.679360	0.547990	0.996480
C1651	C165	0.686260	0.495910	0.966660
H2261	H226	0.690700	0.463100	0.986800
H2271	H227	0.719500	0.500000	0.946900
H2281	H228	0.653000	0.491100	0.947100
N611	N61	0.473460	0.488590	0.066610
N621	N62	0.456150	0.532330	0.094620
H2291	H229	0.462900	0.567800	0.088600
N631	N63	0.389190	0.354530	0.223260
H2301	H230	0.396800	0.332800	0.247000
N641	N64	0.336220	0.362220	0.205580
N651	N65	0.629450	0.559040	0.017370
N661	N66	0.637960	0.608110	0.042210
H2311	H231	0.612100	0.624500	0.059100
Ag121	Ag12	0.057020	0.996940	0.526530
C1661	C166	0.903900	0.053890	0.668720
H2321	H232	0.922900	0.090200	0.666300
H2331	H233	0.909800	0.038300	0.699800
H2341	H234	0.863600	0.059000	0.663300
C1671	C167	0.927450	0.014100	0.632700
C1681	C168	0.925890	0.954830	0.630030
C1691	C169	0.954730	0.941070	0.588190
C1701	C170	0.964700	0.883220	0.567550
H2351	H235	0.970700	0.886600	0.534000
H2361	H236	0.931900	0.859500	0.573400
H2371	H237	0.997800	0.866300	0.582000
C1711	C171	0.793020	0.918500	0.641010
H2381	H238	0.797500	0.905500	0.608900
H2391	H239	0.791200	0.959500	0.641400
H2401	H240	0.758400	0.903100	0.654100
C1721	C172	0.842490	0.899110	0.669800
C1731	C173	0.900430	0.915090	0.664680
C1741	C174	0.928860	0.884900	0.699360
C1751	C175	0.991100	0.881200	0.711010
H2411	H241	0.006400	0.919100	0.714500
H2421	H242	0.010800	0.861800	0.685900
H2431	H243	0.996000	0.860500	0.740100
C1761	C176	0.210500	0.181160	0.562200
H2441	H244	0.210100	0.212600	0.540300
H2451	H245	0.248600	0.175800	0.574100
H2461	H246	0.185200	0.189200	0.588200
C1771	C177	0.191370	0.128040	0.537400
C1781	C178	0.219570	0.090230	0.507580
C1791	C179	0.179360	0.047990	0.496480
C1801	C180	0.186260	0.995910	0.466660
H2471	H247	0.190700	0.963100	0.486800
H2481	H248	0.219500	0.000000	0.446900
H2491	H249	0.153000	0.991100	0.447100
N671	N67	0.973460	0.988590	0.566610
N681	N68	0.956150	0.032330	0.594620
H2501	H250	0.962900	0.067800	0.588600
N691	N69	0.889190	0.854530	0.723260
H2511	H251	0.896800	0.832800	0.747000
N701	N70	0.836220	0.862220	0.705580
N711	N71	0.129450	0.059040	0.517370
N721	N72	0.137960	0.108110	0.542210
H2521	H252	0.112100	0.124500	0.559100
Ag131	Ag13	0.753060	0.307020	0.276530
C1811	C181	0.696110	0.153900	0.418720
H2531	H253	0.659800	0.172900	0.416300
H2541	H254	0.711700	0.159800	0.449800
H2551	H255	0.691000	0.113600	0.413300
C1821	C182	0.735900	0.177450	0.382700
C1831	C183	0.795170	0.175890	0.380030
C1841	C184	0.808930	0.204730	0.338190
C1851	C185	0.866780	0.214700	0.317550
H2561	H256	0.863400	0.220700	0.284000
H2571	H257	0.890500	0.181900	0.323400
H2581	H258	0.883700	0.247800	0.332000
C1861	C186	0.831500	0.043020	0.391010
H2591	H259	0.844500	0.047500	0.358900
H2601	H260	0.790500	0.041200	0.391400
H2611	H261	0.846900	0.008400	0.404100
C1871	C187	0.850890	0.092490	0.419800
C1881	C188	0.834910	0.150430	0.414680
C1891	C189	0.865100	0.178860	0.449360
C1901	C190	0.868800	0.241100	0.461010
H2621	H262	0.830900	0.256400	0.464500
H2631	H263	0.888200	0.260800	0.435900
H2641	H264	0.889500	0.246000	0.490100
C1911	C191	0.568840	0.460500	0.312200
H2651	H265	0.537400	0.460100	0.290300
H2661	H266	0.574200	0.498600	0.324100
H2671	H267	0.560800	0.435200	0.338200
C1921	C192	0.621960	0.441370	0.287400
C1931	C193	0.659770	0.469570	0.257580
C1941	C194	0.702010	0.429360	0.246480
C1951	C195	0.754090	0.436260	0.216660
H2681	H268	0.786900	0.440700	0.236800
H2691	H269	0.750000	0.469500	0.196900
H2701	H270	0.758900	0.403000	0.197100
N731	N73	0.761410	0.223460	0.316610
N741	N74	0.717670	0.206150	0.344620
H2711	H271	0.682200	0.212900	0.338600
N751	N75	0.895470	0.139190	0.473260
H2721	H272	0.917200	0.146800	0.497000
N761	N76	0.887780	0.086220	0.455580
N771	N77	0.690960	0.379450	0.267370
N781	N78	0.641890	0.387960	0.292210
H2731	H273	0.625500	0.362100	0.309100
Ag141	Ag14	0.253060	0.807020	0.776530
C1961	C196	0.196110	0.653900	0.918720
H2741	H274	0.159800	0.672900	0.916300
H2751	H275	0.211700	0.659800	0.949800
H2761	H276	0.191000	0.613600	0.913300
C1971	C197	0.235900	0.677450	0.882700
C1981	C198	0.295170	0.675890	0.880030
C1991	C199	0.308930	0.704730	0.838190
C2001	C200	0.366780	0.714700	0.817550
H2771	H277	0.363400	0.720700	0.784000
H2781	H278	0.390500	0.681900	0.823400
H2791	H279	0.383700	0.747800	0.832000
C2011	C201	0.331500	0.543020	0.891010
H2801	H280	0.344500	0.547500	0.858900
H2811	H281	0.290500	0.541200	0.891400
H2821	H282	0.346900	0.508400	0.904100
C2021	C202	0.350890	0.592490	0.919800
C2031	C203	0.334910	0.650430	0.914680
C2041	C204	0.365100	0.678860	0.949360
C2051	C205	0.368800	0.741100	0.961010
H2831	H283	0.330900	0.756400	0.964500
H2841	H284	0.388200	0.760800	0.935900
H2851	H285	0.389500	0.746000	0.990100
C2061	C206	0.068840	0.960500	0.812200
H2861	H286	0.037400	0.960100	0.790300
H2871	H287	0.074200	0.998600	0.824100
H2881	H288	0.060800	0.935200	0.838200
C2071	C207	0.121960	0.941370	0.787400
C2081	C208	0.159770	0.969570	0.757580
C2091	C209	0.202010	0.929360	0.746480
C2101	C210	0.254090	0.936260	0.716660
H2891	H289	0.286900	0.940700	0.736800
H2901	H290	0.250000	0.969500	0.696900
H2911	H291	0.258900	0.903000	0.697100
N791	N79	0.261410	0.723460	0.816610
N801	N80	0.217670	0.706150	0.844620
H2921	H292	0.182200	0.712900	0.838600
N811	N81	0.395470	0.639190	0.973260
H2931	H293	0.417200	0.646800	0.997000
N821	N82	0.387780	0.586220	0.955580
N831	N83	0.190960	0.879450	0.767370
N841	N84	0.141890	0.887960	0.792210
H2941	H294	0.125500	0.862100	0.809100
Ag151	Ag15	0.746940	0.692980	0.776530
C2111	C211	0.803890	0.846100	0.918720
H2951	H295	0.840200	0.827100	0.916300
H2961	H296	0.788300	0.840200	0.949800
H2971	H297	0.809000	0.886400	0.913300
C2121	C212	0.764100	0.822550	0.882700
C2131	C213	0.704830	0.824110	0.880030
C2141	C214	0.691070	0.795270	0.838190
C2151	C215	0.633220	0.785300	0.817550
H2981	H298	0.636600	0.779300	0.784000
H2991	H299	0.609500	0.818100	0.823400
H3001	H300	0.616300	0.752200	0.832000
C2161	C216	0.668500	0.956980	0.891010
H3011	H301	0.655500	0.952500	0.858900
H3021	H302	0.709500	0.958800	0.891400
H3031	H303	0.653100	0.991600	0.904100
C2171	C217	0.649110	0.907510	0.919800
C2181	C218	0.665090	0.849570	0.914680
C2191	C219	0.634900	0.821140	0.949360
C2201	C220	0.631200	0.758900	0.961010
H3041	H304	0.669100	0.743600	0.964500
H3051	H305	0.611800	0.739200	0.935900
H3061	H306	0.610500	0.754000	0.990100
C2211	C221	0.931160	0.539500	0.812200
H3071	H307	0.962600	0.539900	0.790300
H3081	H308	0.925800	0.501400	0.824100
H3091	H309	0.939200	0.564800	0.838200
C2221	C222	0.878040	0.558630	0.787400
C2231	C223	0.840230	0.530430	0.757580
C2241	C224	0.797990	0.570640	0.746480
C2251	C225	0.745910	0.563740	0.716660
H3101	H310	0.713100	0.559300	0.736800
H3111	H311	0.750000	0.530500	0.696900
H3121	H312	0.741100	0.597000	0.697100
N851	N85	0.738590	0.776540	0.816610
N861	N86	0.782330	0.793850	0.844620
H3131	H313	0.817800	0.787100	0.838600
N871	N87	0.604530	0.860810	0.973260
H3141	H314	0.582800	0.853200	0.997000
N881	N88	0.612220	0.913780	0.955580
N891	N89	0.809040	0.620550	0.767370
N901	N90	0.858110	0.612040	0.792210
H3151	H315	0.874500	0.637900	0.809100
Ag161	Ag16	0.246940	0.192980	0.276530
C2261	C226	0.303890	0.346100	0.418720
H3161	H316	0.340200	0.327100	0.416300
H3171	H317	0.288300	0.340200	0.449800
H3181	H318	0.309000	0.386400	0.413300
C2271	C227	0.264100	0.322550	0.382700
C2281	C228	0.204830	0.324110	0.380030
C2291	C229	0.191070	0.295270	0.338190
C2301	C230	0.133220	0.285300	0.317550
H3191	H319	0.136600	0.279300	0.284000
H3201	H320	0.109500	0.318100	0.323400
H3211	H321	0.116300	0.252200	0.332000
C2311	C231	0.168500	0.456980	0.391010
H3221	H322	0.155500	0.452500	0.358900
H3231	H323	0.209500	0.458800	0.391400
H3241	H324	0.153100	0.491600	0.404100
C2321	C232	0.149110	0.407510	0.419800
C2331	C233	0.165090	0.349570	0.414680
C2341	C234	0.134900	0.321140	0.449360
C2351	C235	0.131200	0.258900	0.461010
H3251	H325	0.169100	0.243600	0.464500
H3261	H326	0.111800	0.239200	0.435900
H3271	H327	0.110500	0.254000	0.490100
C2361	C236	0.431160	0.039500	0.312200
H3281	H328	0.462600	0.039900	0.290300
H3291	H329	0.425800	0.001400	0.324100
H3301	H330	0.439200	0.064800	0.338200
C2371	C237	0.378040	0.058630	0.287400
C2381	C238	0.340230	0.030430	0.257580
C2391	C239	0.297990	0.070640	0.246480
C2401	C240	0.245910	0.063740	0.216660
H3311	H331	0.213100	0.059300	0.236800
H3321	H332	0.250000	0.030500	0.196900
H3331	H333	0.241100	0.097000	0.197100
N911	N91	0.238590	0.276540	0.316610
N921	N92	0.282330	0.293850	0.344620
H3341	H334	0.317800	0.287100	0.338600
N931	N93	0.104530	0.360810	0.473260
H3351	H335	0.082800	0.353200	0.497000
N941	N94	0.112220	0.413780	0.455580
N951	N95	0.309040	0.120550	0.267370
N961	N96	0.358110	0.112040	0.292210
H3361	H336	0.374500	0.137900	0.309100
Ag171	Ag17	0.442980	0.496940	0.526530
C2411	C241	0.596100	0.553890	0.668720
H3371	H337	0.577100	0.590200	0.666300
H3381	H338	0.590200	0.538300	0.699800
H3391	H339	0.636400	0.559000	0.663300
C2421	C242	0.572550	0.514100	0.632700
C2431	C243	0.574110	0.454830	0.630030
C2441	C244	0.545270	0.441070	0.588190
C2451	C245	0.535300	0.383220	0.567550
H3401	H340	0.529300	0.386600	0.534000
H3411	H341	0.568100	0.359500	0.573400
H3421	H342	0.502200	0.366300	0.582000
C2461	C246	0.706980	0.418500	0.641010
H3431	H343	0.702500	0.405500	0.608900
H3441	H344	0.708800	0.459500	0.641400
H3451	H345	0.741600	0.403100	0.654100
C2471	C247	0.657510	0.399110	0.669800
C2481	C248	0.599570	0.415090	0.664680
C2491	C249	0.571140	0.384900	0.699360
C2501	C250	0.508900	0.381200	0.711010
H3461	H346	0.493600	0.419100	0.714500
H3471	H347	0.489200	0.361800	0.685900
H3481	H348	0.504000	0.360500	0.740100
C2511	C251	0.289500	0.681160	0.562200
H3491	H349	0.289900	0.712600	0.540300
H3501	H350	0.251400	0.675800	0.574100
H3511	H351	0.314800	0.689200	0.588200
C2521	C252	0.308630	0.628040	0.537400
C2531	C253	0.280430	0.590230	0.507580
C2541	C254	0.320640	0.547990	0.496480
C2551	C255	0.313740	0.495910	0.466660
H3521	H352	0.309300	0.463100	0.486800
H3531	H353	0.280500	0.500000	0.446900
H3541	H354	0.347000	0.491100	0.447100
N971	N97	0.526540	0.488590	0.566610
N981	N98	0.543850	0.532330	0.594620
H3551	H355	0.537100	0.567800	0.588600
N991	N99	0.610810	0.354530	0.723260
H3561	H356	0.603200	0.332800	0.747000
N1001	N100	0.663780	0.362220	0.705580
N1011	N101	0.370550	0.559040	0.517370
N1021	N102	0.362040	0.608110	0.542210
H3571	H357	0.387900	0.624500	0.559100
Ag181	Ag18	0.942980	0.996940	0.026530
C2561	C256	0.096100	0.053890	0.168720
H3581	H358	0.077100	0.090200	0.166300
H3591	H359	0.090200	0.038300	0.199800
H3601	H360	0.136400	0.059000	0.163300
C2571	C257	0.072550	0.014100	0.132700
C2581	C258	0.074110	0.954830	0.130030
C2591	C259	0.045270	0.941070	0.088190
C2601	C260	0.035300	0.883220	0.067550
H3611	H361	0.029300	0.886600	0.034000
H3621	H362	0.068100	0.859500	0.073400
H3631	H363	0.002200	0.866300	0.082000
C2611	C261	0.206980	0.918500	0.141010
H3641	H364	0.202500	0.905500	0.108900
H3651	H365	0.208800	0.959500	0.141400
H3661	H366	0.241600	0.903100	0.154100
C2621	C262	0.157510	0.899110	0.169800
C2631	C263	0.099570	0.915090	0.164680
C2641	C264	0.071140	0.884900	0.199360
C2651	C265	0.008900	0.881200	0.211010
H3671	H367	0.993600	0.919100	0.214500
H3681	H368	0.989200	0.861800	0.185900
H3691	H369	0.004000	0.860500	0.240100
C2661	C266	0.789500	0.181160	0.062200
H3701	H370	0.789900	0.212600	0.040300
H3711	H371	0.751400	0.175800	0.074100
H3721	H372	0.814800	0.189200	0.088200
C2671	C267	0.808630	0.128040	0.037400
C2681	C268	0.780430	0.090230	0.007580
C2691	C269	0.820640	0.047990	0.996480
C2701	C270	0.813740	0.995910	0.966660
H3731	H373	0.809300	0.963100	0.986800
H3741	H374	0.780500	0.000000	0.946900
H3751	H375	0.847000	0.991100	0.947100
N1031	N103	0.026540	0.988590	0.066610
N1041	N104	0.043850	0.032330	0.094620
H3761	H376	0.037100	0.067800	0.088600
N1051	N105	0.110810	0.854530	0.223260
H3771	H377	0.103200	0.832800	0.247000
N1061	N106	0.163780	0.862220	0.205580
N1071	N107	0.870550	0.059040	0.017370
N1081	N108	0.862040	0.108110	0.042210
H3781	H378	0.887900	0.124500	0.059100
Ag191	Ag19	0.057020	0.503060	0.026530
C2711	C271	0.903900	0.446110	0.168720
H3791	H379	0.922900	0.409800	0.166300
H3801	H380	0.909800	0.461700	0.199800
H3811	H381	0.863600	0.441000	0.163300
C2721	C272	0.927450	0.485900	0.132700
C2731	C273	0.925890	0.545170	0.130030
C2741	C274	0.954730	0.558930	0.088190
C2751	C275	0.964700	0.616780	0.067550
H3821	H382	0.970700	0.613400	0.034000
H3831	H383	0.931900	0.640500	0.073400
H3841	H384	0.997800	0.633700	0.082000
C2761	C276	0.793020	0.581500	0.141010
H3851	H385	0.797500	0.594500	0.108900
H3861	H386	0.791200	0.540500	0.141400
H3871	H387	0.758400	0.596900	0.154100
C2771	C277	0.842490	0.600890	0.169800
C2781	C278	0.900430	0.584910	0.164680
C2791	C279	0.928860	0.615100	0.199360
C2801	C280	0.991100	0.618800	0.211010
H3881	H388	0.006400	0.580900	0.214500
H3891	H389	0.010800	0.638200	0.185900
H3901	H390	0.996000	0.639500	0.240100
C2811	C281	0.210500	0.318840	0.062200
H3911	H391	0.210100	0.287400	0.040300
H3921	H392	0.248600	0.324200	0.074100
H3931	H393	0.185200	0.310800	0.088200
C2821	C282	0.191370	0.371960	0.037400
C2831	C283	0.219570	0.409770	0.007580
C2841	C284	0.179360	0.452010	0.996480
C2851	C285	0.186260	0.504090	0.966660
H3941	H394	0.190700	0.536900	0.986800
H3951	H395	0.219500	0.500000	0.946900
H3961	H396	0.153000	0.508900	0.947100
N1091	N109	0.973460	0.511410	0.066610
N1101	N110	0.956150	0.467670	0.094620
H3971	H397	0.962900	0.432200	0.088600
N1111	N111	0.889190	0.645470	0.223260
H3981	H398	0.896800	0.667200	0.247000
N1121	N112	0.836220	0.637780	0.205580
N1131	N113	0.129450	0.440960	0.017370
N1141	N114	0.137960	0.391890	0.042210
H3991	H399	0.112100	0.375500	0.059100
Ag201	Ag20	0.557020	0.003060	0.526530
C2861	C286	0.403900	0.946110	0.668720
H4001	H400	0.422900	0.909800	0.666300
H4011	H401	0.409800	0.961700	0.699800
H4021	H402	0.363600	0.941000	0.663300
C2871	C287	0.427450	0.985900	0.632700
C2881	C288	0.425890	0.045170	0.630030
C2891	C289	0.454730	0.058930	0.588190
C2901	C290	0.464700	0.116780	0.567550
H4031	H403	0.470700	0.113400	0.534000
H4041	H404	0.431900	0.140500	0.573400
H4051	H405	0.497800	0.133700	0.582000
C2911	C291	0.293020	0.081500	0.641010
H4061	H406	0.297500	0.094500	0.608900
H4071	H407	0.291200	0.040500	0.641400
H4081	H408	0.258400	0.096900	0.654100
C2921	C292	0.342490	0.100890	0.669800
C2931	C293	0.400430	0.084910	0.664680
C2941	C294	0.428860	0.115100	0.699360
C2951	C295	0.491100	0.118800	0.711010
H4091	H409	0.506400	0.080900	0.714500
H4101	H410	0.510800	0.138200	0.685900
H4111	H411	0.496000	0.139500	0.740100
C2961	C296	0.710500	0.818840	0.562200
H4121	H412	0.710100	0.787400	0.540300
H4131	H413	0.748600	0.824200	0.574100
H4141	H414	0.685200	0.810800	0.588200
C2971	C297	0.691370	0.871960	0.537400
C2981	C298	0.719570	0.909770	0.507580
C2991	C299	0.679360	0.952010	0.496480
C3001	C300	0.686260	0.004090	0.466660
H4151	H415	0.690700	0.036900	0.486800
H4161	H416	0.719500	0.000000	0.446900
H4171	H417	0.653000	0.008900	0.447100
N1151	N115	0.473460	0.011410	0.566610
N1161	N116	0.456150	0.967670	0.594620
H4181	H418	0.462900	0.932200	0.588600
N1171	N117	0.389190	0.145470	0.723260
H4191	H419	0.396800	0.167200	0.747000
N1181	N118	0.336220	0.137780	0.705580
N1191	N119	0.629450	0.940960	0.517370
N1201	N120	0.637960	0.891890	0.542210
H4201	H420	0.612100	0.875500	0.559100
Ag211	Ag21	0.253060	0.692980	0.276530
C3011	C301	0.196110	0.846100	0.418720
H4211	H421	0.159800	0.827100	0.416300
H4221	H422	0.211700	0.840200	0.449800
H4231	H423	0.191000	0.886400	0.413300
C3021	C302	0.235900	0.822550	0.382700
C3031	C303	0.295170	0.824110	0.380030
C3041	C304	0.308930	0.795270	0.338190
C3051	C305	0.366780	0.785300	0.317550
H4241	H424	0.363400	0.779300	0.284000
H4251	H425	0.390500	0.818100	0.323400
H4261	H426	0.383700	0.752200	0.332000
C3061	C306	0.331500	0.956980	0.391010
H4271	H427	0.344500	0.952500	0.358900
H4281	H428	0.290500	0.958800	0.391400
H4291	H429	0.346900	0.991600	0.404100
C3071	C307	0.350890	0.907510	0.419800
C3081	C308	0.334910	0.849570	0.414680
C3091	C309	0.365100	0.821140	0.449360
C3101	C310	0.368800	0.758900	0.461010
H4301	H430	0.330900	0.743600	0.464500
H4311	H431	0.388200	0.739200	0.435900
H4321	H432	0.389500	0.754000	0.490100
C3111	C311	0.068840	0.539500	0.312200
H4331	H433	0.037400	0.539900	0.290300
H4341	H434	0.074200	0.501400	0.324100
H4351	H435	0.060800	0.564800	0.338200
C3121	C312	0.121960	0.558630	0.287400
C3131	C313	0.159770	0.530430	0.257580
C3141	C314	0.202010	0.570640	0.246480
C3151	C315	0.254090	0.563740	0.216660
H4361	H436	0.286900	0.559300	0.236800
H4371	H437	0.250000	0.530500	0.196900
H4381	H438	0.258900	0.597000	0.197100
N1211	N121	0.261410	0.776540	0.316610
N1221	N122	0.217670	0.793850	0.344620
H4391	H439	0.182200	0.787100	0.338600
N1231	N123	0.395470	0.860810	0.473260
H4401	H440	0.417200	0.853200	0.497000
N1241	N124	0.387780	0.913780	0.455580
N1251	N125	0.190960	0.620550	0.267370
N1261	N126	0.141890	0.612040	0.292210
H4411	H441	0.125500	0.637900	0.309100
Ag221	Ag22	0.753060	0.192980	0.776530
C3161	C316	0.696110	0.346100	0.918720
H4421	H442	0.659800	0.327100	0.916300
H4431	H443	0.711700	0.340200	0.949800
H4441	H444	0.691000	0.386400	0.913300
C3171	C317	0.735900	0.322550	0.882700
C3181	C318	0.795170	0.324110	0.880030
C3191	C319	0.808930	0.295270	0.838190
C3201	C320	0.866780	0.285300	0.817550
H4451	H445	0.863400	0.279300	0.784000
H4461	H446	0.890500	0.318100	0.823400
H4471	H447	0.883700	0.252200	0.832000
C3211	C321	0.831500	0.456980	0.891010
H4481	H448	0.844500	0.452500	0.858900
H4491	H449	0.790500	0.458800	0.891400
H4501	H450	0.846900	0.491600	0.904100
C3221	C322	0.850890	0.407510	0.919800
C3231	C323	0.834910	0.349570	0.914680
C3241	C324	0.865100	0.321140	0.949360
C3251	C325	0.868800	0.258900	0.961010
H4511	H451	0.830900	0.243600	0.964500
H4521	H452	0.888200	0.239200	0.935900
H4531	H453	0.889500	0.254000	0.990100
C3261	C326	0.568840	0.039500	0.812200
H4541	H454	0.537400	0.039900	0.790300
H4551	H455	0.574200	0.001400	0.824100
H4561	H456	0.560800	0.064800	0.838200
C3271	C327	0.621960	0.058630	0.787400
C3281	C328	0.659770	0.030430	0.757580
C3291	C329	0.702010	0.070640	0.746480
C3301	C330	0.754090	0.063740	0.716660
H4571	H457	0.786900	0.059300	0.736800
H4581	H458	0.750000	0.030500	0.696900
H4591	H459	0.758900	0.097000	0.697100
N1271	N127	0.761410	0.276540	0.816610
N1281	N128	0.717670	0.293850	0.844620
H4601	H460	0.682200	0.287100	0.838600
N1291	N129	0.895470	0.360810	0.973260
H4611	H461	0.917200	0.353200	0.997000
N1301	N130	0.887780	0.413780	0.955580
N1311	N131	0.690960	0.120550	0.767370
N1321	N132	0.641890	0.112040	0.792210
H4621	H462	0.625500	0.137900	0.809100
Ag231	Ag23	0.246940	0.307020	0.776530
C3311	C331	0.303890	0.153900	0.918720
H4631	H463	0.340200	0.172900	0.916300
H4641	H464	0.288300	0.159800	0.949800
H4651	H465	0.309000	0.113600	0.913300
C3321	C332	0.264100	0.177450	0.882700
C3331	C333	0.204830	0.175890	0.880030
C3341	C334	0.191070	0.204730	0.838190
C3351	C335	0.133220	0.214700	0.817550
H4661	H466	0.136600	0.220700	0.784000
H4671	H467	0.109500	0.181900	0.823400
H4681	H468	0.116300	0.247800	0.832000
C3361	C336	0.168500	0.043020	0.891010
H4691	H469	0.155500	0.047500	0.858900
H4701	H470	0.209500	0.041200	0.891400
H4711	H471	0.153100	0.008400	0.904100
C3371	C337	0.149110	0.092490	0.919800
C3381	C338	0.165090	0.150430	0.914680
C3391	C339	0.134900	0.178860	0.949360
C3401	C340	0.131200	0.241100	0.961010
H4721	H472	0.169100	0.256400	0.964500
H4731	H473	0.111800	0.260800	0.935900
H4741	H474	0.110500	0.246000	0.990100
C3411	C341	0.431160	0.460500	0.812200
H4751	H475	0.462600	0.460100	0.790300
H4761	H476	0.425800	0.498600	0.824100
H4771	H477	0.439200	0.435200	0.838200
C3421	C342	0.378040	0.441370	0.787400
C3431	C343	0.340230	0.469570	0.757580
C3441	C344	0.297990	0.429360	0.746480
C3451	C345	0.245910	0.436260	0.716660
H4781	H478	0.213100	0.440700	0.736800
H4791	H479	0.250000	0.469500	0.696900
H4801	H480	0.241100	0.403000	0.697100
N1331	N133	0.238590	0.223460	0.816610
N1341	N134	0.282330	0.206150	0.844620
H4811	H481	0.317800	0.212900	0.838600
N1351	N135	0.104530	0.139190	0.973260
H4821	H482	0.082800	0.146800	0.997000
N1361	N136	0.112220	0.086220	0.955580
N1371	N137	0.309040	0.379450	0.767370
N1381	N138	0.358110	0.387960	0.792210
H4831	H483	0.374500	0.362100	0.809100
Ag241	Ag24	0.746940	0.807020	0.276530
C3461	C346	0.803890	0.653900	0.418720
H4841	H484	0.840200	0.672900	0.416300
H4851	H485	0.788300	0.659800	0.449800
H4861	H486	0.809000	0.613600	0.413300
C3471	C347	0.764100	0.677450	0.382700
C3481	C348	0.704830	0.675890	0.380030
C3491	C349	0.691070	0.704730	0.338190
C3501	C350	0.633220	0.714700	0.317550
H4871	H487	0.636600	0.720700	0.284000
H4881	H488	0.609500	0.681900	0.323400
H4891	H489	0.616300	0.747800	0.332000
C3511	C351	0.668500	0.543020	0.391010
H4901	H490	0.655500	0.547500	0.358900
H4911	H491	0.709500	0.541200	0.391400
H4921	H492	0.653100	0.508400	0.404100
C3521	C352	0.649110	0.592490	0.419800
C3531	C353	0.665090	0.650430	0.414680
C3541	C354	0.634900	0.678860	0.449360
C3551	C355	0.631200	0.741100	0.461010
H4931	H493	0.669100	0.756400	0.464500
H4941	H494	0.611800	0.760800	0.435900
H4951	H495	0.610500	0.746000	0.490100
C3561	C356	0.931160	0.960500	0.312200
H4961	H496	0.962600	0.960100	0.290300
H4971	H497	0.925800	0.998600	0.324100
H4981	H498	0.939200	0.935200	0.338200
C3571	C357	0.878040	0.941370	0.287400
C3581	C358	0.840230	0.969570	0.257580
C3591	C359	0.797990	0.929360	0.246480
C3601	C360	0.745910	0.936260	0.216660
H4991	H499	0.713100	0.940700	0.236800
H5001	H500	0.750000	0.969500	0.196900
H5011	H501	0.741100	0.903000	0.197100
N1391	N139	0.738590	0.723460	0.316610
N1401	N140	0.782330	0.706150	0.344620
H5021	H502	0.817800	0.712900	0.338600
N1411	N141	0.604530	0.639190	0.473260
H5031	H503	0.582800	0.646800	0.497000
N1421	N142	0.612220	0.586220	0.455580
N1431	N143	0.809040	0.879450	0.267370
N1441	N144	0.858110	0.887960	0.292210
H5041	H504	0.874500	0.862100	0.309100
Ag251	Ag25	0.057020	0.496940	0.473470
C3611	C361	0.903900	0.553890	0.331280
H5051	H505	0.922900	0.590200	0.333700
H5061	H506	0.909800	0.538300	0.300200
H5071	H507	0.863600	0.559000	0.336700
C3621	C362	0.927450	0.514100	0.367300
C3631	C363	0.925890	0.454830	0.369970
C3641	C364	0.954730	0.441070	0.411810
C3651	C365	0.964700	0.383220	0.432450
H5081	H508	0.970700	0.386600	0.466000
H5091	H509	0.931900	0.359500	0.426600
H5101	H510	0.997800	0.366300	0.418000
C3661	C366	0.793020	0.418500	0.358990
H5111	H511	0.797500	0.405500	0.391100
H5121	H512	0.791200	0.459500	0.358600
H5131	H513	0.758400	0.403100	0.345900
C3671	C367	0.842490	0.399110	0.330200
C3681	C368	0.900430	0.415090	0.335320
C3691	C369	0.928860	0.384900	0.300640
C3701	C370	0.991100	0.381200	0.288990
H5141	H514	0.006400	0.419100	0.285500
H5151	H515	0.010800	0.361800	0.314100
H5161	H516	0.996000	0.360500	0.259900
C3711	C371	0.210500	0.681160	0.437800
H5171	H517	0.210100	0.712600	0.459700
H5181	H518	0.248600	0.675800	0.425900
H5191	H519	0.185200	0.689200	0.411800
C3721	C372	0.191370	0.628040	0.462600
C3731	C373	0.219570	0.590230	0.492420
C3741	C374	0.179360	0.547990	0.503520
C3751	C375	0.186260	0.495910	0.533340
H5201	H520	0.190700	0.463100	0.513200
H5211	H521	0.219500	0.500000	0.553100
H5221	H522	0.153000	0.491100	0.552900
N1451	N145	0.973460	0.488590	0.433390
N1461	N146	0.956150	0.532330	0.405380
H5231	H523	0.962900	0.567800	0.411400
N1471	N147	0.889190	0.354530	0.276740
H5241	H524	0.896800	0.332800	0.253000
N1481	N148	0.836220	0.362220	0.294420
N1491	N149	0.129450	0.559040	0.482630
N1501	N150	0.137960	0.608110	0.457790
H5251	H525	0.112100	0.624500	0.440900
Ag261	Ag26	0.557020	0.996940	0.973470
C3761	C376	0.403900	0.053890	0.831280
H5261	H526	0.422900	0.090200	0.833700
H5271	H527	0.409800	0.038300	0.800200
H5281	H528	0.363600	0.059000	0.836700
C3771	C377	0.427450	0.014100	0.867300
C3781	C378	0.425890	0.954830	0.869970
C3791	C379	0.454730	0.941070	0.911810
C3801	C380	0.464700	0.883220	0.932450
H5291	H529	0.470700	0.886600	0.966000
H5301	H530	0.431900	0.859500	0.926600
H5311	H531	0.497800	0.866300	0.918000
C3811	C381	0.293020	0.918500	0.858990
H5321	H532	0.297500	0.905500	0.891100
H5331	H533	0.291200	0.959500	0.858600
H5341	H534	0.258400	0.903100	0.845900
C3821	C382	0.342490	0.899110	0.830200
C3831	C383	0.400430	0.915090	0.835320
C3841	C384	0.428860	0.884900	0.800640
C3851	C385	0.491100	0.881200	0.788990
H5351	H535	0.506400	0.919100	0.785500
H5361	H536	0.510800	0.861800	0.814100
H5371	H537	0.496000	0.860500	0.759900
C3861	C386	0.710500	0.181160	0.937800
H5381	H538	0.710100	0.212600	0.959700
H5391	H539	0.748600	0.175800	0.925900
H5401	H540	0.685200	0.189200	0.911800
C3871	C387	0.691370	0.128040	0.962600
C3881	C388	0.719570	0.090230	0.992420
C3891	C389	0.679360	0.047990	0.003520
C3901	C390	0.686260	0.995910	0.033340
H5411	H541	0.690700	0.963100	0.013200
H5421	H542	0.719500	0.000000	0.053100
H5431	H543	0.653000	0.991100	0.052900
N1511	N151	0.473460	0.988590	0.933390
N1521	N152	0.456150	0.032330	0.905380
H5441	H544	0.462900	0.067800	0.911400
N1531	N153	0.389190	0.854530	0.776740
H5451	H545	0.396800	0.832800	0.753000
N1541	N154	0.336220	0.862220	0.794420
N1551	N155	0.629450	0.059040	0.982630
N1561	N156	0.637960	0.108110	0.957790
H5461	H546	0.612100	0.124500	0.940900
Ag271	Ag27	0.442980	0.503060	0.973470
C3911	C391	0.596100	0.446110	0.831280
H5471	H547	0.577100	0.409800	0.833700
H5481	H548	0.590200	0.461700	0.800200
H5491	H549	0.636400	0.441000	0.836700
C3921	C392	0.572550	0.485900	0.867300
C3931	C393	0.574110	0.545170	0.869970
C3941	C394	0.545270	0.558930	0.911810
C3951	C395	0.535300	0.616780	0.932450
H5501	H550	0.529300	0.613400	0.966000
H5511	H551	0.568100	0.640500	0.926600
H5521	H552	0.502200	0.633700	0.918000
C3961	C396	0.706980	0.581500	0.858990
H5531	H553	0.702500	0.594500	0.891100
H5541	H554	0.708800	0.540500	0.858600
H5551	H555	0.741600	0.596900	0.845900
C3971	C397	0.657510	0.600890	0.830200
C3981	C398	0.599570	0.584910	0.835320
C3991	C399	0.571140	0.615100	0.800640
C4001	C400	0.508900	0.618800	0.788990
H5561	H556	0.493600	0.580900	0.785500
H5571	H557	0.489200	0.638200	0.814100
H5581	H558	0.504000	0.639500	0.759900
C4011	C401	0.289500	0.318840	0.937800
H5591	H559	0.289900	0.287400	0.959700
H5601	H560	0.251400	0.324200	0.925900
H5611	H561	0.314800	0.310800	0.911800
C4021	C402	0.308630	0.371960	0.962600
C4031	C403	0.280430	0.409770	0.992420
C4041	C404	0.320640	0.452010	0.003520
C4051	C405	0.313740	0.504090	0.033340
H5621	H562	0.309300	0.536900	0.013200
H5631	H563	0.280500	0.500000	0.053100
H5641	H564	0.347000	0.508900	0.052900
N1571	N157	0.526540	0.511410	0.933390
N1581	N158	0.543850	0.467670	0.905380
H5651	H565	0.537100	0.432200	0.911400
N1591	N159	0.610810	0.645470	0.776740
H5661	H566	0.603200	0.667200	0.753000
N1601	N160	0.663780	0.637780	0.794420
N1611	N161	0.370550	0.440960	0.982630
N1621	N162	0.362040	0.391890	0.957790
H5671	H567	0.387900	0.375500	0.940900
Ag281	Ag28	0.942980	0.003060	0.473470
C4061	C406	0.096100	0.946110	0.331280
H5681	H568	0.077100	0.909800	0.333700
H5691	H569	0.090200	0.961700	0.300200
H5701	H570	0.136400	0.941000	0.336700
C4071	C407	0.072550	0.985900	0.367300
C4081	C408	0.074110	0.045170	0.369970
C4091	C409	0.045270	0.058930	0.411810
C4101	C410	0.035300	0.116780	0.432450
H5711	H571	0.029300	0.113400	0.466000
H5721	H572	0.068100	0.140500	0.426600
H5731	H573	0.002200	0.133700	0.418000
C4111	C411	0.206980	0.081500	0.358990
H5741	H574	0.202500	0.094500	0.391100
H5751	H575	0.208800	0.040500	0.358600
H5761	H576	0.241600	0.096900	0.345900
C4121	C412	0.157510	0.100890	0.330200
C4131	C413	0.099570	0.084910	0.335320
C4141	C414	0.071140	0.115100	0.300640
C4151	C415	0.008900	0.118800	0.288990
H5771	H577	0.993600	0.080900	0.285500
H5781	H578	0.989200	0.138200	0.314100
H5791	H579	0.004000	0.139500	0.259900
C4161	C416	0.789500	0.818840	0.437800
H5801	H580	0.789900	0.787400	0.459700
H5811	H581	0.751400	0.824200	0.425900
H5821	H582	0.814800	0.810800	0.411800
C4171	C417	0.808630	0.871960	0.462600
C4181	C418	0.780430	0.909770	0.492420
C4191	C419	0.820640	0.952010	0.503520
C4201	C420	0.813740	0.004090	0.533340
H5831	H583	0.809300	0.036900	0.513200
H5841	H584	0.780500	0.000000	0.553100
H5851	H585	0.847000	0.008900	0.552900
N1631	N163	0.026540	0.011410	0.433390
N1641	N164	0.043850	0.967670	0.405380
H5861	H586	0.037100	0.932200	0.411400
N1651	N165	0.110810	0.145470	0.276740
H5871	H587	0.103200	0.167200	0.253000
N1661	N166	0.163780	0.137780	0.294420
N1671	N167	0.870550	0.940960	0.482630
N1681	N168	0.862040	0.891890	0.457790
H5881	H588	0.887900	0.875500	0.440900
Ag291	Ag29	0.246940	0.692980	0.723470
C4211	C421	0.303890	0.846100	0.581280
H5891	H589	0.340200	0.827100	0.583700
H5901	H590	0.288300	0.840200	0.550200
H5911	H591	0.309000	0.886400	0.586700
C4221	C422	0.264100	0.822550	0.617300
C4231	C423	0.204830	0.824110	0.619970
C4241	C424	0.191070	0.795270	0.661810
C4251	C425	0.133220	0.785300	0.682450
H5921	H592	0.136600	0.779300	0.716000
H5931	H593	0.109500	0.818100	0.676600
H5941	H594	0.116300	0.752200	0.668000
C4261	C426	0.168500	0.956980	0.608990
H5951	H595	0.155500	0.952500	0.641100
H5961	H596	0.209500	0.958800	0.608600
H5971	H597	0.153100	0.991600	0.595900
C4271	C427	0.149110	0.907510	0.580200
C4281	C428	0.165090	0.849570	0.585320
C4291	C429	0.134900	0.821140	0.550640
C4301	C430	0.131200	0.758900	0.538990
H5981	H598	0.169100	0.743600	0.535500
H5991	H599	0.111800	0.739200	0.564100
H6001	H600	0.110500	0.754000	0.509900
C4311	C431	0.431160	0.539500	0.687800
H6011	H601	0.462600	0.539900	0.709700
H6021	H602	0.425800	0.501400	0.675900
H6031	H603	0.439200	0.564800	0.661800
C4321	C432	0.378040	0.558630	0.712600
C4331	C433	0.340230	0.530430	0.742420
C4341	C434	0.297990	0.570640	0.753520
C4351	C435	0.245910	0.563740	0.783340
H6041	H604	0.213100	0.559300	0.763200
H6051	H605	0.250000	0.530500	0.803100
H6061	H606	0.241100	0.597000	0.802900
N1691	N169	0.238590	0.776540	0.683390
N1701	N170	0.282330	0.793850	0.655380
H6071	H607	0.317800	0.787100	0.661400
N1711	N171	0.104530	0.860810	0.526740
H6081	H608	0.082800	0.853200	0.503000
N1721	N172	0.112220	0.913780	0.544420
N1731	N173	0.309040	0.620550	0.732630
N1741	N174	0.358110	0.612040	0.707790
H6091	H609	0.374500	0.637900	0.690900
Ag301	Ag30	0.746940	0.192980	0.223470
C4361	C436	0.803890	0.346100	0.081280
H6101	H610	0.840200	0.327100	0.083700
H6111	H611	0.788300	0.340200	0.050200
H6121	H612	0.809000	0.386400	0.086700
C4371	C437	0.764100	0.322550	0.117300
C4381	C438	0.704830	0.324110	0.119970
C4391	C439	0.691070	0.295270	0.161810
C4401	C440	0.633220	0.285300	0.182450
H6131	H613	0.636600	0.279300	0.216000
H6141	H614	0.609500	0.318100	0.176600
H6151	H615	0.616300	0.252200	0.168000
C4411	C441	0.668500	0.456980	0.108990
H6161	H616	0.655500	0.452500	0.141100
H6171	H617	0.709500	0.458800	0.108600
H6181	H618	0.653100	0.491600	0.095900
C4421	C442	0.649110	0.407510	0.080200
C4431	C443	0.665090	0.349570	0.085320
C4441	C444	0.634900	0.321140	0.050640
C4451	C445	0.631200	0.258900	0.038990
H6191	H619	0.669100	0.243600	0.035500
H6201	H620	0.611800	0.239200	0.064100
H6211	H621	0.610500	0.254000	0.009900
C4461	C446	0.931160	0.039500	0.187800
H6221	H622	0.962600	0.039900	0.209700
H6231	H623	0.925800	0.001400	0.175900
H6241	H624	0.939200	0.064800	0.161800
C4471	C447	0.878040	0.058630	0.212600
C4481	C448	0.840230	0.030430	0.242420
C4491	C449	0.797990	0.070640	0.253520
C4501	C450	0.745910	0.063740	0.283340
H6251	H625	0.713100	0.059300	0.263200
H6261	H626	0.750000	0.030500	0.303100
H6271	H627	0.741100	0.097000	0.302900
N1751	N175	0.738590	0.276540	0.183390
N1761	N176	0.782330	0.293850	0.155380
H6281	H628	0.817800	0.287100	0.161400
N1771	N177	0.604530	0.360810	0.026740
H6291	H629	0.582800	0.353200	0.003000
N1781	N178	0.612220	0.413780	0.044420
N1791	N179	0.809040	0.120550	0.232630
N1801	N180	0.858110	0.112040	0.207790
H6301	H630	0.874500	0.137900	0.190900
Ag311	Ag31	0.253060	0.307020	0.223470
C4511	C451	0.196110	0.153900	0.081280
H6311	H631	0.159800	0.172900	0.083700
H6321	H632	0.211700	0.159800	0.050200
H6331	H633	0.191000	0.113600	0.086700
C4521	C452	0.235900	0.177450	0.117300
C4531	C453	0.295170	0.175890	0.119970
C4541	C454	0.308930	0.204730	0.161810
C4551	C455	0.366780	0.214700	0.182450
H6341	H634	0.363400	0.220700	0.216000
H6351	H635	0.390500	0.181900	0.176600
H6361	H636	0.383700	0.247800	0.168000
C4561	C456	0.331500	0.043020	0.108990
H6371	H637	0.344500	0.047500	0.141100
H6381	H638	0.290500	0.041200	0.108600
H6391	H639	0.346900	0.008400	0.095900
C4571	C457	0.350890	0.092490	0.080200
C4581	C458	0.334910	0.150430	0.085320
C4591	C459	0.365100	0.178860	0.050640
C4601	C460	0.368800	0.241100	0.038990
H6401	H640	0.330900	0.256400	0.035500
H6411	H641	0.388200	0.260800	0.064100
H6421	H642	0.389500	0.246000	0.009900
C4611	C461	0.068840	0.460500	0.187800
H6431	H643	0.037400	0.460100	0.209700
H6441	H644	0.074200	0.498600	0.175900
H6451	H645	0.060800	0.435200	0.161800
C4621	C462	0.121960	0.441370	0.212600
C4631	C463	0.159770	0.469570	0.242420
C4641	C464	0.202010	0.429360	0.253520
C4651	C465	0.254090	0.436260	0.283340
H6461	H646	0.286900	0.440700	0.263200
H6471	H647	0.250000	0.469500	0.303100
H6481	H648	0.258900	0.403000	0.302900
N1811	N181	0.261410	0.223460	0.183390
N1821	N182	0.217670	0.206150	0.155380
H6491	H649	0.182200	0.212900	0.161400
N1831	N183	0.395470	0.139190	0.026740
H6501	H650	0.417200	0.146800	0.003000
N1841	N184	0.387780	0.086220	0.044420
N1851	N185	0.190960	0.379450	0.232630
N1861	N186	0.141890	0.387960	0.207790
H6511	H651	0.125500	0.362100	0.190900
Ag321	Ag32	0.753060	0.807020	0.723470
C4661	C466	0.696110	0.653900	0.581280
H6521	H652	0.659800	0.672900	0.583700
H6531	H653	0.711700	0.659800	0.550200
H6541	H654	0.691000	0.613600	0.586700
C4671	C467	0.735900	0.677450	0.617300
C4681	C468	0.795170	0.675890	0.619970
C4691	C469	0.808930	0.704730	0.661810
C4701	C470	0.866780	0.714700	0.682450
H6551	H655	0.863400	0.720700	0.716000
H6561	H656	0.890500	0.681900	0.676600
H6571	H657	0.883700	0.747800	0.668000
C4711	C471	0.831500	0.543020	0.608990
H6581	H658	0.844500	0.547500	0.641100
H6591	H659	0.790500	0.541200	0.608600
H6601	H660	0.846900	0.508400	0.595900
C4721	C472	0.850890	0.592490	0.580200
C4731	C473	0.834910	0.650430	0.585320
C4741	C474	0.865100	0.678860	0.550640
C4751	C475	0.868800	0.741100	0.538990
H6611	H661	0.830900	0.756400	0.535500
H6621	H662	0.888200	0.760800	0.564100
H6631	H663	0.889500	0.746000	0.509900
C4761	C476	0.568840	0.960500	0.687800
H6641	H664	0.537400	0.960100	0.709700
H6651	H665	0.574200	0.998600	0.675900
H6661	H666	0.560800	0.935200	0.661800
C4771	C477	0.621960	0.941370	0.712600
C4781	C478	0.659770	0.969570	0.742420
C4791	C479	0.702010	0.929360	0.753520
C4801	C480	0.754090	0.936260	0.783340
H6671	H667	0.786900	0.940700	0.763200
H6681	H668	0.750000	0.969500	0.803100
H6691	H669	0.758900	0.903000	0.802900
N1871	N187	0.761410	0.723460	0.683390
N1881	N188	0.717670	0.706150	0.655380
H6701	H670	0.682200	0.712900	0.661400
N1891	N189	0.895470	0.639190	0.526740
H6711	H671	0.917200	0.646800	0.503000
N1901	N190	0.887780	0.586220	0.544420
N1911	N191	0.690960	0.879450	0.732630
N1921	N192	0.641890	0.887960	0.707790
H6721	H672	0.625500	0.862100	0.690900
