data_TULLIW_clean_PM
_symmetry_space_group_name_H-M	'P1'
_cell_length_a	10.312300
_cell_length_b	10.312300
_cell_length_c	15.062000
_cell_angle_alpha	70.327900
_cell_angle_beta	70.327900
_cell_angle_gamma	77.861100
_symmetry_Int_Tables_number 1

loop_
_symmetry_equiv_pos_as_xyz
'x,y,z'

loop_
_atom_site_label
_atom_site_type_symbol
_atom_site_fract_x
_atom_site_fract_y
_atom_site_fract_z
Cd11	Cd1	0.327150	0.857490	0.484320
Cd21	Cd2	0.170090	0.789330	0.153220
Cd31	Cd3	0.911620	0.280280	0.229590
Cd41	Cd4	0.841950	0.540190	0.617160
Cd51	Cd5	0.857490	0.327150	0.984320
Cd61	Cd6	0.789330	0.170090	0.653220
Cd71	Cd7	0.280280	0.911620	0.729590
Cd81	Cd8	0.540190	0.841950	0.117160
H11	H1	0.632800	0.903600	0.316200
H21	H2	0.666200	0.827600	0.416600
H31	H3	0.778000	0.006600	0.401900
H41	H4	0.840500	0.965900	0.303400
H51	H5	0.606100	0.213300	0.407100
H61	H6	0.570400	0.303600	0.309500
H71	H7	0.395100	0.165700	0.410900
H81	H8	0.462500	0.127700	0.311400
H91	H9	0.914700	0.635500	0.363900
H101	H10	0.171400	0.012200	0.288400
H111	H11	0.938000	0.826000	0.643800
H121	H12	0.709800	0.145600	0.233800
H131	H13	0.524300	0.985900	0.481400
H141	H14	0.903600	0.632800	0.816200
H151	H15	0.827600	0.666200	0.916600
H161	H16	0.006600	0.778000	0.901900
H171	H17	0.965900	0.840500	0.803400
H181	H18	0.213300	0.606100	0.907100
H191	H19	0.303600	0.570400	0.809500
H201	H20	0.165700	0.395100	0.910900
H211	H21	0.127700	0.462500	0.811400
H221	H22	0.635500	0.914700	0.863900
H231	H23	0.012200	0.171400	0.788400
H241	H24	0.826000	0.938000	0.143800
H251	H25	0.145600	0.709800	0.733800
H261	H26	0.985900	0.524300	0.981400
C11	C1	0.642400	0.917600	0.374100
C21	C2	0.757900	0.006900	0.343300
C31	C3	0.594200	0.209600	0.346900
C41	C4	0.479000	0.125200	0.371700
C51	C5	0.142170	0.614570	0.565500
C61	C6	0.114660	0.643260	0.469900
C71	C7	0.181730	0.699530	0.371000
C81	C8	0.321100	0.746500	0.315700
C91	C9	0.989090	0.645690	0.381700
C101	C10	0.095750	0.070950	0.577100
C111	C11	0.082100	0.097300	0.476000
C121	C12	0.001360	0.193760	0.419640
C131	C13	0.892360	0.312360	0.433200
C141	C14	0.132500	0.054900	0.338300
C151	C15	0.546810	0.077210	0.624750
C161	C16	0.647560	0.950960	0.632700
C171	C17	0.653280	0.811880	0.637770
C181	C18	0.554820	0.729620	0.630700
C191	C19	0.846700	0.843700	0.641700
C201	C20	0.917600	0.642400	0.874100
C211	C21	0.006900	0.757900	0.843300
C221	C22	0.209600	0.594200	0.846900
C231	C23	0.125200	0.479000	0.871700
C241	C24	0.614570	0.142170	0.065500
C251	C25	0.643260	0.114660	0.969900
C261	C26	0.699530	0.181730	0.871000
C271	C27	0.746500	0.321100	0.815700
C281	C28	0.645690	0.989090	0.881700
C291	C29	0.070950	0.095750	0.077100
C301	C30	0.097300	0.082100	0.976000
C311	C31	0.193760	0.001360	0.919640
C321	C32	0.312360	0.892360	0.933200
C331	C33	0.054900	0.132500	0.838300
C341	C34	0.077210	0.546810	0.124750
C351	C35	0.950960	0.647560	0.132700
C361	C36	0.811880	0.653280	0.137770
C371	C37	0.729620	0.554820	0.130700
C381	C38	0.843700	0.846700	0.141700
N11	N1	0.727290	0.149890	0.288000
N21	N2	0.509450	0.980650	0.426510
N31	N3	0.103370	0.699170	0.316150
N41	N4	0.991770	0.609370	0.472080
N51	N5	0.167440	0.013840	0.419520
N61	N6	0.035460	0.164200	0.332680
N71	N7	0.775270	0.967030	0.635840
N81	N8	0.777560	0.747340	0.644160
N91	N9	0.149890	0.727290	0.788000
N101	N10	0.980650	0.509450	0.926510
N111	N11	0.699170	0.103370	0.816150
N121	N12	0.609370	0.991770	0.972080
N131	N13	0.013840	0.167440	0.919520
N141	N14	0.164200	0.035460	0.832680
N151	N15	0.967030	0.775270	0.135840
N161	N16	0.747340	0.777560	0.144160
O11	O1	0.243680	0.659120	0.570540
O21	O2	0.060130	0.545070	0.639020
O31	O3	0.403850	0.760330	0.354250
O41	O4	0.348160	0.778380	0.223120
O51	O5	0.191710	0.975370	0.597880
O61	O6	0.022380	0.134360	0.633080
O71	O7	0.847930	0.341710	0.515190
O81	O8	0.848440	0.381560	0.360450
O91	O9	0.581560	0.187540	0.618770
O101	O10	0.428510	0.068470	0.620360
O111	O11	0.431570	0.780430	0.631710
O121	O12	0.604060	0.611080	0.620560
O131	O13	0.659120	0.243680	0.070540
O141	O14	0.545070	0.060130	0.139020
O151	O15	0.760330	0.403850	0.854250
O161	O16	0.778380	0.348160	0.723120
O171	O17	0.975370	0.191710	0.097880
O181	O18	0.134360	0.022380	0.133080
O191	O19	0.341710	0.847930	0.015190
O201	O20	0.381560	0.848440	0.860450
O211	O21	0.187540	0.581560	0.118770
O221	O22	0.068470	0.428510	0.120360
O231	O23	0.780430	0.431570	0.131710
O241	O24	0.611080	0.604060	0.120560
