data_TUMDAI_clean_PM
_symmetry_space_group_name_H-M	'P1'
_cell_length_a	9.818700
_cell_length_b	17.639800
_cell_length_c	12.071200
_cell_angle_alpha	90.000000
_cell_angle_beta	97.582000
_cell_angle_gamma	90.000000
_symmetry_Int_Tables_number 1

loop_
_symmetry_equiv_pos_as_xyz
'x,y,z'

loop_
_atom_site_label
_atom_site_type_symbol
_atom_site_fract_x
_atom_site_fract_y
_atom_site_fract_z
C11	C1	0.324200	0.083300	0.185800
C21	C2	0.835300	0.129400	0.217600
C31	C3	0.578800	0.108100	0.202800
H11	H1	0.589500	0.061300	0.165900
C41	C4	0.449300	0.130800	0.224100
C51	C5	0.693000	0.153500	0.235500
C61	C6	0.433700	0.199100	0.279600
H21	H2	0.346100	0.214300	0.297000
C71	C7	0.676800	0.223000	0.287500
H31	H3	0.753400	0.255300	0.308000
C81	C8	0.547200	0.243900	0.308600
C91	C9	0.617400	0.266900	0.556900
H41	H4	0.716400	0.261900	0.554500
H51	H5	0.571900	0.218600	0.535600
H61	H6	0.601200	0.280500	0.632800
C101	C10	0.561000	0.327000	0.477900
C111	C11	0.485400	0.382700	0.320700
C121	C12	0.441200	0.402500	0.203500
C131	C13	0.382900	0.373000	0.022100
H71	H7	0.377400	0.337600	0.962400
C141	C14	0.340000	0.446500	0.999200
H81	H8	0.300500	0.461500	0.926400
C151	C15	0.357200	0.497500	0.086900
H91	H9	0.330500	0.548900	0.073900
N11	N1	0.531100	0.315040	0.364800
N21	N2	0.534200	0.397780	0.500400
N31	N3	0.485900	0.433180	0.400800
N41	N4	0.410600	0.476120	0.189600
N51	N5	0.431900	0.349500	0.125500
O11	O1	0.333400	0.029420	0.120500
O21	O2	0.214300	0.103660	0.221000
O31	O3	0.850900	0.063120	0.181400
O41	O4	0.932300	0.172900	0.241700
Zn11	Zn1	0.451280	0.546680	0.343600
C161	C16	0.175800	0.583300	0.314200
C171	C17	0.664700	0.629400	0.282400
C181	C18	0.921200	0.608100	0.297200
H101	H10	0.910500	0.561300	0.334100
C191	C19	0.050700	0.630800	0.275900
C201	C20	0.807000	0.653500	0.264500
C211	C21	0.066300	0.699100	0.220400
H111	H11	0.153900	0.714300	0.203000
C221	C22	0.823200	0.723000	0.212500
H121	H12	0.746600	0.755300	0.192000
C231	C23	0.952800	0.743900	0.191400
C241	C24	0.882600	0.766900	0.943100
H131	H13	0.783600	0.761900	0.945500
H141	H14	0.928100	0.718600	0.964400
H151	H15	0.898800	0.780500	0.867200
C251	C25	0.939000	0.827000	0.022100
C261	C26	0.014600	0.882700	0.179300
C271	C27	0.058800	0.902500	0.296500
C281	C28	0.117100	0.873000	0.477900
H161	H16	0.122600	0.837600	0.537600
C291	C29	0.160000	0.946500	0.500800
H171	H17	0.199500	0.961500	0.573600
C301	C30	0.142800	0.997500	0.413100
H181	H18	0.169500	0.048900	0.426100
N61	N6	0.968900	0.815040	0.135200
N71	N7	0.965800	0.897780	0.999600
N81	N8	0.014100	0.933180	0.099200
N91	N9	0.089400	0.976120	0.310400
N101	N10	0.068100	0.849500	0.374500
O51	O5	0.166600	0.529420	0.379500
O61	O6	0.285700	0.603660	0.279000
O71	O7	0.649100	0.563120	0.318600
O81	O8	0.567700	0.672900	0.258300
Zn21	Zn2	0.048720	0.046680	0.156400
C311	C31	0.675800	0.916700	0.814200
C321	C32	0.164700	0.870600	0.782400
C331	C33	0.421200	0.891900	0.797200
H191	H19	0.410500	0.938700	0.834100
C341	C34	0.550700	0.869200	0.775900
C351	C35	0.307000	0.846500	0.764500
C361	C36	0.566300	0.800900	0.720400
H201	H20	0.653900	0.785700	0.703000
C371	C37	0.323200	0.777000	0.712500
H211	H21	0.246600	0.744700	0.692000
C381	C38	0.452800	0.756100	0.691400
C391	C39	0.382600	0.733100	0.443100
H221	H22	0.283600	0.738100	0.445500
H231	H23	0.428100	0.781400	0.464400
H241	H24	0.398800	0.719500	0.367200
C401	C40	0.439000	0.673000	0.522100
C411	C41	0.514600	0.617300	0.679300
C421	C42	0.558800	0.597500	0.796500
C431	C43	0.617100	0.627000	0.977900
H251	H25	0.622600	0.662400	0.037600
C441	C44	0.660000	0.553500	0.000800
H261	H26	0.699500	0.538500	0.073600
C451	C45	0.642800	0.502500	0.913100
H271	H27	0.669500	0.451100	0.926100
N111	N11	0.468900	0.684960	0.635200
N121	N12	0.465800	0.602220	0.499600
N131	N13	0.514100	0.566820	0.599200
N141	N14	0.589400	0.523880	0.810400
N151	N15	0.568100	0.650500	0.874500
O91	O9	0.666600	0.970580	0.879500
O101	O10	0.785700	0.896340	0.779000
O111	O11	0.149100	0.936880	0.818600
O121	O12	0.067700	0.827100	0.758300
Zn31	Zn3	0.548720	0.453320	0.656400
C461	C46	0.824200	0.416700	0.685800
C471	C47	0.335300	0.370600	0.717600
C481	C48	0.078800	0.391900	0.702800
H281	H28	0.089500	0.438700	0.665900
C491	C49	0.949300	0.369200	0.724100
C501	C50	0.193000	0.346500	0.735500
C511	C51	0.933700	0.300900	0.779600
H291	H29	0.846100	0.285700	0.797000
C521	C52	0.176800	0.277000	0.787500
H301	H30	0.253400	0.244700	0.808000
C531	C53	0.047200	0.256100	0.808600
C541	C54	0.117400	0.233100	0.056900
H311	H31	0.216400	0.238100	0.054500
H321	H32	0.071900	0.281400	0.035600
H331	H33	0.101200	0.219500	0.132800
C551	C55	0.061000	0.173000	0.977900
C561	C56	0.985400	0.117300	0.820700
C571	C57	0.941200	0.097500	0.703500
C581	C58	0.882900	0.127000	0.522100
H341	H34	0.877400	0.162400	0.462400
C591	C59	0.840000	0.053500	0.499200
H351	H35	0.800500	0.038500	0.426400
C601	C60	0.857200	0.002500	0.586900
H361	H36	0.830500	0.951100	0.573900
N161	N16	0.031100	0.184960	0.864800
N171	N17	0.034200	0.102220	0.000400
N181	N18	0.985900	0.066820	0.900800
N191	N19	0.910600	0.023880	0.689600
N201	N20	0.931900	0.150500	0.625500
O131	O13	0.833400	0.470580	0.620500
O141	O14	0.714300	0.396340	0.721000
O151	O15	0.350900	0.436880	0.681400
O161	O16	0.432300	0.327100	0.741700
Zn41	Zn4	0.951280	0.953320	0.843600
