data_TUMGOX_clean_PM
_symmetry_space_group_name_H-M	'P1'
_cell_length_a	8.627000
_cell_length_b	9.650000
_cell_length_c	13.218000
_cell_angle_alpha	90.000000
_cell_angle_beta	90.000000
_cell_angle_gamma	95.930000
_symmetry_Int_Tables_number 1

loop_
_symmetry_equiv_pos_as_xyz
'x,y,z'

loop_
_atom_site_label
_atom_site_type_symbol
_atom_site_fract_x
_atom_site_fract_y
_atom_site_fract_z
Ce11	Ce1	0.455160	0.004330	0.765760
Ce21	Ce2	0.044840	0.495670	0.265760
Ce31	Ce3	0.544840	0.995670	0.234240
Ce41	Ce4	0.955160	0.504330	0.734240
C11	C1	0.409900	0.374300	0.974600
C21	C2	0.527500	0.376600	0.048600
C31	C3	0.381300	0.499500	0.927400
C41	C4	0.306700	0.240400	0.948600
C51	C5	0.544500	0.248700	0.109900
C61	C6	0.244200	0.504300	0.858100
C71	C7	0.090100	0.125700	0.474600
C81	C8	0.972500	0.123400	0.548600
C91	C9	0.118700	0.000500	0.427400
C101	C10	0.193300	0.259600	0.448600
C111	C11	0.955500	0.251300	0.609900
C121	C12	0.255800	0.995700	0.358100
C131	C13	0.590100	0.625700	0.025400
C141	C14	0.472500	0.623400	0.951400
C151	C15	0.618700	0.500500	0.072600
C161	C16	0.693300	0.759600	0.051400
C171	C17	0.455500	0.751300	0.890100
C181	C18	0.755800	0.495700	0.141900
C191	C19	0.909900	0.874300	0.525400
C201	C20	0.027500	0.876600	0.451400
C211	C21	0.881300	0.999500	0.572600
C221	C22	0.806700	0.740400	0.551400
C231	C23	0.044500	0.748700	0.390100
C241	C24	0.744200	0.004300	0.641900
O11	O1	0.356500	0.162200	0.884100
O21	O2	0.177800	0.220500	0.991800
O31	O3	0.550100	0.133300	0.066400
O41	O4	0.547600	0.258800	0.204100
O51	O5	0.218000	0.415900	0.789300
O61	O6	0.152300	0.596500	0.875000
O71	O7	0.143500	0.337800	0.384100
O81	O8	0.322200	0.279500	0.491800
O91	O9	0.949900	0.366700	0.566400
O101	O10	0.952400	0.241200	0.704100
O111	O11	0.282000	0.084100	0.289300
O121	O12	0.347700	0.903500	0.375000
O131	O13	0.643500	0.837800	0.115900
O141	O14	0.822200	0.779500	0.008200
O151	O15	0.449900	0.866700	0.933600
O161	O16	0.452400	0.741200	0.795900
O171	O17	0.782000	0.584100	0.210700
O181	O18	0.847700	0.403500	0.125000
O191	O19	0.856500	0.662200	0.615900
O201	O20	0.677800	0.720500	0.508200
O211	O21	0.050100	0.633300	0.433600
O221	O22	0.047600	0.758800	0.295900
O231	O23	0.718000	0.915900	0.710700
O241	O24	0.652300	0.096500	0.625000
