data_TUMQID_clean_PM
_symmetry_space_group_name_H-M	'P1'
_cell_length_a	9.866000
_cell_length_b	17.646000
_cell_length_c	11.914200
_cell_angle_alpha	90.000000
_cell_angle_beta	96.014000
_cell_angle_gamma	90.000000
_symmetry_Int_Tables_number 1

loop_
_symmetry_equiv_pos_as_xyz
'x,y,z'

loop_
_atom_site_label
_atom_site_type_symbol
_atom_site_fract_x
_atom_site_fract_y
_atom_site_fract_z
C11	C1	0.338500	0.090030	0.178900
C21	C2	0.849300	0.135000	0.215900
C31	C3	0.591800	0.115460	0.199700
H11	H1	0.603600	0.069700	0.161500
C41	C4	0.461400	0.137610	0.219500
C51	C5	0.705900	0.159520	0.235100
C61	C6	0.441900	0.205600	0.277600
H21	H2	0.354800	0.220900	0.293800
C71	C7	0.686700	0.228750	0.289000
H31	H3	0.761200	0.260700	0.310500
C81	C8	0.557000	0.249310	0.310100
C91	C9	0.576700	0.334640	0.478400
H41	H4	0.617900	0.299100	0.530000
C101	C10	0.484800	0.387530	0.324600
C111	C11	0.431900	0.408910	0.209600
C121	C12	0.427000	0.363900	0.114400
H51	H5	0.460000	0.313900	0.118900
C131	C13	0.372700	0.393700	0.012900
H61	H6	0.368900	0.364100	0.947100
C141	C14	0.323500	0.467400	0.007500
H71	H7	0.283000	0.487800	0.939200
C151	C15	0.335700	0.510100	0.105600
H81	H8	0.305300	0.560600	0.102300
N11	N1	0.538400	0.320710	0.368000
N21	N2	0.548100	0.404880	0.503300
N31	N3	0.489000	0.438150	0.405400
N41	N4	0.388900	0.482140	0.204400
O11	O1	0.353200	0.031430	0.124600
O21	O2	0.223200	0.114530	0.203400
O31	O3	0.867600	0.067110	0.188000
O41	O4	0.942700	0.180740	0.234300
Cu11	Cu1	0.424030	0.543650	0.347740
C161	C16	0.161500	0.590030	0.321100
C171	C17	0.650700	0.635000	0.284100
C181	C18	0.908200	0.615460	0.300300
H91	H9	0.896400	0.569700	0.338500
C191	C19	0.038600	0.637610	0.280500
C201	C20	0.794100	0.659520	0.264900
C211	C21	0.058100	0.705600	0.222400
H101	H10	0.145200	0.720900	0.206200
C221	C22	0.813300	0.728750	0.211000
H111	H11	0.738800	0.760700	0.189500
C231	C23	0.943000	0.749310	0.189900
C241	C24	0.923300	0.834640	0.021600
H121	H12	0.882100	0.799100	0.970000
C251	C25	0.015200	0.887530	0.175400
C261	C26	0.068100	0.908910	0.290400
C271	C27	0.073000	0.863900	0.385600
H131	H13	0.040000	0.813900	0.381100
C281	C28	0.127300	0.893700	0.487100
H141	H14	0.131100	0.864100	0.552900
C291	C29	0.176500	0.967400	0.492500
H151	H15	0.217000	0.987800	0.560800
C301	C30	0.164300	0.010100	0.394400
H161	H16	0.194700	0.060600	0.397700
N51	N5	0.961600	0.820710	0.132000
N61	N6	0.951900	0.904880	0.996700
N71	N7	0.011000	0.938150	0.094600
N81	N8	0.111100	0.982140	0.295600
O51	O5	0.146800	0.531430	0.375400
O61	O6	0.276800	0.614530	0.296600
O71	O7	0.632400	0.567110	0.312000
O81	O8	0.557300	0.680740	0.265700
Cu21	Cu2	0.075970	0.043650	0.152260
C311	C31	0.661500	0.909970	0.821100
C321	C32	0.150700	0.865000	0.784100
C331	C33	0.408200	0.884540	0.800300
H171	H17	0.396400	0.930300	0.838500
C341	C34	0.538600	0.862390	0.780500
C351	C35	0.294100	0.840480	0.764900
C361	C36	0.558100	0.794400	0.722400
H181	H18	0.645200	0.779100	0.706200
C371	C37	0.313300	0.771250	0.711000
H191	H19	0.238800	0.739300	0.689500
C381	C38	0.443000	0.750690	0.689900
C391	C39	0.423300	0.665360	0.521600
H201	H20	0.382100	0.700900	0.470000
C401	C40	0.515200	0.612470	0.675400
C411	C41	0.568100	0.591090	0.790400
C421	C42	0.573000	0.636100	0.885600
H211	H21	0.540000	0.686100	0.881100
C431	C43	0.627300	0.606300	0.987100
H221	H22	0.631100	0.635900	0.052900
C441	C44	0.676500	0.532600	0.992500
H231	H23	0.717000	0.512200	0.060800
C451	C45	0.664300	0.489900	0.894400
H241	H24	0.694700	0.439400	0.897700
N91	N9	0.461600	0.679290	0.632000
N101	N10	0.451900	0.595120	0.496700
N111	N11	0.511000	0.561850	0.594600
N121	N12	0.611100	0.517860	0.795600
O91	O9	0.646800	0.968570	0.875400
O101	O10	0.776800	0.885470	0.796600
O111	O11	0.132400	0.932890	0.812000
O121	O12	0.057300	0.819260	0.765700
Cu31	Cu3	0.575970	0.456350	0.652260
C461	C46	0.838500	0.409970	0.678900
C471	C47	0.349300	0.365000	0.715900
C481	C48	0.091800	0.384540	0.699700
H251	H25	0.103600	0.430300	0.661500
C491	C49	0.961400	0.362390	0.719500
C501	C50	0.205900	0.340480	0.735100
C511	C51	0.941900	0.294400	0.777600
H261	H26	0.854800	0.279100	0.793800
C521	C52	0.186700	0.271250	0.789000
H271	H27	0.261200	0.239300	0.810500
C531	C53	0.057000	0.250690	0.810100
C541	C54	0.076700	0.165360	0.978400
H281	H28	0.117900	0.200900	0.030000
C551	C55	0.984800	0.112470	0.824600
C561	C56	0.931900	0.091090	0.709600
C571	C57	0.927000	0.136100	0.614400
H291	H29	0.960000	0.186100	0.618900
C581	C58	0.872700	0.106300	0.512900
H301	H30	0.868900	0.135900	0.447100
C591	C59	0.823500	0.032600	0.507500
H311	H31	0.783000	0.012200	0.439200
C601	C60	0.835700	0.989900	0.605600
H321	H32	0.805300	0.939400	0.602300
N131	N13	0.038400	0.179290	0.868000
N141	N14	0.048100	0.095120	0.003300
N151	N15	0.989000	0.061850	0.905400
N161	N16	0.888900	0.017860	0.704400
O131	O13	0.853200	0.468570	0.624600
O141	O14	0.723200	0.385470	0.703400
O151	O15	0.367600	0.432890	0.688000
O161	O16	0.442700	0.319260	0.734300
Cu41	Cu4	0.924030	0.956350	0.847740
