data_TUMROK_clean_PM
_symmetry_space_group_name_H-M	'P1'
_cell_length_a	9.876700
_cell_length_b	17.438900
_cell_length_c	12.017700
_cell_angle_alpha	90.000000
_cell_angle_beta	97.458000
_cell_angle_gamma	90.000000
_symmetry_Int_Tables_number 1

loop_
_symmetry_equiv_pos_as_xyz
'x,y,z'

loop_
_atom_site_label
_atom_site_type_symbol
_atom_site_fract_x
_atom_site_fract_y
_atom_site_fract_z
C11	C1	0.323100	0.082300	0.183600
C21	C2	0.831800	0.122500	0.210800
C31	C3	0.577500	0.104850	0.198800
H11	H1	0.586200	0.057700	0.160800
C41	C4	0.449600	0.128760	0.221700
C51	C5	0.692600	0.149300	0.231100
C61	C6	0.436300	0.197720	0.277600
H21	H2	0.349900	0.214000	0.295500
C71	C7	0.679000	0.219850	0.283900
H31	H3	0.756100	0.251900	0.303900
C81	C8	0.551100	0.241910	0.306500
C91	C9	0.619300	0.264600	0.556500
H41	H4	0.718800	0.262600	0.558500
H51	H5	0.579900	0.214900	0.531800
H61	H6	0.596600	0.276300	0.631600
C101	C10	0.562900	0.325050	0.477200
C111	C11	0.488800	0.381880	0.320500
C121	C12	0.444400	0.403430	0.203100
C131	C13	0.383600	0.376000	0.020600
H71	H7	0.376200	0.340900	0.959600
C141	C14	0.341900	0.450400	0.000700
H81	H8	0.301600	0.466400	0.928300
C151	C15	0.360700	0.501100	0.089800
H91	H9	0.334500	0.553200	0.078100
N11	N1	0.535300	0.313820	0.363800
N21	N2	0.533700	0.396490	0.500800
N31	N3	0.486600	0.432320	0.400900
N41	N4	0.434500	0.350750	0.123500
N51	N5	0.415200	0.478310	0.192000
O11	O1	0.329000	0.028580	0.116500
O21	O2	0.215700	0.102520	0.221400
O31	O3	0.843900	0.055960	0.173900
O41	O4	0.932100	0.162200	0.235100
Co11	Co1	0.451500	0.546250	0.344920
C161	C16	0.176900	0.582300	0.316400
C171	C17	0.668200	0.622500	0.289200
C181	C18	0.922500	0.604850	0.301200
H101	H10	0.913800	0.557700	0.339200
C191	C19	0.050400	0.628760	0.278300
C201	C20	0.807400	0.649300	0.268900
C211	C21	0.063700	0.697720	0.222400
H111	H11	0.150100	0.714000	0.204500
C221	C22	0.821000	0.719850	0.216100
H121	H12	0.743900	0.751900	0.196100
C231	C23	0.948900	0.741910	0.193500
C241	C24	0.880700	0.764600	0.943500
H131	H13	0.781200	0.762600	0.941500
H141	H14	0.920100	0.714900	0.968200
H151	H15	0.903400	0.776300	0.868400
C251	C25	0.937100	0.825050	0.022800
C261	C26	0.011200	0.881880	0.179500
C271	C27	0.055600	0.903430	0.296900
C281	C28	0.116400	0.876000	0.479400
H161	H16	0.123800	0.840900	0.540400
C291	C29	0.158100	0.950400	0.499300
H171	H17	0.198400	0.966400	0.571700
C301	C30	0.139300	0.001100	0.410200
H181	H18	0.165500	0.053200	0.421900
N61	N6	0.964700	0.813820	0.136200
N71	N7	0.966300	0.896490	0.999200
N81	N8	0.013400	0.932320	0.099100
N91	N9	0.065500	0.850750	0.376500
N101	N10	0.084800	0.978310	0.308000
O51	O5	0.171000	0.528580	0.383500
O61	O6	0.284300	0.602520	0.278600
O71	O7	0.656100	0.555960	0.326100
O81	O8	0.567900	0.662200	0.264900
Co21	Co2	0.048500	0.046250	0.155080
C311	C31	0.676900	0.917700	0.816400
C321	C32	0.168200	0.877500	0.789200
C331	C33	0.422500	0.895150	0.801200
H191	H19	0.413800	0.942300	0.839200
C341	C34	0.550400	0.871240	0.778300
C351	C35	0.307400	0.850700	0.768900
C361	C36	0.563700	0.802280	0.722400
H201	H20	0.650100	0.786000	0.704500
C371	C37	0.321000	0.780150	0.716100
H211	H21	0.243900	0.748100	0.696100
C381	C38	0.448900	0.758090	0.693500
C391	C39	0.380700	0.735400	0.443500
H221	H22	0.281200	0.737400	0.441500
H231	H23	0.420100	0.785100	0.468200
H241	H24	0.403400	0.723700	0.368400
C401	C40	0.437100	0.674950	0.522800
C411	C41	0.511200	0.618120	0.679500
C421	C42	0.555600	0.596570	0.796900
C431	C43	0.616400	0.624000	0.979400
H251	H25	0.623800	0.659100	0.040400
C441	C44	0.658100	0.549600	0.999300
H261	H26	0.698400	0.533600	0.071700
C451	C45	0.639300	0.498900	0.910200
H271	H27	0.665500	0.446800	0.921900
N111	N11	0.464700	0.686180	0.636200
N121	N12	0.466300	0.603510	0.499200
N131	N13	0.513400	0.567680	0.599100
N141	N14	0.565500	0.649250	0.876500
N151	N15	0.584800	0.521690	0.808000
O91	O9	0.671000	0.971420	0.883500
O101	O10	0.784300	0.897480	0.778600
O111	O11	0.156100	0.944040	0.826100
O121	O12	0.067900	0.837800	0.764900
Co31	Co3	0.548500	0.453750	0.655080
C461	C46	0.823100	0.417700	0.683600
C471	C47	0.331800	0.377500	0.710800
C481	C48	0.077500	0.395150	0.698800
H281	H28	0.086200	0.442300	0.660800
C491	C49	0.949600	0.371240	0.721700
C501	C50	0.192600	0.350700	0.731100
C511	C51	0.936300	0.302280	0.777600
H291	H29	0.849900	0.286000	0.795500
C521	C52	0.179000	0.280150	0.783900
H301	H30	0.256100	0.248100	0.803900
C531	C53	0.051100	0.258090	0.806500
C541	C54	0.119300	0.235400	0.056500
H311	H31	0.218800	0.237400	0.058500
H321	H32	0.079900	0.285100	0.031800
H331	H33	0.096600	0.223700	0.131600
C551	C55	0.062900	0.174950	0.977200
C561	C56	0.988800	0.118120	0.820500
C571	C57	0.944400	0.096570	0.703100
C581	C58	0.883600	0.124000	0.520600
H341	H34	0.876200	0.159100	0.459600
C591	C59	0.841900	0.049600	0.500700
H351	H35	0.801600	0.033600	0.428300
C601	C60	0.860700	0.998900	0.589800
H361	H36	0.834500	0.946800	0.578100
N161	N16	0.035300	0.186180	0.863800
N171	N17	0.033700	0.103510	0.000800
N181	N18	0.986600	0.067680	0.900900
N191	N19	0.934500	0.149250	0.623500
N201	N20	0.915200	0.021690	0.692000
O131	O13	0.829000	0.471420	0.616500
O141	O14	0.715700	0.397480	0.721400
O151	O15	0.343900	0.444040	0.673900
O161	O16	0.432100	0.337800	0.735100
Co41	Co4	0.951500	0.953750	0.844920
