data_TUMREA_clean_PM
_symmetry_space_group_name_H-M	'P1'
_cell_length_a	9.843900
_cell_length_b	17.674700
_cell_length_c	11.805100
_cell_angle_alpha	90.000000
_cell_angle_beta	99.458000
_cell_angle_gamma	90.000000
_symmetry_Int_Tables_number 1

loop_
_symmetry_equiv_pos_as_xyz
'x,y,z'

loop_
_atom_site_label
_atom_site_type_symbol
_atom_site_fract_x
_atom_site_fract_y
_atom_site_fract_z
C11	C1	0.330900	0.081740	0.186400
C21	C2	0.840600	0.134210	0.207700
C31	C3	0.585200	0.109040	0.199000
H11	H1	0.595600	0.062000	0.164100
C41	C4	0.456400	0.131070	0.221400
C51	C5	0.698100	0.156260	0.227750
C61	C6	0.440800	0.200060	0.273600
H21	H2	0.354800	0.214700	0.291200
C71	C7	0.682700	0.226850	0.277100
H31	H3	0.758100	0.259900	0.294900
C81	C8	0.554200	0.247040	0.299240
C91	C9	0.634100	0.269130	0.549700
H41	H4	0.730700	0.264500	0.543300
H51	H5	0.587900	0.221400	0.529300
H61	H6	0.625600	0.282200	0.628000
C101	C10	0.569900	0.329190	0.470900
C111	C11	0.489400	0.385350	0.310200
C121	C12	0.441200	0.406370	0.189300
C131	C13	0.436200	0.359400	0.094100
H71	H7	0.471400	0.310000	0.103900
C141	C14	0.334400	0.454260	0.980400
H81	H8	0.291500	0.472200	0.908400
C151	C15	0.345900	0.502360	0.074700
H91	H9	0.315000	0.552600	0.064400
N11	N1	0.538540	0.318270	0.355180
N21	N2	0.538930	0.399140	0.495320
N31	N3	0.487690	0.434420	0.393030
N41	N4	0.399800	0.478570	0.178600
N51	N5	0.381800	0.383650	0.988600
O11	O1	0.337000	0.027450	0.121200
O21	O2	0.223700	0.102460	0.222710
O31	O3	0.861530	0.064970	0.188560
O41	O4	0.928800	0.184730	0.208700
Zn11	Zn1	0.446640	0.547650	0.341960
C161	C16	0.169100	0.581740	0.313600
C171	C17	0.659400	0.634210	0.292300
C181	C18	0.914800	0.609040	0.301000
H101	H10	0.904400	0.562000	0.335900
C191	C19	0.043600	0.631070	0.278600
C201	C20	0.801900	0.656260	0.272250
C211	C21	0.059200	0.700060	0.226400
H111	H11	0.145200	0.714700	0.208800
C221	C22	0.817300	0.726850	0.222900
H121	H12	0.741900	0.759900	0.205100
C231	C23	0.945800	0.747040	0.200760
C241	C24	0.865900	0.769130	0.950300
H131	H13	0.769300	0.764500	0.956700
H141	H14	0.912100	0.721400	0.970700
H151	H15	0.874400	0.782200	0.872000
C251	C25	0.930100	0.829190	0.029100
C261	C26	0.010600	0.885350	0.189800
C271	C27	0.058800	0.906370	0.310700
C281	C28	0.063800	0.859400	0.405900
H161	H16	0.028600	0.810000	0.396100
C291	C29	0.165600	0.954260	0.519600
H171	H17	0.208500	0.972200	0.591600
C301	C30	0.154100	0.002360	0.425300
H181	H18	0.185000	0.052600	0.435600
N61	N6	0.961460	0.818270	0.144820
N71	N7	0.961070	0.899140	0.004680
N81	N8	0.012310	0.934420	0.106970
N91	N9	0.100200	0.978570	0.321400
N101	N10	0.118200	0.883650	0.511400
O51	O5	0.163000	0.527450	0.378800
O61	O6	0.276300	0.602460	0.277290
O71	O7	0.638470	0.564970	0.311440
O81	O8	0.571200	0.684730	0.291300
Zn21	Zn2	0.053360	0.047650	0.158040
C311	C31	0.669100	0.918260	0.813600
C321	C32	0.159400	0.865790	0.792300
C331	C33	0.414800	0.890960	0.801000
H191	H19	0.404400	0.938000	0.835900
C341	C34	0.543600	0.868930	0.778600
C351	C35	0.301900	0.843740	0.772250
C361	C36	0.559200	0.799940	0.726400
H201	H20	0.645200	0.785300	0.708800
C371	C37	0.317300	0.773150	0.722900
H211	H21	0.241900	0.740100	0.705100
C381	C38	0.445800	0.752960	0.700760
C391	C39	0.365900	0.730870	0.450300
H221	H22	0.269300	0.735500	0.456700
H231	H23	0.412100	0.778600	0.470700
H241	H24	0.374400	0.717800	0.372000
C401	C40	0.430100	0.670810	0.529100
C411	C41	0.510600	0.614650	0.689800
C421	C42	0.558800	0.593630	0.810700
C431	C43	0.563800	0.640600	0.905900
H251	H25	0.528600	0.690000	0.896100
C441	C44	0.665600	0.545740	0.019600
H261	H26	0.708500	0.527800	0.091600
C451	C45	0.654100	0.497640	0.925300
H271	H27	0.685000	0.447400	0.935600
N111	N11	0.461460	0.681730	0.644820
N121	N12	0.461070	0.600860	0.504680
N131	N13	0.512310	0.565580	0.606970
N141	N14	0.600200	0.521430	0.821400
N151	N15	0.618200	0.616350	0.011400
O91	O9	0.663000	0.972550	0.878800
O101	O10	0.776300	0.897540	0.777290
O111	O11	0.138470	0.935030	0.811440
O121	O12	0.071200	0.815270	0.791300
Zn31	Zn3	0.553360	0.452350	0.658040
C461	C46	0.830900	0.418260	0.686400
C471	C47	0.340600	0.365790	0.707700
C481	C48	0.085200	0.390960	0.699000
H281	H28	0.095600	0.438000	0.664100
C491	C49	0.956400	0.368930	0.721400
C501	C50	0.198100	0.343740	0.727750
C511	C51	0.940800	0.299940	0.773600
H291	H29	0.854800	0.285300	0.791200
C521	C52	0.182700	0.273150	0.777100
H301	H30	0.258100	0.240100	0.794900
C531	C53	0.054200	0.252960	0.799240
C541	C54	0.134100	0.230870	0.049700
H311	H31	0.230700	0.235500	0.043300
H321	H32	0.087900	0.278600	0.029300
H331	H33	0.125600	0.217800	0.128000
C551	C55	0.069900	0.170810	0.970900
C561	C56	0.989400	0.114650	0.810200
C571	C57	0.941200	0.093630	0.689300
C581	C58	0.936200	0.140600	0.594100
H341	H34	0.971400	0.190000	0.603900
C591	C59	0.834400	0.045740	0.480400
H351	H35	0.791500	0.027800	0.408400
C601	C60	0.845900	0.997640	0.574700
H361	H36	0.815000	0.947400	0.564400
N161	N16	0.038540	0.181730	0.855180
N171	N17	0.038930	0.100860	0.995320
N181	N18	0.987690	0.065580	0.893030
N191	N19	0.899800	0.021430	0.678600
N201	N20	0.881800	0.116350	0.488600
O131	O13	0.837000	0.472550	0.621200
O141	O14	0.723700	0.397540	0.722710
O151	O15	0.361530	0.435030	0.688560
O161	O16	0.428800	0.315270	0.708700
Zn41	Zn4	0.946640	0.952350	0.841960
