data_TUMRAW_clean_PM
_symmetry_space_group_name_H-M	'P1'
_cell_length_a	10.080200
_cell_length_b	17.451000
_cell_length_c	11.518500
_cell_angle_alpha	90.000000
_cell_angle_beta	99.781000
_cell_angle_gamma	90.000000
_symmetry_Int_Tables_number 1

loop_
_symmetry_equiv_pos_as_xyz
'x,y,z'

loop_
_atom_site_label
_atom_site_type_symbol
_atom_site_fract_x
_atom_site_fract_y
_atom_site_fract_z
C11	C1	0.348700	0.078300	0.175000
C21	C2	0.849500	0.133800	0.206300
C31	C3	0.597900	0.108300	0.189700
H11	H1	0.609100	0.061000	0.151900
C41	C4	0.470400	0.129000	0.211500
C51	C5	0.709000	0.156000	0.222600
C61	C6	0.453800	0.198400	0.268600
H21	H2	0.368700	0.212300	0.286900
C71	C7	0.691600	0.226700	0.275900
H31	H3	0.765700	0.260500	0.296600
C81	C8	0.565200	0.246700	0.298100
C91	C9	0.648300	0.264800	0.558100
H41	H4	0.743300	0.261800	0.549800
H51	H5	0.604500	0.215400	0.536300
H61	H6	0.641600	0.276800	0.640000
C101	C10	0.580700	0.325800	0.479400
C111	C11	0.492800	0.386200	0.316200
C121	C12	0.444200	0.410900	0.195300
C131	C13	0.438900	0.367100	0.092600
H71	H7	0.474800	0.316600	0.098600
C141	C14	0.334300	0.465300	0.981500
H81	H8	0.290800	0.485200	0.908000
C151	C15	0.343400	0.511200	0.081300
H91	H9	0.309000	0.561900	0.074000
N11	N1	0.547300	0.317300	0.359500
N21	N2	0.546700	0.396500	0.508200
N31	N3	0.490200	0.433900	0.404900
N41	N4	0.399600	0.485000	0.187400
N51	N5	0.384400	0.394500	0.985200
O11	O1	0.351800	0.027000	0.098200
O21	O2	0.244200	0.096000	0.215200
O31	O3	0.868700	0.063450	0.182000
O41	O4	0.939500	0.184300	0.216100
Cu11	Cu1	0.431890	0.550000	0.337260
C161	C16	0.151300	0.578300	0.325000
C171	C17	0.650500	0.633800	0.293700
C181	C18	0.902100	0.608300	0.310300
H101	H10	0.890900	0.561000	0.348100
C191	C19	0.029600	0.629000	0.288500
C201	C20	0.791000	0.656000	0.277400
C211	C21	0.046200	0.698400	0.231400
H111	H11	0.131300	0.712300	0.213100
C221	C22	0.808400	0.726700	0.224100
H121	H12	0.734300	0.760500	0.203400
C231	C23	0.934800	0.746700	0.201900
C241	C24	0.851700	0.764800	0.941900
H131	H13	0.756700	0.761800	0.950200
H141	H14	0.895500	0.715400	0.963700
H151	H15	0.858400	0.776800	0.860000
C251	C25	0.919300	0.825800	0.020600
C261	C26	0.007200	0.886200	0.183800
C271	C27	0.055800	0.910900	0.304700
C281	C28	0.061100	0.867100	0.407400
H161	H16	0.025200	0.816600	0.401400
C291	C29	0.165700	0.965300	0.518500
H171	H17	0.209200	0.985200	0.592000
C301	C30	0.156600	0.011200	0.418700
H181	H18	0.191000	0.061900	0.426000
N61	N6	0.952700	0.817300	0.140500
N71	N7	0.953300	0.896500	0.991800
N81	N8	0.009800	0.933900	0.095100
N91	N9	0.100400	0.985000	0.312600
N101	N10	0.115600	0.894500	0.514800
O51	O5	0.148200	0.527000	0.401800
O61	O6	0.255800	0.596000	0.284800
O71	O7	0.631300	0.563450	0.318000
O81	O8	0.560500	0.684300	0.283900
Cu21	Cu2	0.068110	0.050000	0.162740
C311	C31	0.651300	0.921700	0.825000
C321	C32	0.150500	0.866200	0.793700
C331	C33	0.402100	0.891700	0.810300
H191	H19	0.390900	0.939000	0.848100
C341	C34	0.529600	0.871000	0.788500
C351	C35	0.291000	0.844000	0.777400
C361	C36	0.546200	0.801600	0.731400
H201	H20	0.631300	0.787700	0.713100
C371	C37	0.308400	0.773300	0.724100
H211	H21	0.234300	0.739500	0.703400
C381	C38	0.434800	0.753300	0.701900
C391	C39	0.351700	0.735200	0.441900
H221	H22	0.256700	0.738200	0.450200
H231	H23	0.395500	0.784600	0.463700
H241	H24	0.358400	0.723200	0.360000
C401	C40	0.419300	0.674200	0.520600
C411	C41	0.507200	0.613800	0.683800
C421	C42	0.555800	0.589100	0.804700
C431	C43	0.561100	0.632900	0.907400
H251	H25	0.525200	0.683400	0.901400
C441	C44	0.665700	0.534700	0.018500
H261	H26	0.709200	0.514800	0.092000
C451	C45	0.656600	0.488800	0.918700
H271	H27	0.691000	0.438100	0.926000
N111	N11	0.452700	0.682700	0.640500
N121	N12	0.453300	0.603500	0.491800
N131	N13	0.509800	0.566100	0.595100
N141	N14	0.600400	0.515000	0.812600
N151	N15	0.615600	0.605500	0.014800
O91	O9	0.648200	0.973000	0.901800
O101	O10	0.755800	0.904000	0.784800
O111	O11	0.131300	0.936550	0.818000
O121	O12	0.060500	0.815700	0.783900
Cu31	Cu3	0.568110	0.450000	0.662740
C461	C46	0.848700	0.421700	0.675000
C471	C47	0.349500	0.366200	0.706300
C481	C48	0.097900	0.391700	0.689700
H281	H28	0.109100	0.439000	0.651900
C491	C49	0.970400	0.371000	0.711500
C501	C50	0.209000	0.344000	0.722600
C511	C51	0.953800	0.301600	0.768600
H291	H29	0.868700	0.287700	0.786900
C521	C52	0.191600	0.273300	0.775900
H301	H30	0.265700	0.239500	0.796600
C531	C53	0.065200	0.253300	0.798100
C541	C54	0.148300	0.235200	0.058100
H311	H31	0.243300	0.238200	0.049800
H321	H32	0.104500	0.284600	0.036300
H331	H33	0.141600	0.223200	0.140000
C551	C55	0.080700	0.174200	0.979400
C561	C56	0.992800	0.113800	0.816200
C571	C57	0.944200	0.089100	0.695300
C581	C58	0.938900	0.132900	0.592600
H341	H34	0.974800	0.183400	0.598600
C591	C59	0.834300	0.034700	0.481500
H351	H35	0.790800	0.014800	0.408000
C601	C60	0.843400	0.988800	0.581300
H361	H36	0.809000	0.938100	0.574000
N161	N16	0.047300	0.182700	0.859500
N171	N17	0.046700	0.103500	0.008200
N181	N18	0.990200	0.066100	0.904900
N191	N19	0.899600	0.015000	0.687400
N201	N20	0.884400	0.105500	0.485200
O131	O13	0.851800	0.473000	0.598200
O141	O14	0.744200	0.404000	0.715200
O151	O15	0.368700	0.436550	0.682000
O161	O16	0.439500	0.315700	0.716100
Cu41	Cu4	0.931890	0.950000	0.837260
