data_TUMTOK_clean_PM
_symmetry_space_group_name_H-M	'P1'
_cell_length_a	10.540000
_cell_length_b	10.050000
_cell_length_c	14.370000
_cell_angle_alpha	90.000000
_cell_angle_beta	90.000000
_cell_angle_gamma	90.000000
_symmetry_Int_Tables_number 1

loop_
_symmetry_equiv_pos_as_xyz
'x,y,z'

loop_
_atom_site_label
_atom_site_type_symbol
_atom_site_fract_x
_atom_site_fract_y
_atom_site_fract_z
Zn11	Zn1	0.409610	0.627340	0.552400
Zn21	Zn2	0.152720	0.131700	0.463570
P11	P1	0.185000	0.812900	0.496200
P21	P2	0.375200	0.322900	0.511200
P31	P3	0.048200	0.022000	0.266400
O11	O1	0.368800	0.468100	0.481600
O21	O2	0.260800	0.736000	0.567100
O31	O3	0.087200	0.128800	0.335900
O41	O4	0.205200	0.960500	0.509100
O51	O5	0.306100	0.234200	0.442300
O61	O6	0.045100	0.775100	0.495700
O71	O7	0.511500	0.278700	0.527900
O81	O8	0.023200	0.080600	0.172100
O91	O9	0.143900	0.907700	0.259800
O101	O10	0.239200	0.771600	0.397700
O111	O11	0.918800	0.962500	0.302300
O121	O12	0.301200	0.303700	0.606900
Zn31	Zn3	0.590390	0.372660	0.052400
Zn41	Zn4	0.847280	0.868300	0.963570
P41	P4	0.815000	0.187100	0.996200
P51	P5	0.624800	0.677100	0.011200
P61	P6	0.951800	0.978000	0.766400
O131	O13	0.631200	0.531900	0.981600
O141	O14	0.739200	0.264000	0.067100
O151	O15	0.912800	0.871200	0.835900
O161	O16	0.794800	0.039500	0.009100
O171	O17	0.693900	0.765800	0.942300
O181	O18	0.954900	0.224900	0.995700
O191	O19	0.488500	0.721300	0.027900
O201	O20	0.976800	0.919400	0.672100
O211	O21	0.856100	0.092300	0.759800
O221	O22	0.760800	0.228400	0.897700
O231	O23	0.081200	0.037500	0.802300
O241	O24	0.698800	0.696300	0.106900
Zn51	Zn5	0.909610	0.872660	0.552400
Zn61	Zn6	0.652720	0.368300	0.463570
P71	P7	0.685000	0.687100	0.496200
P81	P8	0.875200	0.177100	0.511200
P91	P9	0.548200	0.478000	0.266400
O251	O25	0.868800	0.031900	0.481600
O261	O26	0.760800	0.764000	0.567100
O271	O27	0.587200	0.371200	0.335900
O281	O28	0.705200	0.539500	0.509100
O291	O29	0.806100	0.265800	0.442300
O301	O30	0.545100	0.724900	0.495700
O311	O31	0.011500	0.221300	0.527900
O321	O32	0.523200	0.419400	0.172100
O331	O33	0.643900	0.592300	0.259800
O341	O34	0.739200	0.728400	0.397700
O351	O35	0.418800	0.537500	0.302300
O361	O36	0.801200	0.196300	0.606900
Zn71	Zn7	0.090390	0.127340	0.052400
Zn81	Zn8	0.347280	0.631700	0.963570
P101	P10	0.315000	0.312900	0.996200
P111	P11	0.124800	0.822900	0.011200
P121	P12	0.451800	0.522000	0.766400
O371	O37	0.131200	0.968100	0.981600
O381	O38	0.239200	0.236000	0.067100
O391	O39	0.412800	0.628800	0.835900
O401	O40	0.294800	0.460500	0.009100
O411	O41	0.193900	0.734200	0.942300
O421	O42	0.454900	0.275100	0.995700
O431	O43	0.988500	0.778700	0.027900
O441	O44	0.476800	0.580600	0.672100
O451	O45	0.356100	0.407700	0.759800
O461	O46	0.260800	0.271600	0.897700
O471	O47	0.581200	0.462500	0.802300
O481	O48	0.198800	0.803700	0.106900
