data_TUMTOK01_clean_PM
_symmetry_space_group_name_H-M	'P1'
_cell_length_a	14.314200
_cell_length_b	10.027700
_cell_length_c	10.491700
_cell_angle_alpha	90.000000
_cell_angle_beta	94.102000
_cell_angle_gamma	90.000000
_symmetry_Int_Tables_number 1

loop_
_symmetry_equiv_pos_as_xyz
'x,y,z'

loop_
_atom_site_label
_atom_site_type_symbol
_atom_site_fract_x
_atom_site_fract_y
_atom_site_fract_z
Zn11	Zn1	0.545640	0.873810	0.144220
Zn21	Zn2	0.956540	0.866250	0.101630
P11	P1	0.510220	0.192850	0.134230
P21	P2	0.740040	0.973540	0.042000
P31	P3	0.006570	0.828390	0.826800
O11	O1	0.607200	0.222500	0.208700
O21	O2	0.483400	0.047000	0.155800
O31	O3	0.519200	0.224100	0.994100
O41	O4	0.439800	0.285200	0.191500
O51	O5	0.699900	0.023500	0.905800
O61	O6	0.747700	0.094500	0.131300
O71	O7	0.672000	0.870800	0.088800
O81	O8	0.834400	0.912600	0.022600
O91	O9	0.103100	0.799800	0.767100
O101	O10	0.018100	0.774400	0.964400
O111	O11	0.985600	0.976700	0.823200
O121	O12	0.934100	0.751900	0.742900
H11	H1	0.645000	0.190000	0.180000
H21	H2	0.649000	0.007000	0.890000
H31	H3	0.149000	0.825000	0.804000
Zn31	Zn3	0.454360	0.373810	0.355780
Zn41	Zn4	0.043460	0.366250	0.398370
P41	P4	0.489780	0.692850	0.365770
P51	P5	0.259960	0.473540	0.458000
P61	P6	0.993430	0.328390	0.673200
O131	O13	0.392800	0.722500	0.291300
O141	O14	0.516600	0.547000	0.344200
O151	O15	0.480800	0.724100	0.505900
O161	O16	0.560200	0.785200	0.308500
O171	O17	0.300100	0.523500	0.594200
O181	O18	0.252300	0.594500	0.368700
O191	O19	0.328000	0.370800	0.411200
O201	O20	0.165600	0.412600	0.477400
O211	O21	0.896900	0.299800	0.732900
O221	O22	0.981900	0.274400	0.535600
O231	O23	0.014400	0.476700	0.676800
O241	O24	0.065900	0.251900	0.757100
H41	H4	0.355000	0.690000	0.320000
H51	H5	0.351000	0.507000	0.610000
H61	H6	0.851000	0.325000	0.696000
Zn51	Zn5	0.454360	0.126190	0.855780
Zn61	Zn6	0.043460	0.133750	0.898370
P71	P7	0.489780	0.807150	0.865770
P81	P8	0.259960	0.026460	0.958000
P91	P9	0.993430	0.171610	0.173200
O251	O25	0.392800	0.777500	0.791300
O261	O26	0.516600	0.953000	0.844200
O271	O27	0.480800	0.775900	0.005900
O281	O28	0.560200	0.714800	0.808500
O291	O29	0.300100	0.976500	0.094200
O301	O30	0.252300	0.905500	0.868700
O311	O31	0.328000	0.129200	0.911200
O321	O32	0.165600	0.087400	0.977400
O331	O33	0.896900	0.200200	0.232900
O341	O34	0.981900	0.225600	0.035600
O351	O35	0.014400	0.023300	0.176800
O361	O36	0.065900	0.248100	0.257100
H71	H7	0.355000	0.810000	0.820000
H81	H8	0.351000	0.993000	0.110000
H91	H9	0.851000	0.175000	0.196000
Zn71	Zn7	0.545640	0.626190	0.644220
Zn81	Zn8	0.956540	0.633750	0.601630
P101	P10	0.510220	0.307150	0.634230
P111	P11	0.740040	0.526460	0.542000
P121	P12	0.006570	0.671610	0.326800
O371	O37	0.607200	0.277500	0.708700
O381	O38	0.483400	0.453000	0.655800
O391	O39	0.519200	0.275900	0.494100
O401	O40	0.439800	0.214800	0.691500
O411	O41	0.699900	0.476500	0.405800
O421	O42	0.747700	0.405500	0.631300
O431	O43	0.672000	0.629200	0.588800
O441	O44	0.834400	0.587400	0.522600
O451	O45	0.103100	0.700200	0.267100
O461	O46	0.018100	0.725600	0.464400
O471	O47	0.985600	0.523300	0.323200
O481	O48	0.934100	0.748100	0.242900
H101	H10	0.645000	0.310000	0.680000
H111	H11	0.649000	0.493000	0.390000
H121	H12	0.149000	0.675000	0.304000
