data_TUNDAJ_clean_PM
_symmetry_space_group_name_H-M	'P1'
_cell_length_a	20.231300
_cell_length_b	20.231300
_cell_length_c	20.231300
_cell_angle_alpha	90.000000
_cell_angle_beta	90.000000
_cell_angle_gamma	90.000000
_symmetry_Int_Tables_number 1

loop_
_symmetry_equiv_pos_as_xyz
'x,y,z'

loop_
_atom_site_label
_atom_site_type_symbol
_atom_site_fract_x
_atom_site_fract_y
_atom_site_fract_z
N11	N1	0.275000	0.518000	0.327000
N21	N2	0.372000	0.417000	0.326000
N31	N3	0.454000	0.410000	0.219000
C11	C1	0.272000	0.463000	0.368000
C21	C2	0.225000	0.565000	0.328000
C31	C3	0.328000	0.417000	0.371000
C41	C4	0.501000	0.411000	0.168000
C51	C5	0.171000	0.556000	0.370000
H11	H1	0.227000	0.601500	0.300800
H21	H2	0.495400	0.439500	0.132400
H31	H3	0.137600	0.587300	0.371100
N41	N4	0.775000	0.018000	0.827000
N51	N5	0.872000	0.917000	0.826000
N61	N6	0.954000	0.910000	0.719000
C61	C6	0.772000	0.963000	0.868000
C71	C7	0.725000	0.065000	0.828000
C81	C8	0.828000	0.917000	0.871000
C91	C9	0.001000	0.911000	0.668000
C101	C10	0.671000	0.056000	0.870000
H41	H4	0.727000	0.101500	0.800800
H51	H5	0.995400	0.939500	0.632400
H61	H6	0.637600	0.087300	0.871100
N71	N7	0.225000	0.482000	0.827000
N81	N8	0.128000	0.583000	0.826000
N91	N9	0.046000	0.590000	0.719000
C111	C11	0.228000	0.537000	0.868000
C121	C12	0.275000	0.435000	0.828000
C131	C13	0.172000	0.583000	0.871000
C141	C14	0.999000	0.589000	0.668000
C151	C15	0.329000	0.444000	0.870000
H71	H7	0.273000	0.398500	0.800800
H81	H8	0.004600	0.560500	0.632400
H91	H9	0.362400	0.412700	0.871100
N101	N10	0.725000	0.982000	0.327000
N111	N11	0.628000	0.083000	0.326000
N121	N12	0.546000	0.090000	0.219000
C161	C16	0.728000	0.037000	0.368000
C171	C17	0.775000	0.935000	0.328000
C181	C18	0.672000	0.083000	0.371000
C191	C19	0.499000	0.089000	0.168000
C201	C20	0.829000	0.944000	0.370000
H101	H10	0.773000	0.898500	0.300800
H111	H11	0.504600	0.060500	0.132400
H121	H12	0.862400	0.912700	0.371100
N131	N13	0.725000	0.018000	0.173000
N141	N14	0.628000	0.917000	0.174000
N151	N15	0.546000	0.910000	0.281000
C211	C21	0.728000	0.963000	0.132000
C221	C22	0.775000	0.065000	0.172000
C231	C23	0.672000	0.917000	0.129000
C241	C24	0.499000	0.911000	0.332000
C251	C25	0.829000	0.056000	0.130000
H131	H13	0.773000	0.101500	0.199200
H141	H14	0.504600	0.939500	0.367600
H151	H15	0.862400	0.087300	0.128900
N161	N16	0.225000	0.518000	0.673000
N171	N17	0.128000	0.417000	0.674000
N181	N18	0.046000	0.410000	0.781000
C261	C26	0.228000	0.463000	0.632000
C271	C27	0.275000	0.565000	0.672000
C281	C28	0.172000	0.417000	0.629000
C291	C29	0.999000	0.411000	0.832000
C301	C30	0.329000	0.556000	0.630000
H161	H16	0.273000	0.601500	0.699200
H171	H17	0.004600	0.439500	0.867600
H181	H18	0.362400	0.587300	0.628900
N191	N19	0.775000	0.982000	0.673000
N201	N20	0.872000	0.083000	0.674000
N211	N21	0.954000	0.090000	0.781000
C311	C31	0.772000	0.037000	0.632000
C321	C32	0.725000	0.935000	0.672000
C331	C33	0.828000	0.083000	0.629000
C341	C34	0.001000	0.089000	0.832000
C351	C35	0.671000	0.944000	0.630000
H191	H19	0.727000	0.898500	0.699200
H201	H20	0.995400	0.060500	0.867600
H211	H21	0.637600	0.912700	0.628900
N221	N22	0.275000	0.482000	0.173000
N231	N23	0.372000	0.583000	0.174000
N241	N24	0.454000	0.590000	0.281000
C361	C36	0.272000	0.537000	0.132000
C371	C37	0.225000	0.435000	0.172000
C381	C38	0.328000	0.583000	0.129000
C391	C39	0.501000	0.589000	0.332000
C401	C40	0.171000	0.444000	0.130000
H221	H22	0.227000	0.398500	0.199200
H231	H23	0.495400	0.560500	0.367600
H241	H24	0.137600	0.412700	0.128900
N251	N25	0.327000	0.275000	0.518000
N261	N26	0.326000	0.372000	0.417000
N271	N27	0.219000	0.454000	0.410000
C411	C41	0.368000	0.272000	0.463000
C421	C42	0.328000	0.225000	0.565000
C431	C43	0.371000	0.328000	0.417000
C441	C44	0.168000	0.501000	0.411000
C451	C45	0.370000	0.171000	0.556000
H251	H25	0.300800	0.227000	0.601500
H261	H26	0.132400	0.495400	0.439500
H271	H27	0.371100	0.137600	0.587300
N281	N28	0.827000	0.775000	0.018000
N291	N29	0.826000	0.872000	0.917000
N301	N30	0.719000	0.954000	0.910000
C461	C46	0.868000	0.772000	0.963000
C471	C47	0.828000	0.725000	0.065000
C481	C48	0.871000	0.828000	0.917000
C491	C49	0.668000	0.001000	0.911000
C501	C50	0.870000	0.671000	0.056000
H281	H28	0.800800	0.727000	0.101500
H291	H29	0.632400	0.995400	0.939500
H301	H30	0.871100	0.637600	0.087300
N311	N31	0.827000	0.225000	0.482000
N321	N32	0.826000	0.128000	0.583000
N331	N33	0.719000	0.046000	0.590000
C511	C51	0.868000	0.228000	0.537000
C521	C52	0.828000	0.275000	0.435000
C531	C53	0.871000	0.172000	0.583000
C541	C54	0.668000	0.999000	0.589000
C551	C55	0.870000	0.329000	0.444000
H311	H31	0.800800	0.273000	0.398500
H321	H32	0.632400	0.004600	0.560500
H331	H33	0.871100	0.362400	0.412700
N341	N34	0.327000	0.725000	0.982000
N351	N35	0.326000	0.628000	0.083000
N361	N36	0.219000	0.546000	0.090000
C561	C56	0.368000	0.728000	0.037000
C571	C57	0.328000	0.775000	0.935000
C581	C58	0.371000	0.672000	0.083000
C591	C59	0.168000	0.499000	0.089000
C601	C60	0.370000	0.829000	0.944000
H341	H34	0.300800	0.773000	0.898500
H351	H35	0.132400	0.504600	0.060500
H361	H36	0.371100	0.862400	0.912700
N371	N37	0.173000	0.725000	0.018000
N381	N38	0.174000	0.628000	0.917000
N391	N39	0.281000	0.546000	0.910000
C611	C61	0.132000	0.728000	0.963000
C621	C62	0.172000	0.775000	0.065000
C631	C63	0.129000	0.672000	0.917000
C641	C64	0.332000	0.499000	0.911000
C651	C65	0.130000	0.829000	0.056000
H371	H37	0.199200	0.773000	0.101500
H381	H38	0.367600	0.504600	0.939500
H391	H39	0.128900	0.862400	0.087300
N401	N40	0.673000	0.225000	0.518000
N411	N41	0.674000	0.128000	0.417000
N421	N42	0.781000	0.046000	0.410000
C661	C66	0.632000	0.228000	0.463000
C671	C67	0.672000	0.275000	0.565000
C681	C68	0.629000	0.172000	0.417000
C691	C69	0.832000	0.999000	0.411000
C701	C70	0.630000	0.329000	0.556000
H401	H40	0.699200	0.273000	0.601500
H411	H41	0.867600	0.004600	0.439500
H421	H42	0.628900	0.362400	0.587300
N431	N43	0.673000	0.775000	0.982000
N441	N44	0.674000	0.872000	0.083000
N451	N45	0.781000	0.954000	0.090000
C711	C71	0.632000	0.772000	0.037000
C721	C72	0.672000	0.725000	0.935000
C731	C73	0.629000	0.828000	0.083000
C741	C74	0.832000	0.001000	0.089000
C751	C75	0.630000	0.671000	0.944000
H431	H43	0.699200	0.727000	0.898500
H441	H44	0.867600	0.995400	0.060500
H451	H45	0.628900	0.637600	0.912700
N461	N46	0.173000	0.275000	0.482000
N471	N47	0.174000	0.372000	0.583000
N481	N48	0.281000	0.454000	0.590000
C761	C76	0.132000	0.272000	0.537000
C771	C77	0.172000	0.225000	0.435000
C781	C78	0.129000	0.328000	0.583000
C791	C79	0.332000	0.501000	0.589000
C801	C80	0.130000	0.171000	0.444000
H461	H46	0.199200	0.227000	0.398500
H471	H47	0.367600	0.495400	0.560500
H481	H48	0.128900	0.137600	0.412700
N491	N49	0.518000	0.327000	0.275000
N501	N50	0.417000	0.326000	0.372000
N511	N51	0.410000	0.219000	0.454000
C811	C81	0.463000	0.368000	0.272000
C821	C82	0.565000	0.328000	0.225000
C831	C83	0.417000	0.371000	0.328000
C841	C84	0.411000	0.168000	0.501000
C851	C85	0.556000	0.370000	0.171000
H491	H49	0.601500	0.300800	0.227000
H501	H50	0.439500	0.132400	0.495400
H511	H51	0.587300	0.371100	0.137600
N521	N52	0.018000	0.827000	0.775000
N531	N53	0.917000	0.826000	0.872000
N541	N54	0.910000	0.719000	0.954000
C861	C86	0.963000	0.868000	0.772000
C871	C87	0.065000	0.828000	0.725000
C881	C88	0.917000	0.871000	0.828000
C891	C89	0.911000	0.668000	0.001000
C901	C90	0.056000	0.870000	0.671000
H521	H52	0.101500	0.800800	0.727000
H531	H53	0.939500	0.632400	0.995400
H541	H54	0.087300	0.871100	0.637600
N551	N55	0.482000	0.827000	0.225000
N561	N56	0.583000	0.826000	0.128000
N571	N57	0.590000	0.719000	0.046000
C911	C91	0.537000	0.868000	0.228000
C921	C92	0.435000	0.828000	0.275000
C931	C93	0.583000	0.871000	0.172000
C941	C94	0.589000	0.668000	0.999000
C951	C95	0.444000	0.870000	0.329000
H551	H55	0.398500	0.800800	0.273000
H561	H56	0.560500	0.632400	0.004600
H571	H57	0.412700	0.871100	0.362400
N581	N58	0.982000	0.327000	0.725000
N591	N59	0.083000	0.326000	0.628000
N601	N60	0.090000	0.219000	0.546000
C961	C96	0.037000	0.368000	0.728000
C971	C97	0.935000	0.328000	0.775000
C981	C98	0.083000	0.371000	0.672000
C991	C99	0.089000	0.168000	0.499000
C1001	C100	0.944000	0.370000	0.829000
H581	H58	0.898500	0.300800	0.773000
H591	H59	0.060500	0.132400	0.504600
H601	H60	0.912700	0.371100	0.862400
N611	N61	0.018000	0.173000	0.725000
N621	N62	0.917000	0.174000	0.628000
N631	N63	0.910000	0.281000	0.546000
C1011	C101	0.963000	0.132000	0.728000
C1021	C102	0.065000	0.172000	0.775000
C1031	C103	0.917000	0.129000	0.672000
C1041	C104	0.911000	0.332000	0.499000
C1051	C105	0.056000	0.130000	0.829000
H611	H61	0.101500	0.199200	0.773000
H621	H62	0.939500	0.367600	0.504600
H631	H63	0.087300	0.128900	0.862400
N641	N64	0.518000	0.673000	0.225000
N651	N65	0.417000	0.674000	0.128000
N661	N66	0.410000	0.781000	0.046000
C1061	C106	0.463000	0.632000	0.228000
C1071	C107	0.565000	0.672000	0.275000
C1081	C108	0.417000	0.629000	0.172000
C1091	C109	0.411000	0.832000	0.999000
C1101	C110	0.556000	0.630000	0.329000
H641	H64	0.601500	0.699200	0.273000
H651	H65	0.439500	0.867600	0.004600
H661	H66	0.587300	0.628900	0.362400
N671	N67	0.982000	0.673000	0.775000
N681	N68	0.083000	0.674000	0.872000
N691	N69	0.090000	0.781000	0.954000
C1111	C111	0.037000	0.632000	0.772000
C1121	C112	0.935000	0.672000	0.725000
C1131	C113	0.083000	0.629000	0.828000
C1141	C114	0.089000	0.832000	0.001000
C1151	C115	0.944000	0.630000	0.671000
H671	H67	0.898500	0.699200	0.727000
H681	H68	0.060500	0.867600	0.995400
H691	H69	0.912700	0.628900	0.637600
N701	N70	0.482000	0.173000	0.275000
N711	N71	0.583000	0.174000	0.372000
N721	N72	0.590000	0.281000	0.454000
C1161	C116	0.537000	0.132000	0.272000
C1171	C117	0.435000	0.172000	0.225000
C1181	C118	0.583000	0.129000	0.328000
C1191	C119	0.589000	0.332000	0.501000
C1201	C120	0.444000	0.130000	0.171000
H701	H70	0.398500	0.199200	0.227000
H711	H71	0.560500	0.367600	0.495400
H721	H72	0.412700	0.128900	0.137600
Ag11	Ag1	0.375300	0.500000	0.250000
Ag21	Ag2	0.124700	0.500000	0.750000
Ag31	Ag3	0.624700	0.000000	0.250000
Ag41	Ag4	0.875300	0.000000	0.750000
Ag51	Ag5	0.250000	0.375300	0.500000
Ag61	Ag6	0.750000	0.124700	0.500000
Ag71	Ag7	0.250000	0.624700	0.000000
Ag81	Ag8	0.750000	0.875300	0.000000
Ag91	Ag9	0.500000	0.250000	0.375300
Ag101	Ag10	0.500000	0.750000	0.124700
Ag111	Ag11	0.000000	0.250000	0.624700
Ag121	Ag12	0.000000	0.750000	0.875300
N731	N73	0.768000	0.525000	0.577000
N741	N74	0.667000	0.622000	0.576000
N751	N75	0.660000	0.704000	0.469000
C1211	C121	0.713000	0.522000	0.618000
C1221	C122	0.815000	0.475000	0.578000
C1231	C123	0.667000	0.578000	0.621000
C1241	C124	0.661000	0.751000	0.418000
C1251	C125	0.806000	0.421000	0.620000
H731	H73	0.851500	0.477000	0.550800
H741	H74	0.689500	0.745400	0.382400
H751	H75	0.837300	0.387600	0.621100
N761	N76	0.268000	0.025000	0.077000
N771	N77	0.167000	0.122000	0.076000
N781	N78	0.160000	0.204000	0.969000
C1261	C126	0.213000	0.022000	0.118000
C1271	C127	0.315000	0.975000	0.078000
C1281	C128	0.167000	0.078000	0.121000
C1291	C129	0.161000	0.251000	0.918000
C1301	C130	0.306000	0.921000	0.120000
H761	H76	0.351500	0.977000	0.050800
H771	H77	0.189500	0.245400	0.882400
H781	H78	0.337300	0.887600	0.121100
N791	N79	0.732000	0.475000	0.077000
N801	N80	0.833000	0.378000	0.076000
N811	N81	0.840000	0.296000	0.969000
C1311	C131	0.787000	0.478000	0.118000
C1321	C132	0.685000	0.525000	0.078000
C1331	C133	0.833000	0.422000	0.121000
C1341	C134	0.839000	0.249000	0.918000
C1351	C135	0.694000	0.579000	0.120000
H791	H79	0.648500	0.523000	0.050800
H801	H80	0.810500	0.254600	0.882400
H811	H81	0.662700	0.612400	0.121100
N821	N82	0.232000	0.975000	0.577000
N831	N83	0.333000	0.878000	0.576000
N841	N84	0.340000	0.796000	0.469000
C1361	C136	0.287000	0.978000	0.618000
C1371	C137	0.185000	0.025000	0.578000
C1381	C138	0.333000	0.922000	0.621000
C1391	C139	0.339000	0.749000	0.418000
C1401	C140	0.194000	0.079000	0.620000
H821	H82	0.148500	0.023000	0.550800
H831	H83	0.310500	0.754600	0.382400
H841	H84	0.162700	0.112400	0.621100
N851	N85	0.268000	0.975000	0.423000
N861	N86	0.167000	0.878000	0.424000
N871	N87	0.160000	0.796000	0.531000
C1411	C141	0.213000	0.978000	0.382000
C1421	C142	0.315000	0.025000	0.422000
C1431	C143	0.167000	0.922000	0.379000
C1441	C144	0.161000	0.749000	0.582000
C1451	C145	0.306000	0.079000	0.380000
H851	H85	0.351500	0.023000	0.449200
H861	H86	0.189500	0.754600	0.617600
H871	H87	0.337300	0.112400	0.378900
N881	N88	0.768000	0.475000	0.923000
N891	N89	0.667000	0.378000	0.924000
N901	N90	0.660000	0.296000	0.031000
C1461	C146	0.713000	0.478000	0.882000
C1471	C147	0.815000	0.525000	0.922000
C1481	C148	0.667000	0.422000	0.879000
C1491	C149	0.661000	0.249000	0.082000
C1501	C150	0.806000	0.579000	0.880000
H881	H88	0.851500	0.523000	0.949200
H891	H89	0.689500	0.254600	0.117600
H901	H90	0.837300	0.612400	0.878900
N911	N91	0.232000	0.025000	0.923000
N921	N92	0.333000	0.122000	0.924000
N931	N93	0.340000	0.204000	0.031000
C1511	C151	0.287000	0.022000	0.882000
C1521	C152	0.185000	0.975000	0.922000
C1531	C153	0.333000	0.078000	0.879000
C1541	C154	0.339000	0.251000	0.082000
C1551	C155	0.194000	0.921000	0.880000
H911	H91	0.148500	0.977000	0.949200
H921	H92	0.310500	0.245400	0.117600
H931	H93	0.162700	0.887600	0.878900
N941	N94	0.732000	0.525000	0.423000
N951	N95	0.833000	0.622000	0.424000
N961	N96	0.840000	0.704000	0.531000
C1561	C156	0.787000	0.522000	0.382000
C1571	C157	0.685000	0.475000	0.422000
C1581	C158	0.833000	0.578000	0.379000
C1591	C159	0.839000	0.751000	0.582000
C1601	C160	0.694000	0.421000	0.380000
H941	H94	0.648500	0.477000	0.449200
H951	H95	0.810500	0.745400	0.617600
H961	H96	0.662700	0.387600	0.378900
N971	N97	0.525000	0.577000	0.768000
N981	N98	0.622000	0.576000	0.667000
N991	N99	0.704000	0.469000	0.660000
C1611	C161	0.522000	0.618000	0.713000
C1621	C162	0.475000	0.578000	0.815000
C1631	C163	0.578000	0.621000	0.667000
C1641	C164	0.751000	0.418000	0.661000
C1651	C165	0.421000	0.620000	0.806000
H971	H97	0.477000	0.550800	0.851500
H981	H98	0.745400	0.382400	0.689500
H991	H99	0.387600	0.621100	0.837300
N1001	N100	0.025000	0.077000	0.268000
N1011	N101	0.122000	0.076000	0.167000
N1021	N102	0.204000	0.969000	0.160000
C1661	C166	0.022000	0.118000	0.213000
C1671	C167	0.975000	0.078000	0.315000
C1681	C168	0.078000	0.121000	0.167000
C1691	C169	0.251000	0.918000	0.161000
C1701	C170	0.921000	0.120000	0.306000
H1001	H100	0.977000	0.050800	0.351500
H1011	H101	0.245400	0.882400	0.189500
H1021	H102	0.887600	0.121100	0.337300
N1031	N103	0.475000	0.077000	0.732000
N1041	N104	0.378000	0.076000	0.833000
N1051	N105	0.296000	0.969000	0.840000
C1711	C171	0.478000	0.118000	0.787000
C1721	C172	0.525000	0.078000	0.685000
C1731	C173	0.422000	0.121000	0.833000
C1741	C174	0.249000	0.918000	0.839000
C1751	C175	0.579000	0.120000	0.694000
H1031	H103	0.523000	0.050800	0.648500
H1041	H104	0.254600	0.882400	0.810500
H1051	H105	0.612400	0.121100	0.662700
N1061	N106	0.975000	0.577000	0.232000
N1071	N107	0.878000	0.576000	0.333000
N1081	N108	0.796000	0.469000	0.340000
C1761	C176	0.978000	0.618000	0.287000
C1771	C177	0.025000	0.578000	0.185000
C1781	C178	0.922000	0.621000	0.333000
C1791	C179	0.749000	0.418000	0.339000
C1801	C180	0.079000	0.620000	0.194000
H1061	H106	0.023000	0.550800	0.148500
H1071	H107	0.754600	0.382400	0.310500
H1081	H108	0.112400	0.621100	0.162700
N1091	N109	0.975000	0.423000	0.268000
N1101	N110	0.878000	0.424000	0.167000
N1111	N111	0.796000	0.531000	0.160000
C1811	C181	0.978000	0.382000	0.213000
C1821	C182	0.025000	0.422000	0.315000
C1831	C183	0.922000	0.379000	0.167000
C1841	C184	0.749000	0.582000	0.161000
C1851	C185	0.079000	0.380000	0.306000
H1091	H109	0.023000	0.449200	0.351500
H1101	H110	0.754600	0.617600	0.189500
H1111	H111	0.112400	0.378900	0.337300
N1121	N112	0.475000	0.923000	0.768000
N1131	N113	0.378000	0.924000	0.667000
N1141	N114	0.296000	0.031000	0.660000
C1861	C186	0.478000	0.882000	0.713000
C1871	C187	0.525000	0.922000	0.815000
C1881	C188	0.422000	0.879000	0.667000
C1891	C189	0.249000	0.082000	0.661000
C1901	C190	0.579000	0.880000	0.806000
H1121	H112	0.523000	0.949200	0.851500
H1131	H113	0.254600	0.117600	0.689500
H1141	H114	0.612400	0.878900	0.837300
N1151	N115	0.025000	0.923000	0.232000
N1161	N116	0.122000	0.924000	0.333000
N1171	N117	0.204000	0.031000	0.340000
C1911	C191	0.022000	0.882000	0.287000
C1921	C192	0.975000	0.922000	0.185000
C1931	C193	0.078000	0.879000	0.333000
C1941	C194	0.251000	0.082000	0.339000
C1951	C195	0.921000	0.880000	0.194000
H1151	H115	0.977000	0.949200	0.148500
H1161	H116	0.245400	0.117600	0.310500
H1171	H117	0.887600	0.878900	0.162700
N1181	N118	0.525000	0.423000	0.732000
N1191	N119	0.622000	0.424000	0.833000
N1201	N120	0.704000	0.531000	0.840000
C1961	C196	0.522000	0.382000	0.787000
C1971	C197	0.475000	0.422000	0.685000
C1981	C198	0.578000	0.379000	0.833000
C1991	C199	0.751000	0.582000	0.839000
C2001	C200	0.421000	0.380000	0.694000
H1181	H118	0.477000	0.449200	0.648500
H1191	H119	0.745400	0.617600	0.810500
H1201	H120	0.387600	0.378900	0.662700
N1211	N121	0.577000	0.768000	0.525000
N1221	N122	0.576000	0.667000	0.622000
N1231	N123	0.469000	0.660000	0.704000
C2011	C201	0.618000	0.713000	0.522000
C2021	C202	0.578000	0.815000	0.475000
C2031	C203	0.621000	0.667000	0.578000
C2041	C204	0.418000	0.661000	0.751000
C2051	C205	0.620000	0.806000	0.421000
H1211	H121	0.550800	0.851500	0.477000
H1221	H122	0.382400	0.689500	0.745400
H1231	H123	0.621100	0.837300	0.387600
N1241	N124	0.077000	0.268000	0.025000
N1251	N125	0.076000	0.167000	0.122000
N1261	N126	0.969000	0.160000	0.204000
C2061	C206	0.118000	0.213000	0.022000
C2071	C207	0.078000	0.315000	0.975000
C2081	C208	0.121000	0.167000	0.078000
C2091	C209	0.918000	0.161000	0.251000
C2101	C210	0.120000	0.306000	0.921000
H1241	H124	0.050800	0.351500	0.977000
H1251	H125	0.882400	0.189500	0.245400
H1261	H126	0.121100	0.337300	0.887600
N1271	N127	0.077000	0.732000	0.475000
N1281	N128	0.076000	0.833000	0.378000
N1291	N129	0.969000	0.840000	0.296000
C2111	C211	0.118000	0.787000	0.478000
C2121	C212	0.078000	0.685000	0.525000
C2131	C213	0.121000	0.833000	0.422000
C2141	C214	0.918000	0.839000	0.249000
C2151	C215	0.120000	0.694000	0.579000
H1271	H127	0.050800	0.648500	0.523000
H1281	H128	0.882400	0.810500	0.254600
H1291	H129	0.121100	0.662700	0.612400
N1301	N130	0.577000	0.232000	0.975000
N1311	N131	0.576000	0.333000	0.878000
N1321	N132	0.469000	0.340000	0.796000
C2161	C216	0.618000	0.287000	0.978000
C2171	C217	0.578000	0.185000	0.025000
C2181	C218	0.621000	0.333000	0.922000
C2191	C219	0.418000	0.339000	0.749000
C2201	C220	0.620000	0.194000	0.079000
H1301	H130	0.550800	0.148500	0.023000
H1311	H131	0.382400	0.310500	0.754600
H1321	H132	0.621100	0.162700	0.112400
N1331	N133	0.423000	0.268000	0.975000
N1341	N134	0.424000	0.167000	0.878000
N1351	N135	0.531000	0.160000	0.796000
C2211	C221	0.382000	0.213000	0.978000
C2221	C222	0.422000	0.315000	0.025000
C2231	C223	0.379000	0.167000	0.922000
C2241	C224	0.582000	0.161000	0.749000
C2251	C225	0.380000	0.306000	0.079000
H1331	H133	0.449200	0.351500	0.023000
H1341	H134	0.617600	0.189500	0.754600
H1351	H135	0.378900	0.337300	0.112400
N1361	N136	0.923000	0.768000	0.475000
N1371	N137	0.924000	0.667000	0.378000
N1381	N138	0.031000	0.660000	0.296000
C2261	C226	0.882000	0.713000	0.478000
C2271	C227	0.922000	0.815000	0.525000
C2281	C228	0.879000	0.667000	0.422000
C2291	C229	0.082000	0.661000	0.249000
C2301	C230	0.880000	0.806000	0.579000
H1361	H136	0.949200	0.851500	0.523000
H1371	H137	0.117600	0.689500	0.254600
H1381	H138	0.878900	0.837300	0.612400
N1391	N139	0.923000	0.232000	0.025000
N1401	N140	0.924000	0.333000	0.122000
N1411	N141	0.031000	0.340000	0.204000
C2311	C231	0.882000	0.287000	0.022000
C2321	C232	0.922000	0.185000	0.975000
C2331	C233	0.879000	0.333000	0.078000
C2341	C234	0.082000	0.339000	0.251000
C2351	C235	0.880000	0.194000	0.921000
H1391	H139	0.949200	0.148500	0.977000
H1401	H140	0.117600	0.310500	0.245400
H1411	H141	0.878900	0.162700	0.887600
N1421	N142	0.423000	0.732000	0.525000
N1431	N143	0.424000	0.833000	0.622000
N1441	N144	0.531000	0.840000	0.704000
C2361	C236	0.382000	0.787000	0.522000
C2371	C237	0.422000	0.685000	0.475000
C2381	C238	0.379000	0.833000	0.578000
C2391	C239	0.582000	0.839000	0.751000
C2401	C240	0.380000	0.694000	0.421000
H1421	H142	0.449200	0.648500	0.477000
H1431	H143	0.617600	0.810500	0.745400
H1441	H144	0.378900	0.662700	0.387600
Ag131	Ag13	0.750000	0.625300	0.500000
Ag141	Ag14	0.750000	0.374700	0.000000
Ag151	Ag15	0.250000	0.874700	0.500000
Ag161	Ag16	0.250000	0.125300	0.000000
Ag171	Ag17	0.625300	0.500000	0.750000
Ag181	Ag18	0.374700	0.000000	0.750000
Ag191	Ag19	0.874700	0.500000	0.250000
Ag201	Ag20	0.125300	0.000000	0.250000
Ag211	Ag21	0.500000	0.750000	0.625300
Ag221	Ag22	0.000000	0.750000	0.374700
Ag231	Ag23	0.500000	0.250000	0.874700
Ag241	Ag24	0.000000	0.250000	0.125300
