data_TUNJET_clean_PM
_symmetry_space_group_name_H-M	'P1'
_cell_length_a	20.402900
_cell_length_b	17.331000
_cell_length_c	38.679300
_cell_angle_alpha	90.000000
_cell_angle_beta	91.038000
_cell_angle_gamma	90.000000
_symmetry_Int_Tables_number 1

loop_
_symmetry_equiv_pos_as_xyz
'x,y,z'

loop_
_atom_site_label
_atom_site_type_symbol
_atom_site_fract_x
_atom_site_fract_y
_atom_site_fract_z
Br11	Br1	0.573160	0.346900	0.607090
Br21	Br2	0.432980	0.670640	0.649850
Br31	Br3	0.582350	0.626210	0.680450
Br41	Br4	0.952960	0.315620	0.623780
Br51	Br5	0.050930	0.673330	0.621290
Br61	Br6	0.111610	0.358490	0.627520
Br71	Br7	0.891410	0.630800	0.624410
Br81	Br8	0.425800	0.393260	0.575550
Co11	Co1	0.252870	0.576510	0.586260
Co21	Co2	0.750270	0.431340	0.670510
N11	N1	0.246900	0.689000	0.599100
N21	N2	0.755600	0.184700	0.825000
O11	O1	0.632600	0.429400	0.682080
N31	N3	0.232500	0.046700	0.520300
O21	O2	0.165400	0.531600	0.594310
O31	O3	0.685200	0.487000	0.640230
O41	O4	0.325500	0.526300	0.612060
O51	O5	0.830900	0.447400	0.599800
O61	O6	0.376100	0.597000	0.573560
C11	C1	0.955500	0.552700	0.623700
C21	C2	0.113600	0.847500	0.564300
H11	H1	0.124200	0.798700	0.572700
C31	C3	0.047700	0.437000	0.625500
N41	N4	0.735400	0.511300	0.771300
O71	O7	0.169800	0.547300	0.651400
C41	C4	0.022000	0.569800	0.623500
C51	C5	0.376900	0.553900	0.597800
N51	N5	0.255700	0.059100	0.465200
O81	O8	0.840300	0.454900	0.656970
C61	C6	0.981200	0.419500	0.625200
C71	C7	0.250200	0.747200	0.577400
H21	H2	0.259000	0.742000	0.554000
C81	C8	0.232000	0.890400	0.576400
H31	H3	0.261200	0.893400	0.556900
H41	H4	0.244600	0.930400	0.592800
C91	C9	0.934600	0.477300	0.625200
C101	C10	0.052100	0.862100	0.552900
H51	H5	0.020500	0.823500	0.553700
C111	C11	0.538200	0.561100	0.649000
C121	C12	0.475600	0.578900	0.636000
C131	C13	0.472900	0.461100	0.605100
C141	C14	0.632500	0.467300	0.655400
N61	N6	0.239100	0.814900	0.593000
C151	C15	0.639800	0.475500	0.806000
N71	N7	0.736100	0.309400	0.829700
C161	C16	0.568000	0.492000	0.639900
C171	C17	0.526800	0.444300	0.792800
H61	H6	0.486500	0.457000	0.782700
N81	N8	0.759800	0.474600	0.719000
C181	C18	0.594000	0.355600	0.823800
H71	H7	0.599000	0.307700	0.834300
C191	C19	0.068700	0.512100	0.624400
C201	C20	0.035500	0.934800	0.540100
H81	H8	0.993100	0.944600	0.531900
C211	C21	0.442300	0.530700	0.614000
C221	C22	0.144300	0.978600	0.551600
C231	C23	0.208800	0.061000	0.488700
H91	H9	0.165000	0.071100	0.483600
C241	C24	0.162000	0.905000	0.563700
C251	C25	0.695400	0.532300	0.801500
H101	H10	0.677500	0.583800	0.798200
H111	H11	0.722900	0.532800	0.822200
C261	C26	0.141400	0.531200	0.623900
C271	C27	0.534400	0.443700	0.618000
C281	C28	0.801000	0.518500	0.768500
H121	H12	0.830400	0.536000	0.785400
C291	C29	0.227100	0.798300	0.626400
H131	H13	0.217100	0.833700	0.643600
C301	C30	0.728200	0.239700	0.842900
H141	H14	0.705200	0.230600	0.863000
C311	C31	0.311500	0.041800	0.483400
H151	H15	0.352700	0.035400	0.474000
C321	C32	0.710500	0.383500	0.841500
H161	H16	0.702100	0.380500	0.866000
H171	H17	0.743400	0.423100	0.838100
C331	C33	0.193300	0.044700	0.551600
H181	H18	0.169900	0.093100	0.553700
H191	H19	0.222400	0.039800	0.571600
C341	C34	0.082000	0.991800	0.539600
H201	H20	0.070900	0.040300	0.531000
C351	C35	0.232200	0.722300	0.630300
H211	H21	0.226600	0.695800	0.650900
C361	C36	0.647500	0.406900	0.822300
C371	C37	0.578500	0.492900	0.791100
H221	H22	0.573100	0.539600	0.779600
C381	C38	0.712100	0.485100	0.741400
H231	H23	0.668100	0.475200	0.736700
C391	C39	0.535500	0.376300	0.809800
H241	H24	0.500100	0.343000	0.811800
C401	C40	0.815600	0.494700	0.735600
H251	H25	0.857300	0.492800	0.726300
C411	C41	0.861100	0.457600	0.626600
C421	C42	0.782500	0.222400	0.797200
H261	H26	0.804800	0.198300	0.779500
C431	C43	0.772000	0.299700	0.799400
H271	H27	0.785600	0.337800	0.784200
C441	C44	0.297500	0.035200	0.517700
H281	H28	0.327100	0.024900	0.535600
Br91	Br9	0.926840	0.846900	0.392910
Br101	Br10	0.067020	0.170640	0.350150
Br111	Br11	0.917650	0.126210	0.319550
Br121	Br12	0.547040	0.815620	0.376220
Br131	Br13	0.449070	0.173330	0.378710
Br141	Br14	0.388390	0.858490	0.372480
Br151	Br15	0.608590	0.130800	0.375590
Br161	Br16	0.074200	0.893260	0.424450
Co31	Co3	0.247130	0.076510	0.413740
Co41	Co4	0.749730	0.931340	0.329490
N91	N9	0.253100	0.189000	0.400900
N101	N10	0.744400	0.684700	0.175000
O91	O9	0.867400	0.929400	0.317920
N111	N11	0.267500	0.546700	0.479700
O101	O10	0.334600	0.031600	0.405690
O111	O11	0.814800	0.987000	0.359770
O121	O12	0.174500	0.026300	0.387940
O131	O13	0.669100	0.947400	0.400200
O141	O14	0.123900	0.097000	0.426440
C451	C45	0.544500	0.052700	0.376300
C461	C46	0.386400	0.347500	0.435700
H291	H29	0.375800	0.298700	0.427300
C471	C47	0.452300	0.937000	0.374500
N121	N12	0.764600	0.011300	0.228700
O151	O15	0.330200	0.047300	0.348600
C481	C48	0.478000	0.069800	0.376500
C491	C49	0.123100	0.053900	0.402200
N131	N13	0.244300	0.559100	0.534800
O161	O16	0.659700	0.954900	0.343030
C501	C50	0.518800	0.919500	0.374800
C511	C51	0.249800	0.247200	0.422600
H301	H30	0.241000	0.242000	0.446000
C521	C52	0.268000	0.390400	0.423600
H311	H31	0.238800	0.393400	0.443100
H321	H32	0.255400	0.430400	0.407200
C531	C53	0.565400	0.977300	0.374800
C541	C54	0.447900	0.362100	0.447100
H331	H33	0.479500	0.323500	0.446300
C551	C55	0.961800	0.061100	0.351000
C561	C56	0.024400	0.078900	0.364000
C571	C57	0.027100	0.961100	0.394900
C581	C58	0.867500	0.967300	0.344600
N141	N14	0.260900	0.314900	0.407000
C591	C59	0.860200	0.975500	0.194000
N151	N15	0.763900	0.809400	0.170300
C601	C60	0.932000	0.992000	0.360100
C611	C61	0.973200	0.944300	0.207200
H341	H34	0.013500	0.957000	0.217300
N161	N16	0.740200	0.974600	0.281000
C621	C62	0.906000	0.855600	0.176200
H351	H35	0.901000	0.807700	0.165700
C631	C63	0.431300	0.012100	0.375600
C641	C64	0.464500	0.434800	0.459900
H361	H36	0.506900	0.444600	0.468100
C651	C65	0.057700	0.030700	0.386000
C661	C66	0.355700	0.478600	0.448400
C671	C67	0.291200	0.561000	0.511300
H371	H37	0.335000	0.571100	0.516400
C681	C68	0.338000	0.405000	0.436300
C691	C69	0.804600	0.032300	0.198500
H381	H38	0.822500	0.083800	0.201800
H391	H39	0.777100	0.032800	0.177800
C701	C70	0.358600	0.031200	0.376100
C711	C71	0.965600	0.943700	0.382000
C721	C72	0.699000	0.018500	0.231500
H401	H40	0.669600	0.036000	0.214600
C731	C73	0.272900	0.298300	0.373600
H411	H41	0.282900	0.333700	0.356400
C741	C74	0.771800	0.739700	0.157100
H421	H42	0.794800	0.730600	0.137000
C751	C75	0.188500	0.541800	0.516600
H431	H43	0.147300	0.535400	0.526000
C761	C76	0.789500	0.883500	0.158500
H441	H44	0.797900	0.880500	0.134000
H451	H45	0.756600	0.923100	0.161900
C771	C77	0.306700	0.544700	0.448400
H461	H46	0.330100	0.593100	0.446300
H471	H47	0.277600	0.539800	0.428400
C781	C78	0.418000	0.491800	0.460400
H481	H48	0.429100	0.540300	0.469000
C791	C79	0.267800	0.222300	0.369700
H491	H49	0.273400	0.195800	0.349100
C801	C80	0.852500	0.906900	0.177700
C811	C81	0.921500	0.992900	0.208900
H501	H50	0.926900	0.039600	0.220400
C821	C82	0.787900	0.985100	0.258600
H511	H51	0.831900	0.975200	0.263300
C831	C83	0.964500	0.876300	0.190200
H521	H52	0.999900	0.843000	0.188200
C841	C84	0.684400	0.994700	0.264400
H531	H53	0.642700	0.992800	0.273700
C851	C85	0.638900	0.957600	0.373400
C861	C86	0.717500	0.722400	0.202800
H541	H54	0.695200	0.698300	0.220500
C871	C87	0.728000	0.799700	0.200600
H551	H55	0.714400	0.837800	0.215800
C881	C88	0.202500	0.535200	0.482300
H561	H56	0.172900	0.524900	0.464400
Br171	Br17	0.926840	0.153100	0.892910
Br181	Br18	0.067020	0.829360	0.850150
Br191	Br19	0.917650	0.873790	0.819550
Br201	Br20	0.547040	0.184380	0.876220
Br211	Br21	0.449070	0.826670	0.878710
Br221	Br22	0.388390	0.141510	0.872480
Br231	Br23	0.608590	0.869200	0.875590
Br241	Br24	0.074200	0.106740	0.924450
Co51	Co5	0.247130	0.923490	0.913740
Co61	Co6	0.749730	0.068660	0.829490
N171	N17	0.253100	0.811000	0.900900
N181	N18	0.744400	0.315300	0.675000
O171	O17	0.867400	0.070600	0.817920
N191	N19	0.267500	0.453300	0.979700
O181	O18	0.334600	0.968400	0.905690
O191	O19	0.814800	0.013000	0.859770
O201	O20	0.174500	0.973700	0.887940
O211	O21	0.669100	0.052600	0.900200
O221	O22	0.123900	0.903000	0.926440
C891	C89	0.544500	0.947300	0.876300
C901	C90	0.386400	0.652500	0.935700
H571	H57	0.375800	0.701300	0.927300
C911	C91	0.452300	0.063000	0.874500
N201	N20	0.764600	0.988700	0.728700
O231	O23	0.330200	0.952700	0.848600
C921	C92	0.478000	0.930200	0.876500
C931	C93	0.123100	0.946100	0.902200
N211	N21	0.244300	0.440900	0.034800
O241	O24	0.659700	0.045100	0.843030
C941	C94	0.518800	0.080500	0.874800
C951	C95	0.249800	0.752800	0.922600
H581	H58	0.241000	0.758000	0.946000
C961	C96	0.268000	0.609600	0.923600
H591	H59	0.238800	0.606600	0.943100
H601	H60	0.255400	0.569600	0.907200
C971	C97	0.565400	0.022700	0.874800
C981	C98	0.447900	0.637900	0.947100
H611	H61	0.479500	0.676500	0.946300
C991	C99	0.961800	0.938900	0.851000
C1001	C100	0.024400	0.921100	0.864000
C1011	C101	0.027100	0.038900	0.894900
C1021	C102	0.867500	0.032700	0.844600
N221	N22	0.260900	0.685100	0.907000
C1031	C103	0.860200	0.024500	0.694000
N231	N23	0.763900	0.190600	0.670300
C1041	C104	0.932000	0.008000	0.860100
C1051	C105	0.973200	0.055700	0.707200
H621	H62	0.013500	0.043000	0.717300
N241	N24	0.740200	0.025400	0.781000
C1061	C106	0.906000	0.144400	0.676200
H631	H63	0.901000	0.192300	0.665700
C1071	C107	0.431300	0.987900	0.875600
C1081	C108	0.464500	0.565200	0.959900
H641	H64	0.506900	0.555400	0.968100
C1091	C109	0.057700	0.969300	0.886000
C1101	C110	0.355700	0.521400	0.948400
C1111	C111	0.291200	0.439000	0.011300
H651	H65	0.335000	0.428900	0.016400
C1121	C112	0.338000	0.595000	0.936300
C1131	C113	0.804600	0.967700	0.698500
H661	H66	0.822500	0.916200	0.701800
H671	H67	0.777100	0.967200	0.677800
C1141	C114	0.358600	0.968800	0.876100
C1151	C115	0.965600	0.056300	0.882000
C1161	C116	0.699000	0.981500	0.731500
H681	H68	0.669600	0.964000	0.714600
C1171	C117	0.272900	0.701700	0.873600
H691	H69	0.282900	0.666300	0.856400
C1181	C118	0.771800	0.260300	0.657100
H701	H70	0.794800	0.269400	0.637000
C1191	C119	0.188500	0.458200	0.016600
H711	H71	0.147300	0.464600	0.026000
C1201	C120	0.789500	0.116500	0.658500
H721	H72	0.797900	0.119500	0.634000
H731	H73	0.756600	0.076900	0.661900
C1211	C121	0.306700	0.455300	0.948400
H741	H74	0.330100	0.406900	0.946300
H751	H75	0.277600	0.460200	0.928400
C1221	C122	0.418000	0.508200	0.960400
H761	H76	0.429100	0.459700	0.969000
C1231	C123	0.267800	0.777700	0.869700
H771	H77	0.273400	0.804200	0.849100
C1241	C124	0.852500	0.093100	0.677700
C1251	C125	0.921500	0.007100	0.708900
H781	H78	0.926900	0.960400	0.720400
C1261	C126	0.787900	0.014900	0.758600
H791	H79	0.831900	0.024800	0.763300
C1271	C127	0.964500	0.123700	0.690200
H801	H80	0.999900	0.157000	0.688200
C1281	C128	0.684400	0.005300	0.764400
H811	H81	0.642700	0.007200	0.773700
C1291	C129	0.638900	0.042400	0.873400
C1301	C130	0.717500	0.277600	0.702800
H821	H82	0.695200	0.301700	0.720500
C1311	C131	0.728000	0.200300	0.700600
H831	H83	0.714400	0.162200	0.715800
C1321	C132	0.202500	0.464800	0.982300
H841	H84	0.172900	0.475100	0.964400
Br251	Br25	0.573160	0.653100	0.107090
Br261	Br26	0.432980	0.329360	0.149850
Br271	Br27	0.582350	0.373790	0.180450
Br281	Br28	0.952960	0.684380	0.123780
Br291	Br29	0.050930	0.326670	0.121290
Br301	Br30	0.111610	0.641510	0.127520
Br311	Br31	0.891410	0.369200	0.124410
Br321	Br32	0.425800	0.606740	0.075550
Co71	Co7	0.252870	0.423490	0.086260
Co81	Co8	0.750270	0.568660	0.170510
N251	N25	0.246900	0.311000	0.099100
N261	N26	0.755600	0.815300	0.325000
O251	O25	0.632600	0.570600	0.182080
N271	N27	0.232500	0.953300	0.020300
O261	O26	0.165400	0.468400	0.094310
O271	O27	0.685200	0.513000	0.140230
O281	O28	0.325500	0.473700	0.112060
O291	O29	0.830900	0.552600	0.099800
O301	O30	0.376100	0.403000	0.073560
C1331	C133	0.955500	0.447300	0.123700
C1341	C134	0.113600	0.152500	0.064300
H851	H85	0.124200	0.201300	0.072700
C1351	C135	0.047700	0.563000	0.125500
N281	N28	0.735400	0.488700	0.271300
O311	O31	0.169800	0.452700	0.151400
C1361	C136	0.022000	0.430200	0.123500
C1371	C137	0.376900	0.446100	0.097800
N291	N29	0.255700	0.940900	0.965200
O321	O32	0.840300	0.545100	0.156970
C1381	C138	0.981200	0.580500	0.125200
C1391	C139	0.250200	0.252800	0.077400
H861	H86	0.259000	0.258000	0.054000
C1401	C140	0.232000	0.109600	0.076400
H871	H87	0.261200	0.106600	0.056900
H881	H88	0.244600	0.069600	0.092800
C1411	C141	0.934600	0.522700	0.125200
C1421	C142	0.052100	0.137900	0.052900
H891	H89	0.020500	0.176500	0.053700
C1431	C143	0.538200	0.438900	0.149000
C1441	C144	0.475600	0.421100	0.136000
C1451	C145	0.472900	0.538900	0.105100
C1461	C146	0.632500	0.532700	0.155400
N301	N30	0.239100	0.185100	0.093000
C1471	C147	0.639800	0.524500	0.306000
N311	N31	0.736100	0.690600	0.329700
C1481	C148	0.568000	0.508000	0.139900
C1491	C149	0.526800	0.555700	0.292800
H901	H90	0.486500	0.543000	0.282700
N321	N32	0.759800	0.525400	0.219000
C1501	C150	0.594000	0.644400	0.323800
H911	H91	0.599000	0.692300	0.334300
C1511	C151	0.068700	0.487900	0.124400
C1521	C152	0.035500	0.065200	0.040100
H921	H92	0.993100	0.055400	0.031900
C1531	C153	0.442300	0.469300	0.114000
C1541	C154	0.144300	0.021400	0.051600
C1551	C155	0.208800	0.939000	0.988700
H931	H93	0.165000	0.928900	0.983600
C1561	C156	0.162000	0.095000	0.063700
C1571	C157	0.695400	0.467700	0.301500
H941	H94	0.677500	0.416200	0.298200
H951	H95	0.722900	0.467200	0.322200
C1581	C158	0.141400	0.468800	0.123900
C1591	C159	0.534400	0.556300	0.118000
C1601	C160	0.801000	0.481500	0.268500
H961	H96	0.830400	0.464000	0.285400
C1611	C161	0.227100	0.201700	0.126400
H971	H97	0.217100	0.166300	0.143600
C1621	C162	0.728200	0.760300	0.342900
H981	H98	0.705200	0.769400	0.363000
C1631	C163	0.311500	0.958200	0.983400
H991	H99	0.352700	0.964600	0.974000
C1641	C164	0.710500	0.616500	0.341500
H1001	H100	0.702100	0.619500	0.366000
H1011	H101	0.743400	0.576900	0.338100
C1651	C165	0.193300	0.955300	0.051600
H1021	H102	0.169900	0.906900	0.053700
H1031	H103	0.222400	0.960200	0.071600
C1661	C166	0.082000	0.008200	0.039600
H1041	H104	0.070900	0.959700	0.031000
C1671	C167	0.232200	0.277700	0.130300
H1051	H105	0.226600	0.304200	0.150900
C1681	C168	0.647500	0.593100	0.322300
C1691	C169	0.578500	0.507100	0.291100
H1061	H106	0.573100	0.460400	0.279600
C1701	C170	0.712100	0.514900	0.241400
H1071	H107	0.668100	0.524800	0.236700
C1711	C171	0.535500	0.623700	0.309800
H1081	H108	0.500100	0.657000	0.311800
C1721	C172	0.815600	0.505300	0.235600
H1091	H109	0.857300	0.507200	0.226300
C1731	C173	0.861100	0.542400	0.126600
C1741	C174	0.782500	0.777600	0.297200
H1101	H110	0.804800	0.801700	0.279500
C1751	C175	0.772000	0.700300	0.299400
H1111	H111	0.785600	0.662200	0.284200
C1761	C176	0.297500	0.964800	0.017700
H1121	H112	0.327100	0.975100	0.035600
Br331	Br33	0.073160	0.846900	0.107090
Br341	Br34	0.932980	0.170640	0.149850
Br351	Br35	0.082350	0.126210	0.180450
Br361	Br36	0.452960	0.815620	0.123780
Br371	Br37	0.550930	0.173330	0.121290
Br381	Br38	0.611610	0.858490	0.127520
Br391	Br39	0.391410	0.130800	0.124410
Br401	Br40	0.925800	0.893260	0.075550
Co91	Co9	0.752870	0.076510	0.086260
Co101	Co10	0.250270	0.931340	0.170510
N331	N33	0.746900	0.189000	0.099100
N341	N34	0.255600	0.684700	0.325000
O331	O33	0.132600	0.929400	0.182080
N351	N35	0.732500	0.546700	0.020300
O341	O34	0.665400	0.031600	0.094310
O351	O35	0.185200	0.987000	0.140230
O361	O36	0.825500	0.026300	0.112060
O371	O37	0.330900	0.947400	0.099800
O381	O38	0.876100	0.097000	0.073560
C1771	C177	0.455500	0.052700	0.123700
C1781	C178	0.613600	0.347500	0.064300
H1131	H113	0.624200	0.298700	0.072700
C1791	C179	0.547700	0.937000	0.125500
N361	N36	0.235400	0.011300	0.271300
O391	O39	0.669800	0.047300	0.151400
C1801	C180	0.522000	0.069800	0.123500
C1811	C181	0.876900	0.053900	0.097800
N371	N37	0.755700	0.559100	0.965200
O401	O40	0.340300	0.954900	0.156970
C1821	C182	0.481200	0.919500	0.125200
C1831	C183	0.750200	0.247200	0.077400
H1141	H114	0.759000	0.242000	0.054000
C1841	C184	0.732000	0.390400	0.076400
H1151	H115	0.761200	0.393400	0.056900
H1161	H116	0.744600	0.430400	0.092800
C1851	C185	0.434600	0.977300	0.125200
C1861	C186	0.552100	0.362100	0.052900
H1171	H117	0.520500	0.323500	0.053700
C1871	C187	0.038200	0.061100	0.149000
C1881	C188	0.975600	0.078900	0.136000
C1891	C189	0.972900	0.961100	0.105100
C1901	C190	0.132500	0.967300	0.155400
N381	N38	0.739100	0.314900	0.093000
C1911	C191	0.139800	0.975500	0.306000
N391	N39	0.236100	0.809400	0.329700
C1921	C192	0.068000	0.992000	0.139900
C1931	C193	0.026800	0.944300	0.292800
H1181	H118	0.986500	0.957000	0.282700
N401	N40	0.259800	0.974600	0.219000
C1941	C194	0.094000	0.855600	0.323800
H1191	H119	0.099000	0.807700	0.334300
C1951	C195	0.568700	0.012100	0.124400
C1961	C196	0.535500	0.434800	0.040100
H1201	H120	0.493100	0.444600	0.031900
C1971	C197	0.942300	0.030700	0.114000
C1981	C198	0.644300	0.478600	0.051600
C1991	C199	0.708800	0.561000	0.988700
H1211	H121	0.665000	0.571100	0.983600
C2001	C200	0.662000	0.405000	0.063700
C2011	C201	0.195400	0.032300	0.301500
H1221	H122	0.177500	0.083800	0.298200
H1231	H123	0.222900	0.032800	0.322200
C2021	C202	0.641400	0.031200	0.123900
C2031	C203	0.034400	0.943700	0.118000
C2041	C204	0.301000	0.018500	0.268500
H1241	H124	0.330400	0.036000	0.285400
C2051	C205	0.727100	0.298300	0.126400
H1251	H125	0.717100	0.333700	0.143600
C2061	C206	0.228200	0.739700	0.342900
H1261	H126	0.205200	0.730600	0.363000
C2071	C207	0.811500	0.541800	0.983400
H1271	H127	0.852700	0.535400	0.974000
C2081	C208	0.210500	0.883500	0.341500
H1281	H128	0.202100	0.880500	0.366000
H1291	H129	0.243400	0.923100	0.338100
C2091	C209	0.693300	0.544700	0.051600
H1301	H130	0.669900	0.593100	0.053700
H1311	H131	0.722400	0.539800	0.071600
C2101	C210	0.582000	0.491800	0.039600
H1321	H132	0.570900	0.540300	0.031000
C2111	C211	0.732200	0.222300	0.130300
H1331	H133	0.726600	0.195800	0.150900
C2121	C212	0.147500	0.906900	0.322300
C2131	C213	0.078500	0.992900	0.291100
H1341	H134	0.073100	0.039600	0.279600
C2141	C214	0.212100	0.985100	0.241400
H1351	H135	0.168100	0.975200	0.236700
C2151	C215	0.035500	0.876300	0.309800
H1361	H136	0.000100	0.843000	0.311800
C2161	C216	0.315600	0.994700	0.235600
H1371	H137	0.357300	0.992800	0.226300
C2171	C217	0.361100	0.957600	0.126600
C2181	C218	0.282500	0.722400	0.297200
H1381	H138	0.304800	0.698300	0.279500
C2191	C219	0.272000	0.799700	0.299400
H1391	H139	0.285600	0.837800	0.284200
C2201	C220	0.797500	0.535200	0.017700
H1401	H140	0.827100	0.524900	0.035600
Br411	Br41	0.426840	0.346900	0.892910
Br421	Br42	0.567020	0.670640	0.850150
Br431	Br43	0.417650	0.626210	0.819550
Br441	Br44	0.047040	0.315620	0.876220
Br451	Br45	0.949070	0.673330	0.878710
Br461	Br46	0.888390	0.358490	0.872480
Br471	Br47	0.108590	0.630800	0.875590
Br481	Br48	0.574200	0.393260	0.924450
Co111	Co11	0.747130	0.576510	0.913740
Co121	Co12	0.249730	0.431340	0.829490
N411	N41	0.753100	0.689000	0.900900
N421	N42	0.244400	0.184700	0.675000
O411	O41	0.367400	0.429400	0.817920
N431	N43	0.767500	0.046700	0.979700
O421	O42	0.834600	0.531600	0.905690
O431	O43	0.314800	0.487000	0.859770
O441	O44	0.674500	0.526300	0.887940
O451	O45	0.169100	0.447400	0.900200
O461	O46	0.623900	0.597000	0.926440
C2211	C221	0.044500	0.552700	0.876300
C2221	C222	0.886400	0.847500	0.935700
H1411	H141	0.875800	0.798700	0.927300
C2231	C223	0.952300	0.437000	0.874500
N441	N44	0.264600	0.511300	0.728700
O471	O47	0.830200	0.547300	0.848600
C2241	C224	0.978000	0.569800	0.876500
C2251	C225	0.623100	0.553900	0.902200
N451	N45	0.744300	0.059100	0.034800
O481	O48	0.159700	0.454900	0.843030
C2261	C226	0.018800	0.419500	0.874800
C2271	C227	0.749800	0.747200	0.922600
H1421	H142	0.741000	0.742000	0.946000
C2281	C228	0.768000	0.890400	0.923600
H1431	H143	0.738800	0.893400	0.943100
H1441	H144	0.755400	0.930400	0.907200
C2291	C229	0.065400	0.477300	0.874800
C2301	C230	0.947900	0.862100	0.947100
H1451	H145	0.979500	0.823500	0.946300
C2311	C231	0.461800	0.561100	0.851000
C2321	C232	0.524400	0.578900	0.864000
C2331	C233	0.527100	0.461100	0.894900
C2341	C234	0.367500	0.467300	0.844600
N461	N46	0.760900	0.814900	0.907000
C2351	C235	0.360200	0.475500	0.694000
N471	N47	0.263900	0.309400	0.670300
C2361	C236	0.432000	0.492000	0.860100
C2371	C237	0.473200	0.444300	0.707200
H1461	H146	0.513500	0.457000	0.717300
N481	N48	0.240200	0.474600	0.781000
C2381	C238	0.406000	0.355600	0.676200
H1471	H147	0.401000	0.307700	0.665700
C2391	C239	0.931300	0.512100	0.875600
C2401	C240	0.964500	0.934800	0.959900
H1481	H148	0.006900	0.944600	0.968100
C2411	C241	0.557700	0.530700	0.886000
C2421	C242	0.855700	0.978600	0.948400
C2431	C243	0.791200	0.061000	0.011300
H1491	H149	0.835000	0.071100	0.016400
C2441	C244	0.838000	0.905000	0.936300
C2451	C245	0.304600	0.532300	0.698500
H1501	H150	0.322500	0.583800	0.701800
H1511	H151	0.277100	0.532800	0.677800
C2461	C246	0.858600	0.531200	0.876100
C2471	C247	0.465600	0.443700	0.882000
C2481	C248	0.199000	0.518500	0.731500
H1521	H152	0.169600	0.536000	0.714600
C2491	C249	0.772900	0.798300	0.873600
H1531	H153	0.782900	0.833700	0.856400
C2501	C250	0.271800	0.239700	0.657100
H1541	H154	0.294800	0.230600	0.637000
C2511	C251	0.688500	0.041800	0.016600
H1551	H155	0.647300	0.035400	0.026000
C2521	C252	0.289500	0.383500	0.658500
H1561	H156	0.297900	0.380500	0.634000
H1571	H157	0.256600	0.423100	0.661900
C2531	C253	0.806700	0.044700	0.948400
H1581	H158	0.830100	0.093100	0.946300
H1591	H159	0.777600	0.039800	0.928400
C2541	C254	0.918000	0.991800	0.960400
H1601	H160	0.929100	0.040300	0.969000
C2551	C255	0.767800	0.722300	0.869700
H1611	H161	0.773400	0.695800	0.849100
C2561	C256	0.352500	0.406900	0.677700
C2571	C257	0.421500	0.492900	0.708900
H1621	H162	0.426900	0.539600	0.720400
C2581	C258	0.287900	0.485100	0.758600
H1631	H163	0.331900	0.475200	0.763300
C2591	C259	0.464500	0.376300	0.690200
H1641	H164	0.499900	0.343000	0.688200
C2601	C260	0.184400	0.494700	0.764400
H1651	H165	0.142700	0.492800	0.773700
C2611	C261	0.138900	0.457600	0.873400
C2621	C262	0.217500	0.222400	0.702800
H1661	H166	0.195200	0.198300	0.720500
C2631	C263	0.228000	0.299700	0.700600
H1671	H167	0.214400	0.337800	0.715800
C2641	C264	0.702500	0.035200	0.982300
H1681	H168	0.672900	0.024900	0.964400
Br491	Br49	0.426840	0.653100	0.392910
Br501	Br50	0.567020	0.329360	0.350150
Br511	Br51	0.417650	0.373790	0.319550
Br521	Br52	0.047040	0.684380	0.376220
Br531	Br53	0.949070	0.326670	0.378710
Br541	Br54	0.888390	0.641510	0.372480
Br551	Br55	0.108590	0.369200	0.375590
Br561	Br56	0.574200	0.606740	0.424450
Co131	Co13	0.747130	0.423490	0.413740
Co141	Co14	0.249730	0.568660	0.329490
N491	N49	0.753100	0.311000	0.400900
N501	N50	0.244400	0.815300	0.175000
O491	O49	0.367400	0.570600	0.317920
N511	N51	0.767500	0.953300	0.479700
O501	O50	0.834600	0.468400	0.405690
O511	O51	0.314800	0.513000	0.359770
O521	O52	0.674500	0.473700	0.387940
O531	O53	0.169100	0.552600	0.400200
O541	O54	0.623900	0.403000	0.426440
C2651	C265	0.044500	0.447300	0.376300
C2661	C266	0.886400	0.152500	0.435700
H1691	H169	0.875800	0.201300	0.427300
C2671	C267	0.952300	0.563000	0.374500
N521	N52	0.264600	0.488700	0.228700
O551	O55	0.830200	0.452700	0.348600
C2681	C268	0.978000	0.430200	0.376500
C2691	C269	0.623100	0.446100	0.402200
N531	N53	0.744300	0.940900	0.534800
O561	O56	0.159700	0.545100	0.343030
C2701	C270	0.018800	0.580500	0.374800
C2711	C271	0.749800	0.252800	0.422600
H1701	H170	0.741000	0.258000	0.446000
C2721	C272	0.768000	0.109600	0.423600
H1711	H171	0.738800	0.106600	0.443100
H1721	H172	0.755400	0.069600	0.407200
C2731	C273	0.065400	0.522700	0.374800
C2741	C274	0.947900	0.137900	0.447100
H1731	H173	0.979500	0.176500	0.446300
C2751	C275	0.461800	0.438900	0.351000
C2761	C276	0.524400	0.421100	0.364000
C2771	C277	0.527100	0.538900	0.394900
C2781	C278	0.367500	0.532700	0.344600
N541	N54	0.760900	0.185100	0.407000
C2791	C279	0.360200	0.524500	0.194000
N551	N55	0.263900	0.690600	0.170300
C2801	C280	0.432000	0.508000	0.360100
C2811	C281	0.473200	0.555700	0.207200
H1741	H174	0.513500	0.543000	0.217300
N561	N56	0.240200	0.525400	0.281000
C2821	C282	0.406000	0.644400	0.176200
H1751	H175	0.401000	0.692300	0.165700
C2831	C283	0.931300	0.487900	0.375600
C2841	C284	0.964500	0.065200	0.459900
H1761	H176	0.006900	0.055400	0.468100
C2851	C285	0.557700	0.469300	0.386000
C2861	C286	0.855700	0.021400	0.448400
C2871	C287	0.791200	0.939000	0.511300
H1771	H177	0.835000	0.928900	0.516400
C2881	C288	0.838000	0.095000	0.436300
C2891	C289	0.304600	0.467700	0.198500
H1781	H178	0.322500	0.416200	0.201800
H1791	H179	0.277100	0.467200	0.177800
C2901	C290	0.858600	0.468800	0.376100
C2911	C291	0.465600	0.556300	0.382000
C2921	C292	0.199000	0.481500	0.231500
H1801	H180	0.169600	0.464000	0.214600
C2931	C293	0.772900	0.201700	0.373600
H1811	H181	0.782900	0.166300	0.356400
C2941	C294	0.271800	0.760300	0.157100
H1821	H182	0.294800	0.769400	0.137000
C2951	C295	0.688500	0.958200	0.516600
H1831	H183	0.647300	0.964600	0.526000
C2961	C296	0.289500	0.616500	0.158500
H1841	H184	0.297900	0.619500	0.134000
H1851	H185	0.256600	0.576900	0.161900
C2971	C297	0.806700	0.955300	0.448400
H1861	H186	0.830100	0.906900	0.446300
H1871	H187	0.777600	0.960200	0.428400
C2981	C298	0.918000	0.008200	0.460400
H1881	H188	0.929100	0.959700	0.469000
C2991	C299	0.767800	0.277700	0.369700
H1891	H189	0.773400	0.304200	0.349100
C3001	C300	0.352500	0.593100	0.177700
C3011	C301	0.421500	0.507100	0.208900
H1901	H190	0.426900	0.460400	0.220400
C3021	C302	0.287900	0.514900	0.258600
H1911	H191	0.331900	0.524800	0.263300
C3031	C303	0.464500	0.623700	0.190200
H1921	H192	0.499900	0.657000	0.188200
C3041	C304	0.184400	0.505300	0.264400
H1931	H193	0.142700	0.507200	0.273700
C3051	C305	0.138900	0.542400	0.373400
C3061	C306	0.217500	0.777600	0.202800
H1941	H194	0.195200	0.801700	0.220500
C3071	C307	0.228000	0.700300	0.200600
H1951	H195	0.214400	0.662200	0.215800
C3081	C308	0.702500	0.964800	0.482300
H1961	H196	0.672900	0.975100	0.464400
Br571	Br57	0.073160	0.153100	0.607090
Br581	Br58	0.932980	0.829360	0.649850
Br591	Br59	0.082350	0.873790	0.680450
Br601	Br60	0.452960	0.184380	0.623780
Br611	Br61	0.550930	0.826670	0.621290
Br621	Br62	0.611610	0.141510	0.627520
Br631	Br63	0.391410	0.869200	0.624410
Br641	Br64	0.925800	0.106740	0.575550
Co151	Co15	0.752870	0.923490	0.586260
Co161	Co16	0.250270	0.068660	0.670510
N571	N57	0.746900	0.811000	0.599100
N581	N58	0.255600	0.315300	0.825000
O571	O57	0.132600	0.070600	0.682080
N591	N59	0.732500	0.453300	0.520300
O581	O58	0.665400	0.968400	0.594310
O591	O59	0.185200	0.013000	0.640230
O601	O60	0.825500	0.973700	0.612060
O611	O61	0.330900	0.052600	0.599800
O621	O62	0.876100	0.903000	0.573560
C3091	C309	0.455500	0.947300	0.623700
C3101	C310	0.613600	0.652500	0.564300
H1971	H197	0.624200	0.701300	0.572700
C3111	C311	0.547700	0.063000	0.625500
N601	N60	0.235400	0.988700	0.771300
O631	O63	0.669800	0.952700	0.651400
C3121	C312	0.522000	0.930200	0.623500
C3131	C313	0.876900	0.946100	0.597800
N611	N61	0.755700	0.440900	0.465200
O641	O64	0.340300	0.045100	0.656970
C3141	C314	0.481200	0.080500	0.625200
C3151	C315	0.750200	0.752800	0.577400
H1981	H198	0.759000	0.758000	0.554000
C3161	C316	0.732000	0.609600	0.576400
H1991	H199	0.761200	0.606600	0.556900
H2001	H200	0.744600	0.569600	0.592800
C3171	C317	0.434600	0.022700	0.625200
C3181	C318	0.552100	0.637900	0.552900
H2011	H201	0.520500	0.676500	0.553700
C3191	C319	0.038200	0.938900	0.649000
C3201	C320	0.975600	0.921100	0.636000
C3211	C321	0.972900	0.038900	0.605100
C3221	C322	0.132500	0.032700	0.655400
N621	N62	0.739100	0.685100	0.593000
C3231	C323	0.139800	0.024500	0.806000
N631	N63	0.236100	0.190600	0.829700
C3241	C324	0.068000	0.008000	0.639900
C3251	C325	0.026800	0.055700	0.792800
H2021	H202	0.986500	0.043000	0.782700
N641	N64	0.259800	0.025400	0.719000
C3261	C326	0.094000	0.144400	0.823800
H2031	H203	0.099000	0.192300	0.834300
C3271	C327	0.568700	0.987900	0.624400
C3281	C328	0.535500	0.565200	0.540100
H2041	H204	0.493100	0.555400	0.531900
C3291	C329	0.942300	0.969300	0.614000
C3301	C330	0.644300	0.521400	0.551600
C3311	C331	0.708800	0.439000	0.488700
H2051	H205	0.665000	0.428900	0.483600
C3321	C332	0.662000	0.595000	0.563700
C3331	C333	0.195400	0.967700	0.801500
H2061	H206	0.177500	0.916200	0.798200
H2071	H207	0.222900	0.967200	0.822200
C3341	C334	0.641400	0.968800	0.623900
C3351	C335	0.034400	0.056300	0.618000
C3361	C336	0.301000	0.981500	0.768500
H2081	H208	0.330400	0.964000	0.785400
C3371	C337	0.727100	0.701700	0.626400
H2091	H209	0.717100	0.666300	0.643600
C3381	C338	0.228200	0.260300	0.842900
H2101	H210	0.205200	0.269400	0.863000
C3391	C339	0.811500	0.458200	0.483400
H2111	H211	0.852700	0.464600	0.474000
C3401	C340	0.210500	0.116500	0.841500
H2121	H212	0.202100	0.119500	0.866000
H2131	H213	0.243400	0.076900	0.838100
C3411	C341	0.693300	0.455300	0.551600
H2141	H214	0.669900	0.406900	0.553700
H2151	H215	0.722400	0.460200	0.571600
C3421	C342	0.582000	0.508200	0.539600
H2161	H216	0.570900	0.459700	0.531000
C3431	C343	0.732200	0.777700	0.630300
H2171	H217	0.726600	0.804200	0.650900
C3441	C344	0.147500	0.093100	0.822300
C3451	C345	0.078500	0.007100	0.791100
H2181	H218	0.073100	0.960400	0.779600
C3461	C346	0.212100	0.014900	0.741400
H2191	H219	0.168100	0.024800	0.736700
C3471	C347	0.035500	0.123700	0.809800
H2201	H220	0.000100	0.157000	0.811800
C3481	C348	0.315600	0.005300	0.735600
H2211	H221	0.357300	0.007200	0.726300
C3491	C349	0.361100	0.042400	0.626600
C3501	C350	0.282500	0.277600	0.797200
H2221	H222	0.304800	0.301700	0.779500
C3511	C351	0.272000	0.200300	0.799400
H2231	H223	0.285600	0.162200	0.784200
C3521	C352	0.797500	0.464800	0.517700
H2241	H224	0.827100	0.475100	0.535600
