data_TUPGIU_clean_PM
_symmetry_space_group_name_H-M	'P1'
_cell_length_a	6.971000
_cell_length_b	12.540000
_cell_length_c	13.212000
_cell_angle_alpha	112.620000
_cell_angle_beta	96.100000
_cell_angle_gamma	93.440000
_symmetry_Int_Tables_number 1

loop_
_symmetry_equiv_pos_as_xyz
'x,y,z'

loop_
_atom_site_label
_atom_site_type_symbol
_atom_site_fract_x
_atom_site_fract_y
_atom_site_fract_z
Na11	Na1	0.248600	0.539900	0.479500
O11	O1	0.281500	0.485900	0.287200
O21	O2	0.568200	0.478200	0.372900
N11	N1	0.756600	0.490700	0.188800
C11	C1	0.461100	0.485100	0.294500
C21	C2	0.540600	0.490100	0.192400
C31	C3	0.860600	0.596800	0.280900
C41	C4	0.825900	0.382200	0.195100
C51	C5	0.787100	0.494100	0.077800
C61	C6	0.996900	0.503400	0.058500
O31	O3	0.025800	0.369500	0.445100
O41	O4	0.908000	0.184000	0.368200
N21	N2	0.235800	0.127600	0.243500
C71	C7	0.034200	0.265000	0.387500
C81	C8	0.223600	0.243300	0.336500
C91	C9	0.432100	0.136100	0.209100
C101	C10	0.219300	0.029800	0.281900
C111	C11	0.079700	0.110300	0.149000
C121	C12	0.081200	0.001400	0.043800
Na21	Na2	0.751400	0.460100	0.520500
O51	O5	0.718500	0.514100	0.712800
O61	O6	0.431800	0.521800	0.627100
N31	N3	0.243400	0.509300	0.811200
C131	C13	0.538900	0.514900	0.705500
C141	C14	0.459400	0.509900	0.807600
C151	C15	0.139400	0.403200	0.719100
C161	C16	0.174100	0.617800	0.804900
C171	C17	0.212900	0.505900	0.922200
C181	C18	0.003100	0.496600	0.941500
O71	O7	0.974200	0.630500	0.554900
O81	O8	0.092000	0.816000	0.631800
N41	N4	0.764200	0.872400	0.756500
C191	C19	0.965800	0.735000	0.612500
C201	C20	0.776400	0.756700	0.663500
C211	C21	0.567900	0.863900	0.790900
C221	C22	0.780700	0.970200	0.718100
C231	C23	0.920300	0.889700	0.851000
C241	C24	0.918800	0.998600	0.956200
