data_TURDUH_clean_PM
_symmetry_space_group_name_H-M	'P1'
_cell_length_a	11.439300
_cell_length_b	24.674900
_cell_length_c	20.324500
_cell_angle_alpha	90.000000
_cell_angle_beta	92.347100
_cell_angle_gamma	90.000000
_symmetry_Int_Tables_number 1

loop_
_symmetry_equiv_pos_as_xyz
'x,y,z'

loop_
_atom_site_label
_atom_site_type_symbol
_atom_site_fract_x
_atom_site_fract_y
_atom_site_fract_z
Co11	Co1	0.444760	0.509370	0.263800
O11	O1	0.447600	0.544630	0.356280
O21	O2	0.440300	0.481490	0.169430
N11	N1	0.634200	0.508850	0.262940
O31	O3	0.439200	0.595710	0.243040
N21	N2	0.538700	0.928520	0.698350
N31	N3	0.254700	0.503660	0.265880
C11	C1	0.427300	0.594310	0.360990
C21	C2	0.441700	0.505250	0.114680
C31	C3	0.693100	0.514200	0.207900
C41	C4	0.697400	0.500300	0.319200
H11	H1	0.500000	0.605600	0.223000
C51	C5	0.420300	0.629000	0.298340
O41	O4	0.416500	0.619510	0.414810
O51	O5	0.454300	0.555150	0.106250
C61	C6	0.426300	0.468170	0.054600
H21	H2	0.649900	0.520200	0.167600
C71	C7	0.813700	0.511400	0.206700
H31	H3	0.657100	0.496100	0.358800
C81	C8	0.818300	0.497410	0.322200
H41	H4	0.484400	0.656600	0.301600
C91	C9	0.304000	0.658840	0.291900
Co21	Co2	0.425150	0.591580	0.510200
Co31	Co3	0.442960	0.587680	0.011720
O61	O6	0.416100	0.500880	0.996550
H51	H5	0.352700	0.446700	0.058500
C101	C10	0.528800	0.429410	0.052700
H61	H6	0.851700	0.515000	0.166200
C111	C11	0.878700	0.503510	0.264600
H71	H7	0.859500	0.491300	0.363100
C121	C12	0.212100	0.639300	0.252600
C131	C13	0.288100	0.705900	0.328500
N41	N4	0.234900	0.598550	0.511470
O71	O7	0.440600	0.556930	0.604270
N51	N5	0.433400	0.671160	0.552270
O81	O8	0.404200	0.504760	0.493310
N61	N6	0.615000	0.596770	0.506970
N71	N7	0.632500	0.588250	0.009060
O91	O9	0.437100	0.614010	0.916060
N81	N8	0.457000	0.667060	0.053360
N91	N9	0.252400	0.595860	0.012490
H81	H8	0.347000	0.498300	0.973700
C141	C14	0.517800	0.377800	0.078300
C151	C15	0.633900	0.444800	0.027100
C161	C16	0.009100	0.502180	0.265400
H91	H9	0.222900	0.608000	0.226300
C171	C17	0.103000	0.665400	0.251200
H101	H10	0.351200	0.720600	0.354600
C181	C18	0.178500	0.731500	0.326700
C191	C19	0.176100	0.582600	0.563500
C201	C20	0.171600	0.620460	0.460600
C211	C21	0.442700	0.506590	0.610850
C221	C22	0.417300	0.679630	0.615900
C231	C23	0.465800	0.714400	0.516800
C241	C24	0.432000	0.470850	0.548900
H111	H11	0.333000	0.497000	0.476000
C251	C25	0.692300	0.581800	0.953800
C261	C26	0.694900	0.601190	0.064600
C271	C27	0.446900	0.589780	0.862300
C281	C28	0.410200	0.678770	0.110900
C291	C29	0.518600	0.706200	0.024700
H121	H12	0.445900	0.366700	0.095800
C301	C30	0.613800	0.341600	0.078400
H131	H13	0.641500	0.480200	0.009400
C311	C31	0.729200	0.409300	0.026700
C321	C32	0.074700	0.515670	0.321100
C331	C33	0.068800	0.487590	0.209300
H141	H14	0.040400	0.651600	0.223900
C341	C34	0.086400	0.710300	0.288700
H151	H15	0.167500	0.763500	0.351700
H161	H16	0.219000	0.568500	0.600600
C351	C35	0.055300	0.585900	0.565800
C361	C36	0.050800	0.624090	0.459200
H171	H17	0.211900	0.634000	0.424200
O101	O10	0.451900	0.481450	0.664620
H181	H18	0.392200	0.650000	0.641600
C371	C37	0.435100	0.729320	0.646600
C381	C38	0.484500	0.765100	0.544000
H191	H19	0.476300	0.709800	0.471100
C391	C39	0.544300	0.439720	0.541200
H201	H20	0.366700	0.444400	0.554100
H211	H21	0.649800	0.573900	0.913800
C401	C40	0.813400	0.586100	0.952700
H221	H22	0.654100	0.607300	0.103700
C411	C41	0.815500	0.606020	0.067400
O111	O11	0.460400	0.539540	0.855340
C421	C42	0.443200	0.625910	0.800500
H231	H23	0.365100	0.651800	0.131400
C431	C43	0.424300	0.728130	0.141700
C441	C44	0.537200	0.756500	0.052700
H241	H24	0.550800	0.698800	0.983300
H251	H25	0.607400	0.306300	0.096400
C451	C45	0.717300	0.358600	0.051800
H261	H26	0.801100	0.420400	0.009200
C461	C46	0.196500	0.515900	0.319800
H271	H27	0.037300	0.524800	0.360500
C471	C47	0.189600	0.488420	0.211900
H281	H28	0.026800	0.477300	0.169900
H291	H29	0.011600	0.727100	0.288800
C481	C48	0.990000	0.605150	0.512500
H301	H30	0.017600	0.574800	0.604300
H311	H31	0.009800	0.639400	0.422100
Co41	Co4	0.457710	0.505980	0.761120
H321	H32	0.422600	0.733100	0.692300
C491	C49	0.471200	0.773260	0.610600
H331	H33	0.506600	0.794500	0.516900
C501	C50	0.560600	0.391700	0.573900
C511	C51	0.630100	0.459300	0.503300
H341	H34	0.852100	0.581300	0.912700
C521	C52	0.877100	0.597380	0.010500
H351	H35	0.855900	0.615100	0.107600
O121	O12	0.465200	0.592940	0.744700
H361	H36	0.507000	0.653500	0.805500
C531	C53	0.326900	0.655400	0.792690
C541	C54	0.489600	0.768450	0.112500
H371	H37	0.389600	0.734700	0.182600
H381	H38	0.582500	0.782800	0.031100
H391	H39	0.781500	0.334200	0.051100
H401	H40	0.240200	0.525200	0.358900
H411	H41	0.229200	0.477700	0.173800
C551	C55	0.860000	0.604890	0.511000
N101	N10	0.646800	0.501380	0.759680
N111	N11	0.535000	0.926050	0.199230
N121	N12	0.267000	0.501090	0.759980
C561	C56	0.494500	0.826630	0.641500
C571	C57	0.670300	0.365600	0.570100
H421	H42	0.500000	0.376300	0.598500
C581	C58	0.736900	0.433300	0.500900
H431	H43	0.616500	0.491300	0.478200
C591	C59	0.007100	0.599460	0.011500
H441	H44	0.514000	0.603000	0.726000
C601	C60	0.237900	0.636710	0.751100
C611	C61	0.308500	0.701700	0.830600
C621	C62	0.506700	0.822680	0.143500
C631	C63	0.796000	0.598330	0.451700
C641	C64	0.797500	0.609500	0.567700
C651	C65	0.704600	0.508800	0.704500
C661	C66	0.711300	0.491170	0.814400
C671	C67	0.447600	0.841640	0.700900
C681	C68	0.566600	0.864400	0.612200
C691	C69	0.756400	0.386300	0.533500
H451	H45	0.684100	0.332800	0.593600
H461	H46	0.797200	0.448700	0.476100
C701	C70	0.073200	0.583200	0.067300
C711	C71	0.067300	0.615550	0.957300
H471	H47	0.250100	0.605700	0.724400
C721	C72	0.129400	0.663000	0.747700
H481	H48	0.369400	0.715000	0.859400
C731	C73	0.201600	0.728400	0.826300
C741	C74	0.507800	0.830500	0.210700
C751	C75	0.521000	0.868000	0.105200
C761	C76	0.675300	0.594930	0.452000
H491	H49	0.835000	0.596200	0.411400
C771	C77	0.677100	0.605100	0.563600
H501	H50	0.837200	0.615600	0.609000
C781	C78	0.824500	0.507000	0.702500
H511	H51	0.660600	0.515700	0.664700
C791	C79	0.831900	0.488750	0.817300
H521	H52	0.671700	0.485200	0.853900
C801	C80	0.471700	0.891930	0.727300
H531	H53	0.398800	0.817100	0.723200
C811	C81	0.585400	0.914900	0.641900
H541	H54	0.602700	0.855900	0.572200
H551	H55	0.829100	0.367900	0.530900
H561	H56	0.035500	0.573500	0.106400
C821	C82	0.193700	0.581310	0.065360
C831	C83	0.189100	0.613650	0.959800
H571	H57	0.025900	0.627800	0.918700
H581	H58	0.068100	0.649600	0.719300
C841	C84	0.111300	0.708200	0.785500
H591	H59	0.190100	0.760300	0.851300
C851	C85	0.521200	0.882500	0.236100
H601	H60	0.499400	0.800500	0.239500
C861	C86	0.534300	0.918000	0.134700
H611	H61	0.521700	0.864800	0.058600
H621	H62	0.633100	0.591100	0.411000
H631	H63	0.635900	0.608100	0.603100
C871	C87	0.891700	0.497600	0.759800
H641	H64	0.861400	0.512200	0.662000
H651	H65	0.873500	0.481200	0.857700
H661	H66	0.439300	0.901100	0.768200
H671	H67	0.633500	0.940500	0.621000
H681	H68	0.237100	0.569100	0.103400
H691	H69	0.229200	0.625500	0.922400
H701	H70	0.037200	0.725600	0.783600
H711	H71	0.520500	0.887000	0.282500
H721	H72	0.543500	0.948600	0.107100
C881	C88	0.021500	0.497920	0.760100
C891	C89	0.087800	0.511330	0.815700
C901	C90	0.082200	0.484500	0.703800
C911	C91	0.208200	0.512420	0.814000
H731	H73	0.050600	0.519800	0.855400
C921	C92	0.202300	0.486300	0.706300
H741	H74	0.040600	0.474200	0.664400
H751	H75	0.251800	0.521700	0.853200
H761	H76	0.241900	0.476500	0.667800
Co51	Co5	0.555240	0.009370	0.736200
O131	O13	0.552400	0.044630	0.643720
O141	O14	0.559700	0.981490	0.830570
N131	N13	0.365800	0.008850	0.737060
O151	O15	0.560800	0.095710	0.756960
N141	N14	0.461300	0.428520	0.301650
N151	N15	0.745300	0.003660	0.734120
C931	C93	0.572700	0.094310	0.639010
C941	C94	0.558300	0.005250	0.885320
C951	C95	0.306900	0.014200	0.792100
C961	C96	0.302600	0.000300	0.680800
H771	H77	0.500000	0.105600	0.777000
C971	C97	0.579700	0.129000	0.701660
O161	O16	0.583500	0.119510	0.585190
O171	O17	0.545700	0.055150	0.893750
C981	C98	0.573700	0.968170	0.945400
H781	H78	0.350100	0.020200	0.832400
C991	C99	0.186300	0.011400	0.793300
H791	H79	0.342900	0.996100	0.641200
C1001	C100	0.181700	0.997410	0.677800
H801	H80	0.515600	0.156600	0.698400
C1011	C101	0.696000	0.158840	0.708100
Co61	Co6	0.574850	0.091580	0.489800
Co71	Co7	0.557040	0.087680	0.988280
O181	O18	0.583900	0.000880	0.003450
H811	H81	0.647300	0.946700	0.941500
C1021	C102	0.471200	0.929410	0.947300
H821	H82	0.148300	0.015000	0.833800
C1031	C103	0.121300	0.003510	0.735400
H831	H83	0.140500	0.991300	0.636900
C1041	C104	0.787900	0.139300	0.747400
C1051	C105	0.711900	0.205900	0.671500
N161	N16	0.765100	0.098550	0.488530
O191	O19	0.559400	0.056930	0.395730
N171	N17	0.566600	0.171160	0.447730
O201	O20	0.595800	0.004760	0.506690
N181	N18	0.385000	0.096770	0.493030
N191	N19	0.367500	0.088250	0.990940
O211	O21	0.562900	0.114010	0.083940
N201	N20	0.543000	0.167060	0.946640
N211	N21	0.747600	0.095860	0.987510
H841	H84	0.653000	0.998300	0.026300
C1061	C106	0.482200	0.877800	0.921700
C1071	C107	0.366100	0.944800	0.972900
C1081	C108	0.990900	0.002180	0.734600
H851	H85	0.777100	0.108000	0.773700
C1091	C109	0.897000	0.165400	0.748800
H861	H86	0.648800	0.220600	0.645400
C1101	C110	0.821500	0.231500	0.673300
C1111	C111	0.823900	0.082600	0.436500
C1121	C112	0.828400	0.120460	0.539400
C1131	C113	0.557300	0.006590	0.389150
C1141	C114	0.582700	0.179630	0.384100
C1151	C115	0.534200	0.214400	0.483200
C1161	C116	0.568000	0.970850	0.451100
H871	H87	0.667000	0.997000	0.524000
C1171	C117	0.307700	0.081800	0.046200
C1181	C118	0.305100	0.101190	0.935400
C1191	C119	0.553100	0.089780	0.137700
C1201	C120	0.589800	0.178770	0.889100
C1211	C121	0.481400	0.206200	0.975300
H881	H88	0.554100	0.866700	0.904200
C1221	C122	0.386200	0.841600	0.921600
H891	H89	0.358500	0.980200	0.990600
C1231	C123	0.270800	0.909300	0.973300
C1241	C124	0.925300	0.015670	0.678900
C1251	C125	0.931200	0.987590	0.790700
H901	H90	0.959600	0.151600	0.776100
C1261	C126	0.913600	0.210300	0.711300
H911	H91	0.832500	0.263500	0.648300
H921	H92	0.781000	0.068500	0.399400
C1271	C127	0.944700	0.085900	0.434200
C1281	C128	0.949200	0.124090	0.540800
H931	H93	0.788100	0.134000	0.575800
O221	O22	0.548100	0.981450	0.335380
H941	H94	0.607800	0.150000	0.358400
C1291	C129	0.564900	0.229320	0.353400
C1301	C130	0.515500	0.265100	0.456000
H951	H95	0.523700	0.209800	0.528900
C1311	C131	0.455700	0.939720	0.458800
H961	H96	0.633300	0.944400	0.445900
H971	H97	0.350200	0.073900	0.086200
C1321	C132	0.186600	0.086100	0.047300
H981	H98	0.345900	0.107300	0.896300
C1331	C133	0.184500	0.106020	0.932600
O231	O23	0.539600	0.039540	0.144660
C1341	C134	0.556800	0.125910	0.199500
H991	H99	0.634900	0.151800	0.868600
C1351	C135	0.575700	0.228130	0.858300
C1361	C136	0.462800	0.256500	0.947300
H1001	H100	0.449200	0.198800	0.016700
H1011	H101	0.392600	0.806300	0.903600
C1371	C137	0.282700	0.858600	0.948200
H1021	H102	0.198900	0.920400	0.990800
C1381	C138	0.803500	0.015900	0.680200
H1031	H103	0.962700	0.024800	0.639500
C1391	C139	0.810400	0.988420	0.788100
H1041	H104	0.973200	0.977300	0.830100
H1051	H105	0.988400	0.227100	0.711200
C1401	C140	0.010000	0.105150	0.487500
H1061	H106	0.982400	0.074800	0.395700
H1071	H107	0.990200	0.139400	0.577900
Co81	Co8	0.542290	0.005980	0.238880
H1081	H108	0.577400	0.233100	0.307700
C1411	C141	0.528800	0.273260	0.389400
H1091	H109	0.493400	0.294500	0.483100
C1421	C142	0.439400	0.891700	0.426100
C1431	C143	0.369900	0.959300	0.496700
H1101	H110	0.147900	0.081300	0.087300
C1441	C144	0.122900	0.097380	0.989500
H1111	H111	0.144100	0.115100	0.892400
O241	O24	0.534800	0.092940	0.255300
H1121	H112	0.493000	0.153500	0.194500
C1451	C145	0.673100	0.155400	0.207310
C1461	C146	0.510400	0.268450	0.887500
H1131	H113	0.610400	0.234700	0.817400
H1141	H114	0.417500	0.282800	0.968900
H1151	H115	0.218500	0.834200	0.948900
H1161	H116	0.759800	0.025200	0.641100
H1171	H117	0.770800	0.977700	0.826200
C1471	C147	0.140000	0.104890	0.489000
N221	N22	0.353200	0.001380	0.240320
N231	N23	0.465000	0.426050	0.800770
N241	N24	0.733000	0.001090	0.240020
C1481	C148	0.505500	0.326630	0.358500
C1491	C149	0.329700	0.865600	0.429900
H1181	H118	0.500000	0.876300	0.401500
C1501	C150	0.263100	0.933300	0.499100
H1191	H119	0.383500	0.991300	0.521800
C1511	C151	0.992900	0.099460	0.988500
H1201	H120	0.486000	0.103000	0.274000
C1521	C152	0.762100	0.136710	0.248900
C1531	C153	0.691500	0.201700	0.169400
C1541	C154	0.493300	0.322680	0.856500
C1551	C155	0.204000	0.098330	0.548300
C1561	C156	0.202500	0.109500	0.432300
C1571	C157	0.295400	0.008800	0.295500
C1581	C158	0.288700	0.991170	0.185600
C1591	C159	0.552400	0.341640	0.299100
C1601	C160	0.433400	0.364400	0.387800
C1611	C161	0.243600	0.886300	0.466500
H1211	H121	0.315900	0.832800	0.406400
H1221	H122	0.202800	0.948700	0.523900
C1621	C162	0.926800	0.083200	0.932700
C1631	C163	0.932700	0.115550	0.042700
H1231	H123	0.749900	0.105700	0.275600
C1641	C164	0.870600	0.163000	0.252300
H1241	H124	0.630600	0.215000	0.140600
C1651	C165	0.798400	0.228400	0.173700
C1661	C166	0.492200	0.330500	0.789300
C1671	C167	0.479000	0.368000	0.894800
C1681	C168	0.324700	0.094930	0.548000
H1251	H125	0.165000	0.096200	0.588600
C1691	C169	0.322900	0.105100	0.436400
H1261	H126	0.162800	0.115600	0.391000
C1701	C170	0.175500	0.007000	0.297500
H1271	H127	0.339400	0.015700	0.335300
C1711	C171	0.168100	0.988750	0.182700
H1281	H128	0.328300	0.985200	0.146100
C1721	C172	0.528300	0.391930	0.272700
H1291	H129	0.601200	0.317100	0.276800
C1731	C173	0.414600	0.414900	0.358100
H1301	H130	0.397300	0.355900	0.427800
H1311	H131	0.170900	0.867900	0.469100
H1321	H132	0.964500	0.073500	0.893600
C1741	C174	0.806300	0.081310	0.934640
C1751	C175	0.810900	0.113650	0.040200
H1331	H133	0.974100	0.127800	0.081300
H1341	H134	0.931900	0.149600	0.280700
C1761	C176	0.888700	0.208200	0.214500
H1351	H135	0.809900	0.260300	0.148700
C1771	C177	0.478800	0.382500	0.763900
H1361	H136	0.500600	0.300500	0.760500
C1781	C178	0.465700	0.418000	0.865300
H1371	H137	0.478300	0.364800	0.941400
H1381	H138	0.366900	0.091100	0.589000
H1391	H139	0.364100	0.108100	0.396900
C1791	C179	0.108300	0.997600	0.240200
H1401	H140	0.138600	0.012200	0.338000
H1411	H141	0.126500	0.981200	0.142300
H1421	H142	0.560700	0.401100	0.231800
H1431	H143	0.366500	0.440500	0.379000
H1441	H144	0.762900	0.069100	0.896600
H1451	H145	0.770800	0.125500	0.077600
H1461	H146	0.962800	0.225600	0.216400
H1471	H147	0.479500	0.387000	0.717500
H1481	H148	0.456500	0.448600	0.892900
C1801	C180	0.978500	0.997920	0.239900
C1811	C181	0.912200	0.011330	0.184300
C1821	C182	0.917800	0.984500	0.296200
C1831	C183	0.791800	0.012420	0.186000
H1491	H149	0.949400	0.019800	0.144600
C1841	C184	0.797700	0.986300	0.293700
H1501	H150	0.959400	0.974200	0.335600
H1511	H151	0.748200	0.021700	0.146800
H1521	H152	0.758100	0.976500	0.332200
