data_TURDIV_clean_PM
_symmetry_space_group_name_H-M	'P1'
_cell_length_a	10.241600
_cell_length_b	24.956000
_cell_length_c	11.445300
_cell_angle_alpha	90.000000
_cell_angle_beta	91.106000
_cell_angle_gamma	90.000000
_symmetry_Int_Tables_number 1

loop_
_symmetry_equiv_pos_as_xyz
'x,y,z'

loop_
_atom_site_label
_atom_site_type_symbol
_atom_site_fract_x
_atom_site_fract_y
_atom_site_fract_z
Co11	Co1	0.549130	0.861450	0.452440
Co21	Co2	0.049840	0.941290	0.435740
O11	O1	0.736400	0.893700	0.447500
O21	O2	0.236200	0.908800	0.441000
N11	N1	0.537900	0.853000	0.262500
N21	N2	0.546800	0.857400	0.641700
O31	O3	0.860500	0.966600	0.431300
N31	N3	0.050000	0.944800	0.622600
O41	O4	0.360700	0.835700	0.451600
C11	C1	0.252500	0.859500	0.443800
C21	C2	0.944100	0.960900	0.684600
H11	H1	0.867300	0.971100	0.642300
C31	C3	0.430400	0.855100	0.200700
H21	H2	0.349900	0.857700	0.240100
N41	N4	0.048900	0.946900	0.246000
C41	C4	0.159500	0.934900	0.695800
H31	H3	0.238200	0.925200	0.658500
C51	C5	0.650300	0.870900	0.713700
H41	H4	0.727200	0.883200	0.677000
O51	O5	0.017600	0.854800	0.422300
H51	H5	0.960000	0.835000	0.382000
N51	N5	0.873800	0.520700	0.560500
O61	O6	0.518000	0.947900	0.451100
H61	H6	0.467000	0.957000	0.510000
C61	C6	0.546900	0.849700	0.891200
N61	N6	0.631000	0.782700	0.465600
C71	C7	0.051900	0.951100	0.002900
C81	C8	0.163600	0.937600	0.814000
H71	H7	0.242400	0.930300	0.856200
C91	C9	0.544300	0.848600	0.017500
C101	C10	0.653400	0.868600	0.830100
H81	H8	0.729500	0.880000	0.871800
C111	C11	0.750700	0.942700	0.437900
C121	C12	0.428100	0.853800	0.080800
H91	H9	0.346900	0.856500	0.039700
C131	C13	0.133000	0.823000	0.438000
H101	H10	0.141100	0.799000	0.368500
C141	C14	0.942400	0.963400	0.805500
H111	H11	0.864600	0.973700	0.843400
C151	C15	0.652100	0.846100	0.206000
H121	H12	0.730700	0.843000	0.250800
C161	C16	0.749800	0.530800	0.544800
H131	H13	0.691500	0.501200	0.544900
C171	C17	0.052900	0.951100	0.871300
C181	C18	0.158600	0.954500	0.187900
H141	H14	0.237800	0.958000	0.231900
C191	C19	0.950000	0.563300	0.569000
H151	H15	0.039300	0.558300	0.590700
C201	C20	0.939700	0.942100	0.184200
H161	H16	0.860600	0.936700	0.224500
C211	C21	0.164200	0.957700	0.071200
H171	H17	0.245300	0.964400	0.035100
C221	C22	0.657800	0.843500	0.088400
H181	H18	0.739800	0.838000	0.052800
C231	C23	0.445600	0.836700	0.701600
H191	H19	0.373400	0.823400	0.657000
C241	C24	0.776200	0.624500	0.530200
C251	C25	0.725000	0.679600	0.508300
C261	C26	0.934500	0.944400	0.065300
H201	H20	0.853100	0.941500	0.024600
C271	C27	0.438200	0.833200	0.821800
H211	H21	0.361500	0.820000	0.857200
C281	C28	0.631200	0.979700	0.430900
H221	H22	0.639200	0.008100	0.492200
C291	C29	0.905700	0.614400	0.549000
H231	H23	0.966200	0.643200	0.548400
C301	C30	0.805400	0.723400	0.521800
H241	H24	0.894100	0.719000	0.545700
C311	C31	0.697100	0.580400	0.528200
H251	H25	0.605700	0.584300	0.515400
C321	C32	0.599100	0.688000	0.470900
H261	H26	0.541100	0.658600	0.460700
C331	C33	0.551100	0.984000	0.217300
H271	H27	0.494300	0.954700	0.231100
C341	C34	0.624900	0.005600	0.310100
C351	C35	0.064600	0.805900	0.647300
H281	H28	0.014100	0.837900	0.647300
C361	C36	0.195400	0.738600	0.545100
H291	H29	0.233500	0.724700	0.476400
C371	C37	0.128300	0.788100	0.546300
C381	C38	0.202000	0.711000	0.654000
H301	H30	0.248400	0.678000	0.657100
C391	C39	0.705100	0.049700	0.287300
H311	H31	0.754600	0.065800	0.349000
C401	C40	0.712200	0.069500	0.177000
H321	H32	0.765700	0.099900	0.163300
C411	C41	0.643800	0.046700	0.083800
H331	H33	0.654400	0.059500	0.006400
C421	C42	0.559600	0.004700	0.106800
H341	H34	0.507200	0.990000	0.045300
C431	C43	0.079000	0.774100	0.748200
H351	H35	0.038400	0.786100	0.817200
C441	C44	0.753900	0.774800	0.499600
H361	H36	0.809500	0.805000	0.509400
C451	C45	0.556300	0.740400	0.447700
H371	H37	0.470100	0.745500	0.417800
C461	C46	0.145000	0.729200	0.754000
H381	H38	0.154000	0.710000	0.825500
Co31	Co3	0.450870	0.361450	0.547560
Co41	Co4	0.950160	0.441290	0.564260
O71	O7	0.263600	0.393700	0.552500
O81	O8	0.763800	0.408800	0.559000
N71	N7	0.462100	0.353000	0.737500
N81	N8	0.453200	0.357400	0.358300
O91	O9	0.139500	0.466600	0.568700
N91	N9	0.950000	0.444800	0.377400
O101	O10	0.639300	0.335700	0.548400
C471	C47	0.747500	0.359500	0.556200
C481	C48	0.055900	0.460900	0.315400
H391	H39	0.132700	0.471100	0.357700
C491	C49	0.569600	0.355100	0.799300
H401	H40	0.650100	0.357700	0.759900
N101	N10	0.951100	0.446900	0.754000
C501	C50	0.840500	0.434900	0.304200
H411	H41	0.761800	0.425200	0.341500
C511	C51	0.349700	0.370900	0.286300
H421	H42	0.272800	0.383200	0.323000
O111	O11	0.982400	0.354800	0.577700
H431	H43	0.040000	0.335000	0.618000
N111	N11	0.126200	0.020700	0.439500
O121	O12	0.482000	0.447900	0.548900
H441	H44	0.533000	0.457000	0.490000
C521	C52	0.453100	0.349700	0.108800
N121	N12	0.369000	0.282700	0.534400
C531	C53	0.948100	0.451100	0.997100
C541	C54	0.836400	0.437600	0.186000
H451	H45	0.757600	0.430300	0.143800
C551	C55	0.455700	0.348600	0.982500
C561	C56	0.346600	0.368600	0.169900
H461	H46	0.270500	0.380000	0.128200
C571	C57	0.249300	0.442700	0.562100
C581	C58	0.571900	0.353800	0.919200
H471	H47	0.653100	0.356500	0.960300
C591	C59	0.867000	0.323000	0.562000
H481	H48	0.858900	0.299000	0.631500
C601	C60	0.057600	0.463400	0.194500
H491	H49	0.135400	0.473700	0.156600
C611	C61	0.347900	0.346100	0.794000
H501	H50	0.269300	0.343000	0.749200
C621	C62	0.250200	0.030800	0.455200
H511	H51	0.308500	0.001200	0.455100
C631	C63	0.947100	0.451100	0.128700
C641	C64	0.841400	0.454500	0.812100
H521	H52	0.762200	0.458000	0.768100
C651	C65	0.050000	0.063300	0.431000
H531	H53	0.960700	0.058300	0.409300
C661	C66	0.060300	0.442100	0.815800
H541	H54	0.139400	0.436700	0.775500
C671	C67	0.835800	0.457700	0.928800
H551	H55	0.754700	0.464400	0.964900
C681	C68	0.342200	0.343500	0.911600
H561	H56	0.260200	0.338000	0.947200
C691	C69	0.554400	0.336700	0.298400
H571	H57	0.626600	0.323400	0.343000
C701	C70	0.223800	0.124500	0.469800
C711	C71	0.275000	0.179600	0.491700
C721	C72	0.065500	0.444400	0.934700
H581	H58	0.146900	0.441500	0.975400
C731	C73	0.561800	0.333200	0.178200
H591	H59	0.638500	0.320000	0.142800
C741	C74	0.368800	0.479700	0.569100
H601	H60	0.360800	0.508100	0.507800
C751	C75	0.094300	0.114400	0.451000
H611	H61	0.033800	0.143200	0.451600
C761	C76	0.194600	0.223400	0.478200
H621	H62	0.105900	0.219000	0.454300
C771	C77	0.302900	0.080400	0.471800
H631	H63	0.394300	0.084300	0.484600
C781	C78	0.400900	0.188000	0.529100
H641	H64	0.458900	0.158600	0.539300
C791	C79	0.448900	0.484000	0.782700
H651	H65	0.505700	0.454700	0.768900
C801	C80	0.375100	0.505600	0.689900
C811	C81	0.935400	0.305900	0.352700
H661	H66	0.985900	0.337900	0.352700
C821	C82	0.804600	0.238600	0.454900
H671	H67	0.766500	0.224700	0.523600
C831	C83	0.871700	0.288100	0.453700
C841	C84	0.798000	0.211000	0.346000
H681	H68	0.751600	0.178000	0.342900
C851	C85	0.294900	0.549700	0.712700
H691	H69	0.245400	0.565800	0.651000
C861	C86	0.287800	0.569500	0.823000
H701	H70	0.234300	0.599900	0.836700
C871	C87	0.356200	0.546700	0.916200
H711	H71	0.345600	0.559500	0.993600
C881	C88	0.440400	0.504700	0.893200
H721	H72	0.492800	0.490000	0.954700
C891	C89	0.921000	0.274100	0.251800
H731	H73	0.961600	0.286100	0.182800
C901	C90	0.246100	0.274800	0.500400
H741	H74	0.190500	0.305000	0.490600
C911	C91	0.443700	0.240400	0.552300
H751	H75	0.529900	0.245500	0.582200
C921	C92	0.855000	0.229200	0.246000
H761	H76	0.846000	0.210000	0.174500
