data_TURFET_clean_PM
_symmetry_space_group_name_H-M	'P1'
_cell_length_a	10.229200
_cell_length_b	24.700200
_cell_length_c	11.424300
_cell_angle_alpha	90.000000
_cell_angle_beta	90.087000
_cell_angle_gamma	90.000000
_symmetry_Int_Tables_number 1

loop_
_symmetry_equiv_pos_as_xyz
'x,y,z'

loop_
_atom_site_label
_atom_site_type_symbol
_atom_site_fract_x
_atom_site_fract_y
_atom_site_fract_z
Co11	Co1	0.955680	0.181830	0.079180
Co21	Co2	0.456870	0.261130	0.056560
O11	O1	0.768800	0.214200	0.075000
O21	O2	0.268700	0.228300	0.064200
O31	O3	0.646500	0.288000	0.055500
O41	O4	0.145100	0.155600	0.081400
N11	N1	0.956700	0.176100	0.267600
N21	N2	0.957100	0.177900	0.887200
N31	N3	0.460000	0.264000	0.865000
C11	C1	0.849100	0.183800	0.828900
H11	H1	0.770600	0.190100	0.871000
N41	N4	0.463000	0.268600	0.244000
C21	C2	0.251700	0.179400	0.073700
N51	N5	0.375800	0.340800	0.041600
C31	C3	0.356300	0.252500	0.803700
H21	H2	0.281100	0.240000	0.844200
O51	O5	0.986900	0.269200	0.090900
H31	H3	0.035000	0.283000	0.146000
C41	C4	0.953700	0.171000	0.511800
N61	N6	0.123100	0.601800	0.927400
C51	C5	0.348700	0.257400	0.683500
H41	H4	0.268100	0.250900	0.644500
O61	O6	0.486400	0.173600	0.050800
H51	H5	0.506000	0.170000	0.976000
C61	C6	0.065100	0.181100	0.332800
H61	H6	0.145300	0.187200	0.293200
C71	C7	0.955600	0.171400	0.641200
C81	C8	0.843500	0.181400	0.708300
H71	H7	0.762000	0.186600	0.669900
C91	C9	0.576300	0.267900	0.430600
H81	H8	0.657100	0.266300	0.471600
C101	C10	0.563100	0.283200	0.807800
H91	H9	0.637600	0.294500	0.851200
C111	C11	0.062700	0.162900	0.827000
H101	H10	0.140200	0.154400	0.869100
C121	C12	0.068300	0.178000	0.450900
H111	H11	0.149100	0.180800	0.491600
C131	C13	0.459000	0.271800	0.619600
C141	C14	0.842100	0.163200	0.449200
H121	H12	0.762200	0.155500	0.487900
C151	C15	0.460600	0.272900	0.489800
C161	C16	0.754200	0.265400	0.066800
C171	C17	0.565300	0.287300	0.683500
H131	H13	0.640900	0.300800	0.645100
C181	C18	0.572700	0.265300	0.310900
H141	H14	0.653600	0.260800	0.271400
C191	C19	0.846400	0.166700	0.330400
H151	H15	0.766800	0.162300	0.288600
C201	C20	0.065000	0.159100	0.707900
H161	H16	0.142900	0.147900	0.669900
C211	C21	0.373000	0.142600	0.075500
H171	H17	0.362700	0.114800	0.012500
C221	C22	0.277000	0.443200	0.990000
C231	C23	0.875100	0.301500	0.072300
H181	H18	0.865600	0.326800	0.140100
C241	C24	0.352400	0.276500	0.303800
H191	H19	0.273200	0.280600	0.261200
C251	C25	0.247700	0.592500	0.937700
H201	H20	0.305800	0.622300	0.930600
C261	C26	0.252600	0.349400	0.021600
H211	H21	0.195400	0.319100	0.024300
C271	C27	0.452400	0.382500	0.034000
H221	H22	0.543600	0.377600	0.045800
C281	C28	0.223500	0.498400	0.963600
C291	C29	0.882000	0.334900	0.960300
C301	C30	0.347700	0.279100	0.423700
H231	H23	0.266500	0.285200	0.461700
C311	C31	0.405200	0.434600	0.009000
H241	H24	0.464500	0.464100	0.005800
C321	C32	0.198800	0.399200	0.996800
H251	H25	0.107300	0.402600	0.984600
C331	C33	0.052400	0.559000	0.927000
H261	H26	0.961200	0.563500	0.914800
C341	C34	0.381700	0.113600	0.191800
C351	C35	0.371000	0.068300	0.418000
H271	H27	0.371800	0.052100	0.493000
C361	C36	0.455800	0.135300	0.281000
H281	H28	0.511800	0.165300	0.267600
C371	C37	0.301300	0.541900	0.958400
H291	H29	0.393000	0.538000	0.968900
C381	C38	0.096300	0.507500	0.944000
H301	H30	0.036700	0.478000	0.941100
C391	C39	0.949200	0.316600	0.864900
H311	H31	0.997400	0.283700	0.867800
C401	C40	0.301800	0.069700	0.219700
H321	H32	0.250300	0.053800	0.159500
C411	C41	0.811300	0.415300	0.857000
H331	H33	0.765900	0.448900	0.856200
C421	C42	0.945000	0.349300	0.757800
H341	H34	0.988900	0.338400	0.688700
C431	C43	0.816800	0.383700	0.957000
H351	H35	0.774100	0.396100	0.025700
C441	C44	0.872000	0.396700	0.762000
H361	H36	0.865900	0.417500	0.692300
C451	C45	0.446000	0.111500	0.392900
H371	H37	0.495100	0.127100	0.454900
C461	C46	0.295000	0.048800	0.328800
H381	H38	0.235500	0.020100	0.344200
Co31	Co3	0.044320	0.681830	0.920820
Co41	Co4	0.543130	0.761130	0.943440
O71	O7	0.231200	0.714200	0.925000
O81	O8	0.731300	0.728300	0.935800
O91	O9	0.353500	0.788000	0.944500
O101	O10	0.854900	0.655600	0.918600
N71	N7	0.043300	0.676100	0.732400
N81	N8	0.042900	0.677900	0.112800
N91	N9	0.540000	0.764000	0.135000
C471	C47	0.150900	0.683800	0.171100
H391	H39	0.229400	0.690100	0.129000
N101	N10	0.537000	0.768600	0.756000
C481	C48	0.748300	0.679400	0.926300
N111	N11	0.624200	0.840800	0.958400
C491	C49	0.643700	0.752500	0.196300
H401	H40	0.718900	0.740000	0.155800
O111	O11	0.013100	0.769200	0.909100
H411	H41	0.965000	0.783000	0.854000
C501	C50	0.046300	0.671000	0.488200
N121	N12	0.876900	0.101800	0.072600
C511	C51	0.651300	0.757400	0.316500
H421	H42	0.731900	0.750900	0.355500
O121	O12	0.513600	0.673600	0.949200
H431	H43	0.494000	0.670000	0.024000
C521	C52	0.934900	0.681100	0.667200
H441	H44	0.854700	0.687200	0.706800
C531	C53	0.044400	0.671400	0.358800
C541	C54	0.156500	0.681400	0.291700
H451	H45	0.238000	0.686600	0.330100
C551	C55	0.423700	0.767900	0.569400
H461	H46	0.342900	0.766300	0.528400
C561	C56	0.436900	0.783200	0.192200
H471	H47	0.362400	0.794500	0.148800
C571	C57	0.937300	0.662900	0.173000
H481	H48	0.859800	0.654400	0.130900
C581	C58	0.931700	0.678000	0.549100
H491	H49	0.850900	0.680800	0.508400
C591	C59	0.541000	0.771800	0.380400
C601	C60	0.157900	0.663200	0.550800
H501	H50	0.237800	0.655500	0.512100
C611	C61	0.539400	0.772900	0.510200
C621	C62	0.245800	0.765400	0.933200
C631	C63	0.434700	0.787300	0.316500
H511	H51	0.359100	0.800800	0.354900
C641	C64	0.427300	0.765300	0.689100
H521	H52	0.346400	0.760800	0.728600
C651	C65	0.153600	0.666700	0.669600
H531	H53	0.233200	0.662300	0.711400
C661	C66	0.935000	0.659100	0.292100
H541	H54	0.857100	0.647900	0.330100
C671	C67	0.627000	0.642600	0.924500
H551	H55	0.637300	0.614800	0.987500
C681	C68	0.723000	0.943200	0.010000
C691	C69	0.124900	0.801500	0.927700
H561	H56	0.134400	0.826800	0.859900
C701	C70	0.647600	0.776500	0.696200
H571	H57	0.726800	0.780600	0.738800
C711	C71	0.752300	0.092500	0.062300
H581	H58	0.694200	0.122300	0.069400
C721	C72	0.747400	0.849400	0.978400
H591	H59	0.804600	0.819100	0.975700
C731	C73	0.547600	0.882500	0.966000
H601	H60	0.456400	0.877600	0.954200
C741	C74	0.776500	0.998400	0.036400
C751	C75	0.118000	0.834900	0.039700
C761	C76	0.652300	0.779100	0.576300
H611	H61	0.733500	0.785200	0.538300
C771	C77	0.594800	0.934600	0.991000
H621	H62	0.535500	0.964100	0.994200
C781	C78	0.801200	0.899200	0.003200
H631	H63	0.892700	0.902600	0.015400
C791	C79	0.947600	0.059000	0.073000
H641	H64	0.038800	0.063500	0.085200
C801	C80	0.618300	0.613600	0.808200
C811	C81	0.629000	0.568300	0.582000
H651	H65	0.628200	0.552100	0.507000
C821	C82	0.544200	0.635300	0.719000
H661	H66	0.488200	0.665300	0.732400
C831	C83	0.698700	0.041900	0.041600
H671	H67	0.607000	0.038000	0.031100
C841	C84	0.903700	0.007500	0.056000
H681	H68	0.963300	0.978000	0.058900
C851	C85	0.050800	0.816600	0.135100
H691	H69	0.002600	0.783700	0.132200
C861	C86	0.698200	0.569700	0.780300
H701	H70	0.749700	0.553800	0.840500
C871	C87	0.188700	0.915300	0.143000
H711	H71	0.234100	0.948900	0.143800
C881	C88	0.055000	0.849300	0.242200
H721	H72	0.011100	0.838400	0.311300
C891	C89	0.183200	0.883700	0.043000
H731	H73	0.225900	0.896100	0.974300
C901	C90	0.128000	0.896700	0.238000
H741	H74	0.134100	0.917500	0.307700
C911	C91	0.554000	0.611500	0.607100
H751	H75	0.504900	0.627100	0.545100
C921	C92	0.705000	0.548800	0.671200
H761	H76	0.764500	0.520100	0.655800
