data_TUTZOX_clean_PM
_symmetry_space_group_name_H-M	'P1'
_cell_length_a	10.218000
_cell_length_b	22.101000
_cell_length_c	14.283000
_cell_angle_alpha	91.276000
_cell_angle_beta	90.000000
_cell_angle_gamma	90.000000
_symmetry_Int_Tables_number 1

loop_
_symmetry_equiv_pos_as_xyz
'x,y,z'

loop_
_atom_site_label
_atom_site_type_symbol
_atom_site_fract_x
_atom_site_fract_y
_atom_site_fract_z
La11	La1	0.443380	0.741800	0.734990
La21	La2	0.248860	0.750070	0.978730
La31	La3	0.943380	0.258200	0.765010
La41	La4	0.748860	0.249930	0.521270
La51	La5	0.556620	0.258200	0.265010
La61	La6	0.751140	0.249930	0.021270
La71	La7	0.056620	0.741800	0.234990
La81	La8	0.251140	0.750070	0.478730
H11	H1	0.639200	0.533600	0.870700
H21	H2	0.702300	0.439300	0.814400
H31	H3	0.330500	0.386100	0.813100
H41	H4	0.267400	0.480600	0.863700
H51	H5	0.455900	0.585800	0.969700
H61	H6	0.314000	0.573100	0.933700
H71	H7	0.624300	0.343400	0.721200
H81	H8	0.489600	0.317100	0.754300
H91	H9	0.839400	0.903300	0.789600
H101	H10	0.773900	0.991300	0.862300
H111	H11	0.144700	0.044000	0.884300
H121	H12	0.210700	0.954900	0.813200
H131	H13	0.008100	0.841400	0.715400
H141	H14	0.147900	0.869600	0.704200
H151	H15	0.956900	0.092000	0.984000
H161	H16	0.815300	0.082400	0.944800
H171	H17	0.581200	0.531100	0.358800
H181	H18	0.506700	0.564700	0.627200
H191	H19	0.699000	0.620800	0.524300
H201	H20	0.646100	0.625800	0.421400
H211	H21	0.466000	0.978400	0.843300
H221	H22	0.592000	0.928700	0.095300
H231	H23	0.652100	0.868900	0.952200
H241	H24	0.588700	0.885300	0.856100
H251	H25	0.139200	0.466400	0.629300
H261	H26	0.202300	0.560700	0.685600
H271	H27	0.830500	0.613900	0.686900
H281	H28	0.767400	0.519400	0.636300
H291	H29	0.955900	0.414200	0.530300
H301	H30	0.814000	0.426900	0.566300
H311	H31	0.124300	0.656600	0.778800
H321	H32	0.989600	0.682900	0.745700
H331	H33	0.339400	0.096700	0.710400
H341	H34	0.273900	0.008700	0.637700
H351	H35	0.644700	0.956000	0.615700
H361	H36	0.710700	0.045100	0.686800
H371	H37	0.508100	0.158600	0.784600
H381	H38	0.647900	0.130400	0.795800
H391	H39	0.456900	0.908000	0.516000
H401	H40	0.315300	0.917600	0.555200
H411	H41	0.081200	0.468900	0.141200
H421	H42	0.006700	0.435300	0.872800
H431	H43	0.199000	0.379200	0.975700
H441	H44	0.146100	0.374200	0.078600
H451	H45	0.966000	0.021600	0.656700
H461	H46	0.092000	0.071300	0.404700
H471	H47	0.152100	0.131100	0.547800
H481	H48	0.088700	0.114700	0.643900
H491	H49	0.360800	0.466400	0.129300
H501	H50	0.297700	0.560700	0.185600
H511	H51	0.669500	0.613900	0.186900
H521	H52	0.732600	0.519400	0.136300
H531	H53	0.544100	0.414200	0.030300
H541	H54	0.686000	0.426900	0.066300
H551	H55	0.375700	0.656600	0.278800
H561	H56	0.510400	0.682900	0.245700
H571	H57	0.160600	0.096700	0.210400
H581	H58	0.226100	0.008700	0.137700
H591	H59	0.855300	0.956000	0.115700
H601	H60	0.789300	0.045100	0.186800
H611	H61	0.991900	0.158600	0.284600
H621	H62	0.852100	0.130400	0.295800
H631	H63	0.043100	0.908000	0.016000
H641	H64	0.184700	0.917600	0.055200
H651	H65	0.418800	0.468900	0.641200
H661	H66	0.493300	0.435300	0.372800
H671	H67	0.301000	0.379200	0.475700
H681	H68	0.353900	0.374200	0.578600
H691	H69	0.534000	0.021600	0.156700
H701	H70	0.408000	0.071300	0.904700
H711	H71	0.347900	0.131100	0.047800
H721	H72	0.411300	0.114700	0.143900
H731	H73	0.860800	0.533600	0.370700
H741	H74	0.797700	0.439300	0.314400
H751	H75	0.169500	0.386100	0.313100
H761	H76	0.232600	0.480600	0.363700
H771	H77	0.044100	0.585800	0.469700
H781	H78	0.186000	0.573100	0.433700
H791	H79	0.875700	0.343400	0.221200
H801	H80	0.010400	0.317100	0.254300
H811	H81	0.660600	0.903300	0.289600
H821	H82	0.726100	0.991300	0.362300
H831	H83	0.355300	0.044000	0.384300
H841	H84	0.289300	0.954900	0.313200
H851	H85	0.491900	0.841400	0.215400
H861	H86	0.352100	0.869600	0.204200
H871	H87	0.543100	0.092000	0.484000
H881	H88	0.684700	0.082400	0.444800
H891	H89	0.918800	0.531100	0.858800
H901	H90	0.993300	0.564700	0.127200
H911	H91	0.801000	0.620800	0.024300
H921	H92	0.853900	0.625800	0.921400
H931	H93	0.034000	0.978400	0.343300
H941	H94	0.908000	0.928700	0.595300
H951	H95	0.847900	0.868900	0.452200
H961	H96	0.911300	0.885300	0.356100
C11	C1	0.447600	0.516600	0.875200
C21	C2	0.576300	0.504000	0.859000
C31	C3	0.614100	0.447200	0.825100
C41	C4	0.523600	0.402700	0.807100
C51	C5	0.393500	0.415800	0.823600
C61	C6	0.355900	0.472100	0.855400
C71	C7	0.404400	0.576800	0.914000
C81	C8	0.414100	0.629800	0.850900
C91	C9	0.565600	0.340300	0.774200
C101	C10	0.633500	0.308700	0.852400
C111	C11	0.032600	0.918700	0.794700
C121	C12	0.902100	0.931300	0.809100
C131	C13	0.862700	0.984700	0.851900
C141	C14	0.949400	0.028100	0.879100
C151	C15	0.082300	0.015700	0.865100
C161	C16	0.121900	0.962000	0.822800
C171	C17	0.080000	0.860400	0.749200
C181	C18	0.132500	0.817500	0.818100
C191	C19	0.906400	0.086400	0.927000
C201	C20	0.921000	0.142400	0.868800
C211	C21	0.555600	0.556900	0.493600
C221	C22	0.549300	0.518700	0.416300
C231	C23	0.505100	0.538500	0.575300
C241	C24	0.620800	0.619100	0.485800
C251	C25	0.523500	0.668300	0.518800
C261	C26	0.536700	0.943500	0.961600
C271	C27	0.480300	0.986900	0.906500
C281	C28	0.555200	0.957400	0.056600
C291	C29	0.571900	0.882300	0.922700
C301	C30	0.466900	0.835600	0.937300
C311	C31	0.947600	0.483400	0.624800
C321	C32	0.076300	0.496000	0.641000
C331	C33	0.114100	0.552800	0.674900
C341	C34	0.023600	0.597300	0.692900
C351	C35	0.893500	0.584200	0.676400
C361	C36	0.855900	0.527900	0.644600
C371	C37	0.904400	0.423200	0.586000
C381	C38	0.914100	0.370200	0.649100
C391	C39	0.065600	0.659700	0.725800
C401	C40	0.133500	0.691300	0.647600
C411	C41	0.532600	0.081300	0.705300
C421	C42	0.402100	0.068700	0.690900
C431	C43	0.362700	0.015300	0.648100
C441	C44	0.449400	0.971900	0.620900
C451	C45	0.582300	0.984300	0.634900
C461	C46	0.621900	0.038000	0.677200
C471	C47	0.580000	0.139600	0.750800
C481	C48	0.632500	0.182500	0.681900
C491	C49	0.406400	0.913600	0.573000
C501	C50	0.421000	0.857600	0.631200
C511	C51	0.055600	0.443100	0.006400
C521	C52	0.049300	0.481300	0.083700
C531	C53	0.005100	0.461500	0.924700
C541	C54	0.120800	0.380900	0.014200
C551	C55	0.023500	0.331700	0.981200
C561	C56	0.036700	0.056500	0.538400
C571	C57	0.980300	0.013100	0.593500
C581	C58	0.055200	0.042600	0.443400
C591	C59	0.071900	0.117700	0.577300
C601	C60	0.966900	0.164400	0.562700
C611	C61	0.552400	0.483400	0.124800
C621	C62	0.423700	0.496000	0.141000
C631	C63	0.385900	0.552800	0.174900
C641	C64	0.476400	0.597300	0.192900
C651	C65	0.606500	0.584200	0.176400
C661	C66	0.644100	0.527900	0.144600
C671	C67	0.595600	0.423200	0.086000
C681	C68	0.585900	0.370200	0.149100
C691	C69	0.434400	0.659700	0.225800
C701	C70	0.366500	0.691300	0.147600
C711	C71	0.967400	0.081300	0.205300
C721	C72	0.097900	0.068700	0.190900
C731	C73	0.137300	0.015300	0.148100
C741	C74	0.050600	0.971900	0.120900
C751	C75	0.917700	0.984300	0.134900
C761	C76	0.878100	0.038000	0.177200
C771	C77	0.920000	0.139600	0.250800
C781	C78	0.867500	0.182500	0.181900
C791	C79	0.093600	0.913600	0.073000
C801	C80	0.079000	0.857600	0.131200
C811	C81	0.444400	0.443100	0.506400
C821	C82	0.450700	0.481300	0.583700
C831	C83	0.494900	0.461500	0.424700
C841	C84	0.379200	0.380900	0.514200
C851	C85	0.476500	0.331700	0.481200
C861	C86	0.463300	0.056500	0.038400
C871	C87	0.519700	0.013100	0.093500
C881	C88	0.444800	0.042600	0.943400
C891	C89	0.428100	0.117700	0.077300
C901	C90	0.533100	0.164400	0.062700
C911	C91	0.052400	0.516600	0.375200
C921	C92	0.923700	0.504000	0.359000
C931	C93	0.885900	0.447200	0.325100
C941	C94	0.976400	0.402700	0.307100
C951	C95	0.106500	0.415800	0.323600
C961	C96	0.144100	0.472100	0.355400
C971	C97	0.095600	0.576800	0.414000
C981	C98	0.085900	0.629800	0.350900
C991	C99	0.934400	0.340300	0.274200
C1001	C100	0.866500	0.308700	0.352400
C1011	C101	0.467400	0.918700	0.294700
C1021	C102	0.597900	0.931300	0.309100
C1031	C103	0.637300	0.984700	0.351900
C1041	C104	0.550600	0.028100	0.379100
C1051	C105	0.417700	0.015700	0.365100
C1061	C106	0.378100	0.962000	0.322800
C1071	C107	0.420000	0.860400	0.249200
C1081	C108	0.367500	0.817500	0.318100
C1091	C109	0.593600	0.086400	0.427000
C1101	C110	0.579000	0.142400	0.368800
C1111	C111	0.944400	0.556900	0.993600
C1121	C112	0.950700	0.518700	0.916300
C1131	C113	0.994900	0.538500	0.075300
C1141	C114	0.879200	0.619100	0.985800
C1151	C115	0.976500	0.668300	0.018800
C1161	C116	0.963300	0.943500	0.461600
C1171	C117	0.019700	0.986900	0.406500
C1181	C118	0.944800	0.957400	0.556600
C1191	C119	0.928100	0.882300	0.422700
C1201	C120	0.033100	0.835600	0.437300
O11	O1	0.489300	0.630400	0.781900
O21	O2	0.342400	0.675200	0.868500
O31	O3	0.756400	0.306800	0.856700
O41	O4	0.565400	0.284600	0.915200
O51	O5	0.232500	0.786000	0.799200
O61	O6	0.075500	0.811200	0.894100
O71	O7	0.980100	0.143300	0.794400
O81	O8	0.865800	0.190900	0.899300
O91	O9	0.432800	0.678900	0.466300
O101	O10	0.545700	0.695900	0.594300
O111	O11	0.475700	0.784900	0.896400
O121	O12	0.372500	0.846800	0.990700
O131	O13	0.989300	0.369600	0.718100
O141	O14	0.842400	0.324800	0.631500
O151	O15	0.256400	0.693200	0.643300
O161	O16	0.065400	0.715400	0.584800
O171	O17	0.732500	0.214000	0.700800
O181	O18	0.575500	0.188800	0.605900
O191	O19	0.480100	0.856700	0.705600
O201	O20	0.365800	0.809100	0.600700
O211	O21	0.932800	0.321100	0.033700
O221	O22	0.045700	0.304100	0.905700
O231	O23	0.975700	0.215100	0.603600
O241	O24	0.872500	0.153200	0.509300
O251	O25	0.510700	0.369600	0.218100
O261	O26	0.657600	0.324800	0.131500
O271	O27	0.243600	0.693200	0.143300
O281	O28	0.434600	0.715400	0.084800
O291	O29	0.767500	0.214000	0.200800
O301	O30	0.924500	0.188800	0.105900
O311	O31	0.019900	0.856700	0.205600
O321	O32	0.134200	0.809100	0.100700
O331	O33	0.567200	0.321100	0.533700
O341	O34	0.454300	0.304100	0.405700
O351	O35	0.524300	0.215100	0.103600
O361	O36	0.627500	0.153200	0.009300
O371	O37	0.010700	0.630400	0.281900
O381	O38	0.157600	0.675200	0.368500
O391	O39	0.743600	0.306800	0.356700
O401	O40	0.934600	0.284600	0.415200
O411	O41	0.267500	0.786000	0.299200
O421	O42	0.424500	0.811200	0.394100
O431	O43	0.519900	0.143300	0.294400
O441	O44	0.634200	0.190900	0.399300
O451	O45	0.067200	0.678900	0.966300
O461	O46	0.954300	0.695900	0.094300
O471	O47	0.024300	0.784900	0.396400
O481	O48	0.127500	0.846800	0.490700
