data_TUVDIX_clean_PM
_symmetry_space_group_name_H-M	'P1'
_cell_length_a	15.512000
_cell_length_b	15.512000
_cell_length_c	15.645000
_cell_angle_alpha	90.000000
_cell_angle_beta	90.000000
_cell_angle_gamma	120.000000
_symmetry_Int_Tables_number 1

loop_
_symmetry_equiv_pos_as_xyz
'x,y,z'

loop_
_atom_site_label
_atom_site_type_symbol
_atom_site_fract_x
_atom_site_fract_y
_atom_site_fract_z
Pr11	Pr1	0.333330	0.666660	0.750000
Pr21	Pr2	0.666670	0.333340	0.750000
Pr31	Pr3	0.666670	0.333340	0.250000
Pr41	Pr4	0.333330	0.666660	0.250000
Mn11	Mn1	0.500000	0.500000	0.000000
Mn21	Mn2	0.000000	0.500000	0.000000
Mn31	Mn3	0.500000	0.000000	0.000000
Mn41	Mn4	0.000000	0.500000	0.500000
Mn51	Mn5	0.500000	0.500000	0.500000
Mn61	Mn6	0.500000	0.000000	0.500000
H11	H1	0.232800	0.286300	0.841400
H21	H2	0.053500	0.767200	0.841400
H31	H3	0.713700	0.946500	0.841400
H41	H4	0.767200	0.713700	0.841400
H51	H5	0.946500	0.232800	0.841400
H61	H6	0.286300	0.053500	0.841400
H71	H7	0.946500	0.713700	0.658600
H81	H8	0.286300	0.232800	0.658600
H91	H9	0.767200	0.053500	0.658600
H101	H10	0.053500	0.286300	0.658600
H111	H11	0.713700	0.767200	0.658600
H121	H12	0.232800	0.946500	0.658600
H131	H13	0.767200	0.713700	0.158600
H141	H14	0.946500	0.232800	0.158600
H151	H15	0.286300	0.053500	0.158600
H161	H16	0.232800	0.286300	0.158600
H171	H17	0.053500	0.767200	0.158600
H181	H18	0.713700	0.946500	0.158600
H191	H19	0.053500	0.286300	0.341400
H201	H20	0.713700	0.767200	0.341400
H211	H21	0.232800	0.946500	0.341400
H221	H22	0.946500	0.713700	0.341400
H231	H23	0.286300	0.232800	0.341400
H241	H24	0.767200	0.053500	0.341400
H251	H25	0.100350	0.200700	0.750000
H261	H26	0.100350	0.899650	0.750000
H271	H27	0.799300	0.899650	0.750000
H281	H28	0.899650	0.799300	0.750000
H291	H29	0.899650	0.100350	0.750000
H301	H30	0.200700	0.100350	0.750000
H311	H31	0.899650	0.799300	0.250000
H321	H32	0.899650	0.100350	0.250000
H331	H33	0.200700	0.100350	0.250000
H341	H34	0.100350	0.200700	0.250000
H351	H35	0.100350	0.899650	0.250000
H361	H36	0.799300	0.899650	0.250000
C11	C1	0.263300	0.423600	0.803400
C21	C2	0.351200	0.487500	0.860600
C31	C3	0.213300	0.320400	0.804400
C41	C4	0.160300	0.736700	0.803400
C51	C5	0.136300	0.648800	0.860600
C61	C6	0.107100	0.786700	0.804400
C71	C7	0.576400	0.839700	0.803400
C81	C8	0.512500	0.863700	0.860600
C91	C9	0.679600	0.892900	0.804400
C101	C10	0.736700	0.576400	0.803400
C111	C11	0.648800	0.512500	0.860600
C121	C12	0.786700	0.679600	0.804400
C131	C13	0.839700	0.263300	0.803400
C141	C14	0.863700	0.351200	0.860600
C151	C15	0.892900	0.213300	0.804400
C161	C16	0.423600	0.160300	0.803400
C171	C17	0.487500	0.136300	0.860600
C181	C18	0.320400	0.107100	0.804400
C191	C19	0.839700	0.576400	0.696600
C201	C20	0.863700	0.512500	0.639400
C211	C21	0.892900	0.679600	0.695600
C221	C22	0.423600	0.263300	0.696600
C231	C23	0.487500	0.351200	0.639400
C241	C24	0.320400	0.213300	0.695600
C251	C25	0.736700	0.160300	0.696600
C261	C26	0.648800	0.136300	0.639400
C271	C27	0.786700	0.107100	0.695600
C281	C28	0.160300	0.423600	0.696600
C291	C29	0.136300	0.487500	0.639400
C301	C30	0.107100	0.320400	0.695600
C311	C31	0.576400	0.736700	0.696600
C321	C32	0.512500	0.648800	0.639400
C331	C33	0.679600	0.786700	0.695600
C341	C34	0.263300	0.839700	0.696600
C351	C35	0.351200	0.863700	0.639400
C361	C36	0.213300	0.892900	0.695600
C371	C37	0.736700	0.576400	0.196600
C381	C38	0.648800	0.512500	0.139400
C391	C39	0.786700	0.679600	0.195600
C401	C40	0.839700	0.263300	0.196600
C411	C41	0.863700	0.351200	0.139400
C421	C42	0.892900	0.213300	0.195600
C431	C43	0.423600	0.160300	0.196600
C441	C44	0.487500	0.136300	0.139400
C451	C45	0.320400	0.107100	0.195600
C461	C46	0.263300	0.423600	0.196600
C471	C47	0.351200	0.487500	0.139400
C481	C48	0.213300	0.320400	0.195600
C491	C49	0.160300	0.736700	0.196600
C501	C50	0.136300	0.648800	0.139400
C511	C51	0.107100	0.786700	0.195600
C521	C52	0.576400	0.839700	0.196600
C531	C53	0.512500	0.863700	0.139400
C541	C54	0.679600	0.892900	0.195600
C551	C55	0.160300	0.423600	0.303400
C561	C56	0.136300	0.487500	0.360600
C571	C57	0.107100	0.320400	0.304400
C581	C58	0.576400	0.736700	0.303400
C591	C59	0.512500	0.648800	0.360600
C601	C60	0.679600	0.786700	0.304400
C611	C61	0.263300	0.839700	0.303400
C621	C62	0.351200	0.863700	0.360600
C631	C63	0.213300	0.892900	0.304400
C641	C64	0.839700	0.576400	0.303400
C651	C65	0.863700	0.512500	0.360600
C661	C66	0.892900	0.679600	0.304400
C671	C67	0.423600	0.263300	0.303400
C681	C68	0.487500	0.351200	0.360600
C691	C69	0.320400	0.213300	0.304400
C701	C70	0.736700	0.160300	0.303400
C711	C71	0.648800	0.136300	0.360600
C721	C72	0.786700	0.107100	0.304400
C731	C73	0.134950	0.269900	0.750000
C741	C74	0.134950	0.865050	0.750000
C751	C75	0.730100	0.865050	0.750000
C761	C76	0.865050	0.730100	0.750000
C771	C77	0.865050	0.134950	0.750000
C781	C78	0.269900	0.134950	0.750000
C791	C79	0.865050	0.730100	0.250000
C801	C80	0.865050	0.134950	0.250000
C811	C81	0.269900	0.134950	0.250000
C821	C82	0.134950	0.269900	0.250000
C831	C83	0.134950	0.865050	0.250000
C841	C84	0.730100	0.865050	0.250000
N11	N1	0.237200	0.474400	0.750000
N21	N2	0.237200	0.762800	0.750000
N31	N3	0.525600	0.762800	0.750000
N41	N4	0.762800	0.525600	0.750000
N51	N5	0.762800	0.237200	0.750000
N61	N6	0.474400	0.237200	0.750000
N71	N7	0.762800	0.525600	0.250000
N81	N8	0.762800	0.237200	0.250000
N91	N9	0.474400	0.237200	0.250000
N101	N10	0.237200	0.474400	0.250000
N111	N11	0.237200	0.762800	0.250000
N121	N12	0.525600	0.762800	0.250000
O11	O1	0.383200	0.444100	0.904900
O21	O2	0.383900	0.580700	0.857300
O31	O3	0.060900	0.616800	0.904900
O41	O4	0.196800	0.616100	0.857300
O51	O5	0.555900	0.939100	0.904900
O61	O6	0.419300	0.803200	0.857300
O71	O7	0.616800	0.555900	0.904900
O81	O8	0.616100	0.419300	0.857300
O91	O9	0.939100	0.383200	0.904900
O101	O10	0.803200	0.383900	0.857300
O111	O11	0.444100	0.060900	0.904900
O121	O12	0.580700	0.196800	0.857300
O131	O13	0.939100	0.555900	0.595100
O141	O14	0.803200	0.419300	0.642700
O151	O15	0.444100	0.383200	0.595100
O161	O16	0.580700	0.383900	0.642700
O171	O17	0.616800	0.060900	0.595100
O181	O18	0.616100	0.196800	0.642700
O191	O19	0.060900	0.444100	0.595100
O201	O20	0.196800	0.580700	0.642700
O211	O21	0.555900	0.616800	0.595100
O221	O22	0.419300	0.616100	0.642700
O231	O23	0.383200	0.939100	0.595100
O241	O24	0.383900	0.803200	0.642700
O251	O25	0.616800	0.555900	0.095100
O261	O26	0.616100	0.419300	0.142700
O271	O27	0.939100	0.383200	0.095100
O281	O28	0.803200	0.383900	0.142700
O291	O29	0.444100	0.060900	0.095100
O301	O30	0.580700	0.196800	0.142700
O311	O31	0.383200	0.444100	0.095100
O321	O32	0.383900	0.580700	0.142700
O331	O33	0.060900	0.616800	0.095100
O341	O34	0.196800	0.616100	0.142700
O351	O35	0.555900	0.939100	0.095100
O361	O36	0.419300	0.803200	0.142700
O371	O37	0.060900	0.444100	0.404900
O381	O38	0.196800	0.580700	0.357300
O391	O39	0.555900	0.616800	0.404900
O401	O40	0.419300	0.616100	0.357300
O411	O41	0.383200	0.939100	0.404900
O421	O42	0.383900	0.803200	0.357300
O431	O43	0.939100	0.555900	0.404900
O441	O44	0.803200	0.419300	0.357300
O451	O45	0.444100	0.383200	0.404900
O461	O46	0.580700	0.383900	0.357300
O471	O47	0.616800	0.060900	0.404900
O481	O48	0.616100	0.196800	0.357300
