data_TUVDUJ_clean_PM
_symmetry_space_group_name_H-M	'P1'
_cell_length_a	15.229000
_cell_length_b	15.229000
_cell_length_c	15.852000
_cell_angle_alpha	90.000000
_cell_angle_beta	90.000000
_cell_angle_gamma	120.000000
_symmetry_Int_Tables_number 1

loop_
_symmetry_equiv_pos_as_xyz
'x,y,z'

loop_
_atom_site_label
_atom_site_type_symbol
_atom_site_fract_x
_atom_site_fract_y
_atom_site_fract_z
Er11	Er1	0.333330	0.666660	0.750000
Er21	Er2	0.666670	0.333340	0.750000
Er31	Er3	0.666670	0.333340	0.250000
Er41	Er4	0.333330	0.666660	0.250000
Mn11	Mn1	0.500000	0.000000	0.000000
Mn21	Mn2	0.500000	0.500000	0.000000
Mn31	Mn3	0.000000	0.500000	0.000000
Mn41	Mn4	0.500000	0.000000	0.500000
Mn51	Mn5	0.000000	0.500000	0.500000
Mn61	Mn6	0.500000	0.500000	0.500000
H11	H1	0.708600	0.941700	0.843300
H21	H2	0.233100	0.291400	0.843300
H31	H3	0.058300	0.766900	0.843300
H41	H4	0.291400	0.058300	0.843300
H51	H5	0.766900	0.708600	0.843300
H61	H6	0.941700	0.233100	0.843300
H71	H7	0.766900	0.058300	0.656700
H81	H8	0.941700	0.708600	0.656700
H91	H9	0.291400	0.233100	0.656700
H101	H10	0.233100	0.941700	0.656700
H111	H11	0.058300	0.291400	0.656700
H121	H12	0.708600	0.766900	0.656700
H131	H13	0.291400	0.058300	0.156700
H141	H14	0.766900	0.708600	0.156700
H151	H15	0.941700	0.233100	0.156700
H161	H16	0.708600	0.941700	0.156700
H171	H17	0.233100	0.291400	0.156700
H181	H18	0.058300	0.766900	0.156700
H191	H19	0.233100	0.941700	0.343300
H201	H20	0.058300	0.291400	0.343300
H211	H21	0.708600	0.766900	0.343300
H221	H22	0.766900	0.058300	0.343300
H231	H23	0.941700	0.708600	0.343300
H241	H24	0.291400	0.233100	0.343300
H251	H25	0.797800	0.898900	0.750000
H261	H26	0.101100	0.202200	0.750000
H271	H27	0.101100	0.898900	0.750000
H281	H28	0.202200	0.101100	0.750000
H291	H29	0.898900	0.797800	0.750000
H301	H30	0.898900	0.101100	0.750000
H311	H31	0.202200	0.101100	0.250000
H321	H32	0.898900	0.797800	0.250000
H331	H33	0.898900	0.101100	0.250000
H341	H34	0.797800	0.898900	0.250000
H351	H35	0.101100	0.202200	0.250000
H361	H36	0.101100	0.898900	0.250000
C11	C1	0.504900	0.858100	0.859100
C21	C2	0.571200	0.837500	0.802900
C31	C3	0.674300	0.889200	0.804900
C41	C4	0.353200	0.495100	0.859100
C51	C5	0.266300	0.428800	0.802900
C61	C6	0.214900	0.325700	0.804900
C71	C7	0.141900	0.646800	0.859100
C81	C8	0.162500	0.733700	0.802900
C91	C9	0.110800	0.785100	0.804900
C101	C10	0.495100	0.141900	0.859100
C111	C11	0.428800	0.162500	0.802900
C121	C12	0.325700	0.110800	0.804900
C131	C13	0.646800	0.504900	0.859100
C141	C14	0.733700	0.571200	0.802900
C151	C15	0.785100	0.674300	0.804900
C161	C16	0.858100	0.353200	0.859100
C171	C17	0.837500	0.266300	0.802900
C181	C18	0.889200	0.214900	0.804900
C191	C19	0.646800	0.141900	0.640900
C201	C20	0.733700	0.162500	0.697100
C211	C21	0.785100	0.110800	0.695100
C221	C22	0.858100	0.504900	0.640900
C231	C23	0.837500	0.571200	0.697100
C241	C24	0.889200	0.674300	0.695100
C251	C25	0.495100	0.353200	0.640900
C261	C26	0.428800	0.266300	0.697100
C271	C27	0.325700	0.214900	0.695100
C281	C28	0.353200	0.858100	0.640900
C291	C29	0.266300	0.837500	0.697100
C301	C30	0.214900	0.889200	0.695100
C311	C31	0.141900	0.495100	0.640900
C321	C32	0.162500	0.428800	0.697100
C331	C33	0.110800	0.325700	0.695100
C341	C34	0.504900	0.646800	0.640900
C351	C35	0.571200	0.733700	0.697100
C361	C36	0.674300	0.785100	0.695100
C371	C37	0.495100	0.141900	0.140900
C381	C38	0.428800	0.162500	0.197100
C391	C39	0.325700	0.110800	0.195100
C401	C40	0.646800	0.504900	0.140900
C411	C41	0.733700	0.571200	0.197100
C421	C42	0.785100	0.674300	0.195100
C431	C43	0.858100	0.353200	0.140900
C441	C44	0.837500	0.266300	0.197100
C451	C45	0.889200	0.214900	0.195100
C461	C46	0.504900	0.858100	0.140900
C471	C47	0.571200	0.837500	0.197100
C481	C48	0.674300	0.889200	0.195100
C491	C49	0.353200	0.495100	0.140900
C501	C50	0.266300	0.428800	0.197100
C511	C51	0.214900	0.325700	0.195100
C521	C52	0.141900	0.646800	0.140900
C531	C53	0.162500	0.733700	0.197100
C541	C54	0.110800	0.785100	0.195100
C551	C55	0.353200	0.858100	0.359100
C561	C56	0.266300	0.837500	0.302900
C571	C57	0.214900	0.889200	0.304900
C581	C58	0.141900	0.495100	0.359100
C591	C59	0.162500	0.428800	0.302900
C601	C60	0.110800	0.325700	0.304900
C611	C61	0.504900	0.646800	0.359100
C621	C62	0.571200	0.733700	0.302900
C631	C63	0.674300	0.785100	0.304900
C641	C64	0.646800	0.141900	0.359100
C651	C65	0.733700	0.162500	0.302900
C661	C66	0.785100	0.110800	0.304900
C671	C67	0.858100	0.504900	0.359100
C681	C68	0.837500	0.571200	0.302900
C691	C69	0.889200	0.674300	0.304900
C701	C70	0.495100	0.353200	0.359100
C711	C71	0.428800	0.266300	0.302900
C721	C72	0.325700	0.214900	0.304900
C731	C73	0.727300	0.863650	0.750000
C741	C74	0.136350	0.272700	0.750000
C751	C75	0.136350	0.863650	0.750000
C761	C76	0.272700	0.136350	0.750000
C771	C77	0.863650	0.727300	0.750000
C781	C78	0.863650	0.136350	0.750000
C791	C79	0.272700	0.136350	0.250000
C801	C80	0.863650	0.727300	0.250000
C811	C81	0.863650	0.136350	0.250000
C821	C82	0.727300	0.863650	0.250000
C831	C83	0.136350	0.272700	0.250000
C841	C84	0.136350	0.863650	0.250000
N11	N1	0.519000	0.759500	0.750000
N21	N2	0.240500	0.481000	0.750000
N31	N3	0.240500	0.759500	0.750000
N41	N4	0.481000	0.240500	0.750000
N51	N5	0.759500	0.519000	0.750000
N61	N6	0.759500	0.240500	0.750000
N71	N7	0.481000	0.240500	0.250000
N81	N8	0.759500	0.519000	0.250000
N91	N9	0.759500	0.240500	0.250000
N101	N10	0.519000	0.759500	0.250000
N111	N11	0.240500	0.481000	0.250000
N121	N12	0.240500	0.759500	0.250000
O11	O1	0.549300	0.934100	0.906800
O21	O2	0.410800	0.798700	0.854670
O31	O3	0.384800	0.450700	0.906800
O41	O4	0.387900	0.589200	0.854670
O51	O5	0.065900	0.615200	0.906800
O61	O6	0.201300	0.612100	0.854670
O71	O7	0.450700	0.065900	0.906800
O81	O8	0.589200	0.201300	0.854670
O91	O9	0.615200	0.549300	0.906800
O101	O10	0.612100	0.410800	0.854670
O111	O11	0.934100	0.384800	0.906800
O121	O12	0.798700	0.387900	0.854670
O131	O13	0.615200	0.065900	0.593200
O141	O14	0.612100	0.201300	0.645330
O151	O15	0.934100	0.549300	0.593200
O161	O16	0.798700	0.410800	0.645330
O171	O17	0.450700	0.384800	0.593200
O181	O18	0.589200	0.387900	0.645330
O191	O19	0.384800	0.934100	0.593200
O201	O20	0.387900	0.798700	0.645330
O211	O21	0.065900	0.450700	0.593200
O221	O22	0.201300	0.589200	0.645330
O231	O23	0.549300	0.615200	0.593200
O241	O24	0.410800	0.612100	0.645330
O251	O25	0.450700	0.065900	0.093200
O261	O26	0.589200	0.201300	0.145330
O271	O27	0.615200	0.549300	0.093200
O281	O28	0.612100	0.410800	0.145330
O291	O29	0.934100	0.384800	0.093200
O301	O30	0.798700	0.387900	0.145330
O311	O31	0.549300	0.934100	0.093200
O321	O32	0.410800	0.798700	0.145330
O331	O33	0.384800	0.450700	0.093200
O341	O34	0.387900	0.589200	0.145330
O351	O35	0.065900	0.615200	0.093200
O361	O36	0.201300	0.612100	0.145330
O371	O37	0.384800	0.934100	0.406800
O381	O38	0.387900	0.798700	0.354670
O391	O39	0.065900	0.450700	0.406800
O401	O40	0.201300	0.589200	0.354670
O411	O41	0.549300	0.615200	0.406800
O421	O42	0.410800	0.612100	0.354670
O431	O43	0.615200	0.065900	0.406800
O441	O44	0.612100	0.201300	0.354670
O451	O45	0.934100	0.549300	0.406800
O461	O46	0.798700	0.410800	0.354670
O471	O47	0.450700	0.384800	0.406800
O481	O48	0.589200	0.387900	0.354670
