data_TUYHOL_clean_PM
_symmetry_space_group_name_H-M	'P1'
_cell_length_a	11.755400
_cell_length_b	14.435900
_cell_length_c	14.693300
_cell_angle_alpha	111.146000
_cell_angle_beta	112.698000
_cell_angle_gamma	93.215000
_symmetry_Int_Tables_number 1

loop_
_symmetry_equiv_pos_as_xyz
'x,y,z'

loop_
_atom_site_label
_atom_site_type_symbol
_atom_site_fract_x
_atom_site_fract_y
_atom_site_fract_z
W11	W1	0.073660	0.902590	0.199970
W21	W2	0.278590	0.908230	0.075740
W31	W3	0.258470	0.137070	0.259790
W41	W4	0.018900	0.768090	0.817060
W51	W5	0.203090	0.000880	0.872640
W61	W6	0.188010	0.232820	0.059620
Ce11	Ce1	0.085600	0.472830	0.651900
Ce21	Ce2	0.286000	0.523950	0.064600
N11	N1	0.268000	0.638000	0.740000
N21	N2	0.623000	0.459000	0.738000
O11	O1	0.109000	0.991000	0.097000
O21	O2	0.104000	0.939000	0.966000
O31	O3	0.087000	0.121000	0.101000
O41	O4	0.956000	0.948000	0.057000
O51	O5	0.194000	0.861000	0.145000
O61	O6	0.181000	0.038000	0.286000
O71	O7	0.945000	0.968000	0.208000
O81	O8	0.954000	0.786000	0.082000
O91	O9	0.334000	0.037000	0.187000
O101	O10	0.300000	0.966000	0.992000
O111	O11	0.176000	0.786000	0.946000
O121	O12	0.123000	0.198000	0.267000
O131	O13	0.109000	0.867000	0.792000
O141	O14	0.917000	0.711000	0.867000
O151	O15	0.023000	0.662000	0.725000
O161	O16	0.252000	0.140000	0.975000
O171	O17	0.288000	0.219000	0.188000
O181	O18	0.269000	0.346000	0.079000
O191	O19	0.115000	0.560000	0.531000
O201	O20	0.166000	0.698000	0.520000
O211	O21	0.225000	0.539000	0.854000
O221	O22	0.392000	0.636000	0.003000
O231	O23	0.301000	0.427000	0.682000
O241	O24	0.477000	0.457000	0.833000
O251	O25	0.870000	0.481000	0.849000
O261	O26	0.914000	0.470000	0.716000
C11	C1	0.178000	0.647000	0.572000
C21	C2	0.282000	0.695000	0.685000
C31	C3	0.377000	0.782000	0.733000
H11	H1	0.385500	0.820700	0.696100
C41	C4	0.460000	0.807000	0.840000
H21	H2	0.528400	0.861400	0.873100
C51	C5	0.450000	0.758000	0.904000
H31	H3	0.504200	0.781300	0.977300
C61	C6	0.352000	0.671000	0.849000
C71	C7	0.316000	0.613000	0.904000
C81	C8	0.420000	0.441000	0.733000
C91	C9	0.495000	0.440000	0.670000
C101	C10	0.443000	0.405000	0.558000
H41	H4	0.355400	0.386900	0.516200
C111	C11	0.525000	0.397000	0.510000
H51	H5	0.495200	0.369300	0.435400
C121	C12	0.654000	0.432000	0.578000
H61	H6	0.709600	0.440200	0.548200
C131	C13	0.703000	0.456000	0.688000
C141	C14	0.842000	0.473000	0.755000
W71	W7	0.926340	0.097410	0.800030
W81	W8	0.721410	0.091770	0.924260
W91	W9	0.741530	0.862930	0.740210
W101	W10	0.981100	0.231910	0.182940
W111	W11	0.796910	0.999120	0.127360
W121	W12	0.811990	0.767180	0.940380
Ce31	Ce3	0.914400	0.527170	0.348100
Ce41	Ce4	0.714000	0.476050	0.935400
N31	N3	0.732000	0.362000	0.260000
N41	N4	0.377000	0.541000	0.262000
O271	O27	0.891000	0.009000	0.903000
O281	O28	0.896000	0.061000	0.034000
O291	O29	0.913000	0.879000	0.899000
O301	O30	0.044000	0.052000	0.943000
O311	O31	0.806000	0.139000	0.855000
O321	O32	0.819000	0.962000	0.714000
O331	O33	0.055000	0.032000	0.792000
O341	O34	0.046000	0.214000	0.918000
O351	O35	0.666000	0.963000	0.813000
O361	O36	0.700000	0.034000	0.008000
O371	O37	0.824000	0.214000	0.054000
O381	O38	0.877000	0.802000	0.733000
O391	O39	0.891000	0.133000	0.208000
O401	O40	0.083000	0.289000	0.133000
O411	O41	0.977000	0.338000	0.275000
O421	O42	0.748000	0.860000	0.025000
O431	O43	0.712000	0.781000	0.812000
O441	O44	0.731000	0.654000	0.921000
O451	O45	0.885000	0.440000	0.469000
O461	O46	0.834000	0.302000	0.480000
O471	O47	0.775000	0.461000	0.146000
O481	O48	0.608000	0.364000	0.997000
O491	O49	0.699000	0.573000	0.318000
O501	O50	0.523000	0.543000	0.167000
O511	O51	0.130000	0.519000	0.151000
O521	O52	0.086000	0.530000	0.284000
C151	C15	0.822000	0.353000	0.428000
C161	C16	0.718000	0.305000	0.315000
C171	C17	0.623000	0.218000	0.267000
H71	H7	0.614500	0.179300	0.303900
C181	C18	0.540000	0.193000	0.160000
H81	H8	0.471600	0.138600	0.126900
C191	C19	0.550000	0.242000	0.096000
H91	H9	0.495800	0.218700	0.022700
C201	C20	0.648000	0.329000	0.151000
C211	C21	0.684000	0.387000	0.096000
C221	C22	0.580000	0.559000	0.267000
C231	C23	0.505000	0.560000	0.330000
C241	C24	0.557000	0.595000	0.442000
H101	H10	0.644600	0.613100	0.483800
C251	C25	0.475000	0.603000	0.490000
H111	H11	0.504800	0.630700	0.564600
C261	C26	0.346000	0.568000	0.422000
H121	H12	0.290400	0.559800	0.451800
C271	C27	0.297000	0.544000	0.312000
C281	C28	0.158000	0.527000	0.245000
Si11	Si1	0.000000	0.000000	0.000000
