data_TUYJED_clean_PM
_symmetry_space_group_name_H-M	'P1'
_cell_length_a	21.917000
_cell_length_b	21.917000
_cell_length_c	16.586800
_cell_angle_alpha	90.000000
_cell_angle_beta	90.000000
_cell_angle_gamma	90.000000
_symmetry_Int_Tables_number 1

loop_
_symmetry_equiv_pos_as_xyz
'x,y,z'

loop_
_atom_site_label
_atom_site_type_symbol
_atom_site_fract_x
_atom_site_fract_y
_atom_site_fract_z
Nd11	Nd1	0.888940	0.424930	0.115040
N11	N1	0.831500	0.385400	0.988300
O11	O1	0.862600	0.316900	0.111900
O21	O2	0.824500	0.232600	0.051500
O31	O3	0.859300	0.500900	0.011300
O41	O4	0.817100	0.528600	0.893800
C11	C1	0.832000	0.288200	0.053300
C21	C2	0.814200	0.326700	0.984600
C31	C3	0.779500	0.303600	0.917300
H11	H1	0.768700	0.262600	0.913900
C41	C4	0.763400	0.343900	0.859100
H21	H2	0.739700	0.330700	0.816000
C51	C5	0.782000	0.405500	0.863100
H31	H3	0.772800	0.432900	0.822100
C61	C6	0.814100	0.423000	0.930100
C71	C7	0.831200	0.490600	0.944900
Nd21	Nd2	0.388940	0.924930	0.615040
N21	N2	0.331500	0.885400	0.488300
O51	O5	0.362600	0.816900	0.611900
O61	O6	0.324500	0.732600	0.551500
O71	O7	0.359300	0.000900	0.511300
O81	O8	0.317100	0.028600	0.393800
C81	C8	0.332000	0.788200	0.553300
C91	C9	0.314200	0.826700	0.484600
C101	C10	0.279500	0.803600	0.417300
H41	H4	0.268700	0.762600	0.413900
C111	C11	0.263400	0.843900	0.359100
H51	H5	0.239700	0.830700	0.316000
C121	C12	0.282000	0.905500	0.363100
H61	H6	0.272800	0.932900	0.322100
C131	C13	0.314100	0.923000	0.430100
C141	C14	0.331200	0.990600	0.444900
Nd31	Nd3	0.611060	0.575070	0.615040
N31	N3	0.668500	0.614600	0.488300
O91	O9	0.637400	0.683100	0.611900
O101	O10	0.675500	0.767400	0.551500
O111	O11	0.640700	0.499100	0.511300
O121	O12	0.682900	0.471400	0.393800
C151	C15	0.668000	0.711800	0.553300
C161	C16	0.685800	0.673300	0.484600
C171	C17	0.720500	0.696400	0.417300
H71	H7	0.731300	0.737400	0.413900
C181	C18	0.736600	0.656100	0.359100
H81	H8	0.760300	0.669300	0.316000
C191	C19	0.718000	0.594500	0.363100
H91	H9	0.727200	0.567100	0.322100
C201	C20	0.685900	0.577000	0.430100
C211	C21	0.668800	0.509400	0.444900
Nd41	Nd4	0.111060	0.075070	0.115040
N41	N4	0.168500	0.114600	0.988300
O131	O13	0.137400	0.183100	0.111900
O141	O14	0.175500	0.267400	0.051500
O151	O15	0.140700	0.999100	0.011300
O161	O16	0.182900	0.971400	0.893800
C221	C22	0.168000	0.211800	0.053300
C231	C23	0.185800	0.173300	0.984600
C241	C24	0.220500	0.196400	0.917300
H101	H10	0.231300	0.237400	0.913900
C251	C25	0.236600	0.156100	0.859100
H111	H11	0.260300	0.169300	0.816000
C261	C26	0.218000	0.094500	0.863100
H121	H12	0.227200	0.067100	0.822100
C271	C27	0.185900	0.077000	0.930100
C281	C28	0.168800	0.009400	0.944900
Nd51	Nd5	0.325070	0.138940	0.365040
N51	N5	0.364600	0.081500	0.238300
O171	O17	0.433100	0.112600	0.361900
O181	O18	0.517400	0.074500	0.301500
O191	O19	0.249100	0.109300	0.261300
O201	O20	0.221400	0.067100	0.143800
C291	C29	0.461800	0.082000	0.303300
C301	C30	0.423300	0.064200	0.234600
C311	C31	0.446400	0.029500	0.167300
H131	H13	0.487400	0.018700	0.163900
C321	C32	0.406100	0.013400	0.109100
H141	H14	0.419300	0.989700	0.066000
C331	C33	0.344500	0.032000	0.113100
H151	H15	0.317100	0.022800	0.072100
C341	C34	0.327000	0.064100	0.180100
C351	C35	0.259400	0.081200	0.194900
Nd61	Nd6	0.825070	0.638940	0.865040
N61	N6	0.864600	0.581500	0.738300
O211	O21	0.933100	0.612600	0.861900
O221	O22	0.017400	0.574500	0.801500
O231	O23	0.749100	0.609300	0.761300
O241	O24	0.721400	0.567100	0.643800
C361	C36	0.961800	0.582000	0.803300
C371	C37	0.923300	0.564200	0.734600
C381	C38	0.946400	0.529500	0.667300
H161	H16	0.987400	0.518700	0.663900
C391	C39	0.906100	0.513400	0.609100
H171	H17	0.919300	0.489700	0.566000
C401	C40	0.844500	0.532000	0.613100
H181	H18	0.817100	0.522800	0.572100
C411	C41	0.827000	0.564100	0.680100
C421	C42	0.759400	0.581200	0.694900
Nd71	Nd7	0.174930	0.861060	0.865040
N71	N7	0.135400	0.918500	0.738300
O251	O25	0.066900	0.887400	0.861900
O261	O26	0.982600	0.925500	0.801500
O271	O27	0.250900	0.890700	0.761300
O281	O28	0.278600	0.932900	0.643800
C431	C43	0.038200	0.918000	0.803300
C441	C44	0.076700	0.935800	0.734600
C451	C45	0.053600	0.970500	0.667300
H191	H19	0.012600	0.981300	0.663900
C461	C46	0.093900	0.986600	0.609100
H201	H20	0.080700	0.010300	0.566000
C471	C47	0.155500	0.968000	0.613100
H211	H21	0.182900	0.977200	0.572100
C481	C48	0.173000	0.935900	0.680100
C491	C49	0.240600	0.918800	0.694900
Nd81	Nd8	0.674930	0.361060	0.365040
N81	N8	0.635400	0.418500	0.238300
O291	O29	0.566900	0.387400	0.361900
O301	O30	0.482600	0.425500	0.301500
O311	O31	0.750900	0.390700	0.261300
O321	O32	0.778600	0.432900	0.143800
C501	C50	0.538200	0.418000	0.303300
C511	C51	0.576700	0.435800	0.234600
C521	C52	0.553600	0.470500	0.167300
H221	H22	0.512600	0.481300	0.163900
C531	C53	0.593900	0.486600	0.109100
H231	H23	0.580700	0.510300	0.066000
C541	C54	0.655500	0.468000	0.113100
H241	H24	0.682900	0.477200	0.072100
C551	C55	0.673000	0.435900	0.180100
C561	C56	0.740600	0.418800	0.194900
Nd91	Nd9	0.111060	0.575070	0.884960
N91	N9	0.168500	0.614600	0.011700
O331	O33	0.137400	0.683100	0.888100
O341	O34	0.175500	0.767400	0.948500
O351	O35	0.140700	0.499100	0.988700
O361	O36	0.182900	0.471400	0.106200
C571	C57	0.168000	0.711800	0.946700
C581	C58	0.185800	0.673300	0.015400
C591	C59	0.220500	0.696400	0.082700
H251	H25	0.231300	0.737400	0.086100
C601	C60	0.236600	0.656100	0.140900
H261	H26	0.260300	0.669300	0.184000
C611	C61	0.218000	0.594500	0.136900
H271	H27	0.227200	0.567100	0.177900
C621	C62	0.185900	0.577000	0.069900
C631	C63	0.168800	0.509400	0.055100
Nd101	Nd10	0.611060	0.075070	0.384960
N101	N10	0.668500	0.114600	0.511700
O371	O37	0.637400	0.183100	0.388100
O381	O38	0.675500	0.267400	0.448500
O391	O39	0.640700	0.999100	0.488700
O401	O40	0.682900	0.971400	0.606200
C641	C64	0.668000	0.211800	0.446700
C651	C65	0.685800	0.173300	0.515400
C661	C66	0.720500	0.196400	0.582700
H281	H28	0.731300	0.237400	0.586100
C671	C67	0.736600	0.156100	0.640900
H291	H29	0.760300	0.169300	0.684000
C681	C68	0.718000	0.094500	0.636900
H301	H30	0.727200	0.067100	0.677900
C691	C69	0.685900	0.077000	0.569900
C701	C70	0.668800	0.009400	0.555100
Nd111	Nd11	0.388940	0.424930	0.384960
N111	N11	0.331500	0.385400	0.511700
O411	O41	0.362600	0.316900	0.388100
O421	O42	0.324500	0.232600	0.448500
O431	O43	0.359300	0.500900	0.488700
O441	O44	0.317100	0.528600	0.606200
C711	C71	0.332000	0.288200	0.446700
C721	C72	0.314200	0.326700	0.515400
C731	C73	0.279500	0.303600	0.582700
H311	H31	0.268700	0.262600	0.586100
C741	C74	0.263400	0.343900	0.640900
H321	H32	0.239700	0.330700	0.684000
C751	C75	0.282000	0.405500	0.636900
H331	H33	0.272800	0.432900	0.677900
C761	C76	0.314100	0.423000	0.569900
C771	C77	0.331200	0.490600	0.555100
Nd121	Nd12	0.888940	0.924930	0.884960
N121	N12	0.831500	0.885400	0.011700
O451	O45	0.862600	0.816900	0.888100
O461	O46	0.824500	0.732600	0.948500
O471	O47	0.859300	0.000900	0.988700
O481	O48	0.817100	0.028600	0.106200
C781	C78	0.832000	0.788200	0.946700
C791	C79	0.814200	0.826700	0.015400
C801	C80	0.779500	0.803600	0.082700
H341	H34	0.768700	0.762600	0.086100
C811	C81	0.763400	0.843900	0.140900
H351	H35	0.739700	0.830700	0.184000
C821	C82	0.782000	0.905500	0.136900
H361	H36	0.772800	0.932900	0.177900
C831	C83	0.814100	0.923000	0.069900
C841	C84	0.831200	0.990600	0.055100
Nd131	Nd13	0.674930	0.861060	0.634960
N131	N13	0.635400	0.918500	0.761700
O491	O49	0.566900	0.887400	0.638100
O501	O50	0.482600	0.925500	0.698500
O511	O51	0.750900	0.890700	0.738700
O521	O52	0.778600	0.932900	0.856200
C851	C85	0.538200	0.918000	0.696700
C861	C86	0.576700	0.935800	0.765400
C871	C87	0.553600	0.970500	0.832700
H371	H37	0.512600	0.981300	0.836100
C881	C88	0.593900	0.986600	0.890900
H381	H38	0.580700	0.010300	0.934000
C891	C89	0.655500	0.968000	0.886900
H391	H39	0.682900	0.977200	0.927900
C901	C90	0.673000	0.935900	0.819900
C911	C91	0.740600	0.918800	0.805100
Nd141	Nd14	0.174930	0.361060	0.134960
N141	N14	0.135400	0.418500	0.261700
O531	O53	0.066900	0.387400	0.138100
O541	O54	0.982600	0.425500	0.198500
O551	O55	0.250900	0.390700	0.238700
O561	O56	0.278600	0.432900	0.356200
C921	C92	0.038200	0.418000	0.196700
C931	C93	0.076700	0.435800	0.265400
C941	C94	0.053600	0.470500	0.332700
H401	H40	0.012600	0.481300	0.336100
C951	C95	0.093900	0.486600	0.390900
H411	H41	0.080700	0.510300	0.434000
C961	C96	0.155500	0.468000	0.386900
H421	H42	0.182900	0.477200	0.427900
C971	C97	0.173000	0.435900	0.319900
C981	C98	0.240600	0.418800	0.305100
Nd151	Nd15	0.825070	0.138940	0.134960
N151	N15	0.864600	0.081500	0.261700
O571	O57	0.933100	0.112600	0.138100
O581	O58	0.017400	0.074500	0.198500
O591	O59	0.749100	0.109300	0.238700
O601	O60	0.721400	0.067100	0.356200
C991	C99	0.961800	0.082000	0.196700
C1001	C100	0.923300	0.064200	0.265400
C1011	C101	0.946400	0.029500	0.332700
H431	H43	0.987400	0.018700	0.336100
C1021	C102	0.906100	0.013400	0.390900
H441	H44	0.919300	0.989700	0.434000
C1031	C103	0.844500	0.032000	0.386900
H451	H45	0.817100	0.022800	0.427900
C1041	C104	0.827000	0.064100	0.319900
C1051	C105	0.759400	0.081200	0.305100
Nd161	Nd16	0.325070	0.638940	0.634960
N161	N16	0.364600	0.581500	0.761700
O611	O61	0.433100	0.612600	0.638100
O621	O62	0.517400	0.574500	0.698500
O631	O63	0.249100	0.609300	0.738700
O641	O64	0.221400	0.567100	0.856200
C1061	C106	0.461800	0.582000	0.696700
C1071	C107	0.423300	0.564200	0.765400
C1081	C108	0.446400	0.529500	0.832700
H461	H46	0.487400	0.518700	0.836100
C1091	C109	0.406100	0.513400	0.890900
H471	H47	0.419300	0.489700	0.934000
C1101	C110	0.344500	0.532000	0.886900
H481	H48	0.317100	0.522800	0.927900
C1111	C111	0.327000	0.564100	0.819900
C1121	C112	0.259400	0.581200	0.805100
