data_TUYLIJ_clean_PM
_symmetry_space_group_name_H-M	'P1'
_cell_length_a	9.994900
_cell_length_b	15.822900
_cell_length_c	18.196300
_cell_angle_alpha	90.000000
_cell_angle_beta	90.000000
_cell_angle_gamma	90.000000
_symmetry_Int_Tables_number 1

loop_
_symmetry_equiv_pos_as_xyz
'x,y,z'

loop_
_atom_site_label
_atom_site_type_symbol
_atom_site_fract_x
_atom_site_fract_y
_atom_site_fract_z
Al11	Al1	0.684700	0.037500	0.282300
Al21	Al2	0.831000	0.850100	0.323400
Al31	Al3	0.657700	0.009700	0.094000
P11	P1	0.859300	0.009300	0.422710
P21	P2	0.645800	0.183600	0.169930
P31	P3	0.884100	0.942700	0.185480
F11	F1	0.678700	0.921000	0.307200
F21	F2	0.600500	0.003900	0.195300
O11	O1	0.004600	0.041900	0.427400
O21	O2	0.790700	0.019100	0.497500
O31	O3	0.863700	0.916000	0.399800
O41	O4	0.782400	0.063600	0.367000
O51	O5	0.729200	0.262900	0.154900
O61	O6	0.684000	0.148500	0.246100
O71	O7	0.683100	0.120000	0.107800
O81	O8	0.497700	0.207400	0.165000
O91	O9	0.797800	0.943300	0.115200
O101	O10	0.858800	0.857200	0.225400
O111	O11	0.846600	0.016200	0.235100
O121	O12	0.031100	0.948200	0.163500
Al41	Al4	0.315300	0.462500	0.782300
Al51	Al5	0.169000	0.649900	0.823400
Al61	Al6	0.342300	0.490300	0.594000
P41	P4	0.140700	0.490700	0.922710
P51	P5	0.354200	0.316400	0.669930
P61	P6	0.115900	0.557300	0.685480
F31	F3	0.321300	0.579000	0.807200
F41	F4	0.399500	0.496100	0.695300
O131	O13	0.995400	0.458100	0.927400
O141	O14	0.209300	0.480900	0.997500
O151	O15	0.136300	0.584000	0.899800
O161	O16	0.217600	0.436400	0.867000
O171	O17	0.270800	0.237100	0.654900
O181	O18	0.316000	0.351500	0.746100
O191	O19	0.316900	0.380000	0.607800
O201	O20	0.502300	0.292600	0.665000
O211	O21	0.202200	0.556700	0.615200
O221	O22	0.141200	0.642800	0.725400
O231	O23	0.153400	0.483800	0.735100
O241	O24	0.968900	0.551800	0.663500
Al71	Al7	0.184700	0.962500	0.217700
Al81	Al8	0.331000	0.149900	0.176600
Al91	Al9	0.157700	0.990300	0.406000
P71	P7	0.359300	0.990700	0.077290
P81	P8	0.145800	0.816400	0.330070
P91	P9	0.384100	0.057300	0.314520
F51	F5	0.178700	0.079000	0.192800
F61	F6	0.100500	0.996100	0.304700
O251	O25	0.504600	0.958100	0.072600
O261	O26	0.290700	0.980900	0.002500
O271	O27	0.363700	0.084000	0.100200
O281	O28	0.282400	0.936400	0.133000
O291	O29	0.229200	0.737100	0.345100
O301	O30	0.184000	0.851500	0.253900
O311	O31	0.183100	0.880000	0.392200
O321	O32	0.997700	0.792600	0.335000
O331	O33	0.297800	0.056700	0.384800
O341	O34	0.358800	0.142800	0.274600
O351	O35	0.346600	0.983800	0.264900
O361	O36	0.531100	0.051800	0.336500
Al101	Al10	0.815300	0.537500	0.717700
Al111	Al11	0.669000	0.350100	0.676600
Al121	Al12	0.842300	0.509700	0.906000
P101	P10	0.640700	0.509300	0.577290
P111	P11	0.854200	0.683600	0.830070
P121	P12	0.615900	0.442700	0.814520
F71	F7	0.821300	0.421000	0.692800
F81	F8	0.899500	0.503900	0.804700
O371	O37	0.495400	0.541900	0.572600
O381	O38	0.709300	0.519100	0.502500
O391	O39	0.636300	0.416000	0.600200
O401	O40	0.717600	0.563600	0.633000
O411	O41	0.770800	0.762900	0.845100
O421	O42	0.816000	0.648500	0.753900
O431	O43	0.816900	0.620000	0.892200
O441	O44	0.002300	0.707400	0.835000
O451	O45	0.702200	0.443300	0.884800
O461	O46	0.641200	0.357200	0.774600
O471	O47	0.653400	0.516200	0.764900
O481	O48	0.468900	0.448200	0.836500
Al131	Al13	0.315300	0.962500	0.717700
Al141	Al14	0.169000	0.149900	0.676600
Al151	Al15	0.342300	0.990300	0.906000
P131	P13	0.140700	0.990700	0.577290
P141	P14	0.354200	0.816400	0.830070
P151	P15	0.115900	0.057300	0.814520
F91	F9	0.321300	0.079000	0.692800
F101	F10	0.399500	0.996100	0.804700
O491	O49	0.995400	0.958100	0.572600
O501	O50	0.209300	0.980900	0.502500
O511	O51	0.136300	0.084000	0.600200
O521	O52	0.217600	0.936400	0.633000
O531	O53	0.270800	0.737100	0.845100
O541	O54	0.316000	0.851500	0.753900
O551	O55	0.316900	0.880000	0.892200
O561	O56	0.502300	0.792600	0.835000
O571	O57	0.202200	0.056700	0.884800
O581	O58	0.141200	0.142800	0.774600
O591	O59	0.153400	0.983800	0.764900
O601	O60	0.968900	0.051800	0.836500
Al161	Al16	0.684700	0.537500	0.217700
Al171	Al17	0.831000	0.350100	0.176600
Al181	Al18	0.657700	0.509700	0.406000
P161	P16	0.859300	0.509300	0.077290
P171	P17	0.645800	0.683600	0.330070
P181	P18	0.884100	0.442700	0.314520
F111	F11	0.678700	0.421000	0.192800
F121	F12	0.600500	0.503900	0.304700
O611	O61	0.004600	0.541900	0.072600
O621	O62	0.790700	0.519100	0.002500
O631	O63	0.863700	0.416000	0.100200
O641	O64	0.782400	0.563600	0.133000
O651	O65	0.729200	0.762900	0.345100
O661	O66	0.684000	0.648500	0.253900
O671	O67	0.683100	0.620000	0.392200
O681	O68	0.497700	0.707400	0.335000
O691	O69	0.797800	0.443300	0.384800
O701	O70	0.858800	0.357200	0.274600
O711	O71	0.846600	0.516200	0.264900
O721	O72	0.031100	0.448200	0.336500
Al191	Al19	0.815300	0.037500	0.782300
Al201	Al20	0.669000	0.850100	0.823400
Al211	Al21	0.842300	0.009700	0.594000
P191	P19	0.640700	0.009300	0.922710
P201	P20	0.854200	0.183600	0.669930
P211	P21	0.615900	0.942700	0.685480
F131	F13	0.821300	0.921000	0.807200
F141	F14	0.899500	0.003900	0.695300
O731	O73	0.495400	0.041900	0.927400
O741	O74	0.709300	0.019100	0.997500
O751	O75	0.636300	0.916000	0.899800
O761	O76	0.717600	0.063600	0.867000
O771	O77	0.770800	0.262900	0.654900
O781	O78	0.816000	0.148500	0.746100
O791	O79	0.816900	0.120000	0.607800
O801	O80	0.002300	0.207400	0.665000
O811	O81	0.702200	0.943300	0.615200
O821	O82	0.641200	0.857200	0.725400
O831	O83	0.653400	0.016200	0.735100
O841	O84	0.468900	0.948200	0.663500
Al221	Al22	0.184700	0.462500	0.282300
Al231	Al23	0.331000	0.649900	0.323400
Al241	Al24	0.157700	0.490300	0.094000
P221	P22	0.359300	0.490700	0.422710
P231	P23	0.145800	0.316400	0.169930
P241	P24	0.384100	0.557300	0.185480
F151	F15	0.178700	0.579000	0.307200
F161	F16	0.100500	0.496100	0.195300
O851	O85	0.504600	0.458100	0.427400
O861	O86	0.290700	0.480900	0.497500
O871	O87	0.363700	0.584000	0.399800
O881	O88	0.282400	0.436400	0.367000
O891	O89	0.229200	0.237100	0.154900
O901	O90	0.184000	0.351500	0.246100
O911	O91	0.183100	0.380000	0.107800
O921	O92	0.997700	0.292600	0.165000
O931	O93	0.297800	0.556700	0.115200
O941	O94	0.358800	0.642800	0.225400
O951	O95	0.346600	0.483800	0.235100
O961	O96	0.531100	0.551800	0.163500
