data_TUYNEI_clean_PM
_symmetry_space_group_name_H-M	'P1'
_cell_length_a	9.809000
_cell_length_b	11.595000
_cell_length_c	12.065000
_cell_angle_alpha	90.000000
_cell_angle_beta	90.000000
_cell_angle_gamma	90.000000
_symmetry_Int_Tables_number 1

loop_
_symmetry_equiv_pos_as_xyz
'x,y,z'

loop_
_atom_site_label
_atom_site_type_symbol
_atom_site_fract_x
_atom_site_fract_y
_atom_site_fract_z
Cu11	Cu1	0.189990	0.256870	0.927410
O11	O1	0.004500	0.260700	0.984000
O21	O2	0.873000	0.223300	0.130000
O31	O3	0.226300	0.194500	0.078600
H11	H1	0.312900	0.183200	0.066900
O41	O4	0.322600	0.985500	0.123900
H21	H2	0.389700	0.974600	0.087200
O51	O5	0.321400	0.927000	0.349700
H31	H3	0.391700	0.923600	0.308300
O61	O6	0.231400	0.147200	0.431700
H41	H4	0.210800	0.088700	0.467700
C11	C1	0.985700	0.220300	0.080200
C21	C2	0.102000	0.158200	0.137000
C31	C3	0.080500	0.027200	0.123300
H51	H5	0.994500	0.005300	0.157100
H61	H6	0.075700	0.008400	0.045100
C41	C4	0.195700	0.959000	0.176800
H71	H7	0.177100	0.876300	0.169800
C51	C5	0.211200	0.990500	0.299900
H81	H8	0.126800	0.968600	0.337900
C61	C6	0.231400	0.120000	0.315600
H91	H9	0.319300	0.142500	0.283600
C71	C7	0.117800	0.189500	0.259700
H101	H10	0.032400	0.175000	0.297700
H111	H11	0.138000	0.271100	0.266100
Cu21	Cu2	0.689990	0.243130	0.072590
O71	O7	0.504500	0.239300	0.016000
O81	O8	0.373000	0.276700	0.870000
O91	O9	0.726300	0.305500	0.921400
H121	H12	0.812900	0.316800	0.933100
O101	O10	0.822600	0.514500	0.876100
H131	H13	0.889700	0.525400	0.912800
O111	O11	0.821400	0.573000	0.650300
H141	H14	0.891700	0.576400	0.691700
O121	O12	0.731400	0.352800	0.568300
H151	H15	0.710800	0.411300	0.532300
C81	C8	0.485700	0.279700	0.919800
C91	C9	0.602000	0.341800	0.863000
C101	C10	0.580500	0.472800	0.876700
H161	H16	0.494500	0.494700	0.842900
H171	H17	0.575700	0.491600	0.954900
C111	C11	0.695700	0.541000	0.823200
H181	H18	0.677100	0.623700	0.830200
C121	C12	0.711200	0.509500	0.700100
H191	H19	0.626800	0.531400	0.662100
C131	C13	0.731400	0.380000	0.684400
H201	H20	0.819300	0.357500	0.716400
C141	C14	0.617800	0.310500	0.740300
H211	H21	0.532400	0.325000	0.702300
H221	H22	0.638000	0.228900	0.733900
Cu31	Cu3	0.310010	0.743130	0.427410
O131	O13	0.495500	0.739300	0.484000
O141	O14	0.627000	0.776700	0.630000
O151	O15	0.273700	0.805500	0.578600
H231	H23	0.187100	0.816800	0.566900
O161	O16	0.177400	0.014500	0.623900
H241	H24	0.110300	0.025400	0.587200
O171	O17	0.178600	0.073000	0.849700
H251	H25	0.108300	0.076400	0.808300
O181	O18	0.268600	0.852800	0.931700
H261	H26	0.289200	0.911300	0.967700
C151	C15	0.514300	0.779700	0.580200
C161	C16	0.398000	0.841800	0.637000
C171	C17	0.419500	0.972800	0.623300
H271	H27	0.505500	0.994700	0.657100
H281	H28	0.424300	0.991600	0.545100
C181	C18	0.304300	0.041000	0.676800
H291	H29	0.322900	0.123700	0.669800
C191	C19	0.288800	0.009500	0.799900
H301	H30	0.373200	0.031400	0.837900
C201	C20	0.268600	0.880000	0.815600
H311	H31	0.180700	0.857500	0.783600
C211	C21	0.382200	0.810500	0.759700
H321	H32	0.467600	0.825000	0.797700
H331	H33	0.362000	0.728900	0.766100
Cu41	Cu4	0.810010	0.756870	0.572590
O191	O19	0.995500	0.760700	0.516000
O201	O20	0.127000	0.723300	0.370000
O211	O21	0.773700	0.694500	0.421400
H341	H34	0.687100	0.683200	0.433100
O221	O22	0.677400	0.485500	0.376100
H351	H35	0.610300	0.474600	0.412800
O231	O23	0.678600	0.427000	0.150300
H361	H36	0.608300	0.423600	0.191700
O241	O24	0.768600	0.647200	0.068300
H371	H37	0.789200	0.588700	0.032300
C221	C22	0.014300	0.720300	0.419800
C231	C23	0.898000	0.658200	0.363000
C241	C24	0.919500	0.527200	0.376700
H381	H38	0.005500	0.505300	0.342900
H391	H39	0.924300	0.508400	0.454900
C251	C25	0.804300	0.459000	0.323200
H401	H40	0.822900	0.376300	0.330200
C261	C26	0.788800	0.490500	0.200100
H411	H41	0.873200	0.468600	0.162100
C271	C27	0.768600	0.620000	0.184400
H421	H42	0.680700	0.642500	0.216400
C281	C28	0.882200	0.689500	0.240300
H431	H43	0.967600	0.675000	0.202300
H441	H44	0.862000	0.771100	0.233900
