data_TUZNOS_clean_PM
_symmetry_space_group_name_H-M	'P1'
_cell_length_a	19.999800
_cell_length_b	19.999800
_cell_length_c	19.999800
_cell_angle_alpha	90.000000
_cell_angle_beta	90.000000
_cell_angle_gamma	90.000000
_symmetry_Int_Tables_number 1

loop_
_symmetry_equiv_pos_as_xyz
'x,y,z'

loop_
_atom_site_label
_atom_site_type_symbol
_atom_site_fract_x
_atom_site_fract_y
_atom_site_fract_z
N11	N1	0.060000	0.534730	0.239900
H11	H1	0.105100	0.510900	0.241000
C11	C1	0.089970	0.603000	0.227110
H21	H2	0.121900	0.599700	0.189500
H31	H3	0.053800	0.633900	0.213300
C21	C2	0.125130	0.632000	0.286110
C31	C3	0.100700	0.688540	0.317990
H41	H4	0.062100	0.710200	0.300800
C41	C4	0.023670	0.528290	0.300730
H51	H5	0.998700	0.570100	0.309000
H61	H6	0.055700	0.522200	0.337900
O11	O1	0.979420	0.579360	0.110050
N21	N2	0.060000	0.034730	0.739900
H71	H7	0.105100	0.010900	0.741000
C51	C5	0.089970	0.103000	0.727110
H81	H8	0.121900	0.099700	0.689500
H91	H9	0.053800	0.133900	0.713300
C61	C6	0.125130	0.132000	0.786110
C71	C7	0.100700	0.188540	0.817990
H101	H10	0.062100	0.210200	0.800800
C81	C8	0.023670	0.028290	0.800730
H111	H11	0.998700	0.070100	0.809000
H121	H12	0.055700	0.022200	0.837900
O21	O2	0.979420	0.079360	0.610050
N31	N3	0.560000	0.534730	0.739900
H131	H13	0.605100	0.510900	0.741000
C91	C9	0.589970	0.603000	0.727110
H141	H14	0.621900	0.599700	0.689500
H151	H15	0.553800	0.633900	0.713300
C101	C10	0.625130	0.632000	0.786110
C111	C11	0.600700	0.688540	0.817990
H161	H16	0.562100	0.710200	0.800800
C121	C12	0.523670	0.528290	0.800730
H171	H17	0.498700	0.570100	0.809000
H181	H18	0.555700	0.522200	0.837900
O31	O3	0.479420	0.579360	0.610050
N41	N4	0.560000	0.034730	0.239900
H191	H19	0.605100	0.010900	0.241000
C131	C13	0.589970	0.103000	0.227110
H201	H20	0.621900	0.099700	0.189500
H211	H21	0.553800	0.133900	0.213300
C141	C14	0.625130	0.132000	0.286110
C151	C15	0.600700	0.188540	0.317990
H221	H22	0.562100	0.210200	0.300800
C161	C16	0.523670	0.028290	0.300730
H231	H23	0.498700	0.070100	0.309000
H241	H24	0.555700	0.022200	0.337900
O41	O4	0.479420	0.079360	0.110050
N51	N5	0.940000	0.465270	0.239900
H251	H25	0.894900	0.489100	0.241000
C171	C17	0.910030	0.397000	0.227110
H261	H26	0.878100	0.400300	0.189500
H271	H27	0.946200	0.366100	0.213300
C181	C18	0.874870	0.368000	0.286110
C191	C19	0.899300	0.311460	0.317990
H281	H28	0.937900	0.289800	0.300800
C201	C20	0.976330	0.471710	0.300730
H291	H29	0.001300	0.429900	0.309000
H301	H30	0.944300	0.477800	0.337900
O51	O5	0.020580	0.420640	0.110050
N61	N6	0.940000	0.965270	0.739900
H311	H31	0.894900	0.989100	0.741000
C211	C21	0.910030	0.897000	0.727110
H321	H32	0.878100	0.900300	0.689500
H331	H33	0.946200	0.866100	0.713300
C221	C22	0.874870	0.868000	0.786110
C231	C23	0.899300	0.811460	0.817990
H341	H34	0.937900	0.789800	0.800800
C241	C24	0.976330	0.971710	0.800730
H351	H35	0.001300	0.929900	0.809000
H361	H36	0.944300	0.977800	0.837900
O61	O6	0.020580	0.920640	0.610050
N71	N7	0.440000	0.465270	0.739900
H371	H37	0.394900	0.489100	0.741000
C251	C25	0.410030	0.397000	0.727110
H381	H38	0.378100	0.400300	0.689500
H391	H39	0.446200	0.366100	0.713300
C261	C26	0.374870	0.368000	0.786110
C271	C27	0.399300	0.311460	0.817990
H401	H40	0.437900	0.289800	0.800800
C281	C28	0.476330	0.471710	0.800730
H411	H41	0.501300	0.429900	0.809000
H421	H42	0.444300	0.477800	0.837900
O71	O7	0.520580	0.420640	0.610050
N81	N8	0.440000	0.965270	0.239900
H431	H43	0.394900	0.989100	0.241000
C291	C29	0.410030	0.897000	0.227110
H441	H44	0.378100	0.900300	0.189500
H451	H45	0.446200	0.866100	0.213300
C301	C30	0.374870	0.868000	0.286110
C311	C31	0.399300	0.811460	0.317990
H461	H46	0.437900	0.789800	0.300800
C321	C32	0.476330	0.971710	0.300730
H471	H47	0.501300	0.929900	0.309000
H481	H48	0.444300	0.977800	0.337900
O81	O8	0.520580	0.920640	0.110050
N91	N9	0.940000	0.534730	0.760100
H491	H49	0.894900	0.510900	0.759000
C331	C33	0.910030	0.603000	0.772890
H501	H50	0.878100	0.599700	0.810500
H511	H51	0.946200	0.633900	0.786700
C341	C34	0.874870	0.632000	0.713890
C351	C35	0.899300	0.688540	0.682010
H521	H52	0.937900	0.710200	0.699200
C361	C36	0.976330	0.528290	0.699270
H531	H53	0.001300	0.570100	0.691000
H541	H54	0.944300	0.522200	0.662100
O91	O9	0.020580	0.579360	0.889950
N101	N10	0.940000	0.034730	0.260100
H551	H55	0.894900	0.010900	0.259000
C371	C37	0.910030	0.103000	0.272890
H561	H56	0.878100	0.099700	0.310500
H571	H57	0.946200	0.133900	0.286700
C381	C38	0.874870	0.132000	0.213890
C391	C39	0.899300	0.188540	0.182010
H581	H58	0.937900	0.210200	0.199200
C401	C40	0.976330	0.028290	0.199270
H591	H59	0.001300	0.070100	0.191000
H601	H60	0.944300	0.022200	0.162100
O101	O10	0.020580	0.079360	0.389950
N111	N11	0.440000	0.534730	0.260100
H611	H61	0.394900	0.510900	0.259000
C411	C41	0.410030	0.603000	0.272890
H621	H62	0.378100	0.599700	0.310500
H631	H63	0.446200	0.633900	0.286700
C421	C42	0.374870	0.632000	0.213890
C431	C43	0.399300	0.688540	0.182010
H641	H64	0.437900	0.710200	0.199200
C441	C44	0.476330	0.528290	0.199270
H651	H65	0.501300	0.570100	0.191000
H661	H66	0.444300	0.522200	0.162100
O111	O11	0.520580	0.579360	0.389950
N121	N12	0.440000	0.034730	0.760100
H671	H67	0.394900	0.010900	0.759000
C451	C45	0.410030	0.103000	0.772890
H681	H68	0.378100	0.099700	0.810500
H691	H69	0.446200	0.133900	0.786700
C461	C46	0.374870	0.132000	0.713890
C471	C47	0.399300	0.188540	0.682010
H701	H70	0.437900	0.210200	0.699200
C481	C48	0.476330	0.028290	0.699270
H711	H71	0.501300	0.070100	0.691000
H721	H72	0.444300	0.022200	0.662100
O121	O12	0.520580	0.079360	0.889950
N131	N13	0.060000	0.465270	0.760100
H731	H73	0.105100	0.489100	0.759000
C491	C49	0.089970	0.397000	0.772890
H741	H74	0.121900	0.400300	0.810500
H751	H75	0.053800	0.366100	0.786700
C501	C50	0.125130	0.368000	0.713890
C511	C51	0.100700	0.311460	0.682010
H761	H76	0.062100	0.289800	0.699200
C521	C52	0.023670	0.471710	0.699270
H771	H77	0.998700	0.429900	0.691000
H781	H78	0.055700	0.477800	0.662100
O131	O13	0.979420	0.420640	0.889950
N141	N14	0.060000	0.965270	0.260100
H791	H79	0.105100	0.989100	0.259000
C531	C53	0.089970	0.897000	0.272890
H801	H80	0.121900	0.900300	0.310500
H811	H81	0.053800	0.866100	0.286700
C541	C54	0.125130	0.868000	0.213890
C551	C55	0.100700	0.811460	0.182010
H821	H82	0.062100	0.789800	0.199200
C561	C56	0.023670	0.971710	0.199270
H831	H83	0.998700	0.929900	0.191000
H841	H84	0.055700	0.977800	0.162100
O141	O14	0.979420	0.920640	0.389950
N151	N15	0.560000	0.465270	0.260100
H851	H85	0.605100	0.489100	0.259000
C571	C57	0.589970	0.397000	0.272890
H861	H86	0.621900	0.400300	0.310500
H871	H87	0.553800	0.366100	0.286700
C581	C58	0.625130	0.368000	0.213890
C591	C59	0.600700	0.311460	0.182010
H881	H88	0.562100	0.289800	0.199200
C601	C60	0.523670	0.471710	0.199270
H891	H89	0.498700	0.429900	0.191000
H901	H90	0.555700	0.477800	0.162100
O151	O15	0.479420	0.420640	0.389950
N161	N16	0.560000	0.965270	0.760100
H911	H91	0.605100	0.989100	0.759000
C611	C61	0.589970	0.897000	0.772890
H921	H92	0.621900	0.900300	0.810500
H931	H93	0.553800	0.866100	0.786700
C621	C62	0.625130	0.868000	0.713890
C631	C63	0.600700	0.811460	0.682010
H941	H94	0.562100	0.789800	0.699200
C641	C64	0.523670	0.971710	0.699270
H951	H95	0.498700	0.929900	0.691000
H961	H96	0.555700	0.977800	0.662100
O161	O16	0.479420	0.920640	0.889950
N171	N17	0.239900	0.060000	0.534730
H971	H97	0.241000	0.105100	0.510900
C651	C65	0.227110	0.089970	0.603000
H981	H98	0.189500	0.121900	0.599700
H991	H99	0.213300	0.053800	0.633900
C661	C66	0.286110	0.125130	0.632000
C671	C67	0.317990	0.100700	0.688540
H1001	H100	0.300800	0.062100	0.710200
C681	C68	0.300730	0.023670	0.528290
H1011	H101	0.309000	0.998700	0.570100
H1021	H102	0.337900	0.055700	0.522200
O171	O17	0.110050	0.979420	0.579360
N181	N18	0.239900	0.560000	0.034730
H1031	H103	0.241000	0.605100	0.010900
C691	C69	0.227110	0.589970	0.103000
H1041	H104	0.189500	0.621900	0.099700
H1051	H105	0.213300	0.553800	0.133900
C701	C70	0.286110	0.625130	0.132000
C711	C71	0.317990	0.600700	0.188540
H1061	H106	0.300800	0.562100	0.210200
C721	C72	0.300730	0.523670	0.028290
H1071	H107	0.309000	0.498700	0.070100
H1081	H108	0.337900	0.555700	0.022200
O181	O18	0.110050	0.479420	0.079360
N191	N19	0.739900	0.060000	0.034730
H1091	H109	0.741000	0.105100	0.010900
C731	C73	0.727110	0.089970	0.103000
H1101	H110	0.689500	0.121900	0.099700
H1111	H111	0.713300	0.053800	0.133900
C741	C74	0.786110	0.125130	0.132000
C751	C75	0.817990	0.100700	0.188540
H1121	H112	0.800800	0.062100	0.210200
C761	C76	0.800730	0.023670	0.028290
H1131	H113	0.809000	0.998700	0.070100
H1141	H114	0.837900	0.055700	0.022200
O191	O19	0.610050	0.979420	0.079360
N201	N20	0.739900	0.560000	0.534730
H1151	H115	0.741000	0.605100	0.510900
C771	C77	0.727110	0.589970	0.603000
H1161	H116	0.689500	0.621900	0.599700
H1171	H117	0.713300	0.553800	0.633900
C781	C78	0.786110	0.625130	0.632000
C791	C79	0.817990	0.600700	0.688540
H1181	H118	0.800800	0.562100	0.710200
C801	C80	0.800730	0.523670	0.528290
H1191	H119	0.809000	0.498700	0.570100
H1201	H120	0.837900	0.555700	0.522200
O201	O20	0.610050	0.479420	0.579360
N211	N21	0.239900	0.940000	0.465270
H1211	H121	0.241000	0.894900	0.489100
C811	C81	0.227110	0.910030	0.397000
H1221	H122	0.189500	0.878100	0.400300
H1231	H123	0.213300	0.946200	0.366100
C821	C82	0.286110	0.874870	0.368000
C831	C83	0.317990	0.899300	0.311460
H1241	H124	0.300800	0.937900	0.289800
C841	C84	0.300730	0.976330	0.471710
H1251	H125	0.309000	0.001300	0.429900
H1261	H126	0.337900	0.944300	0.477800
O211	O21	0.110050	0.020580	0.420640
N221	N22	0.239900	0.440000	0.965270
H1271	H127	0.241000	0.394900	0.989100
C851	C85	0.227110	0.410030	0.897000
H1281	H128	0.189500	0.378100	0.900300
H1291	H129	0.213300	0.446200	0.866100
C861	C86	0.286110	0.374870	0.868000
C871	C87	0.317990	0.399300	0.811460
H1301	H130	0.300800	0.437900	0.789800
C881	C88	0.300730	0.476330	0.971710
H1311	H131	0.309000	0.501300	0.929900
H1321	H132	0.337900	0.444300	0.977800
O221	O22	0.110050	0.520580	0.920640
N231	N23	0.739900	0.940000	0.965270
H1331	H133	0.741000	0.894900	0.989100
C891	C89	0.727110	0.910030	0.897000
H1341	H134	0.689500	0.878100	0.900300
H1351	H135	0.713300	0.946200	0.866100
C901	C90	0.786110	0.874870	0.868000
C911	C91	0.817990	0.899300	0.811460
H1361	H136	0.800800	0.937900	0.789800
C921	C92	0.800730	0.976330	0.971710
H1371	H137	0.809000	0.001300	0.929900
H1381	H138	0.837900	0.944300	0.977800
O231	O23	0.610050	0.020580	0.920640
N241	N24	0.739900	0.440000	0.465270
H1391	H139	0.741000	0.394900	0.489100
C931	C93	0.727110	0.410030	0.397000
H1401	H140	0.689500	0.378100	0.400300
H1411	H141	0.713300	0.446200	0.366100
C941	C94	0.786110	0.374870	0.368000
C951	C95	0.817990	0.399300	0.311460
H1421	H142	0.800800	0.437900	0.289800
C961	C96	0.800730	0.476330	0.471710
H1431	H143	0.809000	0.501300	0.429900
H1441	H144	0.837900	0.444300	0.477800
O241	O24	0.610050	0.520580	0.420640
N251	N25	0.760100	0.940000	0.534730
H1451	H145	0.759000	0.894900	0.510900
C971	C97	0.772890	0.910030	0.603000
H1461	H146	0.810500	0.878100	0.599700
H1471	H147	0.786700	0.946200	0.633900
C981	C98	0.713890	0.874870	0.632000
C991	C99	0.682010	0.899300	0.688540
H1481	H148	0.699200	0.937900	0.710200
C1001	C100	0.699270	0.976330	0.528290
H1491	H149	0.691000	0.001300	0.570100
H1501	H150	0.662100	0.944300	0.522200
O251	O25	0.889950	0.020580	0.579360
N261	N26	0.760100	0.440000	0.034730
H1511	H151	0.759000	0.394900	0.010900
C1011	C101	0.772890	0.410030	0.103000
H1521	H152	0.810500	0.378100	0.099700
H1531	H153	0.786700	0.446200	0.133900
C1021	C102	0.713890	0.374870	0.132000
C1031	C103	0.682010	0.399300	0.188540
H1541	H154	0.699200	0.437900	0.210200
C1041	C104	0.699270	0.476330	0.028290
H1551	H155	0.691000	0.501300	0.070100
H1561	H156	0.662100	0.444300	0.022200
O261	O26	0.889950	0.520580	0.079360
N271	N27	0.260100	0.940000	0.034730
H1571	H157	0.259000	0.894900	0.010900
C1051	C105	0.272890	0.910030	0.103000
H1581	H158	0.310500	0.878100	0.099700
H1591	H159	0.286700	0.946200	0.133900
C1061	C106	0.213890	0.874870	0.132000
C1071	C107	0.182010	0.899300	0.188540
H1601	H160	0.199200	0.937900	0.210200
C1081	C108	0.199270	0.976330	0.028290
H1611	H161	0.191000	0.001300	0.070100
H1621	H162	0.162100	0.944300	0.022200
O271	O27	0.389950	0.020580	0.079360
N281	N28	0.260100	0.440000	0.534730
H1631	H163	0.259000	0.394900	0.510900
C1091	C109	0.272890	0.410030	0.603000
H1641	H164	0.310500	0.378100	0.599700
H1651	H165	0.286700	0.446200	0.633900
C1101	C110	0.213890	0.374870	0.632000
C1111	C111	0.182010	0.399300	0.688540
H1661	H166	0.199200	0.437900	0.710200
C1121	C112	0.199270	0.476330	0.528290
H1671	H167	0.191000	0.501300	0.570100
H1681	H168	0.162100	0.444300	0.522200
O281	O28	0.389950	0.520580	0.579360
N291	N29	0.760100	0.060000	0.465270
H1691	H169	0.759000	0.105100	0.489100
C1131	C113	0.772890	0.089970	0.397000
H1701	H170	0.810500	0.121900	0.400300
H1711	H171	0.786700	0.053800	0.366100
C1141	C114	0.713890	0.125130	0.368000
C1151	C115	0.682010	0.100700	0.311460
H1721	H172	0.699200	0.062100	0.289800
C1161	C116	0.699270	0.023670	0.471710
H1731	H173	0.691000	0.998700	0.429900
H1741	H174	0.662100	0.055700	0.477800
O291	O29	0.889950	0.979420	0.420640
N301	N30	0.760100	0.560000	0.965270
H1751	H175	0.759000	0.605100	0.989100
C1171	C117	0.772890	0.589970	0.897000
H1761	H176	0.810500	0.621900	0.900300
H1771	H177	0.786700	0.553800	0.866100
C1181	C118	0.713890	0.625130	0.868000
C1191	C119	0.682010	0.600700	0.811460
H1781	H178	0.699200	0.562100	0.789800
C1201	C120	0.699270	0.523670	0.971710
H1791	H179	0.691000	0.498700	0.929900
H1801	H180	0.662100	0.555700	0.977800
O301	O30	0.889950	0.479420	0.920640
N311	N31	0.260100	0.060000	0.965270
H1811	H181	0.259000	0.105100	0.989100
C1211	C121	0.272890	0.089970	0.897000
H1821	H182	0.310500	0.121900	0.900300
H1831	H183	0.286700	0.053800	0.866100
C1221	C122	0.213890	0.125130	0.868000
C1231	C123	0.182010	0.100700	0.811460
H1841	H184	0.199200	0.062100	0.789800
C1241	C124	0.199270	0.023670	0.971710
H1851	H185	0.191000	0.998700	0.929900
H1861	H186	0.162100	0.055700	0.977800
O311	O31	0.389950	0.979420	0.920640
N321	N32	0.260100	0.560000	0.465270
H1871	H187	0.259000	0.605100	0.489100
C1251	C125	0.272890	0.589970	0.397000
H1881	H188	0.310500	0.621900	0.400300
H1891	H189	0.286700	0.553800	0.366100
C1261	C126	0.213890	0.625130	0.368000
C1271	C127	0.182010	0.600700	0.311460
H1901	H190	0.199200	0.562100	0.289800
C1281	C128	0.199270	0.523670	0.471710
H1911	H191	0.191000	0.498700	0.429900
H1921	H192	0.162100	0.555700	0.477800
O321	O32	0.389950	0.479420	0.420640
N331	N33	0.534730	0.239900	0.060000
H1931	H193	0.510900	0.241000	0.105100
C1291	C129	0.603000	0.227110	0.089970
H1941	H194	0.599700	0.189500	0.121900
H1951	H195	0.633900	0.213300	0.053800
C1301	C130	0.632000	0.286110	0.125130
C1311	C131	0.688540	0.317990	0.100700
H1961	H196	0.710200	0.300800	0.062100
C1321	C132	0.528290	0.300730	0.023670
H1971	H197	0.570100	0.309000	0.998700
H1981	H198	0.522200	0.337900	0.055700
O331	O33	0.579360	0.110050	0.979420
N341	N34	0.534730	0.739900	0.560000
H1991	H199	0.510900	0.741000	0.605100
C1331	C133	0.603000	0.727110	0.589970
H2001	H200	0.599700	0.689500	0.621900
H2011	H201	0.633900	0.713300	0.553800
C1341	C134	0.632000	0.786110	0.625130
C1351	C135	0.688540	0.817990	0.600700
H2021	H202	0.710200	0.800800	0.562100
C1361	C136	0.528290	0.800730	0.523670
H2031	H203	0.570100	0.809000	0.498700
H2041	H204	0.522200	0.837900	0.555700
O341	O34	0.579360	0.610050	0.479420
N351	N35	0.034730	0.239900	0.560000
H2051	H205	0.010900	0.241000	0.605100
C1371	C137	0.103000	0.227110	0.589970
H2061	H206	0.099700	0.189500	0.621900
H2071	H207	0.133900	0.213300	0.553800
C1381	C138	0.132000	0.286110	0.625130
C1391	C139	0.188540	0.317990	0.600700
H2081	H208	0.210200	0.300800	0.562100
C1401	C140	0.028290	0.300730	0.523670
H2091	H209	0.070100	0.309000	0.498700
H2101	H210	0.022200	0.337900	0.555700
O351	O35	0.079360	0.110050	0.479420
N361	N36	0.034730	0.739900	0.060000
H2111	H211	0.010900	0.741000	0.105100
C1411	C141	0.103000	0.727110	0.089970
H2121	H212	0.099700	0.689500	0.121900
H2131	H213	0.133900	0.713300	0.053800
C1421	C142	0.132000	0.786110	0.125130
C1431	C143	0.188540	0.817990	0.100700
H2141	H214	0.210200	0.800800	0.062100
C1441	C144	0.028290	0.800730	0.023670
H2151	H215	0.070100	0.809000	0.998700
H2161	H216	0.022200	0.837900	0.055700
O361	O36	0.079360	0.610050	0.979420
N371	N37	0.465270	0.239900	0.940000
H2171	H217	0.489100	0.241000	0.894900
C1451	C145	0.397000	0.227110	0.910030
H2181	H218	0.400300	0.189500	0.878100
H2191	H219	0.366100	0.213300	0.946200
C1461	C146	0.368000	0.286110	0.874870
C1471	C147	0.311460	0.317990	0.899300
H2201	H220	0.289800	0.300800	0.937900
C1481	C148	0.471710	0.300730	0.976330
H2211	H221	0.429900	0.309000	0.001300
H2221	H222	0.477800	0.337900	0.944300
O371	O37	0.420640	0.110050	0.020580
N381	N38	0.465270	0.739900	0.440000
H2231	H223	0.489100	0.741000	0.394900
C1491	C149	0.397000	0.727110	0.410030
H2241	H224	0.400300	0.689500	0.378100
H2251	H225	0.366100	0.713300	0.446200
C1501	C150	0.368000	0.786110	0.374870
C1511	C151	0.311460	0.817990	0.399300
H2261	H226	0.289800	0.800800	0.437900
C1521	C152	0.471710	0.800730	0.476330
H2271	H227	0.429900	0.809000	0.501300
H2281	H228	0.477800	0.837900	0.444300
O381	O38	0.420640	0.610050	0.520580
N391	N39	0.965270	0.239900	0.440000
H2291	H229	0.989100	0.241000	0.394900
C1531	C153	0.897000	0.227110	0.410030
H2301	H230	0.900300	0.189500	0.378100
H2311	H231	0.866100	0.213300	0.446200
C1541	C154	0.868000	0.286110	0.374870
C1551	C155	0.811460	0.317990	0.399300
H2321	H232	0.789800	0.300800	0.437900
C1561	C156	0.971710	0.300730	0.476330
H2331	H233	0.929900	0.309000	0.501300
H2341	H234	0.977800	0.337900	0.444300
O391	O39	0.920640	0.110050	0.520580
N401	N40	0.965270	0.739900	0.940000
H2351	H235	0.989100	0.741000	0.894900
C1571	C157	0.897000	0.727110	0.910030
H2361	H236	0.900300	0.689500	0.878100
H2371	H237	0.866100	0.713300	0.946200
C1581	C158	0.868000	0.786110	0.874870
C1591	C159	0.811460	0.817990	0.899300
H2381	H238	0.789800	0.800800	0.937900
C1601	C160	0.971710	0.800730	0.976330
H2391	H239	0.929900	0.809000	0.001300
H2401	H240	0.977800	0.837900	0.944300
O401	O40	0.920640	0.610050	0.020580
N411	N41	0.534730	0.760100	0.940000
H2411	H241	0.510900	0.759000	0.894900
C1611	C161	0.603000	0.772890	0.910030
H2421	H242	0.599700	0.810500	0.878100
H2431	H243	0.633900	0.786700	0.946200
C1621	C162	0.632000	0.713890	0.874870
C1631	C163	0.688540	0.682010	0.899300
H2441	H244	0.710200	0.699200	0.937900
C1641	C164	0.528290	0.699270	0.976330
H2451	H245	0.570100	0.691000	0.001300
H2461	H246	0.522200	0.662100	0.944300
O411	O41	0.579360	0.889950	0.020580
N421	N42	0.534730	0.260100	0.440000
H2471	H247	0.510900	0.259000	0.394900
C1651	C165	0.603000	0.272890	0.410030
H2481	H248	0.599700	0.310500	0.378100
H2491	H249	0.633900	0.286700	0.446200
C1661	C166	0.632000	0.213890	0.374870
C1671	C167	0.688540	0.182010	0.399300
H2501	H250	0.710200	0.199200	0.437900
C1681	C168	0.528290	0.199270	0.476330
H2511	H251	0.570100	0.191000	0.501300
H2521	H252	0.522200	0.162100	0.444300
O421	O42	0.579360	0.389950	0.520580
N431	N43	0.034730	0.760100	0.440000
H2531	H253	0.010900	0.759000	0.394900
C1691	C169	0.103000	0.772890	0.410030
H2541	H254	0.099700	0.810500	0.378100
H2551	H255	0.133900	0.786700	0.446200
C1701	C170	0.132000	0.713890	0.374870
C1711	C171	0.188540	0.682010	0.399300
H2561	H256	0.210200	0.699200	0.437900
C1721	C172	0.028290	0.699270	0.476330
H2571	H257	0.070100	0.691000	0.501300
H2581	H258	0.022200	0.662100	0.444300
O431	O43	0.079360	0.889950	0.520580
N441	N44	0.034730	0.260100	0.940000
H2591	H259	0.010900	0.259000	0.894900
C1731	C173	0.103000	0.272890	0.910030
H2601	H260	0.099700	0.310500	0.878100
H2611	H261	0.133900	0.286700	0.946200
C1741	C174	0.132000	0.213890	0.874870
C1751	C175	0.188540	0.182010	0.899300
H2621	H262	0.210200	0.199200	0.937900
C1761	C176	0.028290	0.199270	0.976330
H2631	H263	0.070100	0.191000	0.001300
H2641	H264	0.022200	0.162100	0.944300
O441	O44	0.079360	0.389950	0.020580
N451	N45	0.465270	0.760100	0.060000
H2651	H265	0.489100	0.759000	0.105100
C1771	C177	0.397000	0.772890	0.089970
H2661	H266	0.400300	0.810500	0.121900
H2671	H267	0.366100	0.786700	0.053800
C1781	C178	0.368000	0.713890	0.125130
C1791	C179	0.311460	0.682010	0.100700
H2681	H268	0.289800	0.699200	0.062100
C1801	C180	0.471710	0.699270	0.023670
H2691	H269	0.429900	0.691000	0.998700
H2701	H270	0.477800	0.662100	0.055700
O451	O45	0.420640	0.889950	0.979420
N461	N46	0.465270	0.260100	0.560000
H2711	H271	0.489100	0.259000	0.605100
C1811	C181	0.397000	0.272890	0.589970
H2721	H272	0.400300	0.310500	0.621900
H2731	H273	0.366100	0.286700	0.553800
C1821	C182	0.368000	0.213890	0.625130
C1831	C183	0.311460	0.182010	0.600700
H2741	H274	0.289800	0.199200	0.562100
C1841	C184	0.471710	0.199270	0.523670
H2751	H275	0.429900	0.191000	0.498700
H2761	H276	0.477800	0.162100	0.555700
O461	O46	0.420640	0.389950	0.479420
N471	N47	0.965270	0.760100	0.560000
H2771	H277	0.989100	0.759000	0.605100
C1851	C185	0.897000	0.772890	0.589970
H2781	H278	0.900300	0.810500	0.621900
H2791	H279	0.866100	0.786700	0.553800
C1861	C186	0.868000	0.713890	0.625130
C1871	C187	0.811460	0.682010	0.600700
H2801	H280	0.789800	0.699200	0.562100
C1881	C188	0.971710	0.699270	0.523670
H2811	H281	0.929900	0.691000	0.498700
H2821	H282	0.977800	0.662100	0.555700
O471	O47	0.920640	0.889950	0.479420
N481	N48	0.965270	0.260100	0.060000
H2831	H283	0.989100	0.259000	0.105100
C1891	C189	0.897000	0.272890	0.089970
H2841	H284	0.900300	0.310500	0.121900
H2851	H285	0.866100	0.286700	0.053800
C1901	C190	0.868000	0.213890	0.125130
C1911	C191	0.811460	0.182010	0.100700
H2861	H286	0.789800	0.199200	0.062100
C1921	C192	0.971710	0.199270	0.023670
H2871	H287	0.929900	0.191000	0.998700
H2881	H288	0.977800	0.162100	0.055700
O481	O48	0.920640	0.389950	0.979420
Zn11	Zn1	0.000000	0.500000	0.163430
Zn21	Zn2	0.000000	0.000000	0.663430
Zn31	Zn3	0.500000	0.500000	0.663430
Zn41	Zn4	0.500000	0.000000	0.163430
Zn51	Zn5	0.000000	0.500000	0.836570
Zn61	Zn6	0.000000	0.000000	0.336570
Zn71	Zn7	0.500000	0.500000	0.336570
Zn81	Zn8	0.500000	0.000000	0.836570
Zn91	Zn9	0.163430	0.000000	0.500000
Zn101	Zn10	0.163430	0.500000	0.000000
Zn111	Zn11	0.663430	0.000000	0.000000
Zn121	Zn12	0.663430	0.500000	0.500000
Zn131	Zn13	0.836570	0.000000	0.500000
Zn141	Zn14	0.836570	0.500000	0.000000
Zn151	Zn15	0.336570	0.000000	0.000000
Zn161	Zn16	0.336570	0.500000	0.500000
Zn171	Zn17	0.500000	0.163430	0.000000
Zn181	Zn18	0.500000	0.663430	0.500000
Zn191	Zn19	0.000000	0.163430	0.500000
Zn201	Zn20	0.000000	0.663430	0.000000
Zn211	Zn21	0.500000	0.836570	0.000000
Zn221	Zn22	0.500000	0.336570	0.500000
Zn231	Zn23	0.000000	0.836570	0.500000
Zn241	Zn24	0.000000	0.336570	0.000000
C1931	C193	0.929980	0.570020	0.070020
C1941	C194	0.070020	0.429980	0.070020
C1951	C195	0.070020	0.570020	0.929980
C1961	C196	0.929980	0.429980	0.929980
C1971	C197	0.070020	0.929980	0.570020
C1981	C198	0.070020	0.070020	0.429980
C1991	C199	0.929980	0.070020	0.570020
C2001	C200	0.929980	0.929980	0.429980
C2011	C201	0.570020	0.070020	0.929980
C2021	C202	0.570020	0.570020	0.429980
C2031	C203	0.429980	0.070020	0.070020
C2041	C204	0.429980	0.570020	0.570020
C2051	C205	0.570020	0.929980	0.070020
C2061	C206	0.570020	0.429980	0.570020
C2071	C207	0.429980	0.929980	0.929980
C2081	C208	0.429980	0.429980	0.429980
