data_UBECEM_clean_PM
_symmetry_space_group_name_H-M	'P1'
_cell_length_a	7.738900
_cell_length_b	7.738900
_cell_length_c	27.154500
_cell_angle_alpha	90.000000
_cell_angle_beta	90.000000
_cell_angle_gamma	120.000000
_symmetry_Int_Tables_number 1

loop_
_symmetry_equiv_pos_as_xyz
'x,y,z'

loop_
_atom_site_label
_atom_site_type_symbol
_atom_site_fract_x
_atom_site_fract_y
_atom_site_fract_z
O11	O1	0.573100	0.375000	0.367020
O21	O2	0.680000	0.186300	0.332890
H11	H1	0.886000	0.314000	0.409000
C11	C1	0.658400	0.274000	0.369370
O31	O3	0.625000	0.198100	0.700350
O41	O4	0.813700	0.493700	0.666220
H21	H2	0.686000	0.572000	0.742330
C21	C2	0.726000	0.384400	0.702700
O51	O5	0.801900	0.426900	0.033690
O61	O6	0.506300	0.320000	0.999560
H31	H3	0.428000	0.114000	0.075670
C31	C3	0.615600	0.341600	0.036040
O71	O7	0.426900	0.625000	0.867020
O81	O8	0.320000	0.813700	0.832890
H41	H4	0.114000	0.686000	0.909000
C41	C4	0.341600	0.726000	0.869370
O91	O9	0.375000	0.801900	0.200350
O101	O10	0.186300	0.506300	0.166220
H51	H5	0.314000	0.428000	0.242330
C51	C5	0.274000	0.615600	0.202700
O111	O11	0.198100	0.573100	0.533690
O121	O12	0.493700	0.680000	0.499560
H61	H6	0.572000	0.886000	0.575670
C61	C6	0.384400	0.658400	0.536040
O131	O13	0.375000	0.573100	0.966310
O141	O14	0.186300	0.680000	0.000440
H71	H7	0.314000	0.886000	0.924330
C71	C7	0.274000	0.658400	0.963960
O151	O15	0.198100	0.625000	0.632980
O161	O16	0.493700	0.813700	0.667110
H81	H8	0.572000	0.686000	0.591000
C81	C8	0.384400	0.726000	0.630630
O171	O17	0.426900	0.801900	0.299650
O181	O18	0.320000	0.506300	0.333780
H91	H9	0.114000	0.428000	0.257670
C91	C9	0.341600	0.615600	0.297300
O191	O19	0.625000	0.426900	0.466310
O201	O20	0.813700	0.320000	0.500440
H101	H10	0.686000	0.114000	0.424330
C101	C10	0.726000	0.341600	0.463960
O211	O21	0.801900	0.375000	0.132980
O221	O22	0.506300	0.186300	0.167110
H111	H11	0.428000	0.314000	0.091000
C111	C11	0.615600	0.274000	0.130630
O231	O23	0.573100	0.198100	0.799650
O241	O24	0.680000	0.493700	0.833780
H121	H12	0.886000	0.572000	0.757670
C121	C12	0.658400	0.384400	0.797300
U11	U1	0.452370	0.547620	0.416670
C131	C13	0.747600	0.252400	0.416670
U21	U2	0.452370	0.904750	0.750000
C141	C14	0.747600	0.495200	0.750000
U31	U3	0.095250	0.547620	0.083330
C151	C15	0.504800	0.252400	0.083330
U41	U4	0.547620	0.452370	0.916670
C161	C16	0.252400	0.747600	0.916670
U51	U5	0.547620	0.095250	0.250000
C171	C17	0.252400	0.504800	0.250000
U61	U6	0.904750	0.452370	0.583330
C181	C18	0.495200	0.747600	0.583330
