data_UBIBUF_clean_PM
_symmetry_space_group_name_H-M	'P1'
_cell_length_a	23.068700
_cell_length_b	23.068700
_cell_length_c	20.758700
_cell_angle_alpha	90.000000
_cell_angle_beta	90.000000
_cell_angle_gamma	120.000000
_symmetry_Int_Tables_number 1

loop_
_symmetry_equiv_pos_as_xyz
'x,y,z'

loop_
_atom_site_label
_atom_site_type_symbol
_atom_site_fract_x
_atom_site_fract_y
_atom_site_fract_z
Zn11	Zn1	0.184440	0.407450	0.180720
Zn21	Zn2	0.111370	0.259280	0.152790
Zn31	Zn3	0.074130	0.530330	0.485600
C11	C1	0.001400	0.303600	0.296900
C21	C2	0.012800	0.355100	0.332400
H11	H1	0.054700	0.395500	0.331400
C31	C3	0.961800	0.350700	0.375800
C41	C4	0.899200	0.287700	0.376400
H21	H2	0.864800	0.281900	0.405300
C51	C5	0.889200	0.239000	0.338000
C61	C6	0.938300	0.240000	0.292700
H31	H3	0.930400	0.204400	0.264400
C71	C7	0.056200	0.308800	0.244600
C81	C8	0.675700	0.953500	0.291900
C91	C9	0.738400	0.017500	0.287800
H41	H4	0.773300	0.023600	0.259400
C101	C10	0.744700	0.069400	0.327900
C111	C11	0.700000	0.064800	0.364700
H51	H5	0.709000	0.101800	0.391400
C121	C12	0.634100	0.004300	0.368500
C131	C13	0.623300	0.951400	0.328100
H61	H6	0.579700	0.913400	0.325100
C141	C14	0.671700	0.899900	0.251400
C151	C15	0.579600	0.001500	0.404900
C161	C16	0.301400	0.366700	0.044900
C171	C17	0.360600	0.423800	0.048600
H71	H7	0.365700	0.457500	0.078000
C181	C18	0.415800	0.434800	0.009500
C191	C19	0.411500	0.381800	0.972300
H81	H8	0.450000	0.385400	0.951800
C201	C20	0.350700	0.325000	0.966500
C211	C21	0.294000	0.314800	0.005300
H91	H9	0.252800	0.273700	0.003600
C221	C22	0.332200	0.262300	0.917900
C231	C23	0.238200	0.349400	0.089800
C241	C24	0.967300	0.403200	0.416700
O11	O1	0.106200	0.371300	0.242600
O21	O2	0.052600	0.259800	0.224800
O31	O3	0.028700	0.450900	0.424500
O41	O4	0.919400	0.399700	0.450100
O51	O5	0.585500	0.047800	0.444500
O61	O6	0.525200	0.940000	0.415700
O71	O7	0.610700	0.848000	0.246500
O81	O8	0.719000	0.906100	0.223400
O91	O9	0.191900	0.294100	0.091600
O101	O10	0.247100	0.405200	0.116000
O111	O11	0.392700	0.277000	0.893000
O121	O12	0.279200	0.215800	0.913100
N11	N1	0.819800	0.176400	0.347100
N21	N2	0.820200	0.135600	0.317400
N31	N3	0.476100	0.494600	0.021100
Zn41	Zn4	0.592550	0.776990	0.180720
Zn51	Zn5	0.740720	0.852090	0.152790
Zn61	Zn6	0.469670	0.543800	0.485600
C251	C25	0.696400	0.697800	0.296900
C261	C26	0.644900	0.657700	0.332400
H101	H10	0.604500	0.659200	0.331400
C271	C27	0.649300	0.611100	0.375800
C281	C28	0.712300	0.611500	0.376400
H111	H11	0.718100	0.582900	0.405300
C291	C29	0.761000	0.650200	0.338000
C301	C30	0.760000	0.698300	0.292700
H121	H12	0.795600	0.726000	0.264400
C311	C31	0.691200	0.747400	0.244600
C321	C32	0.046500	0.722200	0.291900
C331	C33	0.982500	0.720900	0.287800
H131	H13	0.976400	0.749700	0.259400
C341	C34	0.930600	0.675300	0.327900
C351	C35	0.935200	0.635200	0.364700
H141	H14	0.898200	0.607200	0.391400
C361	C36	0.995700	0.629800	0.368500
C371	C37	0.048600	0.671900	0.328100
H151	H15	0.086600	0.666300	0.325100
C381	C38	0.100100	0.771800	0.251400
C391	C39	0.998500	0.578100	0.404900
C401	C40	0.633300	0.934700	0.044900
C411	C41	0.576200	0.936800	0.048600
H161	H16	0.542500	0.908200	0.078000
C421	C42	0.565200	0.981000	0.009500
C431	C43	0.618200	0.029700	0.972300
H171	H17	0.614600	0.064600	0.951800
C441	C44	0.675000	0.025700	0.966500
C451	C45	0.685200	0.979200	0.005300
H181	H18	0.726300	0.979100	0.003600
C461	C46	0.737700	0.069900	0.917900
C471	C47	0.650600	0.888800	0.089800
C481	C48	0.596800	0.564100	0.416700
O131	O13	0.628700	0.734900	0.242600
O141	O14	0.740200	0.792800	0.224800
O151	O15	0.549100	0.577800	0.424500
O161	O16	0.600300	0.519700	0.450100
O171	O17	0.952200	0.537700	0.444500
O181	O18	0.060000	0.585200	0.415700
O191	O19	0.152000	0.762700	0.246500
O201	O20	0.093900	0.812900	0.223400
O211	O21	0.705900	0.897800	0.091600
O221	O22	0.594800	0.841900	0.116000
O231	O23	0.723000	0.115700	0.893000
O241	O24	0.784200	0.063400	0.913100
N41	N4	0.823600	0.643400	0.347100
N51	N5	0.864400	0.684600	0.317400
N61	N6	0.505400	0.981500	0.021100
Zn71	Zn7	0.223010	0.815560	0.180720
Zn81	Zn8	0.147910	0.888630	0.152790
Zn91	Zn9	0.456200	0.925870	0.485600
C491	C49	0.302200	0.998600	0.296900
C501	C50	0.342300	0.987200	0.332400
H191	H19	0.340800	0.945300	0.331400
C511	C51	0.388900	0.038200	0.375800
C521	C52	0.388500	0.100800	0.376400
H201	H20	0.417100	0.135200	0.405300
C531	C53	0.349800	0.110800	0.338000
C541	C54	0.301700	0.061700	0.292700
H211	H21	0.274000	0.069600	0.264400
C551	C55	0.252600	0.943800	0.244600
C561	C56	0.277800	0.324300	0.291900
C571	C57	0.279100	0.261600	0.287800
H221	H22	0.250300	0.226700	0.259400
C581	C58	0.324700	0.255300	0.327900
C591	C59	0.364800	0.300000	0.364700
H231	H23	0.392800	0.291000	0.391400
C601	C60	0.370200	0.365900	0.368500
C611	C61	0.328100	0.376700	0.328100
H241	H24	0.333700	0.420300	0.325100
C621	C62	0.228200	0.328300	0.251400
C631	C63	0.421900	0.420400	0.404900
C641	C64	0.065300	0.698600	0.044900
C651	C65	0.063200	0.639400	0.048600
H251	H25	0.091800	0.634300	0.078000
C661	C66	0.019000	0.584200	0.009500
C671	C67	0.970300	0.588500	0.972300
H261	H26	0.935400	0.550000	0.951800
C681	C68	0.974300	0.649300	0.966500
C691	C69	0.020800	0.706000	0.005300
H271	H27	0.020900	0.747200	0.003600
C701	C70	0.930100	0.667800	0.917900
C711	C71	0.111200	0.761800	0.089800
C721	C72	0.435900	0.032700	0.416700
O251	O25	0.265100	0.893800	0.242600
O261	O26	0.207200	0.947400	0.224800
O271	O27	0.422200	0.971300	0.424500
O281	O28	0.480300	0.080600	0.450100
O291	O29	0.462300	0.414500	0.444500
O301	O30	0.414800	0.474800	0.415700
O311	O31	0.237300	0.389300	0.246500
O321	O32	0.187100	0.281000	0.223400
O331	O33	0.102200	0.808100	0.091600
O341	O34	0.158100	0.752900	0.116000
O351	O35	0.884300	0.607300	0.893000
O361	O36	0.936600	0.720800	0.913100
N71	N7	0.356600	0.180200	0.347100
N81	N8	0.315400	0.179800	0.317400
N91	N9	0.018500	0.523900	0.021100
Zn101	Zn10	0.815560	0.592550	0.819280
Zn111	Zn11	0.888630	0.740720	0.847210
Zn121	Zn12	0.925870	0.469670	0.514400
C731	C73	0.998600	0.696400	0.703100
C741	C74	0.987200	0.644900	0.667600
H281	H28	0.945300	0.604500	0.668600
C751	C75	0.038200	0.649300	0.624200
C761	C76	0.100800	0.712300	0.623600
H291	H29	0.135200	0.718100	0.594700
C771	C77	0.110800	0.761000	0.662000
C781	C78	0.061700	0.760000	0.707300
H301	H30	0.069600	0.795600	0.735600
C791	C79	0.943800	0.691200	0.755400
C801	C80	0.324300	0.046500	0.708100
C811	C81	0.261600	0.982500	0.712200
H311	H31	0.226700	0.976400	0.740600
C821	C82	0.255300	0.930600	0.672100
C831	C83	0.300000	0.935200	0.635300
H321	H32	0.291000	0.898200	0.608600
C841	C84	0.365900	0.995700	0.631500
C851	C85	0.376700	0.048600	0.671900
H331	H33	0.420300	0.086600	0.674900
C861	C86	0.328300	0.100100	0.748600
C871	C87	0.420400	0.998500	0.595100
C881	C88	0.698600	0.633300	0.955100
C891	C89	0.639400	0.576200	0.951400
H341	H34	0.634300	0.542500	0.922000
C901	C90	0.584200	0.565200	0.990500
C911	C91	0.588500	0.618200	0.027700
H351	H35	0.550000	0.614600	0.048200
C921	C92	0.649300	0.675000	0.033500
C931	C93	0.706000	0.685200	0.994700
H361	H36	0.747200	0.726300	0.996400
C941	C94	0.667800	0.737700	0.082100
C951	C95	0.761800	0.650600	0.910200
C961	C96	0.032700	0.596800	0.583300
O371	O37	0.893800	0.628700	0.757400
O381	O38	0.947400	0.740200	0.775200
O391	O39	0.971300	0.549100	0.575500
O401	O40	0.080600	0.600300	0.549900
O411	O41	0.414500	0.952200	0.555500
O421	O42	0.474800	0.060000	0.584300
O431	O43	0.389300	0.152000	0.753500
O441	O44	0.281000	0.093900	0.776600
O451	O45	0.808100	0.705900	0.908400
O461	O46	0.752900	0.594800	0.884000
O471	O47	0.607300	0.723000	0.107000
O481	O48	0.720800	0.784200	0.086900
N101	N10	0.180200	0.823600	0.652900
N111	N11	0.179800	0.864400	0.682600
N121	N12	0.523900	0.505400	0.978900
Zn131	Zn13	0.407450	0.223010	0.819280
Zn141	Zn14	0.259280	0.147910	0.847210
Zn151	Zn15	0.530330	0.456200	0.514400
C971	C97	0.303600	0.302200	0.703100
C981	C98	0.355100	0.342300	0.667600
H371	H37	0.395500	0.340800	0.668600
C991	C99	0.350700	0.388900	0.624200
C1001	C100	0.287700	0.388500	0.623600
H381	H38	0.281900	0.417100	0.594700
C1011	C101	0.239000	0.349800	0.662000
C1021	C102	0.240000	0.301700	0.707300
H391	H39	0.204400	0.274000	0.735600
C1031	C103	0.308800	0.252600	0.755400
C1041	C104	0.953500	0.277800	0.708100
C1051	C105	0.017500	0.279100	0.712200
H401	H40	0.023600	0.250300	0.740600
C1061	C106	0.069400	0.324700	0.672100
C1071	C107	0.064800	0.364800	0.635300
H411	H41	0.101800	0.392800	0.608600
C1081	C108	0.004300	0.370200	0.631500
C1091	C109	0.951400	0.328100	0.671900
H421	H42	0.913400	0.333700	0.674900
C1101	C110	0.899900	0.228200	0.748600
C1111	C111	0.001500	0.421900	0.595100
C1121	C112	0.366700	0.065300	0.955100
C1131	C113	0.423800	0.063200	0.951400
H431	H43	0.457500	0.091800	0.922000
C1141	C114	0.434800	0.019000	0.990500
C1151	C115	0.381800	0.970300	0.027700
H441	H44	0.385400	0.935400	0.048200
C1161	C116	0.325000	0.974300	0.033500
C1171	C117	0.314800	0.020800	0.994700
H451	H45	0.273700	0.020900	0.996400
C1181	C118	0.262300	0.930100	0.082100
C1191	C119	0.349400	0.111200	0.910200
C1201	C120	0.403200	0.435900	0.583300
O491	O49	0.371300	0.265100	0.757400
O501	O50	0.259800	0.207200	0.775200
O511	O51	0.450900	0.422200	0.575500
O521	O52	0.399700	0.480300	0.549900
O531	O53	0.047800	0.462300	0.555500
O541	O54	0.940000	0.414800	0.584300
O551	O55	0.848000	0.237300	0.753500
O561	O56	0.906100	0.187100	0.776600
O571	O57	0.294100	0.102200	0.908400
O581	O58	0.405200	0.158100	0.884000
O591	O59	0.277000	0.884300	0.107000
O601	O60	0.215800	0.936600	0.086900
N131	N13	0.176400	0.356600	0.652900
N141	N14	0.135600	0.315400	0.682600
N151	N15	0.494600	0.018500	0.978900
Zn161	Zn16	0.776990	0.184440	0.819280
Zn171	Zn17	0.852090	0.111370	0.847210
Zn181	Zn18	0.543800	0.074130	0.514400
C1211	C121	0.697800	0.001400	0.703100
C1221	C122	0.657700	0.012800	0.667600
H461	H46	0.659200	0.054700	0.668600
C1231	C123	0.611100	0.961800	0.624200
C1241	C124	0.611500	0.899200	0.623600
H471	H47	0.582900	0.864800	0.594700
C1251	C125	0.650200	0.889200	0.662000
C1261	C126	0.698300	0.938300	0.707300
H481	H48	0.726000	0.930400	0.735600
C1271	C127	0.747400	0.056200	0.755400
C1281	C128	0.722200	0.675700	0.708100
C1291	C129	0.720900	0.738400	0.712200
H491	H49	0.749700	0.773300	0.740600
C1301	C130	0.675300	0.744700	0.672100
C1311	C131	0.635200	0.700000	0.635300
H501	H50	0.607200	0.709000	0.608600
C1321	C132	0.629800	0.634100	0.631500
C1331	C133	0.671900	0.623300	0.671900
H511	H51	0.666300	0.579700	0.674900
C1341	C134	0.771800	0.671700	0.748600
C1351	C135	0.578100	0.579600	0.595100
C1361	C136	0.934700	0.301400	0.955100
C1371	C137	0.936800	0.360600	0.951400
H521	H52	0.908200	0.365700	0.922000
C1381	C138	0.981000	0.415800	0.990500
C1391	C139	0.029700	0.411500	0.027700
H531	H53	0.064600	0.450000	0.048200
C1401	C140	0.025700	0.350700	0.033500
C1411	C141	0.979200	0.294000	0.994700
H541	H54	0.979100	0.252800	0.996400
C1421	C142	0.069900	0.332200	0.082100
C1431	C143	0.888800	0.238200	0.910200
C1441	C144	0.564100	0.967300	0.583300
O611	O61	0.734900	0.106200	0.757400
O621	O62	0.792800	0.052600	0.775200
O631	O63	0.577800	0.028700	0.575500
O641	O64	0.519700	0.919400	0.549900
O651	O65	0.537700	0.585500	0.555500
O661	O66	0.585200	0.525200	0.584300
O671	O67	0.762700	0.610700	0.753500
O681	O68	0.812900	0.719000	0.776600
O691	O69	0.897800	0.191900	0.908400
O701	O70	0.841900	0.247100	0.884000
O711	O71	0.115700	0.392700	0.107000
O721	O72	0.063400	0.279200	0.086900
N161	N16	0.643400	0.819800	0.652900
N171	N17	0.684600	0.820200	0.682600
N181	N18	0.981500	0.476100	0.978900
