data_UBIPAY_clean_PM
_symmetry_space_group_name_H-M	'P1'
_cell_length_a	7.849400
_cell_length_b	9.987600
_cell_length_c	12.606700
_cell_angle_alpha	104.131000
_cell_angle_beta	91.094000
_cell_angle_gamma	111.882000
_symmetry_Int_Tables_number 1

loop_
_symmetry_equiv_pos_as_xyz
'x,y,z'

loop_
_atom_site_label
_atom_site_type_symbol
_atom_site_fract_x
_atom_site_fract_y
_atom_site_fract_z
Mn11	Mn1	0.981930	0.278920	0.464370
Mn21	Mn2	0.018070	0.721080	0.535630
H11	H1	0.465300	0.806400	0.458200
H21	H2	0.628200	0.870600	0.167900
H31	H3	0.250900	0.476600	0.182200
H41	H4	0.479900	0.670900	0.993600
H51	H5	0.268200	0.386600	0.018900
H61	H6	0.906700	0.169400	0.682400
H71	H7	0.029700	0.226400	0.863600
H81	H8	0.414200	0.598300	0.822100
H91	H9	0.279800	0.529400	0.644300
H101	H10	0.534700	0.193600	0.541800
H111	H11	0.371800	0.129400	0.832100
H121	H12	0.749100	0.523400	0.817800
H131	H13	0.520100	0.329100	0.006400
H141	H14	0.731800	0.613400	0.981100
H151	H15	0.093300	0.830600	0.317600
H161	H16	0.970300	0.773600	0.136400
H171	H17	0.585800	0.401700	0.177900
H181	H18	0.720200	0.470600	0.355700
C11	C1	0.211400	0.538400	0.395400
C21	C2	0.332800	0.631600	0.329900
C31	C3	0.455800	0.771800	0.381900
C41	C4	0.569500	0.866000	0.322000
C51	C5	0.712000	0.017100	0.379700
C61	C6	0.557800	0.809200	0.209000
C71	C7	0.442800	0.662400	0.156200
C81	C8	0.329900	0.574800	0.217100
C91	C9	0.474600	0.600700	0.037100
C101	C10	0.350500	0.439100	0.971800
C111	C11	0.011700	0.256500	0.710300
C121	C12	0.086000	0.289300	0.819900
C131	C13	0.243900	0.416300	0.862000
C141	C14	0.312500	0.508300	0.795700
C151	C15	0.229200	0.466100	0.688700
C161	C16	0.788600	0.461600	0.604600
C171	C17	0.667200	0.368400	0.670100
C181	C18	0.544200	0.228200	0.618100
C191	C19	0.430500	0.134000	0.678000
C201	C20	0.288000	0.982900	0.620300
C211	C21	0.442200	0.190800	0.791000
C221	C22	0.557200	0.337600	0.843800
C231	C23	0.670100	0.425200	0.782900
C241	C24	0.525400	0.399300	0.962900
C251	C25	0.649500	0.560900	0.028200
C261	C26	0.988300	0.743500	0.289700
C271	C27	0.914000	0.710700	0.180100
C281	C28	0.756100	0.583700	0.138000
C291	C29	0.687500	0.491700	0.204300
C301	C30	0.770800	0.533900	0.311300
N11	N1	0.081700	0.341300	0.645000
N21	N2	0.918300	0.658700	0.355000
O11	O1	0.128700	0.400300	0.352200
O21	O2	0.196700	0.600100	0.492900
O31	O3	0.778100	0.043100	0.475300
O41	O4	0.763000	0.114400	0.326700
O51	O5	0.871300	0.599700	0.647800
O61	O6	0.803300	0.399900	0.507100
O71	O7	0.221900	0.956900	0.524700
O81	O8	0.237000	0.885600	0.673300
