data_UBOGAV_clean_PM
_symmetry_space_group_name_H-M	'P1'
_cell_length_a	9.595000
_cell_length_b	10.330000
_cell_length_c	13.670000
_cell_angle_alpha	75.702000
_cell_angle_beta	88.854000
_cell_angle_gamma	65.345000
_symmetry_Int_Tables_number 1

loop_
_symmetry_equiv_pos_as_xyz
'x,y,z'

loop_
_atom_site_label
_atom_site_type_symbol
_atom_site_fract_x
_atom_site_fract_y
_atom_site_fract_z
U11	U1	0.765810	0.550210	0.999480
U21	U2	0.234190	0.449790	0.000520
U31	U3	0.000000	0.000000	0.000000
Cu11	Cu1	0.902080	0.034810	0.420430
Cu21	Cu2	0.097920	0.965190	0.579570
P11	P1	0.625600	0.317100	0.913400
P21	P2	0.910200	0.688600	0.124750
P31	P3	0.374400	0.682900	0.086600
P41	P4	0.089800	0.311400	0.875250
H11	H1	0.768300	0.148300	0.772600
H21	H2	0.479800	0.345700	0.514800
H31	H3	0.303500	0.516300	0.596600
H41	H4	0.368600	0.506200	0.761800
H51	H5	0.939400	0.416000	0.255600
H61	H6	0.199700	0.354200	0.505600
H71	H7	0.201600	0.583800	0.437800
H81	H8	0.074500	0.730900	0.280800
H91	H9	0.231700	0.851700	0.227400
H101	H10	0.520200	0.654300	0.485200
H111	H11	0.696500	0.483700	0.403400
H121	H12	0.631400	0.493800	0.238200
H131	H13	0.060600	0.584000	0.744400
H141	H14	0.800300	0.645800	0.494400
H151	H15	0.798400	0.416200	0.562200
H161	H16	0.925500	0.269100	0.719200
C11	C1	0.572600	0.322900	0.786000
C21	C2	0.674700	0.224200	0.736800
C31	C3	0.641100	0.235400	0.634500
C41	C4	0.504200	0.340900	0.583000
C51	C5	0.399000	0.442800	0.631700
C61	C6	0.436800	0.434300	0.730500
C71	C7	0.764700	0.143700	0.581800
C81	C8	0.991600	0.587100	0.252800
C91	C9	0.990300	0.451700	0.293800
C101	C10	0.061100	0.366900	0.389200
C111	C11	0.144500	0.414400	0.441800
C121	C12	0.146800	0.550500	0.400600
C131	C13	0.072200	0.637900	0.307800
C141	C14	0.041300	0.228200	0.434700
C151	C15	0.427400	0.677100	0.214000
C161	C16	0.325300	0.775800	0.263200
C171	C17	0.358900	0.764600	0.365500
C181	C18	0.495800	0.659100	0.417000
C191	C19	0.601000	0.557200	0.368300
C201	C20	0.563200	0.565700	0.269500
C211	C21	0.235300	0.856300	0.418200
C221	C22	0.008400	0.412900	0.747200
C231	C23	0.009700	0.548300	0.706200
C241	C24	0.938900	0.633100	0.610800
C251	C25	0.855500	0.585600	0.558200
C261	C26	0.853200	0.449500	0.599400
C271	C27	0.927800	0.362100	0.692200
C281	C28	0.958700	0.771800	0.565300
O11	O1	0.687200	0.433900	0.903400
O21	O2	0.747300	0.160700	0.958600
O31	O3	0.488400	0.345900	0.974900
O41	O4	0.743900	0.711300	0.111000
O51	O5	0.993900	0.587900	0.054200
O61	O6	0.928700	0.832600	0.102700
O71	O7	0.729700	0.136800	0.493800
O81	O8	0.901200	0.079000	0.626500
O91	O9	0.122500	0.146000	0.517300
O101	O10	0.946300	0.206500	0.388300
O111	O11	0.312800	0.566100	0.096600
O121	O12	0.252700	0.839300	0.041400
O131	O13	0.511600	0.654100	0.025100
O141	O14	0.256100	0.288700	0.889000
O151	O15	0.006100	0.412100	0.945800
O161	O16	0.071300	0.167400	0.897300
O171	O17	0.270300	0.863200	0.506200
O181	O18	0.098800	0.921000	0.373500
O191	O19	0.877500	0.854000	0.482700
O201	O20	0.053700	0.793500	0.611700
