data_UCABAE_clean_PM
_symmetry_space_group_name_H-M	'P1'
_cell_length_a	12.153800
_cell_length_b	12.157400
_cell_length_c	16.153600
_cell_angle_alpha	77.045000
_cell_angle_beta	82.550000
_cell_angle_gamma	83.527000
_symmetry_Int_Tables_number 1

loop_
_symmetry_equiv_pos_as_xyz
'x,y,z'

loop_
_atom_site_label
_atom_site_type_symbol
_atom_site_fract_x
_atom_site_fract_y
_atom_site_fract_z
N11	N1	0.112100	0.379100	0.597770
C11	C1	0.135300	0.265300	0.613400
C21	C2	0.161500	0.409800	0.656700
N21	N2	0.194400	0.223600	0.677300
N31	N3	0.210800	0.319200	0.705100
N41	N4	0.872100	0.980900	0.619300
C31	C3	0.810100	0.893500	0.657500
C41	C4	0.839500	0.058300	0.665700
H11	H1	0.866500	0.129200	0.655900
N51	N5	0.742000	0.912400	0.724200
N61	N6	0.762400	0.019200	0.728340
C51	C5	0.712700	0.070400	0.797100
C61	C6	0.676800	0.185300	0.779500
N71	N7	0.252700	0.467900	0.276150
C71	C7	0.549800	0.216000	0.001600
C81	C8	0.452100	0.280800	0.992200
N81	N8	0.145500	0.497400	0.389380
C91	C9	0.612000	0.167600	0.930400
C101	C10	0.158000	0.443300	0.325800
H21	H2	0.108300	0.395300	0.317000
C111	C11	0.300500	0.427700	0.201200
C121	C12	0.389900	0.293500	0.916600
C131	C13	0.598100	0.180800	0.084500
C141	C14	0.839800	0.050600	0.335800
H31	H3	0.900900	0.053900	0.294400
H41	H4	0.162000	0.478000	0.660000
O11	O1	0.084000	0.631500	0.544220
N91	N9	0.845500	0.021800	0.418970
O21	O2	0.010500	0.808800	0.503960
N101	N10	0.734200	0.074400	0.319420
C151	C15	0.756900	0.151800	0.165800
H51	H5	0.832200	0.157000	0.167900
C161	C16	0.274900	0.404400	0.811700
H61	H6	0.239000	0.473900	0.788200
N111	N11	0.666200	0.065500	0.394400
C171	C17	0.532500	0.136200	0.159500
H71	H7	0.457500	0.129700	0.157400
C181	C18	0.688700	0.109500	0.239600
C191	C19	0.458600	0.398400	0.101500
H81	H8	0.532400	0.409400	0.080600
C201	C20	0.332500	0.393100	0.881300
H91	H9	0.332600	0.455700	0.905500
C211	C21	0.235900	0.374700	0.159900
H101	H10	0.160800	0.368600	0.178700
C221	C22	0.576600	0.101500	0.236400
H111	H11	0.531500	0.072900	0.285900
C231	C23	0.321100	0.206200	0.813300
H121	H12	0.315500	0.142700	0.791400
C241	C24	0.659100	0.057600	0.945100
H131	H13	0.657800	0.015800	0.001000
C251	C25	0.284500	0.330700	0.090400
H141	H14	0.241000	0.295600	0.062300
C261	C26	0.079200	0.736200	0.537800
H151	H15	0.134300	0.762400	0.561500
C271	C27	0.411500	0.441500	0.171400
H161	H16	0.453700	0.479400	0.198200
N121	N12	0.306600	0.538900	0.308600
C281	C28	0.379700	0.197300	0.882700
H171	H17	0.413100	0.127100	0.907700
C291	C29	0.271100	0.310200	0.776900
C301	C30	0.627600	0.233800	0.846900
H181	H18	0.604700	0.310800	0.836800
H191	H19	0.683000	0.234000	0.718000
C311	C31	0.710900	0.185800	0.089400
H201	H20	0.756600	0.212900	0.039900
C321	C32	0.708600	0.007500	0.878800
H211	H21	0.738400	0.932400	0.889700
C331	C33	0.238500	0.554100	0.376200
H221	H22	0.253000	0.599800	0.411900
C341	C34	0.737000	0.034300	0.451400
H231	H23	0.714800	0.021600	0.509800
H241	H24	0.817000	0.831000	0.643000
H251	H25	0.112000	0.221000	0.581000
C351	C35	0.397400	0.338200	0.061600
N131	N13	0.887900	0.620900	0.402230
C361	C36	0.864700	0.734700	0.386600
C371	C37	0.838500	0.590200	0.343300
N141	N14	0.805600	0.776400	0.322700
N151	N15	0.789200	0.680800	0.294900
N161	N16	0.127900	0.019100	0.380700
C381	C38	0.189900	0.106500	0.342500
C391	C39	0.160500	0.941700	0.334300
H261	H26	0.133500	0.870800	0.344100
N171	N17	0.258000	0.087600	0.275800
N181	N18	0.237600	0.980800	0.271660
C401	C40	0.287300	0.929600	0.202900
C411	C41	0.323200	0.814700	0.220500
N191	N19	0.747300	0.532100	0.723850
C421	C42	0.450200	0.784000	0.998400
C431	C43	0.547900	0.719200	0.007800
N201	N20	0.854500	0.502600	0.610620
C441	C44	0.388000	0.832400	0.069600
C451	C45	0.842000	0.556700	0.674200
H271	H27	0.891700	0.604700	0.683000
C461	C46	0.699500	0.572300	0.798800
C471	C47	0.610100	0.706500	0.083400
C481	C48	0.401900	0.819200	0.915500
C491	C49	0.160200	0.949400	0.664200
H281	H28	0.099100	0.946100	0.705600
H291	H29	0.838000	0.522000	0.340000
O31	O3	0.916000	0.368500	0.455780
N211	N21	0.154500	0.978200	0.581030
O41	O4	0.989500	0.191200	0.496040
N221	N22	0.265800	0.925600	0.680580
C501	C50	0.243100	0.848200	0.834200
H301	H30	0.167800	0.843000	0.832100
C511	C51	0.725100	0.595600	0.188300
H311	H31	0.761000	0.526100	0.211800
N231	N23	0.333800	0.934500	0.605600
C521	C52	0.467500	0.863800	0.840500
H321	H32	0.542500	0.870300	0.842600
C531	C53	0.311300	0.890500	0.760400
C541	C54	0.541400	0.601600	0.898500
H331	H33	0.467600	0.590600	0.919400
C551	C55	0.667500	0.606900	0.118700
H341	H34	0.667400	0.544300	0.094500
C561	C56	0.764100	0.625300	0.840100
H351	H35	0.839200	0.631400	0.821300
C571	C57	0.423400	0.898500	0.763600
H361	H36	0.468500	0.927100	0.714100
C581	C58	0.678900	0.793800	0.186700
H371	H37	0.684500	0.857300	0.208600
C591	C59	0.340900	0.942400	0.054900
H381	H38	0.342200	0.984200	0.999000
C601	C60	0.715500	0.669300	0.909600
H391	H39	0.759000	0.704400	0.937700
C611	C61	0.920800	0.263800	0.462200
H401	H40	0.865700	0.237600	0.438500
C621	C62	0.588500	0.558500	0.828600
H411	H41	0.546300	0.520600	0.801800
N241	N24	0.693400	0.461100	0.691400
C631	C63	0.620300	0.802700	0.117300
H421	H42	0.586900	0.872900	0.092300
C641	C64	0.728900	0.689800	0.223100
C651	C65	0.372400	0.766200	0.153100
H431	H43	0.395300	0.689200	0.163200
H441	H44	0.317000	0.766000	0.282000
C661	C66	0.289100	0.814200	0.910600
H451	H45	0.243400	0.787100	0.960100
C671	C67	0.291400	0.992500	0.121200
H461	H46	0.261600	0.067600	0.110300
C681	C68	0.761500	0.445900	0.623800
H471	H47	0.747000	0.400200	0.588100
C691	C69	0.263000	0.965700	0.548600
H481	H48	0.285200	0.978400	0.490200
H491	H49	0.183000	0.169000	0.357000
H501	H50	0.888000	0.779000	0.419000
C701	C70	0.602600	0.661800	0.938400
Cd11	Cd1	0.000000	0.500000	0.500000
Cd21	Cd2	0.000000	0.000000	0.500000
