data_UCAXEC_clean_PM
_symmetry_space_group_name_H-M	'P1'
_cell_length_a	7.413000
_cell_length_b	23.889000
_cell_length_c	7.467000
_cell_angle_alpha	90.000000
_cell_angle_beta	92.224000
_cell_angle_gamma	90.000000
_symmetry_Int_Tables_number 1

loop_
_symmetry_equiv_pos_as_xyz
'x,y,z'

loop_
_atom_site_label
_atom_site_type_symbol
_atom_site_fract_x
_atom_site_fract_y
_atom_site_fract_z
O11	O1	0.531800	0.242480	0.662100
C11	C1	0.613300	0.196260	0.680300
O21	O2	0.721600	0.177130	0.570900
C21	C2	0.578600	0.160420	0.845000
H11	H1	0.655400	0.127600	0.843600
H21	H2	0.454100	0.147800	0.839100
C31	C3	0.614600	0.192090	0.020800
O31	O3	0.732300	0.172640	0.129200
O41	O4	0.524200	0.235630	0.048300
Mn11	Mn1	0.365030	0.284790	0.855130
N11	N1	0.575500	0.354430	0.900900
C41	C4	0.544300	0.400100	0.994700
H31	H3	0.431100	0.404800	0.041900
C51	C5	0.674900	0.441400	0.025800
H41	H4	0.647600	0.472400	0.095000
C61	C6	0.842200	0.437100	0.956100
C71	C7	0.871400	0.390500	0.865900
H51	H5	0.983800	0.384700	0.817800
C81	C8	0.740600	0.350500	0.841800
H61	H6	0.770000	0.318300	0.779300
C91	C9	0.988300	0.478600	0.969100
H71	H7	0.089400	0.466300	0.910500
O51	O5	0.968200	0.742480	0.837900
C101	C10	0.886700	0.696260	0.819700
O61	O6	0.778400	0.677130	0.929100
C111	C11	0.921400	0.660420	0.655000
H81	H8	0.844600	0.627600	0.656400
H91	H9	0.045900	0.647800	0.660900
C121	C12	0.885400	0.692090	0.479200
O71	O7	0.767700	0.672640	0.370800
O81	O8	0.975800	0.735630	0.451700
Mn21	Mn2	0.134970	0.784790	0.644870
N21	N2	0.924500	0.854430	0.599100
C131	C13	0.955700	0.900100	0.505300
H101	H10	0.068900	0.904800	0.458100
C141	C14	0.825100	0.941400	0.474200
H111	H11	0.852400	0.972400	0.405000
C151	C15	0.657800	0.937100	0.543900
C161	C16	0.628600	0.890500	0.634100
H121	H12	0.516200	0.884700	0.682200
C171	C17	0.759400	0.850500	0.658200
H131	H13	0.730000	0.818300	0.720700
C181	C18	0.511700	0.978600	0.530900
H141	H14	0.410600	0.966300	0.589500
O91	O9	0.468200	0.757520	0.337900
C191	C19	0.386700	0.803740	0.319700
O101	O10	0.278400	0.822870	0.429100
C201	C20	0.421400	0.839580	0.155000
H151	H15	0.344600	0.872400	0.156400
H161	H16	0.545900	0.852200	0.160900
C211	C21	0.385400	0.807910	0.979200
O111	O11	0.267700	0.827360	0.870800
O121	O12	0.475800	0.764370	0.951700
Mn31	Mn3	0.634970	0.715210	0.144870
N31	N3	0.424500	0.645570	0.099100
C221	C22	0.455700	0.599900	0.005300
H171	H17	0.568900	0.595200	0.958100
C231	C23	0.325100	0.558600	0.974200
H181	H18	0.352400	0.527600	0.905000
C241	C24	0.157800	0.562900	0.043900
C251	C25	0.128600	0.609500	0.134100
H191	H19	0.016200	0.615300	0.182200
C261	C26	0.259400	0.649500	0.158200
H201	H20	0.230000	0.681700	0.220700
C271	C27	0.011700	0.521400	0.030900
H211	H21	0.910600	0.533700	0.089500
O131	O13	0.031800	0.257520	0.162100
C281	C28	0.113300	0.303740	0.180300
O141	O14	0.221600	0.322870	0.070900
C291	C29	0.078600	0.339580	0.345000
H221	H22	0.155400	0.372400	0.343600
H231	H23	0.954100	0.352200	0.339100
C301	C30	0.114600	0.307910	0.520800
O151	O15	0.232300	0.327360	0.629200
O161	O16	0.024200	0.264370	0.548300
Mn41	Mn4	0.865030	0.215210	0.355130
N41	N4	0.075500	0.145570	0.400900
C311	C31	0.044300	0.099900	0.494700
H241	H24	0.931100	0.095200	0.541900
C321	C32	0.174900	0.058600	0.525800
H251	H25	0.147600	0.027600	0.595000
C331	C33	0.342200	0.062900	0.456100
C341	C34	0.371400	0.109500	0.365900
H261	H26	0.483800	0.115300	0.317800
C351	C35	0.240600	0.149500	0.341800
H271	H27	0.270000	0.181700	0.279300
C361	C36	0.488300	0.021400	0.469100
H281	H28	0.589400	0.033700	0.410500
