data_UCEXIK_clean_PM
_symmetry_space_group_name_H-M	'P1'
_cell_length_a	10.741000
_cell_length_b	11.284000
_cell_length_c	26.152000
_cell_angle_alpha	84.970000
_cell_angle_beta	87.963000
_cell_angle_gamma	62.568000
_symmetry_Int_Tables_number 1

loop_
_symmetry_equiv_pos_as_xyz
'x,y,z'

loop_
_atom_site_label
_atom_site_type_symbol
_atom_site_fract_x
_atom_site_fract_y
_atom_site_fract_z
Ho11	Ho1	0.380870	0.035330	0.560290
Ho21	Ho2	0.344180	0.846160	0.741800
Ho31	Ho3	0.411400	0.617270	0.899670
Ho41	Ho4	0.619130	0.964670	0.439710
Ho51	Ho5	0.655820	0.153840	0.258200
Ho61	Ho6	0.588600	0.382730	0.100330
H11	H1	0.453400	0.408100	0.575700
H21	H2	0.544300	0.387500	0.426100
H31	H3	0.338900	0.355500	0.646500
H41	H4	0.364900	0.519800	0.687100
H51	H5	0.438900	0.118300	0.777000
H61	H6	0.454400	0.286300	0.818700
H71	H7	0.036100	0.006100	0.548900
H81	H8	0.824000	0.018100	0.527600
H91	H9	0.853100	0.768700	0.651300
H101	H10	0.072500	0.750100	0.670100
H111	H11	0.710900	0.824200	0.758300
H121	H12	0.922400	0.833600	0.750400
H131	H13	0.018300	0.686500	0.895800
H141	H14	0.816100	0.663100	0.902400
H151	H15	0.362200	0.064700	0.927100
H161	H16	0.594900	0.780500	0.034800
H171	H17	0.130400	0.374000	0.935300
H181	H18	0.051800	0.657800	0.031300
H191	H19	0.546600	0.591900	0.424300
H201	H20	0.455700	0.612500	0.573900
H211	H21	0.661100	0.644500	0.353500
H221	H22	0.635100	0.480200	0.312900
H231	H23	0.561100	0.881700	0.223000
H241	H24	0.545600	0.713700	0.181300
H251	H25	0.963900	0.993900	0.451100
H261	H26	0.176000	0.981900	0.472400
H271	H27	0.146900	0.231300	0.348700
H281	H28	0.927500	0.249900	0.329900
H291	H29	0.289100	0.175800	0.241700
H301	H30	0.077600	0.166400	0.249600
H311	H31	0.981700	0.313500	0.104200
H321	H32	0.183900	0.336900	0.097600
H331	H33	0.637800	0.935300	0.072900
H341	H34	0.405100	0.219500	0.965200
H351	H35	0.869600	0.626000	0.064700
H361	H36	0.948200	0.342200	0.968700
C11	C1	0.488700	0.247100	0.500660
C21	C2	0.494800	0.379000	0.500650
C31	C3	0.471400	0.445700	0.544990
C41	C4	0.525600	0.432500	0.455760
C51	C5	0.675100	0.915300	0.575480
C61	C6	0.369900	0.116000	0.680640
C71	C7	0.382200	0.225000	0.707600
C81	C8	0.363300	0.341000	0.681110
C91	C9	0.380100	0.439300	0.705020
C101	C10	0.421800	0.199400	0.759230
C111	C11	0.435200	0.298600	0.783690
C121	C12	0.211300	0.877500	0.626400
C131	C13	0.075200	0.878500	0.611470
C141	C14	0.000200	0.957400	0.569280
C151	C15	0.872900	0.965800	0.556650
C161	C16	0.818600	0.895000	0.587900
C171	C17	0.890700	0.815300	0.630490
C181	C18	0.021400	0.805500	0.641970
C191	C19	0.420200	0.412400	0.756590
C201	C20	0.440100	0.518700	0.782750
C211	C21	0.129600	0.766200	0.816650
C221	C22	0.993000	0.759000	0.822260
C231	C23	0.612700	0.723500	0.835560
C241	C24	0.741300	0.740500	0.831320
C251	C25	0.773500	0.793500	0.785820
C261	C26	0.900200	0.800600	0.781320
C271	C27	0.958700	0.711300	0.867540
C281	C28	0.835600	0.699400	0.871720
C291	C29	0.437600	0.808000	0.952740
C301	C30	0.469800	0.907800	0.977290
C311	C31	0.417100	0.038200	0.956690
C321	C32	0.555800	0.868900	0.020840
C331	C33	0.230300	0.539500	0.956660
C341	C34	0.116000	0.513500	0.979930
C351	C35	0.078500	0.424400	0.961840
C361	C36	0.031800	0.593600	0.018940
C371	C37	0.511300	0.752900	0.499340
C381	C38	0.505200	0.621000	0.499350
C391	C39	0.528600	0.554300	0.455010
C401	C40	0.474400	0.567500	0.544240
C411	C41	0.324900	0.084700	0.424520
C421	C42	0.630100	0.884000	0.319360
C431	C43	0.617800	0.775000	0.292400
C441	C44	0.636700	0.659000	0.318890
C451	C45	0.619900	0.560700	0.294980
C461	C46	0.578200	0.800600	0.240770
C471	C47	0.564800	0.701400	0.216310
C481	C48	0.788700	0.122500	0.373600
C491	C49	0.924800	0.121500	0.388530
C501	C50	0.999800	0.042600	0.430720
C511	C51	0.127100	0.034200	0.443350
C521	C52	0.181400	0.105000	0.412100
C531	C53	0.109300	0.184700	0.369510
C541	C54	0.978600	0.194500	0.358030
C551	C55	0.579800	0.587600	0.243410
C561	C56	0.559900	0.481300	0.217250
C571	C57	0.870400	0.233800	0.183350
C581	C58	0.007000	0.241000	0.177740
C591	C59	0.387300	0.276500	0.164440
C601	C60	0.258700	0.259500	0.168680
C611	C61	0.226500	0.206500	0.214180
C621	C62	0.099800	0.199400	0.218680
C631	C63	0.041300	0.288700	0.132460
C641	C64	0.164400	0.300600	0.128280
C651	C65	0.562400	0.192000	0.047260
C661	C66	0.530200	0.092200	0.022710
C671	C67	0.582900	0.961800	0.043310
C681	C68	0.444200	0.131100	0.979160
C691	C69	0.769700	0.460500	0.043340
C701	C70	0.884000	0.486500	0.020070
C711	C71	0.921500	0.575600	0.038160
C721	C72	0.968200	0.406400	0.981060
O11	O1	0.426400	0.218400	0.538090
O21	O2	0.543500	0.179500	0.464290
O31	O3	0.630500	0.951100	0.529480
O41	O4	0.593800	0.911600	0.610580
O51	O5	0.245200	0.953500	0.600010
O61	O6	0.334700	0.144200	0.633190
O71	O7	0.159100	0.803100	0.774030
O81	O8	0.394200	0.009100	0.705160
O91	O9	0.273000	0.805700	0.665830
O101	O10	0.436900	0.617300	0.754710
O111	O11	0.512200	0.794100	0.804090
O121	O12	0.605300	0.644700	0.870040
O131	O13	0.207200	0.734000	0.856170
O141	O14	0.355600	0.846000	0.915730
O151	O15	0.494500	0.690200	0.971640
O161	O16	0.256150	0.628200	0.971860
O171	O17	0.302400	0.468200	0.921370
O181	O18	0.463300	0.497700	0.830080
O191	O19	0.573600	0.781600	0.461910
O201	O20	0.456500	0.820500	0.535710
O211	O21	0.369500	0.048900	0.470520
O221	O22	0.406200	0.088400	0.389420
O231	O23	0.754800	0.046500	0.399990
O241	O24	0.665300	0.855800	0.366810
O251	O25	0.840900	0.196900	0.225970
O261	O26	0.605800	0.990900	0.294840
O271	O27	0.727000	0.194300	0.334170
O281	O28	0.563100	0.382700	0.245290
O291	O29	0.487800	0.205900	0.195910
O301	O30	0.394700	0.355300	0.129960
O311	O31	0.792800	0.266000	0.143830
O321	O32	0.644400	0.154000	0.084270
O331	O33	0.505500	0.309800	0.028360
O341	O34	0.743850	0.371800	0.028140
O351	O35	0.697600	0.531800	0.078630
O361	O36	0.536700	0.502300	0.169920
