data_UCOCUM_neutral_PM
_symmetry_space_group_name_H-M	'P1'
_cell_length_a	18.601900
_cell_length_b	18.601900
_cell_length_c	18.601900
_cell_angle_alpha	60.000000
_cell_angle_beta	60.000000
_cell_angle_gamma	60.000000
_symmetry_Int_Tables_number 1

loop_
_symmetry_equiv_pos_as_xyz
'x,y,z'

loop_
_atom_site_label
_atom_site_type_symbol
_atom_site_fract_x
_atom_site_fract_y
_atom_site_fract_z
Cu11	Cu1	0.070460	0.500000	0.929540
Cu21	Cu2	0.500000	0.070460	0.500000
Cu31	Cu3	0.929540	0.500000	0.070460
Cu41	Cu4	0.500000	0.929540	0.500000
Cu51	Cu5	0.070460	0.929540	0.500000
Cu61	Cu6	0.500000	0.500000	0.929540
Cu71	Cu7	0.929540	0.070460	0.500000
Cu81	Cu8	0.500000	0.500000	0.070460
Cu91	Cu9	0.070460	0.500000	0.500000
Cu101	Cu10	0.500000	0.929540	0.070460
Cu111	Cu11	0.929540	0.500000	0.500000
Cu121	Cu12	0.500000	0.070460	0.929540
H11	H1	0.771800	0.465000	0.991400
H21	H2	0.465000	0.771800	0.771800
H31	H3	0.991400	0.771800	0.771800
H41	H4	0.771800	0.991400	0.465000
H51	H5	0.771800	0.991400	0.771800
H61	H6	0.465000	0.771800	0.991400
H71	H7	0.991400	0.771800	0.465000
H81	H8	0.771800	0.465000	0.771800
H91	H9	0.771800	0.771800	0.465000
H101	H10	0.465000	0.991400	0.771800
H111	H11	0.991400	0.465000	0.771800
H121	H12	0.771800	0.771800	0.991400
H131	H13	0.535000	0.228200	0.008600
H141	H14	0.228200	0.535000	0.228200
H151	H15	0.228200	0.008600	0.228200
H161	H16	0.008600	0.228200	0.535000
H171	H17	0.008600	0.228200	0.228200
H181	H18	0.228200	0.535000	0.008600
H191	H19	0.228200	0.008600	0.535000
H201	H20	0.535000	0.228200	0.228200
H211	H21	0.228200	0.228200	0.535000
H221	H22	0.008600	0.535000	0.228200
H231	H23	0.535000	0.008600	0.228200
H241	H24	0.228200	0.228200	0.008600
C11	C1	0.801000	0.466000	0.932000
C21	C2	0.466000	0.801000	0.801000
C31	C3	0.932000	0.801000	0.801000
C41	C4	0.801000	0.932000	0.466000
C51	C5	0.801000	0.932000	0.801000
C61	C6	0.466000	0.801000	0.932000
C71	C7	0.932000	0.801000	0.466000
C81	C8	0.801000	0.466000	0.801000
C91	C9	0.801000	0.801000	0.466000
C101	C10	0.466000	0.932000	0.801000
C111	C11	0.932000	0.466000	0.801000
C121	C12	0.801000	0.801000	0.932000
C131	C13	0.534000	0.199000	0.068000
C141	C14	0.199000	0.534000	0.199000
C151	C15	0.199000	0.068000	0.199000
C161	C16	0.068000	0.199000	0.534000
C171	C17	0.068000	0.199000	0.199000
C181	C18	0.199000	0.534000	0.068000
C191	C19	0.199000	0.068000	0.534000
C201	C20	0.534000	0.199000	0.199000
C211	C21	0.199000	0.199000	0.534000
C221	C22	0.068000	0.534000	0.199000
C231	C23	0.534000	0.068000	0.199000
C241	C24	0.199000	0.199000	0.068000
C251	C25	0.889300	0.466700	0.889300
C261	C26	0.931200	0.475600	0.931200
C271	C27	0.466700	0.889300	0.754700
C281	C28	0.475600	0.931200	0.662000
C291	C29	0.889300	0.754700	0.889300
C301	C30	0.931200	0.662000	0.931200
C311	C31	0.754700	0.889300	0.466700
C321	C32	0.662000	0.931200	0.475600
C331	C33	0.889300	0.889300	0.754700
C341	C34	0.931200	0.931200	0.662000
C351	C35	0.466700	0.754700	0.889300
C361	C36	0.475600	0.662000	0.931200
C371	C37	0.889300	0.889300	0.466700
C381	C38	0.931200	0.931200	0.475600
C391	C39	0.754700	0.466700	0.889300
C401	C40	0.662000	0.475600	0.931200
C411	C41	0.889300	0.754700	0.466700
C421	C42	0.931200	0.662000	0.475600
C431	C43	0.466700	0.889300	0.889300
C441	C44	0.475600	0.931200	0.931200
C451	C45	0.889300	0.466700	0.754700
C461	C46	0.931200	0.475600	0.662000
C471	C47	0.754700	0.889300	0.889300
C481	C48	0.662000	0.931200	0.931200
C491	C49	0.533300	0.110700	0.110700
C501	C50	0.524400	0.068800	0.068800
C511	C51	0.110700	0.533300	0.245300
C521	C52	0.068800	0.524400	0.338000
C531	C53	0.245300	0.110700	0.110700
C541	C54	0.338000	0.068800	0.068800
C551	C55	0.110700	0.245300	0.533300
C561	C56	0.068800	0.338000	0.524400
C571	C57	0.110700	0.110700	0.245300
C581	C58	0.068800	0.068800	0.338000
C591	C59	0.245300	0.533300	0.110700
C601	C60	0.338000	0.524400	0.068800
C611	C61	0.110700	0.110700	0.533300
C621	C62	0.068800	0.068800	0.524400
C631	C63	0.533300	0.245300	0.110700
C641	C64	0.524400	0.338000	0.068800
C651	C65	0.245300	0.110700	0.533300
C661	C66	0.338000	0.068800	0.524400
C671	C67	0.110700	0.533300	0.110700
C681	C68	0.068800	0.524400	0.068800
C691	C69	0.533300	0.110700	0.245300
C701	C70	0.524400	0.068800	0.338000
C711	C71	0.110700	0.245300	0.110700
C721	C72	0.068800	0.338000	0.068800
O11	O1	0.008900	0.478700	0.886100
O21	O2	0.478700	0.008900	0.626300
O31	O3	0.886100	0.626300	0.008900
O41	O4	0.626300	0.886100	0.478700
O51	O5	0.008900	0.886100	0.626300
O61	O6	0.478700	0.626300	0.886100
O71	O7	0.886100	0.008900	0.478700
O81	O8	0.626300	0.478700	0.008900
O91	O9	0.008900	0.626300	0.478700
O101	O10	0.478700	0.886100	0.008900
O111	O11	0.886100	0.478700	0.626300
O121	O12	0.626300	0.008900	0.886100
O131	O13	0.521300	0.991100	0.113900
O141	O14	0.991100	0.521300	0.373700
O151	O15	0.373700	0.113900	0.991100
O161	O16	0.113900	0.373700	0.521300
O171	O17	0.113900	0.991100	0.373700
O181	O18	0.373700	0.521300	0.113900
O191	O19	0.991100	0.113900	0.521300
O201	O20	0.521300	0.373700	0.991100
O211	O21	0.373700	0.991100	0.521300
O221	O22	0.113900	0.521300	0.991100
O231	O23	0.521300	0.113900	0.373700
O241	O24	0.991100	0.373700	0.113900
O251	O25	0.991100	0.521300	0.113900
O261	O26	0.521300	0.991100	0.373700
O271	O27	0.113900	0.373700	0.991100
O281	O28	0.373700	0.113900	0.521300
O291	O29	0.991100	0.113900	0.373700
O301	O30	0.521300	0.373700	0.113900
O311	O31	0.113900	0.991100	0.521300
O321	O32	0.373700	0.521300	0.991100
O331	O33	0.991100	0.373700	0.521300
O341	O34	0.521300	0.113900	0.991100
O351	O35	0.113900	0.521300	0.373700
O361	O36	0.373700	0.991100	0.113900
O371	O37	0.478700	0.008900	0.886100
O381	O38	0.008900	0.478700	0.626300
O391	O39	0.626300	0.886100	0.008900
O401	O40	0.886100	0.626300	0.478700
O411	O41	0.886100	0.008900	0.626300
O421	O42	0.626300	0.478700	0.886100
O431	O43	0.008900	0.886100	0.478700
O441	O44	0.478700	0.626300	0.008900
O451	O45	0.626300	0.008900	0.478700
O461	O46	0.886100	0.478700	0.008900
O471	O47	0.478700	0.886100	0.626300
O481	O48	0.008900	0.626300	0.886100
