data_UCOHUR_clean_PM
_symmetry_space_group_name_H-M	'P1'
_cell_length_a	27.165000
_cell_length_b	13.745000
_cell_length_c	46.162000
_cell_angle_alpha	90.000000
_cell_angle_beta	90.000000
_cell_angle_gamma	90.000000
_symmetry_Int_Tables_number 1

loop_
_symmetry_equiv_pos_as_xyz
'x,y,z'

loop_
_atom_site_label
_atom_site_type_symbol
_atom_site_fract_x
_atom_site_fract_y
_atom_site_fract_z
Zn11	Zn1	0.750440	0.145590	0.192560
Zn21	Zn2	0.464290	0.845550	0.404300
Zn31	Zn3	0.950860	0.856530	0.435660
I11	I1	0.697290	0.297350	0.200880
I21	I2	0.841940	0.161880	0.181230
I31	I3	0.474290	0.757660	0.452620
I41	I4	0.419860	0.771420	0.361050
I51	I5	0.017840	0.946340	0.408150
I61	I6	0.959030	0.679500	0.451570
C11	C1	0.698500	0.056800	0.241820
H11	H1	0.670800	0.079600	0.231300
C21	C2	0.691200	0.019500	0.269160
H21	H2	0.659100	0.015300	0.277100
C31	C3	0.731800	0.987900	0.284890
C41	C4	0.777900	0.991300	0.271750
H31	H3	0.806200	0.968200	0.281700
C51	C5	0.781800	0.028500	0.244240
H41	H4	0.813300	0.030200	0.235300
C61	C6	0.572500	0.885300	0.405700
H51	H5	0.567600	0.877800	0.426000
C71	C7	0.619900	0.897800	0.395610
H61	H6	0.647000	0.898400	0.408600
C81	C8	0.627100	0.909300	0.366050
C91	C9	0.586500	0.910500	0.347760
H71	H7	0.590300	0.921300	0.327600
C101	C10	0.540300	0.895700	0.359680
H81	H8	0.512600	0.894200	0.347100
C111	C11	0.891400	0.898700	0.382580
H91	H9	0.923200	0.905000	0.374300
C121	C12	0.850800	0.913000	0.365090
H101	H10	0.854800	0.928400	0.345200
C131	C13	0.804000	0.904600	0.377020
C141	C14	0.800000	0.881500	0.405940
H111	H11	0.768500	0.875700	0.414700
C151	C15	0.842200	0.866800	0.422080
H121	H12	0.839100	0.849500	0.441900
C161	C16	0.726100	0.956300	0.315530
C171	C17	0.677600	0.922600	0.353860
C181	C18	0.759800	0.919100	0.358610
C191	C19	0.601300	0.105400	0.991290
H131	H13	0.612100	0.170300	0.988200
C201	C20	0.619500	0.054800	0.014960
H141	H14	0.642500	0.084200	0.027700
C211	C21	0.603300	0.959600	0.019640
C221	C22	0.569500	0.919600	0.000590
H151	H15	0.557800	0.855200	0.003400
C231	C23	0.553100	0.974800	0.977260
H161	H16	0.529900	0.947200	0.964200
C241	C24	0.713100	0.970000	0.161590
H171	H17	0.726500	0.937200	0.177900
C251	C25	0.692400	0.915200	0.139390
H181	H18	0.691700	0.846200	0.140500
C261	C26	0.672700	0.963000	0.115580
C271	C27	0.673400	0.064400	0.115150
H191	H19	0.659600	0.099100	0.099300
C281	C28	0.694700	0.113800	0.138180
H201	H20	0.695000	0.182900	0.137900
C291	C29	0.576100	0.512100	0.060660
H211	H21	0.571600	0.468600	0.044900
C301	C30	0.593000	0.606300	0.054960
H221	H22	0.598800	0.627300	0.035600
C311	C31	0.601100	0.668600	0.078270
C321	C32	0.591600	0.635200	0.106010
H231	H23	0.597200	0.676000	0.122300
C331	C33	0.574200	0.542600	0.109650
H241	H24	0.567400	0.520500	0.128700
C341	C34	0.620100	0.905400	0.045800
C351	C35	0.650200	0.907800	0.091180
C361	C36	0.617300	0.770300	0.073510
N11	N1	0.743100	0.062400	0.229450
N21	N2	0.532900	0.883300	0.388200
N31	N3	0.887730	0.876200	0.410660
N41	N4	0.680400	0.947000	0.325780
N51	N5	0.715700	0.907900	0.371330
N61	N6	0.767260	0.942300	0.330870
N71	N7	0.569050	0.066300	0.972610
N81	N8	0.714800	0.067500	0.160790
N91	N9	0.566200	0.481200	0.087360
N101	N10	0.642900	0.956900	0.066460
N111	N11	0.638200	0.815600	0.095970
N121	N12	0.608100	0.810700	0.047460
Zn41	Zn4	0.749560	0.854410	0.692560
Zn51	Zn5	0.035710	0.154450	0.904300
Zn61	Zn6	0.549140	0.143470	0.935660
I71	I7	0.802710	0.702650	0.700880
I81	I8	0.658060	0.838120	0.681230
I91	I9	0.025710	0.242340	0.952620
I101	I10	0.080140	0.228580	0.861050
I111	I11	0.482160	0.053660	0.908150
I121	I12	0.540970	0.320500	0.951570
C371	C37	0.801500	0.943200	0.741820
H251	H25	0.829200	0.920400	0.731300
C381	C38	0.808800	0.980500	0.769160
H261	H26	0.840900	0.984700	0.777100
C391	C39	0.768200	0.012100	0.784890
C401	C40	0.722100	0.008700	0.771750
H271	H27	0.693800	0.031800	0.781700
C411	C41	0.718200	0.971500	0.744240
H281	H28	0.686700	0.969800	0.735300
C421	C42	0.927500	0.114700	0.905700
H291	H29	0.932400	0.122200	0.926000
C431	C43	0.880100	0.102200	0.895610
H301	H30	0.853000	0.101600	0.908600
C441	C44	0.872900	0.090700	0.866050
C451	C45	0.913500	0.089500	0.847760
H311	H31	0.909700	0.078700	0.827600
C461	C46	0.959700	0.104300	0.859680
H321	H32	0.987400	0.105800	0.847100
C471	C47	0.608600	0.101300	0.882580
H331	H33	0.576800	0.095000	0.874300
C481	C48	0.649200	0.087000	0.865090
H341	H34	0.645200	0.071600	0.845200
C491	C49	0.696000	0.095400	0.877020
C501	C50	0.700000	0.118500	0.905940
H351	H35	0.731500	0.124300	0.914700
C511	C51	0.657800	0.133200	0.922080
H361	H36	0.660900	0.150500	0.941900
C521	C52	0.773900	0.043700	0.815530
C531	C53	0.822400	0.077400	0.853860
C541	C54	0.740200	0.080900	0.858610
C551	C55	0.898700	0.894600	0.491290
H371	H37	0.887900	0.829700	0.488200
C561	C56	0.880500	0.945200	0.514960
H381	H38	0.857500	0.915800	0.527700
C571	C57	0.896700	0.040400	0.519640
C581	C58	0.930500	0.080400	0.500590
H391	H39	0.942200	0.144800	0.503400
C591	C59	0.946900	0.025200	0.477260
H401	H40	0.970100	0.052800	0.464200
C601	C60	0.786900	0.030000	0.661590
H411	H41	0.773500	0.062800	0.677900
C611	C61	0.807600	0.084800	0.639390
H421	H42	0.808300	0.153800	0.640500
C621	C62	0.827300	0.037000	0.615580
C631	C63	0.826600	0.935600	0.615150
H431	H43	0.840400	0.900900	0.599300
C641	C64	0.805300	0.886200	0.638180
H441	H44	0.805000	0.817100	0.637900
C651	C65	0.923900	0.487900	0.560660
H451	H45	0.928400	0.531400	0.544900
C661	C66	0.907000	0.393700	0.554960
H461	H46	0.901200	0.372700	0.535600
C671	C67	0.898900	0.331400	0.578270
C681	C68	0.908400	0.364800	0.606010
H471	H47	0.902800	0.324000	0.622300
C691	C69	0.925800	0.457400	0.609650
H481	H48	0.932600	0.479500	0.628700
C701	C70	0.879900	0.094600	0.545800
C711	C71	0.849800	0.092200	0.591180
C721	C72	0.882700	0.229700	0.573510
N131	N13	0.756900	0.937600	0.729450
N141	N14	0.967100	0.116700	0.888200
N151	N15	0.612270	0.123800	0.910660
N161	N16	0.819600	0.053000	0.825780
N171	N17	0.784300	0.092100	0.871330
N181	N18	0.732740	0.057700	0.830870
N191	N19	0.930950	0.933700	0.472610
N201	N20	0.785200	0.932500	0.660790
N211	N21	0.933800	0.518800	0.587360
N221	N22	0.857100	0.043100	0.566460
N231	N23	0.861800	0.184400	0.595970
N241	N24	0.891900	0.189300	0.547460
Zn71	Zn7	0.249560	0.645590	0.307440
Zn81	Zn8	0.535710	0.345550	0.095700
Zn91	Zn9	0.049140	0.356530	0.064340
I131	I13	0.302710	0.797350	0.299120
I141	I14	0.158060	0.661880	0.318770
I151	I15	0.525710	0.257660	0.047380
I161	I16	0.580140	0.271420	0.138950
I171	I17	0.982160	0.446340	0.091850
I181	I18	0.040970	0.179500	0.048430
C731	C73	0.301500	0.556800	0.258180
H491	H49	0.329200	0.579600	0.268700
C741	C74	0.308800	0.519500	0.230840
H501	H50	0.340900	0.515300	0.222900
C751	C75	0.268200	0.487900	0.215110
C761	C76	0.222100	0.491300	0.228250
H511	H51	0.193800	0.468200	0.218300
C771	C77	0.218200	0.528500	0.255760
H521	H52	0.186700	0.530200	0.264700
C781	C78	0.427500	0.385300	0.094300
H531	H53	0.432400	0.377800	0.074000
C791	C79	0.380100	0.397800	0.104390
H541	H54	0.353000	0.398400	0.091400
C801	C80	0.372900	0.409300	0.133950
C811	C81	0.413500	0.410500	0.152240
H551	H55	0.409700	0.421300	0.172400
C821	C82	0.459700	0.395700	0.140320
H561	H56	0.487400	0.394200	0.152900
C831	C83	0.108600	0.398700	0.117420
H571	H57	0.076800	0.405000	0.125700
C841	C84	0.149200	0.413000	0.134910
H581	H58	0.145200	0.428400	0.154800
C851	C85	0.196000	0.404600	0.122980
C861	C86	0.200000	0.381500	0.094060
H591	H59	0.231500	0.375700	0.085300
C871	C87	0.157800	0.366800	0.077920
H601	H60	0.160900	0.349500	0.058100
C881	C88	0.273900	0.456300	0.184470
C891	C89	0.322400	0.422600	0.146140
C901	C90	0.240200	0.419100	0.141390
C911	C91	0.398700	0.605400	0.508710
H611	H61	0.387900	0.670300	0.511800
C921	C92	0.380500	0.554800	0.485040
H621	H62	0.357500	0.584200	0.472300
C931	C93	0.396700	0.459600	0.480360
C941	C94	0.430500	0.419600	0.499410
H631	H63	0.442200	0.355200	0.496600
C951	C95	0.446900	0.474800	0.522740
H641	H64	0.470100	0.447200	0.535800
C961	C96	0.286900	0.470000	0.338410
H651	H65	0.273500	0.437200	0.322100
C971	C97	0.307600	0.415200	0.360610
H661	H66	0.308300	0.346200	0.359500
C981	C98	0.327300	0.463000	0.384420
C991	C99	0.326600	0.564400	0.384850
H671	H67	0.340400	0.599100	0.400700
C1001	C100	0.305300	0.613800	0.361820
H681	H68	0.305000	0.682900	0.362100
C1011	C101	0.423900	0.012100	0.439340
H691	H69	0.428400	0.968600	0.455100
C1021	C102	0.407000	0.106300	0.445040
H701	H70	0.401200	0.127300	0.464400
C1031	C103	0.398900	0.168600	0.421730
C1041	C104	0.408400	0.135200	0.393990
H711	H71	0.402800	0.176000	0.377700
C1051	C105	0.425800	0.042600	0.390350
H721	H72	0.432600	0.020500	0.371300
C1061	C106	0.379900	0.405400	0.454200
C1071	C107	0.349800	0.407800	0.408820
C1081	C108	0.382700	0.270300	0.426490
N251	N25	0.256900	0.562400	0.270550
N261	N26	0.467100	0.383300	0.111800
N271	N27	0.112270	0.376200	0.089340
N281	N28	0.319600	0.447000	0.174220
N291	N29	0.284300	0.407900	0.128670
N301	N30	0.232740	0.442300	0.169130
N311	N31	0.430950	0.566300	0.527390
N321	N32	0.285200	0.567500	0.339210
N331	N33	0.433800	0.981200	0.412640
N341	N34	0.357100	0.456900	0.433540
N351	N35	0.361800	0.315600	0.404030
N361	N36	0.391900	0.310700	0.452540
Zn101	Zn10	0.250440	0.354410	0.807440
Zn111	Zn11	0.964290	0.654450	0.595700
Zn121	Zn12	0.450860	0.643470	0.564340
I191	I19	0.197290	0.202650	0.799120
I201	I20	0.341940	0.338120	0.818770
I211	I21	0.974290	0.742340	0.547380
I221	I22	0.919860	0.728580	0.638950
I231	I23	0.517840	0.553660	0.591850
I241	I24	0.459030	0.820500	0.548430
C1091	C109	0.198500	0.443200	0.758180
H731	H73	0.170800	0.420400	0.768700
C1101	C110	0.191200	0.480500	0.730840
H741	H74	0.159100	0.484700	0.722900
C1111	C111	0.231800	0.512100	0.715110
C1121	C112	0.277900	0.508700	0.728250
H751	H75	0.306200	0.531800	0.718300
C1131	C113	0.281800	0.471500	0.755760
H761	H76	0.313300	0.469800	0.764700
C1141	C114	0.072500	0.614700	0.594300
H771	H77	0.067600	0.622200	0.574000
C1151	C115	0.119900	0.602200	0.604390
H781	H78	0.147000	0.601600	0.591400
C1161	C116	0.127100	0.590700	0.633950
C1171	C117	0.086500	0.589500	0.652240
H791	H79	0.090300	0.578700	0.672400
C1181	C118	0.040300	0.604300	0.640320
H801	H80	0.012600	0.605800	0.652900
C1191	C119	0.391400	0.601300	0.617420
H811	H81	0.423200	0.595000	0.625700
C1201	C120	0.350800	0.587000	0.634910
H821	H82	0.354800	0.571600	0.654800
C1211	C121	0.304000	0.595400	0.622980
C1221	C122	0.300000	0.618500	0.594060
H831	H83	0.268500	0.624300	0.585300
C1231	C123	0.342200	0.633200	0.577920
H841	H84	0.339100	0.650500	0.558100
C1241	C124	0.226100	0.543700	0.684470
C1251	C125	0.177600	0.577400	0.646140
C1261	C126	0.259800	0.580900	0.641390
C1271	C127	0.101300	0.394600	0.008710
H851	H85	0.112100	0.329700	0.011800
C1281	C128	0.119500	0.445200	0.985040
H861	H86	0.142500	0.415800	0.972300
C1291	C129	0.103300	0.540400	0.980360
C1301	C130	0.069500	0.580400	0.999410
H871	H87	0.057800	0.644800	0.996600
C1311	C131	0.053100	0.525200	0.022740
H881	H88	0.029900	0.552800	0.035800
C1321	C132	0.213100	0.530000	0.838410
H891	H89	0.226500	0.562800	0.822100
C1331	C133	0.192400	0.584800	0.860610
H901	H90	0.191700	0.653800	0.859500
C1341	C134	0.172700	0.537000	0.884420
C1351	C135	0.173400	0.435600	0.884850
H911	H91	0.159600	0.400900	0.900700
C1361	C136	0.194700	0.386200	0.861820
H921	H92	0.195000	0.317100	0.862100
C1371	C137	0.076100	0.987900	0.939340
H931	H93	0.071600	0.031400	0.955100
C1381	C138	0.093000	0.893700	0.945040
H941	H94	0.098800	0.872700	0.964400
C1391	C139	0.101100	0.831400	0.921730
C1401	C140	0.091600	0.864800	0.893990
H951	H95	0.097200	0.824000	0.877700
C1411	C141	0.074200	0.957400	0.890350
H961	H96	0.067400	0.979500	0.871300
C1421	C142	0.120100	0.594600	0.954200
C1431	C143	0.150200	0.592200	0.908820
C1441	C144	0.117300	0.729700	0.926490
N371	N37	0.243100	0.437600	0.770550
N381	N38	0.032900	0.616700	0.611800
N391	N39	0.387730	0.623800	0.589340
N401	N40	0.180400	0.553000	0.674220
N411	N41	0.215700	0.592100	0.628670
N421	N42	0.267260	0.557700	0.669130
N431	N43	0.069050	0.433700	0.027390
N441	N44	0.214800	0.432500	0.839210
N451	N45	0.066200	0.018800	0.912640
N461	N46	0.142900	0.543100	0.933540
N471	N47	0.138200	0.684400	0.904030
N481	N48	0.108100	0.689300	0.952540
Zn131	Zn13	0.249560	0.854410	0.807440
Zn141	Zn14	0.535710	0.154450	0.595700
Zn151	Zn15	0.049140	0.143470	0.564340
I251	I25	0.302710	0.702650	0.799120
I261	I26	0.158060	0.838120	0.818770
I271	I27	0.525710	0.242340	0.547380
I281	I28	0.580140	0.228580	0.638950
I291	I29	0.982160	0.053660	0.591850
I301	I30	0.040970	0.320500	0.548430
C1451	C145	0.301500	0.943200	0.758180
H971	H97	0.329200	0.920400	0.768700
C1461	C146	0.308800	0.980500	0.730840
H981	H98	0.340900	0.984700	0.722900
C1471	C147	0.268200	0.012100	0.715110
C1481	C148	0.222100	0.008700	0.728250
H991	H99	0.193800	0.031800	0.718300
C1491	C149	0.218200	0.971500	0.755760
H1001	H100	0.186700	0.969800	0.764700
C1501	C150	0.427500	0.114700	0.594300
H1011	H101	0.432400	0.122200	0.574000
C1511	C151	0.380100	0.102200	0.604390
H1021	H102	0.353000	0.101600	0.591400
C1521	C152	0.372900	0.090700	0.633950
C1531	C153	0.413500	0.089500	0.652240
H1031	H103	0.409700	0.078700	0.672400
C1541	C154	0.459700	0.104300	0.640320
H1041	H104	0.487400	0.105800	0.652900
C1551	C155	0.108600	0.101300	0.617420
H1051	H105	0.076800	0.095000	0.625700
C1561	C156	0.149200	0.087000	0.634910
H1061	H106	0.145200	0.071600	0.654800
C1571	C157	0.196000	0.095400	0.622980
C1581	C158	0.200000	0.118500	0.594060
H1071	H107	0.231500	0.124300	0.585300
C1591	C159	0.157800	0.133200	0.577920
H1081	H108	0.160900	0.150500	0.558100
C1601	C160	0.273900	0.043700	0.684470
C1611	C161	0.322400	0.077400	0.646140
C1621	C162	0.240200	0.080900	0.641390
C1631	C163	0.398700	0.894600	0.008710
H1091	H109	0.387900	0.829700	0.011800
C1641	C164	0.380500	0.945200	0.985040
H1101	H110	0.357500	0.915800	0.972300
C1651	C165	0.396700	0.040400	0.980360
C1661	C166	0.430500	0.080400	0.999410
H1111	H111	0.442200	0.144800	0.996600
C1671	C167	0.446900	0.025200	0.022740
H1121	H112	0.470100	0.052800	0.035800
C1681	C168	0.286900	0.030000	0.838410
H1131	H113	0.273500	0.062800	0.822100
C1691	C169	0.307600	0.084800	0.860610
H1141	H114	0.308300	0.153800	0.859500
C1701	C170	0.327300	0.037000	0.884420
C1711	C171	0.326600	0.935600	0.884850
H1151	H115	0.340400	0.900900	0.900700
C1721	C172	0.305300	0.886200	0.861820
H1161	H116	0.305000	0.817100	0.862100
C1731	C173	0.423900	0.487900	0.939340
H1171	H117	0.428400	0.531400	0.955100
C1741	C174	0.407000	0.393700	0.945040
H1181	H118	0.401200	0.372700	0.964400
C1751	C175	0.398900	0.331400	0.921730
C1761	C176	0.408400	0.364800	0.893990
H1191	H119	0.402800	0.324000	0.877700
C1771	C177	0.425800	0.457400	0.890350
H1201	H120	0.432600	0.479500	0.871300
C1781	C178	0.379900	0.094600	0.954200
C1791	C179	0.349800	0.092200	0.908820
C1801	C180	0.382700	0.229700	0.926490
N491	N49	0.256900	0.937600	0.770550
N501	N50	0.467100	0.116700	0.611800
N511	N51	0.112270	0.123800	0.589340
N521	N52	0.319600	0.053000	0.674220
N531	N53	0.284300	0.092100	0.628670
N541	N54	0.232740	0.057700	0.669130
N551	N55	0.430950	0.933700	0.027390
N561	N56	0.285200	0.932500	0.839210
N571	N57	0.433800	0.518800	0.912640
N581	N58	0.357100	0.043100	0.933540
N591	N59	0.361800	0.184400	0.904030
N601	N60	0.391900	0.189300	0.952540
Zn161	Zn16	0.250440	0.145590	0.307440
Zn171	Zn17	0.964290	0.845550	0.095700
Zn181	Zn18	0.450860	0.856530	0.064340
I311	I31	0.197290	0.297350	0.299120
I321	I32	0.341940	0.161880	0.318770
I331	I33	0.974290	0.757660	0.047380
I341	I34	0.919860	0.771420	0.138950
I351	I35	0.517840	0.946340	0.091850
I361	I36	0.459030	0.679500	0.048430
C1811	C181	0.198500	0.056800	0.258180
H1211	H121	0.170800	0.079600	0.268700
C1821	C182	0.191200	0.019500	0.230840
H1221	H122	0.159100	0.015300	0.222900
C1831	C183	0.231800	0.987900	0.215110
C1841	C184	0.277900	0.991300	0.228250
H1231	H123	0.306200	0.968200	0.218300
C1851	C185	0.281800	0.028500	0.255760
H1241	H124	0.313300	0.030200	0.264700
C1861	C186	0.072500	0.885300	0.094300
H1251	H125	0.067600	0.877800	0.074000
C1871	C187	0.119900	0.897800	0.104390
H1261	H126	0.147000	0.898400	0.091400
C1881	C188	0.127100	0.909300	0.133950
C1891	C189	0.086500	0.910500	0.152240
H1271	H127	0.090300	0.921300	0.172400
C1901	C190	0.040300	0.895700	0.140320
H1281	H128	0.012600	0.894200	0.152900
C1911	C191	0.391400	0.898700	0.117420
H1291	H129	0.423200	0.905000	0.125700
C1921	C192	0.350800	0.913000	0.134910
H1301	H130	0.354800	0.928400	0.154800
C1931	C193	0.304000	0.904600	0.122980
C1941	C194	0.300000	0.881500	0.094060
H1311	H131	0.268500	0.875700	0.085300
C1951	C195	0.342200	0.866800	0.077920
H1321	H132	0.339100	0.849500	0.058100
C1961	C196	0.226100	0.956300	0.184470
C1971	C197	0.177600	0.922600	0.146140
C1981	C198	0.259800	0.919100	0.141390
C1991	C199	0.101300	0.105400	0.508710
H1331	H133	0.112100	0.170300	0.511800
C2001	C200	0.119500	0.054800	0.485040
H1341	H134	0.142500	0.084200	0.472300
C2011	C201	0.103300	0.959600	0.480360
C2021	C202	0.069500	0.919600	0.499410
H1351	H135	0.057800	0.855200	0.496600
C2031	C203	0.053100	0.974800	0.522740
H1361	H136	0.029900	0.947200	0.535800
C2041	C204	0.213100	0.970000	0.338410
H1371	H137	0.226500	0.937200	0.322100
C2051	C205	0.192400	0.915200	0.360610
H1381	H138	0.191700	0.846200	0.359500
C2061	C206	0.172700	0.963000	0.384420
C2071	C207	0.173400	0.064400	0.384850
H1391	H139	0.159600	0.099100	0.400700
C2081	C208	0.194700	0.113800	0.361820
H1401	H140	0.195000	0.182900	0.362100
C2091	C209	0.076100	0.512100	0.439340
H1411	H141	0.071600	0.468600	0.455100
C2101	C210	0.093000	0.606300	0.445040
H1421	H142	0.098800	0.627300	0.464400
C2111	C211	0.101100	0.668600	0.421730
C2121	C212	0.091600	0.635200	0.393990
H1431	H143	0.097200	0.676000	0.377700
C2131	C213	0.074200	0.542600	0.390350
H1441	H144	0.067400	0.520500	0.371300
C2141	C214	0.120100	0.905400	0.454200
C2151	C215	0.150200	0.907800	0.408820
C2161	C216	0.117300	0.770300	0.426490
N611	N61	0.243100	0.062400	0.270550
N621	N62	0.032900	0.883300	0.111800
N631	N63	0.387730	0.876200	0.089340
N641	N64	0.180400	0.947000	0.174220
N651	N65	0.215700	0.907900	0.128670
N661	N66	0.267260	0.942300	0.169130
N671	N67	0.069050	0.066300	0.527390
N681	N68	0.214800	0.067500	0.339210
N691	N69	0.066200	0.481200	0.412640
N701	N70	0.142900	0.956900	0.433540
N711	N71	0.138200	0.815600	0.404030
N721	N72	0.108100	0.810700	0.452540
Zn191	Zn19	0.750440	0.354410	0.692560
Zn201	Zn20	0.464290	0.654450	0.904300
Zn211	Zn21	0.950860	0.643470	0.935660
I371	I37	0.697290	0.202650	0.700880
I381	I38	0.841940	0.338120	0.681230
I391	I39	0.474290	0.742340	0.952620
I401	I40	0.419860	0.728580	0.861050
I411	I41	0.017840	0.553660	0.908150
I421	I42	0.959030	0.820500	0.951570
C2171	C217	0.698500	0.443200	0.741820
H1451	H145	0.670800	0.420400	0.731300
C2181	C218	0.691200	0.480500	0.769160
H1461	H146	0.659100	0.484700	0.777100
C2191	C219	0.731800	0.512100	0.784890
C2201	C220	0.777900	0.508700	0.771750
H1471	H147	0.806200	0.531800	0.781700
C2211	C221	0.781800	0.471500	0.744240
H1481	H148	0.813300	0.469800	0.735300
C2221	C222	0.572500	0.614700	0.905700
H1491	H149	0.567600	0.622200	0.926000
C2231	C223	0.619900	0.602200	0.895610
H1501	H150	0.647000	0.601600	0.908600
C2241	C224	0.627100	0.590700	0.866050
C2251	C225	0.586500	0.589500	0.847760
H1511	H151	0.590300	0.578700	0.827600
C2261	C226	0.540300	0.604300	0.859680
H1521	H152	0.512600	0.605800	0.847100
C2271	C227	0.891400	0.601300	0.882580
H1531	H153	0.923200	0.595000	0.874300
C2281	C228	0.850800	0.587000	0.865090
H1541	H154	0.854800	0.571600	0.845200
C2291	C229	0.804000	0.595400	0.877020
C2301	C230	0.800000	0.618500	0.905940
H1551	H155	0.768500	0.624300	0.914700
C2311	C231	0.842200	0.633200	0.922080
H1561	H156	0.839100	0.650500	0.941900
C2321	C232	0.726100	0.543700	0.815530
C2331	C233	0.677600	0.577400	0.853860
C2341	C234	0.759800	0.580900	0.858610
C2351	C235	0.601300	0.394600	0.491290
H1571	H157	0.612100	0.329700	0.488200
C2361	C236	0.619500	0.445200	0.514960
H1581	H158	0.642500	0.415800	0.527700
C2371	C237	0.603300	0.540400	0.519640
C2381	C238	0.569500	0.580400	0.500590
H1591	H159	0.557800	0.644800	0.503400
C2391	C239	0.553100	0.525200	0.477260
H1601	H160	0.529900	0.552800	0.464200
C2401	C240	0.713100	0.530000	0.661590
H1611	H161	0.726500	0.562800	0.677900
C2411	C241	0.692400	0.584800	0.639390
H1621	H162	0.691700	0.653800	0.640500
C2421	C242	0.672700	0.537000	0.615580
C2431	C243	0.673400	0.435600	0.615150
H1631	H163	0.659600	0.400900	0.599300
C2441	C244	0.694700	0.386200	0.638180
H1641	H164	0.695000	0.317100	0.637900
C2451	C245	0.576100	0.987900	0.560660
H1651	H165	0.571600	0.031400	0.544900
C2461	C246	0.593000	0.893700	0.554960
H1661	H166	0.598800	0.872700	0.535600
C2471	C247	0.601100	0.831400	0.578270
C2481	C248	0.591600	0.864800	0.606010
H1671	H167	0.597200	0.824000	0.622300
C2491	C249	0.574200	0.957400	0.609650
H1681	H168	0.567400	0.979500	0.628700
C2501	C250	0.620100	0.594600	0.545800
C2511	C251	0.650200	0.592200	0.591180
C2521	C252	0.617300	0.729700	0.573510
N731	N73	0.743100	0.437600	0.729450
N741	N74	0.532900	0.616700	0.888200
N751	N75	0.887730	0.623800	0.910660
N761	N76	0.680400	0.553000	0.825780
N771	N77	0.715700	0.592100	0.871330
N781	N78	0.767260	0.557700	0.830870
N791	N79	0.569050	0.433700	0.472610
N801	N80	0.714800	0.432500	0.660790
N811	N81	0.566200	0.018800	0.587360
N821	N82	0.642900	0.543100	0.566460
N831	N83	0.638200	0.684400	0.595970
N841	N84	0.608100	0.689300	0.547460
Zn221	Zn22	0.749560	0.645590	0.192560
Zn231	Zn23	0.035710	0.345550	0.404300
Zn241	Zn24	0.549140	0.356530	0.435660
I431	I43	0.802710	0.797350	0.200880
I441	I44	0.658060	0.661880	0.181230
I451	I45	0.025710	0.257660	0.452620
I461	I46	0.080140	0.271420	0.361050
I471	I47	0.482160	0.446340	0.408150
I481	I48	0.540970	0.179500	0.451570
C2531	C253	0.801500	0.556800	0.241820
H1691	H169	0.829200	0.579600	0.231300
C2541	C254	0.808800	0.519500	0.269160
H1701	H170	0.840900	0.515300	0.277100
C2551	C255	0.768200	0.487900	0.284890
C2561	C256	0.722100	0.491300	0.271750
H1711	H171	0.693800	0.468200	0.281700
C2571	C257	0.718200	0.528500	0.244240
H1721	H172	0.686700	0.530200	0.235300
C2581	C258	0.927500	0.385300	0.405700
H1731	H173	0.932400	0.377800	0.426000
C2591	C259	0.880100	0.397800	0.395610
H1741	H174	0.853000	0.398400	0.408600
C2601	C260	0.872900	0.409300	0.366050
C2611	C261	0.913500	0.410500	0.347760
H1751	H175	0.909700	0.421300	0.327600
C2621	C262	0.959700	0.395700	0.359680
H1761	H176	0.987400	0.394200	0.347100
C2631	C263	0.608600	0.398700	0.382580
H1771	H177	0.576800	0.405000	0.374300
C2641	C264	0.649200	0.413000	0.365090
H1781	H178	0.645200	0.428400	0.345200
C2651	C265	0.696000	0.404600	0.377020
C2661	C266	0.700000	0.381500	0.405940
H1791	H179	0.731500	0.375700	0.414700
C2671	C267	0.657800	0.366800	0.422080
H1801	H180	0.660900	0.349500	0.441900
C2681	C268	0.773900	0.456300	0.315530
C2691	C269	0.822400	0.422600	0.353860
C2701	C270	0.740200	0.419100	0.358610
C2711	C271	0.898700	0.605400	0.991290
H1811	H181	0.887900	0.670300	0.988200
C2721	C272	0.880500	0.554800	0.014960
H1821	H182	0.857500	0.584200	0.027700
C2731	C273	0.896700	0.459600	0.019640
C2741	C274	0.930500	0.419600	0.000590
H1831	H183	0.942200	0.355200	0.003400
C2751	C275	0.946900	0.474800	0.977260
H1841	H184	0.970100	0.447200	0.964200
C2761	C276	0.786900	0.470000	0.161590
H1851	H185	0.773500	0.437200	0.177900
C2771	C277	0.807600	0.415200	0.139390
H1861	H186	0.808300	0.346200	0.140500
C2781	C278	0.827300	0.463000	0.115580
C2791	C279	0.826600	0.564400	0.115150
H1871	H187	0.840400	0.599100	0.099300
C2801	C280	0.805300	0.613800	0.138180
H1881	H188	0.805000	0.682900	0.137900
C2811	C281	0.923900	0.012100	0.060660
H1891	H189	0.928400	0.968600	0.044900
C2821	C282	0.907000	0.106300	0.054960
H1901	H190	0.901200	0.127300	0.035600
C2831	C283	0.898900	0.168600	0.078270
C2841	C284	0.908400	0.135200	0.106010
H1911	H191	0.902800	0.176000	0.122300
C2851	C285	0.925800	0.042600	0.109650
H1921	H192	0.932600	0.020500	0.128700
C2861	C286	0.879900	0.405400	0.045800
C2871	C287	0.849800	0.407800	0.091180
C2881	C288	0.882700	0.270300	0.073510
N851	N85	0.756900	0.562400	0.229450
N861	N86	0.967100	0.383300	0.388200
N871	N87	0.612270	0.376200	0.410660
N881	N88	0.819600	0.447000	0.325780
N891	N89	0.784300	0.407900	0.371330
N901	N90	0.732740	0.442300	0.330870
N911	N91	0.930950	0.566300	0.972610
N921	N92	0.785200	0.567500	0.160790
N931	N93	0.933800	0.981200	0.087360
N941	N94	0.857100	0.456900	0.066460
N951	N95	0.861800	0.315600	0.095970
N961	N96	0.891900	0.310700	0.047460
