data_UCOJED_clean_PM
_symmetry_space_group_name_H-M	'P1'
_cell_length_a	13.785000
_cell_length_b	27.110000
_cell_length_c	45.814000
_cell_angle_alpha	90.000000
_cell_angle_beta	90.000000
_cell_angle_gamma	90.000000
_symmetry_Int_Tables_number 1

loop_
_symmetry_equiv_pos_as_xyz
'x,y,z'

loop_
_atom_site_label
_atom_site_type_symbol
_atom_site_fract_x
_atom_site_fract_y
_atom_site_fract_z
Zn11	Zn1	0.345580	0.756560	0.688660
Zn21	Zn2	0.643120	0.032710	0.916890
Zn31	Zn3	0.646190	0.551030	0.925990
Zn41	Zn4	0.654420	0.743440	0.188660
Zn51	Zn5	0.356880	0.467290	0.416890
Zn61	Zn6	0.353810	0.948970	0.425990
Zn71	Zn7	0.845580	0.243440	0.811340
Zn81	Zn8	0.143120	0.967290	0.583110
Zn91	Zn9	0.146190	0.448970	0.574010
Zn101	Zn10	0.154420	0.256560	0.311340
Zn111	Zn11	0.856880	0.532710	0.083110
Zn121	Zn12	0.853810	0.051030	0.074010
H11	H1	0.443800	0.695400	0.733400
H21	H2	0.500500	0.702800	0.781900
H31	H3	0.489500	0.851100	0.771800
H41	H4	0.419700	0.840000	0.727300
H51	H5	0.606100	0.996500	0.855600
H61	H6	0.576100	0.921900	0.830500
H71	H7	0.577400	0.853100	0.907600
H81	H8	0.606000	0.926800	0.931000
H91	H9	0.630200	0.660100	0.936600
H101	H10	0.608500	0.732900	0.913000
H111	H11	0.550400	0.652200	0.839000
H121	H12	0.584500	0.583700	0.866500
H131	H13	0.553000	0.953800	0.451000
H141	H14	0.640700	0.935400	0.492500
H151	H15	0.389500	0.885600	0.528600
H161	H16	0.310800	0.909200	0.485800
H171	H17	0.312500	0.796200	0.630700
H181	H18	0.397800	0.830600	0.590800
H191	H19	0.642800	0.817800	0.635500
H201	H20	0.558100	0.784000	0.674200
H211	H21	0.995100	0.910700	0.617100
H221	H22	0.839800	0.880300	0.612100
H231	H23	0.831900	0.928900	0.529000
H241	H24	0.996800	0.954100	0.533900
H251	H25	0.556200	0.804600	0.233400
H261	H26	0.499500	0.797200	0.281900
H271	H27	0.510500	0.648900	0.271800
H281	H28	0.580300	0.660000	0.227300
H291	H29	0.393900	0.503500	0.355600
H301	H30	0.423900	0.578100	0.330500
H311	H31	0.422600	0.646900	0.407600
H321	H32	0.394000	0.573200	0.431000
H331	H33	0.369800	0.839900	0.436600
H341	H34	0.391500	0.767100	0.413000
H351	H35	0.449600	0.847800	0.339000
H361	H36	0.415500	0.916300	0.366500
H371	H37	0.447000	0.546200	0.951000
H381	H38	0.359300	0.564600	0.992500
H391	H39	0.610500	0.614400	0.028600
H401	H40	0.689200	0.590800	0.985800
H411	H41	0.687500	0.703800	0.130700
H421	H42	0.602200	0.669400	0.090800
H431	H43	0.357200	0.682200	0.135500
H441	H44	0.441900	0.716000	0.174200
H451	H45	0.004900	0.589300	0.117100
H461	H46	0.160200	0.619700	0.112100
H471	H47	0.168100	0.571100	0.029000
H481	H48	0.003200	0.545900	0.033900
H491	H49	0.943800	0.304600	0.766600
H501	H50	0.000500	0.297200	0.718100
H511	H51	0.989500	0.148900	0.728200
H521	H52	0.919700	0.160000	0.772700
H531	H53	0.106100	0.003500	0.644400
H541	H54	0.076100	0.078100	0.669500
H551	H55	0.077400	0.146900	0.592400
H561	H56	0.106000	0.073200	0.569000
H571	H57	0.130200	0.339900	0.563400
H581	H58	0.108500	0.267100	0.587000
H591	H59	0.050400	0.347800	0.661000
H601	H60	0.084500	0.416300	0.633500
H611	H61	0.053000	0.046200	0.049000
H621	H62	0.140700	0.064600	0.007500
H631	H63	0.889500	0.114400	0.971400
H641	H64	0.810800	0.090800	0.014200
H651	H65	0.812500	0.203800	0.869300
H661	H66	0.897800	0.169400	0.909200
H671	H67	0.142800	0.182200	0.864500
H681	H68	0.058100	0.216000	0.825800
H691	H69	0.495100	0.089300	0.882900
H701	H70	0.339800	0.119700	0.887900
H711	H71	0.331900	0.071100	0.971000
H721	H72	0.496800	0.045900	0.966100
H731	H73	0.056200	0.195400	0.266600
H741	H74	0.999500	0.202800	0.218100
H751	H75	0.010500	0.351100	0.228200
H761	H76	0.080300	0.340000	0.272700
H771	H77	0.893900	0.496500	0.144400
H781	H78	0.923900	0.421900	0.169500
H791	H79	0.922600	0.353100	0.092400
H801	H80	0.894000	0.426800	0.069000
H811	H81	0.869800	0.160100	0.063400
H821	H82	0.891500	0.232900	0.087000
H831	H83	0.949600	0.152200	0.161000
H841	H84	0.915500	0.083700	0.133500
H851	H85	0.947000	0.453800	0.549000
H861	H86	0.859300	0.435400	0.507500
H871	H87	0.110500	0.385600	0.471400
H881	H88	0.189200	0.409200	0.514200
H891	H89	0.187500	0.296200	0.369300
H901	H90	0.102200	0.330600	0.409200
H911	H91	0.857200	0.317800	0.364500
H921	H92	0.941900	0.284000	0.325800
H931	H93	0.504900	0.410700	0.382900
H941	H94	0.660200	0.380300	0.387900
H951	H95	0.668100	0.428900	0.471000
H961	H96	0.503200	0.454100	0.466100
C11	C1	0.451100	0.727400	0.741700
C21	C2	0.485700	0.731200	0.770500
C31	C3	0.497400	0.778700	0.781700
C41	C4	0.477100	0.818800	0.764700
C51	C5	0.439600	0.811900	0.738100
C61	C6	0.600100	0.966600	0.866300
C71	C7	0.582800	0.922000	0.851100
C81	C8	0.576000	0.879100	0.866700
C91	C9	0.583700	0.882300	0.896300
C101	C10	0.600200	0.926100	0.910300
C111	C11	0.615600	0.659300	0.916300
C121	C12	0.602000	0.702500	0.902900
C131	C13	0.577000	0.700700	0.872700
C141	C14	0.568500	0.655100	0.858900
C151	C15	0.587900	0.614900	0.875900
C161	C16	0.527500	0.784200	0.813100
C171	C17	0.561800	0.829700	0.852000
C181	C18	0.561200	0.746700	0.856000
C191	C19	0.519400	0.940300	0.467200
C201	C20	0.573400	0.928200	0.491500
C211	C21	0.525500	0.904900	0.514700
C221	C22	0.425400	0.899200	0.512900
C231	C23	0.378900	0.914100	0.487200
C241	C24	0.380400	0.801500	0.632200
C251	C25	0.431000	0.822400	0.608300
C261	C26	0.527700	0.830500	0.610800
C271	C27	0.574200	0.814900	0.634500
C281	C28	0.523900	0.794600	0.657300
C291	C29	0.963000	0.914200	0.598900
C301	C30	0.869900	0.896100	0.596000
C311	C31	0.820300	0.900700	0.570400
C321	C32	0.865700	0.924000	0.546900
C331	C33	0.962800	0.940300	0.550000
C341	C34	0.580100	0.887800	0.541300
C351	C35	0.580000	0.853500	0.584900
C361	C36	0.716400	0.886400	0.566800
C371	C37	0.548900	0.772600	0.241700
C381	C38	0.514300	0.768800	0.270500
C391	C39	0.502600	0.721300	0.281700
C401	C40	0.522900	0.681200	0.264700
C411	C41	0.560400	0.688100	0.238100
C421	C42	0.399900	0.533400	0.366300
C431	C43	0.417200	0.578000	0.351100
C441	C44	0.424000	0.620900	0.366700
C451	C45	0.416300	0.617700	0.396300
C461	C46	0.399800	0.573900	0.410300
C471	C47	0.384400	0.840700	0.416300
C481	C48	0.398000	0.797500	0.402900
C491	C49	0.423000	0.799300	0.372700
C501	C50	0.431500	0.844900	0.358900
C511	C51	0.412100	0.885100	0.375900
C521	C52	0.472500	0.715800	0.313100
C531	C53	0.438200	0.670300	0.352000
C541	C54	0.438800	0.753300	0.356000
C551	C55	0.480600	0.559700	0.967200
C561	C56	0.426600	0.571800	0.991500
C571	C57	0.474500	0.595100	0.014700
C581	C58	0.574600	0.600800	0.012900
C591	C59	0.621100	0.585900	0.987200
C601	C60	0.619600	0.698500	0.132200
C611	C61	0.569000	0.677600	0.108300
C621	C62	0.472300	0.669500	0.110800
C631	C63	0.425800	0.685100	0.134500
C641	C64	0.476100	0.705400	0.157300
C651	C65	0.037000	0.585800	0.098900
C661	C66	0.130100	0.603900	0.096000
C671	C67	0.179700	0.599300	0.070400
C681	C68	0.134300	0.576000	0.046900
C691	C69	0.037200	0.559700	0.050000
C701	C70	0.419900	0.612200	0.041300
C711	C71	0.420000	0.646500	0.084900
C721	C72	0.283600	0.613600	0.066800
C731	C73	0.951100	0.272600	0.758300
C741	C74	0.985700	0.268800	0.729500
C751	C75	0.997400	0.221300	0.718300
C761	C76	0.977100	0.181200	0.735300
C771	C77	0.939600	0.188100	0.761900
C781	C78	0.100100	0.033400	0.633700
C791	C79	0.082800	0.078000	0.648900
C801	C80	0.076000	0.120900	0.633300
C811	C81	0.083700	0.117700	0.603700
C821	C82	0.100200	0.073900	0.589700
C831	C83	0.115600	0.340700	0.583700
C841	C84	0.102000	0.297500	0.597100
C851	C85	0.077000	0.299300	0.627300
C861	C86	0.068500	0.344900	0.641100
C871	C87	0.087900	0.385100	0.624100
C881	C88	0.027500	0.215800	0.686900
C891	C89	0.061800	0.170300	0.648000
C901	C90	0.061200	0.253300	0.644000
C911	C91	0.019400	0.059700	0.032800
C921	C92	0.073400	0.071800	0.008500
C931	C93	0.025500	0.095100	0.985300
C941	C94	0.925400	0.100800	0.987100
C951	C95	0.878900	0.085900	0.012800
C961	C96	0.880400	0.198500	0.867800
C971	C97	0.931000	0.177600	0.891700
C981	C98	0.027700	0.169500	0.889200
C991	C99	0.074200	0.185100	0.865500
C1001	C100	0.023900	0.205400	0.842700
C1011	C101	0.463000	0.085800	0.901100
C1021	C102	0.369900	0.103900	0.904000
C1031	C103	0.320300	0.099300	0.929600
C1041	C104	0.365700	0.076000	0.953100
C1051	C105	0.462800	0.059700	0.950000
C1061	C106	0.080100	0.112200	0.958700
C1071	C107	0.080000	0.146500	0.915100
C1081	C108	0.216400	0.113600	0.933200
C1091	C109	0.048900	0.227400	0.258300
C1101	C110	0.014300	0.231200	0.229500
C1111	C111	0.002600	0.278700	0.218300
C1121	C112	0.022900	0.318800	0.235300
C1131	C113	0.060400	0.311900	0.261900
C1141	C114	0.899900	0.466600	0.133700
C1151	C115	0.917200	0.422000	0.148900
C1161	C116	0.924000	0.379100	0.133300
C1171	C117	0.916300	0.382300	0.103700
C1181	C118	0.899800	0.426100	0.089700
C1191	C119	0.884400	0.159300	0.083700
C1201	C120	0.898000	0.202500	0.097100
C1211	C121	0.923000	0.200700	0.127300
C1221	C122	0.931500	0.155100	0.141100
C1231	C123	0.912100	0.114900	0.124100
C1241	C124	0.972500	0.284200	0.186900
C1251	C125	0.938200	0.329700	0.148000
C1261	C126	0.938800	0.246700	0.144000
C1271	C127	0.980600	0.440300	0.532800
C1281	C128	0.926600	0.428200	0.508500
C1291	C129	0.974500	0.404900	0.485300
C1301	C130	0.074600	0.399200	0.487100
C1311	C131	0.121100	0.414100	0.512800
C1321	C132	0.119600	0.301500	0.367800
C1331	C133	0.069000	0.322400	0.391700
C1341	C134	0.972300	0.330500	0.389200
C1351	C135	0.925800	0.314900	0.365500
C1361	C136	0.976100	0.294600	0.342700
C1371	C137	0.537000	0.414200	0.401100
C1381	C138	0.630100	0.396100	0.404000
C1391	C139	0.679700	0.400700	0.429600
C1401	C140	0.634300	0.424000	0.453100
C1411	C141	0.537200	0.440300	0.450000
C1421	C142	0.919900	0.387800	0.458700
C1431	C143	0.920000	0.353500	0.415100
C1441	C144	0.783600	0.386400	0.433200
I11	I1	0.328200	0.663640	0.679380
I21	I2	0.191270	0.809170	0.694970
I31	I3	0.736110	0.085190	0.881280
I41	I4	0.710420	0.008600	0.966830
I51	I5	0.553450	0.483410	0.899300
I61	I6	0.827650	0.555420	0.935150
I71	I7	0.671800	0.836360	0.179380
I81	I8	0.808730	0.690830	0.194970
I91	I9	0.263890	0.414810	0.381280
I101	I10	0.289580	0.491400	0.466830
I111	I11	0.446550	0.016590	0.399300
I121	I12	0.172350	0.944580	0.435150
I131	I13	0.828200	0.336360	0.820620
I141	I14	0.691270	0.190830	0.805030
I151	I15	0.236110	0.914810	0.618720
I161	I16	0.210420	0.991400	0.533170
I171	I17	0.053450	0.516590	0.600700
I181	I18	0.327650	0.444580	0.564850
I191	I19	0.171800	0.163640	0.320620
I201	I20	0.308730	0.309170	0.305030
I211	I21	0.763890	0.585190	0.118720
I221	I22	0.789580	0.508600	0.033170
I231	I23	0.946550	0.983410	0.100700
I241	I24	0.672350	0.055420	0.064850
N11	N1	0.428300	0.766100	0.725600
N21	N2	0.608100	0.968000	0.894900
N31	N3	0.610400	0.614500	0.903390
N41	N4	0.539100	0.829600	0.823900
N51	N5	0.576500	0.790700	0.869200
N61	N6	0.536700	0.742100	0.827500
N71	N7	0.423900	0.934600	0.464800
N81	N8	0.425200	0.789200	0.656200
N91	N9	0.008100	0.935700	0.577600
N101	N10	0.529100	0.864300	0.561400
N111	N11	0.674400	0.863300	0.589100
N121	N12	0.671500	0.898900	0.542100
N131	N13	0.571700	0.733900	0.225600
N141	N14	0.391900	0.532000	0.394900
N151	N15	0.389600	0.885500	0.403390
N161	N16	0.460900	0.670400	0.323900
N171	N17	0.423500	0.709300	0.369200
N181	N18	0.463300	0.757900	0.327500
N191	N19	0.576100	0.565400	0.964800
N201	N20	0.574800	0.710800	0.156200
N211	N21	0.991900	0.564300	0.077600
N221	N22	0.470900	0.635700	0.061400
N231	N23	0.325600	0.636700	0.089100
N241	N24	0.328500	0.601100	0.042100
N251	N25	0.928300	0.233900	0.774400
N261	N26	0.108100	0.032000	0.605100
N271	N27	0.110400	0.385500	0.596610
N281	N28	0.039100	0.170400	0.676100
N291	N29	0.076500	0.209300	0.630800
N301	N30	0.036700	0.257900	0.672500
N311	N31	0.923900	0.065400	0.035200
N321	N32	0.925200	0.210800	0.843800
N331	N33	0.508100	0.064300	0.922400
N341	N34	0.029100	0.135700	0.938600
N351	N35	0.174400	0.136700	0.910900
N361	N36	0.171500	0.101100	0.957900
N371	N37	0.071700	0.266100	0.274400
N381	N38	0.891900	0.468000	0.105100
N391	N39	0.889600	0.114500	0.096610
N401	N40	0.960900	0.329600	0.176100
N411	N41	0.923500	0.290700	0.130800
N421	N42	0.963300	0.242100	0.172500
N431	N43	0.076100	0.434600	0.535200
N441	N44	0.074800	0.289200	0.343800
N451	N45	0.491900	0.435700	0.422400
N461	N46	0.970900	0.364300	0.438600
N471	N47	0.825600	0.363300	0.410900
N481	N48	0.828500	0.398900	0.457900
Zn131	Zn13	0.654420	0.243440	0.311340
Zn141	Zn14	0.356880	0.967290	0.083110
Zn151	Zn15	0.353810	0.448970	0.074010
Zn161	Zn16	0.345580	0.256560	0.811340
Zn171	Zn17	0.643120	0.532710	0.583110
Zn181	Zn18	0.646190	0.051030	0.574010
Zn191	Zn19	0.154420	0.756560	0.188660
Zn201	Zn20	0.856880	0.032710	0.416890
Zn211	Zn21	0.853810	0.551030	0.425990
Zn221	Zn22	0.845580	0.743440	0.688660
Zn231	Zn23	0.143120	0.467290	0.916890
Zn241	Zn24	0.146190	0.948970	0.925990
H971	H97	0.556200	0.304600	0.266600
H981	H98	0.499500	0.297200	0.218100
H991	H99	0.510500	0.148900	0.228200
H1001	H100	0.580300	0.160000	0.272700
H1011	H101	0.393900	0.003500	0.144400
H1021	H102	0.423900	0.078100	0.169500
H1031	H103	0.422600	0.146900	0.092400
H1041	H104	0.394000	0.073200	0.069000
H1051	H105	0.369800	0.339900	0.063400
H1061	H106	0.391500	0.267100	0.087000
H1071	H107	0.449600	0.347800	0.161000
H1081	H108	0.415500	0.416300	0.133500
H1091	H109	0.447000	0.046200	0.549000
H1101	H110	0.359300	0.064600	0.507500
H1111	H111	0.610500	0.114400	0.471400
H1121	H112	0.689200	0.090800	0.514200
H1131	H113	0.687500	0.203800	0.369300
H1141	H114	0.602200	0.169400	0.409200
H1151	H115	0.357200	0.182200	0.364500
H1161	H116	0.441900	0.216000	0.325800
H1171	H117	0.004900	0.089300	0.382900
H1181	H118	0.160200	0.119700	0.387900
H1191	H119	0.168100	0.071100	0.471000
H1201	H120	0.003200	0.045900	0.466100
H1211	H121	0.443800	0.195400	0.766600
H1221	H122	0.500500	0.202800	0.718100
H1231	H123	0.489500	0.351100	0.728200
H1241	H124	0.419700	0.340000	0.772700
H1251	H125	0.606100	0.496500	0.644400
H1261	H126	0.576100	0.421900	0.669500
H1271	H127	0.577400	0.353100	0.592400
H1281	H128	0.606000	0.426800	0.569000
H1291	H129	0.630200	0.160100	0.563400
H1301	H130	0.608500	0.232900	0.587000
H1311	H131	0.550400	0.152200	0.661000
H1321	H132	0.584500	0.083700	0.633500
H1331	H133	0.553000	0.453800	0.049000
H1341	H134	0.640700	0.435400	0.007500
H1351	H135	0.389500	0.385600	0.971400
H1361	H136	0.310800	0.409200	0.014200
H1371	H137	0.312500	0.296200	0.869300
H1381	H138	0.397800	0.330600	0.909200
H1391	H139	0.642800	0.317800	0.864500
H1401	H140	0.558100	0.284000	0.825800
H1411	H141	0.995100	0.410700	0.882900
H1421	H142	0.839800	0.380300	0.887900
H1431	H143	0.831900	0.428900	0.971000
H1441	H144	0.996800	0.454100	0.966100
H1451	H145	0.056200	0.695400	0.233400
H1461	H146	0.999500	0.702800	0.281900
H1471	H147	0.010500	0.851100	0.271800
H1481	H148	0.080300	0.840000	0.227300
H1491	H149	0.893900	0.996500	0.355600
H1501	H150	0.923900	0.921900	0.330500
H1511	H151	0.922600	0.853100	0.407600
H1521	H152	0.894000	0.926800	0.431000
H1531	H153	0.869800	0.660100	0.436600
H1541	H154	0.891500	0.732900	0.413000
H1551	H155	0.949600	0.652200	0.339000
H1561	H156	0.915500	0.583700	0.366500
H1571	H157	0.947000	0.953800	0.951000
H1581	H158	0.859300	0.935400	0.992500
H1591	H159	0.110500	0.885600	0.028600
H1601	H160	0.189200	0.909200	0.985800
H1611	H161	0.187500	0.796200	0.130700
H1621	H162	0.102200	0.830600	0.090800
H1631	H163	0.857200	0.817800	0.135500
H1641	H164	0.941900	0.784000	0.174200
H1651	H165	0.504900	0.910700	0.117100
H1661	H166	0.660200	0.880300	0.112100
H1671	H167	0.668100	0.928900	0.029000
H1681	H168	0.503200	0.954100	0.033900
H1691	H169	0.943800	0.804600	0.733400
H1701	H170	0.000500	0.797200	0.781900
H1711	H171	0.989500	0.648900	0.771800
H1721	H172	0.919700	0.660000	0.727300
H1731	H173	0.106100	0.503500	0.855600
H1741	H174	0.076100	0.578100	0.830500
H1751	H175	0.077400	0.646900	0.907600
H1761	H176	0.106000	0.573200	0.931000
H1771	H177	0.130200	0.839900	0.936600
H1781	H178	0.108500	0.767100	0.913000
H1791	H179	0.050400	0.847800	0.839000
H1801	H180	0.084500	0.916300	0.866500
H1811	H181	0.053000	0.546200	0.451000
H1821	H182	0.140700	0.564600	0.492500
H1831	H183	0.889500	0.614400	0.528600
H1841	H184	0.810800	0.590800	0.485800
H1851	H185	0.812500	0.703800	0.630700
H1861	H186	0.897800	0.669400	0.590800
H1871	H187	0.142800	0.682200	0.635500
H1881	H188	0.058100	0.716000	0.674200
H1891	H189	0.495100	0.589300	0.617100
H1901	H190	0.339800	0.619700	0.612100
H1911	H191	0.331900	0.571100	0.529000
H1921	H192	0.496800	0.545900	0.533900
C1451	C145	0.548900	0.272600	0.258300
C1461	C146	0.514300	0.268800	0.229500
C1471	C147	0.502600	0.221300	0.218300
C1481	C148	0.522900	0.181200	0.235300
C1491	C149	0.560400	0.188100	0.261900
C1501	C150	0.399900	0.033400	0.133700
C1511	C151	0.417200	0.078000	0.148900
C1521	C152	0.424000	0.120900	0.133300
C1531	C153	0.416300	0.117700	0.103700
C1541	C154	0.399800	0.073900	0.089700
C1551	C155	0.384400	0.340700	0.083700
C1561	C156	0.398000	0.297500	0.097100
C1571	C157	0.423000	0.299300	0.127300
C1581	C158	0.431500	0.344900	0.141100
C1591	C159	0.412100	0.385100	0.124100
C1601	C160	0.472500	0.215800	0.186900
C1611	C161	0.438200	0.170300	0.148000
C1621	C162	0.438800	0.253300	0.144000
C1631	C163	0.480600	0.059700	0.532800
C1641	C164	0.426600	0.071800	0.508500
C1651	C165	0.474500	0.095100	0.485300
C1661	C166	0.574600	0.100800	0.487100
C1671	C167	0.621100	0.085900	0.512800
C1681	C168	0.619600	0.198500	0.367800
C1691	C169	0.569000	0.177600	0.391700
C1701	C170	0.472300	0.169500	0.389200
C1711	C171	0.425800	0.185100	0.365500
C1721	C172	0.476100	0.205400	0.342700
C1731	C173	0.037000	0.085800	0.401100
C1741	C174	0.130100	0.103900	0.404000
C1751	C175	0.179700	0.099300	0.429600
C1761	C176	0.134300	0.076000	0.453100
C1771	C177	0.037200	0.059700	0.450000
C1781	C178	0.419900	0.112200	0.458700
C1791	C179	0.420000	0.146500	0.415100
C1801	C180	0.283600	0.113600	0.433200
C1811	C181	0.451100	0.227400	0.758300
C1821	C182	0.485700	0.231200	0.729500
C1831	C183	0.497400	0.278700	0.718300
C1841	C184	0.477100	0.318800	0.735300
C1851	C185	0.439600	0.311900	0.761900
C1861	C186	0.600100	0.466600	0.633700
C1871	C187	0.582800	0.422000	0.648900
C1881	C188	0.576000	0.379100	0.633300
C1891	C189	0.583700	0.382300	0.603700
C1901	C190	0.600200	0.426100	0.589700
C1911	C191	0.615600	0.159300	0.583700
C1921	C192	0.602000	0.202500	0.597100
C1931	C193	0.577000	0.200700	0.627300
C1941	C194	0.568500	0.155100	0.641100
C1951	C195	0.587900	0.114900	0.624100
C1961	C196	0.527500	0.284200	0.686900
C1971	C197	0.561800	0.329700	0.648000
C1981	C198	0.561200	0.246700	0.644000
C1991	C199	0.519400	0.440300	0.032800
C2001	C200	0.573400	0.428200	0.008500
C2011	C201	0.525500	0.404900	0.985300
C2021	C202	0.425400	0.399200	0.987100
C2031	C203	0.378900	0.414100	0.012800
C2041	C204	0.380400	0.301500	0.867800
C2051	C205	0.431000	0.322400	0.891700
C2061	C206	0.527700	0.330500	0.889200
C2071	C207	0.574200	0.314900	0.865500
C2081	C208	0.523900	0.294600	0.842700
C2091	C209	0.963000	0.414200	0.901100
C2101	C210	0.869900	0.396100	0.904000
C2111	C211	0.820300	0.400700	0.929600
C2121	C212	0.865700	0.424000	0.953100
C2131	C213	0.962800	0.440300	0.950000
C2141	C214	0.580100	0.387800	0.958700
C2151	C215	0.580000	0.353500	0.915100
C2161	C216	0.716400	0.386400	0.933200
C2171	C217	0.048900	0.727400	0.241700
C2181	C218	0.014300	0.731200	0.270500
C2191	C219	0.002600	0.778700	0.281700
C2201	C220	0.022900	0.818800	0.264700
C2211	C221	0.060400	0.811900	0.238100
C2221	C222	0.899900	0.966600	0.366300
C2231	C223	0.917200	0.922000	0.351100
C2241	C224	0.924000	0.879100	0.366700
C2251	C225	0.916300	0.882300	0.396300
C2261	C226	0.899800	0.926100	0.410300
C2271	C227	0.884400	0.659300	0.416300
C2281	C228	0.898000	0.702500	0.402900
C2291	C229	0.923000	0.700700	0.372700
C2301	C230	0.931500	0.655100	0.358900
C2311	C231	0.912100	0.614900	0.375900
C2321	C232	0.972500	0.784200	0.313100
C2331	C233	0.938200	0.829700	0.352000
C2341	C234	0.938800	0.746700	0.356000
C2351	C235	0.980600	0.940300	0.967200
C2361	C236	0.926600	0.928200	0.991500
C2371	C237	0.974500	0.904900	0.014700
C2381	C238	0.074600	0.899200	0.012900
C2391	C239	0.121100	0.914100	0.987200
C2401	C240	0.119600	0.801500	0.132200
C2411	C241	0.069000	0.822400	0.108300
C2421	C242	0.972300	0.830500	0.110800
C2431	C243	0.925800	0.814900	0.134500
C2441	C244	0.976100	0.794600	0.157300
C2451	C245	0.537000	0.914200	0.098900
C2461	C246	0.630100	0.896100	0.096000
C2471	C247	0.679700	0.900700	0.070400
C2481	C248	0.634300	0.924000	0.046900
C2491	C249	0.537200	0.940300	0.050000
C2501	C250	0.919900	0.887800	0.041300
C2511	C251	0.920000	0.853500	0.084900
C2521	C252	0.783600	0.886400	0.066800
C2531	C253	0.951100	0.772600	0.741700
C2541	C254	0.985700	0.768800	0.770500
C2551	C255	0.997400	0.721300	0.781700
C2561	C256	0.977100	0.681200	0.764700
C2571	C257	0.939600	0.688100	0.738100
C2581	C258	0.100100	0.533400	0.866300
C2591	C259	0.082800	0.578000	0.851100
C2601	C260	0.076000	0.620900	0.866700
C2611	C261	0.083700	0.617700	0.896300
C2621	C262	0.100200	0.573900	0.910300
C2631	C263	0.115600	0.840700	0.916300
C2641	C264	0.102000	0.797500	0.902900
C2651	C265	0.077000	0.799300	0.872700
C2661	C266	0.068500	0.844900	0.858900
C2671	C267	0.087900	0.885100	0.875900
C2681	C268	0.027500	0.715800	0.813100
C2691	C269	0.061800	0.670300	0.852000
C2701	C270	0.061200	0.753300	0.856000
C2711	C271	0.019400	0.559700	0.467200
C2721	C272	0.073400	0.571800	0.491500
C2731	C273	0.025500	0.595100	0.514700
C2741	C274	0.925400	0.600800	0.512900
C2751	C275	0.878900	0.585900	0.487200
C2761	C276	0.880400	0.698500	0.632200
C2771	C277	0.931000	0.677600	0.608300
C2781	C278	0.027700	0.669500	0.610800
C2791	C279	0.074200	0.685100	0.634500
C2801	C280	0.023900	0.705400	0.657300
C2811	C281	0.463000	0.585800	0.598900
C2821	C282	0.369900	0.603900	0.596000
C2831	C283	0.320300	0.599300	0.570400
C2841	C284	0.365700	0.576000	0.546900
C2851	C285	0.462800	0.559700	0.550000
C2861	C286	0.080100	0.612200	0.541300
C2871	C287	0.080000	0.646500	0.584900
C2881	C288	0.216400	0.613600	0.566800
I251	I25	0.671800	0.336360	0.320620
I261	I26	0.808730	0.190830	0.305030
I271	I27	0.263890	0.914810	0.118720
I281	I28	0.289580	0.991400	0.033170
I291	I29	0.446550	0.516590	0.100700
I301	I30	0.172350	0.444580	0.064850
I311	I31	0.328200	0.163640	0.820620
I321	I32	0.191270	0.309170	0.805030
I331	I33	0.736110	0.585190	0.618720
I341	I34	0.710420	0.508600	0.533170
I351	I35	0.553450	0.983410	0.600700
I361	I36	0.827650	0.055420	0.564850
I371	I37	0.171800	0.663640	0.179380
I381	I38	0.308730	0.809170	0.194970
I391	I39	0.763890	0.085190	0.381280
I401	I40	0.789580	0.008600	0.466830
I411	I41	0.946550	0.483410	0.399300
I421	I42	0.672350	0.555420	0.435150
I431	I43	0.828200	0.836360	0.679380
I441	I44	0.691270	0.690830	0.694970
I451	I45	0.236110	0.414810	0.881280
I461	I46	0.210420	0.491400	0.966830
I471	I47	0.053450	0.016590	0.899300
I481	I48	0.327650	0.944580	0.935150
N491	N49	0.571700	0.233900	0.274400
N501	N50	0.391900	0.032000	0.105100
N511	N51	0.389600	0.385500	0.096610
N521	N52	0.460900	0.170400	0.176100
N531	N53	0.423500	0.209300	0.130800
N541	N54	0.463300	0.257900	0.172500
N551	N55	0.576100	0.065400	0.535200
N561	N56	0.574800	0.210800	0.343800
N571	N57	0.991900	0.064300	0.422400
N581	N58	0.470900	0.135700	0.438600
N591	N59	0.325600	0.136700	0.410900
N601	N60	0.328500	0.101100	0.457900
N611	N61	0.428300	0.266100	0.774400
N621	N62	0.608100	0.468000	0.605100
N631	N63	0.610400	0.114500	0.596610
N641	N64	0.539100	0.329600	0.676100
N651	N65	0.576500	0.290700	0.630800
N661	N66	0.536700	0.242100	0.672500
N671	N67	0.423900	0.434600	0.035200
N681	N68	0.425200	0.289200	0.843800
N691	N69	0.008100	0.435700	0.922400
N701	N70	0.529100	0.364300	0.938600
N711	N71	0.674400	0.363300	0.910900
N721	N72	0.671500	0.398900	0.957900
N731	N73	0.071700	0.766100	0.225600
N741	N74	0.891900	0.968000	0.394900
N751	N75	0.889600	0.614500	0.403390
N761	N76	0.960900	0.829600	0.323900
N771	N77	0.923500	0.790700	0.369200
N781	N78	0.963300	0.742100	0.327500
N791	N79	0.076100	0.934600	0.964800
N801	N80	0.074800	0.789200	0.156200
N811	N81	0.491900	0.935700	0.077600
N821	N82	0.970900	0.864300	0.061400
N831	N83	0.825600	0.863300	0.089100
N841	N84	0.828500	0.898900	0.042100
N851	N85	0.928300	0.733900	0.725600
N861	N86	0.108100	0.532000	0.894900
N871	N87	0.110400	0.885500	0.903390
N881	N88	0.039100	0.670400	0.823900
N891	N89	0.076500	0.709300	0.869200
N901	N90	0.036700	0.757900	0.827500
N911	N91	0.923900	0.565400	0.464800
N921	N92	0.925200	0.710800	0.656200
N931	N93	0.508100	0.564300	0.577600
N941	N94	0.029100	0.635700	0.561400
N951	N95	0.174400	0.636700	0.589100
N961	N96	0.171500	0.601100	0.542100
