data_UCUJOU_clean_PM
_symmetry_space_group_name_H-M	'P1'
_cell_length_a	54.438000
_cell_length_b	14.500300
_cell_length_c	39.581700
_cell_angle_alpha	90.000000
_cell_angle_beta	128.010000
_cell_angle_gamma	90.000000
_symmetry_Int_Tables_number 1

loop_
_symmetry_equiv_pos_as_xyz
'x,y,z'

loop_
_atom_site_label
_atom_site_type_symbol
_atom_site_fract_x
_atom_site_fract_y
_atom_site_fract_z
Mo11	Mo1	0.173620	0.484420	0.487210
Mo21	Mo2	0.193480	0.712860	0.507480
Mo31	Mo3	0.152350	0.851320	0.590340
Mo41	Mo4	0.072500	0.684450	0.429000
Mo51	Mo5	0.082800	0.793620	0.513810
Mo61	Mo6	0.168970	0.376410	0.552850
Mo71	Mo7	0.117580	0.648480	0.424580
Mo81	Mo8	0.206200	0.795940	0.575070
Mo91	Mo9	0.187090	0.500480	0.638550
Mo101	Mo10	0.202800	0.673970	0.651200
Mo111	Mo11	0.067080	0.561880	0.503060
Zn11	Zn1	0.129100	0.861060	0.485230
Mo121	Mo12	0.108140	0.435150	0.552940
Zn21	Zn2	0.225670	0.550990	0.593810
Zn31	Zn3	0.099300	0.447100	0.456150
Zn41	Zn4	0.122910	0.657130	0.606300
O11	O1	0.214000	0.570100	0.631500
O21	O2	0.217400	0.674800	0.567400
O31	O3	0.143900	0.416600	0.492800
O41	O4	0.090800	0.570100	0.429600
O51	O5	0.196500	0.462400	0.549600
O61	O6	0.120000	0.852800	0.526900
O71	O7	0.172200	0.811700	0.514000
O81	O8	0.108500	0.754900	0.445000
O91	O9	0.178700	0.789400	0.640700
O101	O10	0.086200	0.463600	0.492500
O111	O11	0.193000	0.398500	0.609800
O121	O12	0.158700	0.705300	0.448700
O131	O13	0.200100	0.576800	0.499100
O141	O14	0.269200	0.523000	0.627600
O151	O15	0.166400	0.611500	0.637600
O161	O16	0.047500	0.601400	0.440500
O171	O17	0.132900	0.350900	0.544700
O181	O18	0.066700	0.785100	0.458900
O191	O19	0.117600	0.772300	0.576500
O201	O20	0.179900	0.882500	0.582200
O211	O21	0.227400	0.750900	0.636800
O221	O22	0.099600	0.555400	0.565100
O231	O23	0.570000	0.138900	0.912200
O241	O24	0.062200	0.690600	0.513800
O251	O25	0.140300	0.528500	0.435300
O261	O26	0.146900	0.437900	0.617700
N11	N1	0.120000	0.405500	0.362800
H11	H1	0.122800	0.429700	0.384800
N21	N2	0.110300	0.306300	0.316900
C11	C1	0.114800	0.386900	0.307100
O271	O27	0.114600	0.344900	0.146400
O281	O28	0.278200	0.657000	0.660500
C21	C2	0.126200	0.242900	0.417600
H21	H2	0.139100	0.292500	0.433700
O291	O29	0.131000	0.984100	0.469900
N31	N3	0.123000	0.451700	0.336200
C31	C3	0.115900	0.400600	0.272000
C41	C4	0.112400	0.320600	0.247200
H31	H3	0.109100	0.262900	0.254100
C51	C5	0.112300	0.317900	0.351200
C61	C6	0.109000	0.244100	0.372700
N41	N4	0.428500	0.418600	0.772200
O301	O30	0.531300	0.048800	0.889900
C71	C7	0.459200	0.427200	0.801400
C81	C8	0.481000	0.349800	0.822200
C91	C9	0.532700	0.287100	0.870800
H41	H4	0.554200	0.294400	0.887400
C101	C10	0.488300	0.183800	0.836900
H51	H5	0.480300	0.124600	0.832900
C111	C11	0.469500	0.257900	0.815600
H61	H6	0.448100	0.248300	0.795800
C121	C12	0.521000	0.201800	0.865600
C131	C13	0.541700	0.125000	0.889900
C141	C14	0.513800	0.364200	0.852300
H71	H7	0.522100	0.423300	0.859300
C151	C15	0.418000	0.504500	0.765100
C161	C16	0.321300	0.567200	0.683500
C171	C17	0.332700	0.478500	0.685500
H81	H8	0.318700	0.430300	0.670300
C181	C18	0.123300	0.490200	0.226700
H91	H9	0.127100	0.547200	0.220000
C191	C19	0.121700	0.483900	0.260400
H101	H10	0.124500	0.537000	0.275600
C201	C20	0.113900	0.328100	0.214700
H111	H11	0.111300	0.275700	0.199200
C211	C21	0.106400	0.090500	0.412900
C221	C22	0.342900	0.636200	0.710400
H121	H12	0.336600	0.694800	0.711700
C231	C23	0.106300	0.008100	0.433900
N51	N5	0.466500	0.517300	0.807800
H131	H13	0.485200	0.538900	0.823600
N61	N6	0.440300	0.569200	0.785800
C241	C24	0.364600	0.461800	0.709800
H141	H14	0.371900	0.406400	0.707200
C251	C25	0.374600	0.612100	0.735300
H151	H15	0.389600	0.657400	0.751800
C261	C26	0.287300	0.582400	0.657300
C271	C27	0.384000	0.525400	0.736200
C281	C28	0.124400	0.168000	0.438500
H161	H16	0.134500	0.169000	0.467800
C291	C29	0.091500	0.167200	0.350800
H171	H17	0.080200	0.167300	0.321200
O311	O31	0.083600	0.956400	0.417000
C301	C30	0.119500	0.414700	0.203400
O321	O32	0.129800	0.492000	0.162400
C311	C31	0.122400	0.417800	0.170400
C321	C32	0.089300	0.094000	0.367900
H181	H18	0.076700	0.045300	0.350800
Mo131	Mo13	0.673620	0.984420	0.487210
Mo141	Mo14	0.693480	0.212860	0.507480
Mo151	Mo15	0.652350	0.351320	0.590340
Mo161	Mo16	0.572500	0.184450	0.429000
Mo171	Mo17	0.582800	0.293620	0.513810
Mo181	Mo18	0.668970	0.876410	0.552850
Mo191	Mo19	0.617580	0.148480	0.424580
Mo201	Mo20	0.706200	0.295940	0.575070
Mo211	Mo21	0.687090	0.000480	0.638550
Mo221	Mo22	0.702800	0.173970	0.651200
Mo231	Mo23	0.567080	0.061880	0.503060
Zn51	Zn5	0.629100	0.361060	0.485230
Mo241	Mo24	0.608140	0.935150	0.552940
Zn61	Zn6	0.725670	0.050990	0.593810
Zn71	Zn7	0.599300	0.947100	0.456150
Zn81	Zn8	0.622910	0.157130	0.606300
O331	O33	0.714000	0.070100	0.631500
O341	O34	0.717400	0.174800	0.567400
O351	O35	0.643900	0.916600	0.492800
O361	O36	0.590800	0.070100	0.429600
O371	O37	0.696500	0.962400	0.549600
O381	O38	0.620000	0.352800	0.526900
O391	O39	0.672200	0.311700	0.514000
O401	O40	0.608500	0.254900	0.445000
O411	O41	0.678700	0.289400	0.640700
O421	O42	0.586200	0.963600	0.492500
O431	O43	0.693000	0.898500	0.609800
O441	O44	0.658700	0.205300	0.448700
O451	O45	0.700100	0.076800	0.499100
O461	O46	0.769200	0.023000	0.627600
O471	O47	0.666400	0.111500	0.637600
O481	O48	0.547500	0.101400	0.440500
O491	O49	0.632900	0.850900	0.544700
O501	O50	0.566700	0.285100	0.458900
O511	O51	0.617600	0.272300	0.576500
O521	O52	0.679900	0.382500	0.582200
O531	O53	0.727400	0.250900	0.636800
O541	O54	0.599600	0.055400	0.565100
O551	O55	0.070000	0.638900	0.912200
O561	O56	0.562200	0.190600	0.513800
O571	O57	0.640300	0.028500	0.435300
O581	O58	0.646900	0.937900	0.617700
N71	N7	0.620000	0.905500	0.362800
H191	H19	0.622800	0.929700	0.384800
N81	N8	0.610300	0.806300	0.316900
C331	C33	0.614800	0.886900	0.307100
O591	O59	0.614600	0.844900	0.146400
O601	O60	0.778200	0.157000	0.660500
C341	C34	0.626200	0.742900	0.417600
H201	H20	0.639100	0.792500	0.433700
O611	O61	0.631000	0.484100	0.469900
N91	N9	0.623000	0.951700	0.336200
C351	C35	0.615900	0.900600	0.272000
C361	C36	0.612400	0.820600	0.247200
H211	H21	0.609100	0.762900	0.254100
C371	C37	0.612300	0.817900	0.351200
C381	C38	0.609000	0.744100	0.372700
N101	N10	0.928500	0.918600	0.772200
O621	O62	0.031300	0.548800	0.889900
C391	C39	0.959200	0.927200	0.801400
C401	C40	0.981000	0.849800	0.822200
C411	C41	0.032700	0.787100	0.870800
H221	H22	0.054200	0.794400	0.887400
C421	C42	0.988300	0.683800	0.836900
H231	H23	0.980300	0.624600	0.832900
C431	C43	0.969500	0.757900	0.815600
H241	H24	0.948100	0.748300	0.795800
C441	C44	0.021000	0.701800	0.865600
C451	C45	0.041700	0.625000	0.889900
C461	C46	0.013800	0.864200	0.852300
H251	H25	0.022100	0.923300	0.859300
C471	C47	0.918000	0.004500	0.765100
C481	C48	0.821300	0.067200	0.683500
C491	C49	0.832700	0.978500	0.685500
H261	H26	0.818700	0.930300	0.670300
C501	C50	0.623300	0.990200	0.226700
H271	H27	0.627100	0.047200	0.220000
C511	C51	0.621700	0.983900	0.260400
H281	H28	0.624500	0.037000	0.275600
C521	C52	0.613900	0.828100	0.214700
H291	H29	0.611300	0.775700	0.199200
C531	C53	0.606400	0.590500	0.412900
C541	C54	0.842900	0.136200	0.710400
H301	H30	0.836600	0.194800	0.711700
C551	C55	0.606300	0.508100	0.433900
N111	N11	0.966500	0.017300	0.807800
H311	H31	0.985200	0.038900	0.823600
N121	N12	0.940300	0.069200	0.785800
C561	C56	0.864600	0.961800	0.709800
H321	H32	0.871900	0.906400	0.707200
C571	C57	0.874600	0.112100	0.735300
H331	H33	0.889600	0.157400	0.751800
C581	C58	0.787300	0.082400	0.657300
C591	C59	0.884000	0.025400	0.736200
C601	C60	0.624400	0.668000	0.438500
H341	H34	0.634500	0.669000	0.467800
C611	C61	0.591500	0.667200	0.350800
H351	H35	0.580200	0.667300	0.321200
O631	O63	0.583600	0.456400	0.417000
C621	C62	0.619500	0.914700	0.203400
O641	O64	0.629800	0.992000	0.162400
C631	C63	0.622400	0.917800	0.170400
C641	C64	0.589300	0.594000	0.367900
H361	H36	0.576700	0.545300	0.350800
Mo251	Mo25	0.173620	0.515580	0.987210
Mo261	Mo26	0.193480	0.287140	0.007480
Mo271	Mo27	0.152350	0.148680	0.090340
Mo281	Mo28	0.072500	0.315550	0.929000
Mo291	Mo29	0.082800	0.206380	0.013810
Mo301	Mo30	0.168970	0.623590	0.052850
Mo311	Mo31	0.117580	0.351520	0.924580
Mo321	Mo32	0.206200	0.204060	0.075070
Mo331	Mo33	0.187090	0.499520	0.138550
Mo341	Mo34	0.202800	0.326030	0.151200
Mo351	Mo35	0.067080	0.438120	0.003060
Zn91	Zn9	0.129100	0.138940	0.985230
Mo361	Mo36	0.108140	0.564850	0.052940
Zn101	Zn10	0.225670	0.449010	0.093810
Zn111	Zn11	0.099300	0.552900	0.956150
Zn121	Zn12	0.122910	0.342870	0.106300
O651	O65	0.214000	0.429900	0.131500
O661	O66	0.217400	0.325200	0.067400
O671	O67	0.143900	0.583400	0.992800
O681	O68	0.090800	0.429900	0.929600
O691	O69	0.196500	0.537600	0.049600
O701	O70	0.120000	0.147200	0.026900
O711	O71	0.172200	0.188300	0.014000
O721	O72	0.108500	0.245100	0.945000
O731	O73	0.178700	0.210600	0.140700
O741	O74	0.086200	0.536400	0.992500
O751	O75	0.193000	0.601500	0.109800
O761	O76	0.158700	0.294700	0.948700
O771	O77	0.200100	0.423200	0.999100
O781	O78	0.269200	0.477000	0.127600
O791	O79	0.166400	0.388500	0.137600
O801	O80	0.047500	0.398600	0.940500
O811	O81	0.132900	0.649100	0.044700
O821	O82	0.066700	0.214900	0.958900
O831	O83	0.117600	0.227700	0.076500
O841	O84	0.179900	0.117500	0.082200
O851	O85	0.227400	0.249100	0.136800
O861	O86	0.099600	0.444600	0.065100
O871	O87	0.570000	0.861100	0.412200
O881	O88	0.062200	0.309400	0.013800
O891	O89	0.140300	0.471500	0.935300
O901	O90	0.146900	0.562100	0.117700
N131	N13	0.120000	0.594500	0.862800
H371	H37	0.122800	0.570300	0.884800
N141	N14	0.110300	0.693700	0.816900
C651	C65	0.114800	0.613100	0.807100
O911	O91	0.114600	0.655100	0.646400
O921	O92	0.278200	0.343000	0.160500
C661	C66	0.126200	0.757100	0.917600
H381	H38	0.139100	0.707500	0.933700
O931	O93	0.131000	0.015900	0.969900
N151	N15	0.123000	0.548300	0.836200
C671	C67	0.115900	0.599400	0.772000
C681	C68	0.112400	0.679400	0.747200
H391	H39	0.109100	0.737100	0.754100
C691	C69	0.112300	0.682100	0.851200
C701	C70	0.109000	0.755900	0.872700
N161	N16	0.428500	0.581400	0.272200
O941	O94	0.531300	0.951200	0.389900
C711	C71	0.459200	0.572800	0.301400
C721	C72	0.481000	0.650200	0.322200
C731	C73	0.532700	0.712900	0.370800
H401	H40	0.554200	0.705600	0.387400
C741	C74	0.488300	0.816200	0.336900
H411	H41	0.480300	0.875400	0.332900
C751	C75	0.469500	0.742100	0.315600
H421	H42	0.448100	0.751700	0.295800
C761	C76	0.521000	0.798200	0.365600
C771	C77	0.541700	0.875000	0.389900
C781	C78	0.513800	0.635800	0.352300
H431	H43	0.522100	0.576700	0.359300
C791	C79	0.418000	0.495500	0.265100
C801	C80	0.321300	0.432800	0.183500
C811	C81	0.332700	0.521500	0.185500
H441	H44	0.318700	0.569700	0.170300
C821	C82	0.123300	0.509800	0.726700
H451	H45	0.127100	0.452800	0.720000
C831	C83	0.121700	0.516100	0.760400
H461	H46	0.124500	0.463000	0.775600
C841	C84	0.113900	0.671900	0.714700
H471	H47	0.111300	0.724300	0.699200
C851	C85	0.106400	0.909500	0.912900
C861	C86	0.342900	0.363800	0.210400
H481	H48	0.336600	0.305200	0.211700
C871	C87	0.106300	0.991900	0.933900
N171	N17	0.466500	0.482700	0.307800
H491	H49	0.485200	0.461100	0.323600
N181	N18	0.440300	0.430800	0.285800
C881	C88	0.364600	0.538200	0.209800
H501	H50	0.371900	0.593600	0.207200
C891	C89	0.374600	0.387900	0.235300
H511	H51	0.389600	0.342600	0.251800
C901	C90	0.287300	0.417600	0.157300
C911	C91	0.384000	0.474600	0.236200
C921	C92	0.124400	0.832000	0.938500
H521	H52	0.134500	0.831000	0.967800
C931	C93	0.091500	0.832800	0.850800
H531	H53	0.080200	0.832700	0.821200
O951	O95	0.083600	0.043600	0.917000
C941	C94	0.119500	0.585300	0.703400
O961	O96	0.129800	0.508000	0.662400
C951	C95	0.122400	0.582200	0.670400
C961	C96	0.089300	0.906000	0.867900
H541	H54	0.076700	0.954700	0.850800
Mo371	Mo37	0.673620	0.015580	0.987210
Mo381	Mo38	0.693480	0.787140	0.007480
Mo391	Mo39	0.652350	0.648680	0.090340
Mo401	Mo40	0.572500	0.815550	0.929000
Mo411	Mo41	0.582800	0.706380	0.013810
Mo421	Mo42	0.668970	0.123590	0.052850
Mo431	Mo43	0.617580	0.851520	0.924580
Mo441	Mo44	0.706200	0.704060	0.075070
Mo451	Mo45	0.687090	0.999520	0.138550
Mo461	Mo46	0.702800	0.826030	0.151200
Mo471	Mo47	0.567080	0.938120	0.003060
Zn131	Zn13	0.629100	0.638940	0.985230
Mo481	Mo48	0.608140	0.064850	0.052940
Zn141	Zn14	0.725670	0.949010	0.093810
Zn151	Zn15	0.599300	0.052900	0.956150
Zn161	Zn16	0.622910	0.842870	0.106300
O971	O97	0.714000	0.929900	0.131500
O981	O98	0.717400	0.825200	0.067400
O991	O99	0.643900	0.083400	0.992800
O1001	O100	0.590800	0.929900	0.929600
O1011	O101	0.696500	0.037600	0.049600
O1021	O102	0.620000	0.647200	0.026900
O1031	O103	0.672200	0.688300	0.014000
O1041	O104	0.608500	0.745100	0.945000
O1051	O105	0.678700	0.710600	0.140700
O1061	O106	0.586200	0.036400	0.992500
O1071	O107	0.693000	0.101500	0.109800
O1081	O108	0.658700	0.794700	0.948700
O1091	O109	0.700100	0.923200	0.999100
O1101	O110	0.769200	0.977000	0.127600
O1111	O111	0.666400	0.888500	0.137600
O1121	O112	0.547500	0.898600	0.940500
O1131	O113	0.632900	0.149100	0.044700
O1141	O114	0.566700	0.714900	0.958900
O1151	O115	0.617600	0.727700	0.076500
O1161	O116	0.679900	0.617500	0.082200
O1171	O117	0.727400	0.749100	0.136800
O1181	O118	0.599600	0.944600	0.065100
O1191	O119	0.070000	0.361100	0.412200
O1201	O120	0.562200	0.809400	0.013800
O1211	O121	0.640300	0.971500	0.935300
O1221	O122	0.646900	0.062100	0.117700
N191	N19	0.620000	0.094500	0.862800
H551	H55	0.622800	0.070300	0.884800
N201	N20	0.610300	0.193700	0.816900
C971	C97	0.614800	0.113100	0.807100
O1231	O123	0.614600	0.155100	0.646400
O1241	O124	0.778200	0.843000	0.160500
C981	C98	0.626200	0.257100	0.917600
H561	H56	0.639100	0.207500	0.933700
O1251	O125	0.631000	0.515900	0.969900
N211	N21	0.623000	0.048300	0.836200
C991	C99	0.615900	0.099400	0.772000
C1001	C100	0.612400	0.179400	0.747200
H571	H57	0.609100	0.237100	0.754100
C1011	C101	0.612300	0.182100	0.851200
C1021	C102	0.609000	0.255900	0.872700
N221	N22	0.928500	0.081400	0.272200
O1261	O126	0.031300	0.451200	0.389900
C1031	C103	0.959200	0.072800	0.301400
C1041	C104	0.981000	0.150200	0.322200
C1051	C105	0.032700	0.212900	0.370800
H581	H58	0.054200	0.205600	0.387400
C1061	C106	0.988300	0.316200	0.336900
H591	H59	0.980300	0.375400	0.332900
C1071	C107	0.969500	0.242100	0.315600
H601	H60	0.948100	0.251700	0.295800
C1081	C108	0.021000	0.298200	0.365600
C1091	C109	0.041700	0.375000	0.389900
C1101	C110	0.013800	0.135800	0.352300
H611	H61	0.022100	0.076700	0.359300
C1111	C111	0.918000	0.995500	0.265100
C1121	C112	0.821300	0.932800	0.183500
C1131	C113	0.832700	0.021500	0.185500
H621	H62	0.818700	0.069700	0.170300
C1141	C114	0.623300	0.009800	0.726700
H631	H63	0.627100	0.952800	0.720000
C1151	C115	0.621700	0.016100	0.760400
H641	H64	0.624500	0.963000	0.775600
C1161	C116	0.613900	0.171900	0.714700
H651	H65	0.611300	0.224300	0.699200
C1171	C117	0.606400	0.409500	0.912900
C1181	C118	0.842900	0.863800	0.210400
H661	H66	0.836600	0.805200	0.211700
C1191	C119	0.606300	0.491900	0.933900
N231	N23	0.966500	0.982700	0.307800
H671	H67	0.985200	0.961100	0.323600
N241	N24	0.940300	0.930800	0.285800
C1201	C120	0.864600	0.038200	0.209800
H681	H68	0.871900	0.093600	0.207200
C1211	C121	0.874600	0.887900	0.235300
H691	H69	0.889600	0.842600	0.251800
C1221	C122	0.787300	0.917600	0.157300
C1231	C123	0.884000	0.974600	0.236200
C1241	C124	0.624400	0.332000	0.938500
H701	H70	0.634500	0.331000	0.967800
C1251	C125	0.591500	0.332800	0.850800
H711	H71	0.580200	0.332700	0.821200
O1271	O127	0.583600	0.543600	0.917000
C1261	C126	0.619500	0.085300	0.703400
O1281	O128	0.629800	0.008000	0.662400
C1271	C127	0.622400	0.082200	0.670400
C1281	C128	0.589300	0.406000	0.867900
H721	H72	0.576700	0.454700	0.850800
Mo491	Mo49	0.826380	0.484420	0.012790
Mo501	Mo50	0.806520	0.712860	0.992520
Mo511	Mo51	0.847650	0.851320	0.909660
Mo521	Mo52	0.927500	0.684450	0.071000
Mo531	Mo53	0.917200	0.793620	0.986190
Mo541	Mo54	0.831030	0.376410	0.947150
Mo551	Mo55	0.882420	0.648480	0.075420
Mo561	Mo56	0.793800	0.795940	0.924930
Mo571	Mo57	0.812910	0.500480	0.861450
Mo581	Mo58	0.797200	0.673970	0.848800
Mo591	Mo59	0.932920	0.561880	0.996940
Zn171	Zn17	0.870900	0.861060	0.014770
Mo601	Mo60	0.891860	0.435150	0.947060
Zn181	Zn18	0.774330	0.550990	0.906190
Zn191	Zn19	0.900700	0.447100	0.043850
Zn201	Zn20	0.877090	0.657130	0.893700
O1291	O129	0.786000	0.570100	0.868500
O1301	O130	0.782600	0.674800	0.932600
O1311	O131	0.856100	0.416600	0.007200
O1321	O132	0.909200	0.570100	0.070400
O1331	O133	0.803500	0.462400	0.950400
O1341	O134	0.880000	0.852800	0.973100
O1351	O135	0.827800	0.811700	0.986000
O1361	O136	0.891500	0.754900	0.055000
O1371	O137	0.821300	0.789400	0.859300
O1381	O138	0.913800	0.463600	0.007500
O1391	O139	0.807000	0.398500	0.890200
O1401	O140	0.841300	0.705300	0.051300
O1411	O141	0.799900	0.576800	0.000900
O1421	O142	0.730800	0.523000	0.872400
O1431	O143	0.833600	0.611500	0.862400
O1441	O144	0.952500	0.601400	0.059500
O1451	O145	0.867100	0.350900	0.955300
O1461	O146	0.933300	0.785100	0.041100
O1471	O147	0.882400	0.772300	0.923500
O1481	O148	0.820100	0.882500	0.917800
O1491	O149	0.772600	0.750900	0.863200
O1501	O150	0.900400	0.555400	0.934900
O1511	O151	0.430000	0.138900	0.587800
O1521	O152	0.937800	0.690600	0.986200
O1531	O153	0.859700	0.528500	0.064700
O1541	O154	0.853100	0.437900	0.882300
N251	N25	0.880000	0.405500	0.137200
H731	H73	0.877200	0.429700	0.115200
N261	N26	0.889700	0.306300	0.183100
C1291	C129	0.885200	0.386900	0.192900
O1551	O155	0.885400	0.344900	0.353600
O1561	O156	0.721800	0.657000	0.839500
C1301	C130	0.873800	0.242900	0.082400
H741	H74	0.860900	0.292500	0.066300
O1571	O157	0.869000	0.984100	0.030100
N271	N27	0.877000	0.451700	0.163800
C1311	C131	0.884100	0.400600	0.228000
C1321	C132	0.887600	0.320600	0.252800
H751	H75	0.890900	0.262900	0.245900
C1331	C133	0.887700	0.317900	0.148800
C1341	C134	0.891000	0.244100	0.127300
N281	N28	0.571500	0.418600	0.727800
O1581	O158	0.468700	0.048800	0.610100
C1351	C135	0.540800	0.427200	0.698600
C1361	C136	0.519000	0.349800	0.677800
C1371	C137	0.467300	0.287100	0.629200
H761	H76	0.445800	0.294400	0.612600
C1381	C138	0.511700	0.183800	0.663100
H771	H77	0.519700	0.124600	0.667100
C1391	C139	0.530500	0.257900	0.684400
H781	H78	0.551900	0.248300	0.704200
C1401	C140	0.479000	0.201800	0.634400
C1411	C141	0.458300	0.125000	0.610100
C1421	C142	0.486200	0.364200	0.647700
H791	H79	0.477900	0.423300	0.640700
C1431	C143	0.582000	0.504500	0.734900
C1441	C144	0.678700	0.567200	0.816500
C1451	C145	0.667300	0.478500	0.814500
H801	H80	0.681300	0.430300	0.829700
C1461	C146	0.876700	0.490200	0.273300
H811	H81	0.872900	0.547200	0.280000
C1471	C147	0.878300	0.483900	0.239600
H821	H82	0.875500	0.537000	0.224400
C1481	C148	0.886100	0.328100	0.285300
H831	H83	0.888700	0.275700	0.300800
C1491	C149	0.893600	0.090500	0.087100
C1501	C150	0.657100	0.636200	0.789600
H841	H84	0.663400	0.694800	0.788300
C1511	C151	0.893700	0.008100	0.066100
N291	N29	0.533500	0.517300	0.692200
H851	H85	0.514800	0.538900	0.676400
N301	N30	0.559700	0.569200	0.714200
C1521	C152	0.635400	0.461800	0.790200
H861	H86	0.628100	0.406400	0.792800
C1531	C153	0.625400	0.612100	0.764700
H871	H87	0.610400	0.657400	0.748200
C1541	C154	0.712700	0.582400	0.842700
C1551	C155	0.616000	0.525400	0.763800
C1561	C156	0.875600	0.168000	0.061500
H881	H88	0.865500	0.169000	0.032200
C1571	C157	0.908500	0.167200	0.149200
H891	H89	0.919800	0.167300	0.178800
O1591	O159	0.916400	0.956400	0.083000
C1581	C158	0.880500	0.414700	0.296600
O1601	O160	0.870200	0.492000	0.337600
C1591	C159	0.877600	0.417800	0.329600
C1601	C160	0.910700	0.094000	0.132100
H901	H90	0.923300	0.045300	0.149200
Mo611	Mo61	0.326380	0.984420	0.012790
Mo621	Mo62	0.306520	0.212860	0.992520
Mo631	Mo63	0.347650	0.351320	0.909660
Mo641	Mo64	0.427500	0.184450	0.071000
Mo651	Mo65	0.417200	0.293620	0.986190
Mo661	Mo66	0.331030	0.876410	0.947150
Mo671	Mo67	0.382420	0.148480	0.075420
Mo681	Mo68	0.293800	0.295940	0.924930
Mo691	Mo69	0.312910	0.000480	0.861450
Mo701	Mo70	0.297200	0.173970	0.848800
Mo711	Mo71	0.432920	0.061880	0.996940
Zn211	Zn21	0.370900	0.361060	0.014770
Mo721	Mo72	0.391860	0.935150	0.947060
Zn221	Zn22	0.274330	0.050990	0.906190
Zn231	Zn23	0.400700	0.947100	0.043850
Zn241	Zn24	0.377090	0.157130	0.893700
O1611	O161	0.286000	0.070100	0.868500
O1621	O162	0.282600	0.174800	0.932600
O1631	O163	0.356100	0.916600	0.007200
O1641	O164	0.409200	0.070100	0.070400
O1651	O165	0.303500	0.962400	0.950400
O1661	O166	0.380000	0.352800	0.973100
O1671	O167	0.327800	0.311700	0.986000
O1681	O168	0.391500	0.254900	0.055000
O1691	O169	0.321300	0.289400	0.859300
O1701	O170	0.413800	0.963600	0.007500
O1711	O171	0.307000	0.898500	0.890200
O1721	O172	0.341300	0.205300	0.051300
O1731	O173	0.299900	0.076800	0.000900
O1741	O174	0.230800	0.023000	0.872400
O1751	O175	0.333600	0.111500	0.862400
O1761	O176	0.452500	0.101400	0.059500
O1771	O177	0.367100	0.850900	0.955300
O1781	O178	0.433300	0.285100	0.041100
O1791	O179	0.382400	0.272300	0.923500
O1801	O180	0.320100	0.382500	0.917800
O1811	O181	0.272600	0.250900	0.863200
O1821	O182	0.400400	0.055400	0.934900
O1831	O183	0.930000	0.638900	0.587800
O1841	O184	0.437800	0.190600	0.986200
O1851	O185	0.359700	0.028500	0.064700
O1861	O186	0.353100	0.937900	0.882300
N311	N31	0.380000	0.905500	0.137200
H911	H91	0.377200	0.929700	0.115200
N321	N32	0.389700	0.806300	0.183100
C1611	C161	0.385200	0.886900	0.192900
O1871	O187	0.385400	0.844900	0.353600
O1881	O188	0.221800	0.157000	0.839500
C1621	C162	0.373800	0.742900	0.082400
H921	H92	0.360900	0.792500	0.066300
O1891	O189	0.369000	0.484100	0.030100
N331	N33	0.377000	0.951700	0.163800
C1631	C163	0.384100	0.900600	0.228000
C1641	C164	0.387600	0.820600	0.252800
H931	H93	0.390900	0.762900	0.245900
C1651	C165	0.387700	0.817900	0.148800
C1661	C166	0.391000	0.744100	0.127300
N341	N34	0.071500	0.918600	0.727800
O1901	O190	0.968700	0.548800	0.610100
C1671	C167	0.040800	0.927200	0.698600
C1681	C168	0.019000	0.849800	0.677800
C1691	C169	0.967300	0.787100	0.629200
H941	H94	0.945800	0.794400	0.612600
C1701	C170	0.011700	0.683800	0.663100
H951	H95	0.019700	0.624600	0.667100
C1711	C171	0.030500	0.757900	0.684400
H961	H96	0.051900	0.748300	0.704200
C1721	C172	0.979000	0.701800	0.634400
C1731	C173	0.958300	0.625000	0.610100
C1741	C174	0.986200	0.864200	0.647700
H971	H97	0.977900	0.923300	0.640700
C1751	C175	0.082000	0.004500	0.734900
C1761	C176	0.178700	0.067200	0.816500
C1771	C177	0.167300	0.978500	0.814500
H981	H98	0.181300	0.930300	0.829700
C1781	C178	0.376700	0.990200	0.273300
H991	H99	0.372900	0.047200	0.280000
C1791	C179	0.378300	0.983900	0.239600
H1001	H100	0.375500	0.037000	0.224400
C1801	C180	0.386100	0.828100	0.285300
H1011	H101	0.388700	0.775700	0.300800
C1811	C181	0.393600	0.590500	0.087100
C1821	C182	0.157100	0.136200	0.789600
H1021	H102	0.163400	0.194800	0.788300
C1831	C183	0.393700	0.508100	0.066100
N351	N35	0.033500	0.017300	0.692200
H1031	H103	0.014800	0.038900	0.676400
N361	N36	0.059700	0.069200	0.714200
C1841	C184	0.135400	0.961800	0.790200
H1041	H104	0.128100	0.906400	0.792800
C1851	C185	0.125400	0.112100	0.764700
H1051	H105	0.110400	0.157400	0.748200
C1861	C186	0.212700	0.082400	0.842700
C1871	C187	0.116000	0.025400	0.763800
C1881	C188	0.375600	0.668000	0.061500
H1061	H106	0.365500	0.669000	0.032200
C1891	C189	0.408500	0.667200	0.149200
H1071	H107	0.419800	0.667300	0.178800
O1911	O191	0.416400	0.456400	0.083000
C1901	C190	0.380500	0.914700	0.296600
O1921	O192	0.370200	0.992000	0.337600
C1911	C191	0.377600	0.917800	0.329600
C1921	C192	0.410700	0.594000	0.132100
H1081	H108	0.423300	0.545300	0.149200
Mo731	Mo73	0.826380	0.515580	0.512790
Mo741	Mo74	0.806520	0.287140	0.492520
Mo751	Mo75	0.847650	0.148680	0.409660
Mo761	Mo76	0.927500	0.315550	0.571000
Mo771	Mo77	0.917200	0.206380	0.486190
Mo781	Mo78	0.831030	0.623590	0.447150
Mo791	Mo79	0.882420	0.351520	0.575420
Mo801	Mo80	0.793800	0.204060	0.424930
Mo811	Mo81	0.812910	0.499520	0.361450
Mo821	Mo82	0.797200	0.326030	0.348800
Mo831	Mo83	0.932920	0.438120	0.496940
Zn251	Zn25	0.870900	0.138940	0.514770
Mo841	Mo84	0.891860	0.564850	0.447060
Zn261	Zn26	0.774330	0.449010	0.406190
Zn271	Zn27	0.900700	0.552900	0.543850
Zn281	Zn28	0.877090	0.342870	0.393700
O1931	O193	0.786000	0.429900	0.368500
O1941	O194	0.782600	0.325200	0.432600
O1951	O195	0.856100	0.583400	0.507200
O1961	O196	0.909200	0.429900	0.570400
O1971	O197	0.803500	0.537600	0.450400
O1981	O198	0.880000	0.147200	0.473100
O1991	O199	0.827800	0.188300	0.486000
O2001	O200	0.891500	0.245100	0.555000
O2011	O201	0.821300	0.210600	0.359300
O2021	O202	0.913800	0.536400	0.507500
O2031	O203	0.807000	0.601500	0.390200
O2041	O204	0.841300	0.294700	0.551300
O2051	O205	0.799900	0.423200	0.500900
O2061	O206	0.730800	0.477000	0.372400
O2071	O207	0.833600	0.388500	0.362400
O2081	O208	0.952500	0.398600	0.559500
O2091	O209	0.867100	0.649100	0.455300
O2101	O210	0.933300	0.214900	0.541100
O2111	O211	0.882400	0.227700	0.423500
O2121	O212	0.820100	0.117500	0.417800
O2131	O213	0.772600	0.249100	0.363200
O2141	O214	0.900400	0.444600	0.434900
O2151	O215	0.430000	0.861100	0.087800
O2161	O216	0.937800	0.309400	0.486200
O2171	O217	0.859700	0.471500	0.564700
O2181	O218	0.853100	0.562100	0.382300
N371	N37	0.880000	0.594500	0.637200
H1091	H109	0.877200	0.570300	0.615200
N381	N38	0.889700	0.693700	0.683100
C1931	C193	0.885200	0.613100	0.692900
O2191	O219	0.885400	0.655100	0.853600
O2201	O220	0.721800	0.343000	0.339500
C1941	C194	0.873800	0.757100	0.582400
H1101	H110	0.860900	0.707500	0.566300
O2211	O221	0.869000	0.015900	0.530100
N391	N39	0.877000	0.548300	0.663800
C1951	C195	0.884100	0.599400	0.728000
C1961	C196	0.887600	0.679400	0.752800
H1111	H111	0.890900	0.737100	0.745900
C1971	C197	0.887700	0.682100	0.648800
C1981	C198	0.891000	0.755900	0.627300
N401	N40	0.571500	0.581400	0.227800
O2221	O222	0.468700	0.951200	0.110100
C1991	C199	0.540800	0.572800	0.198600
C2001	C200	0.519000	0.650200	0.177800
C2011	C201	0.467300	0.712900	0.129200
H1121	H112	0.445800	0.705600	0.112600
C2021	C202	0.511700	0.816200	0.163100
H1131	H113	0.519700	0.875400	0.167100
C2031	C203	0.530500	0.742100	0.184400
H1141	H114	0.551900	0.751700	0.204200
C2041	C204	0.479000	0.798200	0.134400
C2051	C205	0.458300	0.875000	0.110100
C2061	C206	0.486200	0.635800	0.147700
H1151	H115	0.477900	0.576700	0.140700
C2071	C207	0.582000	0.495500	0.234900
C2081	C208	0.678700	0.432800	0.316500
C2091	C209	0.667300	0.521500	0.314500
H1161	H116	0.681300	0.569700	0.329700
C2101	C210	0.876700	0.509800	0.773300
H1171	H117	0.872900	0.452800	0.780000
C2111	C211	0.878300	0.516100	0.739600
H1181	H118	0.875500	0.463000	0.724400
C2121	C212	0.886100	0.671900	0.785300
H1191	H119	0.888700	0.724300	0.800800
C2131	C213	0.893600	0.909500	0.587100
C2141	C214	0.657100	0.363800	0.289600
H1201	H120	0.663400	0.305200	0.288300
C2151	C215	0.893700	0.991900	0.566100
N411	N41	0.533500	0.482700	0.192200
H1211	H121	0.514800	0.461100	0.176400
N421	N42	0.559700	0.430800	0.214200
C2161	C216	0.635400	0.538200	0.290200
H1221	H122	0.628100	0.593600	0.292800
C2171	C217	0.625400	0.387900	0.264700
H1231	H123	0.610400	0.342600	0.248200
C2181	C218	0.712700	0.417600	0.342700
C2191	C219	0.616000	0.474600	0.263800
C2201	C220	0.875600	0.832000	0.561500
H1241	H124	0.865500	0.831000	0.532200
C2211	C221	0.908500	0.832800	0.649200
H1251	H125	0.919800	0.832700	0.678800
O2231	O223	0.916400	0.043600	0.583000
C2221	C222	0.880500	0.585300	0.796600
O2241	O224	0.870200	0.508000	0.837600
C2231	C223	0.877600	0.582200	0.829600
C2241	C224	0.910700	0.906000	0.632100
H1261	H126	0.923300	0.954700	0.649200
Mo851	Mo85	0.326380	0.015580	0.512790
Mo861	Mo86	0.306520	0.787140	0.492520
Mo871	Mo87	0.347650	0.648680	0.409660
Mo881	Mo88	0.427500	0.815550	0.571000
Mo891	Mo89	0.417200	0.706380	0.486190
Mo901	Mo90	0.331030	0.123590	0.447150
Mo911	Mo91	0.382420	0.851520	0.575420
Mo921	Mo92	0.293800	0.704060	0.424930
Mo931	Mo93	0.312910	0.999520	0.361450
Mo941	Mo94	0.297200	0.826030	0.348800
Mo951	Mo95	0.432920	0.938120	0.496940
Zn291	Zn29	0.370900	0.638940	0.514770
Mo961	Mo96	0.391860	0.064850	0.447060
Zn301	Zn30	0.274330	0.949010	0.406190
Zn311	Zn31	0.400700	0.052900	0.543850
Zn321	Zn32	0.377090	0.842870	0.393700
O2251	O225	0.286000	0.929900	0.368500
O2261	O226	0.282600	0.825200	0.432600
O2271	O227	0.356100	0.083400	0.507200
O2281	O228	0.409200	0.929900	0.570400
O2291	O229	0.303500	0.037600	0.450400
O2301	O230	0.380000	0.647200	0.473100
O2311	O231	0.327800	0.688300	0.486000
O2321	O232	0.391500	0.745100	0.555000
O2331	O233	0.321300	0.710600	0.359300
O2341	O234	0.413800	0.036400	0.507500
O2351	O235	0.307000	0.101500	0.390200
O2361	O236	0.341300	0.794700	0.551300
O2371	O237	0.299900	0.923200	0.500900
O2381	O238	0.230800	0.977000	0.372400
O2391	O239	0.333600	0.888500	0.362400
O2401	O240	0.452500	0.898600	0.559500
O2411	O241	0.367100	0.149100	0.455300
O2421	O242	0.433300	0.714900	0.541100
O2431	O243	0.382400	0.727700	0.423500
O2441	O244	0.320100	0.617500	0.417800
O2451	O245	0.272600	0.749100	0.363200
O2461	O246	0.400400	0.944600	0.434900
O2471	O247	0.930000	0.361100	0.087800
O2481	O248	0.437800	0.809400	0.486200
O2491	O249	0.359700	0.971500	0.564700
O2501	O250	0.353100	0.062100	0.382300
N431	N43	0.380000	0.094500	0.637200
H1271	H127	0.377200	0.070300	0.615200
N441	N44	0.389700	0.193700	0.683100
C2251	C225	0.385200	0.113100	0.692900
O2511	O251	0.385400	0.155100	0.853600
O2521	O252	0.221800	0.843000	0.339500
C2261	C226	0.373800	0.257100	0.582400
H1281	H128	0.360900	0.207500	0.566300
O2531	O253	0.369000	0.515900	0.530100
N451	N45	0.377000	0.048300	0.663800
C2271	C227	0.384100	0.099400	0.728000
C2281	C228	0.387600	0.179400	0.752800
H1291	H129	0.390900	0.237100	0.745900
C2291	C229	0.387700	0.182100	0.648800
C2301	C230	0.391000	0.255900	0.627300
N461	N46	0.071500	0.081400	0.227800
O2541	O254	0.968700	0.451200	0.110100
C2311	C231	0.040800	0.072800	0.198600
C2321	C232	0.019000	0.150200	0.177800
C2331	C233	0.967300	0.212900	0.129200
H1301	H130	0.945800	0.205600	0.112600
C2341	C234	0.011700	0.316200	0.163100
H1311	H131	0.019700	0.375400	0.167100
C2351	C235	0.030500	0.242100	0.184400
H1321	H132	0.051900	0.251700	0.204200
C2361	C236	0.979000	0.298200	0.134400
C2371	C237	0.958300	0.375000	0.110100
C2381	C238	0.986200	0.135800	0.147700
H1331	H133	0.977900	0.076700	0.140700
C2391	C239	0.082000	0.995500	0.234900
C2401	C240	0.178700	0.932800	0.316500
C2411	C241	0.167300	0.021500	0.314500
H1341	H134	0.181300	0.069700	0.329700
C2421	C242	0.376700	0.009800	0.773300
H1351	H135	0.372900	0.952800	0.780000
C2431	C243	0.378300	0.016100	0.739600
H1361	H136	0.375500	0.963000	0.724400
C2441	C244	0.386100	0.171900	0.785300
H1371	H137	0.388700	0.224300	0.800800
C2451	C245	0.393600	0.409500	0.587100
C2461	C246	0.157100	0.863800	0.289600
H1381	H138	0.163400	0.805200	0.288300
C2471	C247	0.393700	0.491900	0.566100
N471	N47	0.033500	0.982700	0.192200
H1391	H139	0.014800	0.961100	0.176400
N481	N48	0.059700	0.930800	0.214200
C2481	C248	0.135400	0.038200	0.290200
H1401	H140	0.128100	0.093600	0.292800
C2491	C249	0.125400	0.887900	0.264700
H1411	H141	0.110400	0.842600	0.248200
C2501	C250	0.212700	0.917600	0.342700
C2511	C251	0.116000	0.974600	0.263800
C2521	C252	0.375600	0.332000	0.561500
H1421	H142	0.365500	0.331000	0.532200
C2531	C253	0.408500	0.332800	0.649200
H1431	H143	0.419800	0.332700	0.678800
O2551	O255	0.416400	0.543600	0.583000
C2541	C254	0.380500	0.085300	0.796600
O2561	O256	0.370200	0.008000	0.837600
C2551	C255	0.377600	0.082200	0.829600
C2561	C256	0.410700	0.406000	0.632100
H1441	H144	0.423300	0.454700	0.649200
