data_UDEMEW_manual_PM
_symmetry_space_group_name_H-M	'P1'
_cell_length_a	51.552100
_cell_length_b	51.552100
_cell_length_c	51.552100
_cell_angle_alpha	60.000000
_cell_angle_beta	60.000000
_cell_angle_gamma	60.000000
_symmetry_Int_Tables_number 1

loop_
_symmetry_equiv_pos_as_xyz
'x,y,z'

loop_
_atom_site_label
_atom_site_type_symbol
_atom_site_fract_x
_atom_site_fract_y
_atom_site_fract_z
Cr11	Cr1	0.746340	0.890550	0.955000
Cr21	Cr2	0.585310	0.139280	0.929890
O11	O1	0.761180	0.804450	0.854400
O21	O2	0.739510	0.782830	0.832710
O31	O3	0.558890	0.992710	0.943080
O41	O4	0.446980	0.046740	0.003570
O51	O5	0.532760	0.040730	0.948180
O61	O6	0.729930	0.867350	0.917030
O71	O7	0.677640	0.952140	0.902690
O81	O8	0.757230	0.853690	0.947070
O91	O9	0.887550	0.930860	0.789780
O101	O10	0.736540	0.924410	0.967550
O111	O11	0.704530	0.982010	0.890500
O121	O12	0.594730	0.167270	0.969160
O131	O13	0.301930	0.103000	0.000970
O141	O14	0.568320	0.175640	0.940870
O151	O15	0.347480	0.113420	0.971680
O161	O16	0.597250	0.105590	0.917400
O171	O17	0.650130	0.084660	0.902730
C11	C1	0.378640	0.064750	0.017490
C21	C2	0.346220	0.071250	0.022580
C31	C3	0.330570	0.097810	0.997190
C41	C4	0.763490	0.810420	0.904510
C51	C5	0.769010	0.816510	0.924820
C61	C6	0.750530	0.847500	0.930600
C71	C7	0.648470	0.005750	0.900250
C81	C8	0.648990	0.034140	0.896940
C91	C9	0.620940	0.057930	0.906470
C101	C10	0.591300	0.054010	0.917850
C111	C11	0.589590	0.026080	0.920830
C121	C12	0.618640	0.002080	0.911770
C131	C13	0.558330	0.019760	0.937950
C141	C14	0.623010	0.084600	0.908530
C151	C15	0.678910	0.978440	0.896950
C161	C16	0.688530	0.028600	0.980470
C171	C17	0.707290	0.008460	0.961480
C181	C18	0.575340	0.185780	0.953600
H11	H1	0.391260	0.080040	0.996490
H21	H2	0.743970	0.827190	0.895470
H31	H3	0.671610	0.036850	0.888910
H41	H4	0.569570	0.071940	0.926150
H51	H5	0.618110	0.979730	0.915440
H61	H6	0.713390	0.019070	0.935920
Cr31	Cr3	0.890550	0.746340	0.408110
Cr41	Cr4	0.139280	0.585310	0.345520
O181	O18	0.804450	0.761180	0.579970
O191	O19	0.782830	0.739510	0.644950
O201	O20	0.992710	0.558890	0.505320
O211	O21	0.046740	0.446980	0.502710
O221	O22	0.040730	0.532760	0.478330
O231	O23	0.867350	0.729930	0.485690
O241	O24	0.952140	0.677640	0.467530
O251	O25	0.853690	0.757230	0.442010
O261	O26	0.930860	0.887550	0.391810
O271	O27	0.924410	0.736540	0.371500
O281	O28	0.982010	0.704530	0.422960
O291	O29	0.167270	0.594730	0.268840
O301	O30	0.103000	0.301930	0.594100
O311	O31	0.175640	0.568320	0.315170
O321	O32	0.113420	0.347480	0.567420
O331	O33	0.105590	0.597250	0.379760
O341	O34	0.084660	0.650130	0.362480
C191	C19	0.064750	0.378640	0.539120
C201	C20	0.071250	0.346220	0.559950
C211	C21	0.097810	0.330570	0.574430
C221	C22	0.810420	0.763490	0.521580
C231	C23	0.816510	0.769010	0.489660
C241	C24	0.847500	0.750530	0.471370
C251	C25	0.005750	0.648470	0.445530
C261	C26	0.034140	0.648990	0.419930
C271	C27	0.057930	0.620940	0.414660
C281	C28	0.054010	0.591300	0.436840
C291	C29	0.026080	0.589590	0.463500
C301	C30	0.002080	0.618640	0.467510
C311	C31	0.019760	0.558330	0.483960
C321	C32	0.084600	0.623010	0.383860
C331	C33	0.978440	0.678910	0.445700
C341	C34	0.028600	0.688530	0.302400
C351	C35	0.008460	0.707290	0.322770
C361	C36	0.185780	0.575340	0.285280
H71	H7	0.080040	0.391260	0.532210
H81	H8	0.827190	0.743970	0.533370
H91	H9	0.036850	0.671610	0.402630
H101	H10	0.071940	0.569570	0.432340
H111	H11	0.979730	0.618110	0.486720
H121	H12	0.019070	0.713390	0.331620
Cr51	Cr5	0.955000	0.408110	0.746340
Cr61	Cr6	0.929890	0.345520	0.585310
O351	O35	0.854400	0.579970	0.761180
O361	O36	0.832710	0.644950	0.739510
O371	O37	0.943080	0.505320	0.558890
O381	O38	0.003570	0.502710	0.446980
O391	O39	0.948180	0.478330	0.532760
O401	O40	0.917030	0.485690	0.729930
O411	O41	0.902690	0.467530	0.677640
O421	O42	0.947070	0.442010	0.757230
O431	O43	0.789780	0.391810	0.887550
O441	O44	0.967550	0.371500	0.736540
O451	O45	0.890500	0.422960	0.704530
O461	O46	0.969160	0.268840	0.594730
O471	O47	0.000970	0.594100	0.301930
O481	O48	0.940870	0.315170	0.568320
O491	O49	0.971680	0.567420	0.347480
O501	O50	0.917400	0.379760	0.597250
O511	O51	0.902730	0.362480	0.650130
C371	C37	0.017490	0.539120	0.378640
C381	C38	0.022580	0.559950	0.346220
C391	C39	0.997190	0.574430	0.330570
C401	C40	0.904510	0.521580	0.763490
C411	C41	0.924820	0.489660	0.769010
C421	C42	0.930600	0.471370	0.750530
C431	C43	0.900250	0.445530	0.648470
C441	C44	0.896940	0.419930	0.648990
C451	C45	0.906470	0.414660	0.620940
C461	C46	0.917850	0.436840	0.591300
C471	C47	0.920830	0.463500	0.589590
C481	C48	0.911770	0.467510	0.618640
C491	C49	0.937950	0.483960	0.558330
C501	C50	0.908530	0.383860	0.623010
C511	C51	0.896950	0.445700	0.678910
C521	C52	0.980470	0.302400	0.688530
C531	C53	0.961480	0.322770	0.707290
C541	C54	0.953600	0.285280	0.575340
H131	H13	0.996490	0.532210	0.391260
H141	H14	0.895470	0.533370	0.743970
H151	H15	0.888910	0.402630	0.671610
H161	H16	0.926150	0.432340	0.569570
H171	H17	0.915440	0.486720	0.618110
H181	H18	0.935920	0.331620	0.713390
Cr71	Cr7	0.408110	0.955000	0.890550
Cr81	Cr8	0.345520	0.929890	0.139280
O521	O52	0.579970	0.854400	0.804450
O531	O53	0.644950	0.832710	0.782830
O541	O54	0.505320	0.943080	0.992710
O551	O55	0.502710	0.003570	0.046740
O561	O56	0.478330	0.948180	0.040730
O571	O57	0.485690	0.917030	0.867350
O581	O58	0.467530	0.902690	0.952140
O591	O59	0.442010	0.947070	0.853690
O601	O60	0.391810	0.789780	0.930860
O611	O61	0.371500	0.967550	0.924410
O621	O62	0.422960	0.890500	0.982010
O631	O63	0.268840	0.969160	0.167270
O641	O64	0.594100	0.000970	0.103000
O651	O65	0.315170	0.940870	0.175640
O661	O66	0.567420	0.971680	0.113420
O671	O67	0.379760	0.917400	0.105590
O681	O68	0.362480	0.902730	0.084660
C551	C55	0.539120	0.017490	0.064750
C561	C56	0.559950	0.022580	0.071250
C571	C57	0.574430	0.997190	0.097810
C581	C58	0.521580	0.904510	0.810420
C591	C59	0.489660	0.924820	0.816510
C601	C60	0.471370	0.930600	0.847500
C611	C61	0.445530	0.900250	0.005750
C621	C62	0.419930	0.896940	0.034140
C631	C63	0.414660	0.906470	0.057930
C641	C64	0.436840	0.917850	0.054010
C651	C65	0.463500	0.920830	0.026080
C661	C66	0.467510	0.911770	0.002080
C671	C67	0.483960	0.937950	0.019760
C681	C68	0.383860	0.908530	0.084600
C691	C69	0.445700	0.896950	0.978440
C701	C70	0.302400	0.980470	0.028600
C711	C71	0.322770	0.961480	0.008460
C721	C72	0.285280	0.953600	0.185780
H191	H19	0.532210	0.996490	0.080040
H201	H20	0.533370	0.895470	0.827190
H211	H21	0.402630	0.888910	0.036850
H221	H22	0.432340	0.926150	0.071940
H231	H23	0.486720	0.915440	0.979730
H241	H24	0.331620	0.935920	0.019070
Cr91	Cr9	0.955000	0.746340	0.890550
Cr101	Cr10	0.929890	0.585310	0.139280
O691	O69	0.854400	0.761180	0.804450
O701	O70	0.832710	0.739510	0.782830
O711	O71	0.943080	0.558890	0.992710
O721	O72	0.003570	0.446980	0.046740
O731	O73	0.948180	0.532760	0.040730
O741	O74	0.917030	0.729930	0.867350
O751	O75	0.902690	0.677640	0.952140
O761	O76	0.947070	0.757230	0.853690
O771	O77	0.789780	0.887550	0.930860
O781	O78	0.967550	0.736540	0.924410
O791	O79	0.890500	0.704530	0.982010
O801	O80	0.969160	0.594730	0.167270
O811	O81	0.000970	0.301930	0.103000
O821	O82	0.940870	0.568320	0.175640
O831	O83	0.971680	0.347480	0.113420
O841	O84	0.917400	0.597250	0.105590
O851	O85	0.902730	0.650130	0.084660
C731	C73	0.017490	0.378640	0.064750
C741	C74	0.022580	0.346220	0.071250
C751	C75	0.997190	0.330570	0.097810
C761	C76	0.904510	0.763490	0.810420
C771	C77	0.924820	0.769010	0.816510
C781	C78	0.930600	0.750530	0.847500
C791	C79	0.900250	0.648470	0.005750
C801	C80	0.896940	0.648990	0.034140
C811	C81	0.906470	0.620940	0.057930
C821	C82	0.917850	0.591300	0.054010
C831	C83	0.920830	0.589590	0.026080
C841	C84	0.911770	0.618640	0.002080
C851	C85	0.937950	0.558330	0.019760
C861	C86	0.908530	0.623010	0.084600
C871	C87	0.896950	0.678910	0.978440
C881	C88	0.980470	0.688530	0.028600
C891	C89	0.961480	0.707290	0.008460
C901	C90	0.953600	0.575340	0.185780
H251	H25	0.996490	0.391260	0.080040
H261	H26	0.895470	0.743970	0.827190
H271	H27	0.888910	0.671610	0.036850
H281	H28	0.926150	0.569570	0.071940
H291	H29	0.915440	0.618110	0.979730
H301	H30	0.935920	0.713390	0.019070
Cr111	Cr11	0.408110	0.890550	0.746340
Cr121	Cr12	0.345520	0.139280	0.585310
O861	O86	0.579970	0.804450	0.761180
O871	O87	0.644950	0.782830	0.739510
O881	O88	0.505320	0.992710	0.558890
O891	O89	0.502710	0.046740	0.446980
O901	O90	0.478330	0.040730	0.532760
O911	O91	0.485690	0.867350	0.729930
O921	O92	0.467530	0.952140	0.677640
O931	O93	0.442010	0.853690	0.757230
O941	O94	0.391810	0.930860	0.887550
O951	O95	0.371500	0.924410	0.736540
O961	O96	0.422960	0.982010	0.704530
O971	O97	0.268840	0.167270	0.594730
O981	O98	0.594100	0.103000	0.301930
O991	O99	0.315170	0.175640	0.568320
O1001	O100	0.567420	0.113420	0.347480
O1011	O101	0.379760	0.105590	0.597250
O1021	O102	0.362480	0.084660	0.650130
C911	C91	0.539120	0.064750	0.378640
C921	C92	0.559950	0.071250	0.346220
C931	C93	0.574430	0.097810	0.330570
C941	C94	0.521580	0.810420	0.763490
C951	C95	0.489660	0.816510	0.769010
C961	C96	0.471370	0.847500	0.750530
C971	C97	0.445530	0.005750	0.648470
C981	C98	0.419930	0.034140	0.648990
C991	C99	0.414660	0.057930	0.620940
C1001	C100	0.436840	0.054010	0.591300
C1011	C101	0.463500	0.026080	0.589590
C1021	C102	0.467510	0.002080	0.618640
C1031	C103	0.483960	0.019760	0.558330
C1041	C104	0.383860	0.084600	0.623010
C1051	C105	0.445700	0.978440	0.678910
C1061	C106	0.302400	0.028600	0.688530
C1071	C107	0.322770	0.008460	0.707290
C1081	C108	0.285280	0.185780	0.575340
H311	H31	0.532210	0.080040	0.391260
H321	H32	0.533370	0.827190	0.743970
H331	H33	0.402630	0.036850	0.671610
H341	H34	0.432340	0.071940	0.569570
H351	H35	0.486720	0.979730	0.618110
H361	H36	0.331620	0.019070	0.713390
Cr131	Cr13	0.746340	0.955000	0.408110
Cr141	Cr14	0.585310	0.929890	0.345520
O1031	O103	0.761180	0.854400	0.579970
O1041	O104	0.739510	0.832710	0.644950
O1051	O105	0.558890	0.943080	0.505320
O1061	O106	0.446980	0.003570	0.502710
O1071	O107	0.532760	0.948180	0.478330
O1081	O108	0.729930	0.917030	0.485690
O1091	O109	0.677640	0.902690	0.467530
O1101	O110	0.757230	0.947070	0.442010
O1111	O111	0.887550	0.789780	0.391810
O1121	O112	0.736540	0.967550	0.371500
O1131	O113	0.704530	0.890500	0.422960
O1141	O114	0.594730	0.969160	0.268840
O1151	O115	0.301930	0.000970	0.594100
O1161	O116	0.568320	0.940870	0.315170
O1171	O117	0.347480	0.971680	0.567420
O1181	O118	0.597250	0.917400	0.379760
O1191	O119	0.650130	0.902730	0.362480
C1091	C109	0.378640	0.017490	0.539120
C1101	C110	0.346220	0.022580	0.559950
C1111	C111	0.330570	0.997190	0.574430
C1121	C112	0.763490	0.904510	0.521580
C1131	C113	0.769010	0.924820	0.489660
C1141	C114	0.750530	0.930600	0.471370
C1151	C115	0.648470	0.900250	0.445530
C1161	C116	0.648990	0.896940	0.419930
C1171	C117	0.620940	0.906470	0.414660
C1181	C118	0.591300	0.917850	0.436840
C1191	C119	0.589590	0.920830	0.463500
C1201	C120	0.618640	0.911770	0.467510
C1211	C121	0.558330	0.937950	0.483960
C1221	C122	0.623010	0.908530	0.383860
C1231	C123	0.678910	0.896950	0.445700
C1241	C124	0.688530	0.980470	0.302400
C1251	C125	0.707290	0.961480	0.322770
C1261	C126	0.575340	0.953600	0.285280
H371	H37	0.391260	0.996490	0.532210
H381	H38	0.743970	0.895470	0.533370
H391	H39	0.671610	0.888910	0.402630
H401	H40	0.569570	0.926150	0.432340
H411	H41	0.618110	0.915440	0.486720
H421	H42	0.713390	0.935920	0.331620
Cr151	Cr15	0.890550	0.408110	0.955000
Cr161	Cr16	0.139280	0.345520	0.929890
O1201	O120	0.804450	0.579970	0.854400
O1211	O121	0.782830	0.644950	0.832710
O1221	O122	0.992710	0.505320	0.943080
O1231	O123	0.046740	0.502710	0.003570
O1241	O124	0.040730	0.478330	0.948180
O1251	O125	0.867350	0.485690	0.917030
O1261	O126	0.952140	0.467530	0.902690
O1271	O127	0.853690	0.442010	0.947070
O1281	O128	0.930860	0.391810	0.789780
O1291	O129	0.924410	0.371500	0.967550
O1301	O130	0.982010	0.422960	0.890500
O1311	O131	0.167270	0.268840	0.969160
O1321	O132	0.103000	0.594100	0.000970
O1331	O133	0.175640	0.315170	0.940870
O1341	O134	0.113420	0.567420	0.971680
O1351	O135	0.105590	0.379760	0.917400
O1361	O136	0.084660	0.362480	0.902730
C1271	C127	0.064750	0.539120	0.017490
C1281	C128	0.071250	0.559950	0.022580
C1291	C129	0.097810	0.574430	0.997190
C1301	C130	0.810420	0.521580	0.904510
C1311	C131	0.816510	0.489660	0.924820
C1321	C132	0.847500	0.471370	0.930600
C1331	C133	0.005750	0.445530	0.900250
C1341	C134	0.034140	0.419930	0.896940
C1351	C135	0.057930	0.414660	0.906470
C1361	C136	0.054010	0.436840	0.917850
C1371	C137	0.026080	0.463500	0.920830
C1381	C138	0.002080	0.467510	0.911770
C1391	C139	0.019760	0.483960	0.937950
C1401	C140	0.084600	0.383860	0.908530
C1411	C141	0.978440	0.445700	0.896950
C1421	C142	0.028600	0.302400	0.980470
C1431	C143	0.008460	0.322770	0.961480
C1441	C144	0.185780	0.285280	0.953600
H431	H43	0.080040	0.532210	0.996490
H441	H44	0.827190	0.533370	0.895470
H451	H45	0.036850	0.402630	0.888910
H461	H46	0.071940	0.432340	0.926150
H471	H47	0.979730	0.486720	0.915440
H481	H48	0.019070	0.331620	0.935920
Cr171	Cr17	0.890550	0.955000	0.746340
Cr181	Cr18	0.139280	0.929890	0.585310
O1371	O137	0.804450	0.854400	0.761180
O1381	O138	0.782830	0.832710	0.739510
O1391	O139	0.992710	0.943080	0.558890
O1401	O140	0.046740	0.003570	0.446980
O1411	O141	0.040730	0.948180	0.532760
O1421	O142	0.867350	0.917030	0.729930
O1431	O143	0.952140	0.902690	0.677640
O1441	O144	0.853690	0.947070	0.757230
O1451	O145	0.930860	0.789780	0.887550
O1461	O146	0.924410	0.967550	0.736540
O1471	O147	0.982010	0.890500	0.704530
O1481	O148	0.167270	0.969160	0.594730
O1491	O149	0.103000	0.000970	0.301930
O1501	O150	0.175640	0.940870	0.568320
O1511	O151	0.113420	0.971680	0.347480
O1521	O152	0.105590	0.917400	0.597250
O1531	O153	0.084660	0.902730	0.650130
C1451	C145	0.064750	0.017490	0.378640
C1461	C146	0.071250	0.022580	0.346220
C1471	C147	0.097810	0.997190	0.330570
C1481	C148	0.810420	0.904510	0.763490
C1491	C149	0.816510	0.924820	0.769010
C1501	C150	0.847500	0.930600	0.750530
C1511	C151	0.005750	0.900250	0.648470
C1521	C152	0.034140	0.896940	0.648990
C1531	C153	0.057930	0.906470	0.620940
C1541	C154	0.054010	0.917850	0.591300
C1551	C155	0.026080	0.920830	0.589590
C1561	C156	0.002080	0.911770	0.618640
C1571	C157	0.019760	0.937950	0.558330
C1581	C158	0.084600	0.908530	0.623010
C1591	C159	0.978440	0.896950	0.678910
C1601	C160	0.028600	0.980470	0.688530
C1611	C161	0.008460	0.961480	0.707290
C1621	C162	0.185780	0.953600	0.575340
H491	H49	0.080040	0.996490	0.391260
H501	H50	0.827190	0.895470	0.743970
H511	H51	0.036850	0.888910	0.671610
H521	H52	0.071940	0.926150	0.569570
H531	H53	0.979730	0.915440	0.618110
H541	H54	0.019070	0.935920	0.713390
Cr191	Cr19	0.746340	0.408110	0.890550
Cr201	Cr20	0.585310	0.345520	0.139280
O1541	O154	0.761180	0.579970	0.804450
O1551	O155	0.739510	0.644950	0.782830
O1561	O156	0.558890	0.505320	0.992710
O1571	O157	0.446980	0.502710	0.046740
O1581	O158	0.532760	0.478330	0.040730
O1591	O159	0.729930	0.485690	0.867350
O1601	O160	0.677640	0.467530	0.952140
O1611	O161	0.757230	0.442010	0.853690
O1621	O162	0.887550	0.391810	0.930860
O1631	O163	0.736540	0.371500	0.924410
O1641	O164	0.704530	0.422960	0.982010
O1651	O165	0.594730	0.268840	0.167270
O1661	O166	0.301930	0.594100	0.103000
O1671	O167	0.568320	0.315170	0.175640
O1681	O168	0.347480	0.567420	0.113420
O1691	O169	0.597250	0.379760	0.105590
O1701	O170	0.650130	0.362480	0.084660
C1631	C163	0.378640	0.539120	0.064750
C1641	C164	0.346220	0.559950	0.071250
C1651	C165	0.330570	0.574430	0.097810
C1661	C166	0.763490	0.521580	0.810420
C1671	C167	0.769010	0.489660	0.816510
C1681	C168	0.750530	0.471370	0.847500
C1691	C169	0.648470	0.445530	0.005750
C1701	C170	0.648990	0.419930	0.034140
C1711	C171	0.620940	0.414660	0.057930
C1721	C172	0.591300	0.436840	0.054010
C1731	C173	0.589590	0.463500	0.026080
C1741	C174	0.618640	0.467510	0.002080
C1751	C175	0.558330	0.483960	0.019760
C1761	C176	0.623010	0.383860	0.084600
C1771	C177	0.678910	0.445700	0.978440
C1781	C178	0.688530	0.302400	0.028600
C1791	C179	0.707290	0.322770	0.008460
C1801	C180	0.575340	0.285280	0.185780
H551	H55	0.391260	0.532210	0.080040
H561	H56	0.743970	0.533370	0.827190
H571	H57	0.671610	0.402630	0.036850
H581	H58	0.569570	0.432340	0.071940
H591	H59	0.618110	0.486720	0.979730
H601	H60	0.713390	0.331620	0.019070
Cr211	Cr21	0.408110	0.746340	0.955000
Cr221	Cr22	0.345520	0.585310	0.929890
O1711	O171	0.579970	0.761180	0.854400
O1721	O172	0.644950	0.739510	0.832710
O1731	O173	0.505320	0.558890	0.943080
O1741	O174	0.502710	0.446980	0.003570
O1751	O175	0.478330	0.532760	0.948180
O1761	O176	0.485690	0.729930	0.917030
O1771	O177	0.467530	0.677640	0.902690
O1781	O178	0.442010	0.757230	0.947070
O1791	O179	0.391810	0.887550	0.789780
O1801	O180	0.371500	0.736540	0.967550
O1811	O181	0.422960	0.704530	0.890500
O1821	O182	0.268840	0.594730	0.969160
O1831	O183	0.594100	0.301930	0.000970
O1841	O184	0.315170	0.568320	0.940870
O1851	O185	0.567420	0.347480	0.971680
O1861	O186	0.379760	0.597250	0.917400
O1871	O187	0.362480	0.650130	0.902730
C1811	C181	0.539120	0.378640	0.017490
C1821	C182	0.559950	0.346220	0.022580
C1831	C183	0.574430	0.330570	0.997190
C1841	C184	0.521580	0.763490	0.904510
C1851	C185	0.489660	0.769010	0.924820
C1861	C186	0.471370	0.750530	0.930600
C1871	C187	0.445530	0.648470	0.900250
C1881	C188	0.419930	0.648990	0.896940
C1891	C189	0.414660	0.620940	0.906470
C1901	C190	0.436840	0.591300	0.917850
C1911	C191	0.463500	0.589590	0.920830
C1921	C192	0.467510	0.618640	0.911770
C1931	C193	0.483960	0.558330	0.937950
C1941	C194	0.383860	0.623010	0.908530
C1951	C195	0.445700	0.678910	0.896950
C1961	C196	0.302400	0.688530	0.980470
C1971	C197	0.322770	0.707290	0.961480
C1981	C198	0.285280	0.575340	0.953600
H611	H61	0.532210	0.391260	0.996490
H621	H62	0.533370	0.743970	0.895470
H631	H63	0.402630	0.671610	0.888910
H641	H64	0.432340	0.569570	0.926150
H651	H65	0.486720	0.618110	0.915440
H661	H66	0.331620	0.713390	0.935920
Cr231	Cr23	0.955000	0.890550	0.408110
Cr241	Cr24	0.929890	0.139280	0.345520
O1881	O188	0.854400	0.804450	0.579970
O1891	O189	0.832710	0.782830	0.644950
O1901	O190	0.943080	0.992710	0.505320
O1911	O191	0.003570	0.046740	0.502710
O1921	O192	0.948180	0.040730	0.478330
O1931	O193	0.917030	0.867350	0.485690
O1941	O194	0.902690	0.952140	0.467530
O1951	O195	0.947070	0.853690	0.442010
O1961	O196	0.789780	0.930860	0.391810
O1971	O197	0.967550	0.924410	0.371500
O1981	O198	0.890500	0.982010	0.422960
O1991	O199	0.969160	0.167270	0.268840
O2001	O200	0.000970	0.103000	0.594100
O2011	O201	0.940870	0.175640	0.315170
O2021	O202	0.971680	0.113420	0.567420
O2031	O203	0.917400	0.105590	0.379760
O2041	O204	0.902730	0.084660	0.362480
C1991	C199	0.017490	0.064750	0.539120
C2001	C200	0.022580	0.071250	0.559950
C2011	C201	0.997190	0.097810	0.574430
C2021	C202	0.904510	0.810420	0.521580
C2031	C203	0.924820	0.816510	0.489660
C2041	C204	0.930600	0.847500	0.471370
C2051	C205	0.900250	0.005750	0.445530
C2061	C206	0.896940	0.034140	0.419930
C2071	C207	0.906470	0.057930	0.414660
C2081	C208	0.917850	0.054010	0.436840
C2091	C209	0.920830	0.026080	0.463500
C2101	C210	0.911770	0.002080	0.467510
C2111	C211	0.937950	0.019760	0.483960
C2121	C212	0.908530	0.084600	0.383860
C2131	C213	0.896950	0.978440	0.445700
C2141	C214	0.980470	0.028600	0.302400
C2151	C215	0.961480	0.008460	0.322770
C2161	C216	0.953600	0.185780	0.285280
H671	H67	0.996490	0.080040	0.532210
H681	H68	0.895470	0.827190	0.533370
H691	H69	0.888910	0.036850	0.402630
H701	H70	0.926150	0.071940	0.432340
H711	H71	0.915440	0.979730	0.486720
H721	H72	0.935920	0.019070	0.331620
Cr251	Cr25	0.503660	0.359450	0.841890
Cr261	Cr26	0.664690	0.110720	0.904480
O2051	O205	0.488820	0.445550	0.670030
O2061	O206	0.510490	0.467170	0.605050
O2071	O207	0.691110	0.257290	0.744680
O2081	O208	0.803020	0.203260	0.747290
O2091	O209	0.717240	0.209270	0.771670
O2101	O210	0.520070	0.382650	0.764310
O2111	O211	0.572360	0.297860	0.782470
O2121	O212	0.492770	0.396310	0.807990
O2131	O213	0.362450	0.319140	0.858190
O2141	O214	0.513460	0.325590	0.878500
O2151	O215	0.545470	0.267990	0.827040
O2161	O216	0.655270	0.082730	0.981160
O2171	O217	0.948070	0.147000	0.655900
O2181	O218	0.681680	0.074360	0.934830
O2191	O219	0.902520	0.136580	0.682580
O2201	O220	0.652750	0.144410	0.870240
O2211	O221	0.599870	0.165340	0.887520
C2171	C217	0.871360	0.185250	0.710880
C2181	C218	0.903780	0.178750	0.690050
C2191	C219	0.919430	0.152190	0.675570
C2201	C220	0.486510	0.439580	0.728420
C2211	C221	0.480990	0.433490	0.760340
C2221	C222	0.499470	0.402500	0.778630
C2231	C223	0.601530	0.244250	0.804470
C2241	C224	0.601010	0.215860	0.830070
C2251	C225	0.629060	0.192070	0.835340
C2261	C226	0.658700	0.195990	0.813160
C2271	C227	0.660410	0.223920	0.786500
C2281	C228	0.631360	0.247920	0.782490
C2291	C229	0.691670	0.230240	0.766040
C2301	C230	0.626990	0.165400	0.866140
C2311	C231	0.571090	0.271560	0.804300
C2321	C232	0.561470	0.221400	0.947600
C2331	C233	0.542710	0.241540	0.927230
C2341	C234	0.674660	0.064220	0.964720
H731	H73	0.858740	0.169960	0.717790
H741	H74	0.506030	0.422810	0.716630
H751	H75	0.578390	0.213150	0.847370
H761	H76	0.680430	0.178060	0.817660
H771	H77	0.631890	0.270270	0.763280
H781	H78	0.536610	0.230930	0.918380
Cr271	Cr27	0.359450	0.503660	0.295000
Cr281	Cr28	0.110720	0.664690	0.320110
O2221	O222	0.445550	0.488820	0.395600
O2231	O223	0.467170	0.510490	0.417290
O2241	O224	0.257290	0.691110	0.306920
O2251	O225	0.203260	0.803020	0.246430
O2261	O226	0.209270	0.717240	0.301820
O2271	O227	0.382650	0.520070	0.332970
O2281	O228	0.297860	0.572360	0.347310
O2291	O229	0.396310	0.492770	0.302930
O2301	O230	0.319140	0.362450	0.460220
O2311	O231	0.325590	0.513460	0.282450
O2321	O232	0.267990	0.545470	0.359500
O2331	O233	0.082730	0.655270	0.280840
O2341	O234	0.147000	0.948070	0.249030
O2351	O235	0.074360	0.681680	0.309130
O2361	O236	0.136580	0.902520	0.278320
O2371	O237	0.144410	0.652750	0.332600
O2381	O238	0.165340	0.599870	0.347270
C2351	C235	0.185250	0.871360	0.232510
C2361	C236	0.178750	0.903780	0.227420
C2371	C237	0.152190	0.919430	0.252810
C2381	C238	0.439580	0.486510	0.345490
C2391	C239	0.433490	0.480990	0.325180
C2401	C240	0.402500	0.499470	0.319400
C2411	C241	0.244250	0.601530	0.349750
C2421	C242	0.215860	0.601010	0.353060
C2431	C243	0.192070	0.629060	0.343530
C2441	C244	0.195990	0.658700	0.332150
C2451	C245	0.223920	0.660410	0.329170
C2461	C246	0.247920	0.631360	0.338230
C2471	C247	0.230240	0.691670	0.312050
C2481	C248	0.165400	0.626990	0.341470
C2491	C249	0.271560	0.571090	0.353050
C2501	C250	0.221400	0.561470	0.269530
C2511	C251	0.241540	0.542710	0.288520
C2521	C252	0.064220	0.674660	0.296400
H791	H79	0.169960	0.858740	0.253510
H801	H80	0.422810	0.506030	0.354530
H811	H81	0.213150	0.578390	0.361090
H821	H82	0.178060	0.680430	0.323850
H831	H83	0.270270	0.631890	0.334560
H841	H84	0.230930	0.536610	0.314080
Cr291	Cr29	0.295000	0.841890	0.359450
Cr301	Cr30	0.320110	0.904480	0.110720
O2391	O239	0.395600	0.670030	0.445550
O2401	O240	0.417290	0.605050	0.467170
O2411	O241	0.306920	0.744680	0.257290
O2421	O242	0.246430	0.747290	0.203260
O2431	O243	0.301820	0.771670	0.209270
O2441	O244	0.332970	0.764310	0.382650
O2451	O245	0.347310	0.782470	0.297860
O2461	O246	0.302930	0.807990	0.396310
O2471	O247	0.460220	0.858190	0.319140
O2481	O248	0.282450	0.878500	0.325590
O2491	O249	0.359500	0.827040	0.267990
O2501	O250	0.280840	0.981160	0.082730
O2511	O251	0.249030	0.655900	0.147000
O2521	O252	0.309130	0.934830	0.074360
O2531	O253	0.278320	0.682580	0.136580
O2541	O254	0.332600	0.870240	0.144410
O2551	O255	0.347270	0.887520	0.165340
C2531	C253	0.232510	0.710880	0.185250
C2541	C254	0.227420	0.690050	0.178750
C2551	C255	0.252810	0.675570	0.152190
C2561	C256	0.345490	0.728420	0.439580
C2571	C257	0.325180	0.760340	0.433490
C2581	C258	0.319400	0.778630	0.402500
C2591	C259	0.349750	0.804470	0.244250
C2601	C260	0.353060	0.830070	0.215860
C2611	C261	0.343530	0.835340	0.192070
C2621	C262	0.332150	0.813160	0.195990
C2631	C263	0.329170	0.786500	0.223920
C2641	C264	0.338230	0.782490	0.247920
C2651	C265	0.312050	0.766040	0.230240
C2661	C266	0.341470	0.866140	0.165400
C2671	C267	0.353050	0.804300	0.271560
C2681	C268	0.269530	0.947600	0.221400
C2691	C269	0.288520	0.927230	0.241540
C2701	C270	0.296400	0.964720	0.064220
H851	H85	0.253510	0.717790	0.169960
H861	H86	0.354530	0.716630	0.422810
H871	H87	0.361090	0.847370	0.213150
H881	H88	0.323850	0.817660	0.178060
H891	H89	0.334560	0.763280	0.270270
H901	H90	0.314080	0.918380	0.230930
Cr311	Cr31	0.841890	0.295000	0.503660
Cr321	Cr32	0.904480	0.320110	0.664690
O2561	O256	0.670030	0.395600	0.488820
O2571	O257	0.605050	0.417290	0.510490
O2581	O258	0.744680	0.306920	0.691110
O2591	O259	0.747290	0.246430	0.803020
O2601	O260	0.771670	0.301820	0.717240
O2611	O261	0.764310	0.332970	0.520070
O2621	O262	0.782470	0.347310	0.572360
O2631	O263	0.807990	0.302930	0.492770
O2641	O264	0.858190	0.460220	0.362450
O2651	O265	0.878500	0.282450	0.513460
O2661	O266	0.827040	0.359500	0.545470
O2671	O267	0.981160	0.280840	0.655270
O2681	O268	0.655900	0.249030	0.948070
O2691	O269	0.934830	0.309130	0.681680
O2701	O270	0.682580	0.278320	0.902520
O2711	O271	0.870240	0.332600	0.652750
O2721	O272	0.887520	0.347270	0.599870
C2711	C271	0.710880	0.232510	0.871360
C2721	C272	0.690050	0.227420	0.903780
C2731	C273	0.675570	0.252810	0.919430
C2741	C274	0.728420	0.345490	0.486510
C2751	C275	0.760340	0.325180	0.480990
C2761	C276	0.778630	0.319400	0.499470
C2771	C277	0.804470	0.349750	0.601530
C2781	C278	0.830070	0.353060	0.601010
C2791	C279	0.835340	0.343530	0.629060
C2801	C280	0.813160	0.332150	0.658700
C2811	C281	0.786500	0.329170	0.660410
C2821	C282	0.782490	0.338230	0.631360
C2831	C283	0.766040	0.312050	0.691670
C2841	C284	0.866140	0.341470	0.626990
C2851	C285	0.804300	0.353050	0.571090
C2861	C286	0.947600	0.269530	0.561470
C2871	C287	0.927230	0.288520	0.542710
C2881	C288	0.964720	0.296400	0.674660
H911	H91	0.717790	0.253510	0.858740
H921	H92	0.716630	0.354530	0.506030
H931	H93	0.847370	0.361090	0.578390
H941	H94	0.817660	0.323850	0.680430
H951	H95	0.763280	0.334560	0.631890
H961	H96	0.918380	0.314080	0.536610
Cr331	Cr33	0.295000	0.503660	0.841890
Cr341	Cr34	0.320110	0.664690	0.904480
O2731	O273	0.395600	0.488820	0.670030
O2741	O274	0.417290	0.510490	0.605050
O2751	O275	0.306920	0.691110	0.744680
O2761	O276	0.246430	0.803020	0.747290
O2771	O277	0.301820	0.717240	0.771670
O2781	O278	0.332970	0.520070	0.764310
O2791	O279	0.347310	0.572360	0.782470
O2801	O280	0.302930	0.492770	0.807990
O2811	O281	0.460220	0.362450	0.858190
O2821	O282	0.282450	0.513460	0.878500
O2831	O283	0.359500	0.545470	0.827040
O2841	O284	0.280840	0.655270	0.981160
O2851	O285	0.249030	0.948070	0.655900
O2861	O286	0.309130	0.681680	0.934830
O2871	O287	0.278320	0.902520	0.682580
O2881	O288	0.332600	0.652750	0.870240
O2891	O289	0.347270	0.599870	0.887520
C2891	C289	0.232510	0.871360	0.710880
C2901	C290	0.227420	0.903780	0.690050
C2911	C291	0.252810	0.919430	0.675570
C2921	C292	0.345490	0.486510	0.728420
C2931	C293	0.325180	0.480990	0.760340
C2941	C294	0.319400	0.499470	0.778630
C2951	C295	0.349750	0.601530	0.804470
C2961	C296	0.353060	0.601010	0.830070
C2971	C297	0.343530	0.629060	0.835340
C2981	C298	0.332150	0.658700	0.813160
C2991	C299	0.329170	0.660410	0.786500
C3001	C300	0.338230	0.631360	0.782490
C3011	C301	0.312050	0.691670	0.766040
C3021	C302	0.341470	0.626990	0.866140
C3031	C303	0.353050	0.571090	0.804300
C3041	C304	0.269530	0.561470	0.947600
C3051	C305	0.288520	0.542710	0.927230
C3061	C306	0.296400	0.674660	0.964720
H971	H97	0.253510	0.858740	0.717790
H981	H98	0.354530	0.506030	0.716630
H991	H99	0.361090	0.578390	0.847370
H1001	H100	0.323850	0.680430	0.817660
H1011	H101	0.334560	0.631890	0.763280
H1021	H102	0.314080	0.536610	0.918380
Cr351	Cr35	0.841890	0.359450	0.295000
Cr361	Cr36	0.904480	0.110720	0.320110
O2901	O290	0.670030	0.445550	0.395600
O2911	O291	0.605050	0.467170	0.417290
O2921	O292	0.744680	0.257290	0.306920
O2931	O293	0.747290	0.203260	0.246430
O2941	O294	0.771670	0.209270	0.301820
O2951	O295	0.764310	0.382650	0.332970
O2961	O296	0.782470	0.297860	0.347310
O2971	O297	0.807990	0.396310	0.302930
O2981	O298	0.858190	0.319140	0.460220
O2991	O299	0.878500	0.325590	0.282450
O3001	O300	0.827040	0.267990	0.359500
O3011	O301	0.981160	0.082730	0.280840
O3021	O302	0.655900	0.147000	0.249030
O3031	O303	0.934830	0.074360	0.309130
O3041	O304	0.682580	0.136580	0.278320
O3051	O305	0.870240	0.144410	0.332600
O3061	O306	0.887520	0.165340	0.347270
C3071	C307	0.710880	0.185250	0.232510
C3081	C308	0.690050	0.178750	0.227420
C3091	C309	0.675570	0.152190	0.252810
C3101	C310	0.728420	0.439580	0.345490
C3111	C311	0.760340	0.433490	0.325180
C3121	C312	0.778630	0.402500	0.319400
C3131	C313	0.804470	0.244250	0.349750
C3141	C314	0.830070	0.215860	0.353060
C3151	C315	0.835340	0.192070	0.343530
C3161	C316	0.813160	0.195990	0.332150
C3171	C317	0.786500	0.223920	0.329170
C3181	C318	0.782490	0.247920	0.338230
C3191	C319	0.766040	0.230240	0.312050
C3201	C320	0.866140	0.165400	0.341470
C3211	C321	0.804300	0.271560	0.353050
C3221	C322	0.947600	0.221400	0.269530
C3231	C323	0.927230	0.241540	0.288520
C3241	C324	0.964720	0.064220	0.296400
H1031	H103	0.717790	0.169960	0.253510
H1041	H104	0.716630	0.422810	0.354530
H1051	H105	0.847370	0.213150	0.361090
H1061	H106	0.817660	0.178060	0.323850
H1071	H107	0.763280	0.270270	0.334560
H1081	H108	0.918380	0.230930	0.314080
Cr371	Cr37	0.503660	0.295000	0.359450
Cr381	Cr38	0.664690	0.320110	0.110720
O3071	O307	0.488820	0.395600	0.445550
O3081	O308	0.510490	0.417290	0.467170
O3091	O309	0.691110	0.306920	0.257290
O3101	O310	0.803020	0.246430	0.203260
O3111	O311	0.717240	0.301820	0.209270
O3121	O312	0.520070	0.332970	0.382650
O3131	O313	0.572360	0.347310	0.297860
O3141	O314	0.492770	0.302930	0.396310
O3151	O315	0.362450	0.460220	0.319140
O3161	O316	0.513460	0.282450	0.325590
O3171	O317	0.545470	0.359500	0.267990
O3181	O318	0.655270	0.280840	0.082730
O3191	O319	0.948070	0.249030	0.147000
O3201	O320	0.681680	0.309130	0.074360
O3211	O321	0.902520	0.278320	0.136580
O3221	O322	0.652750	0.332600	0.144410
O3231	O323	0.599870	0.347270	0.165340
C3251	C325	0.871360	0.232510	0.185250
C3261	C326	0.903780	0.227420	0.178750
C3271	C327	0.919430	0.252810	0.152190
C3281	C328	0.486510	0.345490	0.439580
C3291	C329	0.480990	0.325180	0.433490
C3301	C330	0.499470	0.319400	0.402500
C3311	C331	0.601530	0.349750	0.244250
C3321	C332	0.601010	0.353060	0.215860
C3331	C333	0.629060	0.343530	0.192070
C3341	C334	0.658700	0.332150	0.195990
C3351	C335	0.660410	0.329170	0.223920
C3361	C336	0.631360	0.338230	0.247920
C3371	C337	0.691670	0.312050	0.230240
C3381	C338	0.626990	0.341470	0.165400
C3391	C339	0.571090	0.353050	0.271560
C3401	C340	0.561470	0.269530	0.221400
C3411	C341	0.542710	0.288520	0.241540
C3421	C342	0.674660	0.296400	0.064220
H1091	H109	0.858740	0.253510	0.169960
H1101	H110	0.506030	0.354530	0.422810
H1111	H111	0.578390	0.361090	0.213150
H1121	H112	0.680430	0.323850	0.178060
H1131	H113	0.631890	0.334560	0.270270
H1141	H114	0.536610	0.314080	0.230930
Cr391	Cr39	0.359450	0.841890	0.503660
Cr401	Cr40	0.110720	0.904480	0.664690
O3241	O324	0.445550	0.670030	0.488820
O3251	O325	0.467170	0.605050	0.510490
O3261	O326	0.257290	0.744680	0.691110
O3271	O327	0.203260	0.747290	0.803020
O3281	O328	0.209270	0.771670	0.717240
O3291	O329	0.382650	0.764310	0.520070
O3301	O330	0.297860	0.782470	0.572360
O3311	O331	0.396310	0.807990	0.492770
O3321	O332	0.319140	0.858190	0.362450
O3331	O333	0.325590	0.878500	0.513460
O3341	O334	0.267990	0.827040	0.545470
O3351	O335	0.082730	0.981160	0.655270
O3361	O336	0.147000	0.655900	0.948070
O3371	O337	0.074360	0.934830	0.681680
O3381	O338	0.136580	0.682580	0.902520
O3391	O339	0.144410	0.870240	0.652750
O3401	O340	0.165340	0.887520	0.599870
C3431	C343	0.185250	0.710880	0.871360
C3441	C344	0.178750	0.690050	0.903780
C3451	C345	0.152190	0.675570	0.919430
C3461	C346	0.439580	0.728420	0.486510
C3471	C347	0.433490	0.760340	0.480990
C3481	C348	0.402500	0.778630	0.499470
C3491	C349	0.244250	0.804470	0.601530
C3501	C350	0.215860	0.830070	0.601010
C3511	C351	0.192070	0.835340	0.629060
C3521	C352	0.195990	0.813160	0.658700
C3531	C353	0.223920	0.786500	0.660410
C3541	C354	0.247920	0.782490	0.631360
C3551	C355	0.230240	0.766040	0.691670
C3561	C356	0.165400	0.866140	0.626990
C3571	C357	0.271560	0.804300	0.571090
C3581	C358	0.221400	0.947600	0.561470
C3591	C359	0.241540	0.927230	0.542710
C3601	C360	0.064220	0.964720	0.674660
H1151	H115	0.169960	0.717790	0.858740
H1161	H116	0.422810	0.716630	0.506030
H1171	H117	0.213150	0.847370	0.578390
H1181	H118	0.178060	0.817660	0.680430
H1191	H119	0.270270	0.763280	0.631890
H1201	H120	0.230930	0.918380	0.536610
Cr411	Cr41	0.359450	0.295000	0.841890
Cr421	Cr42	0.110720	0.320110	0.904480
O3411	O341	0.445550	0.395600	0.670030
O3421	O342	0.467170	0.417290	0.605050
O3431	O343	0.257290	0.306920	0.744680
O3441	O344	0.203260	0.246430	0.747290
O3451	O345	0.209270	0.301820	0.771670
O3461	O346	0.382650	0.332970	0.764310
O3471	O347	0.297860	0.347310	0.782470
O3481	O348	0.396310	0.302930	0.807990
O3491	O349	0.319140	0.460220	0.858190
O3501	O350	0.325590	0.282450	0.878500
O3511	O351	0.267990	0.359500	0.827040
O3521	O352	0.082730	0.280840	0.981160
O3531	O353	0.147000	0.249030	0.655900
O3541	O354	0.074360	0.309130	0.934830
O3551	O355	0.136580	0.278320	0.682580
O3561	O356	0.144410	0.332600	0.870240
O3571	O357	0.165340	0.347270	0.887520
C3611	C361	0.185250	0.232510	0.710880
C3621	C362	0.178750	0.227420	0.690050
C3631	C363	0.152190	0.252810	0.675570
C3641	C364	0.439580	0.345490	0.728420
C3651	C365	0.433490	0.325180	0.760340
C3661	C366	0.402500	0.319400	0.778630
C3671	C367	0.244250	0.349750	0.804470
C3681	C368	0.215860	0.353060	0.830070
C3691	C369	0.192070	0.343530	0.835340
C3701	C370	0.195990	0.332150	0.813160
C3711	C371	0.223920	0.329170	0.786500
C3721	C372	0.247920	0.338230	0.782490
C3731	C373	0.230240	0.312050	0.766040
C3741	C374	0.165400	0.341470	0.866140
C3751	C375	0.271560	0.353050	0.804300
C3761	C376	0.221400	0.269530	0.947600
C3771	C377	0.241540	0.288520	0.927230
C3781	C378	0.064220	0.296400	0.964720
H1211	H121	0.169960	0.253510	0.717790
H1221	H122	0.422810	0.354530	0.716630
H1231	H123	0.213150	0.361090	0.847370
H1241	H124	0.178060	0.323850	0.817660
H1251	H125	0.270270	0.334560	0.763280
H1261	H126	0.230930	0.314080	0.918380
Cr431	Cr43	0.503660	0.841890	0.295000
Cr441	Cr44	0.664690	0.904480	0.320110
O3581	O358	0.488820	0.670030	0.395600
O3591	O359	0.510490	0.605050	0.417290
O3601	O360	0.691110	0.744680	0.306920
O3611	O361	0.803020	0.747290	0.246430
O3621	O362	0.717240	0.771670	0.301820
O3631	O363	0.520070	0.764310	0.332970
O3641	O364	0.572360	0.782470	0.347310
O3651	O365	0.492770	0.807990	0.302930
O3661	O366	0.362450	0.858190	0.460220
O3671	O367	0.513460	0.878500	0.282450
O3681	O368	0.545470	0.827040	0.359500
O3691	O369	0.655270	0.981160	0.280840
O3701	O370	0.948070	0.655900	0.249030
O3711	O371	0.681680	0.934830	0.309130
O3721	O372	0.902520	0.682580	0.278320
O3731	O373	0.652750	0.870240	0.332600
O3741	O374	0.599870	0.887520	0.347270
C3791	C379	0.871360	0.710880	0.232510
C3801	C380	0.903780	0.690050	0.227420
C3811	C381	0.919430	0.675570	0.252810
C3821	C382	0.486510	0.728420	0.345490
C3831	C383	0.480990	0.760340	0.325180
C3841	C384	0.499470	0.778630	0.319400
C3851	C385	0.601530	0.804470	0.349750
C3861	C386	0.601010	0.830070	0.353060
C3871	C387	0.629060	0.835340	0.343530
C3881	C388	0.658700	0.813160	0.332150
C3891	C389	0.660410	0.786500	0.329170
C3901	C390	0.631360	0.782490	0.338230
C3911	C391	0.691670	0.766040	0.312050
C3921	C392	0.626990	0.866140	0.341470
C3931	C393	0.571090	0.804300	0.353050
C3941	C394	0.561470	0.947600	0.269530
C3951	C395	0.542710	0.927230	0.288520
C3961	C396	0.674660	0.964720	0.296400
H1271	H127	0.858740	0.717790	0.253510
H1281	H128	0.506030	0.716630	0.354530
H1291	H129	0.578390	0.847370	0.361090
H1301	H130	0.680430	0.817660	0.323850
H1311	H131	0.631890	0.763280	0.334560
H1321	H132	0.536610	0.918380	0.314080
Cr451	Cr45	0.841890	0.503660	0.359450
Cr461	Cr46	0.904480	0.664690	0.110720
O3751	O375	0.670030	0.488820	0.445550
O3761	O376	0.605050	0.510490	0.467170
O3771	O377	0.744680	0.691110	0.257290
O3781	O378	0.747290	0.803020	0.203260
O3791	O379	0.771670	0.717240	0.209270
O3801	O380	0.764310	0.520070	0.382650
O3811	O381	0.782470	0.572360	0.297860
O3821	O382	0.807990	0.492770	0.396310
O3831	O383	0.858190	0.362450	0.319140
O3841	O384	0.878500	0.513460	0.325590
O3851	O385	0.827040	0.545470	0.267990
O3861	O386	0.981160	0.655270	0.082730
O3871	O387	0.655900	0.948070	0.147000
O3881	O388	0.934830	0.681680	0.074360
O3891	O389	0.682580	0.902520	0.136580
O3901	O390	0.870240	0.652750	0.144410
O3911	O391	0.887520	0.599870	0.165340
C3971	C397	0.710880	0.871360	0.185250
C3981	C398	0.690050	0.903780	0.178750
C3991	C399	0.675570	0.919430	0.152190
C4001	C400	0.728420	0.486510	0.439580
C4011	C401	0.760340	0.480990	0.433490
C4021	C402	0.778630	0.499470	0.402500
C4031	C403	0.804470	0.601530	0.244250
C4041	C404	0.830070	0.601010	0.215860
C4051	C405	0.835340	0.629060	0.192070
C4061	C406	0.813160	0.658700	0.195990
C4071	C407	0.786500	0.660410	0.223920
C4081	C408	0.782490	0.631360	0.247920
C4091	C409	0.766040	0.691670	0.230240
C4101	C410	0.866140	0.626990	0.165400
C4111	C411	0.804300	0.571090	0.271560
C4121	C412	0.947600	0.561470	0.221400
C4131	C413	0.927230	0.542710	0.241540
C4141	C414	0.964720	0.674660	0.064220
H1331	H133	0.717790	0.858740	0.169960
H1341	H134	0.716630	0.506030	0.422810
H1351	H135	0.847370	0.578390	0.213150
H1361	H136	0.817660	0.680430	0.178060
H1371	H137	0.763280	0.631890	0.270270
H1381	H138	0.918380	0.536610	0.230930
Cr471	Cr47	0.295000	0.359450	0.503660
Cr481	Cr48	0.320110	0.110720	0.664690
O3921	O392	0.395600	0.445550	0.488820
O3931	O393	0.417290	0.467170	0.510490
O3941	O394	0.306920	0.257290	0.691110
O3951	O395	0.246430	0.203260	0.803020
O3961	O396	0.301820	0.209270	0.717240
O3971	O397	0.332970	0.382650	0.520070
O3981	O398	0.347310	0.297860	0.572360
O3991	O399	0.302930	0.396310	0.492770
O4001	O400	0.460220	0.319140	0.362450
O4011	O401	0.282450	0.325590	0.513460
O4021	O402	0.359500	0.267990	0.545470
O4031	O403	0.280840	0.082730	0.655270
O4041	O404	0.249030	0.147000	0.948070
O4051	O405	0.309130	0.074360	0.681680
O4061	O406	0.278320	0.136580	0.902520
O4071	O407	0.332600	0.144410	0.652750
O4081	O408	0.347270	0.165340	0.599870
C4151	C415	0.232510	0.185250	0.871360
C4161	C416	0.227420	0.178750	0.903780
C4171	C417	0.252810	0.152190	0.919430
C4181	C418	0.345490	0.439580	0.486510
C4191	C419	0.325180	0.433490	0.480990
C4201	C420	0.319400	0.402500	0.499470
C4211	C421	0.349750	0.244250	0.601530
C4221	C422	0.353060	0.215860	0.601010
C4231	C423	0.343530	0.192070	0.629060
C4241	C424	0.332150	0.195990	0.658700
C4251	C425	0.329170	0.223920	0.660410
C4261	C426	0.338230	0.247920	0.631360
C4271	C427	0.312050	0.230240	0.691670
C4281	C428	0.341470	0.165400	0.626990
C4291	C429	0.353050	0.271560	0.571090
C4301	C430	0.269530	0.221400	0.561470
C4311	C431	0.288520	0.241540	0.542710
C4321	C432	0.296400	0.064220	0.674660
H1391	H139	0.253510	0.169960	0.858740
H1401	H140	0.354530	0.422810	0.506030
H1411	H141	0.361090	0.213150	0.578390
H1421	H142	0.323850	0.178060	0.680430
H1431	H143	0.334560	0.270270	0.631890
H1441	H144	0.314080	0.230930	0.536610
Cr491	Cr49	0.503660	0.359450	0.295000
Cr501	Cr50	0.664690	0.110720	0.320110
O4091	O409	0.488820	0.445550	0.395600
O4101	O410	0.510490	0.467170	0.417290
O4111	O411	0.691110	0.257290	0.306920
O4121	O412	0.803020	0.203260	0.246430
O4131	O413	0.717240	0.209270	0.301820
O4141	O414	0.520070	0.382650	0.332970
O4151	O415	0.572360	0.297860	0.347310
O4161	O416	0.492770	0.396310	0.302930
O4171	O417	0.362450	0.319140	0.460220
O4181	O418	0.513460	0.325590	0.282450
O4191	O419	0.545470	0.267990	0.359500
O4201	O420	0.655270	0.082730	0.280840
O4211	O421	0.948070	0.147000	0.249030
O4221	O422	0.681680	0.074360	0.309130
O4231	O423	0.902520	0.136580	0.278320
O4241	O424	0.652750	0.144410	0.332600
O4251	O425	0.599870	0.165340	0.347270
C4331	C433	0.871360	0.185250	0.232510
C4341	C434	0.903780	0.178750	0.227420
C4351	C435	0.919430	0.152190	0.252810
C4361	C436	0.486510	0.439580	0.345490
C4371	C437	0.480990	0.433490	0.325180
C4381	C438	0.499470	0.402500	0.319400
C4391	C439	0.601530	0.244250	0.349750
C4401	C440	0.601010	0.215860	0.353060
C4411	C441	0.629060	0.192070	0.343530
C4421	C442	0.658700	0.195990	0.332150
C4431	C443	0.660410	0.223920	0.329170
C4441	C444	0.631360	0.247920	0.338230
C4451	C445	0.691670	0.230240	0.312050
C4461	C446	0.626990	0.165400	0.341470
C4471	C447	0.571090	0.271560	0.353050
C4481	C448	0.561470	0.221400	0.269530
C4491	C449	0.542710	0.241540	0.288520
C4501	C450	0.674660	0.064220	0.296400
H1451	H145	0.858740	0.169960	0.253510
H1461	H146	0.506030	0.422810	0.354530
H1471	H147	0.578390	0.213150	0.361090
H1481	H148	0.680430	0.178060	0.323850
H1491	H149	0.631890	0.270270	0.334560
H1501	H150	0.536610	0.230930	0.314080
Cr511	Cr51	0.359450	0.503660	0.841890
Cr521	Cr52	0.110720	0.664690	0.904480
O4261	O426	0.445550	0.488820	0.670030
O4271	O427	0.467170	0.510490	0.605050
O4281	O428	0.257290	0.691110	0.744680
O4291	O429	0.203260	0.803020	0.747290
O4301	O430	0.209270	0.717240	0.771670
O4311	O431	0.382650	0.520070	0.764310
O4321	O432	0.297860	0.572360	0.782470
O4331	O433	0.396310	0.492770	0.807990
O4341	O434	0.319140	0.362450	0.858190
O4351	O435	0.325590	0.513460	0.878500
O4361	O436	0.267990	0.545470	0.827040
O4371	O437	0.082730	0.655270	0.981160
O4381	O438	0.147000	0.948070	0.655900
O4391	O439	0.074360	0.681680	0.934830
O4401	O440	0.136580	0.902520	0.682580
O4411	O441	0.144410	0.652750	0.870240
O4421	O442	0.165340	0.599870	0.887520
C4511	C451	0.185250	0.871360	0.710880
C4521	C452	0.178750	0.903780	0.690050
C4531	C453	0.152190	0.919430	0.675570
C4541	C454	0.439580	0.486510	0.728420
C4551	C455	0.433490	0.480990	0.760340
C4561	C456	0.402500	0.499470	0.778630
C4571	C457	0.244250	0.601530	0.804470
C4581	C458	0.215860	0.601010	0.830070
C4591	C459	0.192070	0.629060	0.835340
C4601	C460	0.195990	0.658700	0.813160
C4611	C461	0.223920	0.660410	0.786500
C4621	C462	0.247920	0.631360	0.782490
C4631	C463	0.230240	0.691670	0.766040
C4641	C464	0.165400	0.626990	0.866140
C4651	C465	0.271560	0.571090	0.804300
C4661	C466	0.221400	0.561470	0.947600
C4671	C467	0.241540	0.542710	0.927230
C4681	C468	0.064220	0.674660	0.964720
H1511	H151	0.169960	0.858740	0.717790
H1521	H152	0.422810	0.506030	0.716630
H1531	H153	0.213150	0.578390	0.847370
H1541	H154	0.178060	0.680430	0.817660
H1551	H155	0.270270	0.631890	0.763280
H1561	H156	0.230930	0.536610	0.918380
Cr531	Cr53	0.295000	0.841890	0.503660
Cr541	Cr54	0.320110	0.904480	0.664690
O4431	O443	0.395600	0.670030	0.488820
O4441	O444	0.417290	0.605050	0.510490
O4451	O445	0.306920	0.744680	0.691110
O4461	O446	0.246430	0.747290	0.803020
O4471	O447	0.301820	0.771670	0.717240
O4481	O448	0.332970	0.764310	0.520070
O4491	O449	0.347310	0.782470	0.572360
O4501	O450	0.302930	0.807990	0.492770
O4511	O451	0.460220	0.858190	0.362450
O4521	O452	0.282450	0.878500	0.513460
O4531	O453	0.359500	0.827040	0.545470
O4541	O454	0.280840	0.981160	0.655270
O4551	O455	0.249030	0.655900	0.948070
O4561	O456	0.309130	0.934830	0.681680
O4571	O457	0.278320	0.682580	0.902520
O4581	O458	0.332600	0.870240	0.652750
O4591	O459	0.347270	0.887520	0.599870
C4691	C469	0.232510	0.710880	0.871360
C4701	C470	0.227420	0.690050	0.903780
C4711	C471	0.252810	0.675570	0.919430
C4721	C472	0.345490	0.728420	0.486510
C4731	C473	0.325180	0.760340	0.480990
C4741	C474	0.319400	0.778630	0.499470
C4751	C475	0.349750	0.804470	0.601530
C4761	C476	0.353060	0.830070	0.601010
C4771	C477	0.343530	0.835340	0.629060
C4781	C478	0.332150	0.813160	0.658700
C4791	C479	0.329170	0.786500	0.660410
C4801	C480	0.338230	0.782490	0.631360
C4811	C481	0.312050	0.766040	0.691670
C4821	C482	0.341470	0.866140	0.626990
C4831	C483	0.353050	0.804300	0.571090
C4841	C484	0.269530	0.947600	0.561470
C4851	C485	0.288520	0.927230	0.542710
C4861	C486	0.296400	0.964720	0.674660
H1571	H157	0.253510	0.717790	0.858740
H1581	H158	0.354530	0.716630	0.506030
H1591	H159	0.361090	0.847370	0.578390
H1601	H160	0.323850	0.817660	0.680430
H1611	H161	0.334560	0.763280	0.631890
H1621	H162	0.314080	0.918380	0.536610
Cr551	Cr55	0.841890	0.295000	0.359450
Cr561	Cr56	0.904480	0.320110	0.110720
O4601	O460	0.670030	0.395600	0.445550
O4611	O461	0.605050	0.417290	0.467170
O4621	O462	0.744680	0.306920	0.257290
O4631	O463	0.747290	0.246430	0.203260
O4641	O464	0.771670	0.301820	0.209270
O4651	O465	0.764310	0.332970	0.382650
O4661	O466	0.782470	0.347310	0.297860
O4671	O467	0.807990	0.302930	0.396310
O4681	O468	0.858190	0.460220	0.319140
O4691	O469	0.878500	0.282450	0.325590
O4701	O470	0.827040	0.359500	0.267990
O4711	O471	0.981160	0.280840	0.082730
O4721	O472	0.655900	0.249030	0.147000
O4731	O473	0.934830	0.309130	0.074360
O4741	O474	0.682580	0.278320	0.136580
O4751	O475	0.870240	0.332600	0.144410
O4761	O476	0.887520	0.347270	0.165340
C4871	C487	0.710880	0.232510	0.185250
C4881	C488	0.690050	0.227420	0.178750
C4891	C489	0.675570	0.252810	0.152190
C4901	C490	0.728420	0.345490	0.439580
C4911	C491	0.760340	0.325180	0.433490
C4921	C492	0.778630	0.319400	0.402500
C4931	C493	0.804470	0.349750	0.244250
C4941	C494	0.830070	0.353060	0.215860
C4951	C495	0.835340	0.343530	0.192070
C4961	C496	0.813160	0.332150	0.195990
C4971	C497	0.786500	0.329170	0.223920
C4981	C498	0.782490	0.338230	0.247920
C4991	C499	0.766040	0.312050	0.230240
C5001	C500	0.866140	0.341470	0.165400
C5011	C501	0.804300	0.353050	0.271560
C5021	C502	0.947600	0.269530	0.221400
C5031	C503	0.927230	0.288520	0.241540
C5041	C504	0.964720	0.296400	0.064220
H1631	H163	0.717790	0.253510	0.169960
H1641	H164	0.716630	0.354530	0.422810
H1651	H165	0.847370	0.361090	0.213150
H1661	H166	0.817660	0.323850	0.178060
H1671	H167	0.763280	0.334560	0.270270
H1681	H168	0.918380	0.314080	0.230930
Cr571	Cr57	0.295000	0.503660	0.359450
Cr581	Cr58	0.320110	0.664690	0.110720
O4771	O477	0.395600	0.488820	0.445550
O4781	O478	0.417290	0.510490	0.467170
O4791	O479	0.306920	0.691110	0.257290
O4801	O480	0.246430	0.803020	0.203260
O4811	O481	0.301820	0.717240	0.209270
O4821	O482	0.332970	0.520070	0.382650
O4831	O483	0.347310	0.572360	0.297860
O4841	O484	0.302930	0.492770	0.396310
O4851	O485	0.460220	0.362450	0.319140
O4861	O486	0.282450	0.513460	0.325590
O4871	O487	0.359500	0.545470	0.267990
O4881	O488	0.280840	0.655270	0.082730
O4891	O489	0.249030	0.948070	0.147000
O4901	O490	0.309130	0.681680	0.074360
O4911	O491	0.278320	0.902520	0.136580
O4921	O492	0.332600	0.652750	0.144410
O4931	O493	0.347270	0.599870	0.165340
C5051	C505	0.232510	0.871360	0.185250
C5061	C506	0.227420	0.903780	0.178750
C5071	C507	0.252810	0.919430	0.152190
C5081	C508	0.345490	0.486510	0.439580
C5091	C509	0.325180	0.480990	0.433490
C5101	C510	0.319400	0.499470	0.402500
C5111	C511	0.349750	0.601530	0.244250
C5121	C512	0.353060	0.601010	0.215860
C5131	C513	0.343530	0.629060	0.192070
C5141	C514	0.332150	0.658700	0.195990
C5151	C515	0.329170	0.660410	0.223920
C5161	C516	0.338230	0.631360	0.247920
C5171	C517	0.312050	0.691670	0.230240
C5181	C518	0.341470	0.626990	0.165400
C5191	C519	0.353050	0.571090	0.271560
C5201	C520	0.269530	0.561470	0.221400
C5211	C521	0.288520	0.542710	0.241540
C5221	C522	0.296400	0.674660	0.064220
H1691	H169	0.253510	0.858740	0.169960
H1701	H170	0.354530	0.506030	0.422810
H1711	H171	0.361090	0.578390	0.213150
H1721	H172	0.323850	0.680430	0.178060
H1731	H173	0.334560	0.631890	0.270270
H1741	H174	0.314080	0.536610	0.230930
Cr591	Cr59	0.841890	0.359450	0.503660
Cr601	Cr60	0.904480	0.110720	0.664690
O4941	O494	0.670030	0.445550	0.488820
O4951	O495	0.605050	0.467170	0.510490
O4961	O496	0.744680	0.257290	0.691110
O4971	O497	0.747290	0.203260	0.803020
O4981	O498	0.771670	0.209270	0.717240
O4991	O499	0.764310	0.382650	0.520070
O5001	O500	0.782470	0.297860	0.572360
O5011	O501	0.807990	0.396310	0.492770
O5021	O502	0.858190	0.319140	0.362450
O5031	O503	0.878500	0.325590	0.513460
O5041	O504	0.827040	0.267990	0.545470
O5051	O505	0.981160	0.082730	0.655270
O5061	O506	0.655900	0.147000	0.948070
O5071	O507	0.934830	0.074360	0.681680
O5081	O508	0.682580	0.136580	0.902520
O5091	O509	0.870240	0.144410	0.652750
O5101	O510	0.887520	0.165340	0.599870
C5231	C523	0.710880	0.185250	0.871360
C5241	C524	0.690050	0.178750	0.903780
C5251	C525	0.675570	0.152190	0.919430
C5261	C526	0.728420	0.439580	0.486510
C5271	C527	0.760340	0.433490	0.480990
C5281	C528	0.778630	0.402500	0.499470
C5291	C529	0.804470	0.244250	0.601530
C5301	C530	0.830070	0.215860	0.601010
C5311	C531	0.835340	0.192070	0.629060
C5321	C532	0.813160	0.195990	0.658700
C5331	C533	0.786500	0.223920	0.660410
C5341	C534	0.782490	0.247920	0.631360
C5351	C535	0.766040	0.230240	0.691670
C5361	C536	0.866140	0.165400	0.626990
C5371	C537	0.804300	0.271560	0.571090
C5381	C538	0.947600	0.221400	0.561470
C5391	C539	0.927230	0.241540	0.542710
C5401	C540	0.964720	0.064220	0.674660
H1751	H175	0.717790	0.169960	0.858740
H1761	H176	0.716630	0.422810	0.506030
H1771	H177	0.847370	0.213150	0.578390
H1781	H178	0.817660	0.178060	0.680430
H1791	H179	0.763280	0.270270	0.631890
H1801	H180	0.918380	0.230930	0.536610
Cr611	Cr61	0.503660	0.295000	0.841890
Cr621	Cr62	0.664690	0.320110	0.904480
O5111	O511	0.488820	0.395600	0.670030
O5121	O512	0.510490	0.417290	0.605050
O5131	O513	0.691110	0.306920	0.744680
O5141	O514	0.803020	0.246430	0.747290
O5151	O515	0.717240	0.301820	0.771670
O5161	O516	0.520070	0.332970	0.764310
O5171	O517	0.572360	0.347310	0.782470
O5181	O518	0.492770	0.302930	0.807990
O5191	O519	0.362450	0.460220	0.858190
O5201	O520	0.513460	0.282450	0.878500
O5211	O521	0.545470	0.359500	0.827040
O5221	O522	0.655270	0.280840	0.981160
O5231	O523	0.948070	0.249030	0.655900
O5241	O524	0.681680	0.309130	0.934830
O5251	O525	0.902520	0.278320	0.682580
O5261	O526	0.652750	0.332600	0.870240
O5271	O527	0.599870	0.347270	0.887520
C5411	C541	0.871360	0.232510	0.710880
C5421	C542	0.903780	0.227420	0.690050
C5431	C543	0.919430	0.252810	0.675570
C5441	C544	0.486510	0.345490	0.728420
C5451	C545	0.480990	0.325180	0.760340
C5461	C546	0.499470	0.319400	0.778630
C5471	C547	0.601530	0.349750	0.804470
C5481	C548	0.601010	0.353060	0.830070
C5491	C549	0.629060	0.343530	0.835340
C5501	C550	0.658700	0.332150	0.813160
C5511	C551	0.660410	0.329170	0.786500
C5521	C552	0.631360	0.338230	0.782490
C5531	C553	0.691670	0.312050	0.766040
C5541	C554	0.626990	0.341470	0.866140
C5551	C555	0.571090	0.353050	0.804300
C5561	C556	0.561470	0.269530	0.947600
C5571	C557	0.542710	0.288520	0.927230
C5581	C558	0.674660	0.296400	0.964720
H1811	H181	0.858740	0.253510	0.717790
H1821	H182	0.506030	0.354530	0.716630
H1831	H183	0.578390	0.361090	0.847370
H1841	H184	0.680430	0.323850	0.817660
H1851	H185	0.631890	0.334560	0.763280
H1861	H186	0.536610	0.314080	0.918380
Cr631	Cr63	0.359450	0.841890	0.295000
Cr641	Cr64	0.110720	0.904480	0.320110
O5281	O528	0.445550	0.670030	0.395600
O5291	O529	0.467170	0.605050	0.417290
O5301	O530	0.257290	0.744680	0.306920
O5311	O531	0.203260	0.747290	0.246430
O5321	O532	0.209270	0.771670	0.301820
O5331	O533	0.382650	0.764310	0.332970
O5341	O534	0.297860	0.782470	0.347310
O5351	O535	0.396310	0.807990	0.302930
O5361	O536	0.319140	0.858190	0.460220
O5371	O537	0.325590	0.878500	0.282450
O5381	O538	0.267990	0.827040	0.359500
O5391	O539	0.082730	0.981160	0.280840
O5401	O540	0.147000	0.655900	0.249030
O5411	O541	0.074360	0.934830	0.309130
O5421	O542	0.136580	0.682580	0.278320
O5431	O543	0.144410	0.870240	0.332600
O5441	O544	0.165340	0.887520	0.347270
C5591	C559	0.185250	0.710880	0.232510
C5601	C560	0.178750	0.690050	0.227420
C5611	C561	0.152190	0.675570	0.252810
C5621	C562	0.439580	0.728420	0.345490
C5631	C563	0.433490	0.760340	0.325180
C5641	C564	0.402500	0.778630	0.319400
C5651	C565	0.244250	0.804470	0.349750
C5661	C566	0.215860	0.830070	0.353060
C5671	C567	0.192070	0.835340	0.343530
C5681	C568	0.195990	0.813160	0.332150
C5691	C569	0.223920	0.786500	0.329170
C5701	C570	0.247920	0.782490	0.338230
C5711	C571	0.230240	0.766040	0.312050
C5721	C572	0.165400	0.866140	0.341470
C5731	C573	0.271560	0.804300	0.353050
C5741	C574	0.221400	0.947600	0.269530
C5751	C575	0.241540	0.927230	0.288520
C5761	C576	0.064220	0.964720	0.296400
H1871	H187	0.169960	0.717790	0.253510
H1881	H188	0.422810	0.716630	0.354530
H1891	H189	0.213150	0.847370	0.361090
H1901	H190	0.178060	0.817660	0.323850
H1911	H191	0.270270	0.763280	0.334560
H1921	H192	0.230930	0.918380	0.314080
Cr651	Cr65	0.359450	0.295000	0.503660
Cr661	Cr66	0.110720	0.320110	0.664690
O5451	O545	0.445550	0.395600	0.488820
O5461	O546	0.467170	0.417290	0.510490
O5471	O547	0.257290	0.306920	0.691110
O5481	O548	0.203260	0.246430	0.803020
O5491	O549	0.209270	0.301820	0.717240
O5501	O550	0.382650	0.332970	0.520070
O5511	O551	0.297860	0.347310	0.572360
O5521	O552	0.396310	0.302930	0.492770
O5531	O553	0.319140	0.460220	0.362450
O5541	O554	0.325590	0.282450	0.513460
O5551	O555	0.267990	0.359500	0.545470
O5561	O556	0.082730	0.280840	0.655270
O5571	O557	0.147000	0.249030	0.948070
O5581	O558	0.074360	0.309130	0.681680
O5591	O559	0.136580	0.278320	0.902520
O5601	O560	0.144410	0.332600	0.652750
O5611	O561	0.165340	0.347270	0.599870
C5771	C577	0.185250	0.232510	0.871360
C5781	C578	0.178750	0.227420	0.903780
C5791	C579	0.152190	0.252810	0.919430
C5801	C580	0.439580	0.345490	0.486510
C5811	C581	0.433490	0.325180	0.480990
C5821	C582	0.402500	0.319400	0.499470
C5831	C583	0.244250	0.349750	0.601530
C5841	C584	0.215860	0.353060	0.601010
C5851	C585	0.192070	0.343530	0.629060
C5861	C586	0.195990	0.332150	0.658700
C5871	C587	0.223920	0.329170	0.660410
C5881	C588	0.247920	0.338230	0.631360
C5891	C589	0.230240	0.312050	0.691670
C5901	C590	0.165400	0.341470	0.626990
C5911	C591	0.271560	0.353050	0.571090
C5921	C592	0.221400	0.269530	0.561470
C5931	C593	0.241540	0.288520	0.542710
C5941	C594	0.064220	0.296400	0.674660
H1931	H193	0.169960	0.253510	0.858740
H1941	H194	0.422810	0.354530	0.506030
H1951	H195	0.213150	0.361090	0.578390
H1961	H196	0.178060	0.323850	0.680430
H1971	H197	0.270270	0.334560	0.631890
H1981	H198	0.230930	0.314080	0.536610
Cr671	Cr67	0.503660	0.841890	0.359450
Cr681	Cr68	0.664690	0.904480	0.110720
O5621	O562	0.488820	0.670030	0.445550
O5631	O563	0.510490	0.605050	0.467170
O5641	O564	0.691110	0.744680	0.257290
O5651	O565	0.803020	0.747290	0.203260
O5661	O566	0.717240	0.771670	0.209270
O5671	O567	0.520070	0.764310	0.382650
O5681	O568	0.572360	0.782470	0.297860
O5691	O569	0.492770	0.807990	0.396310
O5701	O570	0.362450	0.858190	0.319140
O5711	O571	0.513460	0.878500	0.325590
O5721	O572	0.545470	0.827040	0.267990
O5731	O573	0.655270	0.981160	0.082730
O5741	O574	0.948070	0.655900	0.147000
O5751	O575	0.681680	0.934830	0.074360
O5761	O576	0.902520	0.682580	0.136580
O5771	O577	0.652750	0.870240	0.144410
O5781	O578	0.599870	0.887520	0.165340
C5951	C595	0.871360	0.710880	0.185250
C5961	C596	0.903780	0.690050	0.178750
C5971	C597	0.919430	0.675570	0.152190
C5981	C598	0.486510	0.728420	0.439580
C5991	C599	0.480990	0.760340	0.433490
C6001	C600	0.499470	0.778630	0.402500
C6011	C601	0.601530	0.804470	0.244250
C6021	C602	0.601010	0.830070	0.215860
C6031	C603	0.629060	0.835340	0.192070
C6041	C604	0.658700	0.813160	0.195990
C6051	C605	0.660410	0.786500	0.223920
C6061	C606	0.631360	0.782490	0.247920
C6071	C607	0.691670	0.766040	0.230240
C6081	C608	0.626990	0.866140	0.165400
C6091	C609	0.571090	0.804300	0.271560
C6101	C610	0.561470	0.947600	0.221400
C6111	C611	0.542710	0.927230	0.241540
C6121	C612	0.674660	0.964720	0.064220
H1991	H199	0.858740	0.717790	0.169960
H2001	H200	0.506030	0.716630	0.422810
H2011	H201	0.578390	0.847370	0.213150
H2021	H202	0.680430	0.817660	0.178060
H2031	H203	0.631890	0.763280	0.270270
H2041	H204	0.536610	0.918380	0.230930
Cr691	Cr69	0.841890	0.503660	0.295000
Cr701	Cr70	0.904480	0.664690	0.320110
O5791	O579	0.670030	0.488820	0.395600
O5801	O580	0.605050	0.510490	0.417290
O5811	O581	0.744680	0.691110	0.306920
O5821	O582	0.747290	0.803020	0.246430
O5831	O583	0.771670	0.717240	0.301820
O5841	O584	0.764310	0.520070	0.332970
O5851	O585	0.782470	0.572360	0.347310
O5861	O586	0.807990	0.492770	0.302930
O5871	O587	0.858190	0.362450	0.460220
O5881	O588	0.878500	0.513460	0.282450
O5891	O589	0.827040	0.545470	0.359500
O5901	O590	0.981160	0.655270	0.280840
O5911	O591	0.655900	0.948070	0.249030
O5921	O592	0.934830	0.681680	0.309130
O5931	O593	0.682580	0.902520	0.278320
O5941	O594	0.870240	0.652750	0.332600
O5951	O595	0.887520	0.599870	0.347270
C6131	C613	0.710880	0.871360	0.232510
C6141	C614	0.690050	0.903780	0.227420
C6151	C615	0.675570	0.919430	0.252810
C6161	C616	0.728420	0.486510	0.345490
C6171	C617	0.760340	0.480990	0.325180
C6181	C618	0.778630	0.499470	0.319400
C6191	C619	0.804470	0.601530	0.349750
C6201	C620	0.830070	0.601010	0.353060
C6211	C621	0.835340	0.629060	0.343530
C6221	C622	0.813160	0.658700	0.332150
C6231	C623	0.786500	0.660410	0.329170
C6241	C624	0.782490	0.631360	0.338230
C6251	C625	0.766040	0.691670	0.312050
C6261	C626	0.866140	0.626990	0.341470
C6271	C627	0.804300	0.571090	0.353050
C6281	C628	0.947600	0.561470	0.269530
C6291	C629	0.927230	0.542710	0.288520
C6301	C630	0.964720	0.674660	0.296400
H2051	H205	0.717790	0.858740	0.253510
H2061	H206	0.716630	0.506030	0.354530
H2071	H207	0.847370	0.578390	0.361090
H2081	H208	0.817660	0.680430	0.323850
H2091	H209	0.763280	0.631890	0.334560
H2101	H210	0.918380	0.536610	0.314080
Cr711	Cr71	0.295000	0.359450	0.841890
Cr721	Cr72	0.320110	0.110720	0.904480
O5961	O596	0.395600	0.445550	0.670030
O5971	O597	0.417290	0.467170	0.605050
O5981	O598	0.306920	0.257290	0.744680
O5991	O599	0.246430	0.203260	0.747290
O6001	O600	0.301820	0.209270	0.771670
O6011	O601	0.332970	0.382650	0.764310
O6021	O602	0.347310	0.297860	0.782470
O6031	O603	0.302930	0.396310	0.807990
O6041	O604	0.460220	0.319140	0.858190
O6051	O605	0.282450	0.325590	0.878500
O6061	O606	0.359500	0.267990	0.827040
O6071	O607	0.280840	0.082730	0.981160
O6081	O608	0.249030	0.147000	0.655900
O6091	O609	0.309130	0.074360	0.934830
O6101	O610	0.278320	0.136580	0.682580
O6111	O611	0.332600	0.144410	0.870240
O6121	O612	0.347270	0.165340	0.887520
C6311	C631	0.232510	0.185250	0.710880
C6321	C632	0.227420	0.178750	0.690050
C6331	C633	0.252810	0.152190	0.675570
C6341	C634	0.345490	0.439580	0.728420
C6351	C635	0.325180	0.433490	0.760340
C6361	C636	0.319400	0.402500	0.778630
C6371	C637	0.349750	0.244250	0.804470
C6381	C638	0.353060	0.215860	0.830070
C6391	C639	0.343530	0.192070	0.835340
C6401	C640	0.332150	0.195990	0.813160
C6411	C641	0.329170	0.223920	0.786500
C6421	C642	0.338230	0.247920	0.782490
C6431	C643	0.312050	0.230240	0.766040
C6441	C644	0.341470	0.165400	0.866140
C6451	C645	0.353050	0.271560	0.804300
C6461	C646	0.269530	0.221400	0.947600
C6471	C647	0.288520	0.241540	0.927230
C6481	C648	0.296400	0.064220	0.964720
H2111	H211	0.253510	0.169960	0.717790
H2121	H212	0.354530	0.422810	0.716630
H2131	H213	0.361090	0.213150	0.847370
H2141	H214	0.323850	0.178060	0.817660
H2151	H215	0.334560	0.270270	0.763280
H2161	H216	0.314080	0.230930	0.918380
Cr731	Cr73	0.746340	0.890550	0.408110
Cr741	Cr74	0.585310	0.139280	0.345520
O6131	O613	0.761180	0.804450	0.579970
O6141	O614	0.739510	0.782830	0.644950
O6151	O615	0.558890	0.992710	0.505320
O6161	O616	0.446980	0.046740	0.502710
O6171	O617	0.532760	0.040730	0.478330
O6181	O618	0.729930	0.867350	0.485690
O6191	O619	0.677640	0.952140	0.467530
O6201	O620	0.757230	0.853690	0.442010
O6211	O621	0.887550	0.930860	0.391810
O6221	O622	0.736540	0.924410	0.371500
O6231	O623	0.704530	0.982010	0.422960
O6241	O624	0.594730	0.167270	0.268840
O6251	O625	0.301930	0.103000	0.594100
O6261	O626	0.568320	0.175640	0.315170
O6271	O627	0.347480	0.113420	0.567420
O6281	O628	0.597250	0.105590	0.379760
O6291	O629	0.650130	0.084660	0.362480
C6491	C649	0.378640	0.064750	0.539120
C6501	C650	0.346220	0.071250	0.559950
C6511	C651	0.330570	0.097810	0.574430
C6521	C652	0.763490	0.810420	0.521580
C6531	C653	0.769010	0.816510	0.489660
C6541	C654	0.750530	0.847500	0.471370
C6551	C655	0.648470	0.005750	0.445530
C6561	C656	0.648990	0.034140	0.419930
C6571	C657	0.620940	0.057930	0.414660
C6581	C658	0.591300	0.054010	0.436840
C6591	C659	0.589590	0.026080	0.463500
C6601	C660	0.618640	0.002080	0.467510
C6611	C661	0.558330	0.019760	0.483960
C6621	C662	0.623010	0.084600	0.383860
C6631	C663	0.678910	0.978440	0.445700
C6641	C664	0.688530	0.028600	0.302400
C6651	C665	0.707290	0.008460	0.322770
C6661	C666	0.575340	0.185780	0.285280
H2171	H217	0.391260	0.080040	0.532210
H2181	H218	0.743970	0.827190	0.533370
H2191	H219	0.671610	0.036850	0.402630
H2201	H220	0.569570	0.071940	0.432340
H2211	H221	0.618110	0.979730	0.486720
H2221	H222	0.713390	0.019070	0.331620
Cr751	Cr75	0.890550	0.746340	0.955000
Cr761	Cr76	0.139280	0.585310	0.929890
O6301	O630	0.804450	0.761180	0.854400
O6311	O631	0.782830	0.739510	0.832710
O6321	O632	0.992710	0.558890	0.943080
O6331	O633	0.046740	0.446980	0.003570
O6341	O634	0.040730	0.532760	0.948180
O6351	O635	0.867350	0.729930	0.917030
O6361	O636	0.952140	0.677640	0.902690
O6371	O637	0.853690	0.757230	0.947070
O6381	O638	0.930860	0.887550	0.789780
O6391	O639	0.924410	0.736540	0.967550
O6401	O640	0.982010	0.704530	0.890500
O6411	O641	0.167270	0.594730	0.969160
O6421	O642	0.103000	0.301930	0.000970
O6431	O643	0.175640	0.568320	0.940870
O6441	O644	0.113420	0.347480	0.971680
O6451	O645	0.105590	0.597250	0.917400
O6461	O646	0.084660	0.650130	0.902730
C6671	C667	0.064750	0.378640	0.017490
C6681	C668	0.071250	0.346220	0.022580
C6691	C669	0.097810	0.330570	0.997190
C6701	C670	0.810420	0.763490	0.904510
C6711	C671	0.816510	0.769010	0.924820
C6721	C672	0.847500	0.750530	0.930600
C6731	C673	0.005750	0.648470	0.900250
C6741	C674	0.034140	0.648990	0.896940
C6751	C675	0.057930	0.620940	0.906470
C6761	C676	0.054010	0.591300	0.917850
C6771	C677	0.026080	0.589590	0.920830
C6781	C678	0.002080	0.618640	0.911770
C6791	C679	0.019760	0.558330	0.937950
C6801	C680	0.084600	0.623010	0.908530
C6811	C681	0.978440	0.678910	0.896950
C6821	C682	0.028600	0.688530	0.980470
C6831	C683	0.008460	0.707290	0.961480
C6841	C684	0.185780	0.575340	0.953600
H2231	H223	0.080040	0.391260	0.996490
H2241	H224	0.827190	0.743970	0.895470
H2251	H225	0.036850	0.671610	0.888910
H2261	H226	0.071940	0.569570	0.926150
H2271	H227	0.979730	0.618110	0.915440
H2281	H228	0.019070	0.713390	0.935920
Cr771	Cr77	0.955000	0.408110	0.890550
Cr781	Cr78	0.929890	0.345520	0.139280
O6471	O647	0.854400	0.579970	0.804450
O6481	O648	0.832710	0.644950	0.782830
O6491	O649	0.943080	0.505320	0.992710
O6501	O650	0.003570	0.502710	0.046740
O6511	O651	0.948180	0.478330	0.040730
O6521	O652	0.917030	0.485690	0.867350
O6531	O653	0.902690	0.467530	0.952140
O6541	O654	0.947070	0.442010	0.853690
O6551	O655	0.789780	0.391810	0.930860
O6561	O656	0.967550	0.371500	0.924410
O6571	O657	0.890500	0.422960	0.982010
O6581	O658	0.969160	0.268840	0.167270
O6591	O659	0.000970	0.594100	0.103000
O6601	O660	0.940870	0.315170	0.175640
O6611	O661	0.971680	0.567420	0.113420
O6621	O662	0.917400	0.379760	0.105590
O6631	O663	0.902730	0.362480	0.084660
C6851	C685	0.017490	0.539120	0.064750
C6861	C686	0.022580	0.559950	0.071250
C6871	C687	0.997190	0.574430	0.097810
C6881	C688	0.904510	0.521580	0.810420
C6891	C689	0.924820	0.489660	0.816510
C6901	C690	0.930600	0.471370	0.847500
C6911	C691	0.900250	0.445530	0.005750
C6921	C692	0.896940	0.419930	0.034140
C6931	C693	0.906470	0.414660	0.057930
C6941	C694	0.917850	0.436840	0.054010
C6951	C695	0.920830	0.463500	0.026080
C6961	C696	0.911770	0.467510	0.002080
C6971	C697	0.937950	0.483960	0.019760
C6981	C698	0.908530	0.383860	0.084600
C6991	C699	0.896950	0.445700	0.978440
C7001	C700	0.980470	0.302400	0.028600
C7011	C701	0.961480	0.322770	0.008460
C7021	C702	0.953600	0.285280	0.185780
H2291	H229	0.996490	0.532210	0.080040
H2301	H230	0.895470	0.533370	0.827190
H2311	H231	0.888910	0.402630	0.036850
H2321	H232	0.926150	0.432340	0.071940
H2331	H233	0.915440	0.486720	0.979730
H2341	H234	0.935920	0.331620	0.019070
Cr791	Cr79	0.408110	0.955000	0.746340
Cr801	Cr80	0.345520	0.929890	0.585310
O6641	O664	0.579970	0.854400	0.761180
O6651	O665	0.644950	0.832710	0.739510
O6661	O666	0.505320	0.943080	0.558890
O6671	O667	0.502710	0.003570	0.446980
O6681	O668	0.478330	0.948180	0.532760
O6691	O669	0.485690	0.917030	0.729930
O6701	O670	0.467530	0.902690	0.677640
O6711	O671	0.442010	0.947070	0.757230
O6721	O672	0.391810	0.789780	0.887550
O6731	O673	0.371500	0.967550	0.736540
O6741	O674	0.422960	0.890500	0.704530
O6751	O675	0.268840	0.969160	0.594730
O6761	O676	0.594100	0.000970	0.301930
O6771	O677	0.315170	0.940870	0.568320
O6781	O678	0.567420	0.971680	0.347480
O6791	O679	0.379760	0.917400	0.597250
O6801	O680	0.362480	0.902730	0.650130
C7031	C703	0.539120	0.017490	0.378640
C7041	C704	0.559950	0.022580	0.346220
C7051	C705	0.574430	0.997190	0.330570
C7061	C706	0.521580	0.904510	0.763490
C7071	C707	0.489660	0.924820	0.769010
C7081	C708	0.471370	0.930600	0.750530
C7091	C709	0.445530	0.900250	0.648470
C7101	C710	0.419930	0.896940	0.648990
C7111	C711	0.414660	0.906470	0.620940
C7121	C712	0.436840	0.917850	0.591300
C7131	C713	0.463500	0.920830	0.589590
C7141	C714	0.467510	0.911770	0.618640
C7151	C715	0.483960	0.937950	0.558330
C7161	C716	0.383860	0.908530	0.623010
C7171	C717	0.445700	0.896950	0.678910
C7181	C718	0.302400	0.980470	0.688530
C7191	C719	0.322770	0.961480	0.707290
C7201	C720	0.285280	0.953600	0.575340
H2351	H235	0.532210	0.996490	0.391260
H2361	H236	0.533370	0.895470	0.743970
H2371	H237	0.402630	0.888910	0.671610
H2381	H238	0.432340	0.926150	0.569570
H2391	H239	0.486720	0.915440	0.618110
H2401	H240	0.331620	0.935920	0.713390
Cr811	Cr81	0.955000	0.746340	0.408110
Cr821	Cr82	0.929890	0.585310	0.345520
O6811	O681	0.854400	0.761180	0.579970
O6821	O682	0.832710	0.739510	0.644950
O6831	O683	0.943080	0.558890	0.505320
O6841	O684	0.003570	0.446980	0.502710
O6851	O685	0.948180	0.532760	0.478330
O6861	O686	0.917030	0.729930	0.485690
O6871	O687	0.902690	0.677640	0.467530
O6881	O688	0.947070	0.757230	0.442010
O6891	O689	0.789780	0.887550	0.391810
O6901	O690	0.967550	0.736540	0.371500
O6911	O691	0.890500	0.704530	0.422960
O6921	O692	0.969160	0.594730	0.268840
O6931	O693	0.000970	0.301930	0.594100
O6941	O694	0.940870	0.568320	0.315170
O6951	O695	0.971680	0.347480	0.567420
O6961	O696	0.917400	0.597250	0.379760
O6971	O697	0.902730	0.650130	0.362480
C7211	C721	0.017490	0.378640	0.539120
C7221	C722	0.022580	0.346220	0.559950
C7231	C723	0.997190	0.330570	0.574430
C7241	C724	0.904510	0.763490	0.521580
C7251	C725	0.924820	0.769010	0.489660
C7261	C726	0.930600	0.750530	0.471370
C7271	C727	0.900250	0.648470	0.445530
C7281	C728	0.896940	0.648990	0.419930
C7291	C729	0.906470	0.620940	0.414660
C7301	C730	0.917850	0.591300	0.436840
C7311	C731	0.920830	0.589590	0.463500
C7321	C732	0.911770	0.618640	0.467510
C7331	C733	0.937950	0.558330	0.483960
C7341	C734	0.908530	0.623010	0.383860
C7351	C735	0.896950	0.678910	0.445700
C7361	C736	0.980470	0.688530	0.302400
C7371	C737	0.961480	0.707290	0.322770
C7381	C738	0.953600	0.575340	0.285280
H2411	H241	0.996490	0.391260	0.532210
H2421	H242	0.895470	0.743970	0.533370
H2431	H243	0.888910	0.671610	0.402630
H2441	H244	0.926150	0.569570	0.432340
H2451	H245	0.915440	0.618110	0.486720
H2461	H246	0.935920	0.713390	0.331620
Cr831	Cr83	0.408110	0.890550	0.955000
Cr841	Cr84	0.345520	0.139280	0.929890
O6981	O698	0.579970	0.804450	0.854400
O6991	O699	0.644950	0.782830	0.832710
O7001	O700	0.505320	0.992710	0.943080
O7011	O701	0.502710	0.046740	0.003570
O7021	O702	0.478330	0.040730	0.948180
O7031	O703	0.485690	0.867350	0.917030
O7041	O704	0.467530	0.952140	0.902690
O7051	O705	0.442010	0.853690	0.947070
O7061	O706	0.391810	0.930860	0.789780
O7071	O707	0.371500	0.924410	0.967550
O7081	O708	0.422960	0.982010	0.890500
O7091	O709	0.268840	0.167270	0.969160
O7101	O710	0.594100	0.103000	0.000970
O7111	O711	0.315170	0.175640	0.940870
O7121	O712	0.567420	0.113420	0.971680
O7131	O713	0.379760	0.105590	0.917400
O7141	O714	0.362480	0.084660	0.902730
C7391	C739	0.539120	0.064750	0.017490
C7401	C740	0.559950	0.071250	0.022580
C7411	C741	0.574430	0.097810	0.997190
C7421	C742	0.521580	0.810420	0.904510
C7431	C743	0.489660	0.816510	0.924820
C7441	C744	0.471370	0.847500	0.930600
C7451	C745	0.445530	0.005750	0.900250
C7461	C746	0.419930	0.034140	0.896940
C7471	C747	0.414660	0.057930	0.906470
C7481	C748	0.436840	0.054010	0.917850
C7491	C749	0.463500	0.026080	0.920830
C7501	C750	0.467510	0.002080	0.911770
C7511	C751	0.483960	0.019760	0.937950
C7521	C752	0.383860	0.084600	0.908530
C7531	C753	0.445700	0.978440	0.896950
C7541	C754	0.302400	0.028600	0.980470
C7551	C755	0.322770	0.008460	0.961480
C7561	C756	0.285280	0.185780	0.953600
H2471	H247	0.532210	0.080040	0.996490
H2481	H248	0.533370	0.827190	0.895470
H2491	H249	0.402630	0.036850	0.888910
H2501	H250	0.432340	0.071940	0.926150
H2511	H251	0.486720	0.979730	0.915440
H2521	H252	0.331620	0.019070	0.935920
Cr851	Cr85	0.746340	0.955000	0.890550
Cr861	Cr86	0.585310	0.929890	0.139280
O7151	O715	0.761180	0.854400	0.804450
O7161	O716	0.739510	0.832710	0.782830
O7171	O717	0.558890	0.943080	0.992710
O7181	O718	0.446980	0.003570	0.046740
O7191	O719	0.532760	0.948180	0.040730
O7201	O720	0.729930	0.917030	0.867350
O7211	O721	0.677640	0.902690	0.952140
O7221	O722	0.757230	0.947070	0.853690
O7231	O723	0.887550	0.789780	0.930860
O7241	O724	0.736540	0.967550	0.924410
O7251	O725	0.704530	0.890500	0.982010
O7261	O726	0.594730	0.969160	0.167270
O7271	O727	0.301930	0.000970	0.103000
O7281	O728	0.568320	0.940870	0.175640
O7291	O729	0.347480	0.971680	0.113420
O7301	O730	0.597250	0.917400	0.105590
O7311	O731	0.650130	0.902730	0.084660
C7571	C757	0.378640	0.017490	0.064750
C7581	C758	0.346220	0.022580	0.071250
C7591	C759	0.330570	0.997190	0.097810
C7601	C760	0.763490	0.904510	0.810420
C7611	C761	0.769010	0.924820	0.816510
C7621	C762	0.750530	0.930600	0.847500
C7631	C763	0.648470	0.900250	0.005750
C7641	C764	0.648990	0.896940	0.034140
C7651	C765	0.620940	0.906470	0.057930
C7661	C766	0.591300	0.917850	0.054010
C7671	C767	0.589590	0.920830	0.026080
C7681	C768	0.618640	0.911770	0.002080
C7691	C769	0.558330	0.937950	0.019760
C7701	C770	0.623010	0.908530	0.084600
C7711	C771	0.678910	0.896950	0.978440
C7721	C772	0.688530	0.980470	0.028600
C7731	C773	0.707290	0.961480	0.008460
C7741	C774	0.575340	0.953600	0.185780
H2531	H253	0.391260	0.996490	0.080040
H2541	H254	0.743970	0.895470	0.827190
H2551	H255	0.671610	0.888910	0.036850
H2561	H256	0.569570	0.926150	0.071940
H2571	H257	0.618110	0.915440	0.979730
H2581	H258	0.713390	0.935920	0.019070
Cr871	Cr87	0.890550	0.408110	0.746340
Cr881	Cr88	0.139280	0.345520	0.585310
O7321	O732	0.804450	0.579970	0.761180
O7331	O733	0.782830	0.644950	0.739510
O7341	O734	0.992710	0.505320	0.558890
O7351	O735	0.046740	0.502710	0.446980
O7361	O736	0.040730	0.478330	0.532760
O7371	O737	0.867350	0.485690	0.729930
O7381	O738	0.952140	0.467530	0.677640
O7391	O739	0.853690	0.442010	0.757230
O7401	O740	0.930860	0.391810	0.887550
O7411	O741	0.924410	0.371500	0.736540
O7421	O742	0.982010	0.422960	0.704530
O7431	O743	0.167270	0.268840	0.594730
O7441	O744	0.103000	0.594100	0.301930
O7451	O745	0.175640	0.315170	0.568320
O7461	O746	0.113420	0.567420	0.347480
O7471	O747	0.105590	0.379760	0.597250
O7481	O748	0.084660	0.362480	0.650130
C7751	C775	0.064750	0.539120	0.378640
C7761	C776	0.071250	0.559950	0.346220
C7771	C777	0.097810	0.574430	0.330570
C7781	C778	0.810420	0.521580	0.763490
C7791	C779	0.816510	0.489660	0.769010
C7801	C780	0.847500	0.471370	0.750530
C7811	C781	0.005750	0.445530	0.648470
C7821	C782	0.034140	0.419930	0.648990
C7831	C783	0.057930	0.414660	0.620940
C7841	C784	0.054010	0.436840	0.591300
C7851	C785	0.026080	0.463500	0.589590
C7861	C786	0.002080	0.467510	0.618640
C7871	C787	0.019760	0.483960	0.558330
C7881	C788	0.084600	0.383860	0.623010
C7891	C789	0.978440	0.445700	0.678910
C7901	C790	0.028600	0.302400	0.688530
C7911	C791	0.008460	0.322770	0.707290
C7921	C792	0.185780	0.285280	0.575340
H2591	H259	0.080040	0.532210	0.391260
H2601	H260	0.827190	0.533370	0.743970
H2611	H261	0.036850	0.402630	0.671610
H2621	H262	0.071940	0.432340	0.569570
H2631	H263	0.979730	0.486720	0.618110
H2641	H264	0.019070	0.331620	0.713390
Cr891	Cr89	0.890550	0.955000	0.408110
Cr901	Cr90	0.139280	0.929890	0.345520
O7491	O749	0.804450	0.854400	0.579970
O7501	O750	0.782830	0.832710	0.644950
O7511	O751	0.992710	0.943080	0.505320
O7521	O752	0.046740	0.003570	0.502710
O7531	O753	0.040730	0.948180	0.478330
O7541	O754	0.867350	0.917030	0.485690
O7551	O755	0.952140	0.902690	0.467530
O7561	O756	0.853690	0.947070	0.442010
O7571	O757	0.930860	0.789780	0.391810
O7581	O758	0.924410	0.967550	0.371500
O7591	O759	0.982010	0.890500	0.422960
O7601	O760	0.167270	0.969160	0.268840
O7611	O761	0.103000	0.000970	0.594100
O7621	O762	0.175640	0.940870	0.315170
O7631	O763	0.113420	0.971680	0.567420
O7641	O764	0.105590	0.917400	0.379760
O7651	O765	0.084660	0.902730	0.362480
C7931	C793	0.064750	0.017490	0.539120
C7941	C794	0.071250	0.022580	0.559950
C7951	C795	0.097810	0.997190	0.574430
C7961	C796	0.810420	0.904510	0.521580
C7971	C797	0.816510	0.924820	0.489660
C7981	C798	0.847500	0.930600	0.471370
C7991	C799	0.005750	0.900250	0.445530
C8001	C800	0.034140	0.896940	0.419930
C8011	C801	0.057930	0.906470	0.414660
C8021	C802	0.054010	0.917850	0.436840
C8031	C803	0.026080	0.920830	0.463500
C8041	C804	0.002080	0.911770	0.467510
C8051	C805	0.019760	0.937950	0.483960
C8061	C806	0.084600	0.908530	0.383860
C8071	C807	0.978440	0.896950	0.445700
C8081	C808	0.028600	0.980470	0.302400
C8091	C809	0.008460	0.961480	0.322770
C8101	C810	0.185780	0.953600	0.285280
H2651	H265	0.080040	0.996490	0.532210
H2661	H266	0.827190	0.895470	0.533370
H2671	H267	0.036850	0.888910	0.402630
H2681	H268	0.071940	0.926150	0.432340
H2691	H269	0.979730	0.915440	0.486720
H2701	H270	0.019070	0.935920	0.331620
Cr911	Cr91	0.746340	0.408110	0.955000
Cr921	Cr92	0.585310	0.345520	0.929890
O7661	O766	0.761180	0.579970	0.854400
O7671	O767	0.739510	0.644950	0.832710
O7681	O768	0.558890	0.505320	0.943080
O7691	O769	0.446980	0.502710	0.003570
O7701	O770	0.532760	0.478330	0.948180
O7711	O771	0.729930	0.485690	0.917030
O7721	O772	0.677640	0.467530	0.902690
O7731	O773	0.757230	0.442010	0.947070
O7741	O774	0.887550	0.391810	0.789780
O7751	O775	0.736540	0.371500	0.967550
O7761	O776	0.704530	0.422960	0.890500
O7771	O777	0.594730	0.268840	0.969160
O7781	O778	0.301930	0.594100	0.000970
O7791	O779	0.568320	0.315170	0.940870
O7801	O780	0.347480	0.567420	0.971680
O7811	O781	0.597250	0.379760	0.917400
O7821	O782	0.650130	0.362480	0.902730
C8111	C811	0.378640	0.539120	0.017490
C8121	C812	0.346220	0.559950	0.022580
C8131	C813	0.330570	0.574430	0.997190
C8141	C814	0.763490	0.521580	0.904510
C8151	C815	0.769010	0.489660	0.924820
C8161	C816	0.750530	0.471370	0.930600
C8171	C817	0.648470	0.445530	0.900250
C8181	C818	0.648990	0.419930	0.896940
C8191	C819	0.620940	0.414660	0.906470
C8201	C820	0.591300	0.436840	0.917850
C8211	C821	0.589590	0.463500	0.920830
C8221	C822	0.618640	0.467510	0.911770
C8231	C823	0.558330	0.483960	0.937950
C8241	C824	0.623010	0.383860	0.908530
C8251	C825	0.678910	0.445700	0.896950
C8261	C826	0.688530	0.302400	0.980470
C8271	C827	0.707290	0.322770	0.961480
C8281	C828	0.575340	0.285280	0.953600
H2711	H271	0.391260	0.532210	0.996490
H2721	H272	0.743970	0.533370	0.895470
H2731	H273	0.671610	0.402630	0.888910
H2741	H274	0.569570	0.432340	0.926150
H2751	H275	0.618110	0.486720	0.915440
H2761	H276	0.713390	0.331620	0.935920
Cr931	Cr93	0.408110	0.746340	0.890550
Cr941	Cr94	0.345520	0.585310	0.139280
O7831	O783	0.579970	0.761180	0.804450
O7841	O784	0.644950	0.739510	0.782830
O7851	O785	0.505320	0.558890	0.992710
O7861	O786	0.502710	0.446980	0.046740
O7871	O787	0.478330	0.532760	0.040730
O7881	O788	0.485690	0.729930	0.867350
O7891	O789	0.467530	0.677640	0.952140
O7901	O790	0.442010	0.757230	0.853690
O7911	O791	0.391810	0.887550	0.930860
O7921	O792	0.371500	0.736540	0.924410
O7931	O793	0.422960	0.704530	0.982010
O7941	O794	0.268840	0.594730	0.167270
O7951	O795	0.594100	0.301930	0.103000
O7961	O796	0.315170	0.568320	0.175640
O7971	O797	0.567420	0.347480	0.113420
O7981	O798	0.379760	0.597250	0.105590
O7991	O799	0.362480	0.650130	0.084660
C8291	C829	0.539120	0.378640	0.064750
C8301	C830	0.559950	0.346220	0.071250
C8311	C831	0.574430	0.330570	0.097810
C8321	C832	0.521580	0.763490	0.810420
C8331	C833	0.489660	0.769010	0.816510
C8341	C834	0.471370	0.750530	0.847500
C8351	C835	0.445530	0.648470	0.005750
C8361	C836	0.419930	0.648990	0.034140
C8371	C837	0.414660	0.620940	0.057930
C8381	C838	0.436840	0.591300	0.054010
C8391	C839	0.463500	0.589590	0.026080
C8401	C840	0.467510	0.618640	0.002080
C8411	C841	0.483960	0.558330	0.019760
C8421	C842	0.383860	0.623010	0.084600
C8431	C843	0.445700	0.678910	0.978440
C8441	C844	0.302400	0.688530	0.028600
C8451	C845	0.322770	0.707290	0.008460
C8461	C846	0.285280	0.575340	0.185780
H2771	H277	0.532210	0.391260	0.080040
H2781	H278	0.533370	0.743970	0.827190
H2791	H279	0.402630	0.671610	0.036850
H2801	H280	0.432340	0.569570	0.071940
H2811	H281	0.486720	0.618110	0.979730
H2821	H282	0.331620	0.713390	0.019070
Cr951	Cr95	0.955000	0.890550	0.746340
Cr961	Cr96	0.929890	0.139280	0.585310
O8001	O800	0.854400	0.804450	0.761180
O8011	O801	0.832710	0.782830	0.739510
O8021	O802	0.943080	0.992710	0.558890
O8031	O803	0.003570	0.046740	0.446980
O8041	O804	0.948180	0.040730	0.532760
O8051	O805	0.917030	0.867350	0.729930
O8061	O806	0.902690	0.952140	0.677640
O8071	O807	0.947070	0.853690	0.757230
O8081	O808	0.789780	0.930860	0.887550
O8091	O809	0.967550	0.924410	0.736540
O8101	O810	0.890500	0.982010	0.704530
O8111	O811	0.969160	0.167270	0.594730
O8121	O812	0.000970	0.103000	0.301930
O8131	O813	0.940870	0.175640	0.568320
O8141	O814	0.971680	0.113420	0.347480
O8151	O815	0.917400	0.105590	0.597250
O8161	O816	0.902730	0.084660	0.650130
C8471	C847	0.017490	0.064750	0.378640
C8481	C848	0.022580	0.071250	0.346220
C8491	C849	0.997190	0.097810	0.330570
C8501	C850	0.904510	0.810420	0.763490
C8511	C851	0.924820	0.816510	0.769010
C8521	C852	0.930600	0.847500	0.750530
C8531	C853	0.900250	0.005750	0.648470
C8541	C854	0.896940	0.034140	0.648990
C8551	C855	0.906470	0.057930	0.620940
C8561	C856	0.917850	0.054010	0.591300
C8571	C857	0.920830	0.026080	0.589590
C8581	C858	0.911770	0.002080	0.618640
C8591	C859	0.937950	0.019760	0.558330
C8601	C860	0.908530	0.084600	0.623010
C8611	C861	0.896950	0.978440	0.678910
C8621	C862	0.980470	0.028600	0.688530
C8631	C863	0.961480	0.008460	0.707290
C8641	C864	0.953600	0.185780	0.575340
H2831	H283	0.996490	0.080040	0.391260
H2841	H284	0.895470	0.827190	0.743970
H2851	H285	0.888910	0.036850	0.671610
H2861	H286	0.926150	0.071940	0.569570
H2871	H287	0.915440	0.979730	0.618110
H2881	H288	0.935920	0.019070	0.713390
Cr971	Cr97	0.752670	0.817440	0.817440
Cr981	Cr98	0.705390	0.910250	0.910250
O8171	O817	0.430100	0.918600	0.918600
C8651	C865	0.679050	0.014020	0.014020
C8661	C866	0.716390	0.974890	0.974890
C8671	C867	0.731240	0.954280	0.954280
Cr991	Cr99	0.817440	0.752670	0.612450
Cr1001	Cr100	0.910250	0.705390	0.474110
O8181	O818	0.918600	0.430100	0.732700
C8681	C868	0.014020	0.679050	0.292910
C8691	C869	0.974890	0.716390	0.333830
C8701	C870	0.954280	0.731240	0.360200
Cr1011	Cr101	0.817440	0.612450	0.752670
Cr1021	Cr102	0.910250	0.474110	0.705390
O8191	O819	0.918600	0.732700	0.430100
C8711	C871	0.014020	0.292910	0.679050
C8721	C872	0.974890	0.333830	0.716390
C8731	C873	0.954280	0.360200	0.731240
Cr1031	Cr103	0.612450	0.817440	0.817440
Cr1041	Cr104	0.474110	0.910250	0.910250
O8201	O820	0.732700	0.918600	0.918600
C8741	C874	0.292910	0.014020	0.014020
C8751	C875	0.333830	0.974890	0.974890
C8761	C876	0.360200	0.954280	0.954280
Cr1051	Cr105	0.817440	0.752670	0.817440
Cr1061	Cr106	0.910250	0.705390	0.910250
O8211	O821	0.918600	0.430100	0.918600
C8771	C877	0.014020	0.679050	0.014020
C8781	C878	0.974890	0.716390	0.974890
C8791	C879	0.954280	0.731240	0.954280
Cr1071	Cr107	0.612450	0.817440	0.752670
Cr1081	Cr108	0.474110	0.910250	0.705390
O8221	O822	0.732700	0.918600	0.430100
C8801	C880	0.292910	0.014020	0.679050
C8811	C881	0.333830	0.974890	0.716390
C8821	C882	0.360200	0.954280	0.731240
Cr1091	Cr109	0.752670	0.817440	0.612450
Cr1101	Cr110	0.705390	0.910250	0.474110
O8231	O823	0.430100	0.918600	0.732700
C8831	C883	0.679050	0.014020	0.292910
C8841	C884	0.716390	0.974890	0.333830
C8851	C885	0.731240	0.954280	0.360200
Cr1111	Cr111	0.817440	0.612450	0.817440
Cr1121	Cr112	0.910250	0.474110	0.910250
O8241	O824	0.918600	0.732700	0.918600
C8861	C886	0.014020	0.292910	0.014020
C8871	C887	0.974890	0.333830	0.974890
C8881	C888	0.954280	0.360200	0.954280
Cr1131	Cr113	0.817440	0.817440	0.752670
Cr1141	Cr114	0.910250	0.910250	0.705390
O8251	O825	0.918600	0.918600	0.430100
C8891	C889	0.014020	0.014020	0.679050
C8901	C890	0.974890	0.974890	0.716390
C8911	C891	0.954280	0.954280	0.731240
Cr1151	Cr115	0.752670	0.612450	0.817440
Cr1161	Cr116	0.705390	0.474110	0.910250
O8261	O826	0.430100	0.732700	0.918600
C8921	C892	0.679050	0.292910	0.014020
C8931	C893	0.716390	0.333830	0.974890
C8941	C894	0.731240	0.360200	0.954280
Cr1171	Cr117	0.612450	0.752670	0.817440
Cr1181	Cr118	0.474110	0.705390	0.910250
O8271	O827	0.732700	0.430100	0.918600
C8951	C895	0.292910	0.679050	0.014020
C8961	C896	0.333830	0.716390	0.974890
C8971	C897	0.360200	0.731240	0.954280
Cr1191	Cr119	0.817440	0.817440	0.612450
Cr1201	Cr120	0.910250	0.910250	0.474110
O8281	O828	0.918600	0.918600	0.732700
C8981	C898	0.014020	0.014020	0.292910
C8991	C899	0.974890	0.974890	0.333830
C9001	C900	0.954280	0.954280	0.360200
Cr1211	Cr121	0.497330	0.432560	0.637550
Cr1221	Cr122	0.544610	0.339750	0.775890
O8291	O829	0.819900	0.331400	0.517300
C9011	C901	0.570950	0.235980	0.957090
C9021	C902	0.533610	0.275110	0.916170
C9031	C903	0.518760	0.295720	0.889800
Cr1231	Cr123	0.432560	0.497330	0.432560
Cr1241	Cr124	0.339750	0.544610	0.339750
O8301	O830	0.331400	0.819900	0.331400
C9041	C904	0.235980	0.570950	0.235980
C9051	C905	0.275110	0.533610	0.275110
C9061	C906	0.295720	0.518760	0.295720
Cr1251	Cr125	0.432560	0.637550	0.432560
Cr1261	Cr126	0.339750	0.775890	0.339750
O8311	O831	0.331400	0.517300	0.331400
C9071	C907	0.235980	0.957090	0.235980
C9081	C908	0.275110	0.916170	0.275110
C9091	C909	0.295720	0.889800	0.295720
Cr1271	Cr127	0.637550	0.432560	0.497330
Cr1281	Cr128	0.775890	0.339750	0.544610
O8321	O832	0.517300	0.331400	0.819900
C9101	C910	0.957090	0.235980	0.570950
C9111	C911	0.916170	0.275110	0.533610
C9121	C912	0.889800	0.295720	0.518760
Cr1291	Cr129	0.432560	0.497330	0.637550
Cr1301	Cr130	0.339750	0.544610	0.775890
O8331	O833	0.331400	0.819900	0.517300
C9131	C913	0.235980	0.570950	0.957090
C9141	C914	0.275110	0.533610	0.916170
C9151	C915	0.295720	0.518760	0.889800
Cr1311	Cr131	0.637550	0.432560	0.432560
Cr1321	Cr132	0.775890	0.339750	0.339750
O8341	O834	0.517300	0.331400	0.331400
C9161	C916	0.957090	0.235980	0.235980
C9171	C917	0.916170	0.275110	0.275110
C9181	C918	0.889800	0.295720	0.295720
Cr1331	Cr133	0.497330	0.432560	0.432560
Cr1341	Cr134	0.544610	0.339750	0.339750
O8351	O835	0.819900	0.331400	0.331400
C9191	C919	0.570950	0.235980	0.235980
C9201	C920	0.533610	0.275110	0.275110
C9211	C921	0.518760	0.295720	0.295720
Cr1351	Cr135	0.432560	0.637550	0.497330
Cr1361	Cr136	0.339750	0.775890	0.544610
O8361	O836	0.331400	0.517300	0.819900
C9221	C922	0.235980	0.957090	0.570950
C9231	C923	0.275110	0.916170	0.533610
C9241	C924	0.295720	0.889800	0.518760
Cr1371	Cr137	0.432560	0.432560	0.637550
Cr1381	Cr138	0.339750	0.339750	0.775890
O8371	O837	0.331400	0.331400	0.517300
C9251	C925	0.235980	0.235980	0.957090
C9261	C926	0.275110	0.275110	0.916170
C9271	C927	0.295720	0.295720	0.889800
Cr1391	Cr139	0.497330	0.637550	0.432560
Cr1401	Cr140	0.544610	0.775890	0.339750
O8381	O838	0.819900	0.517300	0.331400
C9281	C928	0.570950	0.957090	0.235980
C9291	C929	0.533610	0.916170	0.275110
C9301	C930	0.518760	0.889800	0.295720
Cr1411	Cr141	0.637550	0.497330	0.432560
Cr1421	Cr142	0.775890	0.544610	0.339750
O8391	O839	0.517300	0.819900	0.331400
C9311	C931	0.957090	0.570950	0.235980
C9321	C932	0.916170	0.533610	0.275110
C9331	C933	0.889800	0.518760	0.295720
Cr1431	Cr143	0.432560	0.432560	0.497330
Cr1441	Cr144	0.339750	0.339750	0.544610
O8401	O840	0.331400	0.331400	0.819900
C9341	C934	0.235980	0.235980	0.570950
C9351	C935	0.275110	0.275110	0.533610
C9361	C936	0.295720	0.295720	0.518760
C9371	C937	0.395660	0.037970	0.037970
C9381	C938	0.330870	0.049510	0.049510
C9391	C939	0.432010	0.029140	0.029140
C9401	C940	0.037970	0.395660	0.528400
C9411	C941	0.049510	0.330870	0.570110
C9421	C942	0.029140	0.432010	0.509710
C9431	C943	0.037970	0.528400	0.395660
C9441	C944	0.049510	0.570110	0.330870
C9451	C945	0.029140	0.509710	0.432010
C9461	C946	0.528400	0.037970	0.037970
C9471	C947	0.570110	0.049510	0.049510
C9481	C948	0.509710	0.029140	0.029140
C9491	C949	0.037970	0.395660	0.037970
C9501	C950	0.049510	0.330870	0.049510
C9511	C951	0.029140	0.432010	0.029140
C9521	C952	0.528400	0.037970	0.395660
C9531	C953	0.570110	0.049510	0.330870
C9541	C954	0.509710	0.029140	0.432010
C9551	C955	0.395660	0.037970	0.528400
C9561	C956	0.330870	0.049510	0.570110
C9571	C957	0.432010	0.029140	0.509710
C9581	C958	0.037970	0.528400	0.037970
C9591	C959	0.049510	0.570110	0.049510
C9601	C960	0.029140	0.509710	0.029140
C9611	C961	0.037970	0.037970	0.395660
C9621	C962	0.049510	0.049510	0.330870
C9631	C963	0.029140	0.029140	0.432010
C9641	C964	0.395660	0.528400	0.037970
C9651	C965	0.330870	0.570110	0.049510
C9661	C966	0.432010	0.509710	0.029140
C9671	C967	0.528400	0.395660	0.037970
C9681	C968	0.570110	0.330870	0.049510
C9691	C969	0.509710	0.432010	0.029140
C9701	C970	0.037970	0.037970	0.528400
C9711	C971	0.049510	0.049510	0.570110
C9721	C972	0.029140	0.029140	0.509710
C9731	C973	0.854340	0.212030	0.721600
C9741	C974	0.919130	0.200490	0.679890
C9751	C975	0.817990	0.220860	0.740290
C9761	C976	0.212030	0.854340	0.212030
C9771	C977	0.200490	0.919130	0.200490
C9781	C978	0.220860	0.817990	0.220860
C9791	C979	0.212030	0.721600	0.212030
C9801	C980	0.200490	0.679890	0.200490
C9811	C981	0.220860	0.740290	0.220860
C9821	C982	0.721600	0.212030	0.854340
C9831	C983	0.679890	0.200490	0.919130
C9841	C984	0.740290	0.220860	0.817990
C9851	C985	0.212030	0.854340	0.721600
C9861	C986	0.200490	0.919130	0.679890
C9871	C987	0.220860	0.817990	0.740290
C9881	C988	0.721600	0.212030	0.212030
C9891	C989	0.679890	0.200490	0.200490
C9901	C990	0.740290	0.220860	0.220860
C9911	C991	0.854340	0.212030	0.212030
C9921	C992	0.919130	0.200490	0.200490
C9931	C993	0.817990	0.220860	0.220860
C9941	C994	0.212030	0.721600	0.854340
C9951	C995	0.200490	0.679890	0.919130
C9961	C996	0.220860	0.740290	0.817990
C9971	C997	0.212030	0.212030	0.721600
C9981	C998	0.200490	0.200490	0.679890
C9991	C999	0.220860	0.220860	0.740290
C10001	C1000	0.854340	0.721600	0.212030
C10011	C1001	0.919130	0.679890	0.200490
C10021	C1002	0.817990	0.740290	0.220860
C10031	C1003	0.721600	0.854340	0.212030
C10041	C1004	0.679890	0.919130	0.200490
C10051	C1005	0.740290	0.817990	0.220860
C10061	C1006	0.212030	0.212030	0.854340
C10071	C1007	0.200490	0.200490	0.919130
C10081	C1008	0.220860	0.220860	0.817990
Cr1451	Cr145	0.530610	0.969390	0.969390
O8411	O841	0.504080	0.995920	0.995920
Cr1461	Cr146	0.969390	0.530610	0.530610
O8421	O842	0.995920	0.504080	0.504080
Cr1471	Cr147	0.969390	0.530610	0.969390
O8431	O843	0.995920	0.504080	0.995920
Cr1481	Cr148	0.530610	0.969390	0.530610
O8441	O844	0.504080	0.995920	0.504080
Cr1491	Cr149	0.969390	0.969390	0.530610
O8451	O845	0.995920	0.995920	0.504080
Cr1501	Cr150	0.530610	0.530610	0.969390
O8461	O846	0.504080	0.504080	0.995920
Cr1511	Cr151	0.719390	0.280610	0.719390
O8471	O847	0.745920	0.254080	0.745920
Cr1521	Cr152	0.280610	0.719390	0.280610
O8481	O848	0.254080	0.745920	0.254080
Cr1531	Cr153	0.280610	0.719390	0.719390
O8491	O849	0.254080	0.745920	0.745920
Cr1541	Cr154	0.719390	0.280610	0.280610
O8501	O850	0.745920	0.254080	0.254080
Cr1551	Cr155	0.280610	0.280610	0.719390
O8511	O851	0.254080	0.254080	0.745920
Cr1561	Cr156	0.719390	0.719390	0.280610
O8521	O852	0.745920	0.745920	0.254080
Cr1571	Cr157	0.490800	0.041430	0.976960
C10091	C1009	0.703520	0.750420	0.842550
Cr1581	Cr158	0.041430	0.490800	0.490800
C10101	C1010	0.750420	0.703520	0.703520
Cr1591	Cr159	0.976960	0.490800	0.490800
C10111	C1011	0.842550	0.703520	0.703520
Cr1601	Cr160	0.490800	0.976960	0.041430
C10121	C1012	0.703520	0.842550	0.750420
Cr1611	Cr161	0.976960	0.490800	0.041430
C10131	C1013	0.842550	0.703520	0.750420
Cr1621	Cr162	0.490800	0.041430	0.490800
C10141	C1014	0.703520	0.750420	0.703520
Cr1631	Cr163	0.490800	0.976960	0.490800
C10151	C1015	0.703520	0.842550	0.703520
Cr1641	Cr164	0.041430	0.490800	0.976960
C10161	C1016	0.750420	0.703520	0.842550
Cr1651	Cr165	0.041430	0.976960	0.490800
C10171	C1017	0.750420	0.842550	0.703520
Cr1661	Cr166	0.490800	0.490800	0.041430
C10181	C1018	0.703520	0.703520	0.750420
Cr1671	Cr167	0.490800	0.490800	0.976960
C10191	C1019	0.703520	0.703520	0.842550
Cr1681	Cr168	0.976960	0.041430	0.490800
C10201	C1020	0.842550	0.750420	0.703520
Cr1691	Cr169	0.759200	0.208570	0.759200
C10211	C1021	0.546480	0.499580	0.546480
Cr1701	Cr170	0.208570	0.759200	0.273040
C10221	C1022	0.499580	0.546480	0.407450
Cr1711	Cr171	0.273040	0.759200	0.208570
C10231	C1023	0.407450	0.546480	0.499580
Cr1721	Cr172	0.759200	0.273040	0.759200
C10241	C1024	0.546480	0.407450	0.546480
Cr1731	Cr173	0.273040	0.759200	0.759200
C10251	C1025	0.407450	0.546480	0.546480
Cr1741	Cr174	0.759200	0.208570	0.273040
C10261	C1026	0.546480	0.499580	0.407450
Cr1751	Cr175	0.759200	0.273040	0.208570
C10271	C1027	0.546480	0.407450	0.499580
Cr1761	Cr176	0.208570	0.759200	0.759200
C10281	C1028	0.499580	0.546480	0.546480
Cr1771	Cr177	0.208570	0.273040	0.759200
C10291	C1029	0.499580	0.407450	0.546480
Cr1781	Cr178	0.759200	0.759200	0.273040
C10301	C1030	0.546480	0.546480	0.407450
Cr1791	Cr179	0.759200	0.759200	0.208570
C10311	C1031	0.546480	0.546480	0.499580
Cr1801	Cr180	0.273040	0.208570	0.759200
C10321	C1032	0.407450	0.499580	0.546480
Cr1811	Cr181	0.276930	0.973070	0.125000
O8531	O853	0.314210	0.935790	0.125000
Cr1821	Cr182	0.973070	0.276930	0.625000
O8541	O854	0.935790	0.314210	0.625000
Cr1831	Cr183	0.125000	0.625000	0.276930
O8551	O855	0.125000	0.625000	0.314210
Cr1841	Cr184	0.625000	0.125000	0.973070
O8561	O856	0.625000	0.125000	0.935790
Cr1851	Cr185	0.125000	0.276930	0.973070
O8571	O857	0.125000	0.314210	0.935790
Cr1861	Cr186	0.625000	0.973070	0.276930
O8581	O858	0.625000	0.935790	0.314210
Cr1871	Cr187	0.276930	0.125000	0.625000
O8591	O859	0.314210	0.125000	0.625000
Cr1881	Cr188	0.973070	0.625000	0.125000
O8601	O860	0.935790	0.625000	0.125000
Cr1891	Cr189	0.973070	0.125000	0.276930
O8611	O861	0.935790	0.125000	0.314210
Cr1901	Cr190	0.276930	0.625000	0.973070
O8621	O862	0.314210	0.625000	0.935790
Cr1911	Cr191	0.625000	0.276930	0.125000
O8631	O863	0.625000	0.314210	0.125000
Cr1921	Cr192	0.125000	0.973070	0.625000
O8641	O864	0.125000	0.935790	0.625000
Cr1931	Cr193	0.973070	0.276930	0.125000
O8651	O865	0.935790	0.314210	0.125000
Cr1941	Cr194	0.276930	0.973070	0.625000
O8661	O866	0.314210	0.935790	0.625000
Cr1951	Cr195	0.125000	0.625000	0.973070
O8671	O867	0.125000	0.625000	0.935790
Cr1961	Cr196	0.625000	0.125000	0.276930
O8681	O868	0.625000	0.125000	0.314210
Cr1971	Cr197	0.125000	0.973070	0.276930
O8691	O869	0.125000	0.935790	0.314210
Cr1981	Cr198	0.625000	0.276930	0.973070
O8701	O870	0.625000	0.314210	0.935790
Cr1991	Cr199	0.973070	0.125000	0.625000
O8711	O871	0.935790	0.125000	0.625000
Cr2001	Cr200	0.276930	0.625000	0.125000
O8721	O872	0.314210	0.625000	0.125000
Cr2011	Cr201	0.276930	0.125000	0.973070
O8731	O873	0.314210	0.125000	0.935790
Cr2021	Cr202	0.973070	0.625000	0.276930
O8741	O874	0.935790	0.625000	0.314210
Cr2031	Cr203	0.625000	0.973070	0.125000
O8751	O875	0.625000	0.935790	0.125000
Cr2041	Cr204	0.125000	0.276930	0.625000
O8761	O876	0.125000	0.314210	0.625000
O8771	O877	0.795850	0.795850	0.795850
O8781	O878	0.795850	0.795850	0.612450
O8791	O879	0.795850	0.612450	0.795850
O8801	O880	0.612450	0.795850	0.795850
O8811	O881	0.454150	0.454150	0.637550
O8821	O882	0.454150	0.454150	0.454150
O8831	O883	0.454150	0.637550	0.454150
O8841	O884	0.637550	0.454150	0.454150
C10331	C1033	0.888230	0.888230	0.839920
C10341	C1034	0.903400	0.903400	0.804430
C10351	C1035	0.784560	0.784560	0.893360
C10361	C1036	0.795760	0.795760	0.934520
C10371	C1037	0.782900	0.782900	0.866110
C10381	C1038	0.888230	0.888230	0.383620
C10391	C1039	0.903400	0.903400	0.388770
C10401	C1040	0.784560	0.784560	0.537520
C10411	C1041	0.795760	0.795760	0.473960
C10421	C1042	0.782900	0.782900	0.568090
C10431	C1043	0.839920	0.383620	0.888230
C10441	C1044	0.804430	0.388770	0.903400
C10451	C1045	0.893360	0.537520	0.784560
C10461	C1046	0.934520	0.473960	0.795760
C10471	C1047	0.866110	0.568090	0.782900
C10481	C1048	0.383620	0.839920	0.888230
C10491	C1049	0.388770	0.804430	0.903400
C10501	C1050	0.537520	0.893360	0.784560
C10511	C1051	0.473960	0.934520	0.795760
C10521	C1052	0.568090	0.866110	0.782900
C10531	C1053	0.839920	0.888230	0.888230
C10541	C1054	0.804430	0.903400	0.903400
C10551	C1055	0.893360	0.784560	0.784560
C10561	C1056	0.934520	0.795760	0.795760
C10571	C1057	0.866110	0.782900	0.782900
C10581	C1058	0.383620	0.888230	0.888230
C10591	C1059	0.388770	0.903400	0.903400
C10601	C1060	0.537520	0.784560	0.784560
C10611	C1061	0.473960	0.795760	0.795760
C10621	C1062	0.568090	0.782900	0.782900
C10631	C1063	0.888230	0.839920	0.383620
C10641	C1064	0.903400	0.804430	0.388770
C10651	C1065	0.784560	0.893360	0.537520
C10661	C1066	0.795760	0.934520	0.473960
C10671	C1067	0.782900	0.866110	0.568090
C10681	C1068	0.888230	0.383620	0.839920
C10691	C1069	0.903400	0.388770	0.804430
C10701	C1070	0.784560	0.537520	0.893360
C10711	C1071	0.795760	0.473960	0.934520
C10721	C1072	0.782900	0.568090	0.866110
C10731	C1073	0.888230	0.839920	0.888230
C10741	C1074	0.903400	0.804430	0.903400
C10751	C1075	0.784560	0.893360	0.784560
C10761	C1076	0.795760	0.934520	0.795760
C10771	C1077	0.782900	0.866110	0.782900
C10781	C1078	0.888230	0.383620	0.888230
C10791	C1079	0.903400	0.388770	0.903400
C10801	C1080	0.784560	0.537520	0.784560
C10811	C1081	0.795760	0.473960	0.795760
C10821	C1082	0.782900	0.568090	0.782900
C10831	C1083	0.383620	0.888230	0.839920
C10841	C1084	0.388770	0.903400	0.804430
C10851	C1085	0.537520	0.784560	0.893360
C10861	C1086	0.473960	0.795760	0.934520
C10871	C1087	0.568090	0.782900	0.866110
C10881	C1088	0.839920	0.888230	0.383620
C10891	C1089	0.804430	0.903400	0.388770
C10901	C1090	0.893360	0.784560	0.537520
C10911	C1091	0.934520	0.795760	0.473960
C10921	C1092	0.866110	0.782900	0.568090
C10931	C1093	0.361770	0.361770	0.866380
C10941	C1094	0.346600	0.346600	0.861230
C10951	C1095	0.465440	0.465440	0.712480
C10961	C1096	0.454240	0.454240	0.776040
C10971	C1097	0.467100	0.467100	0.681910
C10981	C1098	0.361770	0.361770	0.410080
C10991	C1099	0.346600	0.346600	0.445570
C11001	C1100	0.465440	0.465440	0.356640
C11011	C1101	0.454240	0.454240	0.315480
C11021	C1102	0.467100	0.467100	0.383890
C11031	C1103	0.410080	0.866380	0.361770
C11041	C1104	0.445570	0.861230	0.346600
C11051	C1105	0.356640	0.712480	0.465440
C11061	C1106	0.315480	0.776040	0.454240
C11071	C1107	0.383890	0.681910	0.467100
C11081	C1108	0.866380	0.410080	0.361770
C11091	C1109	0.861230	0.445570	0.346600
C11101	C1110	0.712480	0.356640	0.465440
C11111	C1111	0.776040	0.315480	0.454240
C11121	C1112	0.681910	0.383890	0.467100
C11131	C1113	0.410080	0.361770	0.866380
C11141	C1114	0.445570	0.346600	0.861230
C11151	C1115	0.356640	0.465440	0.712480
C11161	C1116	0.315480	0.454240	0.776040
C11171	C1117	0.383890	0.467100	0.681910
C11181	C1118	0.866380	0.361770	0.410080
C11191	C1119	0.861230	0.346600	0.445570
C11201	C1120	0.712480	0.465440	0.356640
C11211	C1121	0.776040	0.454240	0.315480
C11221	C1122	0.681910	0.467100	0.383890
C11231	C1123	0.361770	0.410080	0.361770
C11241	C1124	0.346600	0.445570	0.346600
C11251	C1125	0.465440	0.356640	0.465440
C11261	C1126	0.454240	0.315480	0.454240
C11271	C1127	0.467100	0.383890	0.467100
C11281	C1128	0.361770	0.866380	0.361770
C11291	C1129	0.346600	0.861230	0.346600
C11301	C1130	0.465440	0.712480	0.465440
C11311	C1131	0.454240	0.776040	0.454240
C11321	C1132	0.467100	0.681910	0.467100
C11331	C1133	0.361770	0.410080	0.866380
C11341	C1134	0.346600	0.445570	0.861230
C11351	C1135	0.465440	0.356640	0.712480
C11361	C1136	0.454240	0.315480	0.776040
C11371	C1137	0.467100	0.383890	0.681910
C11381	C1138	0.361770	0.866380	0.410080
C11391	C1139	0.346600	0.861230	0.445570
C11401	C1140	0.465440	0.712480	0.356640
C11411	C1141	0.454240	0.776040	0.315480
C11421	C1142	0.467100	0.681910	0.383890
C11431	C1143	0.866380	0.361770	0.361770
C11441	C1144	0.861230	0.346600	0.346600
C11451	C1145	0.712480	0.465440	0.465440
C11461	C1146	0.776040	0.454240	0.454240
C11471	C1147	0.681910	0.467100	0.467100
C11481	C1148	0.410080	0.361770	0.361770
C11491	C1149	0.445570	0.346600	0.346600
C11501	C1150	0.356640	0.465440	0.465440
C11511	C1151	0.315480	0.454240	0.454240
C11521	C1152	0.383890	0.467100	0.467100
C11531	C1153	0.734910	0.734910	0.842810
C11541	C1154	0.753400	0.753400	0.836390
C11551	C1155	0.734910	0.734910	0.687370
C11561	C1156	0.753400	0.753400	0.656810
C11571	C1157	0.842810	0.687370	0.734910
C11581	C1158	0.836390	0.656810	0.753400
C11591	C1159	0.687370	0.842810	0.734910
C11601	C1160	0.656810	0.836390	0.753400
C11611	C1161	0.842810	0.734910	0.734910
C11621	C1162	0.836390	0.753400	0.753400
C11631	C1163	0.687370	0.734910	0.734910
C11641	C1164	0.656810	0.753400	0.753400
C11651	C1165	0.734910	0.842810	0.687370
C11661	C1166	0.753400	0.836390	0.656810
C11671	C1167	0.734910	0.687370	0.842810
C11681	C1168	0.753400	0.656810	0.836390
C11691	C1169	0.734910	0.842810	0.734910
C11701	C1170	0.753400	0.836390	0.753400
C11711	C1171	0.734910	0.687370	0.734910
C11721	C1172	0.753400	0.656810	0.753400
C11731	C1173	0.687370	0.734910	0.842810
C11741	C1174	0.656810	0.753400	0.836390
C11751	C1175	0.842810	0.734910	0.687370
C11761	C1176	0.836390	0.753400	0.656810
C11771	C1177	0.515090	0.515090	0.562630
C11781	C1178	0.496600	0.496600	0.593190
C11791	C1179	0.515090	0.515090	0.407190
C11801	C1180	0.496600	0.496600	0.413610
C11811	C1181	0.407190	0.562630	0.515090
C11821	C1182	0.413610	0.593190	0.496600
C11831	C1183	0.562630	0.407190	0.515090
C11841	C1184	0.593190	0.413610	0.496600
C11851	C1185	0.407190	0.515090	0.562630
C11861	C1186	0.413610	0.496600	0.593190
C11871	C1187	0.562630	0.515090	0.407190
C11881	C1188	0.593190	0.496600	0.413610
C11891	C1189	0.515090	0.407190	0.515090
C11901	C1190	0.496600	0.413610	0.496600
C11911	C1191	0.515090	0.562630	0.515090
C11921	C1192	0.496600	0.593190	0.496600
C11931	C1193	0.515090	0.407190	0.562630
C11941	C1194	0.496600	0.413610	0.593190
C11951	C1195	0.515090	0.562630	0.407190
C11961	C1196	0.496600	0.593190	0.413610
C11971	C1197	0.562630	0.515090	0.515090
C11981	C1198	0.593190	0.496600	0.496600
C11991	C1199	0.407190	0.515090	0.515090
C12001	C1200	0.413610	0.496600	0.496600
C12011	C1201	0.856320	0.903460	0.856320
C12021	C1202	0.903460	0.856320	0.383900
C12031	C1203	0.856320	0.383900	0.856320
C12041	C1204	0.383900	0.856320	0.903460
C12051	C1205	0.856320	0.856320	0.903460
C12061	C1206	0.383900	0.903460	0.856320
C12071	C1207	0.856320	0.856320	0.383900
C12081	C1208	0.903460	0.383900	0.856320
C12091	C1209	0.903460	0.856320	0.856320
C12101	C1210	0.856320	0.383900	0.903460
C12111	C1211	0.383900	0.856320	0.856320
C12121	C1212	0.856320	0.903460	0.383900
C12131	C1213	0.393680	0.346540	0.866100
C12141	C1214	0.346540	0.393680	0.393680
C12151	C1215	0.393680	0.866100	0.346540
C12161	C1216	0.866100	0.393680	0.393680
C12171	C1217	0.393680	0.393680	0.866100
C12181	C1218	0.866100	0.346540	0.393680
C12191	C1219	0.393680	0.393680	0.346540
C12201	C1220	0.346540	0.866100	0.393680
C12211	C1221	0.346540	0.393680	0.866100
C12221	C1222	0.393680	0.866100	0.393680
C12231	C1223	0.866100	0.393680	0.346540
C12241	C1224	0.393680	0.346540	0.393680
