data_UDEPIE_clean_PM
_symmetry_space_group_name_H-M	'P1'
_cell_length_a	16.416600
_cell_length_b	16.416600
_cell_length_c	16.416600
_cell_angle_alpha	96.064300
_cell_angle_beta	116.563000
_cell_angle_gamma	116.563000
_symmetry_Int_Tables_number 1

loop_
_symmetry_equiv_pos_as_xyz
'x,y,z'

loop_
_atom_site_label
_atom_site_type_symbol
_atom_site_fract_x
_atom_site_fract_y
_atom_site_fract_z
H11	H1	0.504600	0.461500	0.197700
H21	H2	0.442800	0.474200	0.302000
H31	H3	0.532000	0.626900	0.421300
H41	H4	0.681200	0.759100	0.442300
Pb11	Pb1	0.825080	0.846580	0.331060
C11	C1	0.684300	0.516400	0.005900
C21	C2	0.697500	0.575100	0.091000
C31	C3	0.768500	0.675200	0.145900
C41	C4	0.670100	0.608500	0.201000
C51	C5	0.847100	0.759600	0.139300
C61	C6	0.629200	0.605400	0.263600
C71	C7	0.539500	0.521300	0.247400
C81	C8	0.502300	0.529200	0.309500
C91	C9	0.556000	0.619800	0.381000
C101	C10	0.644800	0.699100	0.392300
N11	N1	0.635300	0.533000	0.125100
N21	N2	0.750700	0.694700	0.216600
N31	N3	0.682000	0.695400	0.336400
O11	O1	0.619700	0.427900	0.966400
O21	O2	0.745300	0.564500	0.975000
O31	O3	0.864400	0.745200	0.074200
O41	O4	0.891100	0.843100	0.200800
H51	H5	0.995400	0.193100	0.956900
H61	H6	0.057200	0.359200	0.031400
H71	H7	0.968000	0.389300	0.094900
H81	H8	0.818800	0.261100	0.077900
Pb21	Pb2	0.674920	0.005980	0.021500
C111	C11	0.815700	0.821600	0.832100
C121	C12	0.802500	0.893500	0.877600
C131	C13	0.731500	0.877400	0.906700
C141	C14	0.829900	0.030900	0.938400
C151	C15	0.652900	0.792200	0.912500
C161	C16	0.870800	0.134400	0.976200
C171	C17	0.960500	0.207900	0.981800
C181	C18	0.997700	0.307200	0.026900
C191	C19	0.944000	0.325000	0.063800
C201	C20	0.855200	0.247500	0.054300
N41	N4	0.864700	0.989800	0.897700
N51	N5	0.749300	0.965900	0.944000
N61	N6	0.818000	0.154400	0.013400
O51	O5	0.880300	0.846700	0.808200
O61	O6	0.754700	0.729700	0.819200
O71	O7	0.635600	0.709800	0.880800
O81	O8	0.608900	0.809700	0.952000
H91	H9	0.736200	0.197700	0.193100
H101	H10	0.827800	0.302000	0.359200
H111	H11	0.794400	0.421300	0.389300
H121	H12	0.683200	0.442300	0.261100
Pb31	Pb3	0.484480	0.331060	0.005980
C211	C21	0.489500	0.005900	0.821600
C221	C22	0.515900	0.091000	0.893500
C231	C23	0.470700	0.145900	0.877400
C241	C24	0.592500	0.201000	0.030900
C251	C25	0.379700	0.139300	0.792200
C261	C26	0.658200	0.263600	0.134400
C271	C27	0.726100	0.247400	0.207900
C281	C28	0.780300	0.309500	0.307200
C291	C29	0.761200	0.381000	0.325000
C301	C30	0.693200	0.392300	0.247500
N71	N7	0.592100	0.125100	0.989800
N81	N8	0.521900	0.216600	0.965900
N91	N9	0.641000	0.336400	0.154400
O91	O9	0.538500	0.966400	0.846700
O101	O10	0.410500	0.975000	0.729700
O111	O11	0.329000	0.074200	0.709800
O121	O12	0.357700	0.200800	0.809700
H131	H13	0.763800	0.956900	0.461500
H141	H14	0.672200	0.031400	0.474200
H151	H15	0.705600	0.094900	0.626900
H161	H16	0.816800	0.077900	0.759100
Pb41	Pb4	0.015520	0.021500	0.846580
C311	C31	0.010500	0.832100	0.516400
C321	C32	0.984100	0.877600	0.575100
C331	C33	0.029300	0.906700	0.675200
C341	C34	0.907500	0.938400	0.608500
C351	C35	0.120300	0.912500	0.759600
C361	C36	0.841800	0.976200	0.605400
C371	C37	0.773900	0.981800	0.521300
C381	C38	0.719700	0.026900	0.529200
C391	C39	0.738800	0.063800	0.619800
C401	C40	0.806800	0.054300	0.699100
N101	N10	0.907900	0.897700	0.533000
N111	N11	0.978100	0.944000	0.694700
N121	N12	0.859000	0.013400	0.695400
O131	O13	0.961500	0.808200	0.427900
O141	O14	0.089500	0.819200	0.564500
O151	O15	0.171000	0.880800	0.745200
O161	O16	0.142300	0.952000	0.843100
H171	H17	0.495400	0.538500	0.802300
H181	H18	0.557200	0.525800	0.698000
H191	H19	0.468000	0.373100	0.578700
H201	H20	0.318800	0.240900	0.557700
Pb51	Pb5	0.174920	0.153420	0.668940
C411	C41	0.315700	0.483600	0.994100
C421	C42	0.302500	0.424900	0.909000
C431	C43	0.231500	0.324800	0.854100
C441	C44	0.329900	0.391500	0.799000
C451	C45	0.152900	0.240400	0.860700
C461	C46	0.370800	0.394600	0.736400
C471	C47	0.460500	0.478700	0.752600
C481	C48	0.497700	0.470800	0.690500
C491	C49	0.444000	0.380200	0.619000
C501	C50	0.355200	0.300900	0.607700
N131	N13	0.364700	0.467000	0.874900
N141	N14	0.249300	0.305300	0.783400
N151	N15	0.318000	0.304600	0.663600
O171	O17	0.380300	0.572100	0.033600
O181	O18	0.254700	0.435500	0.025000
O191	O19	0.135600	0.254800	0.925800
O201	O20	0.108900	0.156900	0.799200
H211	H21	0.004600	0.806900	0.043100
H221	H22	0.942800	0.640800	0.968600
H231	H23	0.032000	0.610700	0.905100
H241	H24	0.181200	0.738900	0.922100
Pb61	Pb6	0.325080	0.994020	0.978500
C511	C51	0.184300	0.178400	0.167900
C521	C52	0.197500	0.106500	0.122400
C531	C53	0.268500	0.122600	0.093300
C541	C54	0.170100	0.969100	0.061600
C551	C55	0.347100	0.207800	0.087500
C561	C56	0.129200	0.865600	0.023800
C571	C57	0.039500	0.792100	0.018200
C581	C58	0.002300	0.692800	0.973100
C591	C59	0.056000	0.675000	0.936200
C601	C60	0.144800	0.752500	0.945700
N161	N16	0.135300	0.010200	0.102300
N171	N17	0.250700	0.034100	0.056000
N181	N18	0.182000	0.845600	0.986600
O211	O21	0.119700	0.153300	0.191800
O221	O22	0.245300	0.270300	0.180800
O231	O23	0.364400	0.290200	0.119200
O241	O24	0.391100	0.190300	0.048000
H251	H25	0.263800	0.802300	0.806900
H261	H26	0.172200	0.698000	0.640800
H271	H27	0.205600	0.578700	0.610700
H281	H28	0.316800	0.557700	0.738900
Pb71	Pb7	0.515520	0.668940	0.994020
C611	C61	0.510500	0.994100	0.178400
C621	C62	0.484100	0.909000	0.106500
C631	C63	0.529300	0.854100	0.122600
C641	C64	0.407500	0.799000	0.969100
C651	C65	0.620300	0.860700	0.207800
C661	C66	0.341800	0.736400	0.865600
C671	C67	0.273900	0.752600	0.792100
C681	C68	0.219700	0.690500	0.692800
C691	C69	0.238800	0.619000	0.675000
C701	C70	0.306800	0.607700	0.752500
N191	N19	0.407900	0.874900	0.010200
N201	N20	0.478100	0.783400	0.034100
N211	N21	0.359000	0.663600	0.845600
O251	O25	0.461500	0.033600	0.153300
O261	O26	0.589500	0.025000	0.270300
O271	O27	0.671000	0.925800	0.290200
O281	O28	0.642300	0.799200	0.190300
H291	H29	0.236200	0.043100	0.538500
H301	H30	0.327800	0.968600	0.525800
H311	H31	0.294400	0.905100	0.373100
H321	H32	0.183200	0.922100	0.240900
Pb81	Pb8	0.984480	0.978500	0.153420
C711	C71	0.989500	0.167900	0.483600
C721	C72	0.015900	0.122400	0.424900
C731	C73	0.970700	0.093300	0.324800
C741	C74	0.092500	0.061600	0.391500
C751	C75	0.879700	0.087500	0.240400
C761	C76	0.158200	0.023800	0.394600
C771	C77	0.226100	0.018200	0.478700
C781	C78	0.280300	0.973100	0.470800
C791	C79	0.261200	0.936200	0.380200
C801	C80	0.193200	0.945700	0.300900
N221	N22	0.092100	0.102300	0.467000
N231	N23	0.021900	0.056000	0.305300
N241	N24	0.141000	0.986600	0.304600
O291	O29	0.038500	0.191800	0.572100
O301	O30	0.910500	0.180800	0.435500
O311	O31	0.829000	0.119200	0.254800
O321	O32	0.857700	0.048000	0.156900
