data_UDICER_clean_PM
_symmetry_space_group_name_H-M	'P1'
_cell_length_a	9.890500
_cell_length_b	16.880900
_cell_length_c	7.203100
_cell_angle_alpha	90.000000
_cell_angle_beta	70.714300
_cell_angle_gamma	90.000000
_symmetry_Int_Tables_number 1

loop_
_symmetry_equiv_pos_as_xyz
'x,y,z'

loop_
_atom_site_label
_atom_site_type_symbol
_atom_site_fract_x
_atom_site_fract_y
_atom_site_fract_z
C11	C1	0.839870	0.765130	0.819670
C21	C2	0.735300	0.716770	0.951030
C31	C3	0.611250	0.753880	0.082090
C41	C4	0.600720	0.837780	0.091810
C51	C5	0.715260	0.882870	0.978790
C61	C6	0.829910	0.848540	0.832290
C71	C7	0.937620	0.897540	0.692350
C81	C8	0.474030	0.877170	0.230770
C91	C9	0.745330	0.628110	0.940780
O11	O1	0.066500	0.874800	0.690700
O21	O2	0.896900	0.978000	0.694100
O31	O3	0.847800	0.581700	0.844500
O41	O4	0.652000	0.584000	0.066700
O51	O5	0.387000	0.842000	0.379700
O61	O6	0.457600	0.953600	0.211100
Bi11	Bi1	0.221580	0.959280	0.473560
C101	C10	0.160130	0.265130	0.680330
C111	C11	0.264700	0.216770	0.548970
C121	C12	0.388750	0.253880	0.417910
C131	C13	0.399280	0.337780	0.408190
C141	C14	0.284740	0.382870	0.521210
C151	C15	0.170090	0.348540	0.667710
C161	C16	0.062380	0.397540	0.807650
C171	C17	0.525970	0.377170	0.269230
C181	C18	0.254670	0.128110	0.559220
O71	O7	0.933500	0.374800	0.809300
O81	O8	0.103100	0.478000	0.805900
O91	O9	0.152200	0.081700	0.655500
O101	O10	0.348000	0.084000	0.433300
O111	O11	0.613000	0.342000	0.120300
O121	O12	0.542400	0.453600	0.288900
Bi21	Bi2	0.778420	0.459280	0.026440
C191	C19	0.160130	0.234870	0.180330
C201	C20	0.264700	0.283230	0.048970
C211	C21	0.388750	0.246120	0.917910
C221	C22	0.399280	0.162220	0.908190
C231	C23	0.284740	0.117130	0.021210
C241	C24	0.170090	0.151460	0.167710
C251	C25	0.062380	0.102460	0.307650
C261	C26	0.525970	0.122830	0.769230
C271	C27	0.254670	0.371890	0.059220
O131	O13	0.933500	0.125200	0.309300
O141	O14	0.103100	0.022000	0.305900
O151	O15	0.152200	0.418300	0.155500
O161	O16	0.348000	0.416000	0.933300
O171	O17	0.613000	0.158000	0.620300
O181	O18	0.542400	0.046400	0.788900
Bi31	Bi3	0.778420	0.040720	0.526440
C281	C28	0.839870	0.734870	0.319670
C291	C29	0.735300	0.783230	0.451030
C301	C30	0.611250	0.746120	0.582090
C311	C31	0.600720	0.662220	0.591810
C321	C32	0.715260	0.617130	0.478790
C331	C33	0.829910	0.651460	0.332290
C341	C34	0.937620	0.602460	0.192350
C351	C35	0.474030	0.622830	0.730770
C361	C36	0.745330	0.871890	0.440780
O191	O19	0.066500	0.625200	0.190700
O201	O20	0.896900	0.522000	0.194100
O211	O21	0.847800	0.918300	0.344500
O221	O22	0.652000	0.916000	0.566700
O231	O23	0.387000	0.658000	0.879700
O241	O24	0.457600	0.546400	0.711100
Bi41	Bi4	0.221580	0.540720	0.973560
