data_UDIDAO_clean_PM
_symmetry_space_group_name_H-M	'P1'
_cell_length_a	13.739000
_cell_length_b	15.179000
_cell_length_c	24.301000
_cell_angle_alpha	90.000000
_cell_angle_beta	90.000000
_cell_angle_gamma	90.000000
_symmetry_Int_Tables_number 1

loop_
_symmetry_equiv_pos_as_xyz
'x,y,z'

loop_
_atom_site_label
_atom_site_type_symbol
_atom_site_fract_x
_atom_site_fract_y
_atom_site_fract_z
Co11	Co1	0.616520	0.792090	0.752110
Co21	Co2	0.774960	0.699050	0.843360
Co31	Co3	0.193560	0.495380	0.590000
Co41	Co4	0.644600	0.676800	0.458310
Co51	Co5	0.883480	0.292090	0.747890
Co61	Co6	0.725040	0.199050	0.656640
Co71	Co7	0.306440	0.995380	0.910000
Co81	Co8	0.855400	0.176800	0.041690
Co91	Co9	0.383480	0.707910	0.752110
Co101	Co10	0.225040	0.800950	0.843360
Co111	Co11	0.806440	0.004620	0.590000
Co121	Co12	0.355400	0.823200	0.458310
Co131	Co13	0.116520	0.207910	0.747890
Co141	Co14	0.274960	0.300950	0.656640
Co151	Co15	0.693560	0.504620	0.910000
Co161	Co16	0.144600	0.323200	0.041690
Co171	Co17	0.383480	0.207910	0.247890
Co181	Co18	0.225040	0.300950	0.156640
Co191	Co19	0.806440	0.504620	0.410000
Co201	Co20	0.355400	0.323200	0.541690
Co211	Co21	0.116520	0.707910	0.252110
Co221	Co22	0.274960	0.800950	0.343360
Co231	Co23	0.693560	0.004620	0.090000
Co241	Co24	0.144600	0.823200	0.958310
Co251	Co25	0.616520	0.292090	0.247890
Co261	Co26	0.774960	0.199050	0.156640
Co271	Co27	0.193560	0.995380	0.410000
Co281	Co28	0.644600	0.176800	0.541690
Co291	Co29	0.883480	0.792090	0.252110
Co301	Co30	0.725040	0.699050	0.343360
Co311	Co31	0.306440	0.495380	0.090000
Co321	Co32	0.855400	0.676800	0.958310
H11	H1	0.905500	0.525900	0.726300
H21	H2	0.749800	0.662700	0.614600
H31	H3	0.936700	0.473800	0.564200
H41	H4	0.903800	0.848000	0.746100
H51	H5	0.594500	0.025900	0.773700
H61	H6	0.750200	0.162700	0.885400
H71	H7	0.563300	0.973800	0.935800
H81	H8	0.596200	0.348000	0.753900
H91	H9	0.094500	0.974100	0.726300
H101	H10	0.250200	0.837300	0.614600
H111	H11	0.063300	0.026200	0.564200
H121	H12	0.096200	0.652000	0.746100
H131	H13	0.405500	0.474100	0.773700
H141	H14	0.249800	0.337300	0.885400
H151	H15	0.436700	0.526200	0.935800
H161	H16	0.403800	0.152000	0.753900
H171	H17	0.094500	0.474100	0.273700
H181	H18	0.250200	0.337300	0.385400
H191	H19	0.063300	0.526200	0.435800
H201	H20	0.096200	0.152000	0.253900
H211	H21	0.405500	0.974100	0.226300
H221	H22	0.249800	0.837300	0.114600
H231	H23	0.436700	0.026200	0.064200
H241	H24	0.403800	0.652000	0.246100
H251	H25	0.905500	0.025900	0.273700
H261	H26	0.749800	0.162700	0.385400
H271	H27	0.936700	0.973800	0.435800
H281	H28	0.903800	0.348000	0.253900
H291	H29	0.594500	0.525900	0.226300
H301	H30	0.750200	0.662700	0.114600
H311	H31	0.563300	0.473800	0.064200
H321	H32	0.596200	0.848000	0.246100
H331	H33	0.000000	0.750000	0.602000
H341	H34	0.500000	0.250000	0.898000
H351	H35	0.000000	0.250000	0.398000
H361	H36	0.500000	0.750000	0.102000
C11	C1	0.004800	0.422100	0.661200
C21	C2	0.929700	0.491000	0.647400
C31	C3	0.888300	0.537400	0.689900
C41	C4	0.819000	0.602700	0.677200
C51	C5	0.794700	0.618700	0.622600
C61	C6	0.835000	0.571500	0.580200
C71	C7	0.906700	0.505600	0.592100
C81	C8	0.773500	0.656200	0.722600
C91	C9	0.805200	0.583900	0.521100
C101	C10	0.942600	0.808300	0.726900
C111	C11	0.942200	0.808400	0.668900
C121	C12	0.883700	0.875800	0.637000
C131	C13	0.495200	0.922100	0.838800
C141	C14	0.570300	0.991000	0.852600
C151	C15	0.611700	0.037400	0.810100
C161	C16	0.681000	0.102700	0.822800
C171	C17	0.705300	0.118700	0.877400
C181	C18	0.665000	0.071500	0.919800
C191	C19	0.593300	0.005600	0.907900
C201	C20	0.726500	0.156200	0.777400
C211	C21	0.694800	0.083900	0.978900
C221	C22	0.557400	0.308300	0.773100
C231	C23	0.557800	0.308400	0.831100
C241	C24	0.616300	0.375800	0.863000
C251	C25	0.995200	0.077900	0.661200
C261	C26	0.070300	0.009000	0.647400
C271	C27	0.111700	0.962600	0.689900
C281	C28	0.181000	0.897300	0.677200
C291	C29	0.205300	0.881300	0.622600
C301	C30	0.165000	0.928500	0.580200
C311	C31	0.093300	0.994400	0.592100
C321	C32	0.226500	0.843800	0.722600
C331	C33	0.194800	0.916100	0.521100
C341	C34	0.057400	0.691700	0.726900
C351	C35	0.057800	0.691600	0.668900
C361	C36	0.116300	0.624200	0.637000
C371	C37	0.504800	0.577900	0.838800
C381	C38	0.429700	0.509000	0.852600
C391	C39	0.388300	0.462600	0.810100
C401	C40	0.319000	0.397300	0.822800
C411	C41	0.294700	0.381300	0.877400
C421	C42	0.335000	0.428500	0.919800
C431	C43	0.406700	0.494400	0.907900
C441	C44	0.273500	0.343800	0.777400
C451	C45	0.305200	0.416100	0.978900
C461	C46	0.442600	0.191700	0.773100
C471	C47	0.442200	0.191600	0.831100
C481	C48	0.383700	0.124200	0.863000
C491	C49	0.995200	0.577900	0.338800
C501	C50	0.070300	0.509000	0.352600
C511	C51	0.111700	0.462600	0.310100
C521	C52	0.181000	0.397300	0.322800
C531	C53	0.205300	0.381300	0.377400
C541	C54	0.165000	0.428500	0.419800
C551	C55	0.093300	0.494400	0.407900
C561	C56	0.226500	0.343800	0.277400
C571	C57	0.194800	0.416100	0.478900
C581	C58	0.057400	0.191700	0.273100
C591	C59	0.057800	0.191600	0.331100
C601	C60	0.116300	0.124200	0.363000
C611	C61	0.504800	0.077900	0.161200
C621	C62	0.429700	0.009000	0.147400
C631	C63	0.388300	0.962600	0.189900
C641	C64	0.319000	0.897300	0.177200
C651	C65	0.294700	0.881300	0.122600
C661	C66	0.335000	0.928500	0.080200
C671	C67	0.406700	0.994400	0.092100
C681	C68	0.273500	0.843800	0.222600
C691	C69	0.305200	0.916100	0.021100
C701	C70	0.442600	0.691700	0.226900
C711	C71	0.442200	0.691600	0.168900
C721	C72	0.383700	0.624200	0.137000
C731	C73	0.004800	0.922100	0.338800
C741	C74	0.929700	0.991000	0.352600
C751	C75	0.888300	0.037400	0.310100
C761	C76	0.819000	0.102700	0.322800
C771	C77	0.794700	0.118700	0.377400
C781	C78	0.835000	0.071500	0.419800
C791	C79	0.906700	0.005600	0.407900
C801	C80	0.773500	0.156200	0.277400
C811	C81	0.805200	0.083900	0.478900
C821	C82	0.942600	0.308300	0.273100
C831	C83	0.942200	0.308400	0.331100
C841	C84	0.883700	0.375800	0.363000
C851	C85	0.495200	0.422100	0.161200
C861	C86	0.570300	0.491000	0.147400
C871	C87	0.611700	0.537400	0.189900
C881	C88	0.681000	0.602700	0.177200
C891	C89	0.705300	0.618700	0.122600
C901	C90	0.665000	0.571500	0.080200
C911	C91	0.593300	0.505600	0.092100
C921	C92	0.726500	0.656200	0.222600
C931	C93	0.694800	0.583900	0.021100
C941	C94	0.557400	0.808300	0.226900
C951	C95	0.557800	0.808400	0.168900
C961	C96	0.616300	0.875800	0.137000
C971	C97	0.000000	0.750000	0.816800
C981	C98	0.000000	0.750000	0.754900
C991	C99	0.000000	0.750000	0.640300
C1001	C100	0.500000	0.250000	0.683200
C1011	C101	0.500000	0.250000	0.745100
C1021	C102	0.500000	0.250000	0.859700
C1031	C103	0.000000	0.250000	0.183200
C1041	C104	0.000000	0.250000	0.245100
C1051	C105	0.000000	0.250000	0.359700
C1061	C106	0.500000	0.750000	0.316800
C1071	C107	0.500000	0.750000	0.254900
C1081	C108	0.500000	0.750000	0.140300
N11	N1	0.090200	0.414100	0.634800
N21	N2	0.134600	0.344400	0.660100
N31	N3	0.077400	0.315900	0.699000
N41	N4	0.994900	0.362500	0.699900
N51	N5	0.920700	0.738000	0.848900
N61	N6	0.953300	0.742400	0.900700
N71	N7	0.728400	0.816100	0.809700
N81	N8	0.774700	0.879100	0.818600
N91	N9	0.823900	0.942800	0.825800
N101	N10	0.409800	0.914100	0.865200
N111	N11	0.365400	0.844400	0.839900
N121	N12	0.422600	0.815900	0.801000
N131	N13	0.505100	0.862500	0.800100
N141	N14	0.579300	0.238000	0.651100
N151	N15	0.546700	0.242400	0.599300
N161	N16	0.771600	0.316100	0.690300
N171	N17	0.725300	0.379100	0.681400
N181	N18	0.676100	0.442800	0.674200
N191	N19	0.909800	0.085900	0.634800
N201	N20	0.865400	0.155600	0.660100
N211	N21	0.922600	0.184100	0.699000
N221	N22	0.005100	0.137500	0.699900
N231	N23	0.079300	0.762000	0.848900
N241	N24	0.046700	0.757600	0.900700
N251	N25	0.271600	0.683900	0.809700
N261	N26	0.225300	0.620900	0.818600
N271	N27	0.176100	0.557200	0.825800
N281	N28	0.590200	0.585900	0.865200
N291	N29	0.634600	0.655600	0.839900
N301	N30	0.577400	0.684100	0.801000
N311	N31	0.494900	0.637500	0.800100
N321	N32	0.420700	0.262000	0.651100
N331	N33	0.453300	0.257600	0.599300
N341	N34	0.228400	0.183900	0.690300
N351	N35	0.274700	0.120900	0.681400
N361	N36	0.323900	0.057200	0.674200
N371	N37	0.909800	0.585900	0.365200
N381	N38	0.865400	0.655600	0.339900
N391	N39	0.922600	0.684100	0.301000
N401	N40	0.005100	0.637500	0.300100
N411	N41	0.079300	0.262000	0.151100
N421	N42	0.046700	0.257600	0.099300
N431	N43	0.271600	0.183900	0.190300
N441	N44	0.225300	0.120900	0.181400
N451	N45	0.176100	0.057200	0.174200
N461	N46	0.590200	0.085900	0.134800
N471	N47	0.634600	0.155600	0.160100
N481	N48	0.577400	0.184100	0.199000
N491	N49	0.494900	0.137500	0.199900
N501	N50	0.420700	0.762000	0.348900
N511	N51	0.453300	0.757600	0.400700
N521	N52	0.228400	0.683900	0.309700
N531	N53	0.274700	0.620900	0.318600
N541	N54	0.323900	0.557200	0.325800
N551	N55	0.090200	0.914100	0.365200
N561	N56	0.134600	0.844400	0.339900
N571	N57	0.077400	0.815900	0.301000
N581	N58	0.994900	0.862500	0.300100
N591	N59	0.920700	0.238000	0.151100
N601	N60	0.953300	0.242400	0.099300
N611	N61	0.728400	0.316100	0.190300
N621	N62	0.774700	0.379100	0.181400
N631	N63	0.823900	0.442800	0.174200
N641	N64	0.409800	0.414100	0.134800
N651	N65	0.365400	0.344400	0.160100
N661	N66	0.422600	0.315900	0.199000
N671	N67	0.505100	0.362500	0.199900
N681	N68	0.579300	0.738000	0.348900
N691	N69	0.546700	0.742400	0.400700
N701	N70	0.771600	0.816100	0.309700
N711	N71	0.725300	0.879100	0.318600
N721	N72	0.676100	0.942800	0.325800
O11	O1	0.710400	0.712400	0.708100
O21	O2	0.802400	0.640600	0.770700
O31	O3	0.738000	0.638700	0.513100
O41	O4	0.845800	0.541900	0.485400
O51	O5	0.897000	0.888400	0.588300
O61	O6	0.822700	0.924300	0.663600
O71	O7	0.808500	0.588100	0.888200
O81	O8	0.751300	0.759400	0.923100
O91	O9	0.789600	0.212400	0.791900
O101	O10	0.697600	0.140600	0.729300
O111	O11	0.762000	0.138700	0.986900
O121	O12	0.654200	0.041900	0.014600
O131	O13	0.603000	0.388400	0.911700
O141	O14	0.677300	0.424300	0.836400
O151	O15	0.691500	0.088100	0.611800
O161	O16	0.748700	0.259400	0.576900
O171	O17	0.289600	0.787600	0.708100
O181	O18	0.197600	0.859400	0.770700
O191	O19	0.262000	0.861300	0.513100
O201	O20	0.154200	0.958100	0.485400
O211	O21	0.103000	0.611600	0.588300
O221	O22	0.177300	0.575700	0.663600
O231	O23	0.191500	0.911900	0.888200
O241	O24	0.248700	0.740600	0.923100
O251	O25	0.210400	0.287600	0.791900
O261	O26	0.302400	0.359400	0.729300
O271	O27	0.238000	0.361300	0.986900
O281	O28	0.345800	0.458100	0.014600
O291	O29	0.397000	0.111600	0.911700
O301	O30	0.322700	0.075700	0.836400
O311	O31	0.308500	0.411900	0.611800
O321	O32	0.251300	0.240600	0.576900
O331	O33	0.289600	0.287600	0.291900
O341	O34	0.197600	0.359400	0.229300
O351	O35	0.262000	0.361300	0.486900
O361	O36	0.154200	0.458100	0.514600
O371	O37	0.103000	0.111600	0.411700
O381	O38	0.177300	0.075700	0.336400
O391	O39	0.191500	0.411900	0.111800
O401	O40	0.248700	0.240600	0.076900
O411	O41	0.210400	0.787600	0.208100
O421	O42	0.302400	0.859400	0.270700
O431	O43	0.238000	0.861300	0.013100
O441	O44	0.345800	0.958100	0.985400
O451	O45	0.397000	0.611600	0.088300
O461	O46	0.322700	0.575700	0.163600
O471	O47	0.308500	0.911900	0.388200
O481	O48	0.251300	0.740600	0.423100
O491	O49	0.710400	0.212400	0.291900
O501	O50	0.802400	0.140600	0.229300
O511	O51	0.738000	0.138700	0.486900
O521	O52	0.845800	0.041900	0.514600
O531	O53	0.897000	0.388400	0.411700
O541	O54	0.822700	0.424300	0.336400
O551	O55	0.808500	0.088100	0.111800
O561	O56	0.751300	0.259400	0.076900
O571	O57	0.789600	0.712400	0.208100
O581	O58	0.697600	0.640600	0.270700
O591	O59	0.762000	0.638700	0.013100
O601	O60	0.654200	0.541900	0.985400
O611	O61	0.603000	0.888400	0.088300
O621	O62	0.677300	0.924300	0.163600
O631	O63	0.691500	0.588100	0.388200
O641	O64	0.748700	0.759400	0.423100
O651	O65	0.500000	0.750000	0.699000
O661	O66	0.000000	0.250000	0.801000
O671	O67	0.500000	0.250000	0.301000
O681	O68	0.000000	0.750000	0.199000
