data_UDIHIZ_charged_PM
_symmetry_space_group_name_H-M	'P1'
_cell_length_a	12.781900
_cell_length_b	12.781900
_cell_length_c	85.294000
_cell_angle_alpha	90.000000
_cell_angle_beta	90.000000
_cell_angle_gamma	120.000000
_symmetry_Int_Tables_number 1

loop_
_symmetry_equiv_pos_as_xyz
'x,y,z'

loop_
_atom_site_label
_atom_site_type_symbol
_atom_site_fract_x
_atom_site_fract_y
_atom_site_fract_z
Nd11	Nd1	0.528520	0.986840	0.004720
Nd21	Nd2	0.386760	0.795480	0.046330
Nd31	Nd3	0.693870	0.034890	0.959430
Nd41	Nd4	0.458320	0.471480	0.671390
Nd51	Nd5	0.408720	0.613240	0.712990
Nd61	Nd6	0.341020	0.306130	0.626100
Nd71	Nd7	0.013160	0.541680	0.338060
Nd81	Nd8	0.204520	0.591280	0.379660
Nd91	Nd9	0.965110	0.658980	0.292760
Nd101	Nd10	0.471480	0.013160	0.504720
Nd111	Nd11	0.613240	0.204520	0.546330
Nd121	Nd12	0.306130	0.965110	0.459430
Nd131	Nd13	0.541680	0.528520	0.171390
Nd141	Nd14	0.591280	0.386760	0.212990
Nd151	Nd15	0.658980	0.693870	0.126100
Nd161	Nd16	0.986840	0.458320	0.838060
Nd171	Nd17	0.795480	0.408720	0.879660
Nd181	Nd18	0.034890	0.341020	0.792760
Nd191	Nd19	0.541680	0.013160	0.661940
Nd201	Nd20	0.591280	0.204520	0.620340
Nd211	Nd21	0.658980	0.965110	0.707240
Nd221	Nd22	0.986840	0.528520	0.995280
Nd231	Nd23	0.795480	0.386760	0.953670
Nd241	Nd24	0.034890	0.693870	0.040570
Nd251	Nd25	0.471480	0.458320	0.328610
Nd261	Nd26	0.613240	0.408720	0.287010
Nd271	Nd27	0.306130	0.341020	0.373900
Nd281	Nd28	0.458320	0.986840	0.161940
Nd291	Nd29	0.408720	0.795480	0.120340
Nd301	Nd30	0.341020	0.034890	0.207240
Nd311	Nd31	0.013160	0.471480	0.495280
Nd321	Nd32	0.204520	0.613240	0.453670
Nd331	Nd33	0.965110	0.306130	0.540570
Nd341	Nd34	0.528520	0.541680	0.828610
Nd351	Nd35	0.386760	0.591280	0.787010
Nd361	Nd36	0.693870	0.658980	0.873900
Nd371	Nd37	0.524840	0.049680	0.083330
Nd381	Nd38	0.524840	0.475160	0.750000
Nd391	Nd39	0.950320	0.475160	0.416670
Nd401	Nd40	0.475160	0.950320	0.583330
Nd411	Nd41	0.475160	0.524840	0.250000
Nd421	Nd42	0.049680	0.524840	0.916670
H11	H1	0.821500	0.237200	0.038500
H21	H2	0.794000	0.326200	0.047900
H31	H3	0.632800	0.367400	0.031000
H41	H4	0.577700	0.294900	0.046600
H51	H5	0.509700	0.245200	0.030600
H61	H6	0.095000	0.823600	0.092200
H71	H7	0.151000	0.942300	0.102200
H81	H8	0.135700	0.065700	0.080300
H91	H9	0.064600	0.942900	0.071200
H101	H10	0.177700	0.052300	0.063500
H111	H11	0.931700	0.039200	0.997200
H121	H12	0.959000	0.164600	0.003700
H131	H13	0.110000	0.140300	0.978300
H141	H14	0.137800	0.260700	0.986700
H151	H15	0.125000	0.250300	0.968400
H161	H16	0.457400	0.577000	0.011500
H171	H17	0.347700	0.558100	0.001200
H181	H18	0.323400	0.390500	0.027300
H191	H19	0.224200	0.373300	0.015100
H201	H20	0.197600	0.368300	0.033100
H211	H21	0.415700	0.178500	0.705170
H221	H22	0.532200	0.206000	0.714570
H231	H23	0.734600	0.367200	0.697670
H241	H24	0.717200	0.422300	0.713270
H251	H25	0.735500	0.490300	0.697270
H261	H26	0.728600	0.905000	0.758870
H271	H27	0.791300	0.849000	0.768870
H281	H28	0.930000	0.864300	0.746970
H291	H29	0.878300	0.935400	0.737870
H301	H30	0.874600	0.822300	0.730170
H311	H31	0.107500	0.068300	0.663870
H321	H32	0.205600	0.041000	0.670370
H331	H33	0.030300	0.890000	0.644970
H341	H34	0.122900	0.862200	0.653370
H351	H35	0.125300	0.875000	0.635070
H361	H36	0.119600	0.542600	0.678170
H371	H37	0.210400	0.652300	0.667870
H381	H38	0.067100	0.676600	0.693970
H391	H39	0.149100	0.775800	0.681770
H401	H40	0.170700	0.802400	0.699770
H411	H41	0.762800	0.584300	0.371830
H421	H42	0.673800	0.467800	0.381230
H431	H43	0.632600	0.265400	0.364330
H441	H44	0.705100	0.282800	0.379930
H451	H45	0.754800	0.264500	0.363930
H461	H46	0.176400	0.271400	0.425530
H471	H47	0.057700	0.208700	0.435530
H481	H48	0.934300	0.070000	0.413630
H491	H49	0.057100	0.121700	0.404530
H501	H50	0.947700	0.125400	0.396830
H511	H51	0.960800	0.892500	0.330530
H521	H52	0.835400	0.794400	0.337030
H531	H53	0.859700	0.969700	0.311630
H541	H54	0.739300	0.877100	0.320030
H551	H55	0.749700	0.874700	0.301730
H561	H56	0.423000	0.880400	0.344830
H571	H57	0.441900	0.789600	0.334530
H581	H58	0.609500	0.932900	0.360630
H591	H59	0.626700	0.850900	0.348430
H601	H60	0.631700	0.829300	0.366430
H611	H61	0.178500	0.762800	0.538500
H621	H62	0.206000	0.673800	0.547900
H631	H63	0.367200	0.632600	0.531000
H641	H64	0.422300	0.705100	0.546600
H651	H65	0.490300	0.754800	0.530600
H661	H66	0.905000	0.176400	0.592200
H671	H67	0.849000	0.057700	0.602200
H681	H68	0.864300	0.934300	0.580300
H691	H69	0.935400	0.057100	0.571200
H701	H70	0.822300	0.947700	0.563500
H711	H71	0.068300	0.960800	0.497200
H721	H72	0.041000	0.835400	0.503700
H731	H73	0.890000	0.859700	0.478300
H741	H74	0.862200	0.739300	0.486700
H751	H75	0.875000	0.749700	0.468400
H761	H76	0.542600	0.423000	0.511500
H771	H77	0.652300	0.441900	0.501200
H781	H78	0.676600	0.609500	0.527300
H791	H79	0.775800	0.626700	0.515100
H801	H80	0.802400	0.631700	0.533100
H811	H81	0.584300	0.821500	0.205170
H821	H82	0.467800	0.794000	0.214570
H831	H83	0.265400	0.632800	0.197670
H841	H84	0.282800	0.577700	0.213270
H851	H85	0.264500	0.509700	0.197270
H861	H86	0.271400	0.095000	0.258870
H871	H87	0.208700	0.151000	0.268870
H881	H88	0.070000	0.135700	0.246970
H891	H89	0.121700	0.064600	0.237870
H901	H90	0.125400	0.177700	0.230170
H911	H91	0.892500	0.931700	0.163870
H921	H92	0.794400	0.959000	0.170370
H931	H93	0.969700	0.110000	0.144970
H941	H94	0.877100	0.137800	0.153370
H951	H95	0.874700	0.125000	0.135070
H961	H96	0.880400	0.457400	0.178170
H971	H97	0.789600	0.347700	0.167870
H981	H98	0.932900	0.323400	0.193970
H991	H99	0.850900	0.224200	0.181770
H1001	H100	0.829300	0.197600	0.199770
H1011	H101	0.237200	0.415700	0.871830
H1021	H102	0.326200	0.532200	0.881230
H1031	H103	0.367400	0.734600	0.864330
H1041	H104	0.294900	0.717200	0.879930
H1051	H105	0.245200	0.735500	0.863930
H1061	H106	0.823600	0.728600	0.925530
H1071	H107	0.942300	0.791300	0.935530
H1081	H108	0.065700	0.930000	0.913630
H1091	H109	0.942900	0.878300	0.904530
H1101	H110	0.052300	0.874600	0.896830
H1111	H111	0.039200	0.107500	0.830530
H1121	H112	0.164600	0.205600	0.837030
H1131	H113	0.140300	0.030300	0.811630
H1141	H114	0.260700	0.122900	0.820030
H1151	H115	0.250300	0.125300	0.801730
H1161	H116	0.577000	0.119600	0.844830
H1171	H117	0.558100	0.210400	0.834530
H1181	H118	0.390500	0.067100	0.860630
H1191	H119	0.373300	0.149100	0.848430
H1201	H120	0.368300	0.170700	0.866430
H1211	H121	0.584300	0.762800	0.628170
H1221	H122	0.467800	0.673800	0.618770
H1231	H123	0.265400	0.632600	0.635670
H1241	H124	0.282800	0.705100	0.620070
H1251	H125	0.264500	0.754800	0.636070
H1261	H126	0.271400	0.176400	0.574470
H1271	H127	0.208700	0.057700	0.564470
H1281	H128	0.070000	0.934300	0.586370
H1291	H129	0.121700	0.057100	0.595470
H1301	H130	0.125400	0.947700	0.603170
H1311	H131	0.892500	0.960800	0.669470
H1321	H132	0.794400	0.835400	0.662970
H1331	H133	0.969700	0.859700	0.688370
H1341	H134	0.877100	0.739300	0.679970
H1351	H135	0.874700	0.749700	0.698270
H1361	H136	0.880400	0.423000	0.655170
H1371	H137	0.789600	0.441900	0.665470
H1381	H138	0.932900	0.609500	0.639370
H1391	H139	0.850900	0.626700	0.651570
H1401	H140	0.829300	0.631700	0.633570
H1411	H141	0.237200	0.821500	0.961500
H1421	H142	0.326200	0.794000	0.952100
H1431	H143	0.367400	0.632800	0.969000
H1441	H144	0.294900	0.577700	0.953400
H1451	H145	0.245200	0.509700	0.969400
H1461	H146	0.823600	0.095000	0.907800
H1471	H147	0.942300	0.151000	0.897800
H1481	H148	0.065700	0.135700	0.919700
H1491	H149	0.942900	0.064600	0.928800
H1501	H150	0.052300	0.177700	0.936500
H1511	H151	0.039200	0.931700	0.002800
H1521	H152	0.164600	0.959000	0.996300
H1531	H153	0.140300	0.110000	0.021700
H1541	H154	0.260700	0.137800	0.013300
H1551	H155	0.250300	0.125000	0.031600
H1561	H156	0.577000	0.457400	0.988500
H1571	H157	0.558100	0.347700	0.998800
H1581	H158	0.390500	0.323400	0.972700
H1591	H159	0.373300	0.224200	0.984900
H1601	H160	0.368300	0.197600	0.966900
H1611	H161	0.178500	0.415700	0.294830
H1621	H162	0.206000	0.532200	0.285430
H1631	H163	0.367200	0.734600	0.302330
H1641	H164	0.422300	0.717200	0.286730
H1651	H165	0.490300	0.735500	0.302730
H1661	H166	0.905000	0.728600	0.241130
H1671	H167	0.849000	0.791300	0.231130
H1681	H168	0.864300	0.930000	0.253030
H1691	H169	0.935400	0.878300	0.262130
H1701	H170	0.822300	0.874600	0.269830
H1711	H171	0.068300	0.107500	0.336130
H1721	H172	0.041000	0.205600	0.329630
H1731	H173	0.890000	0.030300	0.355030
H1741	H174	0.862200	0.122900	0.346630
H1751	H175	0.875000	0.125300	0.364930
H1761	H176	0.542600	0.119600	0.321830
H1771	H177	0.652300	0.210400	0.332130
H1781	H178	0.676600	0.067100	0.306030
H1791	H179	0.775800	0.149100	0.318230
H1801	H180	0.802400	0.170700	0.300230
H1811	H181	0.415700	0.237200	0.128170
H1821	H182	0.532200	0.326200	0.118770
H1831	H183	0.734600	0.367400	0.135670
H1841	H184	0.717200	0.294900	0.120070
H1851	H185	0.735500	0.245200	0.136070
H1861	H186	0.728600	0.823600	0.074470
H1871	H187	0.791300	0.942300	0.064470
H1881	H188	0.930000	0.065700	0.086370
H1891	H189	0.878300	0.942900	0.095470
H1901	H190	0.874600	0.052300	0.103170
H1911	H191	0.107500	0.039200	0.169470
H1921	H192	0.205600	0.164600	0.162970
H1931	H193	0.030300	0.140300	0.188370
H1941	H194	0.122900	0.260700	0.179970
H1951	H195	0.125300	0.250300	0.198270
H1961	H196	0.119600	0.577000	0.155170
H1971	H197	0.210400	0.558100	0.165470
H1981	H198	0.067100	0.390500	0.139370
H1991	H199	0.149100	0.373300	0.151570
H2001	H200	0.170700	0.368300	0.133570
H2011	H201	0.762800	0.178500	0.461500
H2021	H202	0.673800	0.206000	0.452100
H2031	H203	0.632600	0.367200	0.469000
H2041	H204	0.705100	0.422300	0.453400
H2051	H205	0.754800	0.490300	0.469400
H2061	H206	0.176400	0.905000	0.407800
H2071	H207	0.057700	0.849000	0.397800
H2081	H208	0.934300	0.864300	0.419700
H2091	H209	0.057100	0.935400	0.428800
H2101	H210	0.947700	0.822300	0.436500
H2111	H211	0.960800	0.068300	0.502800
H2121	H212	0.835400	0.041000	0.496300
H2131	H213	0.859700	0.890000	0.521700
H2141	H214	0.739300	0.862200	0.513300
H2151	H215	0.749700	0.875000	0.531600
H2161	H216	0.423000	0.542600	0.488500
H2171	H217	0.441900	0.652300	0.498800
H2181	H218	0.609500	0.676600	0.472700
H2191	H219	0.626700	0.775800	0.484900
H2201	H220	0.631700	0.802400	0.466900
H2211	H221	0.821500	0.584300	0.794830
H2221	H222	0.794000	0.467800	0.785430
H2231	H223	0.632800	0.265400	0.802330
H2241	H224	0.577700	0.282800	0.786730
H2251	H225	0.509700	0.264500	0.802730
H2261	H226	0.095000	0.271400	0.741130
H2271	H227	0.151000	0.208700	0.731130
H2281	H228	0.135700	0.070000	0.753030
H2291	H229	0.064600	0.121700	0.762130
H2301	H230	0.177700	0.125400	0.769830
H2311	H231	0.931700	0.892500	0.836130
H2321	H232	0.959000	0.794400	0.829630
H2331	H233	0.110000	0.969700	0.855030
H2341	H234	0.137800	0.877100	0.846630
H2351	H235	0.125000	0.874700	0.864930
H2361	H236	0.457400	0.880400	0.821830
H2371	H237	0.347700	0.789600	0.832130
H2381	H238	0.323400	0.932900	0.806030
H2391	H239	0.224200	0.850900	0.818230
H2401	H240	0.197600	0.829300	0.800230
C11	C1	0.656800	0.218100	0.032870
C21	C2	0.594300	0.099600	0.042620
C31	C3	0.788000	0.290400	0.037670
C41	C4	0.389900	0.860500	0.974270
C51	C5	0.587600	0.288100	0.035530
C61	C6	0.222800	0.969700	0.080280
C71	C7	0.252100	0.897400	0.068050
C81	C8	0.170100	0.896000	0.094910
C91	C9	0.251500	0.859300	0.102980
C101	C10	0.143100	0.011400	0.073180
C111	C11	0.963200	0.161900	0.979600
C121	C12	0.270900	0.939300	0.022910
C131	C13	0.914400	0.104400	0.995770
C141	C14	0.783100	0.055300	0.998630
C151	C15	0.095900	0.207400	0.978140
C161	C16	0.307500	0.543700	0.025190
C171	C17	0.200800	0.566400	0.024350
C181	C18	0.393200	0.596200	0.010600
C191	C19	0.446700	0.727800	0.009240
C201	C20	0.258600	0.406000	0.025160
C211	C21	0.561300	0.343200	0.699540
C221	C22	0.505300	0.405700	0.709290
C231	C23	0.502400	0.212000	0.704340
C241	C24	0.470600	0.610100	0.640940
C251	C25	0.700500	0.412400	0.702200
C261	C26	0.746900	0.777200	0.746950
C271	C27	0.645300	0.747900	0.734720
C281	C28	0.725900	0.829900	0.761580
C291	C29	0.607800	0.748500	0.769650
C301	C30	0.868300	0.856900	0.739850
C311	C31	0.198700	0.036800	0.646270
C321	C32	0.668400	0.729100	0.689580
C331	C33	0.190000	0.085600	0.662440
C341	C34	0.272200	0.216900	0.665300
C351	C35	0.111500	0.904100	0.644810
C361	C36	0.236200	0.692500	0.691860
C371	C37	0.365600	0.799200	0.691020
C381	C38	0.203000	0.606800	0.677270
C391	C39	0.281100	0.553300	0.675910
C401	C40	0.147400	0.741400	0.691830
C411	C41	0.781900	0.438700	0.366200
C421	C42	0.900400	0.494700	0.375950
C431	C43	0.709600	0.497600	0.371000
C441	C44	0.139500	0.529400	0.307600
C451	C45	0.711900	0.299500	0.368860
C461	C46	0.030300	0.253100	0.413610
C471	C47	0.102600	0.354700	0.401380
C481	C48	0.104000	0.274100	0.428240
C491	C49	0.140700	0.392200	0.436310
C501	C50	0.988600	0.131700	0.406510
C511	C51	0.838100	0.801300	0.312930
C521	C52	0.060700	0.331600	0.356240
C531	C53	0.895600	0.810000	0.329100
C541	C54	0.944700	0.727800	0.331960
C551	C55	0.792600	0.888500	0.311470
C561	C56	0.456300	0.763800	0.358520
C571	C57	0.433600	0.634400	0.357680
C581	C58	0.403800	0.797000	0.343930
C591	C59	0.272200	0.718900	0.342570
C601	C60	0.594000	0.852600	0.358490
C611	C61	0.343200	0.781900	0.532870
C621	C62	0.405700	0.900400	0.542620
C631	C63	0.212000	0.709600	0.537670
C641	C64	0.610100	0.139500	0.474270
C651	C65	0.412400	0.711900	0.535530
C661	C66	0.777200	0.030300	0.580280
C671	C67	0.747900	0.102600	0.568050
C681	C68	0.829900	0.104000	0.594910
C691	C69	0.748500	0.140700	0.602980
C701	C70	0.856900	0.988600	0.573180
C711	C71	0.036800	0.838100	0.479600
C721	C72	0.729100	0.060700	0.522910
C731	C73	0.085600	0.895600	0.495770
C741	C74	0.216900	0.944700	0.498630
C751	C75	0.904100	0.792600	0.478140
C761	C76	0.692500	0.456300	0.525190
C771	C77	0.799200	0.433600	0.524350
C781	C78	0.606800	0.403800	0.510600
C791	C79	0.553300	0.272200	0.509240
C801	C80	0.741400	0.594000	0.525160
C811	C81	0.438700	0.656800	0.199540
C821	C82	0.494700	0.594300	0.209290
C831	C83	0.497600	0.788000	0.204340
C841	C84	0.529400	0.389900	0.140940
C851	C85	0.299500	0.587600	0.202200
C861	C86	0.253100	0.222800	0.246950
C871	C87	0.354700	0.252100	0.234720
C881	C88	0.274100	0.170100	0.261580
C891	C89	0.392200	0.251500	0.269650
C901	C90	0.131700	0.143100	0.239850
C911	C91	0.801300	0.963200	0.146270
C921	C92	0.331600	0.270900	0.189580
C931	C93	0.810000	0.914400	0.162440
C941	C94	0.727800	0.783100	0.165300
C951	C95	0.888500	0.095900	0.144810
C961	C96	0.763800	0.307500	0.191860
C971	C97	0.634400	0.200800	0.191020
C981	C98	0.797000	0.393200	0.177270
C991	C99	0.718900	0.446700	0.175910
C1001	C100	0.852600	0.258600	0.191830
C1011	C101	0.218100	0.561300	0.866200
C1021	C102	0.099600	0.505300	0.875950
C1031	C103	0.290400	0.502400	0.871000
C1041	C104	0.860500	0.470600	0.807600
C1051	C105	0.288100	0.700500	0.868860
C1061	C106	0.969700	0.746900	0.913610
C1071	C107	0.897400	0.645300	0.901380
C1081	C108	0.896000	0.725900	0.928240
C1091	C109	0.859300	0.607800	0.936310
C1101	C110	0.011400	0.868300	0.906510
C1111	C111	0.161900	0.198700	0.812930
C1121	C112	0.939300	0.668400	0.856240
C1131	C113	0.104400	0.190000	0.829100
C1141	C114	0.055300	0.272200	0.831960
C1151	C115	0.207400	0.111500	0.811470
C1161	C116	0.543700	0.236200	0.858520
C1171	C117	0.566400	0.365600	0.857680
C1181	C118	0.596200	0.203000	0.843930
C1191	C119	0.727800	0.281100	0.842570
C1201	C120	0.406000	0.147400	0.858490
C1211	C121	0.438700	0.781900	0.633800
C1221	C122	0.494700	0.900400	0.624050
C1231	C123	0.497600	0.709600	0.629000
C1241	C124	0.529400	0.139500	0.692400
C1251	C125	0.299500	0.711900	0.631140
C1261	C126	0.253100	0.030300	0.586390
C1271	C127	0.354700	0.102600	0.598620
C1281	C128	0.274100	0.104000	0.571760
C1291	C129	0.392200	0.140700	0.563690
C1301	C130	0.131700	0.988600	0.593490
C1311	C131	0.801300	0.838100	0.687070
C1321	C132	0.331600	0.060700	0.643760
C1331	C133	0.810000	0.895600	0.670900
C1341	C134	0.727800	0.944700	0.668040
C1351	C135	0.888500	0.792600	0.688530
C1361	C136	0.763800	0.456300	0.641480
C1371	C137	0.634400	0.433600	0.642320
C1381	C138	0.797000	0.403800	0.656070
C1391	C139	0.718900	0.272200	0.657430
C1401	C140	0.852600	0.594000	0.641510
C1411	C141	0.218100	0.656800	0.967130
C1421	C142	0.099600	0.594300	0.957380
C1431	C143	0.290400	0.788000	0.962330
C1441	C144	0.860500	0.389900	0.025730
C1451	C145	0.288100	0.587600	0.964470
C1461	C146	0.969700	0.222800	0.919720
C1471	C147	0.897400	0.252100	0.931950
C1481	C148	0.896000	0.170100	0.905090
C1491	C149	0.859300	0.251500	0.897020
C1501	C150	0.011400	0.143100	0.926820
C1511	C151	0.161900	0.963200	0.020400
C1521	C152	0.939300	0.270900	0.977090
C1531	C153	0.104400	0.914400	0.004230
C1541	C154	0.055300	0.783100	0.001370
C1551	C155	0.207400	0.095900	0.021860
C1561	C156	0.543700	0.307500	0.974810
C1571	C157	0.566400	0.200800	0.975650
C1581	C158	0.596200	0.393200	0.989400
C1591	C159	0.727800	0.446700	0.990760
C1601	C160	0.406000	0.258600	0.974840
C1611	C161	0.343200	0.561300	0.300460
C1621	C162	0.405700	0.505300	0.290710
C1631	C163	0.212000	0.502400	0.295660
C1641	C164	0.610100	0.470600	0.359060
C1651	C165	0.412400	0.700500	0.297800
C1661	C166	0.777200	0.746900	0.253050
C1671	C167	0.747900	0.645300	0.265280
C1681	C168	0.829900	0.725900	0.238420
C1691	C169	0.748500	0.607800	0.230350
C1701	C170	0.856900	0.868300	0.260150
C1711	C171	0.036800	0.198700	0.353730
C1721	C172	0.729100	0.668400	0.310420
C1731	C173	0.085600	0.190000	0.337560
C1741	C174	0.216900	0.272200	0.334700
C1751	C175	0.904100	0.111500	0.355190
C1761	C176	0.692500	0.236200	0.308140
C1771	C177	0.799200	0.365600	0.308980
C1781	C178	0.606800	0.203000	0.322730
C1791	C179	0.553300	0.281100	0.324090
C1801	C180	0.741400	0.147400	0.308170
C1811	C181	0.561300	0.218100	0.133800
C1821	C182	0.505300	0.099600	0.124050
C1831	C183	0.502400	0.290400	0.129000
C1841	C184	0.470600	0.860500	0.192400
C1851	C185	0.700500	0.288100	0.131140
C1861	C186	0.746900	0.969700	0.086390
C1871	C187	0.645300	0.897400	0.098620
C1881	C188	0.725900	0.896000	0.071760
C1891	C189	0.607800	0.859300	0.063690
C1901	C190	0.868300	0.011400	0.093490
C1911	C191	0.198700	0.161900	0.187070
C1921	C192	0.668400	0.939300	0.143760
C1931	C193	0.190000	0.104400	0.170900
C1941	C194	0.272200	0.055300	0.168040
C1951	C195	0.111500	0.207400	0.188530
C1961	C196	0.236200	0.543700	0.141480
C1971	C197	0.365600	0.566400	0.142320
C1981	C198	0.203000	0.596200	0.156070
C1991	C199	0.281100	0.727800	0.157430
C2001	C200	0.147400	0.406000	0.141510
C2011	C201	0.781900	0.343200	0.467130
C2021	C202	0.900400	0.405700	0.457380
C2031	C203	0.709600	0.212000	0.462330
C2041	C204	0.139500	0.610100	0.525730
C2051	C205	0.711900	0.412400	0.464470
C2061	C206	0.030300	0.777200	0.419720
C2071	C207	0.102600	0.747900	0.431950
C2081	C208	0.104000	0.829900	0.405090
C2091	C209	0.140700	0.748500	0.397020
C2101	C210	0.988600	0.856900	0.426820
C2111	C211	0.838100	0.036800	0.520400
C2121	C212	0.060700	0.729100	0.477090
C2131	C213	0.895600	0.085600	0.504230
C2141	C214	0.944700	0.216900	0.501370
C2151	C215	0.792600	0.904100	0.521860
C2161	C216	0.456300	0.692500	0.474810
C2171	C217	0.433600	0.799200	0.475650
C2181	C218	0.403800	0.606800	0.489400
C2191	C219	0.272200	0.553300	0.490760
C2201	C220	0.594000	0.741400	0.474840
C2211	C221	0.656800	0.438700	0.800460
C2221	C222	0.594300	0.494700	0.790710
C2231	C223	0.788000	0.497600	0.795660
C2241	C224	0.389900	0.529400	0.859060
C2251	C225	0.587600	0.299500	0.797800
C2261	C226	0.222800	0.253100	0.753050
C2271	C227	0.252100	0.354700	0.765280
C2281	C228	0.170100	0.274100	0.738420
C2291	C229	0.251500	0.392200	0.730350
C2301	C230	0.143100	0.131700	0.760150
C2311	C231	0.963200	0.801300	0.853730
C2321	C232	0.270900	0.331600	0.810420
C2331	C233	0.914400	0.810000	0.837560
C2341	C234	0.783100	0.727800	0.834700
C2351	C235	0.095900	0.888500	0.855190
C2361	C236	0.307500	0.763800	0.808140
C2371	C237	0.200800	0.634400	0.808980
C2381	C238	0.393200	0.797000	0.822730
C2391	C239	0.446700	0.718900	0.824090
C2401	C240	0.258600	0.852600	0.808170
N11	N1	0.662400	0.830200	0.938600
N21	N2	0.167800	0.337600	0.605270
N31	N3	0.169800	0.832200	0.271930
N41	N4	0.337600	0.169800	0.438600
N51	N5	0.832200	0.662400	0.105270
N61	N6	0.830200	0.167800	0.771930
N71	N7	0.832200	0.169800	0.728070
N81	N8	0.830200	0.662400	0.061400
N91	N9	0.337600	0.167800	0.394730
N101	N10	0.167800	0.830200	0.228070
N111	N11	0.169800	0.337600	0.561400
N121	N12	0.662400	0.832200	0.894730
O11	O1	0.645500	0.185700	0.016540
O21	O2	0.540000	0.001500	0.035140
O31	O3	0.599700	0.114900	0.056840
O41	O4	0.350300	0.859900	0.988470
O51	O5	0.496800	0.926100	0.970990
O61	O6	0.341400	0.073300	0.083960
O71	O7	0.356200	0.933100	0.063840
O81	O8	0.799500	0.159000	0.937090
O91	O9	0.347400	0.872000	0.096620
O101	O10	0.587700	0.811000	0.050070
O111	O11	0.899400	0.076300	0.967300
O121	O12	0.360900	0.998500	0.014610
O131	O13	0.255700	0.862200	0.033270
O141	O14	0.717100	0.070800	0.988400
O151	O15	0.738100	0.009900	0.011310
O161	O16	0.376100	0.600900	0.039140
O171	O17	0.190000	0.629000	0.035260
O181	O18	0.523700	0.134300	0.987280
O191	O19	0.423200	0.787500	0.018710
O201	O20	0.517600	0.782800	0.997840
O211	O21	0.710100	0.270200	0.086940
O221	O22	0.285500	0.654100	0.068360
O231	O23	0.548300	0.041600	0.938490
O241	O24	0.675700	0.848700	0.973100
O251	O25	0.573500	0.840600	0.941890
O261	O26	0.761500	0.915300	0.941780
O271	O27	0.652900	0.746900	0.930000
O281	O28	0.540200	0.354500	0.683210
O291	O29	0.461500	0.460000	0.701810
O301	O30	0.515200	0.400300	0.723510
O311	O31	0.509600	0.649700	0.655140
O321	O32	0.429300	0.503200	0.637660
O331	O33	0.731900	0.658600	0.750630
O341	O34	0.576900	0.643800	0.730510
O351	O35	0.359500	0.200500	0.603760
O361	O36	0.524600	0.652600	0.763290
O371	O37	0.223300	0.412300	0.716740
O381	O38	0.176900	0.100600	0.633970
O391	O39	0.637600	0.639100	0.681280
O401	O40	0.606500	0.744300	0.699940
O411	O41	0.353700	0.282900	0.655070
O421	O42	0.271800	0.261900	0.677980
O431	O43	0.224800	0.623900	0.705810
O441	O44	0.439000	0.810000	0.701930
O451	O45	0.610600	0.476300	0.653950
O461	O46	0.364300	0.576800	0.685380
O471	O47	0.265200	0.482400	0.664510
O481	O48	0.560100	0.289900	0.753610
O491	O49	0.368600	0.714500	0.735030
O501	O50	0.493300	0.451700	0.605160
O511	O51	0.173000	0.324300	0.639770
O521	O52	0.267100	0.426500	0.608560
O531	O53	0.153800	0.238500	0.608450
O541	O54	0.094000	0.347100	0.596670
O551	O55	0.814300	0.459800	0.349870
O561	O56	0.998500	0.538500	0.368470
O571	O57	0.885100	0.484800	0.390170
O581	O58	0.140100	0.490400	0.321800
O591	O59	0.073900	0.570700	0.304320
O601	O60	0.926700	0.268100	0.417290
O611	O61	0.066900	0.423100	0.397170
O621	O62	0.841000	0.640500	0.270420
O631	O63	0.128000	0.475400	0.429950
O641	O64	0.189000	0.776700	0.383400
O651	O65	0.923700	0.823100	0.300630
O661	O66	0.001500	0.362400	0.347940
O671	O67	0.137800	0.393500	0.366600
O681	O68	0.929200	0.646300	0.321730
O691	O69	0.990100	0.728200	0.344640
O701	O70	0.399100	0.775200	0.372470
O711	O71	0.371000	0.561000	0.368590
O721	O72	0.865700	0.389400	0.320610
O731	O73	0.212500	0.635700	0.352040
O741	O74	0.217200	0.734800	0.331170
O751	O75	0.729800	0.439900	0.420270
O761	O76	0.345900	0.631400	0.401690
O771	O77	0.958400	0.506700	0.271820
O781	O78	0.151300	0.827000	0.306430
O791	O79	0.159400	0.732900	0.275220
O801	O80	0.084700	0.846200	0.275110
O811	O81	0.253100	0.906000	0.263330
O821	O82	0.354500	0.814300	0.516540
O831	O83	0.460000	0.998500	0.535140
O841	O84	0.400300	0.885100	0.556840
O851	O85	0.649700	0.140100	0.488470
O861	O86	0.503200	0.073900	0.470990
O871	O87	0.658600	0.926700	0.583960
O881	O88	0.643800	0.066900	0.563840
O891	O89	0.200500	0.841000	0.437090
O901	O90	0.652600	0.128000	0.596620
O911	O91	0.412300	0.189000	0.550070
O921	O92	0.100600	0.923700	0.467300
O931	O93	0.639100	0.001500	0.514610
O941	O94	0.744300	0.137800	0.533270
O951	O95	0.282900	0.929200	0.488400
O961	O96	0.261900	0.990100	0.511310
O971	O97	0.623900	0.399100	0.539140
O981	O98	0.810000	0.371000	0.535260
O991	O99	0.476300	0.865700	0.487280
O1001	O100	0.576800	0.212500	0.518710
O1011	O101	0.482400	0.217200	0.497840
O1021	O102	0.289900	0.729800	0.586940
O1031	O103	0.714500	0.345900	0.568360
O1041	O104	0.451700	0.958400	0.438490
O1051	O105	0.324300	0.151300	0.473100
O1061	O106	0.426500	0.159400	0.441890
O1071	O107	0.238500	0.084700	0.441780
O1081	O108	0.347100	0.253100	0.430000
O1091	O109	0.459800	0.645500	0.183210
O1101	O110	0.538500	0.540000	0.201810
O1111	O111	0.484800	0.599700	0.223510
O1121	O112	0.490400	0.350300	0.155140
O1131	O113	0.570700	0.496800	0.137660
O1141	O114	0.268100	0.341400	0.250630
O1151	O115	0.423100	0.356200	0.230510
O1161	O116	0.640500	0.799500	0.103760
O1171	O117	0.475400	0.347400	0.263290
O1181	O118	0.776700	0.587700	0.216740
O1191	O119	0.823100	0.899400	0.133970
O1201	O120	0.362400	0.360900	0.181280
O1211	O121	0.393500	0.255700	0.199940
O1221	O122	0.646300	0.717100	0.155070
O1231	O123	0.728200	0.738100	0.177980
O1241	O124	0.775200	0.376100	0.205810
O1251	O125	0.561000	0.190000	0.201930
O1261	O126	0.389400	0.523700	0.153950
O1271	O127	0.635700	0.423200	0.185380
O1281	O128	0.734800	0.517600	0.164510
O1291	O129	0.439900	0.710100	0.253610
O1301	O130	0.631400	0.285500	0.235030
O1311	O131	0.506700	0.548300	0.105160
O1321	O132	0.827000	0.675700	0.139770
O1331	O133	0.732900	0.573500	0.108560
O1341	O134	0.846200	0.761500	0.108450
O1351	O135	0.906000	0.652900	0.096670
O1361	O136	0.185700	0.540200	0.849870
O1371	O137	0.001500	0.461500	0.868470
O1381	O138	0.114900	0.515200	0.890170
O1391	O139	0.859900	0.509600	0.821800
O1401	O140	0.926100	0.429300	0.804320
O1411	O141	0.073300	0.731900	0.917290
O1421	O142	0.933100	0.576900	0.897170
O1431	O143	0.159000	0.359500	0.770420
O1441	O144	0.872000	0.524600	0.929950
O1451	O145	0.811000	0.223300	0.883400
O1461	O146	0.076300	0.176900	0.800630
O1471	O147	0.998500	0.637600	0.847940
O1481	O148	0.862200	0.606500	0.866600
O1491	O149	0.070800	0.353700	0.821730
O1501	O150	0.009900	0.271800	0.844640
O1511	O151	0.600900	0.224800	0.872470
O1521	O152	0.629000	0.439000	0.868590
O1531	O153	0.134300	0.610600	0.820610
O1541	O154	0.787500	0.364300	0.852040
O1551	O155	0.782800	0.265200	0.831170
O1561	O156	0.270200	0.560100	0.920270
O1571	O157	0.654100	0.368600	0.901690
O1581	O158	0.041600	0.493300	0.771820
O1591	O159	0.848700	0.173000	0.806430
O1601	O160	0.840600	0.267100	0.775220
O1611	O161	0.915300	0.153800	0.775110
O1621	O162	0.746900	0.094000	0.763330
O1631	O163	0.459800	0.814300	0.650130
O1641	O164	0.538500	0.998500	0.631530
O1651	O165	0.484800	0.885100	0.609830
O1661	O166	0.490400	0.140100	0.678200
O1671	O167	0.570700	0.073900	0.695680
O1681	O168	0.268100	0.926700	0.582710
O1691	O169	0.423100	0.066900	0.602830
O1701	O170	0.640500	0.841000	0.729580
O1711	O171	0.475400	0.128000	0.570050
O1721	O172	0.776700	0.189000	0.616600
O1731	O173	0.823100	0.923700	0.699370
O1741	O174	0.362400	0.001500	0.652060
O1751	O175	0.393500	0.137800	0.633400
O1761	O176	0.646300	0.929200	0.678270
O1771	O177	0.728200	0.990100	0.655360
O1781	O178	0.775200	0.399100	0.627530
O1791	O179	0.561000	0.371000	0.631410
O1801	O180	0.389400	0.865700	0.679390
O1811	O181	0.635700	0.212500	0.647960
O1821	O182	0.734800	0.217200	0.668830
O1831	O183	0.439900	0.729800	0.579730
O1841	O184	0.631400	0.345900	0.598310
O1851	O185	0.506700	0.958400	0.728180
O1861	O186	0.827000	0.151300	0.693570
O1871	O187	0.732900	0.159400	0.724780
O1881	O188	0.846200	0.084700	0.724890
O1891	O189	0.906000	0.253100	0.736670
O1901	O190	0.185700	0.645500	0.983460
O1911	O191	0.001500	0.540000	0.964860
O1921	O192	0.114900	0.599700	0.943160
O1931	O193	0.859900	0.350300	0.011530
O1941	O194	0.926100	0.496800	0.029010
O1951	O195	0.073300	0.341400	0.916040
O1961	O196	0.933100	0.356200	0.936160
O1971	O197	0.159000	0.799500	0.062910
O1981	O198	0.872000	0.347400	0.903380
O1991	O199	0.811000	0.587700	0.949930
O2001	O200	0.076300	0.899400	0.032700
O2011	O201	0.998500	0.360900	0.985390
O2021	O202	0.862200	0.255700	0.966730
O2031	O203	0.070800	0.717100	0.011600
O2041	O204	0.009900	0.738100	0.988690
O2051	O205	0.600900	0.376100	0.960860
O2061	O206	0.629000	0.190000	0.964740
O2071	O207	0.134300	0.523700	0.012720
O2081	O208	0.787500	0.423200	0.981290
O2091	O209	0.782800	0.517600	0.002160
O2101	O210	0.270200	0.710100	0.913060
O2111	O211	0.654100	0.285500	0.931640
O2121	O212	0.041600	0.548300	0.061510
O2131	O213	0.848700	0.675700	0.026900
O2141	O214	0.840600	0.573500	0.058110
O2151	O215	0.915300	0.761500	0.058220
O2161	O216	0.746900	0.652900	0.070000
O2171	O217	0.354500	0.540200	0.316790
O2181	O218	0.460000	0.461500	0.298190
O2191	O219	0.400300	0.515200	0.276490
O2201	O220	0.649700	0.509600	0.344860
O2211	O221	0.503200	0.429300	0.362340
O2221	O222	0.658600	0.731900	0.249370
O2231	O223	0.643800	0.576900	0.269490
O2241	O224	0.200500	0.359500	0.396240
O2251	O225	0.652600	0.524600	0.236710
O2261	O226	0.412300	0.223300	0.283260
O2271	O227	0.100600	0.176900	0.366030
O2281	O228	0.639100	0.637600	0.318720
O2291	O229	0.744300	0.606500	0.300060
O2301	O230	0.282900	0.353700	0.344930
O2311	O231	0.261900	0.271800	0.322020
O2321	O232	0.623900	0.224800	0.294190
O2331	O233	0.810000	0.439000	0.298070
O2341	O234	0.476300	0.610600	0.346050
O2351	O235	0.576800	0.364300	0.314620
O2361	O236	0.482400	0.265200	0.335490
O2371	O237	0.289900	0.560100	0.246390
O2381	O238	0.714500	0.368600	0.264970
O2391	O239	0.451700	0.493300	0.394840
O2401	O240	0.324300	0.173000	0.360230
O2411	O241	0.426500	0.267100	0.391440
O2421	O242	0.238500	0.153800	0.391550
O2431	O243	0.347100	0.094000	0.403330
O2441	O244	0.540200	0.185700	0.150130
O2451	O245	0.461500	0.001500	0.131530
O2461	O246	0.515200	0.114900	0.109830
O2471	O247	0.509600	0.859900	0.178200
O2481	O248	0.429300	0.926100	0.195680
O2491	O249	0.731900	0.073300	0.082710
O2501	O250	0.576900	0.933100	0.102830
O2511	O251	0.359500	0.159000	0.229580
O2521	O252	0.524600	0.872000	0.070050
O2531	O253	0.223300	0.811000	0.116600
O2541	O254	0.176900	0.076300	0.199370
O2551	O255	0.637600	0.998500	0.152060
O2561	O256	0.606500	0.862200	0.133400
O2571	O257	0.353700	0.070800	0.178270
O2581	O258	0.271800	0.009900	0.155360
O2591	O259	0.224800	0.600900	0.127530
O2601	O260	0.439000	0.629000	0.131410
O2611	O261	0.610600	0.134300	0.179390
O2621	O262	0.364300	0.787500	0.147960
O2631	O263	0.265200	0.782800	0.168830
O2641	O264	0.560100	0.270200	0.079730
O2651	O265	0.368600	0.654100	0.098310
O2661	O266	0.493300	0.041600	0.228180
O2671	O267	0.173000	0.848700	0.193570
O2681	O268	0.267100	0.840600	0.224780
O2691	O269	0.153800	0.915300	0.224890
O2701	O270	0.094000	0.746900	0.236670
O2711	O271	0.814300	0.354500	0.483460
O2721	O272	0.998500	0.460000	0.464860
O2731	O273	0.885100	0.400300	0.443160
O2741	O274	0.140100	0.649700	0.511530
O2751	O275	0.073900	0.503200	0.529010
O2761	O276	0.926700	0.658600	0.416040
O2771	O277	0.066900	0.643800	0.436160
O2781	O278	0.841000	0.200500	0.562910
O2791	O279	0.128000	0.652600	0.403380
O2801	O280	0.189000	0.412300	0.449930
O2811	O281	0.923700	0.100600	0.532700
O2821	O282	0.001500	0.639100	0.485390
O2831	O283	0.137800	0.744300	0.466730
O2841	O284	0.929200	0.282900	0.511600
O2851	O285	0.990100	0.261900	0.488690
O2861	O286	0.399100	0.623900	0.460860
O2871	O287	0.371000	0.810000	0.464740
O2881	O288	0.865700	0.476300	0.512720
O2891	O289	0.212500	0.576800	0.481290
O2901	O290	0.217200	0.482400	0.502160
O2911	O291	0.729800	0.289900	0.413060
O2921	O292	0.345900	0.714500	0.431640
O2931	O293	0.958400	0.451700	0.561510
O2941	O294	0.151300	0.324300	0.526900
O2951	O295	0.159400	0.426500	0.558110
O2961	O296	0.084700	0.238500	0.558220
O2971	O297	0.253100	0.347100	0.570000
O2981	O298	0.645500	0.459800	0.816790
O2991	O299	0.540000	0.538500	0.798190
O3001	O300	0.599700	0.484800	0.776490
O3011	O301	0.350300	0.490400	0.844860
O3021	O302	0.496800	0.570700	0.862340
O3031	O303	0.341400	0.268100	0.749370
O3041	O304	0.356200	0.423100	0.769490
O3051	O305	0.799500	0.640500	0.896240
O3061	O306	0.347400	0.475400	0.736710
O3071	O307	0.587700	0.776700	0.783260
O3081	O308	0.899400	0.823100	0.866030
O3091	O309	0.360900	0.362400	0.818720
O3101	O310	0.255700	0.393500	0.800060
O3111	O311	0.717100	0.646300	0.844930
O3121	O312	0.738100	0.728200	0.822020
O3131	O313	0.376100	0.775200	0.794190
O3141	O314	0.190000	0.561000	0.798070
O3151	O315	0.523700	0.389400	0.846050
O3161	O316	0.423200	0.635700	0.814620
O3171	O317	0.517600	0.734800	0.835490
O3181	O318	0.710100	0.439900	0.746390
O3191	O319	0.285500	0.631400	0.764970
O3201	O320	0.548300	0.506700	0.894840
O3211	O321	0.675700	0.827000	0.860230
O3221	O322	0.573500	0.732900	0.891440
O3231	O323	0.761500	0.846200	0.891550
O3241	O324	0.652900	0.906000	0.903330
C2411	C241	0.270400	0.256900	0.105600
O3251	O325	0.347300	0.273300	0.094910
O3261	O326	0.294900	0.344300	0.114530
O3271	O327	0.192200	0.149800	0.109340
C2421	C242	0.986500	0.729600	0.772270
O3281	O328	0.926000	0.652700	0.761580
O3291	O329	0.049400	0.705100	0.781200
O3301	O330	0.957600	0.807800	0.776010
C2431	C243	0.743100	0.013500	0.438930
O3311	O331	0.726700	0.074000	0.428240
O3321	O332	0.655700	0.950600	0.447860
O3331	O333	0.850200	0.042400	0.442670
C2441	C244	0.729600	0.743100	0.605600
O3341	O334	0.652700	0.726700	0.594910
O3351	O335	0.705100	0.655700	0.614530
O3361	O336	0.807800	0.850200	0.609340
C2451	C245	0.013500	0.270400	0.272270
O3371	O337	0.074000	0.347300	0.261580
O3381	O338	0.950600	0.294900	0.281200
O3391	O339	0.042400	0.192200	0.276010
C2461	C246	0.256900	0.986500	0.938930
O3401	O340	0.273300	0.926000	0.928240
O3411	O341	0.344300	0.049400	0.947860
O3421	O342	0.149800	0.957600	0.942670
C2471	C247	0.013500	0.743100	0.561070
O3431	O343	0.074000	0.726700	0.571760
O3441	O344	0.950600	0.655700	0.552140
O3451	O345	0.042400	0.850200	0.557330
C2481	C248	0.256900	0.270400	0.894400
O3461	O346	0.273300	0.347300	0.905090
O3471	O347	0.344300	0.294900	0.885470
O3481	O348	0.149800	0.192200	0.890660
C2491	C249	0.729600	0.986500	0.227730
O3491	O349	0.652700	0.926000	0.238420
O3501	O350	0.705100	0.049400	0.218800
O3511	O351	0.807800	0.957600	0.223990
C2501	C250	0.986500	0.256900	0.061070
O3521	O352	0.926000	0.273300	0.071760
O3531	O353	0.049400	0.344300	0.052140
O3541	O354	0.957600	0.149800	0.057330
C2511	C251	0.743100	0.729600	0.394400
O3551	O355	0.726700	0.652700	0.405090
O3561	O356	0.655700	0.705100	0.385470
O3571	O357	0.850200	0.807800	0.390660
C2521	C252	0.270400	0.013500	0.727730
O3581	O358	0.347300	0.074000	0.738420
O3591	O359	0.294900	0.950600	0.718800
O3601	O360	0.192200	0.042400	0.723990
