data_UDOVOA_clean_PM
_symmetry_space_group_name_H-M	'P1'
_cell_length_a	32.652000
_cell_length_b	32.652000
_cell_length_c	32.652000
_cell_angle_alpha	90.000000
_cell_angle_beta	90.000000
_cell_angle_gamma	90.000000
_symmetry_Int_Tables_number 1

loop_
_symmetry_equiv_pos_as_xyz
'x,y,z'

loop_
_atom_site_label
_atom_site_type_symbol
_atom_site_fract_x
_atom_site_fract_y
_atom_site_fract_z
Zn11	Zn1	0.308220	0.637520	0.025700
Zn21	Zn2	0.137930	0.584040	0.983070
P11	P1	0.204190	0.638410	0.026810
P21	P2	0.135210	0.495240	0.941240
O11	O1	0.084170	0.644830	0.178480
O21	O2	0.069990	0.643440	0.112230
O31	O3	0.249920	0.638930	0.022290
O41	O4	0.184470	0.673930	0.004810
O51	O5	0.186230	0.597450	0.013970
O61	O6	0.206130	0.414600	0.061400
O71	O7	0.172500	0.358200	0.074400
O81	O8	0.141340	0.526770	0.974810
O91	O9	0.173940	0.491140	0.916350
O101	O10	0.097880	0.504280	0.915150
C11	C1	0.094070	0.645030	0.141580
C21	C2	0.138820	0.646700	0.131340
C31	C3	0.151230	0.643070	0.091660
H11	H1	0.131500	0.639600	0.071400
C41	C4	0.191690	0.644400	0.080340
C51	C5	0.220700	0.651400	0.110600
H21	H2	0.248300	0.653800	0.103700
C61	C6	0.208600	0.654900	0.150900
H31	H3	0.228200	0.658700	0.171200
C71	C7	0.168300	0.652700	0.161200
H41	H4	0.160500	0.655300	0.188400
C81	C8	0.176000	0.391100	0.055800
C91	C9	0.147000	0.401800	0.022800
C101	C10	0.152730	0.436920	0.000360
H51	H5	0.174600	0.454000	0.006700
C111	C11	0.126430	0.447680	0.968210
C121	C12	0.093800	0.422300	0.960400
H61	H6	0.076000	0.428700	0.939200
C131	C13	0.087000	0.388200	0.982700
H71	H7	0.064800	0.371500	0.976400
C141	C14	0.112800	0.378000	0.014900
H81	H8	0.107100	0.355200	0.031100
Zn31	Zn3	0.191780	0.862480	0.025700
Zn41	Zn4	0.362070	0.915960	0.983070
P31	P3	0.295810	0.861590	0.026810
P41	P4	0.364790	0.004760	0.941240
O111	O11	0.415830	0.855170	0.178480
O121	O12	0.430010	0.856560	0.112230
O131	O13	0.250080	0.861070	0.022290
O141	O14	0.315530	0.826070	0.004810
O151	O15	0.313770	0.902550	0.013970
O161	O16	0.293870	0.085400	0.061400
O171	O17	0.327500	0.141800	0.074400
O181	O18	0.358660	0.973230	0.974810
O191	O19	0.326060	0.008860	0.916350
O201	O20	0.402120	0.995720	0.915150
C151	C15	0.405930	0.854970	0.141580
C161	C16	0.361180	0.853300	0.131340
C171	C17	0.348770	0.856930	0.091660
H91	H9	0.368500	0.860400	0.071400
C181	C18	0.308310	0.855600	0.080340
C191	C19	0.279300	0.848600	0.110600
H101	H10	0.251700	0.846200	0.103700
C201	C20	0.291400	0.845100	0.150900
H111	H11	0.271800	0.841300	0.171200
C211	C21	0.331700	0.847300	0.161200
H121	H12	0.339500	0.844700	0.188400
C221	C22	0.324000	0.108900	0.055800
C231	C23	0.353000	0.098200	0.022800
C241	C24	0.347270	0.063080	0.000360
H131	H13	0.325400	0.046000	0.006700
C251	C25	0.373570	0.052320	0.968210
C261	C26	0.406200	0.077700	0.960400
H141	H14	0.424000	0.071300	0.939200
C271	C27	0.413000	0.111800	0.982700
H151	H15	0.435200	0.128500	0.976400
C281	C28	0.387200	0.122000	0.014900
H161	H16	0.392900	0.144800	0.031100
Zn51	Zn5	0.191780	0.637520	0.474300
Zn61	Zn6	0.362070	0.584040	0.516930
P51	P5	0.295810	0.638410	0.473190
P61	P6	0.364790	0.495240	0.558760
O211	O21	0.415830	0.644830	0.321520
O221	O22	0.430010	0.643440	0.387770
O231	O23	0.250080	0.638930	0.477710
O241	O24	0.315530	0.673930	0.495190
O251	O25	0.313770	0.597450	0.486030
O261	O26	0.293870	0.414600	0.438600
O271	O27	0.327500	0.358200	0.425600
O281	O28	0.358660	0.526770	0.525190
O291	O29	0.326060	0.491140	0.583650
O301	O30	0.402120	0.504280	0.584850
C291	C29	0.405930	0.645030	0.358420
C301	C30	0.361180	0.646700	0.368660
C311	C31	0.348770	0.643070	0.408340
H171	H17	0.368500	0.639600	0.428600
C321	C32	0.308310	0.644400	0.419660
C331	C33	0.279300	0.651400	0.389400
H181	H18	0.251700	0.653800	0.396300
C341	C34	0.291400	0.654900	0.349100
H191	H19	0.271800	0.658700	0.328800
C351	C35	0.331700	0.652700	0.338800
H201	H20	0.339500	0.655300	0.311600
C361	C36	0.324000	0.391100	0.444200
C371	C37	0.353000	0.401800	0.477200
C381	C38	0.347270	0.436920	0.499640
H211	H21	0.325400	0.454000	0.493300
C391	C39	0.373570	0.447680	0.531790
C401	C40	0.406200	0.422300	0.539600
H221	H22	0.424000	0.428700	0.560800
C411	C41	0.413000	0.388200	0.517300
H231	H23	0.435200	0.371500	0.523600
C421	C42	0.387200	0.378000	0.485100
H241	H24	0.392900	0.355200	0.468900
Zn71	Zn7	0.308220	0.862480	0.474300
Zn81	Zn8	0.137930	0.915960	0.516930
P71	P7	0.204190	0.861590	0.473190
P81	P8	0.135210	0.004760	0.558760
O311	O31	0.084170	0.855170	0.321520
O321	O32	0.069990	0.856560	0.387770
O331	O33	0.249920	0.861070	0.477710
O341	O34	0.184470	0.826070	0.495190
O351	O35	0.186230	0.902550	0.486030
O361	O36	0.206130	0.085400	0.438600
O371	O37	0.172500	0.141800	0.425600
O381	O38	0.141340	0.973230	0.525190
O391	O39	0.173940	0.008860	0.583650
O401	O40	0.097880	0.995720	0.584850
C431	C43	0.094070	0.854970	0.358420
C441	C44	0.138820	0.853300	0.368660
C451	C45	0.151230	0.856930	0.408340
H251	H25	0.131500	0.860400	0.428600
C461	C46	0.191690	0.855600	0.419660
C471	C47	0.220700	0.848600	0.389400
H261	H26	0.248300	0.846200	0.396300
C481	C48	0.208600	0.845100	0.349100
H271	H27	0.228200	0.841300	0.328800
C491	C49	0.168300	0.847300	0.338800
H281	H28	0.160500	0.844700	0.311600
C501	C50	0.176000	0.108900	0.444200
C511	C51	0.147000	0.098200	0.477200
C521	C52	0.152730	0.063080	0.499640
H291	H29	0.174600	0.046000	0.493300
C531	C53	0.126430	0.052320	0.531790
C541	C54	0.093800	0.077700	0.539600
H301	H30	0.076000	0.071300	0.560800
C551	C55	0.087000	0.111800	0.517300
H311	H31	0.064800	0.128500	0.523600
C561	C56	0.112800	0.122000	0.485100
H321	H32	0.107100	0.144800	0.468900
Zn91	Zn9	0.025700	0.308220	0.637520
Zn101	Zn10	0.983070	0.137930	0.584040
P91	P9	0.026810	0.204190	0.638410
P101	P10	0.941240	0.135210	0.495240
O411	O41	0.178480	0.084170	0.644830
O421	O42	0.112230	0.069990	0.643440
O431	O43	0.022290	0.249920	0.638930
O441	O44	0.004810	0.184470	0.673930
O451	O45	0.013970	0.186230	0.597450
O461	O46	0.061400	0.206130	0.414600
O471	O47	0.074400	0.172500	0.358200
O481	O48	0.974810	0.141340	0.526770
O491	O49	0.916350	0.173940	0.491140
O501	O50	0.915150	0.097880	0.504280
C571	C57	0.141580	0.094070	0.645030
C581	C58	0.131340	0.138820	0.646700
C591	C59	0.091660	0.151230	0.643070
H331	H33	0.071400	0.131500	0.639600
C601	C60	0.080340	0.191690	0.644400
C611	C61	0.110600	0.220700	0.651400
H341	H34	0.103700	0.248300	0.653800
C621	C62	0.150900	0.208600	0.654900
H351	H35	0.171200	0.228200	0.658700
C631	C63	0.161200	0.168300	0.652700
H361	H36	0.188400	0.160500	0.655300
C641	C64	0.055800	0.176000	0.391100
C651	C65	0.022800	0.147000	0.401800
C661	C66	0.000360	0.152730	0.436920
H371	H37	0.006700	0.174600	0.454000
C671	C67	0.968210	0.126430	0.447680
C681	C68	0.960400	0.093800	0.422300
H381	H38	0.939200	0.076000	0.428700
C691	C69	0.982700	0.087000	0.388200
H391	H39	0.976400	0.064800	0.371500
C701	C70	0.014900	0.112800	0.378000
H401	H40	0.031100	0.107100	0.355200
Zn111	Zn11	0.025700	0.191780	0.862480
Zn121	Zn12	0.983070	0.362070	0.915960
P111	P11	0.026810	0.295810	0.861590
P121	P12	0.941240	0.364790	0.004760
O511	O51	0.178480	0.415830	0.855170
O521	O52	0.112230	0.430010	0.856560
O531	O53	0.022290	0.250080	0.861070
O541	O54	0.004810	0.315530	0.826070
O551	O55	0.013970	0.313770	0.902550
O561	O56	0.061400	0.293870	0.085400
O571	O57	0.074400	0.327500	0.141800
O581	O58	0.974810	0.358660	0.973230
O591	O59	0.916350	0.326060	0.008860
O601	O60	0.915150	0.402120	0.995720
C711	C71	0.141580	0.405930	0.854970
C721	C72	0.131340	0.361180	0.853300
C731	C73	0.091660	0.348770	0.856930
H411	H41	0.071400	0.368500	0.860400
C741	C74	0.080340	0.308310	0.855600
C751	C75	0.110600	0.279300	0.848600
H421	H42	0.103700	0.251700	0.846200
C761	C76	0.150900	0.291400	0.845100
H431	H43	0.171200	0.271800	0.841300
C771	C77	0.161200	0.331700	0.847300
H441	H44	0.188400	0.339500	0.844700
C781	C78	0.055800	0.324000	0.108900
C791	C79	0.022800	0.353000	0.098200
C801	C80	0.000360	0.347270	0.063080
H451	H45	0.006700	0.325400	0.046000
C811	C81	0.968210	0.373570	0.052320
C821	C82	0.960400	0.406200	0.077700
H461	H46	0.939200	0.424000	0.071300
C831	C83	0.982700	0.413000	0.111800
H471	H47	0.976400	0.435200	0.128500
C841	C84	0.014900	0.387200	0.122000
H481	H48	0.031100	0.392900	0.144800
Zn131	Zn13	0.474300	0.191780	0.637520
Zn141	Zn14	0.516930	0.362070	0.584040
P131	P13	0.473190	0.295810	0.638410
P141	P14	0.558760	0.364790	0.495240
O611	O61	0.321520	0.415830	0.644830
O621	O62	0.387770	0.430010	0.643440
O631	O63	0.477710	0.250080	0.638930
O641	O64	0.495190	0.315530	0.673930
O651	O65	0.486030	0.313770	0.597450
O661	O66	0.438600	0.293870	0.414600
O671	O67	0.425600	0.327500	0.358200
O681	O68	0.525190	0.358660	0.526770
O691	O69	0.583650	0.326060	0.491140
O701	O70	0.584850	0.402120	0.504280
C851	C85	0.358420	0.405930	0.645030
C861	C86	0.368660	0.361180	0.646700
C871	C87	0.408340	0.348770	0.643070
H491	H49	0.428600	0.368500	0.639600
C881	C88	0.419660	0.308310	0.644400
C891	C89	0.389400	0.279300	0.651400
H501	H50	0.396300	0.251700	0.653800
C901	C90	0.349100	0.291400	0.654900
H511	H51	0.328800	0.271800	0.658700
C911	C91	0.338800	0.331700	0.652700
H521	H52	0.311600	0.339500	0.655300
C921	C92	0.444200	0.324000	0.391100
C931	C93	0.477200	0.353000	0.401800
C941	C94	0.499640	0.347270	0.436920
H531	H53	0.493300	0.325400	0.454000
C951	C95	0.531790	0.373570	0.447680
C961	C96	0.539600	0.406200	0.422300
H541	H54	0.560800	0.424000	0.428700
C971	C97	0.517300	0.413000	0.388200
H551	H55	0.523600	0.435200	0.371500
C981	C98	0.485100	0.387200	0.378000
H561	H56	0.468900	0.392900	0.355200
Zn151	Zn15	0.474300	0.308220	0.862480
Zn161	Zn16	0.516930	0.137930	0.915960
P151	P15	0.473190	0.204190	0.861590
P161	P16	0.558760	0.135210	0.004760
O711	O71	0.321520	0.084170	0.855170
O721	O72	0.387770	0.069990	0.856560
O731	O73	0.477710	0.249920	0.861070
O741	O74	0.495190	0.184470	0.826070
O751	O75	0.486030	0.186230	0.902550
O761	O76	0.438600	0.206130	0.085400
O771	O77	0.425600	0.172500	0.141800
O781	O78	0.525190	0.141340	0.973230
O791	O79	0.583650	0.173940	0.008860
O801	O80	0.584850	0.097880	0.995720
C991	C99	0.358420	0.094070	0.854970
C1001	C100	0.368660	0.138820	0.853300
C1011	C101	0.408340	0.151230	0.856930
H571	H57	0.428600	0.131500	0.860400
C1021	C102	0.419660	0.191690	0.855600
C1031	C103	0.389400	0.220700	0.848600
H581	H58	0.396300	0.248300	0.846200
C1041	C104	0.349100	0.208600	0.845100
H591	H59	0.328800	0.228200	0.841300
C1051	C105	0.338800	0.168300	0.847300
H601	H60	0.311600	0.160500	0.844700
C1061	C106	0.444200	0.176000	0.108900
C1071	C107	0.477200	0.147000	0.098200
C1081	C108	0.499640	0.152730	0.063080
H611	H61	0.493300	0.174600	0.046000
C1091	C109	0.531790	0.126430	0.052320
C1101	C110	0.539600	0.093800	0.077700
H621	H62	0.560800	0.076000	0.071300
C1111	C111	0.517300	0.087000	0.111800
H631	H63	0.523600	0.064800	0.128500
C1121	C112	0.485100	0.112800	0.122000
H641	H64	0.468900	0.107100	0.144800
Zn171	Zn17	0.637520	0.025700	0.308220
Zn181	Zn18	0.584040	0.983070	0.137930
P171	P17	0.638410	0.026810	0.204190
P181	P18	0.495240	0.941240	0.135210
O811	O81	0.644830	0.178480	0.084170
O821	O82	0.643440	0.112230	0.069990
O831	O83	0.638930	0.022290	0.249920
O841	O84	0.673930	0.004810	0.184470
O851	O85	0.597450	0.013970	0.186230
O861	O86	0.414600	0.061400	0.206130
O871	O87	0.358200	0.074400	0.172500
O881	O88	0.526770	0.974810	0.141340
O891	O89	0.491140	0.916350	0.173940
O901	O90	0.504280	0.915150	0.097880
C1131	C113	0.645030	0.141580	0.094070
C1141	C114	0.646700	0.131340	0.138820
C1151	C115	0.643070	0.091660	0.151230
H651	H65	0.639600	0.071400	0.131500
C1161	C116	0.644400	0.080340	0.191690
C1171	C117	0.651400	0.110600	0.220700
H661	H66	0.653800	0.103700	0.248300
C1181	C118	0.654900	0.150900	0.208600
H671	H67	0.658700	0.171200	0.228200
C1191	C119	0.652700	0.161200	0.168300
H681	H68	0.655300	0.188400	0.160500
C1201	C120	0.391100	0.055800	0.176000
C1211	C121	0.401800	0.022800	0.147000
C1221	C122	0.436920	0.000360	0.152730
H691	H69	0.454000	0.006700	0.174600
C1231	C123	0.447680	0.968210	0.126430
C1241	C124	0.422300	0.960400	0.093800
H701	H70	0.428700	0.939200	0.076000
C1251	C125	0.388200	0.982700	0.087000
H711	H71	0.371500	0.976400	0.064800
C1261	C126	0.378000	0.014900	0.112800
H721	H72	0.355200	0.031100	0.107100
Zn191	Zn19	0.862480	0.025700	0.191780
Zn201	Zn20	0.915960	0.983070	0.362070
P191	P19	0.861590	0.026810	0.295810
P201	P20	0.004760	0.941240	0.364790
O911	O91	0.855170	0.178480	0.415830
O921	O92	0.856560	0.112230	0.430010
O931	O93	0.861070	0.022290	0.250080
O941	O94	0.826070	0.004810	0.315530
O951	O95	0.902550	0.013970	0.313770
O961	O96	0.085400	0.061400	0.293870
O971	O97	0.141800	0.074400	0.327500
O981	O98	0.973230	0.974810	0.358660
O991	O99	0.008860	0.916350	0.326060
O1001	O100	0.995720	0.915150	0.402120
C1271	C127	0.854970	0.141580	0.405930
C1281	C128	0.853300	0.131340	0.361180
C1291	C129	0.856930	0.091660	0.348770
H731	H73	0.860400	0.071400	0.368500
C1301	C130	0.855600	0.080340	0.308310
C1311	C131	0.848600	0.110600	0.279300
H741	H74	0.846200	0.103700	0.251700
C1321	C132	0.845100	0.150900	0.291400
H751	H75	0.841300	0.171200	0.271800
C1331	C133	0.847300	0.161200	0.331700
H761	H76	0.844700	0.188400	0.339500
C1341	C134	0.108900	0.055800	0.324000
C1351	C135	0.098200	0.022800	0.353000
C1361	C136	0.063080	0.000360	0.347270
H771	H77	0.046000	0.006700	0.325400
C1371	C137	0.052320	0.968210	0.373570
C1381	C138	0.077700	0.960400	0.406200
H781	H78	0.071300	0.939200	0.424000
C1391	C139	0.111800	0.982700	0.413000
H791	H79	0.128500	0.976400	0.435200
C1401	C140	0.122000	0.014900	0.387200
H801	H80	0.144800	0.031100	0.392900
Zn211	Zn21	0.637520	0.474300	0.191780
Zn221	Zn22	0.584040	0.516930	0.362070
P211	P21	0.638410	0.473190	0.295810
P221	P22	0.495240	0.558760	0.364790
O1011	O101	0.644830	0.321520	0.415830
O1021	O102	0.643440	0.387770	0.430010
O1031	O103	0.638930	0.477710	0.250080
O1041	O104	0.673930	0.495190	0.315530
O1051	O105	0.597450	0.486030	0.313770
O1061	O106	0.414600	0.438600	0.293870
O1071	O107	0.358200	0.425600	0.327500
O1081	O108	0.526770	0.525190	0.358660
O1091	O109	0.491140	0.583650	0.326060
O1101	O110	0.504280	0.584850	0.402120
C1411	C141	0.645030	0.358420	0.405930
C1421	C142	0.646700	0.368660	0.361180
C1431	C143	0.643070	0.408340	0.348770
H811	H81	0.639600	0.428600	0.368500
C1441	C144	0.644400	0.419660	0.308310
C1451	C145	0.651400	0.389400	0.279300
H821	H82	0.653800	0.396300	0.251700
C1461	C146	0.654900	0.349100	0.291400
H831	H83	0.658700	0.328800	0.271800
C1471	C147	0.652700	0.338800	0.331700
H841	H84	0.655300	0.311600	0.339500
C1481	C148	0.391100	0.444200	0.324000
C1491	C149	0.401800	0.477200	0.353000
C1501	C150	0.436920	0.499640	0.347270
H851	H85	0.454000	0.493300	0.325400
C1511	C151	0.447680	0.531790	0.373570
C1521	C152	0.422300	0.539600	0.406200
H861	H86	0.428700	0.560800	0.424000
C1531	C153	0.388200	0.517300	0.413000
H871	H87	0.371500	0.523600	0.435200
C1541	C154	0.378000	0.485100	0.387200
H881	H88	0.355200	0.468900	0.392900
Zn231	Zn23	0.862480	0.474300	0.308220
Zn241	Zn24	0.915960	0.516930	0.137930
P231	P23	0.861590	0.473190	0.204190
P241	P24	0.004760	0.558760	0.135210
O1111	O111	0.855170	0.321520	0.084170
O1121	O112	0.856560	0.387770	0.069990
O1131	O113	0.861070	0.477710	0.249920
O1141	O114	0.826070	0.495190	0.184470
O1151	O115	0.902550	0.486030	0.186230
O1161	O116	0.085400	0.438600	0.206130
O1171	O117	0.141800	0.425600	0.172500
O1181	O118	0.973230	0.525190	0.141340
O1191	O119	0.008860	0.583650	0.173940
O1201	O120	0.995720	0.584850	0.097880
C1551	C155	0.854970	0.358420	0.094070
C1561	C156	0.853300	0.368660	0.138820
C1571	C157	0.856930	0.408340	0.151230
H891	H89	0.860400	0.428600	0.131500
C1581	C158	0.855600	0.419660	0.191690
C1591	C159	0.848600	0.389400	0.220700
H901	H90	0.846200	0.396300	0.248300
C1601	C160	0.845100	0.349100	0.208600
H911	H91	0.841300	0.328800	0.228200
C1611	C161	0.847300	0.338800	0.168300
H921	H92	0.844700	0.311600	0.160500
C1621	C162	0.108900	0.444200	0.176000
C1631	C163	0.098200	0.477200	0.147000
C1641	C164	0.063080	0.499640	0.152730
H931	H93	0.046000	0.493300	0.174600
C1651	C165	0.052320	0.531790	0.126430
C1661	C166	0.077700	0.539600	0.093800
H941	H94	0.071300	0.560800	0.076000
C1671	C167	0.111800	0.517300	0.087000
H951	H95	0.128500	0.523600	0.064800
C1681	C168	0.122000	0.485100	0.112800
H961	H96	0.144800	0.468900	0.107100
Zn251	Zn25	0.637520	0.308220	0.474300
Zn261	Zn26	0.584040	0.137930	0.516930
P251	P25	0.638410	0.204190	0.473190
P261	P26	0.495240	0.135210	0.558760
O1211	O121	0.644830	0.084170	0.321520
O1221	O122	0.643440	0.069990	0.387770
O1231	O123	0.638930	0.249920	0.477710
O1241	O124	0.673930	0.184470	0.495190
O1251	O125	0.597450	0.186230	0.486030
O1261	O126	0.414600	0.206130	0.438600
O1271	O127	0.358200	0.172500	0.425600
O1281	O128	0.526770	0.141340	0.525190
O1291	O129	0.491140	0.173940	0.583650
O1301	O130	0.504280	0.097880	0.584850
C1691	C169	0.645030	0.094070	0.358420
C1701	C170	0.646700	0.138820	0.368660
C1711	C171	0.643070	0.151230	0.408340
H971	H97	0.639600	0.131500	0.428600
C1721	C172	0.644400	0.191690	0.419660
C1731	C173	0.651400	0.220700	0.389400
H981	H98	0.653800	0.248300	0.396300
C1741	C174	0.654900	0.208600	0.349100
H991	H99	0.658700	0.228200	0.328800
C1751	C175	0.652700	0.168300	0.338800
H1001	H100	0.655300	0.160500	0.311600
C1761	C176	0.391100	0.176000	0.444200
C1771	C177	0.401800	0.147000	0.477200
C1781	C178	0.436920	0.152730	0.499640
H1011	H101	0.454000	0.174600	0.493300
C1791	C179	0.447680	0.126430	0.531790
C1801	C180	0.422300	0.093800	0.539600
H1021	H102	0.428700	0.076000	0.560800
C1811	C181	0.388200	0.087000	0.517300
H1031	H103	0.371500	0.064800	0.523600
C1821	C182	0.378000	0.112800	0.485100
H1041	H104	0.355200	0.107100	0.468900
Zn271	Zn27	0.862480	0.191780	0.474300
Zn281	Zn28	0.915960	0.362070	0.516930
P271	P27	0.861590	0.295810	0.473190
P281	P28	0.004760	0.364790	0.558760
O1311	O131	0.855170	0.415830	0.321520
O1321	O132	0.856560	0.430010	0.387770
O1331	O133	0.861070	0.250080	0.477710
O1341	O134	0.826070	0.315530	0.495190
O1351	O135	0.902550	0.313770	0.486030
O1361	O136	0.085400	0.293870	0.438600
O1371	O137	0.141800	0.327500	0.425600
O1381	O138	0.973230	0.358660	0.525190
O1391	O139	0.008860	0.326060	0.583650
O1401	O140	0.995720	0.402120	0.584850
C1831	C183	0.854970	0.405930	0.358420
C1841	C184	0.853300	0.361180	0.368660
C1851	C185	0.856930	0.348770	0.408340
H1051	H105	0.860400	0.368500	0.428600
C1861	C186	0.855600	0.308310	0.419660
C1871	C187	0.848600	0.279300	0.389400
H1061	H106	0.846200	0.251700	0.396300
C1881	C188	0.845100	0.291400	0.349100
H1071	H107	0.841300	0.271800	0.328800
C1891	C189	0.847300	0.331700	0.338800
H1081	H108	0.844700	0.339500	0.311600
C1901	C190	0.108900	0.324000	0.444200
C1911	C191	0.098200	0.353000	0.477200
C1921	C192	0.063080	0.347270	0.499640
H1091	H109	0.046000	0.325400	0.493300
C1931	C193	0.052320	0.373570	0.531790
C1941	C194	0.077700	0.406200	0.539600
H1101	H110	0.071300	0.424000	0.560800
C1951	C195	0.111800	0.413000	0.517300
H1111	H111	0.128500	0.435200	0.523600
C1961	C196	0.122000	0.387200	0.485100
H1121	H112	0.144800	0.392900	0.468900
Zn291	Zn29	0.637520	0.191780	0.025700
Zn301	Zn30	0.584040	0.362070	0.983070
P291	P29	0.638410	0.295810	0.026810
P301	P30	0.495240	0.364790	0.941240
O1411	O141	0.644830	0.415830	0.178480
O1421	O142	0.643440	0.430010	0.112230
O1431	O143	0.638930	0.250080	0.022290
O1441	O144	0.673930	0.315530	0.004810
O1451	O145	0.597450	0.313770	0.013970
O1461	O146	0.414600	0.293870	0.061400
O1471	O147	0.358200	0.327500	0.074400
O1481	O148	0.526770	0.358660	0.974810
O1491	O149	0.491140	0.326060	0.916350
O1501	O150	0.504280	0.402120	0.915150
C1971	C197	0.645030	0.405930	0.141580
C1981	C198	0.646700	0.361180	0.131340
C1991	C199	0.643070	0.348770	0.091660
H1131	H113	0.639600	0.368500	0.071400
C2001	C200	0.644400	0.308310	0.080340
C2011	C201	0.651400	0.279300	0.110600
H1141	H114	0.653800	0.251700	0.103700
C2021	C202	0.654900	0.291400	0.150900
H1151	H115	0.658700	0.271800	0.171200
C2031	C203	0.652700	0.331700	0.161200
H1161	H116	0.655300	0.339500	0.188400
C2041	C204	0.391100	0.324000	0.055800
C2051	C205	0.401800	0.353000	0.022800
C2061	C206	0.436920	0.347270	0.000360
H1171	H117	0.454000	0.325400	0.006700
C2071	C207	0.447680	0.373570	0.968210
C2081	C208	0.422300	0.406200	0.960400
H1181	H118	0.428700	0.424000	0.939200
C2091	C209	0.388200	0.413000	0.982700
H1191	H119	0.371500	0.435200	0.976400
C2101	C210	0.378000	0.387200	0.014900
H1201	H120	0.355200	0.392900	0.031100
Zn311	Zn31	0.862480	0.308220	0.025700
Zn321	Zn32	0.915960	0.137930	0.983070
P311	P31	0.861590	0.204190	0.026810
P321	P32	0.004760	0.135210	0.941240
O1511	O151	0.855170	0.084170	0.178480
O1521	O152	0.856560	0.069990	0.112230
O1531	O153	0.861070	0.249920	0.022290
O1541	O154	0.826070	0.184470	0.004810
O1551	O155	0.902550	0.186230	0.013970
O1561	O156	0.085400	0.206130	0.061400
O1571	O157	0.141800	0.172500	0.074400
O1581	O158	0.973230	0.141340	0.974810
O1591	O159	0.008860	0.173940	0.916350
O1601	O160	0.995720	0.097880	0.915150
C2111	C211	0.854970	0.094070	0.141580
C2121	C212	0.853300	0.138820	0.131340
C2131	C213	0.856930	0.151230	0.091660
H1211	H121	0.860400	0.131500	0.071400
C2141	C214	0.855600	0.191690	0.080340
C2151	C215	0.848600	0.220700	0.110600
H1221	H122	0.846200	0.248300	0.103700
C2161	C216	0.845100	0.208600	0.150900
H1231	H123	0.841300	0.228200	0.171200
C2171	C217	0.847300	0.168300	0.161200
H1241	H124	0.844700	0.160500	0.188400
C2181	C218	0.108900	0.176000	0.055800
C2191	C219	0.098200	0.147000	0.022800
C2201	C220	0.063080	0.152730	0.000360
H1251	H125	0.046000	0.174600	0.006700
C2211	C221	0.052320	0.126430	0.968210
C2221	C222	0.077700	0.093800	0.960400
H1261	H126	0.071300	0.076000	0.939200
C2231	C223	0.111800	0.087000	0.982700
H1271	H127	0.128500	0.064800	0.976400
C2241	C224	0.122000	0.112800	0.014900
H1281	H128	0.144800	0.107100	0.031100
Zn331	Zn33	0.308220	0.025700	0.862480
Zn341	Zn34	0.137930	0.983070	0.915960
P331	P33	0.204190	0.026810	0.861590
P341	P34	0.135210	0.941240	0.004760
O1611	O161	0.084170	0.178480	0.855170
O1621	O162	0.069990	0.112230	0.856560
O1631	O163	0.249920	0.022290	0.861070
O1641	O164	0.184470	0.004810	0.826070
O1651	O165	0.186230	0.013970	0.902550
O1661	O166	0.206130	0.061400	0.085400
O1671	O167	0.172500	0.074400	0.141800
O1681	O168	0.141340	0.974810	0.973230
O1691	O169	0.173940	0.916350	0.008860
O1701	O170	0.097880	0.915150	0.995720
C2251	C225	0.094070	0.141580	0.854970
C2261	C226	0.138820	0.131340	0.853300
C2271	C227	0.151230	0.091660	0.856930
H1291	H129	0.131500	0.071400	0.860400
C2281	C228	0.191690	0.080340	0.855600
C2291	C229	0.220700	0.110600	0.848600
H1301	H130	0.248300	0.103700	0.846200
C2301	C230	0.208600	0.150900	0.845100
H1311	H131	0.228200	0.171200	0.841300
C2311	C231	0.168300	0.161200	0.847300
H1321	H132	0.160500	0.188400	0.844700
C2321	C232	0.176000	0.055800	0.108900
C2331	C233	0.147000	0.022800	0.098200
C2341	C234	0.152730	0.000360	0.063080
H1331	H133	0.174600	0.006700	0.046000
C2351	C235	0.126430	0.968210	0.052320
C2361	C236	0.093800	0.960400	0.077700
H1341	H134	0.076000	0.939200	0.071300
C2371	C237	0.087000	0.982700	0.111800
H1351	H135	0.064800	0.976400	0.128500
C2381	C238	0.112800	0.014900	0.122000
H1361	H136	0.107100	0.031100	0.144800
Zn351	Zn35	0.191780	0.025700	0.637520
Zn361	Zn36	0.362070	0.983070	0.584040
P351	P35	0.295810	0.026810	0.638410
P361	P36	0.364790	0.941240	0.495240
O1711	O171	0.415830	0.178480	0.644830
O1721	O172	0.430010	0.112230	0.643440
O1731	O173	0.250080	0.022290	0.638930
O1741	O174	0.315530	0.004810	0.673930
O1751	O175	0.313770	0.013970	0.597450
O1761	O176	0.293870	0.061400	0.414600
O1771	O177	0.327500	0.074400	0.358200
O1781	O178	0.358660	0.974810	0.526770
O1791	O179	0.326060	0.916350	0.491140
O1801	O180	0.402120	0.915150	0.504280
C2391	C239	0.405930	0.141580	0.645030
C2401	C240	0.361180	0.131340	0.646700
C2411	C241	0.348770	0.091660	0.643070
H1371	H137	0.368500	0.071400	0.639600
C2421	C242	0.308310	0.080340	0.644400
C2431	C243	0.279300	0.110600	0.651400
H1381	H138	0.251700	0.103700	0.653800
C2441	C244	0.291400	0.150900	0.654900
H1391	H139	0.271800	0.171200	0.658700
C2451	C245	0.331700	0.161200	0.652700
H1401	H140	0.339500	0.188400	0.655300
C2461	C246	0.324000	0.055800	0.391100
C2471	C247	0.353000	0.022800	0.401800
C2481	C248	0.347270	0.000360	0.436920
H1411	H141	0.325400	0.006700	0.454000
C2491	C249	0.373570	0.968210	0.447680
C2501	C250	0.406200	0.960400	0.422300
H1421	H142	0.424000	0.939200	0.428700
C2511	C251	0.413000	0.982700	0.388200
H1431	H143	0.435200	0.976400	0.371500
C2521	C252	0.387200	0.014900	0.378000
H1441	H144	0.392900	0.031100	0.355200
Zn371	Zn37	0.191780	0.474300	0.862480
Zn381	Zn38	0.362070	0.516930	0.915960
P371	P37	0.295810	0.473190	0.861590
P381	P38	0.364790	0.558760	0.004760
O1811	O181	0.415830	0.321520	0.855170
O1821	O182	0.430010	0.387770	0.856560
O1831	O183	0.250080	0.477710	0.861070
O1841	O184	0.315530	0.495190	0.826070
O1851	O185	0.313770	0.486030	0.902550
O1861	O186	0.293870	0.438600	0.085400
O1871	O187	0.327500	0.425600	0.141800
O1881	O188	0.358660	0.525190	0.973230
O1891	O189	0.326060	0.583650	0.008860
O1901	O190	0.402120	0.584850	0.995720
C2531	C253	0.405930	0.358420	0.854970
C2541	C254	0.361180	0.368660	0.853300
C2551	C255	0.348770	0.408340	0.856930
H1451	H145	0.368500	0.428600	0.860400
C2561	C256	0.308310	0.419660	0.855600
C2571	C257	0.279300	0.389400	0.848600
H1461	H146	0.251700	0.396300	0.846200
C2581	C258	0.291400	0.349100	0.845100
H1471	H147	0.271800	0.328800	0.841300
C2591	C259	0.331700	0.338800	0.847300
H1481	H148	0.339500	0.311600	0.844700
C2601	C260	0.324000	0.444200	0.108900
C2611	C261	0.353000	0.477200	0.098200
C2621	C262	0.347270	0.499640	0.063080
H1491	H149	0.325400	0.493300	0.046000
C2631	C263	0.373570	0.531790	0.052320
C2641	C264	0.406200	0.539600	0.077700
H1501	H150	0.424000	0.560800	0.071300
C2651	C265	0.413000	0.517300	0.111800
H1511	H151	0.435200	0.523600	0.128500
C2661	C266	0.387200	0.485100	0.122000
H1521	H152	0.392900	0.468900	0.144800
Zn391	Zn39	0.308220	0.474300	0.637520
Zn401	Zn40	0.137930	0.516930	0.584040
P391	P39	0.204190	0.473190	0.638410
P401	P40	0.135210	0.558760	0.495240
O1911	O191	0.084170	0.321520	0.644830
O1921	O192	0.069990	0.387770	0.643440
O1931	O193	0.249920	0.477710	0.638930
O1941	O194	0.184470	0.495190	0.673930
O1951	O195	0.186230	0.486030	0.597450
O1961	O196	0.206130	0.438600	0.414600
O1971	O197	0.172500	0.425600	0.358200
O1981	O198	0.141340	0.525190	0.526770
O1991	O199	0.173940	0.583650	0.491140
O2001	O200	0.097880	0.584850	0.504280
C2671	C267	0.094070	0.358420	0.645030
C2681	C268	0.138820	0.368660	0.646700
C2691	C269	0.151230	0.408340	0.643070
H1531	H153	0.131500	0.428600	0.639600
C2701	C270	0.191690	0.419660	0.644400
C2711	C271	0.220700	0.389400	0.651400
H1541	H154	0.248300	0.396300	0.653800
C2721	C272	0.208600	0.349100	0.654900
H1551	H155	0.228200	0.328800	0.658700
C2731	C273	0.168300	0.338800	0.652700
H1561	H156	0.160500	0.311600	0.655300
C2741	C274	0.176000	0.444200	0.391100
C2751	C275	0.147000	0.477200	0.401800
C2761	C276	0.152730	0.499640	0.436920
H1571	H157	0.174600	0.493300	0.454000
C2771	C277	0.126430	0.531790	0.447680
C2781	C278	0.093800	0.539600	0.422300
H1581	H158	0.076000	0.560800	0.428700
C2791	C279	0.087000	0.517300	0.388200
H1591	H159	0.064800	0.523600	0.371500
C2801	C280	0.112800	0.485100	0.378000
H1601	H160	0.107100	0.468900	0.355200
Zn411	Zn41	0.025700	0.637520	0.191780
Zn421	Zn42	0.983070	0.584040	0.362070
P411	P41	0.026810	0.638410	0.295810
P421	P42	0.941240	0.495240	0.364790
O2011	O201	0.178480	0.644830	0.415830
O2021	O202	0.112230	0.643440	0.430010
O2031	O203	0.022290	0.638930	0.250080
O2041	O204	0.004810	0.673930	0.315530
O2051	O205	0.013970	0.597450	0.313770
O2061	O206	0.061400	0.414600	0.293870
O2071	O207	0.074400	0.358200	0.327500
O2081	O208	0.974810	0.526770	0.358660
O2091	O209	0.916350	0.491140	0.326060
O2101	O210	0.915150	0.504280	0.402120
C2811	C281	0.141580	0.645030	0.405930
C2821	C282	0.131340	0.646700	0.361180
C2831	C283	0.091660	0.643070	0.348770
H1611	H161	0.071400	0.639600	0.368500
C2841	C284	0.080340	0.644400	0.308310
C2851	C285	0.110600	0.651400	0.279300
H1621	H162	0.103700	0.653800	0.251700
C2861	C286	0.150900	0.654900	0.291400
H1631	H163	0.171200	0.658700	0.271800
C2871	C287	0.161200	0.652700	0.331700
H1641	H164	0.188400	0.655300	0.339500
C2881	C288	0.055800	0.391100	0.324000
C2891	C289	0.022800	0.401800	0.353000
C2901	C290	0.000360	0.436920	0.347270
H1651	H165	0.006700	0.454000	0.325400
C2911	C291	0.968210	0.447680	0.373570
C2921	C292	0.960400	0.422300	0.406200
H1661	H166	0.939200	0.428700	0.424000
C2931	C293	0.982700	0.388200	0.413000
H1671	H167	0.976400	0.371500	0.435200
C2941	C294	0.014900	0.378000	0.387200
H1681	H168	0.031100	0.355200	0.392900
Zn431	Zn43	0.025700	0.862480	0.308220
Zn441	Zn44	0.983070	0.915960	0.137930
P431	P43	0.026810	0.861590	0.204190
P441	P44	0.941240	0.004760	0.135210
O2111	O211	0.178480	0.855170	0.084170
O2121	O212	0.112230	0.856560	0.069990
O2131	O213	0.022290	0.861070	0.249920
O2141	O214	0.004810	0.826070	0.184470
O2151	O215	0.013970	0.902550	0.186230
O2161	O216	0.061400	0.085400	0.206130
O2171	O217	0.074400	0.141800	0.172500
O2181	O218	0.974810	0.973230	0.141340
O2191	O219	0.916350	0.008860	0.173940
O2201	O220	0.915150	0.995720	0.097880
C2951	C295	0.141580	0.854970	0.094070
C2961	C296	0.131340	0.853300	0.138820
C2971	C297	0.091660	0.856930	0.151230
H1691	H169	0.071400	0.860400	0.131500
C2981	C298	0.080340	0.855600	0.191690
C2991	C299	0.110600	0.848600	0.220700
H1701	H170	0.103700	0.846200	0.248300
C3001	C300	0.150900	0.845100	0.208600
H1711	H171	0.171200	0.841300	0.228200
C3011	C301	0.161200	0.847300	0.168300
H1721	H172	0.188400	0.844700	0.160500
C3021	C302	0.055800	0.108900	0.176000
C3031	C303	0.022800	0.098200	0.147000
C3041	C304	0.000360	0.063080	0.152730
H1731	H173	0.006700	0.046000	0.174600
C3051	C305	0.968210	0.052320	0.126430
C3061	C306	0.960400	0.077700	0.093800
H1741	H174	0.939200	0.071300	0.076000
C3071	C307	0.982700	0.111800	0.087000
H1751	H175	0.976400	0.128500	0.064800
C3081	C308	0.014900	0.122000	0.112800
H1761	H176	0.031100	0.144800	0.107100
Zn451	Zn45	0.474300	0.637520	0.308220
Zn461	Zn46	0.516930	0.584040	0.137930
P451	P45	0.473190	0.638410	0.204190
P461	P46	0.558760	0.495240	0.135210
O2211	O221	0.321520	0.644830	0.084170
O2221	O222	0.387770	0.643440	0.069990
O2231	O223	0.477710	0.638930	0.249920
O2241	O224	0.495190	0.673930	0.184470
O2251	O225	0.486030	0.597450	0.186230
O2261	O226	0.438600	0.414600	0.206130
O2271	O227	0.425600	0.358200	0.172500
O2281	O228	0.525190	0.526770	0.141340
O2291	O229	0.583650	0.491140	0.173940
O2301	O230	0.584850	0.504280	0.097880
C3091	C309	0.358420	0.645030	0.094070
C3101	C310	0.368660	0.646700	0.138820
C3111	C311	0.408340	0.643070	0.151230
H1771	H177	0.428600	0.639600	0.131500
C3121	C312	0.419660	0.644400	0.191690
C3131	C313	0.389400	0.651400	0.220700
H1781	H178	0.396300	0.653800	0.248300
C3141	C314	0.349100	0.654900	0.208600
H1791	H179	0.328800	0.658700	0.228200
C3151	C315	0.338800	0.652700	0.168300
H1801	H180	0.311600	0.655300	0.160500
C3161	C316	0.444200	0.391100	0.176000
C3171	C317	0.477200	0.401800	0.147000
C3181	C318	0.499640	0.436920	0.152730
H1811	H181	0.493300	0.454000	0.174600
C3191	C319	0.531790	0.447680	0.126430
C3201	C320	0.539600	0.422300	0.093800
H1821	H182	0.560800	0.428700	0.076000
C3211	C321	0.517300	0.388200	0.087000
H1831	H183	0.523600	0.371500	0.064800
C3221	C322	0.485100	0.378000	0.112800
H1841	H184	0.468900	0.355200	0.107100
Zn471	Zn47	0.474300	0.862480	0.191780
Zn481	Zn48	0.516930	0.915960	0.362070
P471	P47	0.473190	0.861590	0.295810
P481	P48	0.558760	0.004760	0.364790
O2311	O231	0.321520	0.855170	0.415830
O2321	O232	0.387770	0.856560	0.430010
O2331	O233	0.477710	0.861070	0.250080
O2341	O234	0.495190	0.826070	0.315530
O2351	O235	0.486030	0.902550	0.313770
O2361	O236	0.438600	0.085400	0.293870
O2371	O237	0.425600	0.141800	0.327500
O2381	O238	0.525190	0.973230	0.358660
O2391	O239	0.583650	0.008860	0.326060
O2401	O240	0.584850	0.995720	0.402120
C3231	C323	0.358420	0.854970	0.405930
C3241	C324	0.368660	0.853300	0.361180
C3251	C325	0.408340	0.856930	0.348770
H1851	H185	0.428600	0.860400	0.368500
C3261	C326	0.419660	0.855600	0.308310
C3271	C327	0.389400	0.848600	0.279300
H1861	H186	0.396300	0.846200	0.251700
C3281	C328	0.349100	0.845100	0.291400
H1871	H187	0.328800	0.841300	0.271800
C3291	C329	0.338800	0.847300	0.331700
H1881	H188	0.311600	0.844700	0.339500
C3301	C330	0.444200	0.108900	0.324000
C3311	C331	0.477200	0.098200	0.353000
C3321	C332	0.499640	0.063080	0.347270
H1891	H189	0.493300	0.046000	0.325400
C3331	C333	0.531790	0.052320	0.373570
C3341	C334	0.539600	0.077700	0.406200
H1901	H190	0.560800	0.071300	0.424000
C3351	C335	0.517300	0.111800	0.413000
H1911	H191	0.523600	0.128500	0.435200
C3361	C336	0.485100	0.122000	0.387200
H1921	H192	0.468900	0.144800	0.392900
Zn491	Zn49	0.691780	0.362480	0.974300
Zn501	Zn50	0.862070	0.415960	0.016930
P491	P49	0.795810	0.361590	0.973190
P501	P50	0.864790	0.504760	0.058760
O2411	O241	0.915830	0.355170	0.821520
O2421	O242	0.930010	0.356560	0.887770
O2431	O243	0.750080	0.361070	0.977710
O2441	O244	0.815530	0.326070	0.995190
O2451	O245	0.813770	0.402550	0.986030
O2461	O246	0.793870	0.585400	0.938600
O2471	O247	0.827500	0.641800	0.925600
O2481	O248	0.858660	0.473230	0.025190
O2491	O249	0.826060	0.508860	0.083650
O2501	O250	0.902120	0.495720	0.084850
C3371	C337	0.905930	0.354970	0.858420
C3381	C338	0.861180	0.353300	0.868660
C3391	C339	0.848770	0.356930	0.908340
H1931	H193	0.868500	0.360400	0.928600
C3401	C340	0.808310	0.355600	0.919660
C3411	C341	0.779300	0.348600	0.889400
H1941	H194	0.751700	0.346200	0.896300
C3421	C342	0.791400	0.345100	0.849100
H1951	H195	0.771800	0.341300	0.828800
C3431	C343	0.831700	0.347300	0.838800
H1961	H196	0.839500	0.344700	0.811600
C3441	C344	0.824000	0.608900	0.944200
C3451	C345	0.853000	0.598200	0.977200
C3461	C346	0.847270	0.563080	0.999640
H1971	H197	0.825400	0.546000	0.993300
C3471	C347	0.873570	0.552320	0.031790
C3481	C348	0.906200	0.577700	0.039600
H1981	H198	0.924000	0.571300	0.060800
C3491	C349	0.913000	0.611800	0.017300
H1991	H199	0.935200	0.628500	0.023600
C3501	C350	0.887200	0.622000	0.985100
H2001	H200	0.892900	0.644800	0.968900
Zn511	Zn51	0.808220	0.137520	0.974300
Zn521	Zn52	0.637930	0.084040	0.016930
P511	P51	0.704190	0.138410	0.973190
P521	P52	0.635210	0.995240	0.058760
O2511	O251	0.584170	0.144830	0.821520
O2521	O252	0.569990	0.143440	0.887770
O2531	O253	0.749920	0.138930	0.977710
O2541	O254	0.684470	0.173930	0.995190
O2551	O255	0.686230	0.097450	0.986030
O2561	O256	0.706130	0.914600	0.938600
O2571	O257	0.672500	0.858200	0.925600
O2581	O258	0.641340	0.026770	0.025190
O2591	O259	0.673940	0.991140	0.083650
O2601	O260	0.597880	0.004280	0.084850
C3511	C351	0.594070	0.145030	0.858420
C3521	C352	0.638820	0.146700	0.868660
C3531	C353	0.651230	0.143070	0.908340
H2011	H201	0.631500	0.139600	0.928600
C3541	C354	0.691690	0.144400	0.919660
C3551	C355	0.720700	0.151400	0.889400
H2021	H202	0.748300	0.153800	0.896300
C3561	C356	0.708600	0.154900	0.849100
H2031	H203	0.728200	0.158700	0.828800
C3571	C357	0.668300	0.152700	0.838800
H2041	H204	0.660500	0.155300	0.811600
C3581	C358	0.676000	0.891100	0.944200
C3591	C359	0.647000	0.901800	0.977200
C3601	C360	0.652730	0.936920	0.999640
H2051	H205	0.674600	0.954000	0.993300
C3611	C361	0.626430	0.947680	0.031790
C3621	C362	0.593800	0.922300	0.039600
H2061	H206	0.576000	0.928700	0.060800
C3631	C363	0.587000	0.888200	0.017300
H2071	H207	0.564800	0.871500	0.023600
C3641	C364	0.612800	0.878000	0.985100
H2081	H208	0.607100	0.855200	0.968900
Zn531	Zn53	0.808220	0.362480	0.525700
Zn541	Zn54	0.637930	0.415960	0.483070
P531	P53	0.704190	0.361590	0.526810
P541	P54	0.635210	0.504760	0.441240
O2611	O261	0.584170	0.355170	0.678480
O2621	O262	0.569990	0.356560	0.612230
O2631	O263	0.749920	0.361070	0.522290
O2641	O264	0.684470	0.326070	0.504810
O2651	O265	0.686230	0.402550	0.513970
O2661	O266	0.706130	0.585400	0.561400
O2671	O267	0.672500	0.641800	0.574400
O2681	O268	0.641340	0.473230	0.474810
O2691	O269	0.673940	0.508860	0.416350
O2701	O270	0.597880	0.495720	0.415150
C3651	C365	0.594070	0.354970	0.641580
C3661	C366	0.638820	0.353300	0.631340
C3671	C367	0.651230	0.356930	0.591660
H2091	H209	0.631500	0.360400	0.571400
C3681	C368	0.691690	0.355600	0.580340
C3691	C369	0.720700	0.348600	0.610600
H2101	H210	0.748300	0.346200	0.603700
C3701	C370	0.708600	0.345100	0.650900
H2111	H211	0.728200	0.341300	0.671200
C3711	C371	0.668300	0.347300	0.661200
H2121	H212	0.660500	0.344700	0.688400
C3721	C372	0.676000	0.608900	0.555800
C3731	C373	0.647000	0.598200	0.522800
C3741	C374	0.652730	0.563080	0.500360
H2131	H213	0.674600	0.546000	0.506700
C3751	C375	0.626430	0.552320	0.468210
C3761	C376	0.593800	0.577700	0.460400
H2141	H214	0.576000	0.571300	0.439200
C3771	C377	0.587000	0.611800	0.482700
H2151	H215	0.564800	0.628500	0.476400
C3781	C378	0.612800	0.622000	0.514900
H2161	H216	0.607100	0.644800	0.531100
Zn551	Zn55	0.691780	0.137520	0.525700
Zn561	Zn56	0.862070	0.084040	0.483070
P551	P55	0.795810	0.138410	0.526810
P561	P56	0.864790	0.995240	0.441240
O2711	O271	0.915830	0.144830	0.678480
O2721	O272	0.930010	0.143440	0.612230
O2731	O273	0.750080	0.138930	0.522290
O2741	O274	0.815530	0.173930	0.504810
O2751	O275	0.813770	0.097450	0.513970
O2761	O276	0.793870	0.914600	0.561400
O2771	O277	0.827500	0.858200	0.574400
O2781	O278	0.858660	0.026770	0.474810
O2791	O279	0.826060	0.991140	0.416350
O2801	O280	0.902120	0.004280	0.415150
C3791	C379	0.905930	0.145030	0.641580
C3801	C380	0.861180	0.146700	0.631340
C3811	C381	0.848770	0.143070	0.591660
H2171	H217	0.868500	0.139600	0.571400
C3821	C382	0.808310	0.144400	0.580340
C3831	C383	0.779300	0.151400	0.610600
H2181	H218	0.751700	0.153800	0.603700
C3841	C384	0.791400	0.154900	0.650900
H2191	H219	0.771800	0.158700	0.671200
C3851	C385	0.831700	0.152700	0.661200
H2201	H220	0.839500	0.155300	0.688400
C3861	C386	0.824000	0.891100	0.555800
C3871	C387	0.853000	0.901800	0.522800
C3881	C388	0.847270	0.936920	0.500360
H2211	H221	0.825400	0.954000	0.506700
C3891	C389	0.873570	0.947680	0.468210
C3901	C390	0.906200	0.922300	0.460400
H2221	H222	0.924000	0.928700	0.439200
C3911	C391	0.913000	0.888200	0.482700
H2231	H223	0.935200	0.871500	0.476400
C3921	C392	0.887200	0.878000	0.514900
H2241	H224	0.892900	0.855200	0.531100
Zn571	Zn57	0.974300	0.691780	0.362480
Zn581	Zn58	0.016930	0.862070	0.415960
P571	P57	0.973190	0.795810	0.361590
P581	P58	0.058760	0.864790	0.504760
O2811	O281	0.821520	0.915830	0.355170
O2821	O282	0.887770	0.930010	0.356560
O2831	O283	0.977710	0.750080	0.361070
O2841	O284	0.995190	0.815530	0.326070
O2851	O285	0.986030	0.813770	0.402550
O2861	O286	0.938600	0.793870	0.585400
O2871	O287	0.925600	0.827500	0.641800
O2881	O288	0.025190	0.858660	0.473230
O2891	O289	0.083650	0.826060	0.508860
O2901	O290	0.084850	0.902120	0.495720
C3931	C393	0.858420	0.905930	0.354970
C3941	C394	0.868660	0.861180	0.353300
C3951	C395	0.908340	0.848770	0.356930
H2251	H225	0.928600	0.868500	0.360400
C3961	C396	0.919660	0.808310	0.355600
C3971	C397	0.889400	0.779300	0.348600
H2261	H226	0.896300	0.751700	0.346200
C3981	C398	0.849100	0.791400	0.345100
H2271	H227	0.828800	0.771800	0.341300
C3991	C399	0.838800	0.831700	0.347300
H2281	H228	0.811600	0.839500	0.344700
C4001	C400	0.944200	0.824000	0.608900
C4011	C401	0.977200	0.853000	0.598200
C4021	C402	0.999640	0.847270	0.563080
H2291	H229	0.993300	0.825400	0.546000
C4031	C403	0.031790	0.873570	0.552320
C4041	C404	0.039600	0.906200	0.577700
H2301	H230	0.060800	0.924000	0.571300
C4051	C405	0.017300	0.913000	0.611800
H2311	H231	0.023600	0.935200	0.628500
C4061	C406	0.985100	0.887200	0.622000
H2321	H232	0.968900	0.892900	0.644800
Zn591	Zn59	0.974300	0.808220	0.137520
Zn601	Zn60	0.016930	0.637930	0.084040
P591	P59	0.973190	0.704190	0.138410
P601	P60	0.058760	0.635210	0.995240
O2911	O291	0.821520	0.584170	0.144830
O2921	O292	0.887770	0.569990	0.143440
O2931	O293	0.977710	0.749920	0.138930
O2941	O294	0.995190	0.684470	0.173930
O2951	O295	0.986030	0.686230	0.097450
O2961	O296	0.938600	0.706130	0.914600
O2971	O297	0.925600	0.672500	0.858200
O2981	O298	0.025190	0.641340	0.026770
O2991	O299	0.083650	0.673940	0.991140
O3001	O300	0.084850	0.597880	0.004280
C4071	C407	0.858420	0.594070	0.145030
C4081	C408	0.868660	0.638820	0.146700
C4091	C409	0.908340	0.651230	0.143070
H2331	H233	0.928600	0.631500	0.139600
C4101	C410	0.919660	0.691690	0.144400
C4111	C411	0.889400	0.720700	0.151400
H2341	H234	0.896300	0.748300	0.153800
C4121	C412	0.849100	0.708600	0.154900
H2351	H235	0.828800	0.728200	0.158700
C4131	C413	0.838800	0.668300	0.152700
H2361	H236	0.811600	0.660500	0.155300
C4141	C414	0.944200	0.676000	0.891100
C4151	C415	0.977200	0.647000	0.901800
C4161	C416	0.999640	0.652730	0.936920
H2371	H237	0.993300	0.674600	0.954000
C4171	C417	0.031790	0.626430	0.947680
C4181	C418	0.039600	0.593800	0.922300
H2381	H238	0.060800	0.576000	0.928700
C4191	C419	0.017300	0.587000	0.888200
H2391	H239	0.023600	0.564800	0.871500
C4201	C420	0.985100	0.612800	0.878000
H2401	H240	0.968900	0.607100	0.855200
Zn611	Zn61	0.525700	0.808220	0.362480
Zn621	Zn62	0.483070	0.637930	0.415960
P611	P61	0.526810	0.704190	0.361590
P621	P62	0.441240	0.635210	0.504760
O3011	O301	0.678480	0.584170	0.355170
O3021	O302	0.612230	0.569990	0.356560
O3031	O303	0.522290	0.749920	0.361070
O3041	O304	0.504810	0.684470	0.326070
O3051	O305	0.513970	0.686230	0.402550
O3061	O306	0.561400	0.706130	0.585400
O3071	O307	0.574400	0.672500	0.641800
O3081	O308	0.474810	0.641340	0.473230
O3091	O309	0.416350	0.673940	0.508860
O3101	O310	0.415150	0.597880	0.495720
C4211	C421	0.641580	0.594070	0.354970
C4221	C422	0.631340	0.638820	0.353300
C4231	C423	0.591660	0.651230	0.356930
H2411	H241	0.571400	0.631500	0.360400
C4241	C424	0.580340	0.691690	0.355600
C4251	C425	0.610600	0.720700	0.348600
H2421	H242	0.603700	0.748300	0.346200
C4261	C426	0.650900	0.708600	0.345100
H2431	H243	0.671200	0.728200	0.341300
C4271	C427	0.661200	0.668300	0.347300
H2441	H244	0.688400	0.660500	0.344700
C4281	C428	0.555800	0.676000	0.608900
C4291	C429	0.522800	0.647000	0.598200
C4301	C430	0.500360	0.652730	0.563080
H2451	H245	0.506700	0.674600	0.546000
C4311	C431	0.468210	0.626430	0.552320
C4321	C432	0.460400	0.593800	0.577700
H2461	H246	0.439200	0.576000	0.571300
C4331	C433	0.482700	0.587000	0.611800
H2471	H247	0.476400	0.564800	0.628500
C4341	C434	0.514900	0.612800	0.622000
H2481	H248	0.531100	0.607100	0.644800
Zn631	Zn63	0.525700	0.691780	0.137520
Zn641	Zn64	0.483070	0.862070	0.084040
P631	P63	0.526810	0.795810	0.138410
P641	P64	0.441240	0.864790	0.995240
O3111	O311	0.678480	0.915830	0.144830
O3121	O312	0.612230	0.930010	0.143440
O3131	O313	0.522290	0.750080	0.138930
O3141	O314	0.504810	0.815530	0.173930
O3151	O315	0.513970	0.813770	0.097450
O3161	O316	0.561400	0.793870	0.914600
O3171	O317	0.574400	0.827500	0.858200
O3181	O318	0.474810	0.858660	0.026770
O3191	O319	0.416350	0.826060	0.991140
O3201	O320	0.415150	0.902120	0.004280
C4351	C435	0.641580	0.905930	0.145030
C4361	C436	0.631340	0.861180	0.146700
C4371	C437	0.591660	0.848770	0.143070
H2491	H249	0.571400	0.868500	0.139600
C4381	C438	0.580340	0.808310	0.144400
C4391	C439	0.610600	0.779300	0.151400
H2501	H250	0.603700	0.751700	0.153800
C4401	C440	0.650900	0.791400	0.154900
H2511	H251	0.671200	0.771800	0.158700
C4411	C441	0.661200	0.831700	0.152700
H2521	H252	0.688400	0.839500	0.155300
C4421	C442	0.555800	0.824000	0.891100
C4431	C443	0.522800	0.853000	0.901800
C4441	C444	0.500360	0.847270	0.936920
H2531	H253	0.506700	0.825400	0.954000
C4451	C445	0.468210	0.873570	0.947680
C4461	C446	0.460400	0.906200	0.922300
H2541	H254	0.439200	0.924000	0.928700
C4471	C447	0.482700	0.913000	0.888200
H2551	H255	0.476400	0.935200	0.871500
C4481	C448	0.514900	0.887200	0.878000
H2561	H256	0.531100	0.892900	0.855200
Zn651	Zn65	0.362480	0.974300	0.691780
Zn661	Zn66	0.415960	0.016930	0.862070
P651	P65	0.361590	0.973190	0.795810
P661	P66	0.504760	0.058760	0.864790
O3211	O321	0.355170	0.821520	0.915830
O3221	O322	0.356560	0.887770	0.930010
O3231	O323	0.361070	0.977710	0.750080
O3241	O324	0.326070	0.995190	0.815530
O3251	O325	0.402550	0.986030	0.813770
O3261	O326	0.585400	0.938600	0.793870
O3271	O327	0.641800	0.925600	0.827500
O3281	O328	0.473230	0.025190	0.858660
O3291	O329	0.508860	0.083650	0.826060
O3301	O330	0.495720	0.084850	0.902120
C4491	C449	0.354970	0.858420	0.905930
C4501	C450	0.353300	0.868660	0.861180
C4511	C451	0.356930	0.908340	0.848770
H2571	H257	0.360400	0.928600	0.868500
C4521	C452	0.355600	0.919660	0.808310
C4531	C453	0.348600	0.889400	0.779300
H2581	H258	0.346200	0.896300	0.751700
C4541	C454	0.345100	0.849100	0.791400
H2591	H259	0.341300	0.828800	0.771800
C4551	C455	0.347300	0.838800	0.831700
H2601	H260	0.344700	0.811600	0.839500
C4561	C456	0.608900	0.944200	0.824000
C4571	C457	0.598200	0.977200	0.853000
C4581	C458	0.563080	0.999640	0.847270
H2611	H261	0.546000	0.993300	0.825400
C4591	C459	0.552320	0.031790	0.873570
C4601	C460	0.577700	0.039600	0.906200
H2621	H262	0.571300	0.060800	0.924000
C4611	C461	0.611800	0.017300	0.913000
H2631	H263	0.628500	0.023600	0.935200
C4621	C462	0.622000	0.985100	0.887200
H2641	H264	0.644800	0.968900	0.892900
Zn671	Zn67	0.137520	0.974300	0.808220
Zn681	Zn68	0.084040	0.016930	0.637930
P671	P67	0.138410	0.973190	0.704190
P681	P68	0.995240	0.058760	0.635210
O3311	O331	0.144830	0.821520	0.584170
O3321	O332	0.143440	0.887770	0.569990
O3331	O333	0.138930	0.977710	0.749920
O3341	O334	0.173930	0.995190	0.684470
O3351	O335	0.097450	0.986030	0.686230
O3361	O336	0.914600	0.938600	0.706130
O3371	O337	0.858200	0.925600	0.672500
O3381	O338	0.026770	0.025190	0.641340
O3391	O339	0.991140	0.083650	0.673940
O3401	O340	0.004280	0.084850	0.597880
C4631	C463	0.145030	0.858420	0.594070
C4641	C464	0.146700	0.868660	0.638820
C4651	C465	0.143070	0.908340	0.651230
H2651	H265	0.139600	0.928600	0.631500
C4661	C466	0.144400	0.919660	0.691690
C4671	C467	0.151400	0.889400	0.720700
H2661	H266	0.153800	0.896300	0.748300
C4681	C468	0.154900	0.849100	0.708600
H2671	H267	0.158700	0.828800	0.728200
C4691	C469	0.152700	0.838800	0.668300
H2681	H268	0.155300	0.811600	0.660500
C4701	C470	0.891100	0.944200	0.676000
C4711	C471	0.901800	0.977200	0.647000
C4721	C472	0.936920	0.999640	0.652730
H2691	H269	0.954000	0.993300	0.674600
C4731	C473	0.947680	0.031790	0.626430
C4741	C474	0.922300	0.039600	0.593800
H2701	H270	0.928700	0.060800	0.576000
C4751	C475	0.888200	0.017300	0.587000
H2711	H271	0.871500	0.023600	0.564800
C4761	C476	0.878000	0.985100	0.612800
H2721	H272	0.855200	0.968900	0.607100
Zn691	Zn69	0.362480	0.525700	0.808220
Zn701	Zn70	0.415960	0.483070	0.637930
P691	P69	0.361590	0.526810	0.704190
P701	P70	0.504760	0.441240	0.635210
O3411	O341	0.355170	0.678480	0.584170
O3421	O342	0.356560	0.612230	0.569990
O3431	O343	0.361070	0.522290	0.749920
O3441	O344	0.326070	0.504810	0.684470
O3451	O345	0.402550	0.513970	0.686230
O3461	O346	0.585400	0.561400	0.706130
O3471	O347	0.641800	0.574400	0.672500
O3481	O348	0.473230	0.474810	0.641340
O3491	O349	0.508860	0.416350	0.673940
O3501	O350	0.495720	0.415150	0.597880
C4771	C477	0.354970	0.641580	0.594070
C4781	C478	0.353300	0.631340	0.638820
C4791	C479	0.356930	0.591660	0.651230
H2731	H273	0.360400	0.571400	0.631500
C4801	C480	0.355600	0.580340	0.691690
C4811	C481	0.348600	0.610600	0.720700
H2741	H274	0.346200	0.603700	0.748300
C4821	C482	0.345100	0.650900	0.708600
H2751	H275	0.341300	0.671200	0.728200
C4831	C483	0.347300	0.661200	0.668300
H2761	H276	0.344700	0.688400	0.660500
C4841	C484	0.608900	0.555800	0.676000
C4851	C485	0.598200	0.522800	0.647000
C4861	C486	0.563080	0.500360	0.652730
H2771	H277	0.546000	0.506700	0.674600
C4871	C487	0.552320	0.468210	0.626430
C4881	C488	0.577700	0.460400	0.593800
H2781	H278	0.571300	0.439200	0.576000
C4891	C489	0.611800	0.482700	0.587000
H2791	H279	0.628500	0.476400	0.564800
C4901	C490	0.622000	0.514900	0.612800
H2801	H280	0.644800	0.531100	0.607100
Zn711	Zn71	0.137520	0.525700	0.691780
Zn721	Zn72	0.084040	0.483070	0.862070
P711	P71	0.138410	0.526810	0.795810
P721	P72	0.995240	0.441240	0.864790
O3511	O351	0.144830	0.678480	0.915830
O3521	O352	0.143440	0.612230	0.930010
O3531	O353	0.138930	0.522290	0.750080
O3541	O354	0.173930	0.504810	0.815530
O3551	O355	0.097450	0.513970	0.813770
O3561	O356	0.914600	0.561400	0.793870
O3571	O357	0.858200	0.574400	0.827500
O3581	O358	0.026770	0.474810	0.858660
O3591	O359	0.991140	0.416350	0.826060
O3601	O360	0.004280	0.415150	0.902120
C4911	C491	0.145030	0.641580	0.905930
C4921	C492	0.146700	0.631340	0.861180
C4931	C493	0.143070	0.591660	0.848770
H2811	H281	0.139600	0.571400	0.868500
C4941	C494	0.144400	0.580340	0.808310
C4951	C495	0.151400	0.610600	0.779300
H2821	H282	0.153800	0.603700	0.751700
C4961	C496	0.154900	0.650900	0.791400
H2831	H283	0.158700	0.671200	0.771800
C4971	C497	0.152700	0.661200	0.831700
H2841	H284	0.155300	0.688400	0.839500
C4981	C498	0.891100	0.555800	0.824000
C4991	C499	0.901800	0.522800	0.853000
C5001	C500	0.936920	0.500360	0.847270
H2851	H285	0.954000	0.506700	0.825400
C5011	C501	0.947680	0.468210	0.873570
C5021	C502	0.922300	0.460400	0.906200
H2861	H286	0.928700	0.439200	0.924000
C5031	C503	0.888200	0.482700	0.913000
H2871	H287	0.871500	0.476400	0.935200
C5041	C504	0.878000	0.514900	0.887200
H2881	H288	0.855200	0.531100	0.892900
Zn731	Zn73	0.362480	0.691780	0.525700
Zn741	Zn74	0.415960	0.862070	0.483070
P731	P73	0.361590	0.795810	0.526810
P741	P74	0.504760	0.864790	0.441240
O3611	O361	0.355170	0.915830	0.678480
O3621	O362	0.356560	0.930010	0.612230
O3631	O363	0.361070	0.750080	0.522290
O3641	O364	0.326070	0.815530	0.504810
O3651	O365	0.402550	0.813770	0.513970
O3661	O366	0.585400	0.793870	0.561400
O3671	O367	0.641800	0.827500	0.574400
O3681	O368	0.473230	0.858660	0.474810
O3691	O369	0.508860	0.826060	0.416350
O3701	O370	0.495720	0.902120	0.415150
C5051	C505	0.354970	0.905930	0.641580
C5061	C506	0.353300	0.861180	0.631340
C5071	C507	0.356930	0.848770	0.591660
H2891	H289	0.360400	0.868500	0.571400
C5081	C508	0.355600	0.808310	0.580340
C5091	C509	0.348600	0.779300	0.610600
H2901	H290	0.346200	0.751700	0.603700
C5101	C510	0.345100	0.791400	0.650900
H2911	H291	0.341300	0.771800	0.671200
C5111	C511	0.347300	0.831700	0.661200
H2921	H292	0.344700	0.839500	0.688400
C5121	C512	0.608900	0.824000	0.555800
C5131	C513	0.598200	0.853000	0.522800
C5141	C514	0.563080	0.847270	0.500360
H2931	H293	0.546000	0.825400	0.506700
C5151	C515	0.552320	0.873570	0.468210
C5161	C516	0.577700	0.906200	0.460400
H2941	H294	0.571300	0.924000	0.439200
C5171	C517	0.611800	0.913000	0.482700
H2951	H295	0.628500	0.935200	0.476400
C5181	C518	0.622000	0.887200	0.514900
H2961	H296	0.644800	0.892900	0.531100
Zn751	Zn75	0.137520	0.808220	0.525700
Zn761	Zn76	0.084040	0.637930	0.483070
P751	P75	0.138410	0.704190	0.526810
P761	P76	0.995240	0.635210	0.441240
O3711	O371	0.144830	0.584170	0.678480
O3721	O372	0.143440	0.569990	0.612230
O3731	O373	0.138930	0.749920	0.522290
O3741	O374	0.173930	0.684470	0.504810
O3751	O375	0.097450	0.686230	0.513970
O3761	O376	0.914600	0.706130	0.561400
O3771	O377	0.858200	0.672500	0.574400
O3781	O378	0.026770	0.641340	0.474810
O3791	O379	0.991140	0.673940	0.416350
O3801	O380	0.004280	0.597880	0.415150
C5191	C519	0.145030	0.594070	0.641580
C5201	C520	0.146700	0.638820	0.631340
C5211	C521	0.143070	0.651230	0.591660
H2971	H297	0.139600	0.631500	0.571400
C5221	C522	0.144400	0.691690	0.580340
C5231	C523	0.151400	0.720700	0.610600
H2981	H298	0.153800	0.748300	0.603700
C5241	C524	0.154900	0.708600	0.650900
H2991	H299	0.158700	0.728200	0.671200
C5251	C525	0.152700	0.668300	0.661200
H3001	H300	0.155300	0.660500	0.688400
C5261	C526	0.891100	0.676000	0.555800
C5271	C527	0.901800	0.647000	0.522800
C5281	C528	0.936920	0.652730	0.500360
H3011	H301	0.954000	0.674600	0.506700
C5291	C529	0.947680	0.626430	0.468210
C5301	C530	0.922300	0.593800	0.460400
H3021	H302	0.928700	0.576000	0.439200
C5311	C531	0.888200	0.587000	0.482700
H3031	H303	0.871500	0.564800	0.476400
C5321	C532	0.878000	0.612800	0.514900
H3041	H304	0.855200	0.607100	0.531100
Zn771	Zn77	0.362480	0.808220	0.974300
Zn781	Zn78	0.415960	0.637930	0.016930
P771	P77	0.361590	0.704190	0.973190
P781	P78	0.504760	0.635210	0.058760
O3811	O381	0.355170	0.584170	0.821520
O3821	O382	0.356560	0.569990	0.887770
O3831	O383	0.361070	0.749920	0.977710
O3841	O384	0.326070	0.684470	0.995190
O3851	O385	0.402550	0.686230	0.986030
O3861	O386	0.585400	0.706130	0.938600
O3871	O387	0.641800	0.672500	0.925600
O3881	O388	0.473230	0.641340	0.025190
O3891	O389	0.508860	0.673940	0.083650
O3901	O390	0.495720	0.597880	0.084850
C5331	C533	0.354970	0.594070	0.858420
C5341	C534	0.353300	0.638820	0.868660
C5351	C535	0.356930	0.651230	0.908340
H3051	H305	0.360400	0.631500	0.928600
C5361	C536	0.355600	0.691690	0.919660
C5371	C537	0.348600	0.720700	0.889400
H3061	H306	0.346200	0.748300	0.896300
C5381	C538	0.345100	0.708600	0.849100
H3071	H307	0.341300	0.728200	0.828800
C5391	C539	0.347300	0.668300	0.838800
H3081	H308	0.344700	0.660500	0.811600
C5401	C540	0.608900	0.676000	0.944200
C5411	C541	0.598200	0.647000	0.977200
C5421	C542	0.563080	0.652730	0.999640
H3091	H309	0.546000	0.674600	0.993300
C5431	C543	0.552320	0.626430	0.031790
C5441	C544	0.577700	0.593800	0.039600
H3101	H310	0.571300	0.576000	0.060800
C5451	C545	0.611800	0.587000	0.017300
H3111	H311	0.628500	0.564800	0.023600
C5461	C546	0.622000	0.612800	0.985100
H3121	H312	0.644800	0.607100	0.968900
Zn791	Zn79	0.137520	0.691780	0.974300
Zn801	Zn80	0.084040	0.862070	0.016930
P791	P79	0.138410	0.795810	0.973190
P801	P80	0.995240	0.864790	0.058760
O3911	O391	0.144830	0.915830	0.821520
O3921	O392	0.143440	0.930010	0.887770
O3931	O393	0.138930	0.750080	0.977710
O3941	O394	0.173930	0.815530	0.995190
O3951	O395	0.097450	0.813770	0.986030
O3961	O396	0.914600	0.793870	0.938600
O3971	O397	0.858200	0.827500	0.925600
O3981	O398	0.026770	0.858660	0.025190
O3991	O399	0.991140	0.826060	0.083650
O4001	O400	0.004280	0.902120	0.084850
C5471	C547	0.145030	0.905930	0.858420
C5481	C548	0.146700	0.861180	0.868660
C5491	C549	0.143070	0.848770	0.908340
H3131	H313	0.139600	0.868500	0.928600
C5501	C550	0.144400	0.808310	0.919660
C5511	C551	0.151400	0.779300	0.889400
H3141	H314	0.153800	0.751700	0.896300
C5521	C552	0.154900	0.791400	0.849100
H3151	H315	0.158700	0.771800	0.828800
C5531	C553	0.152700	0.831700	0.838800
H3161	H316	0.155300	0.839500	0.811600
C5541	C554	0.891100	0.824000	0.944200
C5551	C555	0.901800	0.853000	0.977200
C5561	C556	0.936920	0.847270	0.999640
H3171	H317	0.954000	0.825400	0.993300
C5571	C557	0.947680	0.873570	0.031790
C5581	C558	0.922300	0.906200	0.039600
H3181	H318	0.928700	0.924000	0.060800
C5591	C559	0.888200	0.913000	0.017300
H3191	H319	0.871500	0.935200	0.023600
C5601	C560	0.878000	0.887200	0.985100
H3201	H320	0.855200	0.892900	0.968900
Zn811	Zn81	0.691780	0.974300	0.137520
Zn821	Zn82	0.862070	0.016930	0.084040
P811	P81	0.795810	0.973190	0.138410
P821	P82	0.864790	0.058760	0.995240
O4011	O401	0.915830	0.821520	0.144830
O4021	O402	0.930010	0.887770	0.143440
O4031	O403	0.750080	0.977710	0.138930
O4041	O404	0.815530	0.995190	0.173930
O4051	O405	0.813770	0.986030	0.097450
O4061	O406	0.793870	0.938600	0.914600
O4071	O407	0.827500	0.925600	0.858200
O4081	O408	0.858660	0.025190	0.026770
O4091	O409	0.826060	0.083650	0.991140
O4101	O410	0.902120	0.084850	0.004280
C5611	C561	0.905930	0.858420	0.145030
C5621	C562	0.861180	0.868660	0.146700
C5631	C563	0.848770	0.908340	0.143070
H3211	H321	0.868500	0.928600	0.139600
C5641	C564	0.808310	0.919660	0.144400
C5651	C565	0.779300	0.889400	0.151400
H3221	H322	0.751700	0.896300	0.153800
C5661	C566	0.791400	0.849100	0.154900
H3231	H323	0.771800	0.828800	0.158700
C5671	C567	0.831700	0.838800	0.152700
H3241	H324	0.839500	0.811600	0.155300
C5681	C568	0.824000	0.944200	0.891100
C5691	C569	0.853000	0.977200	0.901800
C5701	C570	0.847270	0.999640	0.936920
H3251	H325	0.825400	0.993300	0.954000
C5711	C571	0.873570	0.031790	0.947680
C5721	C572	0.906200	0.039600	0.922300
H3261	H326	0.924000	0.060800	0.928700
C5731	C573	0.913000	0.017300	0.888200
H3271	H327	0.935200	0.023600	0.871500
C5741	C574	0.887200	0.985100	0.878000
H3281	H328	0.892900	0.968900	0.855200
Zn831	Zn83	0.808220	0.974300	0.362480
Zn841	Zn84	0.637930	0.016930	0.415960
P831	P83	0.704190	0.973190	0.361590
P841	P84	0.635210	0.058760	0.504760
O4111	O411	0.584170	0.821520	0.355170
O4121	O412	0.569990	0.887770	0.356560
O4131	O413	0.749920	0.977710	0.361070
O4141	O414	0.684470	0.995190	0.326070
O4151	O415	0.686230	0.986030	0.402550
O4161	O416	0.706130	0.938600	0.585400
O4171	O417	0.672500	0.925600	0.641800
O4181	O418	0.641340	0.025190	0.473230
O4191	O419	0.673940	0.083650	0.508860
O4201	O420	0.597880	0.084850	0.495720
C5751	C575	0.594070	0.858420	0.354970
C5761	C576	0.638820	0.868660	0.353300
C5771	C577	0.651230	0.908340	0.356930
H3291	H329	0.631500	0.928600	0.360400
C5781	C578	0.691690	0.919660	0.355600
C5791	C579	0.720700	0.889400	0.348600
H3301	H330	0.748300	0.896300	0.346200
C5801	C580	0.708600	0.849100	0.345100
H3311	H331	0.728200	0.828800	0.341300
C5811	C581	0.668300	0.838800	0.347300
H3321	H332	0.660500	0.811600	0.344700
C5821	C582	0.676000	0.944200	0.608900
C5831	C583	0.647000	0.977200	0.598200
C5841	C584	0.652730	0.999640	0.563080
H3331	H333	0.674600	0.993300	0.546000
C5851	C585	0.626430	0.031790	0.552320
C5861	C586	0.593800	0.039600	0.577700
H3341	H334	0.576000	0.060800	0.571300
C5871	C587	0.587000	0.017300	0.611800
H3351	H335	0.564800	0.023600	0.628500
C5881	C588	0.612800	0.985100	0.622000
H3361	H336	0.607100	0.968900	0.644800
Zn851	Zn85	0.808220	0.525700	0.137520
Zn861	Zn86	0.637930	0.483070	0.084040
P851	P85	0.704190	0.526810	0.138410
P861	P86	0.635210	0.441240	0.995240
O4211	O421	0.584170	0.678480	0.144830
O4221	O422	0.569990	0.612230	0.143440
O4231	O423	0.749920	0.522290	0.138930
O4241	O424	0.684470	0.504810	0.173930
O4251	O425	0.686230	0.513970	0.097450
O4261	O426	0.706130	0.561400	0.914600
O4271	O427	0.672500	0.574400	0.858200
O4281	O428	0.641340	0.474810	0.026770
O4291	O429	0.673940	0.416350	0.991140
O4301	O430	0.597880	0.415150	0.004280
C5891	C589	0.594070	0.641580	0.145030
C5901	C590	0.638820	0.631340	0.146700
C5911	C591	0.651230	0.591660	0.143070
H3371	H337	0.631500	0.571400	0.139600
C5921	C592	0.691690	0.580340	0.144400
C5931	C593	0.720700	0.610600	0.151400
H3381	H338	0.748300	0.603700	0.153800
C5941	C594	0.708600	0.650900	0.154900
H3391	H339	0.728200	0.671200	0.158700
C5951	C595	0.668300	0.661200	0.152700
H3401	H340	0.660500	0.688400	0.155300
C5961	C596	0.676000	0.555800	0.891100
C5971	C597	0.647000	0.522800	0.901800
C5981	C598	0.652730	0.500360	0.936920
H3411	H341	0.674600	0.506700	0.954000
C5991	C599	0.626430	0.468210	0.947680
C6001	C600	0.593800	0.460400	0.922300
H3421	H342	0.576000	0.439200	0.928700
C6011	C601	0.587000	0.482700	0.888200
H3431	H343	0.564800	0.476400	0.871500
C6021	C602	0.612800	0.514900	0.878000
H3441	H344	0.607100	0.531100	0.855200
Zn871	Zn87	0.691780	0.525700	0.362480
Zn881	Zn88	0.862070	0.483070	0.415960
P871	P87	0.795810	0.526810	0.361590
P881	P88	0.864790	0.441240	0.504760
O4311	O431	0.915830	0.678480	0.355170
O4321	O432	0.930010	0.612230	0.356560
O4331	O433	0.750080	0.522290	0.361070
O4341	O434	0.815530	0.504810	0.326070
O4351	O435	0.813770	0.513970	0.402550
O4361	O436	0.793870	0.561400	0.585400
O4371	O437	0.827500	0.574400	0.641800
O4381	O438	0.858660	0.474810	0.473230
O4391	O439	0.826060	0.416350	0.508860
O4401	O440	0.902120	0.415150	0.495720
C6031	C603	0.905930	0.641580	0.354970
C6041	C604	0.861180	0.631340	0.353300
C6051	C605	0.848770	0.591660	0.356930
H3451	H345	0.868500	0.571400	0.360400
C6061	C606	0.808310	0.580340	0.355600
C6071	C607	0.779300	0.610600	0.348600
H3461	H346	0.751700	0.603700	0.346200
C6081	C608	0.791400	0.650900	0.345100
H3471	H347	0.771800	0.671200	0.341300
C6091	C609	0.831700	0.661200	0.347300
H3481	H348	0.839500	0.688400	0.344700
C6101	C610	0.824000	0.555800	0.608900
C6111	C611	0.853000	0.522800	0.598200
C6121	C612	0.847270	0.500360	0.563080
H3491	H349	0.825400	0.506700	0.546000
C6131	C613	0.873570	0.468210	0.552320
C6141	C614	0.906200	0.460400	0.577700
H3501	H350	0.924000	0.439200	0.571300
C6151	C615	0.913000	0.482700	0.611800
H3511	H351	0.935200	0.476400	0.628500
C6161	C616	0.887200	0.514900	0.622000
H3521	H352	0.892900	0.531100	0.644800
Zn891	Zn89	0.974300	0.362480	0.808220
Zn901	Zn90	0.016930	0.415960	0.637930
P891	P89	0.973190	0.361590	0.704190
P901	P90	0.058760	0.504760	0.635210
O4411	O441	0.821520	0.355170	0.584170
O4421	O442	0.887770	0.356560	0.569990
O4431	O443	0.977710	0.361070	0.749920
O4441	O444	0.995190	0.326070	0.684470
O4451	O445	0.986030	0.402550	0.686230
O4461	O446	0.938600	0.585400	0.706130
O4471	O447	0.925600	0.641800	0.672500
O4481	O448	0.025190	0.473230	0.641340
O4491	O449	0.083650	0.508860	0.673940
O4501	O450	0.084850	0.495720	0.597880
C6171	C617	0.858420	0.354970	0.594070
C6181	C618	0.868660	0.353300	0.638820
C6191	C619	0.908340	0.356930	0.651230
H3531	H353	0.928600	0.360400	0.631500
C6201	C620	0.919660	0.355600	0.691690
C6211	C621	0.889400	0.348600	0.720700
H3541	H354	0.896300	0.346200	0.748300
C6221	C622	0.849100	0.345100	0.708600
H3551	H355	0.828800	0.341300	0.728200
C6231	C623	0.838800	0.347300	0.668300
H3561	H356	0.811600	0.344700	0.660500
C6241	C624	0.944200	0.608900	0.676000
C6251	C625	0.977200	0.598200	0.647000
C6261	C626	0.999640	0.563080	0.652730
H3571	H357	0.993300	0.546000	0.674600
C6271	C627	0.031790	0.552320	0.626430
C6281	C628	0.039600	0.577700	0.593800
H3581	H358	0.060800	0.571300	0.576000
C6291	C629	0.017300	0.611800	0.587000
H3591	H359	0.023600	0.628500	0.564800
C6301	C630	0.985100	0.622000	0.612800
H3601	H360	0.968900	0.644800	0.607100
Zn911	Zn91	0.974300	0.137520	0.691780
Zn921	Zn92	0.016930	0.084040	0.862070
P911	P91	0.973190	0.138410	0.795810
P921	P92	0.058760	0.995240	0.864790
O4511	O451	0.821520	0.144830	0.915830
O4521	O452	0.887770	0.143440	0.930010
O4531	O453	0.977710	0.138930	0.750080
O4541	O454	0.995190	0.173930	0.815530
O4551	O455	0.986030	0.097450	0.813770
O4561	O456	0.938600	0.914600	0.793870
O4571	O457	0.925600	0.858200	0.827500
O4581	O458	0.025190	0.026770	0.858660
O4591	O459	0.083650	0.991140	0.826060
O4601	O460	0.084850	0.004280	0.902120
C6311	C631	0.858420	0.145030	0.905930
C6321	C632	0.868660	0.146700	0.861180
C6331	C633	0.908340	0.143070	0.848770
H3611	H361	0.928600	0.139600	0.868500
C6341	C634	0.919660	0.144400	0.808310
C6351	C635	0.889400	0.151400	0.779300
H3621	H362	0.896300	0.153800	0.751700
C6361	C636	0.849100	0.154900	0.791400
H3631	H363	0.828800	0.158700	0.771800
C6371	C637	0.838800	0.152700	0.831700
H3641	H364	0.811600	0.155300	0.839500
C6381	C638	0.944200	0.891100	0.824000
C6391	C639	0.977200	0.901800	0.853000
C6401	C640	0.999640	0.936920	0.847270
H3651	H365	0.993300	0.954000	0.825400
C6411	C641	0.031790	0.947680	0.873570
C6421	C642	0.039600	0.922300	0.906200
H3661	H366	0.060800	0.928700	0.924000
C6431	C643	0.017300	0.888200	0.913000
H3671	H367	0.023600	0.871500	0.935200
C6441	C644	0.985100	0.878000	0.887200
H3681	H368	0.968900	0.855200	0.892900
Zn931	Zn93	0.525700	0.362480	0.691780
Zn941	Zn94	0.483070	0.415960	0.862070
P931	P93	0.526810	0.361590	0.795810
P941	P94	0.441240	0.504760	0.864790
O4611	O461	0.678480	0.355170	0.915830
O4621	O462	0.612230	0.356560	0.930010
O4631	O463	0.522290	0.361070	0.750080
O4641	O464	0.504810	0.326070	0.815530
O4651	O465	0.513970	0.402550	0.813770
O4661	O466	0.561400	0.585400	0.793870
O4671	O467	0.574400	0.641800	0.827500
O4681	O468	0.474810	0.473230	0.858660
O4691	O469	0.416350	0.508860	0.826060
O4701	O470	0.415150	0.495720	0.902120
C6451	C645	0.641580	0.354970	0.905930
C6461	C646	0.631340	0.353300	0.861180
C6471	C647	0.591660	0.356930	0.848770
H3691	H369	0.571400	0.360400	0.868500
C6481	C648	0.580340	0.355600	0.808310
C6491	C649	0.610600	0.348600	0.779300
H3701	H370	0.603700	0.346200	0.751700
C6501	C650	0.650900	0.345100	0.791400
H3711	H371	0.671200	0.341300	0.771800
C6511	C651	0.661200	0.347300	0.831700
H3721	H372	0.688400	0.344700	0.839500
C6521	C652	0.555800	0.608900	0.824000
C6531	C653	0.522800	0.598200	0.853000
C6541	C654	0.500360	0.563080	0.847270
H3731	H373	0.506700	0.546000	0.825400
C6551	C655	0.468210	0.552320	0.873570
C6561	C656	0.460400	0.577700	0.906200
H3741	H374	0.439200	0.571300	0.924000
C6571	C657	0.482700	0.611800	0.913000
H3751	H375	0.476400	0.628500	0.935200
C6581	C658	0.514900	0.622000	0.887200
H3761	H376	0.531100	0.644800	0.892900
Zn951	Zn95	0.525700	0.137520	0.808220
Zn961	Zn96	0.483070	0.084040	0.637930
P951	P95	0.526810	0.138410	0.704190
P961	P96	0.441240	0.995240	0.635210
O4711	O471	0.678480	0.144830	0.584170
O4721	O472	0.612230	0.143440	0.569990
O4731	O473	0.522290	0.138930	0.749920
O4741	O474	0.504810	0.173930	0.684470
O4751	O475	0.513970	0.097450	0.686230
O4761	O476	0.561400	0.914600	0.706130
O4771	O477	0.574400	0.858200	0.672500
O4781	O478	0.474810	0.026770	0.641340
O4791	O479	0.416350	0.991140	0.673940
O4801	O480	0.415150	0.004280	0.597880
C6591	C659	0.641580	0.145030	0.594070
C6601	C660	0.631340	0.146700	0.638820
C6611	C661	0.591660	0.143070	0.651230
H3771	H377	0.571400	0.139600	0.631500
C6621	C662	0.580340	0.144400	0.691690
C6631	C663	0.610600	0.151400	0.720700
H3781	H378	0.603700	0.153800	0.748300
C6641	C664	0.650900	0.154900	0.708600
H3791	H379	0.671200	0.158700	0.728200
C6651	C665	0.661200	0.152700	0.668300
H3801	H380	0.688400	0.155300	0.660500
C6661	C666	0.555800	0.891100	0.676000
C6671	C667	0.522800	0.901800	0.647000
C6681	C668	0.500360	0.936920	0.652730
H3811	H381	0.506700	0.954000	0.674600
C6691	C669	0.468210	0.947680	0.626430
C6701	C670	0.460400	0.922300	0.593800
H3821	H382	0.439200	0.928700	0.576000
C6711	C671	0.482700	0.888200	0.587000
H3831	H383	0.476400	0.871500	0.564800
C6721	C672	0.514900	0.878000	0.612800
H3841	H384	0.531100	0.855200	0.607100
Zn971	Zn97	0.250000	0.400390	0.099610
Zn981	Zn98	0.250000	0.099610	0.099610
Zn991	Zn99	0.250000	0.400390	0.400390
Zn1001	Zn100	0.250000	0.099610	0.400390
Zn1011	Zn101	0.099610	0.250000	0.400390
Zn1021	Zn102	0.099610	0.250000	0.099610
Zn1031	Zn103	0.400390	0.250000	0.400390
Zn1041	Zn104	0.400390	0.250000	0.099610
Zn1051	Zn105	0.400390	0.099610	0.250000
Zn1061	Zn106	0.099610	0.099610	0.250000
Zn1071	Zn107	0.400390	0.400390	0.250000
Zn1081	Zn108	0.099610	0.400390	0.250000
Zn1091	Zn109	0.750000	0.599610	0.900390
Zn1101	Zn110	0.750000	0.900390	0.900390
Zn1111	Zn111	0.750000	0.599610	0.599610
Zn1121	Zn112	0.750000	0.900390	0.599610
Zn1131	Zn113	0.900390	0.750000	0.599610
Zn1141	Zn114	0.900390	0.750000	0.900390
Zn1151	Zn115	0.599610	0.750000	0.599610
Zn1161	Zn116	0.599610	0.750000	0.900390
Zn1171	Zn117	0.599610	0.900390	0.750000
Zn1181	Zn118	0.900390	0.900390	0.750000
Zn1191	Zn119	0.599610	0.599610	0.750000
Zn1201	Zn120	0.900390	0.599610	0.750000
