data_UDUMIP03_clean_PM
_symmetry_space_group_name_H-M	'P1'
_cell_length_a	14.624800
_cell_length_b	25.901200
_cell_length_c	36.316200
_cell_angle_alpha	90.000000
_cell_angle_beta	90.000000
_cell_angle_gamma	90.000000
_symmetry_Int_Tables_number 1

loop_
_symmetry_equiv_pos_as_xyz
'x,y,z'

loop_
_atom_site_label
_atom_site_type_symbol
_atom_site_fract_x
_atom_site_fract_y
_atom_site_fract_z
Ag11	Ag1	0.932970	0.658430	0.092110
O11	O1	0.933580	0.583930	0.061380
O21	O2	0.896840	0.537660	0.111320
O31	O3	0.712050	0.375940	0.092070
O41	O4	0.718600	0.340880	0.035760
H11	H1	0.689100	0.318200	0.042400
O51	O5	0.841000	0.430080	0.931340
O61	O6	0.896010	0.510110	0.935460
C11	C1	0.869730	0.501040	0.052060
C21	C2	0.820100	0.459890	0.066990
H21	H2	0.809000	0.458200	0.092200
C31	C3	0.787410	0.421430	0.043490
C41	C4	0.802800	0.424350	0.005430
H31	H3	0.781100	0.398500	0.990000
C51	C5	0.850660	0.465980	0.990770
C61	C6	0.884400	0.504120	0.014310
H41	H4	0.917000	0.531800	0.004600
C71	C7	0.903850	0.544190	0.076140
C81	C8	0.735600	0.377450	0.059700
C91	C9	0.863860	0.469510	0.949850
Ag21	Ag2	0.932970	0.158430	0.592110
O71	O7	0.933580	0.083930	0.561380
O81	O8	0.896840	0.037660	0.611320
O91	O9	0.712050	0.875940	0.592070
O101	O10	0.718600	0.840880	0.535760
H51	H5	0.689100	0.818200	0.542400
O111	O11	0.841000	0.930080	0.431340
O121	O12	0.896010	0.010110	0.435460
C101	C10	0.869730	0.001040	0.552060
C111	C11	0.820100	0.959890	0.566990
H61	H6	0.809000	0.958200	0.592200
C121	C12	0.787410	0.921430	0.543490
C131	C13	0.802800	0.924350	0.505430
H71	H7	0.781100	0.898500	0.490000
C141	C14	0.850660	0.965980	0.490770
C151	C15	0.884400	0.004120	0.514310
H81	H8	0.917000	0.031800	0.504600
C161	C16	0.903850	0.044190	0.576140
C171	C17	0.735600	0.877450	0.559700
C181	C18	0.863860	0.969510	0.449850
Ag31	Ag3	0.432970	0.658430	0.592110
O131	O13	0.433580	0.583930	0.561380
O141	O14	0.396840	0.537660	0.611320
O151	O15	0.212050	0.375940	0.592070
O161	O16	0.218600	0.340880	0.535760
H91	H9	0.189100	0.318200	0.542400
O171	O17	0.341000	0.430080	0.431340
O181	O18	0.396010	0.510110	0.435460
C191	C19	0.369730	0.501040	0.552060
C201	C20	0.320100	0.459890	0.566990
H101	H10	0.309000	0.458200	0.592200
C211	C21	0.287410	0.421430	0.543490
C221	C22	0.302800	0.424350	0.505430
H111	H11	0.281100	0.398500	0.490000
C231	C23	0.350660	0.465980	0.490770
C241	C24	0.384400	0.504120	0.514310
H121	H12	0.417000	0.531800	0.504600
C251	C25	0.403850	0.544190	0.576140
C261	C26	0.235600	0.377450	0.559700
C271	C27	0.363860	0.469510	0.449850
Ag41	Ag4	0.432970	0.158430	0.092110
O191	O19	0.433580	0.083930	0.061380
O201	O20	0.396840	0.037660	0.111320
O211	O21	0.212050	0.875940	0.092070
O221	O22	0.218600	0.840880	0.035760
H131	H13	0.189100	0.818200	0.042400
O231	O23	0.341000	0.930080	0.931340
O241	O24	0.396010	0.010110	0.935460
C281	C28	0.369730	0.001040	0.052060
C291	C29	0.320100	0.959890	0.066990
H141	H14	0.309000	0.958200	0.092200
C301	C30	0.287410	0.921430	0.043490
C311	C31	0.302800	0.924350	0.005430
H151	H15	0.281100	0.898500	0.990000
C321	C32	0.350660	0.965980	0.990770
C331	C33	0.384400	0.004120	0.014310
H161	H16	0.417000	0.031800	0.004600
C341	C34	0.403850	0.044190	0.076140
C351	C35	0.235600	0.877450	0.059700
C361	C36	0.363860	0.969510	0.949850
Ag51	Ag5	0.817030	0.091570	0.092110
O251	O25	0.816420	0.166070	0.061380
O261	O26	0.853160	0.212340	0.111320
O271	O27	0.037950	0.374060	0.092070
O281	O28	0.031400	0.409120	0.035760
H171	H17	0.060900	0.431800	0.042400
O291	O29	0.909000	0.319920	0.931340
O301	O30	0.853990	0.239890	0.935460
C371	C37	0.880270	0.248960	0.052060
C381	C38	0.929900	0.290110	0.066990
H181	H18	0.941000	0.291800	0.092200
C391	C39	0.962590	0.328570	0.043490
C401	C40	0.947200	0.325650	0.005430
H191	H19	0.968900	0.351500	0.990000
C411	C41	0.899340	0.284020	0.990770
C421	C42	0.865600	0.245880	0.014310
H201	H20	0.833000	0.218200	0.004600
C431	C43	0.846150	0.205810	0.076140
C441	C44	0.014400	0.372550	0.059700
C451	C45	0.886140	0.280490	0.949850
Ag61	Ag6	0.817030	0.591570	0.592110
O311	O31	0.816420	0.666070	0.561380
O321	O32	0.853160	0.712340	0.611320
O331	O33	0.037950	0.874060	0.592070
O341	O34	0.031400	0.909120	0.535760
H211	H21	0.060900	0.931800	0.542400
O351	O35	0.909000	0.819920	0.431340
O361	O36	0.853990	0.739890	0.435460
C461	C46	0.880270	0.748960	0.552060
C471	C47	0.929900	0.790110	0.566990
H221	H22	0.941000	0.791800	0.592200
C481	C48	0.962590	0.828570	0.543490
C491	C49	0.947200	0.825650	0.505430
H231	H23	0.968900	0.851500	0.490000
C501	C50	0.899340	0.784020	0.490770
C511	C51	0.865600	0.745880	0.514310
H241	H24	0.833000	0.718200	0.504600
C521	C52	0.846150	0.705810	0.576140
C531	C53	0.014400	0.872550	0.559700
C541	C54	0.886140	0.780490	0.449850
Ag71	Ag7	0.317030	0.091570	0.592110
O371	O37	0.316420	0.166070	0.561380
O381	O38	0.353160	0.212340	0.611320
O391	O39	0.537950	0.374060	0.592070
O401	O40	0.531400	0.409120	0.535760
H251	H25	0.560900	0.431800	0.542400
O411	O41	0.409000	0.319920	0.431340
O421	O42	0.353990	0.239890	0.435460
C551	C55	0.380270	0.248960	0.552060
C561	C56	0.429900	0.290110	0.566990
H261	H26	0.441000	0.291800	0.592200
C571	C57	0.462590	0.328570	0.543490
C581	C58	0.447200	0.325650	0.505430
H271	H27	0.468900	0.351500	0.490000
C591	C59	0.399340	0.284020	0.490770
C601	C60	0.365600	0.245880	0.514310
H281	H28	0.333000	0.218200	0.504600
C611	C61	0.346150	0.205810	0.576140
C621	C62	0.514400	0.372550	0.559700
C631	C63	0.386140	0.280490	0.449850
Ag81	Ag8	0.317030	0.591570	0.092110
O431	O43	0.316420	0.666070	0.061380
O441	O44	0.353160	0.712340	0.111320
O451	O45	0.537950	0.874060	0.092070
O461	O46	0.531400	0.909120	0.035760
H291	H29	0.560900	0.931800	0.042400
O471	O47	0.409000	0.819920	0.931340
O481	O48	0.353990	0.739890	0.935460
C641	C64	0.380270	0.748960	0.052060
C651	C65	0.429900	0.790110	0.066990
H301	H30	0.441000	0.791800	0.092200
C661	C66	0.462590	0.828570	0.043490
C671	C67	0.447200	0.825650	0.005430
H311	H31	0.468900	0.851500	0.990000
C681	C68	0.399340	0.784020	0.990770
C691	C69	0.365600	0.745880	0.014310
H321	H32	0.333000	0.718200	0.004600
C701	C70	0.346150	0.705810	0.076140
C711	C71	0.514400	0.872550	0.059700
C721	C72	0.386140	0.780490	0.949850
Ag91	Ag9	0.817030	0.658430	0.657890
O491	O49	0.816420	0.583930	0.688620
O501	O50	0.853160	0.537660	0.638680
O511	O51	0.037950	0.375940	0.657930
O521	O52	0.031400	0.340880	0.714240
H331	H33	0.060900	0.318200	0.707600
O531	O53	0.909000	0.430080	0.818660
O541	O54	0.853990	0.510110	0.814540
C731	C73	0.880270	0.501040	0.697940
C741	C74	0.929900	0.459890	0.683010
H341	H34	0.941000	0.458200	0.657800
C751	C75	0.962590	0.421430	0.706510
C761	C76	0.947200	0.424350	0.744570
H351	H35	0.968900	0.398500	0.760000
C771	C77	0.899340	0.465980	0.759230
C781	C78	0.865600	0.504120	0.735690
H361	H36	0.833000	0.531800	0.745400
C791	C79	0.846150	0.544190	0.673860
C801	C80	0.014400	0.377450	0.690300
C811	C81	0.886140	0.469510	0.800150
Ag101	Ag10	0.817030	0.158430	0.157890
O551	O55	0.816420	0.083930	0.188620
O561	O56	0.853160	0.037660	0.138680
O571	O57	0.037950	0.875940	0.157930
O581	O58	0.031400	0.840880	0.214240
H371	H37	0.060900	0.818200	0.207600
O591	O59	0.909000	0.930080	0.318660
O601	O60	0.853990	0.010110	0.314540
C821	C82	0.880270	0.001040	0.197940
C831	C83	0.929900	0.959890	0.183010
H381	H38	0.941000	0.958200	0.157800
C841	C84	0.962590	0.921430	0.206510
C851	C85	0.947200	0.924350	0.244570
H391	H39	0.968900	0.898500	0.260000
C861	C86	0.899340	0.965980	0.259230
C871	C87	0.865600	0.004120	0.235690
H401	H40	0.833000	0.031800	0.245400
C881	C88	0.846150	0.044190	0.173860
C891	C89	0.014400	0.877450	0.190300
C901	C90	0.886140	0.969510	0.300150
Ag111	Ag11	0.317030	0.658430	0.157890
O611	O61	0.316420	0.583930	0.188620
O621	O62	0.353160	0.537660	0.138680
O631	O63	0.537950	0.375940	0.157930
O641	O64	0.531400	0.340880	0.214240
H411	H41	0.560900	0.318200	0.207600
O651	O65	0.409000	0.430080	0.318660
O661	O66	0.353990	0.510110	0.314540
C911	C91	0.380270	0.501040	0.197940
C921	C92	0.429900	0.459890	0.183010
H421	H42	0.441000	0.458200	0.157800
C931	C93	0.462590	0.421430	0.206510
C941	C94	0.447200	0.424350	0.244570
H431	H43	0.468900	0.398500	0.260000
C951	C95	0.399340	0.465980	0.259230
C961	C96	0.365600	0.504120	0.235690
H441	H44	0.333000	0.531800	0.245400
C971	C97	0.346150	0.544190	0.173860
C981	C98	0.514400	0.377450	0.190300
C991	C99	0.386140	0.469510	0.300150
Ag121	Ag12	0.317030	0.158430	0.657890
O671	O67	0.316420	0.083930	0.688620
O681	O68	0.353160	0.037660	0.638680
O691	O69	0.537950	0.875940	0.657930
O701	O70	0.531400	0.840880	0.714240
H451	H45	0.560900	0.818200	0.707600
O711	O71	0.409000	0.930080	0.818660
O721	O72	0.353990	0.010110	0.814540
C1001	C100	0.380270	0.001040	0.697940
C1011	C101	0.429900	0.959890	0.683010
H461	H46	0.441000	0.958200	0.657800
C1021	C102	0.462590	0.921430	0.706510
C1031	C103	0.447200	0.924350	0.744570
H471	H47	0.468900	0.898500	0.760000
C1041	C104	0.399340	0.965980	0.759230
C1051	C105	0.365600	0.004120	0.735690
H481	H48	0.333000	0.031800	0.745400
C1061	C106	0.346150	0.044190	0.673860
C1071	C107	0.514400	0.877450	0.690300
C1081	C108	0.386140	0.969510	0.800150
Ag131	Ag13	0.932970	0.091570	0.657890
O731	O73	0.933580	0.166070	0.688620
O741	O74	0.896840	0.212340	0.638680
O751	O75	0.712050	0.374060	0.657930
O761	O76	0.718600	0.409120	0.714240
H491	H49	0.689100	0.431800	0.707600
O771	O77	0.841000	0.319920	0.818660
O781	O78	0.896010	0.239890	0.814540
C1091	C109	0.869730	0.248960	0.697940
C1101	C110	0.820100	0.290110	0.683010
H501	H50	0.809000	0.291800	0.657800
C1111	C111	0.787410	0.328570	0.706510
C1121	C112	0.802800	0.325650	0.744570
H511	H51	0.781100	0.351500	0.760000
C1131	C113	0.850660	0.284020	0.759230
C1141	C114	0.884400	0.245880	0.735690
H521	H52	0.917000	0.218200	0.745400
C1151	C115	0.903850	0.205810	0.673860
C1161	C116	0.735600	0.372550	0.690300
C1171	C117	0.863860	0.280490	0.800150
Ag141	Ag14	0.932970	0.591570	0.157890
O791	O79	0.933580	0.666070	0.188620
O801	O80	0.896840	0.712340	0.138680
O811	O81	0.712050	0.874060	0.157930
O821	O82	0.718600	0.909120	0.214240
H531	H53	0.689100	0.931800	0.207600
O831	O83	0.841000	0.819920	0.318660
O841	O84	0.896010	0.739890	0.314540
C1181	C118	0.869730	0.748960	0.197940
C1191	C119	0.820100	0.790110	0.183010
H541	H54	0.809000	0.791800	0.157800
C1201	C120	0.787410	0.828570	0.206510
C1211	C121	0.802800	0.825650	0.244570
H551	H55	0.781100	0.851500	0.260000
C1221	C122	0.850660	0.784020	0.259230
C1231	C123	0.884400	0.745880	0.235690
H561	H56	0.917000	0.718200	0.245400
C1241	C124	0.903850	0.705810	0.173860
C1251	C125	0.735600	0.872550	0.190300
C1261	C126	0.863860	0.780490	0.300150
Ag151	Ag15	0.432970	0.091570	0.157890
O851	O85	0.433580	0.166070	0.188620
O861	O86	0.396840	0.212340	0.138680
O871	O87	0.212050	0.374060	0.157930
O881	O88	0.218600	0.409120	0.214240
H571	H57	0.189100	0.431800	0.207600
O891	O89	0.341000	0.319920	0.318660
O901	O90	0.396010	0.239890	0.314540
C1271	C127	0.369730	0.248960	0.197940
C1281	C128	0.320100	0.290110	0.183010
H581	H58	0.309000	0.291800	0.157800
C1291	C129	0.287410	0.328570	0.206510
C1301	C130	0.302800	0.325650	0.244570
H591	H59	0.281100	0.351500	0.260000
C1311	C131	0.350660	0.284020	0.259230
C1321	C132	0.384400	0.245880	0.235690
H601	H60	0.417000	0.218200	0.245400
C1331	C133	0.403850	0.205810	0.173860
C1341	C134	0.235600	0.372550	0.190300
C1351	C135	0.363860	0.280490	0.300150
Ag161	Ag16	0.432970	0.591570	0.657890
O911	O91	0.433580	0.666070	0.688620
O921	O92	0.396840	0.712340	0.638680
O931	O93	0.212050	0.874060	0.657930
O941	O94	0.218600	0.909120	0.714240
H611	H61	0.189100	0.931800	0.707600
O951	O95	0.341000	0.819920	0.818660
O961	O96	0.396010	0.739890	0.814540
C1361	C136	0.369730	0.748960	0.697940
C1371	C137	0.320100	0.790110	0.683010
H621	H62	0.309000	0.791800	0.657800
C1381	C138	0.287410	0.828570	0.706510
C1391	C139	0.302800	0.825650	0.744570
H631	H63	0.281100	0.851500	0.760000
C1401	C140	0.350660	0.784020	0.759230
C1411	C141	0.384400	0.745880	0.735690
H641	H64	0.417000	0.718200	0.745400
C1421	C142	0.403850	0.705810	0.673860
C1431	C143	0.235600	0.872550	0.690300
C1441	C144	0.363860	0.780490	0.800150
Ag171	Ag17	0.067030	0.341570	0.907890
O971	O97	0.066420	0.416070	0.938620
O981	O98	0.103160	0.462340	0.888680
O991	O99	0.287950	0.624060	0.907930
O1001	O100	0.281400	0.659120	0.964240
H651	H65	0.310900	0.681800	0.957600
O1011	O101	0.159000	0.569920	0.068660
O1021	O102	0.103990	0.489890	0.064540
C1451	C145	0.130270	0.498960	0.947940
C1461	C146	0.179900	0.540110	0.933010
H661	H66	0.191000	0.541800	0.907800
C1471	C147	0.212590	0.578570	0.956510
C1481	C148	0.197200	0.575650	0.994570
H671	H67	0.218900	0.601500	0.010000
C1491	C149	0.149340	0.534020	0.009230
C1501	C150	0.115600	0.495880	0.985690
H681	H68	0.083000	0.468200	0.995400
C1511	C151	0.096150	0.455810	0.923860
C1521	C152	0.264400	0.622550	0.940300
C1531	C153	0.136140	0.530490	0.050150
Ag181	Ag18	0.067030	0.841570	0.407890
O1031	O103	0.066420	0.916070	0.438620
O1041	O104	0.103160	0.962340	0.388680
O1051	O105	0.287950	0.124060	0.407930
O1061	O106	0.281400	0.159120	0.464240
H691	H69	0.310900	0.181800	0.457600
O1071	O107	0.159000	0.069920	0.568660
O1081	O108	0.103990	0.989890	0.564540
C1541	C154	0.130270	0.998960	0.447940
C1551	C155	0.179900	0.040110	0.433010
H701	H70	0.191000	0.041800	0.407800
C1561	C156	0.212590	0.078570	0.456510
C1571	C157	0.197200	0.075650	0.494570
H711	H71	0.218900	0.101500	0.510000
C1581	C158	0.149340	0.034020	0.509230
C1591	C159	0.115600	0.995880	0.485690
H721	H72	0.083000	0.968200	0.495400
C1601	C160	0.096150	0.955810	0.423860
C1611	C161	0.264400	0.122550	0.440300
C1621	C162	0.136140	0.030490	0.550150
Ag191	Ag19	0.567030	0.341570	0.407890
O1091	O109	0.566420	0.416070	0.438620
O1101	O110	0.603160	0.462340	0.388680
O1111	O111	0.787950	0.624060	0.407930
O1121	O112	0.781400	0.659120	0.464240
H731	H73	0.810900	0.681800	0.457600
O1131	O113	0.659000	0.569920	0.568660
O1141	O114	0.603990	0.489890	0.564540
C1631	C163	0.630270	0.498960	0.447940
C1641	C164	0.679900	0.540110	0.433010
H741	H74	0.691000	0.541800	0.407800
C1651	C165	0.712590	0.578570	0.456510
C1661	C166	0.697200	0.575650	0.494570
H751	H75	0.718900	0.601500	0.510000
C1671	C167	0.649340	0.534020	0.509230
C1681	C168	0.615600	0.495880	0.485690
H761	H76	0.583000	0.468200	0.495400
C1691	C169	0.596150	0.455810	0.423860
C1701	C170	0.764400	0.622550	0.440300
C1711	C171	0.636140	0.530490	0.550150
Ag201	Ag20	0.567030	0.841570	0.907890
O1151	O115	0.566420	0.916070	0.938620
O1161	O116	0.603160	0.962340	0.888680
O1171	O117	0.787950	0.124060	0.907930
O1181	O118	0.781400	0.159120	0.964240
H771	H77	0.810900	0.181800	0.957600
O1191	O119	0.659000	0.069920	0.068660
O1201	O120	0.603990	0.989890	0.064540
C1721	C172	0.630270	0.998960	0.947940
C1731	C173	0.679900	0.040110	0.933010
H781	H78	0.691000	0.041800	0.907800
C1741	C174	0.712590	0.078570	0.956510
C1751	C175	0.697200	0.075650	0.994570
H791	H79	0.718900	0.101500	0.010000
C1761	C176	0.649340	0.034020	0.009230
C1771	C177	0.615600	0.995880	0.985690
H801	H80	0.583000	0.968200	0.995400
C1781	C178	0.596150	0.955810	0.923860
C1791	C179	0.764400	0.122550	0.940300
C1801	C180	0.636140	0.030490	0.050150
Ag211	Ag21	0.182970	0.908430	0.907890
O1211	O121	0.183580	0.833930	0.938620
O1221	O122	0.146840	0.787660	0.888680
O1231	O123	0.962050	0.625940	0.907930
O1241	O124	0.968600	0.590880	0.964240
H811	H81	0.939100	0.568200	0.957600
O1251	O125	0.091000	0.680080	0.068660
O1261	O126	0.146010	0.760110	0.064540
C1811	C181	0.119730	0.751040	0.947940
C1821	C182	0.070100	0.709890	0.933010
H821	H82	0.059000	0.708200	0.907800
C1831	C183	0.037410	0.671430	0.956510
C1841	C184	0.052800	0.674350	0.994570
H831	H83	0.031100	0.648500	0.010000
C1851	C185	0.100660	0.715980	0.009230
C1861	C186	0.134400	0.754120	0.985690
H841	H84	0.167000	0.781800	0.995400
C1871	C187	0.153850	0.794190	0.923860
C1881	C188	0.985600	0.627450	0.940300
C1891	C189	0.113860	0.719510	0.050150
Ag221	Ag22	0.182970	0.408430	0.407890
O1271	O127	0.183580	0.333930	0.438620
O1281	O128	0.146840	0.287660	0.388680
O1291	O129	0.962050	0.125940	0.407930
O1301	O130	0.968600	0.090880	0.464240
H851	H85	0.939100	0.068200	0.457600
O1311	O131	0.091000	0.180080	0.568660
O1321	O132	0.146010	0.260110	0.564540
C1901	C190	0.119730	0.251040	0.447940
C1911	C191	0.070100	0.209890	0.433010
H861	H86	0.059000	0.208200	0.407800
C1921	C192	0.037410	0.171430	0.456510
C1931	C193	0.052800	0.174350	0.494570
H871	H87	0.031100	0.148500	0.510000
C1941	C194	0.100660	0.215980	0.509230
C1951	C195	0.134400	0.254120	0.485690
H881	H88	0.167000	0.281800	0.495400
C1961	C196	0.153850	0.294190	0.423860
C1971	C197	0.985600	0.127450	0.440300
C1981	C198	0.113860	0.219510	0.550150
Ag231	Ag23	0.682970	0.908430	0.407890
O1331	O133	0.683580	0.833930	0.438620
O1341	O134	0.646840	0.787660	0.388680
O1351	O135	0.462050	0.625940	0.407930
O1361	O136	0.468600	0.590880	0.464240
H891	H89	0.439100	0.568200	0.457600
O1371	O137	0.591000	0.680080	0.568660
O1381	O138	0.646010	0.760110	0.564540
C1991	C199	0.619730	0.751040	0.447940
C2001	C200	0.570100	0.709890	0.433010
H901	H90	0.559000	0.708200	0.407800
C2011	C201	0.537410	0.671430	0.456510
C2021	C202	0.552800	0.674350	0.494570
H911	H91	0.531100	0.648500	0.510000
C2031	C203	0.600660	0.715980	0.509230
C2041	C204	0.634400	0.754120	0.485690
H921	H92	0.667000	0.781800	0.495400
C2051	C205	0.653850	0.794190	0.423860
C2061	C206	0.485600	0.627450	0.440300
C2071	C207	0.613860	0.719510	0.550150
Ag241	Ag24	0.682970	0.408430	0.907890
O1391	O139	0.683580	0.333930	0.938620
O1401	O140	0.646840	0.287660	0.888680
O1411	O141	0.462050	0.125940	0.907930
O1421	O142	0.468600	0.090880	0.964240
H931	H93	0.439100	0.068200	0.957600
O1431	O143	0.591000	0.180080	0.068660
O1441	O144	0.646010	0.260110	0.064540
C2081	C208	0.619730	0.251040	0.947940
C2091	C209	0.570100	0.209890	0.933010
H941	H94	0.559000	0.208200	0.907800
C2101	C210	0.537410	0.171430	0.956510
C2111	C211	0.552800	0.174350	0.994570
H951	H95	0.531100	0.148500	0.010000
C2121	C212	0.600660	0.215980	0.009230
C2131	C213	0.634400	0.254120	0.985690
H961	H96	0.667000	0.281800	0.995400
C2141	C214	0.653850	0.294190	0.923860
C2151	C215	0.485600	0.127450	0.940300
C2161	C216	0.613860	0.219510	0.050150
Ag251	Ag25	0.182970	0.341570	0.342110
O1451	O145	0.183580	0.416070	0.311380
O1461	O146	0.146840	0.462340	0.361320
O1471	O147	0.962050	0.624060	0.342070
O1481	O148	0.968600	0.659120	0.285760
H971	H97	0.939100	0.681800	0.292400
O1491	O149	0.091000	0.569920	0.181340
O1501	O150	0.146010	0.489890	0.185460
C2171	C217	0.119730	0.498960	0.302060
C2181	C218	0.070100	0.540110	0.316990
H981	H98	0.059000	0.541800	0.342200
C2191	C219	0.037410	0.578570	0.293490
C2201	C220	0.052800	0.575650	0.255430
H991	H99	0.031100	0.601500	0.240000
C2211	C221	0.100660	0.534020	0.240770
C2221	C222	0.134400	0.495880	0.264310
H1001	H100	0.167000	0.468200	0.254600
C2231	C223	0.153850	0.455810	0.326140
C2241	C224	0.985600	0.622550	0.309700
C2251	C225	0.113860	0.530490	0.199850
Ag261	Ag26	0.182970	0.841570	0.842110
O1511	O151	0.183580	0.916070	0.811380
O1521	O152	0.146840	0.962340	0.861320
O1531	O153	0.962050	0.124060	0.842070
O1541	O154	0.968600	0.159120	0.785760
H1011	H101	0.939100	0.181800	0.792400
O1551	O155	0.091000	0.069920	0.681340
O1561	O156	0.146010	0.989890	0.685460
C2261	C226	0.119730	0.998960	0.802060
C2271	C227	0.070100	0.040110	0.816990
H1021	H102	0.059000	0.041800	0.842200
C2281	C228	0.037410	0.078570	0.793490
C2291	C229	0.052800	0.075650	0.755430
H1031	H103	0.031100	0.101500	0.740000
C2301	C230	0.100660	0.034020	0.740770
C2311	C231	0.134400	0.995880	0.764310
H1041	H104	0.167000	0.968200	0.754600
C2321	C232	0.153850	0.955810	0.826140
C2331	C233	0.985600	0.122550	0.809700
C2341	C234	0.113860	0.030490	0.699850
Ag271	Ag27	0.682970	0.341570	0.842110
O1571	O157	0.683580	0.416070	0.811380
O1581	O158	0.646840	0.462340	0.861320
O1591	O159	0.462050	0.624060	0.842070
O1601	O160	0.468600	0.659120	0.785760
H1051	H105	0.439100	0.681800	0.792400
O1611	O161	0.591000	0.569920	0.681340
O1621	O162	0.646010	0.489890	0.685460
C2351	C235	0.619730	0.498960	0.802060
C2361	C236	0.570100	0.540110	0.816990
H1061	H106	0.559000	0.541800	0.842200
C2371	C237	0.537410	0.578570	0.793490
C2381	C238	0.552800	0.575650	0.755430
H1071	H107	0.531100	0.601500	0.740000
C2391	C239	0.600660	0.534020	0.740770
C2401	C240	0.634400	0.495880	0.764310
H1081	H108	0.667000	0.468200	0.754600
C2411	C241	0.653850	0.455810	0.826140
C2421	C242	0.485600	0.622550	0.809700
C2431	C243	0.613860	0.530490	0.699850
Ag281	Ag28	0.682970	0.841570	0.342110
O1631	O163	0.683580	0.916070	0.311380
O1641	O164	0.646840	0.962340	0.361320
O1651	O165	0.462050	0.124060	0.342070
O1661	O166	0.468600	0.159120	0.285760
H1091	H109	0.439100	0.181800	0.292400
O1671	O167	0.591000	0.069920	0.181340
O1681	O168	0.646010	0.989890	0.185460
C2441	C244	0.619730	0.998960	0.302060
C2451	C245	0.570100	0.040110	0.316990
H1101	H110	0.559000	0.041800	0.342200
C2461	C246	0.537410	0.078570	0.293490
C2471	C247	0.552800	0.075650	0.255430
H1111	H111	0.531100	0.101500	0.240000
C2481	C248	0.600660	0.034020	0.240770
C2491	C249	0.634400	0.995880	0.264310
H1121	H112	0.667000	0.968200	0.254600
C2501	C250	0.653850	0.955810	0.326140
C2511	C251	0.485600	0.122550	0.309700
C2521	C252	0.613860	0.030490	0.199850
Ag291	Ag29	0.067030	0.908430	0.342110
O1691	O169	0.066420	0.833930	0.311380
O1701	O170	0.103160	0.787660	0.361320
O1711	O171	0.287950	0.625940	0.342070
O1721	O172	0.281400	0.590880	0.285760
H1131	H113	0.310900	0.568200	0.292400
O1731	O173	0.159000	0.680080	0.181340
O1741	O174	0.103990	0.760110	0.185460
C2531	C253	0.130270	0.751040	0.302060
C2541	C254	0.179900	0.709890	0.316990
H1141	H114	0.191000	0.708200	0.342200
C2551	C255	0.212590	0.671430	0.293490
C2561	C256	0.197200	0.674350	0.255430
H1151	H115	0.218900	0.648500	0.240000
C2571	C257	0.149340	0.715980	0.240770
C2581	C258	0.115600	0.754120	0.264310
H1161	H116	0.083000	0.781800	0.254600
C2591	C259	0.096150	0.794190	0.326140
C2601	C260	0.264400	0.627450	0.309700
C2611	C261	0.136140	0.719510	0.199850
Ag301	Ag30	0.067030	0.408430	0.842110
O1751	O175	0.066420	0.333930	0.811380
O1761	O176	0.103160	0.287660	0.861320
O1771	O177	0.287950	0.125940	0.842070
O1781	O178	0.281400	0.090880	0.785760
H1171	H117	0.310900	0.068200	0.792400
O1791	O179	0.159000	0.180080	0.681340
O1801	O180	0.103990	0.260110	0.685460
C2621	C262	0.130270	0.251040	0.802060
C2631	C263	0.179900	0.209890	0.816990
H1181	H118	0.191000	0.208200	0.842200
C2641	C264	0.212590	0.171430	0.793490
C2651	C265	0.197200	0.174350	0.755430
H1191	H119	0.218900	0.148500	0.740000
C2661	C266	0.149340	0.215980	0.740770
C2671	C267	0.115600	0.254120	0.764310
H1201	H120	0.083000	0.281800	0.754600
C2681	C268	0.096150	0.294190	0.826140
C2691	C269	0.264400	0.127450	0.809700
C2701	C270	0.136140	0.219510	0.699850
Ag311	Ag31	0.567030	0.908430	0.842110
O1811	O181	0.566420	0.833930	0.811380
O1821	O182	0.603160	0.787660	0.861320
O1831	O183	0.787950	0.625940	0.842070
O1841	O184	0.781400	0.590880	0.785760
H1211	H121	0.810900	0.568200	0.792400
O1851	O185	0.659000	0.680080	0.681340
O1861	O186	0.603990	0.760110	0.685460
C2711	C271	0.630270	0.751040	0.802060
C2721	C272	0.679900	0.709890	0.816990
H1221	H122	0.691000	0.708200	0.842200
C2731	C273	0.712590	0.671430	0.793490
C2741	C274	0.697200	0.674350	0.755430
H1231	H123	0.718900	0.648500	0.740000
C2751	C275	0.649340	0.715980	0.740770
C2761	C276	0.615600	0.754120	0.764310
H1241	H124	0.583000	0.781800	0.754600
C2771	C277	0.596150	0.794190	0.826140
C2781	C278	0.764400	0.627450	0.809700
C2791	C279	0.636140	0.719510	0.699850
Ag321	Ag32	0.567030	0.408430	0.342110
O1871	O187	0.566420	0.333930	0.311380
O1881	O188	0.603160	0.287660	0.361320
O1891	O189	0.787950	0.125940	0.342070
O1901	O190	0.781400	0.090880	0.285760
H1251	H125	0.810900	0.068200	0.292400
O1911	O191	0.659000	0.180080	0.181340
O1921	O192	0.603990	0.260110	0.185460
C2801	C280	0.630270	0.251040	0.302060
C2811	C281	0.679900	0.209890	0.316990
H1261	H126	0.691000	0.208200	0.342200
C2821	C282	0.712590	0.171430	0.293490
C2831	C283	0.697200	0.174350	0.255430
H1271	H127	0.718900	0.148500	0.240000
C2841	C284	0.649340	0.215980	0.240770
C2851	C285	0.615600	0.254120	0.264310
H1281	H128	0.583000	0.281800	0.254600
C2861	C286	0.596150	0.294190	0.326140
C2871	C287	0.764400	0.127450	0.309700
C2881	C288	0.636140	0.219510	0.199850
Ag331	Ag33	0.875000	0.433770	0.875000
Ag341	Ag34	0.875000	0.933770	0.375000
Ag351	Ag35	0.375000	0.433770	0.375000
Ag361	Ag36	0.375000	0.933770	0.875000
Ag371	Ag37	0.875000	0.316230	0.875000
Ag381	Ag38	0.875000	0.816230	0.375000
Ag391	Ag39	0.375000	0.316230	0.375000
Ag401	Ag40	0.375000	0.816230	0.875000
Ag411	Ag41	0.125000	0.566230	0.125000
Ag421	Ag42	0.125000	0.066230	0.625000
Ag431	Ag43	0.625000	0.566230	0.625000
Ag441	Ag44	0.625000	0.066230	0.125000
Ag451	Ag45	0.125000	0.683770	0.125000
Ag461	Ag46	0.125000	0.183770	0.625000
Ag471	Ag47	0.625000	0.683770	0.625000
Ag481	Ag48	0.625000	0.183770	0.125000
