data_UDUMIP02_clean_PM
_symmetry_space_group_name_H-M	'P1'
_cell_length_a	14.655000
_cell_length_b	25.896000
_cell_length_c	36.317000
_cell_angle_alpha	90.000000
_cell_angle_beta	90.000000
_cell_angle_gamma	90.000000
_symmetry_Int_Tables_number 1

loop_
_symmetry_equiv_pos_as_xyz
'x,y,z'

loop_
_atom_site_label
_atom_site_type_symbol
_atom_site_fract_x
_atom_site_fract_y
_atom_site_fract_z
Ag11	Ag1	0.067010	0.341570	0.907930
O11	O1	0.038300	0.373890	0.092040
O21	O2	0.031400	0.409180	0.035830
O31	O3	0.853900	0.239930	0.935480
O41	O4	0.908900	0.319760	0.931430
O51	O5	0.853100	0.212250	0.111330
O61	O6	0.816200	0.166100	0.061340
C11	C1	0.962300	0.328600	0.043410
C21	C2	0.929600	0.290000	0.067060
C31	C3	0.880100	0.249100	0.052180
C41	C4	0.865600	0.246100	0.014320
C51	C5	0.899300	0.284200	0.990850
C61	C6	0.947100	0.325700	0.005580
C71	C7	0.014200	0.372500	0.059740
C81	C8	0.886100	0.280500	0.949910
C91	C9	0.846200	0.205800	0.076200
H11	H1	0.946500	0.290200	0.091200
H21	H2	0.837600	0.218000	0.006600
H31	H3	0.970900	0.354100	0.989900
H41	H4	0.055100	0.435800	0.041200
Ag21	Ag2	0.067010	0.841570	0.407930
O71	O7	0.038300	0.873890	0.592040
O81	O8	0.031400	0.909180	0.535830
O91	O9	0.853900	0.739930	0.435480
O101	O10	0.908900	0.819760	0.431430
O111	O11	0.853100	0.712250	0.611330
O121	O12	0.816200	0.666100	0.561340
C101	C10	0.962300	0.828600	0.543410
C111	C11	0.929600	0.790000	0.567060
C121	C12	0.880100	0.749100	0.552180
C131	C13	0.865600	0.746100	0.514320
C141	C14	0.899300	0.784200	0.490850
C151	C15	0.947100	0.825700	0.505580
C161	C16	0.014200	0.872500	0.559740
C171	C17	0.886100	0.780500	0.449910
C181	C18	0.846200	0.705800	0.576200
H51	H5	0.946500	0.790200	0.591200
H61	H6	0.837600	0.718000	0.506600
H71	H7	0.970900	0.854100	0.489900
H81	H8	0.055100	0.935800	0.541200
Ag31	Ag3	0.567010	0.341570	0.407930
O131	O13	0.538300	0.373890	0.592040
O141	O14	0.531400	0.409180	0.535830
O151	O15	0.353900	0.239930	0.435480
O161	O16	0.408900	0.319760	0.431430
O171	O17	0.353100	0.212250	0.611330
O181	O18	0.316200	0.166100	0.561340
C191	C19	0.462300	0.328600	0.543410
C201	C20	0.429600	0.290000	0.567060
C211	C21	0.380100	0.249100	0.552180
C221	C22	0.365600	0.246100	0.514320
C231	C23	0.399300	0.284200	0.490850
C241	C24	0.447100	0.325700	0.505580
C251	C25	0.514200	0.372500	0.559740
C261	C26	0.386100	0.280500	0.449910
C271	C27	0.346200	0.205800	0.576200
H91	H9	0.446500	0.290200	0.591200
H101	H10	0.337600	0.218000	0.506600
H111	H11	0.470900	0.354100	0.489900
H121	H12	0.555100	0.435800	0.541200
Ag41	Ag4	0.567010	0.841570	0.907930
O191	O19	0.538300	0.873890	0.092040
O201	O20	0.531400	0.909180	0.035830
O211	O21	0.353900	0.739930	0.935480
O221	O22	0.408900	0.819760	0.931430
O231	O23	0.353100	0.712250	0.111330
O241	O24	0.316200	0.666100	0.061340
C281	C28	0.462300	0.828600	0.043410
C291	C29	0.429600	0.790000	0.067060
C301	C30	0.380100	0.749100	0.052180
C311	C31	0.365600	0.746100	0.014320
C321	C32	0.399300	0.784200	0.990850
C331	C33	0.447100	0.825700	0.005580
C341	C34	0.514200	0.872500	0.059740
C351	C35	0.386100	0.780500	0.949910
C361	C36	0.346200	0.705800	0.076200
H131	H13	0.446500	0.790200	0.091200
H141	H14	0.337600	0.718000	0.006600
H151	H15	0.470900	0.854100	0.989900
H161	H16	0.555100	0.935800	0.041200
Ag51	Ag5	0.682990	0.408430	0.907930
O251	O25	0.711700	0.376110	0.092040
O261	O26	0.718600	0.340820	0.035830
O271	O27	0.896100	0.510070	0.935480
O281	O28	0.841100	0.430240	0.931430
O291	O29	0.896900	0.537750	0.111330
O301	O30	0.933800	0.583900	0.061340
C371	C37	0.787700	0.421400	0.043410
C381	C38	0.820400	0.460000	0.067060
C391	C39	0.869900	0.500900	0.052180
C401	C40	0.884400	0.503900	0.014320
C411	C41	0.850700	0.465800	0.990850
C421	C42	0.802900	0.424300	0.005580
C431	C43	0.735800	0.377500	0.059740
C441	C44	0.863900	0.469500	0.949910
C451	C45	0.903800	0.544200	0.076200
H171	H17	0.803500	0.459800	0.091200
H181	H18	0.912400	0.532000	0.006600
H191	H19	0.779100	0.395900	0.989900
H201	H20	0.694900	0.314200	0.041200
Ag61	Ag6	0.682990	0.908430	0.407930
O311	O31	0.711700	0.876110	0.592040
O321	O32	0.718600	0.840820	0.535830
O331	O33	0.896100	0.010070	0.435480
O341	O34	0.841100	0.930240	0.431430
O351	O35	0.896900	0.037750	0.611330
O361	O36	0.933800	0.083900	0.561340
C461	C46	0.787700	0.921400	0.543410
C471	C47	0.820400	0.960000	0.567060
C481	C48	0.869900	0.000900	0.552180
C491	C49	0.884400	0.003900	0.514320
C501	C50	0.850700	0.965800	0.490850
C511	C51	0.802900	0.924300	0.505580
C521	C52	0.735800	0.877500	0.559740
C531	C53	0.863900	0.969500	0.449910
C541	C54	0.903800	0.044200	0.576200
H211	H21	0.803500	0.959800	0.591200
H221	H22	0.912400	0.032000	0.506600
H231	H23	0.779100	0.895900	0.489900
H241	H24	0.694900	0.814200	0.541200
Ag71	Ag7	0.182990	0.408430	0.407930
O371	O37	0.211700	0.376110	0.592040
O381	O38	0.218600	0.340820	0.535830
O391	O39	0.396100	0.510070	0.435480
O401	O40	0.341100	0.430240	0.431430
O411	O41	0.396900	0.537750	0.611330
O421	O42	0.433800	0.583900	0.561340
C551	C55	0.287700	0.421400	0.543410
C561	C56	0.320400	0.460000	0.567060
C571	C57	0.369900	0.500900	0.552180
C581	C58	0.384400	0.503900	0.514320
C591	C59	0.350700	0.465800	0.490850
C601	C60	0.302900	0.424300	0.505580
C611	C61	0.235800	0.377500	0.559740
C621	C62	0.363900	0.469500	0.449910
C631	C63	0.403800	0.544200	0.576200
H251	H25	0.303500	0.459800	0.591200
H261	H26	0.412400	0.532000	0.506600
H271	H27	0.279100	0.395900	0.489900
H281	H28	0.194900	0.314200	0.541200
Ag81	Ag8	0.182990	0.908430	0.907930
O431	O43	0.211700	0.876110	0.092040
O441	O44	0.218600	0.840820	0.035830
O451	O45	0.396100	0.010070	0.935480
O461	O46	0.341100	0.930240	0.931430
O471	O47	0.396900	0.037750	0.111330
O481	O48	0.433800	0.083900	0.061340
C641	C64	0.287700	0.921400	0.043410
C651	C65	0.320400	0.960000	0.067060
C661	C66	0.369900	0.000900	0.052180
C671	C67	0.384400	0.003900	0.014320
C681	C68	0.350700	0.965800	0.990850
C691	C69	0.302900	0.924300	0.005580
C701	C70	0.235800	0.877500	0.059740
C711	C71	0.363900	0.969500	0.949910
C721	C72	0.403800	0.044200	0.076200
H291	H29	0.303500	0.959800	0.091200
H301	H30	0.412400	0.032000	0.006600
H311	H31	0.279100	0.895900	0.989900
H321	H32	0.194900	0.814200	0.041200
Ag91	Ag9	0.682990	0.341570	0.842070
O491	O49	0.711700	0.373890	0.657960
O501	O50	0.718600	0.409180	0.714170
O511	O51	0.896100	0.239930	0.814520
O521	O52	0.841100	0.319760	0.818570
O531	O53	0.896900	0.212250	0.638670
O541	O54	0.933800	0.166100	0.688660
C731	C73	0.787700	0.328600	0.706590
C741	C74	0.820400	0.290000	0.682940
C751	C75	0.869900	0.249100	0.697820
C761	C76	0.884400	0.246100	0.735680
C771	C77	0.850700	0.284200	0.759150
C781	C78	0.802900	0.325700	0.744420
C791	C79	0.735800	0.372500	0.690260
C801	C80	0.863900	0.280500	0.800090
C811	C81	0.903800	0.205800	0.673800
H331	H33	0.803500	0.290200	0.658800
H341	H34	0.912400	0.218000	0.743400
H351	H35	0.779100	0.354100	0.760100
H361	H36	0.694900	0.435800	0.708800
Ag101	Ag10	0.682990	0.841570	0.342070
O551	O55	0.711700	0.873890	0.157960
O561	O56	0.718600	0.909180	0.214170
O571	O57	0.896100	0.739930	0.314520
O581	O58	0.841100	0.819760	0.318570
O591	O59	0.896900	0.712250	0.138670
O601	O60	0.933800	0.666100	0.188660
C821	C82	0.787700	0.828600	0.206590
C831	C83	0.820400	0.790000	0.182940
C841	C84	0.869900	0.749100	0.197820
C851	C85	0.884400	0.746100	0.235680
C861	C86	0.850700	0.784200	0.259150
C871	C87	0.802900	0.825700	0.244420
C881	C88	0.735800	0.872500	0.190260
C891	C89	0.863900	0.780500	0.300090
C901	C90	0.903800	0.705800	0.173800
H371	H37	0.803500	0.790200	0.158800
H381	H38	0.912400	0.718000	0.243400
H391	H39	0.779100	0.854100	0.260100
H401	H40	0.694900	0.935800	0.208800
Ag111	Ag11	0.182990	0.341570	0.342070
O611	O61	0.211700	0.373890	0.157960
O621	O62	0.218600	0.409180	0.214170
O631	O63	0.396100	0.239930	0.314520
O641	O64	0.341100	0.319760	0.318570
O651	O65	0.396900	0.212250	0.138670
O661	O66	0.433800	0.166100	0.188660
C911	C91	0.287700	0.328600	0.206590
C921	C92	0.320400	0.290000	0.182940
C931	C93	0.369900	0.249100	0.197820
C941	C94	0.384400	0.246100	0.235680
C951	C95	0.350700	0.284200	0.259150
C961	C96	0.302900	0.325700	0.244420
C971	C97	0.235800	0.372500	0.190260
C981	C98	0.363900	0.280500	0.300090
C991	C99	0.403800	0.205800	0.173800
H411	H41	0.303500	0.290200	0.158800
H421	H42	0.412400	0.218000	0.243400
H431	H43	0.279100	0.354100	0.260100
H441	H44	0.194900	0.435800	0.208800
Ag121	Ag12	0.182990	0.841570	0.842070
O671	O67	0.211700	0.873890	0.657960
O681	O68	0.218600	0.909180	0.714170
O691	O69	0.396100	0.739930	0.814520
O701	O70	0.341100	0.819760	0.818570
O711	O71	0.396900	0.712250	0.638670
O721	O72	0.433800	0.666100	0.688660
C1001	C100	0.287700	0.828600	0.706590
C1011	C101	0.320400	0.790000	0.682940
C1021	C102	0.369900	0.749100	0.697820
C1031	C103	0.384400	0.746100	0.735680
C1041	C104	0.350700	0.784200	0.759150
C1051	C105	0.302900	0.825700	0.744420
C1061	C106	0.235800	0.872500	0.690260
C1071	C107	0.363900	0.780500	0.800090
C1081	C108	0.403800	0.705800	0.673800
H451	H45	0.303500	0.790200	0.658800
H461	H46	0.412400	0.718000	0.743400
H471	H47	0.279100	0.854100	0.760100
H481	H48	0.194900	0.935800	0.708800
Ag131	Ag13	0.067010	0.408430	0.842070
O731	O73	0.038300	0.376110	0.657960
O741	O74	0.031400	0.340820	0.714170
O751	O75	0.853900	0.510070	0.814520
O761	O76	0.908900	0.430240	0.818570
O771	O77	0.853100	0.537750	0.638670
O781	O78	0.816200	0.583900	0.688660
C1091	C109	0.962300	0.421400	0.706590
C1101	C110	0.929600	0.460000	0.682940
C1111	C111	0.880100	0.500900	0.697820
C1121	C112	0.865600	0.503900	0.735680
C1131	C113	0.899300	0.465800	0.759150
C1141	C114	0.947100	0.424300	0.744420
C1151	C115	0.014200	0.377500	0.690260
C1161	C116	0.886100	0.469500	0.800090
C1171	C117	0.846200	0.544200	0.673800
H491	H49	0.946500	0.459800	0.658800
H501	H50	0.837600	0.532000	0.743400
H511	H51	0.970900	0.395900	0.760100
H521	H52	0.055100	0.314200	0.708800
Ag141	Ag14	0.067010	0.908430	0.342070
O791	O79	0.038300	0.876110	0.157960
O801	O80	0.031400	0.840820	0.214170
O811	O81	0.853900	0.010070	0.314520
O821	O82	0.908900	0.930240	0.318570
O831	O83	0.853100	0.037750	0.138670
O841	O84	0.816200	0.083900	0.188660
C1181	C118	0.962300	0.921400	0.206590
C1191	C119	0.929600	0.960000	0.182940
C1201	C120	0.880100	0.000900	0.197820
C1211	C121	0.865600	0.003900	0.235680
C1221	C122	0.899300	0.965800	0.259150
C1231	C123	0.947100	0.924300	0.244420
C1241	C124	0.014200	0.877500	0.190260
C1251	C125	0.886100	0.969500	0.300090
C1261	C126	0.846200	0.044200	0.173800
H531	H53	0.946500	0.959800	0.158800
H541	H54	0.837600	0.032000	0.243400
H551	H55	0.970900	0.895900	0.260100
H561	H56	0.055100	0.814200	0.208800
Ag151	Ag15	0.567010	0.408430	0.342070
O851	O85	0.538300	0.376110	0.157960
O861	O86	0.531400	0.340820	0.214170
O871	O87	0.353900	0.510070	0.314520
O881	O88	0.408900	0.430240	0.318570
O891	O89	0.353100	0.537750	0.138670
O901	O90	0.316200	0.583900	0.188660
C1271	C127	0.462300	0.421400	0.206590
C1281	C128	0.429600	0.460000	0.182940
C1291	C129	0.380100	0.500900	0.197820
C1301	C130	0.365600	0.503900	0.235680
C1311	C131	0.399300	0.465800	0.259150
C1321	C132	0.447100	0.424300	0.244420
C1331	C133	0.514200	0.377500	0.190260
C1341	C134	0.386100	0.469500	0.300090
C1351	C135	0.346200	0.544200	0.173800
H571	H57	0.446500	0.459800	0.158800
H581	H58	0.337600	0.532000	0.243400
H591	H59	0.470900	0.395900	0.260100
H601	H60	0.555100	0.314200	0.208800
Ag161	Ag16	0.567010	0.908430	0.842070
O911	O91	0.538300	0.876110	0.657960
O921	O92	0.531400	0.840820	0.714170
O931	O93	0.353900	0.010070	0.814520
O941	O94	0.408900	0.930240	0.818570
O951	O95	0.353100	0.037750	0.638670
O961	O96	0.316200	0.083900	0.688660
C1361	C136	0.462300	0.921400	0.706590
C1371	C137	0.429600	0.960000	0.682940
C1381	C138	0.380100	0.000900	0.697820
C1391	C139	0.365600	0.003900	0.735680
C1401	C140	0.399300	0.965800	0.759150
C1411	C141	0.447100	0.924300	0.744420
C1421	C142	0.514200	0.877500	0.690260
C1431	C143	0.386100	0.969500	0.800090
C1441	C144	0.346200	0.044200	0.673800
H611	H61	0.446500	0.959800	0.658800
H621	H62	0.337600	0.032000	0.743400
H631	H63	0.470900	0.895900	0.760100
H641	H64	0.555100	0.814200	0.708800
Ag171	Ag17	0.932990	0.658430	0.092070
O971	O97	0.961700	0.626110	0.907960
O981	O98	0.968600	0.590820	0.964170
O991	O99	0.146100	0.760070	0.064520
O1001	O100	0.091100	0.680240	0.068570
O1011	O101	0.146900	0.787750	0.888670
O1021	O102	0.183800	0.833900	0.938660
C1451	C145	0.037700	0.671400	0.956590
C1461	C146	0.070400	0.710000	0.932940
C1471	C147	0.119900	0.750900	0.947820
C1481	C148	0.134400	0.753900	0.985680
C1491	C149	0.100700	0.715800	0.009150
C1501	C150	0.052900	0.674300	0.994420
C1511	C151	0.985800	0.627500	0.940260
C1521	C152	0.113900	0.719500	0.050090
C1531	C153	0.153800	0.794200	0.923800
H651	H65	0.053500	0.709800	0.908800
H661	H66	0.162400	0.782000	0.993400
H671	H67	0.029100	0.645900	0.010100
H681	H68	0.944900	0.564200	0.958800
Ag181	Ag18	0.932990	0.158430	0.592070
O1031	O103	0.961700	0.126110	0.407960
O1041	O104	0.968600	0.090820	0.464170
O1051	O105	0.146100	0.260070	0.564520
O1061	O106	0.091100	0.180240	0.568570
O1071	O107	0.146900	0.287750	0.388670
O1081	O108	0.183800	0.333900	0.438660
C1541	C154	0.037700	0.171400	0.456590
C1551	C155	0.070400	0.210000	0.432940
C1561	C156	0.119900	0.250900	0.447820
C1571	C157	0.134400	0.253900	0.485680
C1581	C158	0.100700	0.215800	0.509150
C1591	C159	0.052900	0.174300	0.494420
C1601	C160	0.985800	0.127500	0.440260
C1611	C161	0.113900	0.219500	0.550090
C1621	C162	0.153800	0.294200	0.423800
H691	H69	0.053500	0.209800	0.408800
H701	H70	0.162400	0.282000	0.493400
H711	H71	0.029100	0.145900	0.510100
H721	H72	0.944900	0.064200	0.458800
Ag191	Ag19	0.432990	0.658430	0.592070
O1091	O109	0.461700	0.626110	0.407960
O1101	O110	0.468600	0.590820	0.464170
O1111	O111	0.646100	0.760070	0.564520
O1121	O112	0.591100	0.680240	0.568570
O1131	O113	0.646900	0.787750	0.388670
O1141	O114	0.683800	0.833900	0.438660
C1631	C163	0.537700	0.671400	0.456590
C1641	C164	0.570400	0.710000	0.432940
C1651	C165	0.619900	0.750900	0.447820
C1661	C166	0.634400	0.753900	0.485680
C1671	C167	0.600700	0.715800	0.509150
C1681	C168	0.552900	0.674300	0.494420
C1691	C169	0.485800	0.627500	0.440260
C1701	C170	0.613900	0.719500	0.550090
C1711	C171	0.653800	0.794200	0.423800
H731	H73	0.553500	0.709800	0.408800
H741	H74	0.662400	0.782000	0.493400
H751	H75	0.529100	0.645900	0.510100
H761	H76	0.444900	0.564200	0.458800
Ag201	Ag20	0.432990	0.158430	0.092070
O1151	O115	0.461700	0.126110	0.907960
O1161	O116	0.468600	0.090820	0.964170
O1171	O117	0.646100	0.260070	0.064520
O1181	O118	0.591100	0.180240	0.068570
O1191	O119	0.646900	0.287750	0.888670
O1201	O120	0.683800	0.333900	0.938660
C1721	C172	0.537700	0.171400	0.956590
C1731	C173	0.570400	0.210000	0.932940
C1741	C174	0.619900	0.250900	0.947820
C1751	C175	0.634400	0.253900	0.985680
C1761	C176	0.600700	0.215800	0.009150
C1771	C177	0.552900	0.174300	0.994420
C1781	C178	0.485800	0.127500	0.940260
C1791	C179	0.613900	0.219500	0.050090
C1801	C180	0.653800	0.294200	0.923800
H771	H77	0.553500	0.209800	0.908800
H781	H78	0.662400	0.282000	0.993400
H791	H79	0.529100	0.145900	0.010100
H801	H80	0.444900	0.064200	0.958800
Ag211	Ag21	0.317010	0.591570	0.092070
O1211	O121	0.288300	0.623890	0.907960
O1221	O122	0.281400	0.659180	0.964170
O1231	O123	0.103900	0.489930	0.064520
O1241	O124	0.158900	0.569760	0.068570
O1251	O125	0.103100	0.462250	0.888670
O1261	O126	0.066200	0.416100	0.938660
C1811	C181	0.212300	0.578600	0.956590
C1821	C182	0.179600	0.540000	0.932940
C1831	C183	0.130100	0.499100	0.947820
C1841	C184	0.115600	0.496100	0.985680
C1851	C185	0.149300	0.534200	0.009150
C1861	C186	0.197100	0.575700	0.994420
C1871	C187	0.264200	0.622500	0.940260
C1881	C188	0.136100	0.530500	0.050090
C1891	C189	0.096200	0.455800	0.923800
H811	H81	0.196500	0.540200	0.908800
H821	H82	0.087600	0.468000	0.993400
H831	H83	0.220900	0.604100	0.010100
H841	H84	0.305100	0.685800	0.958800
Ag221	Ag22	0.317010	0.091570	0.592070
O1271	O127	0.288300	0.123890	0.407960
O1281	O128	0.281400	0.159180	0.464170
O1291	O129	0.103900	0.989930	0.564520
O1301	O130	0.158900	0.069760	0.568570
O1311	O131	0.103100	0.962250	0.388670
O1321	O132	0.066200	0.916100	0.438660
C1901	C190	0.212300	0.078600	0.456590
C1911	C191	0.179600	0.040000	0.432940
C1921	C192	0.130100	0.999100	0.447820
C1931	C193	0.115600	0.996100	0.485680
C1941	C194	0.149300	0.034200	0.509150
C1951	C195	0.197100	0.075700	0.494420
C1961	C196	0.264200	0.122500	0.440260
C1971	C197	0.136100	0.030500	0.550090
C1981	C198	0.096200	0.955800	0.423800
H851	H85	0.196500	0.040200	0.408800
H861	H86	0.087600	0.968000	0.493400
H871	H87	0.220900	0.104100	0.510100
H881	H88	0.305100	0.185800	0.458800
Ag231	Ag23	0.817010	0.591570	0.592070
O1331	O133	0.788300	0.623890	0.407960
O1341	O134	0.781400	0.659180	0.464170
O1351	O135	0.603900	0.489930	0.564520
O1361	O136	0.658900	0.569760	0.568570
O1371	O137	0.603100	0.462250	0.388670
O1381	O138	0.566200	0.416100	0.438660
C1991	C199	0.712300	0.578600	0.456590
C2001	C200	0.679600	0.540000	0.432940
C2011	C201	0.630100	0.499100	0.447820
C2021	C202	0.615600	0.496100	0.485680
C2031	C203	0.649300	0.534200	0.509150
C2041	C204	0.697100	0.575700	0.494420
C2051	C205	0.764200	0.622500	0.440260
C2061	C206	0.636100	0.530500	0.550090
C2071	C207	0.596200	0.455800	0.423800
H891	H89	0.696500	0.540200	0.408800
H901	H90	0.587600	0.468000	0.493400
H911	H91	0.720900	0.604100	0.510100
H921	H92	0.805100	0.685800	0.458800
Ag241	Ag24	0.817010	0.091570	0.092070
O1391	O139	0.788300	0.123890	0.907960
O1401	O140	0.781400	0.159180	0.964170
O1411	O141	0.603900	0.989930	0.064520
O1421	O142	0.658900	0.069760	0.068570
O1431	O143	0.603100	0.962250	0.888670
O1441	O144	0.566200	0.916100	0.938660
C2081	C208	0.712300	0.078600	0.956590
C2091	C209	0.679600	0.040000	0.932940
C2101	C210	0.630100	0.999100	0.947820
C2111	C211	0.615600	0.996100	0.985680
C2121	C212	0.649300	0.034200	0.009150
C2131	C213	0.697100	0.075700	0.994420
C2141	C214	0.764200	0.122500	0.940260
C2151	C215	0.636100	0.030500	0.050090
C2161	C216	0.596200	0.955800	0.923800
H931	H93	0.696500	0.040200	0.908800
H941	H94	0.587600	0.968000	0.993400
H951	H95	0.720900	0.104100	0.010100
H961	H96	0.805100	0.185800	0.958800
Ag251	Ag25	0.317010	0.658430	0.157930
O1451	O145	0.288300	0.626110	0.342040
O1461	O146	0.281400	0.590820	0.285830
O1471	O147	0.103900	0.760070	0.185480
O1481	O148	0.158900	0.680240	0.181430
O1491	O149	0.103100	0.787750	0.361330
O1501	O150	0.066200	0.833900	0.311340
C2171	C217	0.212300	0.671400	0.293410
C2181	C218	0.179600	0.710000	0.317060
C2191	C219	0.130100	0.750900	0.302180
C2201	C220	0.115600	0.753900	0.264320
C2211	C221	0.149300	0.715800	0.240850
C2221	C222	0.197100	0.674300	0.255580
C2231	C223	0.264200	0.627500	0.309740
C2241	C224	0.136100	0.719500	0.199910
C2251	C225	0.096200	0.794200	0.326200
H971	H97	0.196500	0.709800	0.341200
H981	H98	0.087600	0.782000	0.256600
H991	H99	0.220900	0.645900	0.239900
H1001	H100	0.305100	0.564200	0.291200
Ag261	Ag26	0.317010	0.158430	0.657930
O1511	O151	0.288300	0.126110	0.842040
O1521	O152	0.281400	0.090820	0.785830
O1531	O153	0.103900	0.260070	0.685480
O1541	O154	0.158900	0.180240	0.681430
O1551	O155	0.103100	0.287750	0.861330
O1561	O156	0.066200	0.333900	0.811340
C2261	C226	0.212300	0.171400	0.793410
C2271	C227	0.179600	0.210000	0.817060
C2281	C228	0.130100	0.250900	0.802180
C2291	C229	0.115600	0.253900	0.764320
C2301	C230	0.149300	0.215800	0.740850
C2311	C231	0.197100	0.174300	0.755580
C2321	C232	0.264200	0.127500	0.809740
C2331	C233	0.136100	0.219500	0.699910
C2341	C234	0.096200	0.294200	0.826200
H1011	H101	0.196500	0.209800	0.841200
H1021	H102	0.087600	0.282000	0.756600
H1031	H103	0.220900	0.145900	0.739900
H1041	H104	0.305100	0.064200	0.791200
Ag271	Ag27	0.817010	0.658430	0.657930
O1571	O157	0.788300	0.626110	0.842040
O1581	O158	0.781400	0.590820	0.785830
O1591	O159	0.603900	0.760070	0.685480
O1601	O160	0.658900	0.680240	0.681430
O1611	O161	0.603100	0.787750	0.861330
O1621	O162	0.566200	0.833900	0.811340
C2351	C235	0.712300	0.671400	0.793410
C2361	C236	0.679600	0.710000	0.817060
C2371	C237	0.630100	0.750900	0.802180
C2381	C238	0.615600	0.753900	0.764320
C2391	C239	0.649300	0.715800	0.740850
C2401	C240	0.697100	0.674300	0.755580
C2411	C241	0.764200	0.627500	0.809740
C2421	C242	0.636100	0.719500	0.699910
C2431	C243	0.596200	0.794200	0.826200
H1051	H105	0.696500	0.709800	0.841200
H1061	H106	0.587600	0.782000	0.756600
H1071	H107	0.720900	0.645900	0.739900
H1081	H108	0.805100	0.564200	0.791200
Ag281	Ag28	0.817010	0.158430	0.157930
O1631	O163	0.788300	0.126110	0.342040
O1641	O164	0.781400	0.090820	0.285830
O1651	O165	0.603900	0.260070	0.185480
O1661	O166	0.658900	0.180240	0.181430
O1671	O167	0.603100	0.287750	0.361330
O1681	O168	0.566200	0.333900	0.311340
C2441	C244	0.712300	0.171400	0.293410
C2451	C245	0.679600	0.210000	0.317060
C2461	C246	0.630100	0.250900	0.302180
C2471	C247	0.615600	0.253900	0.264320
C2481	C248	0.649300	0.215800	0.240850
C2491	C249	0.697100	0.174300	0.255580
C2501	C250	0.764200	0.127500	0.309740
C2511	C251	0.636100	0.219500	0.199910
C2521	C252	0.596200	0.294200	0.326200
H1091	H109	0.696500	0.209800	0.341200
H1101	H110	0.587600	0.282000	0.256600
H1111	H111	0.720900	0.145900	0.239900
H1121	H112	0.805100	0.064200	0.291200
Ag291	Ag29	0.932990	0.591570	0.157930
O1691	O169	0.961700	0.623890	0.342040
O1701	O170	0.968600	0.659180	0.285830
O1711	O171	0.146100	0.489930	0.185480
O1721	O172	0.091100	0.569760	0.181430
O1731	O173	0.146900	0.462250	0.361330
O1741	O174	0.183800	0.416100	0.311340
C2531	C253	0.037700	0.578600	0.293410
C2541	C254	0.070400	0.540000	0.317060
C2551	C255	0.119900	0.499100	0.302180
C2561	C256	0.134400	0.496100	0.264320
C2571	C257	0.100700	0.534200	0.240850
C2581	C258	0.052900	0.575700	0.255580
C2591	C259	0.985800	0.622500	0.309740
C2601	C260	0.113900	0.530500	0.199910
C2611	C261	0.153800	0.455800	0.326200
H1131	H113	0.053500	0.540200	0.341200
H1141	H114	0.162400	0.468000	0.256600
H1151	H115	0.029100	0.604100	0.239900
H1161	H116	0.944900	0.685800	0.291200
Ag301	Ag30	0.932990	0.091570	0.657930
O1751	O175	0.961700	0.123890	0.842040
O1761	O176	0.968600	0.159180	0.785830
O1771	O177	0.146100	0.989930	0.685480
O1781	O178	0.091100	0.069760	0.681430
O1791	O179	0.146900	0.962250	0.861330
O1801	O180	0.183800	0.916100	0.811340
C2621	C262	0.037700	0.078600	0.793410
C2631	C263	0.070400	0.040000	0.817060
C2641	C264	0.119900	0.999100	0.802180
C2651	C265	0.134400	0.996100	0.764320
C2661	C266	0.100700	0.034200	0.740850
C2671	C267	0.052900	0.075700	0.755580
C2681	C268	0.985800	0.122500	0.809740
C2691	C269	0.113900	0.030500	0.699910
C2701	C270	0.153800	0.955800	0.826200
H1171	H117	0.053500	0.040200	0.841200
H1181	H118	0.162400	0.968000	0.756600
H1191	H119	0.029100	0.104100	0.739900
H1201	H120	0.944900	0.185800	0.791200
Ag311	Ag31	0.432990	0.591570	0.657930
O1811	O181	0.461700	0.623890	0.842040
O1821	O182	0.468600	0.659180	0.785830
O1831	O183	0.646100	0.489930	0.685480
O1841	O184	0.591100	0.569760	0.681430
O1851	O185	0.646900	0.462250	0.861330
O1861	O186	0.683800	0.416100	0.811340
C2711	C271	0.537700	0.578600	0.793410
C2721	C272	0.570400	0.540000	0.817060
C2731	C273	0.619900	0.499100	0.802180
C2741	C274	0.634400	0.496100	0.764320
C2751	C275	0.600700	0.534200	0.740850
C2761	C276	0.552900	0.575700	0.755580
C2771	C277	0.485800	0.622500	0.809740
C2781	C278	0.613900	0.530500	0.699910
C2791	C279	0.653800	0.455800	0.826200
H1211	H121	0.553500	0.540200	0.841200
H1221	H122	0.662400	0.468000	0.756600
H1231	H123	0.529100	0.604100	0.739900
H1241	H124	0.444900	0.685800	0.791200
Ag321	Ag32	0.432990	0.091570	0.157930
O1871	O187	0.461700	0.123890	0.342040
O1881	O188	0.468600	0.159180	0.285830
O1891	O189	0.646100	0.989930	0.185480
O1901	O190	0.591100	0.069760	0.181430
O1911	O191	0.646900	0.962250	0.361330
O1921	O192	0.683800	0.916100	0.311340
C2801	C280	0.537700	0.078600	0.293410
C2811	C281	0.570400	0.040000	0.317060
C2821	C282	0.619900	0.999100	0.302180
C2831	C283	0.634400	0.996100	0.264320
C2841	C284	0.600700	0.034200	0.240850
C2851	C285	0.552900	0.075700	0.255580
C2861	C286	0.485800	0.122500	0.309740
C2871	C287	0.613900	0.030500	0.199910
C2881	C288	0.653800	0.955800	0.326200
H1251	H125	0.553500	0.040200	0.341200
H1261	H126	0.662400	0.968000	0.256600
H1271	H127	0.529100	0.104100	0.239900
H1281	H128	0.444900	0.185800	0.291200
Ag331	Ag33	0.875000	0.316050	0.875000
Ag341	Ag34	0.875000	0.816050	0.375000
Ag351	Ag35	0.375000	0.316050	0.375000
Ag361	Ag36	0.375000	0.816050	0.875000
Ag371	Ag37	0.875000	0.433950	0.875000
Ag381	Ag38	0.875000	0.933950	0.375000
Ag391	Ag39	0.375000	0.433950	0.375000
Ag401	Ag40	0.375000	0.933950	0.875000
Ag411	Ag41	0.125000	0.683950	0.125000
Ag421	Ag42	0.125000	0.183950	0.625000
Ag431	Ag43	0.625000	0.683950	0.625000
Ag441	Ag44	0.625000	0.183950	0.125000
Ag451	Ag45	0.125000	0.566050	0.125000
Ag461	Ag46	0.125000	0.066050	0.625000
Ag471	Ag47	0.625000	0.566050	0.625000
Ag481	Ag48	0.625000	0.066050	0.125000
