data_UFASAW_charged_PM
_symmetry_space_group_name_H-M	'P1'
_cell_length_a	11.319700
_cell_length_b	11.319700
_cell_length_c	37.354000
_cell_angle_alpha	90.000000
_cell_angle_beta	90.000000
_cell_angle_gamma	94.470700
_symmetry_Int_Tables_number 1

loop_
_symmetry_equiv_pos_as_xyz
'x,y,z'

loop_
_atom_site_label
_atom_site_type_symbol
_atom_site_fract_x
_atom_site_fract_y
_atom_site_fract_z
Cd11	Cd1	0.098020	0.693220	0.352100
Cd21	Cd2	0.382210	0.979350	0.335690
Cd31	Cd3	0.401980	0.806780	0.852100
Cd41	Cd4	0.117790	0.520650	0.835690
Cd51	Cd5	0.193220	0.598020	0.147900
Cd61	Cd6	0.479350	0.882210	0.164310
Cd71	Cd7	0.306780	0.901980	0.647900
Cd81	Cd8	0.020650	0.617790	0.664310
Cd91	Cd9	0.901980	0.306780	0.647900
Cd101	Cd10	0.617790	0.020650	0.664310
Cd111	Cd11	0.598020	0.193220	0.147900
Cd121	Cd12	0.882210	0.479350	0.164310
Cd131	Cd13	0.806780	0.401980	0.852100
Cd141	Cd14	0.520650	0.117790	0.835690
Cd151	Cd15	0.693220	0.098020	0.352100
Cd161	Cd16	0.979350	0.382210	0.335690
Cd171	Cd17	0.538420	0.538420	0.348860
Cd181	Cd18	0.961580	0.961580	0.848860
Cd191	Cd19	0.038420	0.038420	0.151140
Cd201	Cd20	0.461580	0.461580	0.651140
H11	H1	0.243900	0.582900	0.420200
H21	H2	0.979400	0.784800	0.421000
H31	H3	0.227000	0.559000	0.482300
H41	H4	0.962900	0.769700	0.483100
H51	H5	0.210900	0.562300	0.600400
H61	H6	0.225300	0.560900	0.538300
H71	H7	0.920100	0.728100	0.593500
H81	H8	0.934100	0.734500	0.532300
H91	H9	0.256100	0.917100	0.920200
H101	H10	0.520600	0.715200	0.921000
H111	H11	0.273000	0.941000	0.982300
H121	H12	0.537100	0.730300	0.983100
H131	H13	0.289100	0.937700	0.100400
H141	H14	0.274700	0.939100	0.038300
H151	H15	0.579900	0.771900	0.093500
H161	H16	0.565900	0.765500	0.032300
H171	H17	0.082900	0.743900	0.079800
H181	H18	0.284800	0.479400	0.079000
H191	H19	0.059000	0.727000	0.017700
H201	H20	0.269700	0.462900	0.016900
H211	H21	0.062300	0.710900	0.899600
H221	H22	0.060900	0.725300	0.961700
H231	H23	0.228100	0.420100	0.906500
H241	H24	0.234500	0.434100	0.967700
H251	H25	0.417100	0.756100	0.579800
H261	H26	0.215200	0.020600	0.579000
H271	H27	0.441000	0.773000	0.517700
H281	H28	0.230300	0.037100	0.516900
H291	H29	0.437700	0.789100	0.399600
H301	H30	0.439100	0.774700	0.461700
H311	H31	0.271900	0.079900	0.406500
H321	H32	0.265500	0.065900	0.467700
H331	H33	0.756100	0.417100	0.579800
H341	H34	0.020600	0.215200	0.579000
H351	H35	0.773000	0.441000	0.517700
H361	H36	0.037100	0.230300	0.516900
H371	H37	0.789100	0.437700	0.399600
H381	H38	0.774700	0.439100	0.461700
H391	H39	0.079900	0.271900	0.406500
H401	H40	0.065900	0.265500	0.467700
H411	H41	0.743900	0.082900	0.079800
H421	H42	0.479400	0.284800	0.079000
H431	H43	0.727000	0.059000	0.017700
H441	H44	0.462900	0.269700	0.016900
H451	H45	0.710900	0.062300	0.899600
H461	H46	0.725300	0.060900	0.961700
H471	H47	0.420100	0.228100	0.906500
H481	H48	0.434100	0.234500	0.967700
H491	H49	0.917100	0.256100	0.920200
H501	H50	0.715200	0.520600	0.921000
H511	H51	0.941000	0.273000	0.982300
H521	H52	0.730300	0.537100	0.983100
H531	H53	0.937700	0.289100	0.100400
H541	H54	0.939100	0.274700	0.038300
H551	H55	0.771900	0.579900	0.093500
H561	H56	0.765500	0.565900	0.032300
H571	H57	0.582900	0.243900	0.420200
H581	H58	0.784800	0.979400	0.421000
H591	H59	0.559000	0.227000	0.482300
H601	H60	0.769700	0.962900	0.483100
H611	H61	0.562300	0.210900	0.600400
H621	H62	0.560900	0.225300	0.538300
H631	H63	0.728100	0.920100	0.593500
H641	H64	0.734500	0.934100	0.532300
H651	H65	0.515200	0.015200	0.250000
H661	H66	0.984800	0.484800	0.750000
H671	H67	0.484800	0.984800	0.750000
H681	H68	0.015200	0.515200	0.250000
H691	H69	0.983600	0.983600	0.357200
H701	H70	0.101100	0.101100	0.325200
H711	H71	0.516400	0.516400	0.857200
H721	H72	0.398900	0.398900	0.825200
H731	H73	0.483600	0.483600	0.142800
H741	H74	0.601100	0.601100	0.174800
H751	H75	0.016400	0.016400	0.642800
H761	H76	0.898900	0.898900	0.674800
C11	C1	0.224200	0.779000	0.294900
C21	C2	0.307900	0.830900	0.267200
C31	C3	0.822800	0.614400	0.343400
C41	C4	0.830800	0.743000	0.347700
C51	C5	0.461700	0.251700	0.353000
C61	C6	0.334500	0.249500	0.345400
C71	C7	0.184700	0.620900	0.432800
C81	C8	0.032700	0.738100	0.433200
C91	C9	0.096500	0.660900	0.488900
C101	C10	0.083200	0.653200	0.528800
C111	C11	0.175100	0.607700	0.470200
C121	C12	0.020900	0.729100	0.470700
C131	C13	0.152000	0.596800	0.586700
C141	C14	0.162500	0.598300	0.549400
C151	C15	0.984700	0.693300	0.582600
C161	C16	0.992900	0.698500	0.545700
C171	C17	0.275800	0.721000	0.794900
C181	C18	0.192100	0.669100	0.767200
C191	C19	0.677200	0.885600	0.843400
C201	C20	0.669200	0.757000	0.847700
C211	C21	0.038300	0.248300	0.853000
C221	C22	0.165500	0.250500	0.845400
C231	C23	0.315300	0.879100	0.932800
C241	C24	0.467300	0.761900	0.933200
C251	C25	0.403500	0.839100	0.988900
C261	C26	0.416800	0.846800	0.028800
C271	C27	0.324900	0.892300	0.970200
C281	C28	0.479100	0.770900	0.970700
C291	C29	0.348000	0.903200	0.086700
C301	C30	0.337500	0.901700	0.049400
C311	C31	0.515300	0.806700	0.082600
C321	C32	0.507100	0.801500	0.045700
C331	C33	0.279000	0.724200	0.205100
C341	C34	0.330900	0.807900	0.232800
C351	C35	0.114400	0.322800	0.156600
C361	C36	0.243000	0.330800	0.152300
C371	C37	0.751700	0.961700	0.147000
C381	C38	0.749500	0.834500	0.154600
C391	C39	0.120900	0.684700	0.067200
C401	C40	0.238100	0.532700	0.066800
C411	C41	0.160900	0.596500	0.011100
C421	C42	0.153200	0.583200	0.971200
C431	C43	0.107700	0.675100	0.029800
C441	C44	0.229100	0.520900	0.029300
C451	C45	0.096800	0.652000	0.913300
C461	C46	0.098300	0.662500	0.950600
C471	C47	0.193300	0.484700	0.917400
C481	C48	0.198500	0.492900	0.954300
C491	C49	0.221000	0.775800	0.705100
C501	C50	0.169100	0.692100	0.732800
C511	C51	0.385600	0.177200	0.656600
C521	C52	0.257000	0.169200	0.652300
C531	C53	0.748300	0.538300	0.647000
C541	C54	0.750500	0.665500	0.654600
C551	C55	0.379100	0.815300	0.567200
C561	C56	0.261900	0.967300	0.566800
C571	C57	0.339100	0.903500	0.511100
C581	C58	0.346800	0.916800	0.471200
C591	C59	0.392300	0.824900	0.529800
C601	C60	0.270900	0.979100	0.529300
C611	C61	0.403200	0.848000	0.413300
C621	C62	0.401700	0.837500	0.450600
C631	C63	0.306700	0.015300	0.417400
C641	C64	0.301500	0.007100	0.454300
C651	C65	0.775800	0.221000	0.705100
C661	C66	0.692100	0.169100	0.732800
C671	C67	0.177200	0.385600	0.656600
C681	C68	0.169200	0.257000	0.652300
C691	C69	0.538300	0.748300	0.647000
C701	C70	0.665500	0.750500	0.654600
C711	C71	0.815300	0.379100	0.567200
C721	C72	0.967300	0.261900	0.566800
C731	C73	0.903500	0.339100	0.511100
C741	C74	0.916800	0.346800	0.471200
C751	C75	0.824900	0.392300	0.529800
C761	C76	0.979100	0.270900	0.529300
C771	C77	0.848000	0.403200	0.413300
C781	C78	0.837500	0.401700	0.450600
C791	C79	0.015300	0.306700	0.417400
C801	C80	0.007100	0.301500	0.454300
C811	C81	0.724200	0.279000	0.205100
C821	C82	0.807900	0.330900	0.232800
C831	C83	0.322800	0.114400	0.156600
C841	C84	0.330800	0.243000	0.152300
C851	C85	0.961700	0.751700	0.147000
C861	C86	0.834500	0.749500	0.154600
C871	C87	0.684700	0.120900	0.067200
C881	C88	0.532700	0.238100	0.066800
C891	C89	0.596500	0.160900	0.011100
C901	C90	0.583200	0.153200	0.971200
C911	C91	0.675100	0.107700	0.029800
C921	C92	0.520900	0.229100	0.029300
C931	C93	0.652000	0.096800	0.913300
C941	C94	0.662500	0.098300	0.950600
C951	C95	0.484700	0.193300	0.917400
C961	C96	0.492900	0.198500	0.954300
C971	C97	0.721000	0.275800	0.794900
C981	C98	0.669100	0.192100	0.767200
C991	C99	0.885600	0.677200	0.843400
C1001	C100	0.757000	0.669200	0.847700
C1011	C101	0.248300	0.038300	0.853000
C1021	C102	0.250500	0.165500	0.845400
C1031	C103	0.879100	0.315300	0.932800
C1041	C104	0.761900	0.467300	0.933200
C1051	C105	0.839100	0.403500	0.988900
C1061	C106	0.846800	0.416800	0.028800
C1071	C107	0.892300	0.324900	0.970200
C1081	C108	0.770900	0.479100	0.970700
C1091	C109	0.903200	0.348000	0.086700
C1101	C110	0.901700	0.337500	0.049400
C1111	C111	0.806700	0.515300	0.082600
C1121	C112	0.801500	0.507100	0.045700
C1131	C113	0.779000	0.224200	0.294900
C1141	C114	0.830900	0.307900	0.267200
C1151	C115	0.614400	0.822800	0.343400
C1161	C116	0.743000	0.830800	0.347700
C1171	C117	0.251700	0.461700	0.353000
C1181	C118	0.249500	0.334500	0.345400
C1191	C119	0.620900	0.184700	0.432800
C1201	C120	0.738100	0.032700	0.433200
C1211	C121	0.660900	0.096500	0.488900
C1221	C122	0.653200	0.083200	0.528800
C1231	C123	0.607700	0.175100	0.470200
C1241	C124	0.729100	0.020900	0.470700
C1251	C125	0.596800	0.152000	0.586700
C1261	C126	0.598300	0.162500	0.549400
C1271	C127	0.693300	0.984700	0.582600
C1281	C128	0.698500	0.992900	0.545700
C1291	C129	0.453400	0.953400	0.250000
C1301	C130	0.046600	0.546600	0.750000
C1311	C131	0.546600	0.046600	0.750000
C1321	C132	0.953400	0.453400	0.250000
C1331	C133	0.922200	0.922200	0.354200
C1341	C134	0.161200	0.161200	0.331100
C1351	C135	0.577800	0.577800	0.854200
C1361	C136	0.338800	0.338800	0.831100
C1371	C137	0.422200	0.422200	0.145800
C1381	C138	0.661200	0.661200	0.168900
C1391	C139	0.077800	0.077800	0.645800
C1401	C140	0.838800	0.838800	0.668900
N11	N1	0.386100	0.924700	0.279200
N21	N2	0.939600	0.804400	0.351800
N31	N3	0.277000	0.146200	0.336100
N41	N4	0.108600	0.688400	0.414300
N51	N5	0.060400	0.643000	0.603900
N61	N6	0.113900	0.575300	0.779200
N71	N7	0.560400	0.695600	0.851800
N81	N8	0.223000	0.353800	0.836100
N91	N9	0.391400	0.811600	0.914300
N101	N10	0.439600	0.857000	0.103900
N111	N11	0.424700	0.886100	0.220800
N121	N12	0.304400	0.439600	0.148200
N131	N13	0.646200	0.777000	0.163900
N141	N14	0.188400	0.608600	0.085700
N151	N15	0.143000	0.560400	0.896100
N161	N16	0.075300	0.613900	0.720800
N171	N17	0.195600	0.060400	0.648200
N181	N18	0.853800	0.723000	0.663900
N191	N19	0.311600	0.891400	0.585700
N201	N20	0.357000	0.939600	0.396100
N211	N21	0.613900	0.075300	0.720800
N221	N22	0.060400	0.195600	0.648200
N231	N23	0.723000	0.853800	0.663900
N241	N24	0.891400	0.311600	0.585700
N251	N25	0.939600	0.357000	0.396100
N261	N26	0.886100	0.424700	0.220800
N271	N27	0.439600	0.304400	0.148200
N281	N28	0.777000	0.646200	0.163900
N291	N29	0.608600	0.188400	0.085700
N301	N30	0.560400	0.143000	0.896100
N311	N31	0.575300	0.113900	0.779200
N321	N32	0.695600	0.560400	0.851800
N331	N33	0.353800	0.223000	0.836100
N341	N34	0.811600	0.391400	0.914300
N351	N35	0.857000	0.439600	0.103900
N361	N36	0.924700	0.386100	0.279200
N371	N37	0.804400	0.939600	0.351800
N381	N38	0.146200	0.277000	0.336100
N391	N39	0.688400	0.108600	0.414300
N401	N40	0.643000	0.060400	0.603900
O11	O1	0.236500	0.821500	0.327000
O21	O2	0.151000	0.694200	0.288200
O31	O3	0.927600	0.579400	0.343900
O41	O4	0.731500	0.548300	0.339800
O51	O5	0.526700	0.343900	0.361300
O61	O6	0.515500	0.147300	0.351500
O71	O7	0.263500	0.678500	0.827000
O81	O8	0.349000	0.805800	0.788200
O91	O9	0.572400	0.920600	0.843900
O101	O10	0.768500	0.951700	0.839800
O111	O11	0.973300	0.156100	0.861300
O121	O12	0.984500	0.352700	0.851500
O131	O13	0.321500	0.736500	0.173000
O141	O14	0.194200	0.651000	0.211800
O151	O15	0.079400	0.427600	0.156100
O161	O16	0.048300	0.231500	0.160200
O171	O17	0.843900	0.026700	0.138700
O181	O18	0.647300	0.015500	0.148500
O191	O19	0.178500	0.763500	0.673000
O201	O20	0.305800	0.849000	0.711800
O211	O21	0.420600	0.072400	0.656100
O221	O22	0.451700	0.268500	0.660200
O231	O23	0.656100	0.473300	0.638700
O241	O24	0.852700	0.484500	0.648500
O251	O25	0.763500	0.178500	0.673000
O261	O26	0.849000	0.305800	0.711800
O271	O27	0.072400	0.420600	0.656100
O281	O28	0.268500	0.451700	0.660200
O291	O29	0.473300	0.656100	0.638700
O301	O30	0.484500	0.852700	0.648500
O311	O31	0.736500	0.321500	0.173000
O321	O32	0.651000	0.194200	0.211800
O331	O33	0.427600	0.079400	0.156100
O341	O34	0.231500	0.048300	0.160200
O351	O35	0.026700	0.843900	0.138700
O361	O36	0.015500	0.647300	0.148500
O371	O37	0.678500	0.263500	0.827000
O381	O38	0.805800	0.349000	0.788200
O391	O39	0.920600	0.572400	0.843900
O401	O40	0.951700	0.768500	0.839800
O411	O41	0.156100	0.973300	0.861300
O421	O42	0.352700	0.984500	0.851500
O431	O43	0.821500	0.236500	0.327000
O441	O44	0.694200	0.151000	0.288200
O451	O45	0.579400	0.927600	0.343900
O461	O46	0.548300	0.731500	0.339800
O471	O47	0.343900	0.526700	0.361300
O481	O48	0.147300	0.515500	0.351500
O491	O49	0.570000	0.570000	0.407500
O501	O50	0.496700	0.496700	0.290500
O511	O51	0.930000	0.930000	0.907500
O521	O52	0.003300	0.003300	0.790500
O531	O53	0.070000	0.070000	0.092500
O541	O54	0.996700	0.996700	0.209500
O551	O55	0.430000	0.430000	0.592500
O561	O56	0.503300	0.503300	0.709500
N411	N41	0.700000	0.700000	0.480700
O571	O57	0.616000	0.616000	0.486200
O581	O58	0.746100	0.746100	0.505500
O591	O59	0.728300	0.728300	0.447700
N421	N42	0.800000	0.800000	0.980700
O601	O60	0.884000	0.884000	0.986200
O611	O61	0.753900	0.753900	0.005500
O621	O62	0.771700	0.771700	0.947700
N431	N43	0.200000	0.200000	0.019300
O631	O63	0.116000	0.116000	0.013800
O641	O64	0.246100	0.246100	0.994500
O651	O65	0.228300	0.228300	0.052300
N441	N44	0.300000	0.300000	0.519300
O661	O66	0.384000	0.384000	0.513800
O671	O67	0.253900	0.253900	0.494500
O681	O68	0.271700	0.271700	0.552300
