data_UFEMIC_clean_PM
_symmetry_space_group_name_H-M	'P1'
_cell_length_a	14.338400
_cell_length_b	13.352200
_cell_length_c	12.344400
_cell_angle_alpha	90.000000
_cell_angle_beta	90.000000
_cell_angle_gamma	90.000000
_symmetry_Int_Tables_number 1

loop_
_symmetry_equiv_pos_as_xyz
'x,y,z'

loop_
_atom_site_label
_atom_site_type_symbol
_atom_site_fract_x
_atom_site_fract_y
_atom_site_fract_z
C11	C1	0.458100	0.485600	0.130200
C21	C2	0.318900	0.470900	0.919200
C31	C3	0.472400	0.487900	0.468500
C41	C4	0.364600	0.294600	0.365000
C51	C5	0.468900	0.293300	0.959100
Cu11	Cu1	0.445660	0.437380	0.961040
Cu21	Cu2	0.378180	0.443570	0.363430
N11	N1	0.425000	0.471200	0.211500
N21	N2	0.245400	0.495100	0.893300
C61	C6	0.041900	0.514400	0.630200
C71	C7	0.181100	0.529100	0.419200
C81	C8	0.027600	0.512100	0.968500
C91	C9	0.135400	0.705400	0.865000
C101	C10	0.031100	0.706700	0.459100
Cu31	Cu3	0.054340	0.562620	0.461040
Cu41	Cu4	0.121820	0.556430	0.863430
N31	N3	0.075000	0.528800	0.711500
N41	N4	0.254600	0.504900	0.393300
C111	C11	0.541900	0.985600	0.869800
C121	C12	0.681100	0.970900	0.080800
C131	C13	0.527600	0.987900	0.531500
C141	C14	0.635400	0.794600	0.635000
C151	C15	0.531100	0.793300	0.040900
Cu51	Cu5	0.554340	0.937380	0.038960
Cu61	Cu6	0.621820	0.943570	0.636570
N51	N5	0.575000	0.971200	0.788500
N61	N6	0.754600	0.995100	0.106700
C161	C16	0.958100	0.014400	0.369800
C171	C17	0.818900	0.029100	0.580800
C181	C18	0.972400	0.012100	0.031500
C191	C19	0.864600	0.205400	0.135000
C201	C20	0.968900	0.206700	0.540900
Cu71	Cu7	0.945660	0.062620	0.538960
Cu81	Cu8	0.878180	0.056430	0.136570
N71	N7	0.925000	0.028800	0.288500
N81	N8	0.745400	0.004900	0.606700
C211	C21	0.541900	0.514400	0.869800
C221	C22	0.681100	0.529100	0.080800
C231	C23	0.527600	0.512100	0.531500
C241	C24	0.635400	0.705400	0.635000
C251	C25	0.531100	0.706700	0.040900
Cu91	Cu9	0.554340	0.562620	0.038960
Cu101	Cu10	0.621820	0.556430	0.636570
N91	N9	0.575000	0.528800	0.788500
N101	N10	0.754600	0.504900	0.106700
C261	C26	0.958100	0.485600	0.369800
C271	C27	0.818900	0.470900	0.580800
C281	C28	0.972400	0.487900	0.031500
C291	C29	0.864600	0.294600	0.135000
C301	C30	0.968900	0.293300	0.540900
Cu111	Cu11	0.945660	0.437380	0.538960
Cu121	Cu12	0.878180	0.443570	0.136570
N111	N11	0.925000	0.471200	0.288500
N121	N12	0.745400	0.495100	0.606700
C311	C31	0.458100	0.014400	0.130200
C321	C32	0.318900	0.029100	0.919200
C331	C33	0.472400	0.012100	0.468500
C341	C34	0.364600	0.205400	0.365000
C351	C35	0.468900	0.206700	0.959100
Cu131	Cu13	0.445660	0.062620	0.961040
Cu141	Cu14	0.378180	0.056430	0.363430
N131	N13	0.425000	0.028800	0.211500
N141	N14	0.245400	0.004900	0.893300
C361	C36	0.041900	0.985600	0.630200
C371	C37	0.181100	0.970900	0.419200
C381	C38	0.027600	0.987900	0.968500
C391	C39	0.135400	0.794600	0.865000
C401	C40	0.031100	0.793300	0.459100
Cu151	Cu15	0.054340	0.937380	0.461040
Cu161	Cu16	0.121820	0.943570	0.863430
N151	N15	0.075000	0.971200	0.711500
N161	N16	0.254600	0.995100	0.393300
