data_UFEVIL_clean_PM
_symmetry_space_group_name_H-M	'P1'
_cell_length_a	11.233700
_cell_length_b	11.233700
_cell_length_c	22.245000
_cell_angle_alpha	96.233700
_cell_angle_beta	96.233700
_cell_angle_gamma	100.981000
_symmetry_Int_Tables_number 1

loop_
_symmetry_equiv_pos_as_xyz
'x,y,z'

loop_
_atom_site_label
_atom_site_type_symbol
_atom_site_fract_x
_atom_site_fract_y
_atom_site_fract_z
Cd11	Cd1	0.701650	0.846300	0.367440
Cd21	Cd2	0.846290	0.701650	0.867440
H11	H1	0.788100	0.296700	0.502200
H21	H2	0.842700	0.619500	0.611700
H31	H3	0.120400	0.440200	0.598800
H41	H4	0.078800	0.231400	0.551700
H51	H5	0.051300	0.266100	0.484400
H61	H6	0.914800	0.093400	0.413000
H71	H7	0.719100	0.916900	0.525100
H81	H8	0.863400	0.091200	0.587200
H91	H9	0.636800	0.518600	0.568100
H101	H10	0.612300	0.385300	0.529700
H111	H11	0.702500	0.705300	0.507700
H121	H12	0.620600	0.534200	0.339400
H131	H13	0.602000	0.375400	0.408300
H141	H14	0.065200	0.729600	0.640300
H151	H15	0.166300	0.647500	0.646700
H161	H16	0.934300	0.745500	0.729700
H171	H17	0.121300	0.596300	0.850300
H181	H18	0.198900	0.557300	0.752300
H191	H19	0.296700	0.788100	0.002200
H201	H20	0.619500	0.842700	0.111700
H211	H21	0.440200	0.120400	0.098800
H221	H22	0.231400	0.078800	0.051700
H231	H23	0.266100	0.051300	0.984400
H241	H24	0.093400	0.914800	0.913000
H251	H25	0.916900	0.719100	0.025100
H261	H26	0.091200	0.863400	0.087200
H271	H27	0.518600	0.636800	0.068100
H281	H28	0.385300	0.612300	0.029700
H291	H29	0.705300	0.702500	0.007700
H301	H30	0.534200	0.620600	0.839400
H311	H31	0.375400	0.602000	0.908300
H321	H32	0.729600	0.065200	0.140300
H331	H33	0.647500	0.166300	0.146700
H341	H34	0.745500	0.934300	0.229700
H351	H35	0.596300	0.121300	0.350300
H361	H36	0.557300	0.198900	0.252300
C11	C1	0.961110	0.351310	0.546720
C21	C2	0.840670	0.359530	0.530260
C31	C3	0.796020	0.459440	0.554660
C41	C4	0.873380	0.551760	0.594950
C51	C5	0.995310	0.546710	0.611300
C61	C6	0.037710	0.445430	0.587310
C71	C7	0.013560	0.244880	0.521030
C81	C8	0.882980	0.070680	0.448900
C91	C9	0.777450	0.975150	0.509970
C101	C10	0.855710	0.070610	0.544230
C111	C11	0.664940	0.468120	0.535380
C121	C12	0.679410	0.642810	0.473740
C131	C13	0.635200	0.549300	0.382650
C141	C14	0.624160	0.461380	0.420050
C151	C15	0.081000	0.651420	0.652730
C161	C16	0.990640	0.702360	0.747940
C171	C17	0.092180	0.621620	0.813010
C181	C18	0.135430	0.599970	0.759580
C191	C19	0.351310	0.961110	0.046720
C201	C20	0.359530	0.840670	0.030260
C211	C21	0.459440	0.796020	0.054660
C221	C22	0.551760	0.873380	0.094950
C231	C23	0.546710	0.995310	0.111300
C241	C24	0.445430	0.037710	0.087310
C251	C25	0.244880	0.013560	0.021030
C261	C26	0.070680	0.882980	0.948900
C271	C27	0.975150	0.777450	0.009970
C281	C28	0.070610	0.855710	0.044230
C291	C29	0.468120	0.664940	0.035380
C301	C30	0.642810	0.679410	0.973740
C311	C31	0.549300	0.635200	0.882650
C321	C32	0.461380	0.624160	0.920050
C331	C33	0.651420	0.081000	0.152730
C341	C34	0.702360	0.990640	0.247940
C351	C35	0.621620	0.092180	0.313010
C361	C36	0.599970	0.135430	0.259580
N11	N1	0.921930	0.131930	0.504630
N21	N2	0.795220	0.975180	0.449700
N31	N3	0.651760	0.522280	0.478370
N41	N4	0.670560	0.663360	0.416140
N51	N5	0.069370	0.651630	0.717760
N61	N6	0.000500	0.685520	0.805830
N71	N7	0.131930	0.921930	0.004630
N81	N8	0.975180	0.795220	0.949700
N91	N9	0.522280	0.651760	0.978370
N101	N10	0.663360	0.670560	0.916140
N111	N11	0.651630	0.069370	0.217760
N121	N12	0.685520	0.000500	0.305830
Cd31	Cd3	0.153700	0.298350	0.132560
Cd41	Cd4	0.298350	0.153710	0.632560
H371	H37	0.703300	0.211900	0.997800
H381	H38	0.380500	0.157300	0.888300
H391	H39	0.559800	0.879600	0.901200
H401	H40	0.768600	0.921200	0.948300
H411	H41	0.733900	0.948700	0.015600
H421	H42	0.906600	0.085200	0.087000
H431	H43	0.083100	0.280900	0.974900
H441	H44	0.908800	0.136600	0.912800
H451	H45	0.481400	0.363200	0.931900
H461	H46	0.614700	0.387700	0.970300
H471	H47	0.294700	0.297500	0.992300
H481	H48	0.465800	0.379400	0.160600
H491	H49	0.624600	0.398000	0.091700
H501	H50	0.270400	0.934800	0.859700
H511	H51	0.352500	0.833700	0.853300
H521	H52	0.254500	0.065700	0.770300
H531	H53	0.403700	0.878700	0.649700
H541	H54	0.442700	0.801100	0.747700
H551	H55	0.211900	0.703300	0.497800
H561	H56	0.157300	0.380500	0.388300
H571	H57	0.879600	0.559800	0.401200
H581	H58	0.921200	0.768600	0.448300
H591	H59	0.948700	0.733900	0.515600
H601	H60	0.085200	0.906600	0.587000
H611	H61	0.280900	0.083100	0.474900
H621	H62	0.136600	0.908800	0.412800
H631	H63	0.363200	0.481400	0.431900
H641	H64	0.387700	0.614700	0.470300
H651	H65	0.297500	0.294700	0.492300
H661	H66	0.379400	0.465800	0.660600
H671	H67	0.398000	0.624600	0.591700
H681	H68	0.934800	0.270400	0.359700
H691	H69	0.833700	0.352500	0.353300
H701	H70	0.065700	0.254500	0.270300
H711	H71	0.878700	0.403700	0.149700
H721	H72	0.801100	0.442700	0.247700
C371	C37	0.648690	0.038890	0.953280
C381	C38	0.640470	0.159330	0.969740
C391	C39	0.540560	0.203980	0.945340
C401	C40	0.448240	0.126620	0.905050
C411	C41	0.453290	0.004690	0.888700
C421	C42	0.554570	0.962290	0.912690
C431	C43	0.755120	0.986440	0.978970
C441	C44	0.929320	0.117020	0.051100
C451	C45	0.024850	0.222550	0.990030
C461	C46	0.929390	0.144290	0.955770
C471	C47	0.531880	0.335060	0.964620
C481	C48	0.357190	0.320590	0.026260
C491	C49	0.450700	0.364800	0.117350
C501	C50	0.538620	0.375840	0.079950
C511	C51	0.348580	0.919000	0.847270
C521	C52	0.297640	0.009360	0.752060
C531	C53	0.378380	0.907820	0.686990
C541	C54	0.400030	0.864570	0.740420
C551	C55	0.038890	0.648690	0.453280
C561	C56	0.159330	0.640470	0.469740
C571	C57	0.203980	0.540560	0.445340
C581	C58	0.126620	0.448240	0.405050
C591	C59	0.004690	0.453290	0.388700
C601	C60	0.962290	0.554570	0.412690
C611	C61	0.986440	0.755120	0.478970
C621	C62	0.117020	0.929320	0.551100
C631	C63	0.222550	0.024850	0.490030
C641	C64	0.144290	0.929390	0.455770
C651	C65	0.335060	0.531880	0.464620
C661	C66	0.320590	0.357190	0.526260
C671	C67	0.364800	0.450700	0.617350
C681	C68	0.375840	0.538620	0.579950
C691	C69	0.919000	0.348580	0.347270
C701	C70	0.009360	0.297640	0.252060
C711	C71	0.907820	0.378380	0.186990
C721	C72	0.864570	0.400030	0.240420
N131	N13	0.868070	0.078070	0.995370
N141	N14	0.024820	0.204780	0.050300
N151	N15	0.477720	0.348240	0.021630
N161	N16	0.336640	0.329440	0.083860
N171	N17	0.348370	0.930630	0.782240
N181	N18	0.314480	0.999500	0.694170
N191	N19	0.078070	0.868070	0.495370
N201	N20	0.204780	0.024820	0.550300
N211	N21	0.348240	0.477720	0.521630
N221	N22	0.329440	0.336640	0.583860
N231	N23	0.930630	0.348370	0.282240
N241	N24	0.999500	0.314480	0.194170
