data_UFILUR02_clean_PM
_symmetry_space_group_name_H-M	'P1'
_cell_length_a	7.724500
_cell_length_b	13.609000
_cell_length_c	14.061000
_cell_angle_alpha	90.000000
_cell_angle_beta	90.000000
_cell_angle_gamma	90.000000
_symmetry_Int_Tables_number 1

loop_
_symmetry_equiv_pos_as_xyz
'x,y,z'

loop_
_atom_site_label
_atom_site_type_symbol
_atom_site_fract_x
_atom_site_fract_y
_atom_site_fract_z
C11	C1	0.057600	0.187000	0.267500
N11	N1	0.951800	0.232600	0.301700
C21	C2	0.060600	0.003000	0.158300
N21	N2	0.953200	0.949500	0.138200
C31	C3	0.942400	0.313000	0.767500
N31	N3	0.048200	0.267400	0.801700
C41	C4	0.939400	0.497000	0.658300
N41	N4	0.046800	0.550500	0.638200
C51	C5	0.557600	0.813000	0.732500
N51	N5	0.451800	0.767400	0.698300
C61	C6	0.560600	0.997000	0.841700
N61	N6	0.453200	0.050500	0.861800
C71	C7	0.442400	0.687000	0.232500
N71	N7	0.548200	0.732600	0.198300
C81	C8	0.439400	0.503000	0.341700
N81	N8	0.546800	0.449500	0.361800
C91	C9	0.942400	0.813000	0.732500
N91	N9	0.048200	0.767400	0.698300
C101	C10	0.939400	0.997000	0.841700
N101	N10	0.046800	0.050500	0.861800
C111	C11	0.057600	0.687000	0.232500
N111	N11	0.951800	0.732600	0.198300
C121	C12	0.060600	0.503000	0.341700
N121	N12	0.953200	0.449500	0.361800
C131	C13	0.442400	0.187000	0.267500
N131	N13	0.548200	0.232600	0.301700
C141	C14	0.439400	0.003000	0.158300
N141	N14	0.546800	0.949500	0.138200
C151	C15	0.557600	0.313000	0.767500
N151	N15	0.451800	0.267400	0.801700
C161	C16	0.560600	0.497000	0.658300
N161	N16	0.453200	0.550500	0.638200
Cr11	Cr1	0.250000	0.096470	0.208970
C171	C17	0.250000	0.168100	0.076900
N171	N17	0.250000	0.195900	0.000600
C181	C18	0.250000	0.016800	0.330300
N181	N18	0.250000	0.970700	0.399400
Cr21	Cr2	0.750000	0.403530	0.708970
C191	C19	0.750000	0.331900	0.576900
N191	N19	0.750000	0.304100	0.500600
C201	C20	0.750000	0.483200	0.830300
N201	N20	0.750000	0.529300	0.899400
Cr31	Cr3	0.750000	0.903530	0.791030
C211	C21	0.750000	0.831900	0.923100
N211	N21	0.750000	0.804100	0.999400
C221	C22	0.750000	0.983200	0.669700
N221	N22	0.750000	0.029300	0.600600
Cr41	Cr4	0.250000	0.596470	0.291030
C231	C23	0.250000	0.668100	0.423100
N231	N23	0.250000	0.695900	0.499400
C241	C24	0.250000	0.516800	0.169700
N241	N24	0.250000	0.470700	0.100600
Mn11	Mn1	0.750000	0.338920	0.344670
Mn21	Mn2	0.250000	0.161080	0.844670
Mn31	Mn3	0.250000	0.661080	0.655330
Mn41	Mn4	0.750000	0.838920	0.155330
