data_UFUNAK_clean_PM
_symmetry_space_group_name_H-M	'P1'
_cell_length_a	4.921300
_cell_length_b	10.801100
_cell_length_c	12.809700
_cell_angle_alpha	91.326200
_cell_angle_beta	101.075000
_cell_angle_gamma	83.079900
_symmetry_Int_Tables_number 1

loop_
_symmetry_equiv_pos_as_xyz
'x,y,z'

loop_
_atom_site_label
_atom_site_type_symbol
_atom_site_fract_x
_atom_site_fract_y
_atom_site_fract_z
Cu11	Cu1	0.056190	0.784330	0.226580
Cu21	Cu2	0.829610	0.284330	0.773420
H11	H1	0.847500	0.526600	0.660600
H21	H2	0.627400	0.629300	0.506600
H31	H3	0.098800	0.366400	0.454400
H41	H4	0.333300	0.271700	0.610400
H51	H5	0.322700	0.094800	0.806400
H61	H6	0.586200	0.962700	0.935600
H71	H7	0.078700	0.091800	0.135600
H81	H8	0.839100	0.227100	0.003800
H91	H9	0.186900	0.026600	0.339400
H101	H10	0.120800	0.129300	0.493400
H111	H11	0.644400	0.866400	0.545600
H121	H12	0.722900	0.771700	0.389600
H131	H13	0.516300	0.594800	0.193600
H141	H14	0.650600	0.462700	0.064400
H151	H15	0.943100	0.591800	0.864400
H161	H16	0.835300	0.727100	0.996200
C11	C1	0.695950	0.493600	0.617700
C21	C2	0.565130	0.555700	0.525860
C31	C3	0.339790	0.508600	0.461780
C41	C4	0.252390	0.400300	0.494980
C51	C5	0.394440	0.344100	0.588080
C61	C6	0.182960	0.576000	0.360320
C71	C7	0.273070	0.094300	0.873740
C81	C8	0.430590	0.014400	0.950580
C91	C9	0.359820	0.010100	0.050240
C101	C10	0.133160	0.091100	0.069120
C111	C11	0.988270	0.170800	0.989140
C121	C12	0.522550	0.921300	0.135700
C131	C13	0.078250	0.993600	0.382300
C141	C14	0.039270	0.055700	0.474140
C151	C15	0.878010	0.008600	0.538220
C161	C16	0.757410	0.900300	0.505020
C171	C17	0.806360	0.844100	0.411920
C181	C18	0.822640	0.076000	0.639680
C191	C19	0.399330	0.594300	0.126260
C201	C20	0.480010	0.514400	0.049420
C211	C21	0.309580	0.510100	0.949760
C221	C22	0.064040	0.591100	0.930880
C231	C23	0.999130	0.670800	0.010860
C241	C24	0.386850	0.421300	0.864300
N11	N1	0.616500	0.387900	0.648600
N21	N2	0.049710	0.171900	0.891420
N31	N3	0.967900	0.887900	0.351400
N41	N4	0.158290	0.671900	0.108580
O11	O1	0.285570	0.671800	0.337940
O21	O2	0.973270	0.535500	0.310140
O31	O3	0.768750	0.882200	0.123500
O41	O4	0.412120	0.893900	0.209640
O51	O5	0.947630	0.171800	0.662060
O61	O6	0.663130	0.035500	0.689860
O71	O7	0.645250	0.382200	0.876500
O81	O8	0.202480	0.393900	0.790360
