data_UFUNIS_clean_PM
_symmetry_space_group_name_H-M	'P1'
_cell_length_a	5.164600
_cell_length_b	24.466000
_cell_length_c	11.585000
_cell_angle_alpha	90.000000
_cell_angle_beta	101.559000
_cell_angle_gamma	90.000000
_symmetry_Int_Tables_number 1

loop_
_symmetry_equiv_pos_as_xyz
'x,y,z'

loop_
_atom_site_label
_atom_site_type_symbol
_atom_site_fract_x
_atom_site_fract_y
_atom_site_fract_z
Cu11	Cu1	0.057990	0.113430	0.783260
O11	O1	0.866500	0.173040	0.686100
O21	O2	0.189200	0.161860	0.587100
O31	O3	0.294100	0.058550	0.871500
O41	O4	0.688300	0.097700	0.873900
N11	N1	0.709200	0.326420	0.395300
N21	N2	0.893500	0.943410	0.164600
C11	C1	0.600000	0.311560	0.485000
H11	H1	0.459100	0.332500	0.501400
C21	C2	0.684000	0.266630	0.555500
H21	H2	0.603200	0.257900	0.618900
C31	C3	0.887000	0.235040	0.531500
C41	C4	0.001700	0.250130	0.437000
H31	H3	0.141600	0.229500	0.418600
C51	C5	0.908700	0.295550	0.370500
H41	H4	0.985800	0.305200	0.306400
C61	C6	0.989400	0.185400	0.606100
C71	C7	0.652600	0.935950	0.099400
H51	H5	0.559800	0.904000	0.110900
C81	C8	0.533500	0.973030	0.016000
H61	H6	0.361300	0.966600	0.973300
C91	C9	0.669000	0.020080	0.994900
C101	C10	0.918800	0.027050	0.060000
H71	H7	0.018300	0.057900	0.047600
C111	C11	0.025100	0.988550	0.144200
H81	H8	0.196000	0.994300	0.188800
C121	C12	0.544600	0.062660	0.905800
Cu21	Cu2	0.557990	0.613430	0.783260
O51	O5	0.366500	0.673040	0.686100
O61	O6	0.689200	0.661860	0.587100
O71	O7	0.794100	0.558550	0.871500
O81	O8	0.188300	0.597700	0.873900
N31	N3	0.209200	0.826420	0.395300
N41	N4	0.393500	0.443410	0.164600
C131	C13	0.100000	0.811560	0.485000
H91	H9	0.959100	0.832500	0.501400
C141	C14	0.184000	0.766630	0.555500
H101	H10	0.103200	0.757900	0.618900
C151	C15	0.387000	0.735040	0.531500
C161	C16	0.501700	0.750130	0.437000
H111	H11	0.641600	0.729500	0.418600
C171	C17	0.408700	0.795550	0.370500
H121	H12	0.485800	0.805200	0.306400
C181	C18	0.489400	0.685400	0.606100
C191	C19	0.152600	0.435950	0.099400
H131	H13	0.059800	0.404000	0.110900
C201	C20	0.033500	0.473030	0.016000
H141	H14	0.861300	0.466600	0.973300
C211	C21	0.169000	0.520080	0.994900
C221	C22	0.418800	0.527050	0.060000
H151	H15	0.518300	0.557900	0.047600
C231	C23	0.525100	0.488550	0.144200
H161	H16	0.696000	0.494300	0.188800
C241	C24	0.044600	0.562660	0.905800
Cu31	Cu3	0.057990	0.886570	0.283260
O91	O9	0.866500	0.826960	0.186100
O101	O10	0.189200	0.838140	0.087100
O111	O11	0.294100	0.941450	0.371500
O121	O12	0.688300	0.902300	0.373900
N51	N5	0.709200	0.673580	0.895300
N61	N6	0.893500	0.056590	0.664600
C251	C25	0.600000	0.688440	0.985000
H171	H17	0.459100	0.667500	0.001400
C261	C26	0.684000	0.733370	0.055500
H181	H18	0.603200	0.742100	0.118900
C271	C27	0.887000	0.764960	0.031500
C281	C28	0.001700	0.749870	0.937000
H191	H19	0.141600	0.770500	0.918600
C291	C29	0.908700	0.704450	0.870500
H201	H20	0.985800	0.694800	0.806400
C301	C30	0.989400	0.814600	0.106100
C311	C31	0.652600	0.064050	0.599400
H211	H21	0.559800	0.096000	0.610900
C321	C32	0.533500	0.026970	0.516000
H221	H22	0.361300	0.033400	0.473300
C331	C33	0.669000	0.979920	0.494900
C341	C34	0.918800	0.972950	0.560000
H231	H23	0.018300	0.942100	0.547600
C351	C35	0.025100	0.011450	0.644200
H241	H24	0.196000	0.005700	0.688800
C361	C36	0.544600	0.937340	0.405800
Cu41	Cu4	0.557990	0.386570	0.283260
O131	O13	0.366500	0.326960	0.186100
O141	O14	0.689200	0.338140	0.087100
O151	O15	0.794100	0.441450	0.371500
O161	O16	0.188300	0.402300	0.373900
N71	N7	0.209200	0.173580	0.895300
N81	N8	0.393500	0.556590	0.664600
C371	C37	0.100000	0.188440	0.985000
H251	H25	0.959100	0.167500	0.001400
C381	C38	0.184000	0.233370	0.055500
H261	H26	0.103200	0.242100	0.118900
C391	C39	0.387000	0.264960	0.031500
C401	C40	0.501700	0.249870	0.937000
H271	H27	0.641600	0.270500	0.918600
C411	C41	0.408700	0.204450	0.870500
H281	H28	0.485800	0.194800	0.806400
C421	C42	0.489400	0.314600	0.106100
C431	C43	0.152600	0.564050	0.599400
H291	H29	0.059800	0.596000	0.610900
C441	C44	0.033500	0.526970	0.516000
H301	H30	0.861300	0.533400	0.473300
C451	C45	0.169000	0.479920	0.494900
C461	C46	0.418800	0.472950	0.560000
H311	H31	0.518300	0.442100	0.547600
C471	C47	0.525100	0.511450	0.644200
H321	H32	0.696000	0.505700	0.688800
C481	C48	0.044600	0.437340	0.405800
