data_UGAPOI_clean_PM
_symmetry_space_group_name_H-M	'P1'
_cell_length_a	9.752800
_cell_length_b	16.194300
_cell_length_c	17.275100
_cell_angle_alpha	90.000000
_cell_angle_beta	104.763000
_cell_angle_gamma	90.000000
_symmetry_Int_Tables_number 1

loop_
_symmetry_equiv_pos_as_xyz
'x,y,z'

loop_
_atom_site_label
_atom_site_type_symbol
_atom_site_fract_x
_atom_site_fract_y
_atom_site_fract_z
Na11	Na1	0.700270	0.135240	0.232770
N11	N1	0.903790	0.184700	0.330380
C11	C1	0.021490	0.221230	0.318160
H11	H1	0.022000	0.233300	0.264400
C21	C2	0.139420	0.242230	0.376570
H21	H2	0.217700	0.267000	0.362200
C31	C3	0.146390	0.227430	0.458880
C41	C4	0.022600	0.188920	0.471320
H31	H3	0.017900	0.176300	0.524300
C51	C5	0.910220	0.169690	0.408410
H41	H4	0.830600	0.143800	0.420300
N21	N2	0.810240	0.069070	0.141390
C61	C6	0.812500	0.989360	0.118390
H51	H5	0.759900	0.950800	0.140700
C71	C7	0.884280	0.959490	0.065640
H61	H6	0.880600	0.902200	0.053400
C81	C8	0.964390	0.013520	0.028910
C91	C9	0.965290	0.097140	0.054990
H71	H7	0.019000	0.137300	0.035300
C101	C10	0.889380	0.120080	0.108230
H81	H8	0.892600	0.176700	0.123100
N31	N3	0.588250	0.065550	0.319830
C111	C11	0.637310	0.994700	0.358510
H91	H9	0.696700	0.961100	0.335700
C121	C12	0.608730	0.967300	0.427470
H101	H10	0.649000	0.916900	0.450800
C131	C13	0.519150	0.013600	0.464890
C141	C14	0.469370	0.088800	0.424950
H111	H11	0.410400	0.124300	0.446200
C151	C15	0.505500	0.110410	0.356450
H121	H12	0.469600	0.161300	0.332300
N41	N4	0.515690	0.283630	0.649620
C161	C16	0.506550	0.300060	0.571650
H131	H13	0.587200	0.323900	0.559100
C171	C17	0.390760	0.285090	0.509450
H141	H14	0.393900	0.299100	0.456500
C181	C18	0.265820	0.248860	0.522580
C191	C19	0.273770	0.234480	0.604930
H151	H15	0.193700	0.212800	0.619900
C201	C20	0.394950	0.251470	0.662750
H161	H16	0.394700	0.239800	0.716600
Na21	Na2	0.299730	0.635240	0.267230
N51	N5	0.096210	0.684700	0.169620
C211	C21	0.978510	0.721230	0.181840
H171	H17	0.978000	0.733300	0.235600
C221	C22	0.860580	0.742230	0.123430
H181	H18	0.782300	0.767000	0.137800
C231	C23	0.853610	0.727430	0.041120
C241	C24	0.977400	0.688920	0.028680
H191	H19	0.982100	0.676300	0.975700
C251	C25	0.089780	0.669690	0.091590
H201	H20	0.169400	0.643800	0.079700
N61	N6	0.189760	0.569070	0.358610
C261	C26	0.187500	0.489360	0.381610
H211	H21	0.240100	0.450800	0.359300
C271	C27	0.115720	0.459490	0.434360
H221	H22	0.119400	0.402200	0.446600
C281	C28	0.035610	0.513520	0.471090
C291	C29	0.034710	0.597140	0.445010
H231	H23	0.981000	0.637300	0.464700
C301	C30	0.110620	0.620080	0.391770
H241	H24	0.107400	0.676700	0.376900
N71	N7	0.411750	0.565550	0.180170
C311	C31	0.362690	0.494700	0.141490
H251	H25	0.303300	0.461100	0.164300
C321	C32	0.391270	0.467300	0.072530
H261	H26	0.351000	0.416900	0.049200
C331	C33	0.480850	0.513600	0.035110
C341	C34	0.530630	0.588800	0.075050
H271	H27	0.589600	0.624300	0.053800
C351	C35	0.494500	0.610410	0.143550
H281	H28	0.530400	0.661300	0.167700
N81	N8	0.484310	0.783630	0.850380
C361	C36	0.493450	0.800060	0.928350
H291	H29	0.412800	0.823900	0.940900
C371	C37	0.609240	0.785090	0.990550
H301	H30	0.606100	0.799100	0.043500
C381	C38	0.734180	0.748860	0.977420
C391	C39	0.726230	0.734480	0.895070
H311	H31	0.806300	0.712800	0.880100
C401	C40	0.605050	0.751470	0.837250
H321	H32	0.605300	0.739800	0.783400
Na31	Na3	0.299730	0.864760	0.767230
N91	N9	0.096210	0.815300	0.669620
C411	C41	0.978510	0.778770	0.681840
H331	H33	0.978000	0.766700	0.735600
C421	C42	0.860580	0.757770	0.623430
H341	H34	0.782300	0.733000	0.637800
C431	C43	0.853610	0.772570	0.541120
C441	C44	0.977400	0.811080	0.528680
H351	H35	0.982100	0.823700	0.475700
C451	C45	0.089780	0.830310	0.591590
H361	H36	0.169400	0.856200	0.579700
N101	N10	0.189760	0.930930	0.858610
C461	C46	0.187500	0.010640	0.881610
H371	H37	0.240100	0.049200	0.859300
C471	C47	0.115720	0.040510	0.934360
H381	H38	0.119400	0.097800	0.946600
C481	C48	0.035610	0.986480	0.971090
C491	C49	0.034710	0.902860	0.945010
H391	H39	0.981000	0.862700	0.964700
C501	C50	0.110620	0.879920	0.891770
H401	H40	0.107400	0.823300	0.876900
N111	N11	0.411750	0.934450	0.680170
C511	C51	0.362690	0.005300	0.641490
H411	H41	0.303300	0.038900	0.664300
C521	C52	0.391270	0.032700	0.572530
H421	H42	0.351000	0.083100	0.549200
C531	C53	0.480850	0.986400	0.535110
C541	C54	0.530630	0.911200	0.575050
H431	H43	0.589600	0.875700	0.553800
C551	C55	0.494500	0.889590	0.643550
H441	H44	0.530400	0.838700	0.667700
N121	N12	0.484310	0.716370	0.350380
C561	C56	0.493450	0.699940	0.428350
H451	H45	0.412800	0.676100	0.440900
C571	C57	0.609240	0.714910	0.490550
H461	H46	0.606100	0.700900	0.543500
C581	C58	0.734180	0.751140	0.477420
C591	C59	0.726230	0.765520	0.395070
H471	H47	0.806300	0.787200	0.380100
C601	C60	0.605050	0.748530	0.337250
H481	H48	0.605300	0.760200	0.283400
Na41	Na4	0.700270	0.364760	0.732770
N131	N13	0.903790	0.315300	0.830380
C611	C61	0.021490	0.278770	0.818160
H491	H49	0.022000	0.266700	0.764400
C621	C62	0.139420	0.257770	0.876570
H501	H50	0.217700	0.233000	0.862200
C631	C63	0.146390	0.272570	0.958880
C641	C64	0.022600	0.311080	0.971320
H511	H51	0.017900	0.323700	0.024300
C651	C65	0.910220	0.330310	0.908410
H521	H52	0.830600	0.356200	0.920300
N141	N14	0.810240	0.430930	0.641390
C661	C66	0.812500	0.510640	0.618390
H531	H53	0.759900	0.549200	0.640700
C671	C67	0.884280	0.540510	0.565640
H541	H54	0.880600	0.597800	0.553400
C681	C68	0.964390	0.486480	0.528910
C691	C69	0.965290	0.402860	0.554990
H551	H55	0.019000	0.362700	0.535300
C701	C70	0.889380	0.379920	0.608230
H561	H56	0.892600	0.323300	0.623100
N151	N15	0.588250	0.434450	0.819830
C711	C71	0.637310	0.505300	0.858510
H571	H57	0.696700	0.538900	0.835700
C721	C72	0.608730	0.532700	0.927470
H581	H58	0.649000	0.583100	0.950800
C731	C73	0.519150	0.486400	0.964890
C741	C74	0.469370	0.411200	0.924950
H591	H59	0.410400	0.375700	0.946200
C751	C75	0.505500	0.389590	0.856450
H601	H60	0.469600	0.338700	0.832300
N161	N16	0.515690	0.216370	0.149620
C761	C76	0.506550	0.199940	0.071650
H611	H61	0.587200	0.176100	0.059100
C771	C77	0.390760	0.214910	0.009450
H621	H62	0.393900	0.200900	0.956500
C781	C78	0.265820	0.251140	0.022580
C791	C79	0.273770	0.265520	0.104930
H631	H63	0.193700	0.287200	0.119900
C801	C80	0.394950	0.248530	0.162750
H641	H64	0.394700	0.260200	0.216600
