data_UGEPEB_clean_PM
_symmetry_space_group_name_H-M	'P1'
_cell_length_a	3.534000
_cell_length_b	13.005200
_cell_length_c	15.768000
_cell_angle_alpha	90.000000
_cell_angle_beta	90.000000
_cell_angle_gamma	96.885000
_symmetry_Int_Tables_number 1

loop_
_symmetry_equiv_pos_as_xyz
'x,y,z'

loop_
_atom_site_label
_atom_site_type_symbol
_atom_site_fract_x
_atom_site_fract_y
_atom_site_fract_z
Cu11	Cu1	0.737580	0.505080	0.921980
Cu21	Cu2	0.762420	0.994920	0.421980
Cu31	Cu3	0.262420	0.494920	0.078020
Cu41	Cu4	0.237580	0.005080	0.578020
H11	H1	0.649800	0.363920	0.023950
H21	H2	0.807200	0.724700	0.888500
H31	H3	0.663000	0.837000	0.783600
H41	H4	0.520000	0.596300	0.622400
H51	H5	0.671000	0.490200	0.731400
H61	H6	0.850200	0.136080	0.523950
H71	H7	0.692800	0.775300	0.388500
H81	H8	0.837000	0.663000	0.283600
H91	H9	0.980000	0.903700	0.122400
H101	H10	0.829000	0.009800	0.231400
H111	H11	0.350200	0.636080	0.976050
H121	H12	0.192800	0.275300	0.111500
H131	H13	0.337000	0.163000	0.216400
H141	H14	0.480000	0.403700	0.377600
H151	H15	0.329000	0.509800	0.268600
H161	H16	0.149800	0.863920	0.476050
H171	H17	0.307200	0.224700	0.611500
H181	H18	0.163000	0.337000	0.716400
H191	H19	0.020000	0.096300	0.877600
H201	H20	0.171000	0.990200	0.768600
C11	C1	0.745200	0.698900	0.834600
C21	C2	0.658600	0.766800	0.771900
C31	C3	0.565000	0.728800	0.691400
C41	C4	0.574000	0.623700	0.676200
C51	C5	0.664500	0.560300	0.742000
C61	C6	0.439800	0.799000	0.622600
C71	C7	0.754800	0.801100	0.334600
C81	C8	0.841400	0.733200	0.271900
C91	C9	0.935000	0.771200	0.191400
C101	C10	0.926000	0.876300	0.176200
C111	C11	0.835500	0.939700	0.242000
C121	C12	0.060200	0.701000	0.122600
C131	C13	0.254800	0.301100	0.165400
C141	C14	0.341400	0.233200	0.228100
C151	C15	0.435000	0.271200	0.308600
C161	C16	0.426000	0.376300	0.323800
C171	C17	0.335500	0.439700	0.258000
C181	C18	0.560200	0.201000	0.377400
C191	C19	0.245200	0.198900	0.665400
C201	C20	0.158600	0.266800	0.728100
C211	C21	0.065000	0.228800	0.808600
C221	C22	0.074000	0.123700	0.823800
C231	C23	0.164500	0.060300	0.758000
C241	C24	0.939800	0.299000	0.877400
N11	N1	0.742900	0.596500	0.820390
N21	N2	0.757100	0.903500	0.320390
N31	N3	0.257100	0.403500	0.179610
N41	N4	0.242900	0.096500	0.679610
O11	O1	0.686900	0.429490	0.028380
O21	O2	0.463000	0.894050	0.642140
O31	O3	0.318900	0.758400	0.554960
O41	O4	0.813100	0.070510	0.528380
O51	O5	0.037000	0.605950	0.142140
O61	O6	0.181100	0.741600	0.054960
O71	O7	0.313100	0.570510	0.971620
O81	O8	0.537000	0.105950	0.357860
O91	O9	0.681100	0.241600	0.445040
O101	O10	0.186900	0.929490	0.471620
O111	O11	0.963000	0.394050	0.857860
O121	O12	0.818900	0.258400	0.945040
