data_UGIGAS_clean_PM
_symmetry_space_group_name_H-M	'P1'
_cell_length_a	9.408800
_cell_length_b	9.092400
_cell_length_c	9.688400
_cell_angle_alpha	90.000000
_cell_angle_beta	117.252000
_cell_angle_gamma	90.000000
_symmetry_Int_Tables_number 1

loop_
_symmetry_equiv_pos_as_xyz
'x,y,z'

loop_
_atom_site_label
_atom_site_type_symbol
_atom_site_fract_x
_atom_site_fract_y
_atom_site_fract_z
P11	P1	0.332200	0.602100	0.064400
P21	P2	0.143200	0.157300	0.972100
O11	O1	0.248500	0.559600	0.893000
O21	O2	0.235100	0.723100	0.091600
O31	O3	0.249300	0.051200	0.096300
O41	O4	0.243100	0.233700	0.907900
O51	O5	0.503900	0.644900	0.117500
O61	O6	0.994900	0.087100	0.847400
O71	O7	0.341200	0.464000	0.165700
O81	O8	0.087500	0.278300	0.055700
H11	H1	0.249400	0.433300	0.133100
H21	H2	0.014300	0.288400	0.031100
P31	P3	0.167800	0.602100	0.435600
P41	P4	0.356800	0.157300	0.527900
O91	O9	0.251500	0.559600	0.607000
O101	O10	0.264900	0.723100	0.408400
O111	O11	0.250700	0.051200	0.403700
O121	O12	0.256900	0.233700	0.592100
O131	O13	0.996100	0.644900	0.382500
O141	O14	0.505100	0.087100	0.652600
O151	O15	0.158800	0.464000	0.334300
O161	O16	0.412500	0.278300	0.444300
H31	H3	0.250600	0.433300	0.366900
H41	H4	0.485700	0.288400	0.468900
P51	P5	0.667800	0.397900	0.935600
P61	P6	0.856800	0.842700	0.027900
O171	O17	0.751500	0.440400	0.107000
O181	O18	0.764900	0.276900	0.908400
O191	O19	0.750700	0.948800	0.903700
O201	O20	0.756900	0.766300	0.092100
O211	O21	0.496100	0.355100	0.882500
O221	O22	0.005100	0.912900	0.152600
O231	O23	0.658800	0.536000	0.834300
O241	O24	0.912500	0.721700	0.944300
H51	H5	0.750600	0.566700	0.866900
H61	H6	0.985700	0.711600	0.968900
P71	P7	0.832200	0.397900	0.564400
P81	P8	0.643200	0.842700	0.472100
O251	O25	0.748500	0.440400	0.393000
O261	O26	0.735100	0.276900	0.591600
O271	O27	0.749300	0.948800	0.596300
O281	O28	0.743100	0.766300	0.407900
O291	O29	0.003900	0.355100	0.617500
O301	O30	0.494900	0.912900	0.347400
O311	O31	0.841200	0.536000	0.665700
O321	O32	0.587500	0.721700	0.555700
H71	H7	0.749400	0.566700	0.633100
H81	H8	0.514300	0.711600	0.531100
Sc11	Sc1	0.250000	0.894300	0.250000
Sc21	Sc2	0.750000	0.105700	0.750000
Sc31	Sc3	0.250000	0.382700	0.750000
Sc41	Sc4	0.750000	0.617300	0.250000
