data_UGIGAS01_clean_PM
_symmetry_space_group_name_H-M	'P1'
_cell_length_a	9.411100
_cell_length_b	9.106600
_cell_length_c	9.695000
_cell_angle_alpha	90.000000
_cell_angle_beta	117.272000
_cell_angle_gamma	90.000000
_symmetry_Int_Tables_number 1

loop_
_symmetry_equiv_pos_as_xyz
'x,y,z'

loop_
_atom_site_label
_atom_site_type_symbol
_atom_site_fract_x
_atom_site_fract_y
_atom_site_fract_z
P11	P1	0.831720	0.101620	0.063950
P21	P2	0.355920	0.343090	0.027250
O11	O1	0.733680	0.222780	0.091130
O21	O2	0.747140	0.059860	0.891820
O31	O3	0.840590	0.963500	0.164850
H11	H1	0.749100	0.926300	0.132000
O41	O4	0.003940	0.145040	0.117850
O51	O5	0.256020	0.266120	0.091260
O61	O6	0.412310	0.222490	0.943130
H21	H2	0.511100	0.208600	0.995100
O71	O7	0.505520	0.413040	0.152750
O81	O8	0.249520	0.449820	0.903610
P31	P3	0.668280	0.101620	0.436050
P41	P4	0.144080	0.343090	0.472750
O91	O9	0.766320	0.222780	0.408870
O101	O10	0.752860	0.059860	0.608180
O111	O11	0.659410	0.963500	0.335150
H31	H3	0.750900	0.926300	0.368000
O121	O12	0.496060	0.145040	0.382150
O131	O13	0.243980	0.266120	0.408740
O141	O14	0.087690	0.222490	0.556870
H41	H4	0.988900	0.208600	0.504900
O151	O15	0.994480	0.413040	0.347250
O161	O16	0.250480	0.449820	0.596390
P51	P5	0.168280	0.898380	0.936050
P61	P6	0.644080	0.656910	0.972750
O171	O17	0.266320	0.777220	0.908870
O181	O18	0.252860	0.940140	0.108180
O191	O19	0.159410	0.036500	0.835150
H51	H5	0.250900	0.073700	0.868000
O201	O20	0.996060	0.854960	0.882150
O211	O21	0.743980	0.733880	0.908740
O221	O22	0.587690	0.777510	0.056870
H61	H6	0.488900	0.791400	0.004900
O231	O23	0.494480	0.586960	0.847250
O241	O24	0.750480	0.550180	0.096390
P71	P7	0.331720	0.898380	0.563950
P81	P8	0.855920	0.656910	0.527250
O251	O25	0.233680	0.777220	0.591130
O261	O26	0.247140	0.940140	0.391820
O271	O27	0.340590	0.036500	0.664850
H71	H7	0.249100	0.073700	0.632000
O281	O28	0.503940	0.854960	0.617850
O291	O29	0.756020	0.733880	0.591260
O301	O30	0.912310	0.777510	0.443130
H81	H8	0.011100	0.791400	0.495100
O311	O31	0.005520	0.586960	0.652750
O321	O32	0.749520	0.550180	0.403610
Sc11	Sc1	0.750000	0.393640	0.250000
Sc21	Sc2	0.250000	0.606360	0.750000
Sc31	Sc3	0.750000	0.882540	0.750000
Sc41	Sc4	0.250000	0.117460	0.250000
