data_UGOSOY_charged_PM
_symmetry_space_group_name_H-M	'P1'
_cell_length_a	13.477000
_cell_length_b	13.477000
_cell_length_c	24.973200
_cell_angle_alpha	74.345800
_cell_angle_beta	74.345800
_cell_angle_gamma	89.999900
_symmetry_Int_Tables_number 1

loop_
_symmetry_equiv_pos_as_xyz
'x,y,z'

loop_
_atom_site_label
_atom_site_type_symbol
_atom_site_fract_x
_atom_site_fract_y
_atom_site_fract_z
Cu11	Cu1	0.849520	0.599520	0.800960
Cu21	Cu2	0.599520	0.849520	0.300960
H11	H1	0.851600	0.683400	0.897600
H21	H2	0.742600	0.700000	0.981400
H31	H3	0.502600	0.630100	0.930400
H41	H4	0.616800	0.610600	0.848400
H51	H5	0.678200	0.747300	0.119800
H61	H6	0.710400	0.790700	0.196800
H71	H7	0.414500	0.789700	0.267000
H81	H8	0.377700	0.749200	0.191600
H91	H9	0.750800	0.419000	0.897600
H101	H10	0.776000	0.318600	0.981400
H111	H11	0.067000	0.439500	0.930400
H121	H12	0.034800	0.541000	0.848400
H131	H13	0.702000	0.132900	0.119800
H141	H14	0.592800	0.012500	0.196800
H151	H15	0.818500	0.943300	0.267000
H161	H16	0.930700	0.059200	0.191600
H171	H17	0.683400	0.750800	0.397600
H181	H18	0.700000	0.776000	0.481400
H191	H19	0.630100	0.067000	0.430400
H201	H20	0.610600	0.034800	0.348400
H211	H21	0.747300	0.702000	0.619800
H221	H22	0.790700	0.592800	0.696800
H231	H23	0.789700	0.818500	0.767000
H241	H24	0.749200	0.930700	0.691600
H251	H25	0.419000	0.851600	0.397600
H261	H26	0.318600	0.742600	0.481400
H271	H27	0.439500	0.502600	0.430400
H281	H28	0.541000	0.616800	0.348400
H291	H29	0.132900	0.678200	0.619800
H301	H30	0.012500	0.710400	0.696800
H311	H31	0.943300	0.414500	0.767000
H321	H32	0.059200	0.377700	0.691600
C11	C1	0.780810	0.670310	0.904580
C21	C2	0.715470	0.681270	0.954660
C31	C3	0.612070	0.665370	0.966060
C41	C4	0.573370	0.639470	0.924860
C51	C5	0.642700	0.628300	0.875800
C61	C6	0.544520	0.675520	0.019360
C71	C7	0.503840	0.709040	0.100320
C81	C8	0.525420	0.739620	0.148160
C91	C9	0.623210	0.755310	0.149780
C101	C10	0.642520	0.783120	0.195560
C111	C11	0.468890	0.782790	0.236420
C121	C12	0.445970	0.756170	0.192260
C131	C13	0.814610	0.425110	0.904580
C141	C14	0.829870	0.364070	0.954660
C151	C15	0.921870	0.368570	0.966060
C161	C16	0.001770	0.435670	0.924860
C171	C17	0.981500	0.495900	0.875800
C181	C18	0.936120	0.305120	0.019360
C191	C19	0.895840	0.190640	0.100320
C201	C20	0.826420	0.112220	0.148160
C211	C21	0.727010	0.094910	0.149780
C221	C22	0.661920	0.021320	0.195560
C231	C23	0.794690	0.980790	0.236420
C241	C24	0.861770	0.051570	0.192260
C251	C25	0.670310	0.814610	0.404580
C261	C26	0.681270	0.829870	0.454660
C271	C27	0.665370	0.921870	0.466060
C281	C28	0.639470	0.001770	0.424860
C291	C29	0.628300	0.981500	0.375800
C301	C30	0.675520	0.936120	0.519360
C311	C31	0.709040	0.895840	0.600320
C321	C32	0.739620	0.826420	0.648160
C331	C33	0.755310	0.727010	0.649780
C341	C34	0.783120	0.661920	0.695560
C351	C35	0.782790	0.794690	0.736420
C361	C36	0.756170	0.861770	0.692260
C371	C37	0.425110	0.780810	0.404580
C381	C38	0.364070	0.715470	0.454660
C391	C39	0.368570	0.612070	0.466060
C401	C40	0.435670	0.573370	0.424860
C411	C41	0.495900	0.642700	0.375800
C421	C42	0.305120	0.544520	0.519360
C431	C43	0.190640	0.503840	0.600320
C441	C44	0.112220	0.525420	0.648160
C451	C45	0.094910	0.623210	0.649780
C461	C46	0.021320	0.642520	0.695560
C471	C47	0.980790	0.468890	0.736420
C481	C48	0.051570	0.445970	0.692260
N11	N1	0.745460	0.641060	0.865080
N21	N2	0.446450	0.652550	0.041700
N31	N3	0.423050	0.675950	0.094500
N41	N4	0.564970	0.799470	0.238460
N51	N5	0.889460	0.493860	0.865080
N61	N6	0.011850	0.305750	0.041700
N71	N7	0.982450	0.229550	0.094500
N81	N8	0.696570	0.962070	0.238460
N91	N9	0.641060	0.889460	0.365080
N101	N10	0.652550	0.011850	0.541700
N111	N11	0.675950	0.982450	0.594500
N121	N12	0.799470	0.696570	0.738460
N131	N13	0.493860	0.745460	0.365080
N141	N14	0.305750	0.446450	0.541700
N151	N15	0.229550	0.423050	0.594500
N161	N16	0.962070	0.564970	0.738460
O11	O1	0.587160	0.709660	0.054480
O21	O2	0.858360	0.235860	0.054480
O31	O3	0.709660	0.858360	0.554480
O41	O4	0.235860	0.587160	0.554480
Cu31	Cu3	0.150480	0.400480	0.199040
Cu41	Cu4	0.400480	0.150480	0.699040
H331	H33	0.148400	0.316600	0.102400
H341	H34	0.257400	0.300000	0.018600
H351	H35	0.497400	0.369900	0.069600
H361	H36	0.383200	0.389400	0.151600
H371	H37	0.321800	0.252700	0.880200
H381	H38	0.289600	0.209300	0.803200
H391	H39	0.585500	0.210300	0.733000
H401	H40	0.622300	0.250800	0.808400
H411	H41	0.249200	0.581000	0.102400
H421	H42	0.224000	0.681400	0.018600
H431	H43	0.933000	0.560500	0.069600
H441	H44	0.965200	0.459000	0.151600
H451	H45	0.298000	0.867100	0.880200
H461	H46	0.407200	0.987500	0.803200
H471	H47	0.181500	0.056700	0.733000
H481	H48	0.069300	0.940800	0.808400
H491	H49	0.316600	0.249200	0.602400
H501	H50	0.300000	0.224000	0.518600
H511	H51	0.369900	0.933000	0.569600
H521	H52	0.389400	0.965200	0.651600
H531	H53	0.252700	0.298000	0.380200
H541	H54	0.209300	0.407200	0.303200
H551	H55	0.210300	0.181500	0.233000
H561	H56	0.250800	0.069300	0.308400
H571	H57	0.581000	0.148400	0.602400
H581	H58	0.681400	0.257400	0.518600
H591	H59	0.560500	0.497400	0.569600
H601	H60	0.459000	0.383200	0.651600
H611	H61	0.867100	0.321800	0.380200
H621	H62	0.987500	0.289600	0.303200
H631	H63	0.056700	0.585500	0.233000
H641	H64	0.940800	0.622300	0.308400
C491	C49	0.219190	0.329690	0.095420
C501	C50	0.284530	0.318730	0.045340
C511	C51	0.387930	0.334630	0.033940
C521	C52	0.426630	0.360530	0.075140
C531	C53	0.357300	0.371700	0.124200
C541	C54	0.455480	0.324480	0.980640
C551	C55	0.496160	0.290960	0.899680
C561	C56	0.474580	0.260380	0.851840
C571	C57	0.376790	0.244690	0.850220
C581	C58	0.357480	0.216880	0.804440
C591	C59	0.531110	0.217210	0.763580
C601	C60	0.554030	0.243830	0.807740
C611	C61	0.185390	0.574890	0.095420
C621	C62	0.170130	0.635930	0.045340
C631	C63	0.078130	0.631430	0.033940
C641	C64	0.998230	0.564330	0.075140
C651	C65	0.018500	0.504100	0.124200
C661	C66	0.063880	0.694880	0.980640
C671	C67	0.104160	0.809360	0.899680
C681	C68	0.173580	0.887780	0.851840
C691	C69	0.272990	0.905090	0.850220
C701	C70	0.338080	0.978680	0.804440
C711	C71	0.205310	0.019210	0.763580
C721	C72	0.138230	0.948430	0.807740
C731	C73	0.329690	0.185390	0.595420
C741	C74	0.318730	0.170130	0.545340
C751	C75	0.334630	0.078130	0.533940
C761	C76	0.360530	0.998230	0.575140
C771	C77	0.371700	0.018500	0.624200
C781	C78	0.324480	0.063880	0.480640
C791	C79	0.290960	0.104160	0.399680
C801	C80	0.260380	0.173580	0.351840
C811	C81	0.244690	0.272990	0.350220
C821	C82	0.216880	0.338080	0.304440
C831	C83	0.217210	0.205310	0.263580
C841	C84	0.243830	0.138230	0.307740
C851	C85	0.574890	0.219190	0.595420
C861	C86	0.635930	0.284530	0.545340
C871	C87	0.631430	0.387930	0.533940
C881	C88	0.564330	0.426630	0.575140
C891	C89	0.504100	0.357300	0.624200
C901	C90	0.694880	0.455480	0.480640
C911	C91	0.809360	0.496160	0.399680
C921	C92	0.887780	0.474580	0.351840
C931	C93	0.905090	0.376790	0.350220
C941	C94	0.978680	0.357480	0.304440
C951	C95	0.019210	0.531110	0.263580
C961	C96	0.948430	0.554030	0.307740
N171	N17	0.254540	0.358940	0.134920
N181	N18	0.553550	0.347450	0.958300
N191	N19	0.576950	0.324050	0.905500
N201	N20	0.435030	0.200530	0.761540
N211	N21	0.110540	0.506140	0.134920
N221	N22	0.988150	0.694250	0.958300
N231	N23	0.017550	0.770450	0.905500
N241	N24	0.303430	0.037930	0.761540
N251	N25	0.358940	0.110540	0.634920
N261	N26	0.347450	0.988150	0.458300
N271	N27	0.324050	0.017550	0.405500
N281	N28	0.200530	0.303430	0.261540
N291	N29	0.506140	0.254540	0.634920
N301	N30	0.694250	0.553550	0.458300
N311	N31	0.770450	0.576950	0.405500
N321	N32	0.037930	0.435030	0.261540
O51	O5	0.412840	0.290340	0.945520
O61	O6	0.141640	0.764140	0.945520
O71	O7	0.290340	0.141640	0.445520
O81	O8	0.764140	0.412840	0.445520
Cl11	Cl1	0.690560	0.440560	0.118880
O91	O9	0.778800	0.393500	0.125800
O101	O10	0.646700	0.338700	0.138600
O111	O11	0.595400	0.480700	0.125800
O121	O12	0.714700	0.522700	0.138600
Cl21	Cl2	0.440560	0.690560	0.618880
O131	O13	0.393500	0.595400	0.625800
O141	O14	0.338700	0.714700	0.638600
O151	O15	0.480700	0.778800	0.625800
O161	O16	0.522700	0.646700	0.638600
Cl31	Cl3	0.309440	0.559440	0.881120
O171	O17	0.221200	0.606500	0.874200
O181	O18	0.353300	0.661300	0.861400
O191	O19	0.404600	0.519300	0.874200
O201	O20	0.285300	0.477300	0.861400
Cl41	Cl4	0.559440	0.309440	0.381120
O211	O21	0.606500	0.404600	0.374200
O221	O22	0.661300	0.285300	0.361400
O231	O23	0.519300	0.221200	0.374200
O241	O24	0.477300	0.353300	0.361400
