data_UGUGUZ_clean_PM
_symmetry_space_group_name_H-M	'P1'
_cell_length_a	8.954000
_cell_length_b	13.640000
_cell_length_c	22.026000
_cell_angle_alpha	90.000000
_cell_angle_beta	90.000000
_cell_angle_gamma	95.570000
_symmetry_Int_Tables_number 1

loop_
_symmetry_equiv_pos_as_xyz
'x,y,z'

loop_
_atom_site_label
_atom_site_type_symbol
_atom_site_fract_x
_atom_site_fract_y
_atom_site_fract_z
Yb11	Yb1	0.017700	0.023860	0.673780
Yb21	Yb2	0.454870	0.745940	0.608990
Yb31	Yb3	0.982300	0.476140	0.173780
Yb41	Yb4	0.545130	0.754060	0.108990
Yb51	Yb5	0.982300	0.976140	0.326220
Yb61	Yb6	0.545130	0.254060	0.391010
Yb71	Yb7	0.017700	0.523860	0.826220
Yb81	Yb8	0.454870	0.245940	0.891010
C11	C1	0.918500	0.788300	0.707300
C21	C2	0.934300	0.693400	0.728300
C31	C3	0.119900	0.759400	0.795500
C41	C4	0.106500	0.854600	0.773100
C51	C5	0.801700	0.817600	0.662600
C61	C6	0.859800	0.595400	0.706500
C71	C7	0.236500	0.727500	0.841200
C81	C8	0.182400	0.952700	0.794500
C91	C9	0.928300	0.070900	0.530200
C101	C10	0.911300	0.053600	0.466800
C111	C11	0.863800	0.147300	0.570900
C121	C12	0.807500	0.102800	0.422300
C131	C13	0.081500	0.711700	0.207300
C141	C14	0.065700	0.806600	0.228300
C151	C15	0.880100	0.740600	0.295500
C161	C16	0.893500	0.645400	0.273100
C171	C17	0.198300	0.682400	0.162600
C181	C18	0.140200	0.904600	0.206500
C191	C19	0.763500	0.772500	0.341200
C201	C20	0.817600	0.547300	0.294500
C211	C21	0.071700	0.429100	0.030200
C221	C22	0.088700	0.446400	0.966800
C231	C23	0.136200	0.352700	0.070900
C241	C24	0.192500	0.397200	0.922300
C251	C25	0.081500	0.211700	0.292700
C261	C26	0.065700	0.306600	0.271700
C271	C27	0.880100	0.240600	0.204500
C281	C28	0.893500	0.145400	0.226900
C291	C29	0.198300	0.182400	0.337400
C301	C30	0.140200	0.404600	0.293500
C311	C31	0.763500	0.272500	0.158800
C321	C32	0.817600	0.047300	0.205500
C331	C33	0.071700	0.929100	0.469800
C341	C34	0.088700	0.946400	0.533200
C351	C35	0.136200	0.852700	0.429100
C361	C36	0.192500	0.897200	0.577700
C371	C37	0.918500	0.288300	0.792700
C381	C38	0.934300	0.193400	0.771700
C391	C39	0.119900	0.259400	0.704500
C401	C40	0.106500	0.354600	0.726900
C411	C41	0.801700	0.317600	0.837400
C421	C42	0.859800	0.095400	0.793500
C431	C43	0.236500	0.227500	0.658800
C441	C44	0.182400	0.452700	0.705500
C451	C45	0.928300	0.570900	0.969800
C461	C46	0.911300	0.553600	0.033200
C471	C47	0.863800	0.647300	0.929100
C481	C48	0.807500	0.602800	0.077700
N11	N1	0.005800	0.864500	0.729200
N21	N2	0.033900	0.683400	0.773400
N31	N3	0.017700	0.015000	0.560300
N41	N4	0.994200	0.635500	0.229200
N51	N5	0.966100	0.816600	0.273400
N61	N6	0.982300	0.485000	0.060300
N71	N7	0.994200	0.135500	0.270800
N81	N8	0.966100	0.316600	0.226600
N91	N9	0.982300	0.985000	0.439700
N101	N10	0.005800	0.364500	0.770800
N111	N11	0.033900	0.183400	0.726600
N121	N12	0.017700	0.515000	0.939700
O11	O1	0.831300	0.903400	0.639100
O21	O2	0.688200	0.760600	0.654200
O31	O3	0.825800	0.582800	0.652700
O41	O4	0.847700	0.530100	0.748200
O51	O5	0.202200	0.640000	0.862000
O61	O6	0.353300	0.780200	0.850000
O71	O7	0.213800	0.964900	0.848200
O81	O8	0.196100	0.017600	0.752400
O91	O9	0.851500	0.119600	0.626200
O101	O10	0.838200	0.228000	0.550100
O111	O11	0.717100	0.158700	0.441000
O121	O12	0.824000	0.077900	0.367500
O131	O13	0.168700	0.596600	0.139100
O141	O14	0.311800	0.739400	0.154200
O151	O15	0.174200	0.917200	0.152700
O161	O16	0.152300	0.969900	0.248200
O171	O17	0.797800	0.860000	0.362000
O181	O18	0.646700	0.719800	0.350000
O191	O19	0.786200	0.535100	0.348200
O201	O20	0.803900	0.482400	0.252400
O211	O21	0.148500	0.380400	0.126200
O221	O22	0.161800	0.272000	0.050100
O231	O23	0.282900	0.341300	0.941000
O241	O24	0.176000	0.422100	0.867500
O251	O25	0.168700	0.096600	0.360900
O261	O26	0.311800	0.239400	0.345800
O271	O27	0.174200	0.417200	0.347300
O281	O28	0.152300	0.469900	0.251800
O291	O29	0.797800	0.360000	0.138000
O301	O30	0.646700	0.219800	0.150000
O311	O31	0.786200	0.035100	0.151800
O321	O32	0.803900	0.982400	0.247600
O331	O33	0.148500	0.880400	0.373800
O341	O34	0.161800	0.772000	0.449900
O351	O35	0.282900	0.841300	0.559000
O361	O36	0.176000	0.922100	0.632500
O371	O37	0.831300	0.403400	0.860900
O381	O38	0.688200	0.260600	0.845800
O391	O39	0.825800	0.082800	0.847300
O401	O40	0.847700	0.030100	0.751800
O411	O41	0.202200	0.140000	0.638000
O421	O42	0.353300	0.280200	0.650000
O431	O43	0.213800	0.464900	0.651800
O441	O44	0.196100	0.517600	0.747600
O451	O45	0.851500	0.619600	0.873800
O461	O46	0.838200	0.728000	0.949900
O471	O47	0.717100	0.658700	0.059000
O481	O48	0.824000	0.577900	0.132500
