data_UGUQUK_clean_PM
_symmetry_space_group_name_H-M	'P1'
_cell_length_a	10.540000
_cell_length_b	13.509000
_cell_length_c	30.526000
_cell_angle_alpha	90.000000
_cell_angle_beta	90.140000
_cell_angle_gamma	90.000000
_symmetry_Int_Tables_number 1

loop_
_symmetry_equiv_pos_as_xyz
'x,y,z'

loop_
_atom_site_label
_atom_site_type_symbol
_atom_site_fract_x
_atom_site_fract_y
_atom_site_fract_z
Co11	Co1	0.721150	0.167130	0.048310
Co21	Co2	0.178140	0.666510	0.213870
C11	C1	0.858100	0.813000	0.180850
O11	O1	0.677740	0.075620	0.096520
O21	O2	0.377000	0.526710	0.190490
O31	O3	0.178050	0.559570	0.170120
N11	N1	0.887900	0.242290	0.043630
N21	N2	0.221800	0.410810	0.490310
O41	O4	0.546490	0.227330	0.039200
N31	N3	0.516600	0.824410	0.206860
N41	N4	0.071800	0.314690	0.051660
O51	O5	0.633210	0.294180	0.098020
C21	C2	0.106000	0.642100	0.307580
H11	H1	0.044300	0.688200	0.300000
N51	N5	0.186600	0.610150	0.276480
O61	O6	0.869500	0.023210	0.078400
C31	C3	0.413800	0.329200	0.083850
C41	C4	0.284300	0.513600	0.166180
N61	N6	0.332400	0.754240	0.214960
N71	N7	0.921200	0.282710	0.003430
C51	C5	0.539700	0.281500	0.073360
C61	C6	0.030800	0.326600	0.008830
N81	N8	0.361600	0.804700	0.253000
H21	H2	0.315100	0.808000	0.276100
C71	C7	0.101000	0.476500	0.430620
H31	H3	0.021800	0.491300	0.418800
C81	C8	0.188900	0.345400	0.072420
C91	C9	0.646400	0.923900	0.157480
H41	H4	0.575900	0.962500	0.150800
C101	C10	0.978600	0.261600	0.072140
C111	C11	0.772600	0.016700	0.101230
C121	C12	0.291300	0.440600	0.128980
C131	C13	0.092200	0.384000	0.973630
C141	C14	0.181800	0.415600	0.105580
H51	H5	0.104800	0.445700	0.112200
C151	C15	0.406400	0.397200	0.117690
H61	H6	0.479400	0.414100	0.133100
C161	C16	0.211300	0.500600	0.407940
C171	C17	0.111500	0.608900	0.350440
H71	H7	0.053400	0.632000	0.370900
C181	C18	0.326800	0.481500	0.428370
H81	H8	0.402500	0.497700	0.414500
C191	C19	0.203900	0.541000	0.362820
C201	C20	0.110300	0.430500	0.470900
H91	H9	0.036100	0.412300	0.485200
C211	C21	0.322500	0.734800	0.115840
H101	H10	0.249300	0.763500	0.127100
C221	C22	0.303000	0.301900	0.060770
H111	H11	0.306500	0.255700	0.038200
C231	C23	0.761300	0.940000	0.136110
C241	C24	0.743200	0.795300	0.201420
H121	H12	0.736600	0.747800	0.223300
C251	C25	0.286900	0.507500	0.330110
H131	H13	0.349400	0.461200	0.336700
C261	C26	0.865900	0.883100	0.147910
H141	H14	0.942500	0.892400	0.133400
C271	C27	0.186100	0.500900	0.905510
H151	H15	0.217400	0.539700	0.882800
C281	C28	0.328500	0.438400	0.469300
H161	H16	0.406300	0.428000	0.483000
C291	C29	0.066200	0.359500	0.930200
H171	H17	0.017500	0.303800	0.923800
C301	C30	0.165100	0.467900	0.982790
H181	H18	0.182100	0.485500	0.011700
C311	C31	0.426400	0.767400	0.186630
C321	C32	0.274500	0.543900	0.288140
H191	H19	0.330300	0.521100	0.266800
C331	C33	0.431300	0.729600	0.141480
O71	O7	0.075400	0.775600	0.176480
C341	C34	0.638200	0.850400	0.188550
O81	O8	0.966700	0.683600	0.218980
C351	C35	0.540100	0.686800	0.124140
H201	H20	0.612800	0.681600	0.141300
C361	C36	0.974000	0.753800	0.193090
C371	C37	0.539500	0.910200	0.279740
H211	H21	0.613000	0.876000	0.290600
H221	H22	0.484200	0.925700	0.303700
H231	H23	0.565400	0.970300	0.265600
C381	C38	0.471600	0.846300	0.247840
C391	C39	0.322300	0.697400	0.073630
H241	H24	0.248700	0.699900	0.056800
C401	C40	0.431200	0.656300	0.056490
H251	H25	0.431100	0.631500	0.028100
C411	C41	0.980700	0.231800	0.118870
H261	H26	0.965400	0.288600	0.136900
H271	H27	0.062200	0.204200	0.125900
H281	H28	0.916100	0.183100	0.124000
C421	C42	0.112700	0.418000	0.896220
H291	H29	0.094500	0.401600	0.867300
C431	C43	0.540700	0.651900	0.081580
H301	H30	0.614600	0.625500	0.069800
C441	C44	0.212300	0.525200	0.948450
H311	H31	0.262000	0.580400	0.954600
Co31	Co3	0.221150	0.332870	0.548310
Co41	Co4	0.678140	0.833490	0.713870
C451	C45	0.358100	0.687000	0.680850
O91	O9	0.177740	0.424380	0.596520
O101	O10	0.877000	0.973290	0.690490
O111	O11	0.678050	0.940430	0.670120
N91	N9	0.387900	0.257710	0.543630
N101	N10	0.721800	0.089190	0.990310
O121	O12	0.046490	0.272670	0.539200
N111	N11	0.016600	0.675590	0.706860
N121	N12	0.571800	0.185310	0.551660
O131	O13	0.133210	0.205820	0.598020
C461	C46	0.606000	0.857900	0.807580
H321	H32	0.544300	0.811800	0.800000
N131	N13	0.686600	0.889850	0.776480
O141	O14	0.369500	0.476790	0.578400
C471	C47	0.913800	0.170800	0.583850
C481	C48	0.784300	0.986400	0.666180
N141	N14	0.832400	0.745760	0.714960
N151	N15	0.421200	0.217290	0.503430
C491	C49	0.039700	0.218500	0.573360
C501	C50	0.530800	0.173400	0.508830
N161	N16	0.861600	0.695300	0.753000
H331	H33	0.815100	0.692000	0.776100
C511	C51	0.601000	0.023500	0.930620
H341	H34	0.521800	0.008700	0.918800
C521	C52	0.688900	0.154600	0.572420
C531	C53	0.146400	0.576100	0.657480
H351	H35	0.075900	0.537500	0.650800
C541	C54	0.478600	0.238400	0.572140
C551	C55	0.272600	0.483300	0.601230
C561	C56	0.791300	0.059400	0.628980
C571	C57	0.592200	0.116000	0.473630
C581	C58	0.681800	0.084400	0.605580
H361	H36	0.604800	0.054300	0.612200
C591	C59	0.906400	0.102800	0.617690
H371	H37	0.979400	0.085900	0.633100
C601	C60	0.711300	0.999400	0.907940
C611	C61	0.611500	0.891100	0.850440
H381	H38	0.553400	0.868000	0.870900
C621	C62	0.826800	0.018500	0.928370
H391	H39	0.902500	0.002300	0.914500
C631	C63	0.703900	0.959000	0.862820
C641	C64	0.610300	0.069500	0.970900
H401	H40	0.536100	0.087700	0.985200
C651	C65	0.822500	0.765200	0.615840
H411	H41	0.749300	0.736500	0.627100
C661	C66	0.803000	0.198100	0.560770
H421	H42	0.806500	0.244300	0.538200
C671	C67	0.261300	0.560000	0.636110
C681	C68	0.243200	0.704700	0.701420
H431	H43	0.236600	0.752200	0.723300
C691	C69	0.786900	0.992500	0.830110
H441	H44	0.849400	0.038800	0.836700
C701	C70	0.365900	0.616900	0.647910
H451	H45	0.442500	0.607600	0.633400
C711	C71	0.686100	0.999100	0.405510
H461	H46	0.717400	0.960300	0.382800
C721	C72	0.828500	0.061600	0.969300
H471	H47	0.906300	0.072000	0.983000
C731	C73	0.566200	0.140500	0.430200
H481	H48	0.517500	0.196200	0.423800
C741	C74	0.665100	0.032100	0.482790
H491	H49	0.682100	0.014500	0.511700
C751	C75	0.926400	0.732600	0.686630
C761	C76	0.774500	0.956100	0.788140
H501	H50	0.830300	0.978900	0.766800
C771	C77	0.931300	0.770400	0.641480
O151	O15	0.575400	0.724400	0.676480
C781	C78	0.138200	0.649600	0.688550
O161	O16	0.466700	0.816400	0.718980
C791	C79	0.040100	0.813200	0.624140
H511	H51	0.112800	0.818400	0.641300
C801	C80	0.474000	0.746200	0.693090
C811	C81	0.039500	0.589800	0.779740
H521	H52	0.113000	0.624000	0.790600
H531	H53	0.984200	0.574300	0.803700
H541	H54	0.065400	0.529700	0.765600
C821	C82	0.971600	0.653700	0.747840
C831	C83	0.822300	0.802600	0.573630
H551	H55	0.748700	0.800100	0.556800
C841	C84	0.931200	0.843700	0.556490
H561	H56	0.931100	0.868500	0.528100
C851	C85	0.480700	0.268200	0.618870
H571	H57	0.465400	0.211400	0.636900
H581	H58	0.562200	0.295800	0.625900
H591	H59	0.416100	0.316900	0.624000
C861	C86	0.612700	0.082000	0.396220
H601	H60	0.594500	0.098400	0.367300
C871	C87	0.040700	0.848100	0.581580
H611	H61	0.114600	0.874500	0.569800
C881	C88	0.712300	0.974800	0.448450
H621	H62	0.762000	0.919600	0.454600
Co51	Co5	0.778850	0.667130	0.451690
Co61	Co6	0.321860	0.166510	0.286130
C891	C89	0.641900	0.313000	0.319150
O171	O17	0.822260	0.575620	0.403480
O181	O18	0.123000	0.026710	0.309510
O191	O19	0.321950	0.059570	0.329880
N171	N17	0.612100	0.742290	0.456370
N181	N18	0.278200	0.910810	0.009690
O201	O20	0.953510	0.727330	0.460800
N191	N19	0.983400	0.324410	0.293140
N201	N20	0.428200	0.814690	0.448340
O211	O21	0.866790	0.794180	0.401980
C901	C90	0.394000	0.142100	0.192420
H631	H63	0.455700	0.188200	0.200000
N211	N21	0.313400	0.110150	0.223520
O221	O22	0.630500	0.523210	0.421600
C911	C91	0.086200	0.829200	0.416150
C921	C92	0.215700	0.013600	0.333820
N221	N22	0.167600	0.254240	0.285040
N231	N23	0.578800	0.782710	0.496570
C931	C93	0.960300	0.781500	0.426640
C941	C94	0.469200	0.826600	0.491170
N241	N24	0.138400	0.304700	0.247000
H641	H64	0.184900	0.308000	0.223900
C951	C95	0.399000	0.976500	0.069380
H651	H65	0.478200	0.991300	0.081200
C961	C96	0.311100	0.845400	0.427580
C971	C97	0.853600	0.423900	0.342520
H661	H66	0.924100	0.462500	0.349200
C981	C98	0.521400	0.761600	0.427860
C991	C99	0.727400	0.516700	0.398770
C1001	C100	0.208700	0.940600	0.371020
C1011	C101	0.407800	0.884000	0.526370
C1021	C102	0.318200	0.915600	0.394420
H671	H67	0.395200	0.945700	0.387800
C1031	C103	0.093600	0.897200	0.382310
H681	H68	0.020600	0.914100	0.366900
C1041	C104	0.288700	0.000600	0.092060
C1051	C105	0.388500	0.108900	0.149560
H691	H69	0.446600	0.132000	0.129100
C1061	C106	0.173200	0.981500	0.071630
H701	H70	0.097500	0.997700	0.085500
C1071	C107	0.296100	0.041000	0.137180
C1081	C108	0.389700	0.930500	0.029100
H711	H71	0.463900	0.912300	0.014800
C1091	C109	0.177500	0.234800	0.384160
H721	H72	0.250700	0.263500	0.372900
C1101	C110	0.197000	0.801900	0.439230
H731	H73	0.193500	0.755700	0.461800
C1111	C111	0.738700	0.440000	0.363890
C1121	C112	0.756800	0.295300	0.298580
H741	H74	0.763400	0.247800	0.276700
C1131	C113	0.213100	0.007500	0.169890
H751	H75	0.150600	0.961200	0.163300
C1141	C114	0.634100	0.383100	0.352090
H761	H76	0.557500	0.392400	0.366600
C1151	C115	0.313900	0.000900	0.594490
H771	H77	0.282600	0.039700	0.617200
C1161	C116	0.171500	0.938400	0.030700
H781	H78	0.093700	0.928000	0.017000
C1171	C117	0.433800	0.859500	0.569800
H791	H79	0.482500	0.803800	0.576200
C1181	C118	0.334900	0.967900	0.517210
H801	H80	0.317900	0.985500	0.488300
C1191	C119	0.073600	0.267400	0.313370
C1201	C120	0.225500	0.043900	0.211860
H811	H81	0.169700	0.021100	0.233200
C1211	C121	0.068700	0.229600	0.358520
O231	O23	0.424600	0.275600	0.323520
C1221	C122	0.861800	0.350400	0.311450
O241	O24	0.533300	0.183600	0.281020
C1231	C123	0.959900	0.186800	0.375860
H821	H82	0.887200	0.181600	0.358700
C1241	C124	0.526000	0.253800	0.306910
C1251	C125	0.960500	0.410200	0.220260
H831	H83	0.887000	0.376000	0.209400
H841	H84	0.015800	0.425700	0.196300
H851	H85	0.934600	0.470300	0.234400
C1261	C126	0.028400	0.346300	0.252160
C1271	C127	0.177700	0.197400	0.426370
H861	H86	0.251300	0.199900	0.443200
C1281	C128	0.068800	0.156300	0.443510
H871	H87	0.068900	0.131500	0.471900
C1291	C129	0.519300	0.731800	0.381130
H881	H88	0.534600	0.788600	0.363100
H891	H89	0.437800	0.704200	0.374100
H901	H90	0.583900	0.683100	0.376000
C1301	C130	0.387300	0.918000	0.603780
H911	H91	0.405500	0.901600	0.632700
C1311	C131	0.959300	0.151900	0.418420
H921	H92	0.885400	0.125500	0.430200
C1321	C132	0.287700	0.025200	0.551550
H931	H93	0.238000	0.080400	0.545400
Co71	Co7	0.278850	0.832870	0.951690
Co81	Co8	0.821860	0.333490	0.786130
C1331	C133	0.141900	0.187000	0.819150
O251	O25	0.322260	0.924380	0.903480
O261	O26	0.623000	0.473290	0.809510
O271	O27	0.821950	0.440430	0.829880
N251	N25	0.112100	0.757710	0.956370
N261	N26	0.778200	0.589190	0.509690
O281	O28	0.453510	0.772670	0.960800
N271	N27	0.483400	0.175590	0.793140
N281	N28	0.928200	0.685310	0.948340
O291	O29	0.366790	0.705820	0.901980
C1341	C134	0.894000	0.357900	0.692420
H941	H94	0.955700	0.311800	0.700000
N291	N29	0.813400	0.389850	0.723520
O301	O30	0.130500	0.976790	0.921600
C1351	C135	0.586200	0.670800	0.916150
C1361	C136	0.715700	0.486400	0.833820
N301	N30	0.667600	0.245760	0.785040
N311	N31	0.078800	0.717290	0.996570
C1371	C137	0.460300	0.718500	0.926640
C1381	C138	0.969200	0.673400	0.991170
N321	N32	0.638400	0.195300	0.747000
H951	H95	0.684900	0.192000	0.723900
C1391	C139	0.899000	0.523500	0.569380
H961	H96	0.978200	0.508700	0.581200
C1401	C140	0.811100	0.654600	0.927580
C1411	C141	0.353600	0.076100	0.842520
H971	H97	0.424100	0.037500	0.849200
C1421	C142	0.021400	0.738400	0.927860
C1431	C143	0.227400	0.983300	0.898770
C1441	C144	0.708700	0.559400	0.871020
C1451	C145	0.907800	0.616000	0.026370
C1461	C146	0.818200	0.584400	0.894420
H981	H98	0.895200	0.554300	0.887800
C1471	C147	0.593600	0.602800	0.882310
H991	H99	0.520600	0.585900	0.866900
C1481	C148	0.788700	0.499400	0.592060
C1491	C149	0.888500	0.391100	0.649560
H1001	H100	0.946600	0.368000	0.629100
C1501	C150	0.673200	0.518500	0.571630
H1011	H101	0.597500	0.502300	0.585500
C1511	C151	0.796100	0.459000	0.637180
C1521	C152	0.889700	0.569500	0.529100
H1021	H102	0.963900	0.587700	0.514800
C1531	C153	0.677500	0.265200	0.884160
H1031	H103	0.750700	0.236500	0.872900
C1541	C154	0.697000	0.698100	0.939230
H1041	H104	0.693500	0.744300	0.961800
C1551	C155	0.238700	0.060000	0.863890
C1561	C156	0.256800	0.204700	0.798580
H1051	H105	0.263400	0.252200	0.776700
C1571	C157	0.713100	0.492500	0.669890
H1061	H106	0.650600	0.538800	0.663300
C1581	C158	0.134100	0.116900	0.852090
H1071	H107	0.057500	0.107600	0.866600
C1591	C159	0.813900	0.499100	0.094490
H1081	H108	0.782600	0.460300	0.117200
C1601	C160	0.671500	0.561600	0.530700
H1091	H109	0.593700	0.572000	0.517000
C1611	C161	0.933800	0.640500	0.069800
H1101	H110	0.982500	0.696200	0.076200
C1621	C162	0.834900	0.532100	0.017210
H1111	H111	0.817900	0.514500	0.988300
C1631	C163	0.573600	0.232600	0.813370
C1641	C164	0.725500	0.456100	0.711860
H1121	H112	0.669700	0.478900	0.733200
C1651	C165	0.568700	0.270400	0.858520
O311	O31	0.924600	0.224400	0.823520
C1661	C166	0.361800	0.149600	0.811450
O321	O32	0.033300	0.316400	0.781020
C1671	C167	0.459900	0.313200	0.875860
H1131	H113	0.387200	0.318400	0.858700
C1681	C168	0.026000	0.246200	0.806910
C1691	C169	0.460500	0.089800	0.720260
H1141	H114	0.387000	0.124000	0.709400
H1151	H115	0.515800	0.074300	0.696300
H1161	H116	0.434600	0.029700	0.734400
C1701	C170	0.528400	0.153700	0.752160
C1711	C171	0.677700	0.302600	0.926370
H1171	H117	0.751300	0.300100	0.943200
C1721	C172	0.568800	0.343700	0.943510
H1181	H118	0.568900	0.368500	0.971900
C1731	C173	0.019300	0.768200	0.881130
H1191	H119	0.034600	0.711400	0.863100
H1201	H120	0.937800	0.795800	0.874100
H1211	H121	0.083900	0.816900	0.876000
C1741	C174	0.887300	0.582000	0.103780
H1221	H122	0.905500	0.598400	0.132700
C1751	C175	0.459300	0.348100	0.918420
H1231	H123	0.385400	0.374500	0.930200
C1761	C176	0.787700	0.474800	0.051550
H1241	H124	0.738000	0.419600	0.045400
