data_UGUXAV_clean_PM
_symmetry_space_group_name_H-M	'P1'
_cell_length_a	7.419400
_cell_length_b	17.963000
_cell_length_c	24.574000
_cell_angle_alpha	90.000000
_cell_angle_beta	90.000000
_cell_angle_gamma	90.000000
_symmetry_Int_Tables_number 1

loop_
_symmetry_equiv_pos_as_xyz
'x,y,z'

loop_
_atom_site_label
_atom_site_type_symbol
_atom_site_fract_x
_atom_site_fract_y
_atom_site_fract_z
O11	O1	0.915300	0.615530	0.053650
O21	O2	0.962600	0.519320	0.169990
C11	C1	0.883700	0.684650	0.050300
C21	C2	0.745700	0.709270	0.008130
H11	H1	0.634000	0.700200	0.025600
H21	H2	0.767200	0.677700	0.975600
O31	O3	0.915300	0.115530	0.553650
O41	O4	0.962600	0.019320	0.669990
C31	C3	0.883700	0.184650	0.550300
C41	C4	0.745700	0.209270	0.508130
H31	H3	0.634000	0.200200	0.525600
H41	H4	0.767200	0.177700	0.475600
O51	O5	0.415300	0.615530	0.553650
O61	O6	0.462600	0.519320	0.669990
C51	C5	0.383700	0.684650	0.550300
C61	C6	0.245700	0.709270	0.508130
H51	H5	0.134000	0.700200	0.525600
H61	H6	0.267200	0.677700	0.475600
O71	O7	0.415300	0.115530	0.053650
O81	O8	0.462600	0.019320	0.169990
C71	C7	0.383700	0.184650	0.050300
C81	C8	0.245700	0.209270	0.008130
H71	H7	0.134000	0.200200	0.025600
H81	H8	0.267200	0.177700	0.975600
O91	O9	0.834700	0.134470	0.053650
O101	O10	0.787400	0.230680	0.169990
C91	C9	0.866300	0.065350	0.050300
C101	C10	0.004300	0.040730	0.008130
H91	H9	0.116000	0.049800	0.025600
H101	H10	0.982800	0.072300	0.975600
O111	O11	0.834700	0.634470	0.553650
O121	O12	0.787400	0.730680	0.669990
C111	C11	0.866300	0.565350	0.550300
C121	C12	0.004300	0.540730	0.508130
H111	H11	0.116000	0.549800	0.525600
H121	H12	0.982800	0.572300	0.475600
O131	O13	0.334700	0.134470	0.553650
O141	O14	0.287400	0.230680	0.669990
C131	C13	0.366300	0.065350	0.550300
C141	C14	0.504300	0.040730	0.508130
H131	H13	0.616000	0.049800	0.525600
H141	H14	0.482800	0.072300	0.475600
O151	O15	0.334700	0.634470	0.053650
O161	O16	0.287400	0.730680	0.169990
C151	C15	0.366300	0.565350	0.050300
C161	C16	0.504300	0.540730	0.008130
H151	H15	0.616000	0.549800	0.025600
H161	H16	0.482800	0.572300	0.975600
O171	O17	0.834700	0.615530	0.696350
O181	O18	0.787400	0.519320	0.580010
C171	C17	0.866300	0.684650	0.699700
C181	C18	0.004300	0.709270	0.741870
H171	H17	0.116000	0.700200	0.724400
H181	H18	0.982800	0.677700	0.774400
O191	O19	0.834700	0.115530	0.196350
O201	O20	0.787400	0.019320	0.080010
C191	C19	0.866300	0.184650	0.199700
C201	C20	0.004300	0.209270	0.241870
H191	H19	0.116000	0.200200	0.224400
H201	H20	0.982800	0.177700	0.274400
O211	O21	0.334700	0.615530	0.196350
O221	O22	0.287400	0.519320	0.080010
C211	C21	0.366300	0.684650	0.199700
C221	C22	0.504300	0.709270	0.241870
H211	H21	0.616000	0.700200	0.224400
H221	H22	0.482800	0.677700	0.274400
O231	O23	0.334700	0.115530	0.696350
O241	O24	0.287400	0.019320	0.580010
C231	C23	0.366300	0.184650	0.699700
C241	C24	0.504300	0.209270	0.741870
H231	H23	0.616000	0.200200	0.724400
H241	H24	0.482800	0.177700	0.774400
O251	O25	0.915300	0.134470	0.696350
O261	O26	0.962600	0.230680	0.580010
C251	C25	0.883700	0.065350	0.699700
C261	C26	0.745700	0.040730	0.741870
H251	H25	0.634000	0.049800	0.724400
H261	H26	0.767200	0.072300	0.774400
O271	O27	0.915300	0.634470	0.196350
O281	O28	0.962600	0.730680	0.080010
C271	C27	0.883700	0.565350	0.199700
C281	C28	0.745700	0.540730	0.241870
H271	H27	0.634000	0.549800	0.224400
H281	H28	0.767200	0.572300	0.274400
O291	O29	0.415300	0.134470	0.196350
O301	O30	0.462600	0.230680	0.080010
C291	C29	0.383700	0.065350	0.199700
C301	C30	0.245700	0.040730	0.241870
H291	H29	0.134000	0.049800	0.224400
H301	H30	0.267200	0.072300	0.274400
O311	O31	0.415300	0.634470	0.696350
O321	O32	0.462600	0.730680	0.580010
C311	C31	0.383700	0.565350	0.699700
C321	C32	0.245700	0.540730	0.741870
H311	H31	0.134000	0.549800	0.724400
H321	H32	0.267200	0.572300	0.774400
O331	O33	0.084700	0.384470	0.946350
O341	O34	0.037400	0.480680	0.830010
C331	C33	0.116300	0.315350	0.949700
C341	C34	0.254300	0.290730	0.991870
H331	H33	0.366000	0.299800	0.974400
H341	H34	0.232800	0.322300	0.024400
O351	O35	0.084700	0.884470	0.446350
O361	O36	0.037400	0.980680	0.330010
C351	C35	0.116300	0.815350	0.449700
C361	C36	0.254300	0.790730	0.491870
H351	H35	0.366000	0.799800	0.474400
H361	H36	0.232800	0.822300	0.524400
O371	O37	0.584700	0.384470	0.446350
O381	O38	0.537400	0.480680	0.330010
C371	C37	0.616300	0.315350	0.449700
C381	C38	0.754300	0.290730	0.491870
H371	H37	0.866000	0.299800	0.474400
H381	H38	0.732800	0.322300	0.524400
O391	O39	0.584700	0.884470	0.946350
O401	O40	0.537400	0.980680	0.830010
C391	C39	0.616300	0.815350	0.949700
C401	C40	0.754300	0.790730	0.991870
H391	H39	0.866000	0.799800	0.974400
H401	H40	0.732800	0.822300	0.024400
O411	O41	0.165300	0.865530	0.946350
O421	O42	0.212600	0.769320	0.830010
C411	C41	0.133700	0.934650	0.949700
C421	C42	0.995700	0.959270	0.991870
H411	H41	0.884000	0.950200	0.974400
H421	H42	0.017200	0.927700	0.024400
O431	O43	0.165300	0.365530	0.446350
O441	O44	0.212600	0.269320	0.330010
C431	C43	0.133700	0.434650	0.449700
C441	C44	0.995700	0.459270	0.491870
H431	H43	0.884000	0.450200	0.474400
H441	H44	0.017200	0.427700	0.524400
O451	O45	0.665300	0.865530	0.446350
O461	O46	0.712600	0.769320	0.330010
C451	C45	0.633700	0.934650	0.449700
C461	C46	0.495700	0.959270	0.491870
H451	H45	0.384000	0.950200	0.474400
H461	H46	0.517200	0.927700	0.524400
O471	O47	0.665300	0.365530	0.946350
O481	O48	0.712600	0.269320	0.830010
C471	C47	0.633700	0.434650	0.949700
C481	C48	0.495700	0.459270	0.991870
H471	H47	0.384000	0.450200	0.974400
H481	H48	0.517200	0.427700	0.024400
O491	O49	0.165300	0.384470	0.303650
O501	O50	0.212600	0.480680	0.419990
C491	C49	0.133700	0.315350	0.300300
C501	C50	0.995700	0.290730	0.258130
H491	H49	0.884000	0.299800	0.275600
H501	H50	0.017200	0.322300	0.225600
O511	O51	0.165300	0.884470	0.803650
O521	O52	0.212600	0.980680	0.919990
C511	C51	0.133700	0.815350	0.800300
C521	C52	0.995700	0.790730	0.758130
H511	H51	0.884000	0.799800	0.775600
H521	H52	0.017200	0.822300	0.725600
O531	O53	0.665300	0.384470	0.803650
O541	O54	0.712600	0.480680	0.919990
C531	C53	0.633700	0.315350	0.800300
C541	C54	0.495700	0.290730	0.758130
H531	H53	0.384000	0.299800	0.775600
H541	H54	0.517200	0.322300	0.725600
O551	O55	0.665300	0.884470	0.303650
O561	O56	0.712600	0.980680	0.419990
C551	C55	0.633700	0.815350	0.300300
C561	C56	0.495700	0.790730	0.258130
H551	H55	0.384000	0.799800	0.275600
H561	H56	0.517200	0.822300	0.225600
O571	O57	0.084700	0.865530	0.303650
O581	O58	0.037400	0.769320	0.419990
C571	C57	0.116300	0.934650	0.300300
C581	C58	0.254300	0.959270	0.258130
H571	H57	0.366000	0.950200	0.275600
H581	H58	0.232800	0.927700	0.225600
O591	O59	0.084700	0.365530	0.803650
O601	O60	0.037400	0.269320	0.919990
C591	C59	0.116300	0.434650	0.800300
C601	C60	0.254300	0.459270	0.758130
H591	H59	0.366000	0.450200	0.775600
H601	H60	0.232800	0.427700	0.725600
O611	O61	0.584700	0.865530	0.803650
O621	O62	0.537400	0.769320	0.919990
C611	C61	0.616300	0.934650	0.800300
C621	C62	0.754300	0.959270	0.758130
H611	H61	0.866000	0.950200	0.775600
H621	H62	0.732800	0.927700	0.725600
O631	O63	0.584700	0.365530	0.303650
O641	O64	0.537400	0.269320	0.419990
C631	C63	0.616300	0.434650	0.300300
C641	C64	0.754300	0.459270	0.258130
H631	H63	0.866000	0.450200	0.275600
H641	H64	0.732800	0.427700	0.225600
Cd11	Cd1	0.125000	0.625000	0.125000
Cd21	Cd2	0.625000	0.625000	0.625000
Cd31	Cd3	0.625000	0.125000	0.125000
Cd41	Cd4	0.125000	0.125000	0.625000
Cd51	Cd5	0.875000	0.375000	0.875000
Cd61	Cd6	0.375000	0.375000	0.375000
Cd71	Cd7	0.375000	0.875000	0.875000
Cd81	Cd8	0.875000	0.875000	0.375000
