data_UHAXUW_clean_PM
_symmetry_space_group_name_H-M	'P1'
_cell_length_a	7.680000
_cell_length_b	10.029000
_cell_length_c	25.786000
_cell_angle_alpha	90.000000
_cell_angle_beta	93.779000
_cell_angle_gamma	90.000000
_symmetry_Int_Tables_number 1

loop_
_symmetry_equiv_pos_as_xyz
'x,y,z'

loop_
_atom_site_label
_atom_site_type_symbol
_atom_site_fract_x
_atom_site_fract_y
_atom_site_fract_z
Cd11	Cd1	0.734720	0.258150	0.761520
Cd21	Cd2	0.265280	0.758150	0.738480
Cd31	Cd3	0.265280	0.741850	0.238480
Cd41	Cd4	0.734720	0.241850	0.261520
H11	H1	0.663600	0.515100	0.688900
H21	H2	0.528100	0.591700	0.613300
H31	H3	0.316000	0.230300	0.590500
H41	H4	0.457100	0.163300	0.667200
H51	H5	0.054700	0.586500	0.386700
H61	H6	0.895100	0.502600	0.316100
H71	H7	0.893700	0.148200	0.376600
H81	H8	0.054700	0.220900	0.449900
H91	H9	0.336400	0.015100	0.811100
H101	H10	0.471900	0.091700	0.886700
H111	H11	0.684000	0.730300	0.909500
H121	H12	0.542900	0.663300	0.832800
H131	H13	0.945300	0.086500	0.113300
H141	H14	0.104900	0.002600	0.183900
H151	H15	0.106300	0.648200	0.123400
H161	H16	0.945300	0.720900	0.050100
H171	H17	0.336400	0.484900	0.311100
H181	H18	0.471900	0.408300	0.386700
H191	H19	0.684000	0.769700	0.409500
H201	H20	0.542900	0.836700	0.332800
H211	H21	0.945300	0.413500	0.613300
H221	H22	0.104900	0.497400	0.683900
H231	H23	0.106300	0.851800	0.623400
H241	H24	0.945300	0.779100	0.550100
H251	H25	0.663600	0.984900	0.188900
H261	H26	0.528100	0.908300	0.113300
H271	H27	0.316000	0.269700	0.090500
H281	H28	0.457100	0.336700	0.167200
H291	H29	0.054700	0.913500	0.886700
H301	H30	0.895100	0.997400	0.816100
H311	H31	0.893700	0.351800	0.876600
H321	H32	0.054700	0.279100	0.949900
C11	C1	0.594000	0.456700	0.668620
C21	C2	0.513300	0.503500	0.623230
C31	C3	0.409600	0.418300	0.592210
C41	C4	0.387500	0.289600	0.609700
C51	C5	0.472700	0.250100	0.655800
C61	C6	0.329000	0.467100	0.543800
C71	C7	0.179800	0.464300	0.470820
C81	C8	0.074900	0.411000	0.426090
C91	C9	0.024400	0.496700	0.385340
C101	C10	0.929000	0.445300	0.343270
C111	C11	0.927900	0.237100	0.378700
C121	C12	0.024700	0.279800	0.423000
C131	C13	0.096200	0.072200	0.714550
C141	C14	0.382200	0.447700	0.781900
C151	C15	0.406000	0.956700	0.831380
C161	C16	0.486700	0.003500	0.876770
C171	C17	0.590400	0.918300	0.907790
C181	C18	0.612500	0.789600	0.890300
C191	C19	0.527300	0.750100	0.844200
C201	C20	0.671000	0.967100	0.956200
C211	C21	0.820200	0.964300	0.029180
C221	C22	0.925100	0.911000	0.073910
C231	C23	0.975600	0.996700	0.114660
C241	C24	0.071000	0.945300	0.156730
C251	C25	0.072100	0.737100	0.121300
C261	C26	0.975300	0.779800	0.077000
C271	C27	0.903800	0.572200	0.785450
C281	C28	0.617800	0.947700	0.718100
C291	C29	0.406000	0.543300	0.331380
C301	C30	0.486700	0.496500	0.376770
C311	C31	0.590400	0.581700	0.407790
C321	C32	0.612500	0.710400	0.390300
C331	C33	0.527300	0.749900	0.344200
C341	C34	0.671000	0.532900	0.456200
C351	C35	0.820200	0.535700	0.529180
C361	C36	0.925100	0.589000	0.573910
C371	C37	0.975600	0.503300	0.614660
C381	C38	0.071000	0.554700	0.656730
C391	C39	0.072100	0.762900	0.621300
C401	C40	0.975300	0.720200	0.577000
C411	C41	0.903800	0.927800	0.285450
C421	C42	0.617800	0.552300	0.218100
C431	C43	0.594000	0.043300	0.168620
C441	C44	0.513300	0.996500	0.123230
C451	C45	0.409600	0.081700	0.092210
C461	C46	0.387500	0.210400	0.109700
C471	C47	0.472700	0.249900	0.155800
C481	C48	0.329000	0.032900	0.043800
C491	C49	0.179800	0.035700	0.970820
C501	C50	0.074900	0.089000	0.926090
C511	C51	0.024400	0.003300	0.885340
C521	C52	0.929000	0.054700	0.843270
C531	C53	0.927900	0.262900	0.878700
C541	C54	0.024700	0.220200	0.923000
C551	C55	0.096200	0.427800	0.214550
C561	C56	0.382200	0.052300	0.281900
S11	S1	0.019200	0.221350	0.701960
S21	S2	0.447700	0.314940	0.815550
S31	S3	0.980800	0.721350	0.798040
S41	S4	0.552300	0.814940	0.684450
S51	S5	0.980800	0.778650	0.298040
S61	S6	0.552300	0.685060	0.184450
S71	S7	0.019200	0.278650	0.201960
S81	S8	0.447700	0.185060	0.315550
N11	N1	0.577800	0.332100	0.685130
N21	N2	0.335000	0.586800	0.525180
N31	N3	0.238300	0.584100	0.477070
N41	N4	0.882000	0.317700	0.339090
N51	N5	0.152800	0.969100	0.723730
N61	N6	0.341200	0.542000	0.758390
N71	N7	0.422200	0.832100	0.814870
N81	N8	0.665000	0.086800	0.974820
N91	N9	0.761700	0.084100	0.022930
N101	N10	0.118000	0.817700	0.160910
N111	N11	0.847200	0.469100	0.776270
N121	N12	0.658800	0.042000	0.741610
N131	N13	0.422200	0.667900	0.314870
N141	N14	0.665000	0.413200	0.474820
N151	N15	0.761700	0.415900	0.522930
N161	N16	0.118000	0.682300	0.660910
N171	N17	0.847200	0.030900	0.276270
N181	N18	0.658800	0.458000	0.241610
N191	N19	0.577800	0.167900	0.185130
N201	N20	0.335000	0.913200	0.025180
N211	N21	0.238300	0.915900	0.977070
N221	N22	0.882000	0.182300	0.839090
N231	N23	0.152800	0.530900	0.223730
N241	N24	0.341200	0.958000	0.258390
O11	O1	0.231700	0.383200	0.511690
O21	O2	0.768300	0.883200	0.988310
O31	O3	0.768300	0.616800	0.488310
O41	O4	0.231700	0.116800	0.011690
