data_UHISOU_clean_PM
_symmetry_space_group_name_H-M	'P1'
_cell_length_a	6.900700
_cell_length_b	7.472200
_cell_length_c	8.252100
_cell_angle_alpha	90.227000
_cell_angle_beta	108.670000
_cell_angle_gamma	93.332000
_symmetry_Int_Tables_number 1

loop_
_symmetry_equiv_pos_as_xyz
'x,y,z'

loop_
_atom_site_label
_atom_site_type_symbol
_atom_site_fract_x
_atom_site_fract_y
_atom_site_fract_z
Mg11	Mg1	0.500000	0.500000	0.000000
Mg21	Mg2	0.000000	0.000000	0.000000
H11	H1	0.576200	0.709300	0.459100
H21	H2	0.423800	0.290700	0.540900
C11	C1	0.421900	0.843630	0.160040
C21	C2	0.463400	0.931710	0.333390
C31	C3	0.545590	0.826150	0.475590
C41	C4	0.417480	0.107730	0.358760
C51	C5	0.346700	0.238490	0.216370
C61	C6	0.578100	0.156370	0.839960
C71	C7	0.536600	0.068290	0.666610
C81	C8	0.454410	0.173850	0.524410
C91	C9	0.582520	0.892270	0.641240
C101	C10	0.653300	0.761510	0.783630
O11	O1	0.549330	0.735520	0.146410
O21	O2	0.478610	0.357810	0.209380
O31	O3	0.163760	0.226340	0.118490
O41	O4	0.263240	0.876250	0.041640
O51	O5	0.450670	0.264480	0.853590
O61	O6	0.521390	0.642190	0.790620
O71	O7	0.836240	0.773660	0.881510
O81	O8	0.736760	0.123750	0.958360
