data_UHUPET_clean_PM
_symmetry_space_group_name_H-M	'P1'
_cell_length_a	26.445200
_cell_length_b	26.445200
_cell_length_c	52.740000
_cell_angle_alpha	90.895000
_cell_angle_beta	90.895000
_cell_angle_gamma	91.780000
_symmetry_Int_Tables_number 1

loop_
_symmetry_equiv_pos_as_xyz
'x,y,z'

loop_
_atom_site_label
_atom_site_type_symbol
_atom_site_fract_x
_atom_site_fract_y
_atom_site_fract_z
Zn11	Zn1	0.034630	0.027710	0.080560
Zn21	Zn2	0.105500	0.221500	0.628140
Zn31	Zn3	0.021580	0.133400	0.626220
Zn41	Zn4	0.026840	0.108960	0.124390
Zn51	Zn5	0.123600	0.115070	0.088480
Zn61	Zn6	0.028480	0.210000	0.580980
Zn71	Zn7	0.106210	0.024660	0.128460
Zn81	Zn8	0.115310	0.129480	0.589270
C11	C1	0.772400	0.184700	0.601800
C21	C2	0.062100	0.178400	0.701550
C31	C3	0.068200	0.162500	0.781600
C41	C4	0.035400	0.782600	0.602000
C51	C5	0.543100	0.214600	0.579400
C61	C6	0.012300	0.283100	0.112300
C71	C7	0.058300	0.365000	0.601860
C81	C8	0.016700	0.530100	0.103900
C91	C9	0.022300	0.384300	0.586000
C101	C10	0.095300	0.602300	0.106700
C111	C11	0.091800	0.141400	0.432000
C121	C12	0.047800	0.124100	0.212700
C131	C13	0.113400	0.264400	0.879900
C141	C14	0.053500	0.852700	0.126900
C151	C15	0.079500	0.105100	0.252200
C161	C16	0.063700	0.095000	0.840400
C171	C17	0.339100	0.236400	0.622700
C181	C18	0.360900	0.211000	0.606400
C191	C19	0.012500	0.335700	0.112600
C201	C20	0.068300	0.076200	0.172700
C211	C21	0.875600	0.174300	0.600400
C221	C22	0.254900	0.207300	0.607400
C231	C23	0.519000	0.031000	0.111500
C241	C24	0.041700	0.795600	0.079900
C251	C25	0.094400	0.206200	0.716840
C261	C26	0.100800	0.081600	0.343000
C271	C27	0.035600	0.724200	0.601700
C281	C28	0.035500	0.826800	0.601700
C291	C29	0.042200	0.851400	0.081800
C301	C30	0.798300	0.208300	0.579800
C311	C31	0.417200	0.203400	0.605000
C321	C32	0.933800	0.173400	0.600400
C331	C33	0.082300	0.081500	0.009100
C341	C34	0.094600	0.134500	0.408300
C351	C35	0.722200	0.023300	0.102900
C361	C36	0.054100	0.877200	0.105200
C371	C37	0.057100	0.934100	0.105500
C381	C38	0.793100	0.159900	0.620900
C391	C39	0.935600	0.051100	0.102100
C401	C40	0.101600	0.063700	0.242200
C411	C41	0.065500	0.192200	0.100400
C421	C42	0.063300	0.187400	0.466400
C431	C43	0.048900	0.041600	0.608200
C441	C44	0.066300	0.168000	0.754680
C451	C45	0.051600	0.798000	0.126100
C461	C46	0.536500	0.208800	0.624700
C471	C47	0.334300	0.005300	0.127200
C481	C48	0.901900	0.687000	0.592200
C491	C49	0.113800	0.128500	0.974800
C501	C50	0.856200	0.013600	0.085200
C511	C51	0.050100	0.466800	0.600900
C521	C52	0.047400	0.775300	0.104300
C531	C53	0.063700	0.180800	0.673960
C541	C54	0.030700	0.958300	0.625800
C551	C55	0.113000	0.119100	0.001700
C561	C56	0.595200	0.210500	0.581500
C571	C57	0.030000	0.903300	0.624300
C581	C58	0.561000	0.127900	0.154700
C591	C59	0.086800	0.178100	0.367800
C601	C60	0.085000	0.117600	0.908700
C611	C61	0.042000	0.626600	0.600500
C621	C62	0.282200	0.011100	0.126100
C631	C63	0.066500	0.515000	0.104700
C641	C64	0.194200	0.553000	0.122800
C651	C65	0.853100	0.197300	0.582900
C661	C66	0.365800	0.034800	0.112200
C671	C67	0.052900	0.363000	0.102400
C681	C68	0.034000	0.135900	0.740400
C691	C69	0.052800	0.064500	0.966400
C701	C70	0.880400	0.044600	0.102500
C711	C71	0.105900	0.551100	0.106000
C721	C72	0.042600	0.883600	0.603300
C731	C73	0.513700	0.213800	0.601000
C741	C74	0.196500	0.208100	0.609700
C751	C75	0.086000	0.116100	0.280200
C761	C76	0.279700	0.234000	0.625100
C771	C77	0.537500	0.005000	0.090600
C781	C78	0.604300	0.051600	0.125600
C791	C79	0.095100	0.173700	0.871910
C801	C80	0.677800	0.022900	0.101300
C811	C81	0.108600	0.125200	0.501200
C821	C82	0.799000	0.061400	0.121300
C831	C83	0.593000	0.236000	0.533100
C841	C84	0.800400	0.005600	0.084900
C851	C85	0.588600	0.204700	0.626800
C861	C86	0.093000	0.285100	0.091800
C871	C87	0.160600	0.659000	0.633400
C881	C88	0.989900	0.639500	0.596300
C891	C89	0.080400	0.161800	0.510200
C901	C90	0.345300	0.070000	0.096000
C911	C91	0.070800	0.151100	0.804300
C921	C92	0.086400	0.449800	0.617800
C931	C93	0.673100	0.201500	0.599600
C941	C94	0.054500	0.903900	0.581700
C951	C95	0.082000	0.125400	0.882280
C961	C96	0.552400	0.054300	0.128900
C971	C97	0.046700	0.982400	0.606100
C981	C98	0.047100	0.418100	0.103700
C991	C99	0.848200	0.152100	0.619100
C1001	C100	0.017500	0.438300	0.584400
C1011	C101	0.045300	0.053800	0.994000
C1021	C102	0.589400	0.002300	0.087300
C1031	C103	0.077400	0.263900	0.339900
C1041	C104	0.774800	0.031800	0.102800
C1051	C105	0.046700	0.720700	0.103200
C1061	C106	0.087700	0.644200	0.607800
C1071	C107	0.072300	0.086300	0.201000
C1081	C108	0.463000	0.200000	0.652400
C1091	C109	0.100200	0.055800	0.215600
C1101	C110	0.915500	0.592600	0.109100
C1111	C111	0.088000	0.182800	0.846770
C1121	C112	0.084900	0.109500	0.931200
C1131	C113	0.082300	0.708600	0.606500
C1141	C114	0.293300	0.075700	0.094800
C1151	C115	0.055100	0.137100	0.239000
C1161	C116	0.066800	0.086900	0.865600
C1171	C117	0.042400	0.006200	0.831800
C1181	C118	0.712900	0.182300	0.598700
C1191	C119	0.622800	0.025600	0.104700
C1201	C120	0.618000	0.205500	0.605200
C1211	C121	0.085900	0.172400	0.340800
C1221	C122	0.101700	0.086900	0.370100
C1231	C123	0.091300	0.121100	0.302700
C1241	C124	0.088900	0.395800	0.618700
C1251	C125	0.089000	0.146500	0.459300
C1261	C126	0.096700	0.133000	0.381900
C1271	C127	0.459400	0.210500	0.600000
C1281	C128	0.044100	0.568300	0.599500
C1291	C129	0.093100	0.337700	0.092000
C1301	C130	0.085800	0.099000	0.957100
C1311	C131	0.200500	0.044400	0.116900
C1321	C132	0.072800	0.069900	0.038000
C1331	C133	0.112800	0.115300	0.475500
C1341	C134	0.006100	0.581300	0.104600
C1351	C135	0.114300	0.993600	0.370400
C1361	C136	0.467100	0.027100	0.110800
C1371	C137	0.276500	0.180700	0.589000
C1381	C138	0.045400	0.617400	0.105900
C1391	C139	0.055900	0.962600	0.583700
C1401	C140	0.421800	0.028400	0.109300
C1411	C141	0.067800	0.459900	0.105800
C1421	C142	0.052500	0.257800	0.101900
C1431	C143	0.579000	0.963000	0.045800
C1441	C144	0.049400	0.524100	0.599900
C1451	C145	0.062200	0.306100	0.603240
C1461	C146	0.999700	0.696500	0.596900
C1471	C147	0.094500	0.205000	0.744000
C1481	C148	0.073900	0.168400	0.538500
C1491	C149	0.261700	0.046300	0.109900
C1501	C150	0.092000	0.124600	0.329600
C1511	C151	0.054300	0.192200	0.494900
C1521	C152	0.852500	0.063500	0.120600
C1531	C153	0.042400	0.672300	0.102900
C1541	C154	0.030600	0.142500	0.713200
C1551	C155	0.074400	0.143700	0.829980
C1561	C156	0.338500	0.186300	0.586800
O11	O1	0.078600	0.213200	0.327080
O21	O2	0.103600	0.212600	0.890120
O31	O3	0.964900	0.612300	0.104200
O41	O4	0.537000	0.081000	0.150500
O51	O5	0.071800	0.173300	0.082600
O61	O6	0.037300	0.282500	0.586460
O71	O7	0.091400	0.211500	0.664130
O81	O8	0.958700	0.081900	0.118990
O91	O9	0.175600	0.019000	0.128240
O101	O10	0.045400	0.201000	0.545840
O111	O11	0.612700	0.979000	0.066500
O121	O12	0.948500	0.146200	0.618970
O131	O13	0.070900	0.064400	0.588680
O141	O14	0.956900	0.195400	0.583500
O151	O15	0.070700	0.068170	0.105370
O161	O16	0.948200	0.719400	0.592500
O171	O17	0.101700	0.138300	0.552280
O181	O18	0.041700	0.040800	0.045590
O191	O19	0.611000	0.220000	0.556600
O201	O20	0.180400	0.226400	0.627480
O211	O21	0.107900	0.098200	0.051790
O221	O22	0.519600	0.208600	0.651100
O231	O23	0.026800	0.060600	0.625460
O241	O24	0.109400	0.046300	0.385000
O251	O25	0.075700	0.955400	0.124140
O261	O26	0.147000	0.645000	0.606600
O271	O27	0.067620	0.175360	0.605900
O281	O28	0.029500	0.152000	0.662310
O291	O29	0.959100	0.030400	0.086010
O301	O30	0.090400	0.291700	0.620940
O311	O31	0.022700	0.181600	0.116360
O321	O32	0.092200	0.042100	0.163940
O331	O33	0.174200	0.184900	0.590320
O341	O34	0.038500	0.105000	0.161030
O351	O35	0.044300	0.955200	0.084560
O361	O36	0.051400	0.057000	0.822360
O371	O37	0.185900	0.076400	0.096500
O381	O38	0.146900	0.520100	0.110500
Zn91	Zn9	0.876400	0.884930	0.911520
Zn101	Zn10	0.971520	0.790000	0.419020
Zn111	Zn11	0.965370	0.972290	0.919440
Zn121	Zn12	0.978420	0.866600	0.373780
Zn131	Zn13	0.973160	0.891040	0.875610
Zn141	Zn14	0.894500	0.778500	0.371860
Zn151	Zn15	0.884690	0.870520	0.410730
Zn161	Zn16	0.893790	0.975340	0.871540
C1571	C157	0.957800	0.148600	0.918200
C1581	C158	0.932200	0.540100	0.894200
C1591	C159	0.936700	0.812600	0.533600
C1601	C160	0.983300	0.469900	0.896100
C1611	C161	0.914200	0.901000	0.042900
C1621	C162	0.919600	0.838200	0.489800
C1631	C163	0.969400	0.857500	0.286800
C1641	C164	0.952600	0.224700	0.895700
C1651	C165	0.660900	0.763600	0.377300
C1661	C166	0.898300	0.913100	0.629900
C1671	C167	0.717800	0.988900	0.873900
C1681	C168	0.954600	0.382600	0.894100
C1691	C169	0.946500	0.147300	0.873100
C1701	C170	0.287100	0.817700	0.401300
C1711	C171	0.914000	0.883900	0.719800
C1721	C172	0.634200	0.965200	0.887800
C1731	C173	0.905500	0.795000	0.256000
C1741	C174	0.407000	0.764000	0.466900
C1751	C175	0.201000	0.938600	0.878700
C1761	C176	0.915100	0.890500	0.068800
C1771	C177	0.917700	0.918500	0.990900
C1781	C178	0.463500	0.791200	0.375300
C1791	C179	0.944100	0.037400	0.416300
C1801	C180	0.803500	0.791900	0.390300
C1811	C181	0.227600	0.815300	0.398200
C1821	C182	0.439000	0.872100	0.845300
C1831	C183	0.098100	0.313000	0.407800
C1841	C184	0.958000	0.373400	0.399500
C1851	C185	0.912000	0.817200	0.153230
C1861	C186	0.143800	0.986400	0.914800
C1871	C187	0.951100	0.958400	0.391800
C1881	C188	0.964600	0.217400	0.398000
C1891	C189	0.957400	0.116400	0.396700
C1901	C190	0.915000	0.882400	0.091300
C1911	C191	0.987500	0.664300	0.887400
C1921	C192	0.908200	0.858600	0.568000
C1931	C193	0.949900	0.533200	0.399100
C1941	C194	0.886200	0.871500	0.025200
C1951	C195	0.913600	0.550200	0.382200
C1961	C196	0.947500	0.742200	0.898100
C1971	C197	0.977700	0.615700	0.414000
C1981	C198	0.931700	0.923800	0.827300
C1991	C199	0.964400	0.275800	0.398300
C2001	C200	0.201700	0.791700	0.420200
C2011	C201	0.151800	0.847900	0.380900
C2021	C202	0.382000	0.794500	0.394800
C2031	C203	0.805800	0.447000	0.877200
C2041	C204	0.914100	0.827600	0.659200
C2051	C205	0.927700	0.913700	0.799000
C2061	C206	0.894100	0.448900	0.894000
C2071	C207	0.898400	0.936300	0.757800
C2081	C208	0.982500	0.561700	0.415600
C2091	C209	0.377200	0.974400	0.895300
C2101	C210	0.000300	0.303500	0.403100
C2111	C211	0.010100	0.360500	0.403700
C2121	C212	0.147500	0.936500	0.879400
C2131	C213	0.964500	0.173200	0.398300
C2141	C214	0.931800	0.837500	0.218400
C2151	C215	0.410600	0.997700	0.912700
C2161	C216	0.955900	0.431700	0.400500
C2171	C217	0.952200	0.875900	0.787300
C2181	C218	0.639100	0.789000	0.393600
C2191	C219	0.661500	0.813700	0.413200
C2201	C220	0.799500	0.955600	0.883100
C2211	C221	0.447600	0.945700	0.871100
C2221	C222	0.738300	0.953700	0.890100
C2231	C223	0.947200	0.935500	0.033600
C2241	C224	0.199600	0.994400	0.915100
C2251	C225	0.537000	0.800000	0.347600
C2261	C226	0.903300	0.867000	0.618100
C2271	C227	0.952900	0.581900	0.896300
C2281	C228	0.404800	0.789500	0.418500
C2291	C229	0.899800	0.944200	0.784400
C2301	C230	0.745100	0.792700	0.392600
C2311	C231	0.540600	0.789500	0.400000
C2321	C232	0.927200	0.930100	0.962000
C2331	C233	0.395700	0.948400	0.874400
C2341	C234	0.723500	0.819300	0.411000
C2351	C235	0.936300	0.905000	0.159600
C2361	C236	0.944900	0.862900	0.761000
C2371	C237	0.456900	0.785400	0.420600
C2381	C238	0.839400	0.341000	0.366600
C2391	C239	0.987700	0.716900	0.887700
C2401	C240	0.969300	0.041700	0.374200
C2411	C241	0.954700	0.946200	0.006000
C2421	C242	0.891400	0.874800	0.498800
C2431	C243	0.481000	0.969000	0.888500
C2441	C244	0.970000	0.096700	0.375700
C2451	C245	0.322200	0.977100	0.898700
C2461	C246	0.920500	0.894900	0.747800
C2471	C247	0.913200	0.821900	0.632200
C2481	C248	0.486300	0.786200	0.399000
C2491	C249	0.904700	0.397700	0.893300
C2501	C250	0.911100	0.604200	0.381300
C2511	C251	0.925600	0.856300	0.170020
C2521	C252	0.941700	0.635000	0.398140
C2531	C253	0.907000	0.714900	0.908200
C2541	C254	0.411400	0.795300	0.373200
C2551	C255	0.908000	0.875400	0.670400
C2561	C256	0.957600	0.993800	0.168200
C2571	C257	0.929200	0.848900	0.195700
C2581	C258	0.066200	0.826600	0.399600
C2591	C259	0.911000	0.853500	0.540700
C2601	C260	0.326900	0.798500	0.400400
C2611	C261	0.945700	0.807800	0.505100
C2621	C262	0.899200	0.918400	0.657000
C2631	C263	0.706700	0.924300	0.905200
C2641	C264	0.953300	0.279300	0.896800
C2651	C265	0.720300	0.766000	0.374900
C2661	C266	0.578200	0.971600	0.890700
C2671	C267	0.947100	0.637000	0.897600
C2681	C268	0.993900	0.418700	0.895400
C2691	C269	0.421000	0.037000	0.954200
C2701	C270	0.887000	0.880900	0.998300
C2711	C271	0.937800	0.693900	0.396760
C2721	C272	0.922600	0.736100	0.660100
C2731	C273	0.937900	0.821600	0.298450
C2741	C274	0.206900	0.840100	0.379100
C2751	C275	0.933700	0.832000	0.245320
C2761	C276	0.942900	0.065900	0.894500
C2771	C277	0.462500	0.995000	0.909400
C2781	C278	0.926100	0.831600	0.461500
C2791	C279	0.532900	0.972900	0.889200
C2801	C280	0.885700	0.006400	0.629600
C2811	C281	0.582800	0.796600	0.395000
C2821	C282	0.064400	0.948900	0.897900
C2831	C283	0.934500	0.807800	0.899600
C2841	C284	0.905600	0.793800	0.283160
C2851	C285	0.957600	0.327700	0.897100
C2861	C286	0.084500	0.407400	0.890900
C2871	C287	0.904900	0.826300	0.128090
C2881	C288	0.654700	0.930000	0.904000
C2891	C289	0.905400	0.865500	0.591700
C2901	C290	0.887200	0.884700	0.524500
C2911	C291	0.966000	0.864100	0.259600
C2921	C292	0.936300	0.819200	0.326040
C2931	C293	0.886600	0.735600	0.120100
C2941	C294	0.912300	0.355800	0.392200
C2951	C295	0.933500	0.485000	0.895300
C2961	C296	0.665700	0.994700	0.872800
C2971	C297	0.933200	0.913100	0.134400
C2981	C298	0.917700	0.291400	0.393500
C2991	C299	0.945500	0.096100	0.418300
C3001	C300	0.953300	0.017600	0.393900
C3011	C301	0.225200	0.968200	0.897200
C3021	C302	0.908700	0.878900	0.697300
C3031	C303	0.124400	0.825700	0.399600
C3041	C304	0.918000	0.874600	0.117720
C3051	C305	0.277800	0.976700	0.897100
C3061	C306	0.948400	0.202000	0.873900
C3071	C307	0.958300	0.204400	0.920100
C3081	C308	0.906900	0.662300	0.908000
C3091	C309	0.119600	0.955400	0.897500
C3101	C310	0.950600	0.475900	0.400100
C3111	C311	0.945900	0.122800	0.894800
C3121	C312	0.146900	0.802700	0.417100
O391	O39	0.962700	0.717500	0.413540
O401	O40	0.814100	0.923600	0.903500
O411	O41	0.890600	0.953700	0.615000
O421	O42	0.955700	0.044800	0.915440
O431	O43	0.051800	0.280600	0.407500
O441	O44	0.463000	0.919000	0.849500
O451	O45	0.924300	0.044600	0.875860
O461	O46	0.898300	0.861700	0.447720
O471	O47	0.819600	0.773600	0.372520
O481	O48	0.041300	0.918100	0.881010
O491	O49	0.480400	0.791400	0.348900
O501	O50	0.908600	0.788500	0.335870
O511	O51	0.824400	0.981000	0.871760
O521	O52	0.892100	0.901800	0.948210
O531	O53	0.921400	0.786800	0.672920
O541	O54	0.954600	0.799000	0.454160
O551	O55	0.853000	0.355000	0.393400
O561	O56	0.973200	0.939400	0.374540
O571	O57	0.043100	0.804600	0.416500
O581	O58	0.853100	0.479900	0.889500
O591	O59	0.035100	0.387700	0.895800
O601	O60	0.929100	0.935600	0.411320
O611	O61	0.040900	0.969600	0.913990
O621	O62	0.896400	0.787400	0.109880
O631	O63	0.825800	0.815100	0.409680
O641	O64	0.929300	0.931830	0.894630
O651	O65	0.907800	0.957900	0.836060
O661	O66	0.051500	0.853800	0.381030
O671	O67	0.389000	0.780000	0.443400
O681	O68	0.948600	0.943000	0.177640
O691	O69	0.958300	0.959200	0.954410
O701	O70	0.387300	0.021000	0.933500
O711	O71	0.909600	0.708300	0.379060
O721	O72	0.961500	0.895000	0.838970
O731	O73	0.977300	0.818400	0.883640
O741	O74	0.928200	0.826700	0.917400
O751	O75	0.970500	0.848000	0.337690
O761	O76	0.932380	0.824640	0.394100
Zn171	Zn17	0.809780	0.711370	0.205400
Zn181	Zn18	0.789140	0.609670	0.662180
Zn191	Zn19	0.784920	0.520570	0.702580
Zn201	Zn20	0.699350	0.605730	0.700750
Zn211	Zn21	0.814710	0.628560	0.162600
Zn221	Zn22	0.704510	0.523130	0.656650
Zn231	Zn23	0.718650	0.627770	0.200360
Zn241	Zn24	0.735330	0.714030	0.158860
C3131	C313	0.754300	0.596200	0.505500
C3141	C314	0.741600	0.914800	0.683300
C3151	C315	0.527000	0.522900	0.658600
C3161	C316	0.644000	0.695100	0.177200
C3171	C317	0.773300	0.475200	0.185100
C3181	C318	0.017200	0.583000	0.667500
C3191	C319	0.750700	0.577300	0.583800
C3201	C320	0.725800	0.579200	0.441100
C3211	C321	0.733200	0.672900	0.045100
C3221	C322	0.092300	0.545800	0.686600
C3231	C323	0.324600	0.710800	0.185900
C3241	C324	0.745300	0.958200	0.678000
C3251	C325	0.609300	0.557200	0.675600
C3261	C326	0.963700	0.593800	0.666900
C3271	C327	0.551300	0.550800	0.676400
C3281	C328	0.746700	0.613000	0.285000
C3291	C329	0.853500	0.713500	0.454600
C3301	C330	0.781200	0.882900	0.161000
C3311	C331	0.746000	0.604700	0.312500
C3321	C332	0.300800	0.737200	0.205100
C3331	C333	0.200000	0.528200	0.614600
C3341	C334	0.755100	0.118200	0.683400
C3351	C335	0.010700	0.545300	0.707900
C3361	C336	0.391100	0.533400	0.675700
C3371	C337	0.817100	0.461700	0.178400
C3381	C338	0.991700	0.662300	0.167600
C3391	C339	0.737700	0.571200	0.747100
C3401	C340	0.794300	0.684400	0.319400
C3411	C341	0.219700	0.707000	0.188700
C3421	C342	0.767600	0.635000	0.354800
C3431	C343	0.784800	0.573600	0.919100
C3441	C344	0.772500	0.217700	0.185000
C3451	C345	0.771200	0.641900	0.328600
C3461	C346	0.794500	0.652200	0.420600
C3471	C347	0.268700	0.526900	0.701600
C3481	C348	0.660100	0.523100	0.406900
C3491	C349	0.749300	0.172100	0.684000
C3501	C350	0.806800	0.887000	0.203600
C3511	C351	0.445800	0.539600	0.678100
C3521	C352	0.741000	0.585400	0.878300
C3531	C353	0.742700	0.861900	0.681600
C3541	C354	0.190200	0.533700	0.684700
C3551	C355	0.779600	0.661200	0.249600
C3561	C356	0.798900	0.691100	0.292900
C3571	C357	0.706500	0.835000	0.695200
C3581	C358	0.777100	0.836200	0.666900
C3591	C359	0.781700	0.803800	0.181300
C3601	C360	0.747100	0.585000	0.855500
C3611	C361	0.756500	0.610200	0.455400
C3621	C362	0.735800	0.436900	0.674300
C3631	C363	0.685000	0.198000	0.148700
C3641	C364	0.736600	0.679700	0.071500
C3651	C365	0.635000	0.088800	0.652200
C3661	C366	0.796800	0.060900	0.184500
C3671	C367	0.164300	0.711800	0.188400
C3681	C368	0.063900	0.701400	0.183700
C3691	C369	0.718100	0.548200	0.569900
C3701	C370	0.739000	0.756700	0.679400
C3711	C371	0.243500	0.680600	0.169500
C3721	C372	0.296000	0.682500	0.168100
C3731	C373	0.732900	0.182000	0.185600
C3741	C374	0.288000	0.599300	0.151800
C3751	C375	0.117700	0.704100	0.185200
C3761	C376	0.784300	0.615600	0.546800
C3771	C377	0.768100	0.628800	0.377000
C3781	C378	0.349300	0.528700	0.679400
C3791	C379	0.780000	0.541800	0.182700
C3801	C380	0.422100	0.708900	0.185300
C3811	C381	0.216400	0.530500	0.707200
C3821	C382	0.704900	0.608800	0.815900
C3831	C383	0.776300	0.553700	0.817200
C3841	C384	0.758000	0.632800	0.035600
C3851	C385	0.198000	0.760000	0.242700
C3861	C386	0.524600	0.571400	0.697100
C3871	C387	0.510200	0.738600	0.169400
C3881	C388	0.380200	0.705300	0.181700
C3891	C389	0.738000	0.573000	0.775100
C3901	C390	0.271700	0.511800	0.749300
C3911	C391	0.708200	0.607700	0.788100
C3921	C392	0.935100	0.575300	0.686300
C3931	C393	0.788600	0.647700	0.445800
C3941	C394	0.472000	0.564200	0.696500
C3951	C395	0.584000	0.691200	0.179400
C3961	C396	0.736500	0.270000	0.680400
C3971	C397	0.704700	0.782400	0.694100
C3981	C398	0.773000	0.662600	0.114620
C3991	C399	0.740600	0.698200	0.682200
C4001	C400	0.723100	0.547300	0.541400
C4011	C401	0.806100	0.939800	0.207200
C4021	C402	0.711800	0.090300	0.676100
C4031	C403	0.757100	0.605100	0.482500
C4041	C404	0.775900	0.547600	0.789500
C4051	C405	0.752000	0.589900	0.532200
C4061	C406	0.873300	0.531200	0.947800
C4071	C407	0.136900	0.541900	0.685300
C4081	C408	0.756800	0.013200	0.681200
C4091	C409	0.562000	0.732200	0.167800
C4101	C410	0.767100	0.652100	0.085100
C4111	C411	0.822200	0.202200	0.184300
C4121	C412	0.045300	0.667500	0.167500
C4131	C413	0.704900	0.626400	0.944800
C4141	C414	0.709400	0.344300	0.658800
C4151	C415	0.248300	0.735300	0.206500
C4161	C416	0.730300	0.374600	0.678300
C4171	C417	0.906400	0.678100	0.183420
C4181	C418	0.729700	0.585700	0.413600
C4191	C419	0.779400	0.018400	0.186600
C4201	C420	0.724400	0.401100	0.187500
C4211	C421	0.746800	0.595000	0.906800
C4221	C422	0.791600	0.610300	0.075100
C4231	C423	0.800100	0.041200	0.688500
C4241	C424	0.750800	0.623700	0.008300
C4251	C425	0.757300	0.300200	0.699900
C4261	C426	0.626400	0.656100	0.917000
C4271	C427	0.832300	0.150900	0.184100
C4281	C428	0.799300	0.093700	0.689600
C4291	C429	0.771900	0.378400	0.187500
C4301	C430	0.820700	0.398500	0.176600
C4311	C431	0.784000	0.583200	0.947300
C4321	C432	0.742900	0.130700	0.185400
C4331	C433	0.036100	0.557500	0.686900
C4341	C434	0.754200	0.352600	0.698900
C4351	C435	0.793000	0.861100	0.182100
C4361	C436	0.209800	0.533100	0.661900
C4371	C437	0.554100	0.656600	0.192500
C4381	C438	0.712500	0.292000	0.659900
C4391	C439	0.480300	0.704000	0.182500
C4401	C440	0.728800	0.457100	0.187200
C4411	C441	0.774100	0.654500	0.276900
C4421	C442	0.294800	0.530300	0.680100
C4431	C443	0.712600	0.037700	0.675000
C4441	C444	0.771100	0.316800	0.183700
C4451	C445	0.266300	0.530000	0.657400
C4461	C446	0.470500	0.519200	0.657200
C4471	C447	0.792600	0.115200	0.184700
C4481	C448	0.704600	0.616200	0.916500
C4491	C449	0.876900	0.586300	0.689500
C4501	C450	0.735600	0.213000	0.680300
C4511	C451	0.738600	0.577900	0.827700
C4521	C452	0.776900	0.940800	0.164400
C4531	C453	0.787600	0.604600	0.048000
C4541	C454	0.762400	0.621700	0.404000
C4551	C455	0.784100	0.613300	0.574400
C4561	C456	0.750200	0.615100	0.984900
C4571	C457	0.502300	0.663000	0.194100
C4581	C458	0.984500	0.716900	0.200700
C4591	C459	0.954900	0.552800	0.708300
C4601	C460	0.743700	0.609400	0.956700
C4611	C461	0.790800	0.963000	0.186100
C4621	C462	0.751000	0.572900	0.614400
C4631	C463	0.768800	0.274100	0.185100
C4641	C464	0.861000	0.979000	0.693000
C4651	C465	0.040500	0.724600	0.203900
C4661	C466	0.964100	0.686500	0.184100
C4671	C467	0.775200	0.783600	0.665800
O771	O77	0.777300	0.683500	0.666570
O781	O78	0.883600	0.705000	0.199600
O791	O79	0.800700	0.632100	0.125600
O801	O80	0.228100	0.775700	0.222700
O811	O81	0.803500	0.699000	0.241190
O821	O82	0.630100	0.534000	0.660470
O831	O83	0.852400	0.561400	0.703700
O841	O84	0.811600	0.556800	0.169940
O851	O85	0.828500	0.561200	0.962500
O861	O86	0.698000	0.559100	0.396200
O871	O87	0.672900	0.646000	0.904900
O881	O88	0.708300	0.450600	0.658810
O891	O89	0.766300	0.783300	0.162210
O901	O90	0.717100	0.540600	0.621900
O911	O91	0.707900	0.676700	0.693670
O921	O92	0.750500	0.697500	0.123030
O931	O93	0.658900	0.646200	0.177300
O941	O94	0.778300	0.601000	0.624760
O951	O95	0.663300	0.720400	0.160750
O961	O96	0.853400	0.032600	0.697100
O971	O97	0.889600	0.141600	0.178800
O981	O98	0.628000	0.584700	0.693590
O991	O99	0.668000	0.116400	0.674100
O1001	O100	0.884800	0.649900	0.167710
O1011	O101	0.744700	0.455000	0.696700
O1021	O102	0.818400	0.673700	0.464280
O1031	O103	0.862900	0.607800	0.668130
O1041	O104	0.735800	0.556500	0.189990
O1051	O105	0.752900	0.628800	0.233870
O1061	O106	0.686800	0.202000	0.176000
O1071	O107	0.769600	0.669990	0.181180
O1081	O108	0.800600	0.784200	0.201370
O1091	O109	0.317900	0.643600	0.151900
O1101	O110	0.706500	0.599000	0.736130
O1111	O111	0.765800	0.540600	0.737510
O1121	O112	0.741100	0.564140	0.680190
O1131	O113	0.298100	0.522600	0.726500
O1141	O114	0.180200	0.534800	0.639300
Zn251	Zn25	0.300650	0.394270	0.299250
Zn261	Zn26	0.210860	0.390330	0.337820
Zn271	Zn27	0.185290	0.371440	0.837400
Zn281	Zn28	0.190220	0.288630	0.794600
Zn291	Zn29	0.295490	0.476870	0.343350
Zn301	Zn30	0.264670	0.285970	0.841140
Zn311	Zn31	0.215080	0.479430	0.297420
Zn321	Zn32	0.281350	0.372230	0.799640
C4681	C468	0.064900	0.424700	0.313700
C4691	C469	0.295300	0.217600	0.305900
C4701	C470	0.215900	0.386700	0.425600
C4711	C471	0.237600	0.378300	0.596000
C4721	C472	0.519700	0.296000	0.817500
C4731	C473	0.274200	0.420800	0.558900
C4741	C474	0.259400	0.301800	0.317800
C4751	C475	0.208400	0.389700	0.924900
C4761	C476	0.093600	0.321900	0.816580
C4771	C477	0.835700	0.288200	0.811600
C4781	C478	0.252900	0.415000	0.144500
C4791	C479	0.365000	0.911200	0.347800
C4801	C480	0.705200	0.469700	0.319900
C4811	C481	0.959500	0.275400	0.796100
C4821	C482	0.863100	0.458100	0.314700
C4831	C483	0.989300	0.454700	0.292100
C4841	C484	0.271200	0.542900	0.812800
C4851	C485	0.179300	0.601500	0.823400
C4861	C486	0.215200	0.426400	0.080900
C4871	C487	0.207400	0.884800	0.815300
C4881	C488	0.231900	0.371200	0.623000
C4891	C489	0.751700	0.264700	0.793500
C4901	C490	0.232400	0.365000	0.645200
C4911	C491	0.220600	0.981600	0.813400
C4921	C492	0.242900	0.394900	0.517500
C4931	C493	0.287500	0.708000	0.340100
C4941	C494	0.177800	0.797800	0.815700
C4951	C495	0.228900	0.683200	0.816300
C4961	C496	0.211400	0.352300	0.554200
C4971	C497	0.228800	0.358100	0.671400
C4981	C498	0.438000	0.267800	0.832200
C4991	C499	0.882300	0.295900	0.814800
C5001	C500	0.270300	0.414300	0.586400
C5011	C501	0.276900	0.452700	0.458600
C5021	C502	0.201100	0.308900	0.707100
C5031	C503	0.650700	0.471300	0.320600
C5041	C504	0.182900	0.538300	0.821600
C5051	C505	0.936100	0.298600	0.816300
C5061	C506	0.244900	0.881800	0.316600
C5071	C507	0.199900	0.958800	0.311500
C5081	C508	0.266800	0.327100	0.954900
C5091	C509	0.528000	0.435800	0.303500
C5101	C510	0.577900	0.291100	0.814700
C5111	C511	0.254000	0.395300	0.687500
C5121	C512	0.015500	0.283100	0.799300
C5131	C513	0.473000	0.477100	0.341400
C5141	C514	0.675400	0.289200	0.814100
C5151	C515	0.275600	0.598900	0.812500
C5161	C516	0.356000	0.304900	0.822800
C5171	C517	0.146500	0.286500	0.545400
C5181	C518	0.207000	0.138900	0.817900
C5191	C519	0.264400	0.787000	0.319700
C5201	C520	0.790200	0.466900	0.338100
C5211	C521	0.497700	0.337000	0.805900
C5221	C522	0.699200	0.262800	0.794900
C5231	C523	0.254700	0.041800	0.322000
C5241	C524	0.250700	0.827900	0.316000
C5251	C525	0.267100	0.818000	0.814400
C5261	C526	0.228100	0.621600	0.812500
C5271	C527	0.800000	0.471800	0.385400
C5281	C528	0.232900	0.347900	0.914900
C5291	C529	0.295400	0.383800	0.083500
C5301	C530	0.222900	0.163800	0.333100
C5311	C531	0.249000	0.427100	0.385600
C5321	C532	0.281900	0.451800	0.430100
C5331	C533	0.295100	0.373600	0.055200
C5341	C534	0.315000	0.802000	0.851300
C5351	C535	0.475400	0.428600	0.302900
C5361	C536	0.954700	0.332500	0.832500
C5371	C537	0.373600	0.343900	0.083000
C5381	C538	0.264200	0.563100	0.325700
C5391	C539	0.205700	0.315600	0.680600
C5401	C540	0.243200	0.986800	0.318800
C5411	C541	0.704000	0.317500	0.831900
C5421	C542	0.215700	0.384400	0.453200
C5431	C543	0.269700	0.625400	0.321700
C5441	C544	0.733700	0.470000	0.342600
C5451	C545	0.489800	0.261400	0.830600
C5461	C546	0.288200	0.909700	0.323900
C5471	C547	0.218800	0.117100	0.839000
C5481	C548	0.529500	0.480800	0.342800
C5491	C549	0.257300	0.138100	0.318400
C5501	C550	0.261400	0.422100	0.172300
C5511	C551	0.036300	0.406200	0.333100
C5521	C552	0.731300	0.473100	0.298400
C5531	C553	0.728300	0.488200	0.250700
C5541	C554	0.223100	0.059200	0.835600
C5551	C555	0.295100	0.391200	0.184100
C5561	C556	0.339900	0.476900	0.593100
C5571	C557	0.249800	0.384900	0.015100
C5581	C558	0.220000	0.458200	0.817300
C5591	C559	0.963900	0.442500	0.313100
C5601	C560	0.554200	0.460400	0.321900
C5611	C561	0.712000	0.400700	0.848200
C5621	C562	0.126700	0.468800	0.052200
C5631	C563	0.220400	0.338800	0.750400
C5641	C564	0.783600	0.469500	0.292800
C5651	C565	0.248000	0.410100	0.467800
C5661	C566	0.253200	0.405000	0.093200
C5671	C567	0.242700	0.699800	0.300100
C5681	C568	0.205500	0.347800	0.579400
C5691	C569	0.619800	0.294700	0.818300
C5701	C570	0.982800	0.417000	0.332500
C5711	C571	0.193200	0.113000	0.796400
C5721	C572	0.291800	0.392300	0.211900
C5731	C573	0.212400	0.395400	0.952000
C5741	C574	0.223700	0.446300	0.182800
C5751	C575	0.193900	0.060200	0.792800
C5761	C576	0.756500	0.319400	0.830500
C5771	C577	0.802000	0.240000	0.757300
C5781	C578	0.416000	0.308800	0.820600
C5791	C579	0.227000	0.337400	0.885380
C5801	C580	0.123100	0.413700	0.310500
C5811	C581	0.045100	0.447200	0.291700
C5821	C582	0.261000	0.243300	0.320600
C5831	C583	0.227500	0.782300	0.815000
C5841	C584	0.445900	0.343400	0.807500
C5851	C585	0.243500	0.389800	0.544600
C5861	C586	0.263400	0.320300	0.928500
C5871	C587	0.224100	0.452400	0.210500
C5881	C588	0.216000	0.416800	0.052700
C5891	C589	0.167700	0.849100	0.815900
C5901	C590	0.293500	0.165000	0.304800
C5911	C591	0.242000	0.367200	0.964400
C5921	C592	0.231200	0.725900	0.814900
C5931	C593	0.287400	0.962300	0.325000
C5941	C594	0.035900	0.313500	0.815900
C5951	C595	0.263500	0.730000	0.319600
C5961	C596	0.253300	0.387000	0.715000
C5971	C597	0.608900	0.466600	0.324300
C5981	C598	0.203200	0.939100	0.815500
C5991	C599	0.249300	0.422700	0.416200
C6001	C600	0.907700	0.454200	0.313400
C6011	C601	0.139000	0.021000	0.307000
C6021	C602	0.218300	0.196200	0.818700
C6031	C603	0.780300	0.293000	0.811300
C6041	C604	0.262000	0.427000	0.224900
C6051	C605	0.249200	0.376300	0.991700
C6061	C606	0.225900	0.345500	0.723100
C6071	C607	0.245800	0.647400	0.301100
C6081	C608	0.008300	0.337700	0.832400
C6091	C609	0.245700	0.403800	0.494500
C6101	C610	0.809800	0.466300	0.315300
C6111	C611	0.200700	0.906300	0.310400
C6121	C612	0.262300	0.428800	0.252900
C6131	C613	0.259000	0.414600	0.121700
C6141	C614	0.257100	0.869300	0.814600
C6151	C615	0.258400	0.085200	0.316700
C6161	C616	0.390700	0.442800	0.324400
C6171	C617	0.256300	0.390600	0.043300
C6181	C618	0.226700	0.524800	0.814900
C6191	C619	0.209200	0.037000	0.813900
C6201	C620	0.448700	0.449200	0.323600
C6211	C621	0.224800	0.216400	0.334200
C6221	C622	0.290600	0.655700	0.341200
O1151	O115	0.249500	0.302500	0.876970
O1161	O116	0.115200	0.350100	0.832290
O1171	O117	0.233700	0.216700	0.837790
O1181	O118	0.293500	0.401000	0.263870
O1191	O119	0.336700	0.279600	0.839250
O1201	O120	0.372000	0.415300	0.306410
O1211	O121	0.291700	0.549400	0.341190
O1221	O122	0.116400	0.295000	0.800400
O1231	O123	0.327100	0.354000	0.095100
O1241	O124	0.230400	0.330010	0.818820
O1251	O125	0.181600	0.326300	0.535720
O1261	O126	0.282900	0.459400	0.378100
O1271	O127	0.221700	0.399000	0.375240
O1281	O128	0.110400	0.858400	0.821200
O1291	O129	0.771900	0.224300	0.777300
O1301	O130	0.332000	0.883600	0.325900
O1311	O131	0.819800	0.465200	0.360700
O1321	O132	0.255300	0.545000	0.303300
O1331	O133	0.137100	0.392200	0.331870
O1341	O134	0.147600	0.438600	0.296300
O1351	O135	0.146600	0.967400	0.302900
O1361	O136	0.196500	0.301000	0.758810
O1371	O137	0.199300	0.367900	0.874400
O1381	O138	0.258900	0.435860	0.319810
O1391	O139	0.188400	0.443200	0.830060
O1401	O140	0.222700	0.316500	0.333430
O1411	O141	0.302000	0.440900	0.603800
O1421	O142	0.313200	0.798000	0.824000
O1431	O143	0.341100	0.353800	0.822700
O1441	O144	0.682100	0.356400	0.848100
O1451	O145	0.234200	0.459400	0.262490
O1461	O146	0.199400	0.215800	0.798630
O1471	O147	0.369900	0.466000	0.339530
O1481	O148	0.247100	0.371200	0.766130
O1491	O149	0.701900	0.477400	0.273500
O1501	O150	0.171500	0.438800	0.037500
O1511	O151	0.292100	0.323300	0.306330
O1521	O152	0.264200	0.443500	0.810010
