data_UJAQUS_clean_PM
_symmetry_space_group_name_H-M	'P1'
_cell_length_a	11.109900
_cell_length_b	13.890900
_cell_length_c	22.485000
_cell_angle_alpha	90.000000
_cell_angle_beta	90.000000
_cell_angle_gamma	90.000000
_symmetry_Int_Tables_number 1

loop_
_symmetry_equiv_pos_as_xyz
'x,y,z'

loop_
_atom_site_label
_atom_site_type_symbol
_atom_site_fract_x
_atom_site_fract_y
_atom_site_fract_z
Zn11	Zn1	0.632110	0.140830	0.652990
Zn21	Zn2	0.865860	0.018740	0.561390
Zn31	Zn3	0.867890	0.859170	0.152990
Zn41	Zn4	0.634140	0.981260	0.061390
Zn51	Zn5	0.367890	0.640830	0.847010
Zn61	Zn6	0.134140	0.518740	0.938610
Zn71	Zn7	0.132110	0.359170	0.347010
Zn81	Zn8	0.365860	0.481260	0.438610
H11	H1	0.137900	0.519200	0.569700
H21	H2	0.910500	0.376000	0.680400
H31	H3	0.969800	0.277900	0.512700
H41	H4	0.907400	0.533000	0.717700
H51	H5	0.010200	0.471700	0.750900
H61	H6	0.123600	0.616500	0.763600
H71	H7	0.998400	0.619600	0.798700
H81	H8	0.928000	0.854000	0.681300
H91	H9	0.583300	0.852300	0.740400
H101	H10	0.807800	0.631000	0.781400
H111	H11	0.362100	0.480800	0.069700
H121	H12	0.589500	0.624000	0.180400
H131	H13	0.530200	0.722100	0.012700
H141	H14	0.592600	0.467000	0.217700
H151	H15	0.489800	0.528300	0.250900
H161	H16	0.376400	0.383500	0.263600
H171	H17	0.501600	0.380400	0.298700
H181	H18	0.572000	0.146000	0.181300
H191	H19	0.916700	0.147700	0.240400
H201	H20	0.692200	0.369000	0.281400
H211	H21	0.862100	0.019200	0.930300
H221	H22	0.089500	0.876000	0.819600
H231	H23	0.030200	0.777900	0.987300
H241	H24	0.092600	0.033000	0.782300
H251	H25	0.989800	0.971700	0.749100
H261	H26	0.876400	0.116500	0.736400
H271	H27	0.001600	0.119600	0.701300
H281	H28	0.072000	0.354000	0.818700
H291	H29	0.416700	0.352300	0.759600
H301	H30	0.192200	0.131000	0.718600
H311	H31	0.637900	0.980800	0.430300
H321	H32	0.410500	0.124000	0.319600
H331	H33	0.469800	0.222100	0.487300
H341	H34	0.407400	0.967000	0.282300
H351	H35	0.510200	0.028300	0.249100
H361	H36	0.623600	0.883500	0.236400
H371	H37	0.498400	0.880400	0.201300
H381	H38	0.428000	0.646000	0.318700
H391	H39	0.083300	0.647700	0.259600
H401	H40	0.307800	0.869000	0.218600
C11	C1	0.113500	0.417230	0.470910
C21	C2	0.059000	0.402500	0.531230
C31	C3	0.083800	0.467410	0.576540
C41	C4	0.029900	0.456900	0.631850
C51	C5	0.949100	0.382050	0.642850
C61	C6	0.926500	0.315990	0.597030
C71	C7	0.983000	0.325000	0.542610
C81	C8	0.842400	0.232220	0.606970
C91	C9	0.994700	0.529600	0.726380
C101	C10	0.035100	0.618720	0.758590
C111	C11	0.886700	0.736680	0.732340
C121	C12	0.865500	0.824390	0.703630
C131	C13	0.754200	0.868200	0.707520
C141	C14	0.660100	0.822600	0.737760
C151	C15	0.680200	0.732650	0.764000
C161	C16	0.793800	0.690900	0.762180
C171	C17	0.581600	0.678800	0.795680
C181	C18	0.741300	0.966100	0.680010
C191	C19	0.386500	0.582770	0.970910
C201	C20	0.441000	0.597500	0.031230
C211	C21	0.416200	0.532590	0.076540
C221	C22	0.470100	0.543100	0.131850
C231	C23	0.550900	0.617950	0.142850
C241	C24	0.573500	0.684010	0.097030
C251	C25	0.517000	0.675000	0.042610
C261	C26	0.657600	0.767780	0.106970
C271	C27	0.505300	0.470400	0.226380
C281	C28	0.464900	0.381280	0.258590
C291	C29	0.613300	0.263320	0.232340
C301	C30	0.634500	0.175610	0.203630
C311	C31	0.745800	0.131800	0.207520
C321	C32	0.839900	0.177400	0.237760
C331	C33	0.819800	0.267350	0.264000
C341	C34	0.706200	0.309100	0.262180
C351	C35	0.918400	0.321200	0.295680
C361	C36	0.758700	0.033900	0.180010
C371	C37	0.886500	0.917230	0.029090
C381	C38	0.941000	0.902500	0.968770
C391	C39	0.916200	0.967410	0.923460
C401	C40	0.970100	0.956900	0.868150
C411	C41	0.050900	0.882050	0.857150
C421	C42	0.073500	0.815990	0.902970
C431	C43	0.017000	0.825000	0.957390
C441	C44	0.157600	0.732220	0.893030
C451	C45	0.005300	0.029600	0.773620
C461	C46	0.964900	0.118720	0.741410
C471	C47	0.113300	0.236680	0.767660
C481	C48	0.134500	0.324390	0.796370
C491	C49	0.245800	0.368200	0.792480
C501	C50	0.339900	0.322600	0.762240
C511	C51	0.319800	0.232650	0.736000
C521	C52	0.206200	0.190900	0.737820
C531	C53	0.418400	0.178800	0.704320
C541	C54	0.258700	0.466100	0.819990
C551	C55	0.613500	0.082770	0.529090
C561	C56	0.559000	0.097500	0.468770
C571	C57	0.583800	0.032590	0.423460
C581	C58	0.529900	0.043100	0.368150
C591	C59	0.449100	0.117950	0.357150
C601	C60	0.426500	0.184010	0.402970
C611	C61	0.483000	0.175000	0.457390
C621	C62	0.342400	0.267780	0.393030
C631	C63	0.494700	0.970400	0.273620
C641	C64	0.535100	0.881280	0.241410
C651	C65	0.386700	0.763320	0.267660
C661	C66	0.365500	0.675610	0.296370
C671	C67	0.254200	0.631800	0.292480
C681	C68	0.160100	0.677400	0.262240
C691	C69	0.180200	0.767350	0.236000
C701	C70	0.293800	0.809100	0.237820
C711	C71	0.081600	0.821200	0.204320
C721	C72	0.241300	0.533900	0.319990
O11	O1	0.184700	0.486100	0.463960
O21	O2	0.079000	0.359460	0.430270
O31	O3	0.771000	0.233770	0.650880
O41	O4	0.849350	0.166090	0.568740
O51	O5	0.062100	0.525700	0.672630
O61	O6	0.003260	0.705050	0.727960
O71	O7	0.477330	0.718720	0.797760
O81	O8	0.605200	0.599760	0.818860
O91	O9	0.645000	0.012930	0.690600
O101	O10	0.827300	0.998420	0.650550
O111	O11	0.315300	0.513900	0.963960
O121	O12	0.421000	0.640540	0.930270
O131	O13	0.729000	0.766230	0.150880
O141	O14	0.650650	0.833910	0.068740
O151	O15	0.437900	0.474300	0.172630
O161	O16	0.496740	0.294950	0.227960
O171	O17	0.022670	0.281280	0.297760
O181	O18	0.894800	0.400240	0.318860
O191	O19	0.855000	0.987070	0.190600
O201	O20	0.672700	0.001580	0.150550
O211	O21	0.815300	0.986100	0.036040
O221	O22	0.921000	0.859460	0.069730
O231	O23	0.229000	0.733770	0.849120
O241	O24	0.150650	0.666090	0.931260
O251	O25	0.937900	0.025700	0.827370
O261	O26	0.996740	0.205050	0.772040
O271	O27	0.522670	0.218720	0.702240
O281	O28	0.394800	0.099760	0.681140
O291	O29	0.355000	0.512930	0.809400
O301	O30	0.172700	0.498420	0.849450
O311	O31	0.684700	0.013900	0.536040
O321	O32	0.579000	0.140540	0.569730
O331	O33	0.271000	0.266230	0.349120
O341	O34	0.349350	0.333910	0.431260
O351	O35	0.562100	0.974300	0.327370
O361	O36	0.503260	0.794950	0.272040
O371	O37	0.977330	0.781280	0.202240
O381	O38	0.105200	0.900240	0.181140
O391	O39	0.145000	0.487070	0.309400
O401	O40	0.327300	0.501580	0.349450
