data_UJAQEC_clean_PM
_symmetry_space_group_name_H-M	'P1'
_cell_length_a	10.206700
_cell_length_b	11.129700
_cell_length_c	13.925100
_cell_angle_alpha	112.663000
_cell_angle_beta	104.574000
_cell_angle_gamma	94.796000
_symmetry_Int_Tables_number 1

loop_
_symmetry_equiv_pos_as_xyz
'x,y,z'

loop_
_atom_site_label
_atom_site_type_symbol
_atom_site_fract_x
_atom_site_fract_y
_atom_site_fract_z
Co11	Co1	0.494300	0.136330	0.490980
Co21	Co2	0.613820	0.921760	0.302400
Co31	Co3	0.505700	0.863670	0.509020
Co41	Co4	0.386180	0.078240	0.697600
H11	H1	0.078500	0.966700	0.306500
H21	H2	0.799900	0.690700	0.025700
H31	H3	0.210600	0.730800	0.059200
H41	H4	0.140500	0.530000	0.935700
H51	H5	0.027100	0.452300	0.816900
H61	H6	0.211100	0.780900	0.774000
H71	H7	0.415800	0.532600	0.596900
H81	H8	0.220900	0.420300	0.778500
H91	H9	0.921500	0.033300	0.693500
H101	H10	0.200100	0.309300	0.974300
H111	H11	0.789400	0.269200	0.940800
H121	H12	0.859500	0.470000	0.064300
H131	H13	0.972900	0.547700	0.183100
H141	H14	0.788900	0.219100	0.226000
H151	H15	0.584200	0.467400	0.403100
H161	H16	0.779100	0.579700	0.221500
C11	C1	0.312300	0.930900	0.257800
C21	C2	0.165500	0.862100	0.191400
C31	C3	0.058500	0.898400	0.234800
C41	C4	0.922900	0.834900	0.173600
C51	C5	0.807300	0.871600	0.221000
C61	C6	0.892800	0.732900	0.068700
C71	C7	0.001000	0.694500	0.028600
C81	C8	0.137700	0.757900	0.088100
C91	C9	0.064700	0.539700	0.880500
C101	C10	0.200300	0.602800	0.782800
C111	C11	0.240500	0.698600	0.750100
C121	C12	0.323800	0.675000	0.682500
C131	C13	0.371000	0.781100	0.650600
C141	C14	0.362700	0.551900	0.646100
C151	C15	0.324200	0.457600	0.681300
C161	C16	0.372300	0.328200	0.646800
C171	C17	0.244500	0.483300	0.752000
C181	C18	0.687700	0.069100	0.742200
C191	C19	0.834500	0.137900	0.808600
C201	C20	0.941500	0.101600	0.765200
C211	C21	0.077100	0.165100	0.826400
C221	C22	0.192700	0.128400	0.779000
C231	C23	0.107200	0.267100	0.931300
C241	C24	0.999000	0.305500	0.971400
C251	C25	0.862300	0.242100	0.911900
C261	C26	0.935300	0.460300	0.119500
C271	C27	0.799700	0.397200	0.217200
C281	C28	0.759500	0.301400	0.249900
C291	C29	0.676200	0.325000	0.317500
C301	C30	0.629000	0.218900	0.349400
C311	C31	0.637300	0.448100	0.353900
C321	C32	0.675800	0.542400	0.318700
C331	C33	0.627700	0.671800	0.353200
C341	C34	0.755500	0.516700	0.248000
O11	O1	0.330500	0.037000	0.343470
O21	O2	0.406000	0.878800	0.224020
O31	O3	0.685500	0.844700	0.158880
O41	O4	0.836700	0.930700	0.324510
O51	O5	0.959900	0.587300	0.925570
O61	O6	0.113500	0.637400	0.847260
O71	O7	0.421300	0.746900	0.572310
O81	O8	0.356400	0.896400	0.704680
O91	O9	0.386300	0.280800	0.551160
O101	O10	0.394500	0.273600	0.710930
O111	O11	0.606800	0.989500	0.456460
O121	O12	0.669500	0.963000	0.656530
O131	O13	0.594000	0.121200	0.775980
O141	O14	0.314500	0.155300	0.841120
O151	O15	0.163300	0.069300	0.675490
O161	O16	0.040100	0.412700	0.074430
O171	O17	0.886500	0.362600	0.152740
O181	O18	0.578700	0.253100	0.427690
O191	O19	0.643600	0.103600	0.295320
O201	O20	0.613700	0.719200	0.448840
O211	O21	0.605500	0.726400	0.289070
O221	O22	0.393200	0.010500	0.543540
