data_UJECUI_clean_PM
_symmetry_space_group_name_H-M	'P1'
_cell_length_a	10.454000
_cell_length_b	10.454000
_cell_length_c	33.383000
_cell_angle_alpha	90.000000
_cell_angle_beta	90.000000
_cell_angle_gamma	120.000000
_symmetry_Int_Tables_number 1

loop_
_symmetry_equiv_pos_as_xyz
'x,y,z'

loop_
_atom_site_label
_atom_site_type_symbol
_atom_site_fract_x
_atom_site_fract_y
_atom_site_fract_z
S11	S1	0.474950	0.228910	0.876580
O11	O1	0.150320	0.174860	0.941530
O21	O2	0.310240	0.154700	0.980360
N11	N1	0.550800	0.400500	0.951090
H11	H1	0.538600	0.361400	0.976400
H21	H2	0.605200	0.501600	0.953400
C11	C1	0.403400	0.351100	0.889230
H31	H3	0.467100	0.450400	0.877600
H41	H4	0.302100	0.311100	0.878600
C21	C2	0.402800	0.359900	0.934810
H51	H5	0.382700	0.441100	0.942000
C31	C3	0.280700	0.217800	0.953420
S21	S2	0.141620	0.562240	0.209910
O31	O3	0.816990	0.508190	0.274860
O41	O4	0.976910	0.488030	0.313690
N21	N2	0.217470	0.733830	0.284420
H61	H6	0.205270	0.694730	0.309730
H71	H7	0.271870	0.834930	0.286730
C41	C4	0.070070	0.684430	0.222560
H81	H8	0.133770	0.783730	0.210930
H91	H9	0.968770	0.644430	0.211930
C51	C5	0.069470	0.693230	0.268140
H101	H10	0.049370	0.774430	0.275330
C61	C6	0.947370	0.551130	0.286750
S31	S3	0.808280	0.895580	0.543240
O51	O5	0.483650	0.841530	0.608200
O61	O6	0.643570	0.821370	0.647030
N31	N3	0.884130	0.067170	0.617760
H111	H11	0.871930	0.028070	0.643070
H121	H12	0.938530	0.168270	0.620070
C71	C7	0.736730	0.017770	0.555900
H131	H13	0.800430	0.117070	0.544270
H141	H14	0.635430	0.977770	0.545270
C81	C8	0.736130	0.026570	0.601480
H151	H15	0.716030	0.107770	0.608670
C91	C9	0.614030	0.884470	0.620090
S41	S4	0.771090	0.246040	0.876580
O71	O7	0.825140	0.975460	0.941530
O81	O8	0.845300	0.155540	0.980360
N41	N4	0.599500	0.150300	0.951090
H161	H16	0.638600	0.177200	0.976400
H171	H17	0.498400	0.103600	0.953400
C101	C10	0.648900	0.052300	0.889230
H181	H18	0.549600	0.016700	0.877600
H191	H19	0.688900	0.991000	0.878600
C111	C11	0.640100	0.042900	0.934810
H201	H20	0.558900	0.941600	0.942000
C121	C12	0.782200	0.062900	0.953420
S51	S5	0.437760	0.579370	0.209910
O91	O9	0.491810	0.308790	0.274860
O101	O10	0.511970	0.488870	0.313690
N51	N5	0.266170	0.483630	0.284420
H211	H21	0.305270	0.510530	0.309730
H221	H22	0.165070	0.436930	0.286730
C131	C13	0.315570	0.385630	0.222560
H231	H23	0.216270	0.350030	0.210930
H241	H24	0.355570	0.324330	0.211930
C141	C14	0.306770	0.376230	0.268140
H251	H25	0.225570	0.274930	0.275330
C151	C15	0.448870	0.396230	0.286750
S61	S6	0.104420	0.912710	0.543240
O111	O11	0.158470	0.642130	0.608200
O121	O12	0.178630	0.822210	0.647030
N61	N6	0.932830	0.816970	0.617760
H261	H26	0.971930	0.843870	0.643070
H271	H27	0.831730	0.770270	0.620070
C161	C16	0.982230	0.718970	0.555900
H281	H28	0.882930	0.683370	0.544270
H291	H29	0.022230	0.657670	0.545270
C171	C17	0.973430	0.709570	0.601480
H301	H30	0.892230	0.608270	0.608670
C181	C18	0.115530	0.729570	0.620090
S71	S7	0.753960	0.525050	0.876580
O131	O13	0.024540	0.849680	0.941530
O141	O14	0.844460	0.689760	0.980360
N71	N7	0.849700	0.449200	0.951090
H311	H31	0.822800	0.461400	0.976400
H321	H32	0.896400	0.394800	0.953400
C191	C19	0.947700	0.596600	0.889230
H331	H33	0.983300	0.532900	0.877600
H341	H34	0.009000	0.697900	0.878600
C201	C20	0.957100	0.597200	0.934810
H351	H35	0.058400	0.617300	0.942000
C211	C21	0.937100	0.719300	0.953420
S81	S8	0.420630	0.858380	0.209910
O151	O15	0.691210	0.183010	0.274860
O161	O16	0.511130	0.023090	0.313690
N81	N8	0.516370	0.782530	0.284420
H361	H36	0.489470	0.794730	0.309730
H371	H37	0.563070	0.728130	0.286730
C221	C22	0.614370	0.929930	0.222560
H381	H38	0.649970	0.866230	0.210930
H391	H39	0.675670	0.031230	0.211930
C231	C23	0.623770	0.930530	0.268140
H401	H40	0.725070	0.950630	0.275330
C241	C24	0.603770	0.052630	0.286750
S91	S9	0.087290	0.191720	0.543240
O171	O17	0.357870	0.516350	0.608200
O181	O18	0.177790	0.356430	0.647030
N91	N9	0.183030	0.115870	0.617760
H411	H41	0.156130	0.128070	0.643070
H421	H42	0.229730	0.061470	0.620070
C251	C25	0.281030	0.263270	0.555900
H431	H43	0.316630	0.199570	0.544270
H441	H44	0.342330	0.364570	0.545270
C261	C26	0.290430	0.263870	0.601480
H451	H45	0.391730	0.283970	0.608670
C271	C27	0.270430	0.385970	0.620090
S101	S10	0.228910	0.474950	0.123430
O191	O19	0.174860	0.150320	0.058470
O201	O20	0.154700	0.310240	0.019640
N101	N10	0.400500	0.550800	0.048910
H461	H46	0.361400	0.538600	0.023600
H471	H47	0.501600	0.605200	0.046600
C281	C28	0.351100	0.403400	0.110770
H481	H48	0.450400	0.467100	0.122400
H491	H49	0.311100	0.302100	0.121400
C291	C29	0.359900	0.402800	0.065190
H501	H50	0.441100	0.382700	0.058000
C301	C30	0.217800	0.280700	0.046580
S111	S11	0.895580	0.808280	0.456760
O211	O21	0.841530	0.483650	0.391800
O221	O22	0.821370	0.643570	0.352970
N111	N11	0.067170	0.884130	0.382240
H511	H51	0.028070	0.871930	0.356930
H521	H52	0.168270	0.938530	0.379930
C311	C31	0.017770	0.736730	0.444100
H531	H53	0.117070	0.800430	0.455730
H541	H54	0.977770	0.635430	0.454730
C321	C32	0.026570	0.736130	0.398520
H551	H55	0.107770	0.716030	0.391330
C331	C33	0.884470	0.614030	0.379910
S121	S12	0.562240	0.141620	0.790090
O231	O23	0.508190	0.816990	0.725140
O241	O24	0.488030	0.976910	0.686310
N121	N12	0.733830	0.217470	0.715580
H561	H56	0.694730	0.205270	0.690270
H571	H57	0.834930	0.271870	0.713270
C341	C34	0.684430	0.070070	0.777440
H581	H58	0.783730	0.133770	0.789070
H591	H59	0.644430	0.968770	0.788070
C351	C35	0.693230	0.069470	0.731860
H601	H60	0.774430	0.049370	0.724670
C361	C36	0.551130	0.947370	0.713250
S131	S13	0.246040	0.771090	0.123430
O251	O25	0.975460	0.825140	0.058470
O261	O26	0.155540	0.845300	0.019640
N131	N13	0.150300	0.599500	0.048910
H611	H61	0.177200	0.638600	0.023600
H621	H62	0.103600	0.498400	0.046600
C371	C37	0.052300	0.648900	0.110770
H631	H63	0.016700	0.549600	0.122400
H641	H64	0.991000	0.688900	0.121400
C381	C38	0.042900	0.640100	0.065190
H651	H65	0.941600	0.558900	0.058000
C391	C39	0.062900	0.782200	0.046580
S141	S14	0.912710	0.104420	0.456760
O271	O27	0.642130	0.158470	0.391800
O281	O28	0.822210	0.178630	0.352970
N141	N14	0.816970	0.932830	0.382240
H661	H66	0.843870	0.971930	0.356930
H671	H67	0.770270	0.831730	0.379930
C401	C40	0.718970	0.982230	0.444100
H681	H68	0.683370	0.882930	0.455730
H691	H69	0.657670	0.022230	0.454730
C411	C41	0.709570	0.973430	0.398520
H701	H70	0.608270	0.892230	0.391330
C421	C42	0.729570	0.115530	0.379910
S151	S15	0.579370	0.437760	0.790090
O291	O29	0.308790	0.491810	0.725140
O301	O30	0.488870	0.511970	0.686310
N151	N15	0.483630	0.266170	0.715580
H711	H71	0.510530	0.305270	0.690270
H721	H72	0.436930	0.165070	0.713270
C431	C43	0.385630	0.315570	0.777440
H731	H73	0.350030	0.216270	0.789070
H741	H74	0.324330	0.355570	0.788070
C441	C44	0.376230	0.306770	0.731860
H751	H75	0.274930	0.225570	0.724670
C451	C45	0.396230	0.448870	0.713250
S161	S16	0.525050	0.753960	0.123430
O311	O31	0.849680	0.024540	0.058470
O321	O32	0.689760	0.844460	0.019640
N161	N16	0.449200	0.849700	0.048910
H761	H76	0.461400	0.822800	0.023600
H771	H77	0.394800	0.896400	0.046600
C461	C46	0.596600	0.947700	0.110770
H781	H78	0.532900	0.983300	0.122400
H791	H79	0.697900	0.009000	0.121400
C471	C47	0.597200	0.957100	0.065190
H801	H80	0.617300	0.058400	0.058000
C481	C48	0.719300	0.937100	0.046580
S171	S17	0.191720	0.087290	0.456760
O331	O33	0.516350	0.357870	0.391800
O341	O34	0.356430	0.177790	0.352970
N171	N17	0.115870	0.183030	0.382240
H811	H81	0.128070	0.156130	0.356930
H821	H82	0.061470	0.229730	0.379930
C491	C49	0.263270	0.281030	0.444100
H831	H83	0.199570	0.316630	0.455730
H841	H84	0.364570	0.342330	0.454730
C501	C50	0.263870	0.290430	0.398520
H851	H85	0.283970	0.391730	0.391330
C511	C51	0.385970	0.270430	0.379910
S181	S18	0.858380	0.420630	0.790090
O351	O35	0.183010	0.691210	0.725140
O361	O36	0.023090	0.511130	0.686310
N181	N18	0.782530	0.516370	0.715580
H861	H86	0.794730	0.489470	0.690270
H871	H87	0.728130	0.563070	0.713270
C521	C52	0.929930	0.614370	0.777440
H881	H88	0.866230	0.649970	0.789070
H891	H89	0.031230	0.675670	0.788070
C531	C53	0.930530	0.623770	0.731860
H901	H90	0.950630	0.725070	0.724670
C541	C54	0.052630	0.603770	0.713250
La11	La1	0.000000	0.000000	0.000000
La21	La2	0.666670	0.333330	0.333330
La31	La3	0.333330	0.666670	0.666670
Co11	Co1	0.666670	0.333330	0.918780
Co21	Co2	0.333330	0.666670	0.252110
Co31	Co3	0.000000	0.000000	0.585440
Co41	Co4	0.333330	0.666670	0.081220
Co51	Co5	0.000000	0.000000	0.414560
Co61	Co6	0.666670	0.333330	0.747890
Co71	Co7	0.666670	0.333330	0.833330
Co81	Co8	0.000000	0.000000	0.500000
Co91	Co9	0.333330	0.666670	0.166670
