data_UJEFOE_clean_PM
_symmetry_space_group_name_H-M	'P1'
_cell_length_a	8.256800
_cell_length_b	12.352400
_cell_length_c	17.501000
_cell_angle_alpha	97.382800
_cell_angle_beta	90.000000
_cell_angle_gamma	109.525000
_symmetry_Int_Tables_number 1

loop_
_symmetry_equiv_pos_as_xyz
'x,y,z'

loop_
_atom_site_label
_atom_site_type_symbol
_atom_site_fract_x
_atom_site_fract_y
_atom_site_fract_z
Yb11	Yb1	0.314690	0.000000	0.750000
Yb21	Yb2	0.685310	0.000000	0.250000
Yb31	Yb3	0.500000	0.000000	0.000000
Yb41	Yb4	0.500000	0.000000	0.500000
H11	H1	0.830000	0.505400	0.735000
H21	H2	0.003300	0.697200	0.762100
H31	H3	0.244000	0.622400	0.940300
H41	H4	0.143600	0.421200	0.974900
H51	H5	0.949400	0.234200	0.956400
H61	H6	0.726500	0.305000	0.771200
H71	H7	0.383200	0.431000	0.132600
H81	H8	0.301900	0.242400	0.072200
H91	H9	0.476700	0.357200	0.870200
H101	H10	0.324600	0.494600	0.765000
H111	H11	0.306100	0.302800	0.737900
H121	H12	0.621600	0.377600	0.559700
H131	H13	0.722400	0.578800	0.525100
H141	H14	0.715200	0.765800	0.543600
H151	H15	0.421500	0.695000	0.728800
H161	H16	0.952200	0.569000	0.367400
H171	H17	0.059500	0.757600	0.427800
H181	H18	0.119500	0.642800	0.629800
H191	H19	0.170000	0.494600	0.265000
H201	H20	0.996700	0.302800	0.237900
H211	H21	0.756000	0.377600	0.059700
H221	H22	0.856400	0.578800	0.025100
H231	H23	0.050600	0.765800	0.043600
H241	H24	0.273500	0.695000	0.228800
H251	H25	0.616800	0.569000	0.867400
H261	H26	0.698100	0.757600	0.927800
H271	H27	0.523300	0.642800	0.129800
H281	H28	0.675400	0.505400	0.235000
H291	H29	0.693900	0.697200	0.262100
H301	H30	0.378400	0.622400	0.440300
H311	H31	0.277600	0.421200	0.474900
H321	H32	0.284800	0.234200	0.456400
H331	H33	0.578500	0.305000	0.271200
H341	H34	0.047800	0.431000	0.632600
H351	H35	0.940500	0.242400	0.572200
H361	H36	0.880500	0.357200	0.370200
C11	C1	0.253700	0.801400	0.871100
C21	C2	0.681800	0.135200	0.853300
C31	C3	0.923000	0.445800	0.824600
C41	C4	0.911200	0.528800	0.777500
C51	C5	0.015200	0.641800	0.792800
C61	C6	0.141800	0.677200	0.854600
C71	C7	0.158150	0.598100	0.899600
C81	C8	0.048800	0.480400	0.886300
C91	C9	0.057600	0.398800	0.934300
C101	C10	0.943300	0.287600	0.923000
C111	C11	0.817000	0.252200	0.862400
C121	C12	0.809200	0.329800	0.813100
C131	C13	0.332500	0.160400	0.924200
C141	C14	0.484700	0.510200	0.039900
C151	C15	0.403900	0.416400	0.079500
C161	C16	0.354100	0.304800	0.043800
C171	C17	0.380700	0.281800	0.963300
C181	C18	0.459200	0.372600	0.923600
C191	C19	0.452300	0.198600	0.628900
C201	C20	0.546600	0.864800	0.646700
C211	C21	0.477200	0.554200	0.675400
C221	C22	0.382400	0.471200	0.722500
C231	C23	0.373400	0.358200	0.707200
C241	C24	0.464600	0.322800	0.645400
C251	C25	0.560050	0.401900	0.600400
C261	C26	0.568400	0.519600	0.613700
C271	C27	0.658800	0.601200	0.565700
C281	C28	0.655700	0.712400	0.577000
C291	C29	0.564800	0.747800	0.637600
C301	C30	0.479400	0.670200	0.686900
C311	C31	0.172100	0.839600	0.575800
C321	C32	0.974500	0.489800	0.460100
C331	C33	0.987500	0.583600	0.420500
C341	C34	0.049300	0.695200	0.456200
C351	C35	0.098900	0.718200	0.536700
C361	C36	0.086600	0.627400	0.576400
C371	C37	0.746300	0.198600	0.128900
C381	C38	0.318200	0.864800	0.146700
C391	C39	0.077000	0.554200	0.175400
C401	C40	0.088800	0.471200	0.222500
C411	C41	0.984800	0.358200	0.207200
C421	C42	0.858200	0.322800	0.145400
C431	C43	0.841850	0.401900	0.100400
C441	C44	0.951200	0.519600	0.113700
C451	C45	0.942400	0.601200	0.065700
C461	C46	0.056700	0.712400	0.077000
C471	C47	0.183000	0.747800	0.137600
C481	C48	0.190800	0.670200	0.186900
C491	C49	0.667500	0.839600	0.075800
C501	C50	0.515300	0.489800	0.960100
C511	C51	0.596100	0.583600	0.920500
C521	C52	0.645900	0.695200	0.956200
C531	C53	0.619300	0.718200	0.036700
C541	C54	0.540800	0.627400	0.076400
C551	C55	0.547700	0.801400	0.371100
C561	C56	0.453400	0.135200	0.353300
C571	C57	0.522800	0.445800	0.324600
C581	C58	0.617600	0.528800	0.277500
C591	C59	0.626600	0.641800	0.292800
C601	C60	0.535400	0.677200	0.354600
C611	C61	0.439950	0.598100	0.399600
C621	C62	0.431600	0.480400	0.386300
C631	C63	0.341200	0.398800	0.434300
C641	C64	0.344300	0.287600	0.423000
C651	C65	0.435200	0.252200	0.362400
C661	C66	0.520600	0.329800	0.313100
C671	C67	0.827900	0.160400	0.424200
C681	C68	0.025500	0.510200	0.539900
C691	C69	0.012500	0.416400	0.579500
C701	C70	0.950700	0.304800	0.543800
C711	C71	0.901100	0.281800	0.463300
C721	C72	0.913400	0.372600	0.423600
O11	O1	0.237680	0.869560	0.827300
O21	O2	0.358570	0.832540	0.929000
O31	O3	0.590180	0.102960	0.792500
O41	O4	0.664440	0.074280	0.907900
O51	O5	0.311810	0.140820	0.852450
O61	O6	0.314150	0.080300	0.966840
O71	O7	0.368120	0.130440	0.672700
O81	O8	0.526030	0.167460	0.571000
O91	O9	0.487220	0.897040	0.707500
O101	O10	0.590160	0.925720	0.592100
O111	O11	0.170990	0.859180	0.647550
O121	O12	0.233850	0.919700	0.533160
O131	O13	0.762320	0.130440	0.172700
O141	O14	0.641430	0.167460	0.071000
O151	O15	0.409820	0.897040	0.207500
O161	O16	0.335560	0.925720	0.092100
O171	O17	0.688190	0.859180	0.147550
O181	O18	0.685850	0.919700	0.033160
O191	O19	0.631880	0.869560	0.327300
O201	O20	0.473970	0.832540	0.429000
O211	O21	0.512780	0.102960	0.292500
O221	O22	0.409840	0.074280	0.407900
O231	O23	0.829010	0.140820	0.352450
O241	O24	0.766150	0.080300	0.466840
