data_UJIPAG_clean_PM
_symmetry_space_group_name_H-M	'P1'
_cell_length_a	16.718000
_cell_length_b	17.130000
_cell_length_c	17.170000
_cell_angle_alpha	90.000000
_cell_angle_beta	90.000000
_cell_angle_gamma	90.000000
_symmetry_Int_Tables_number 1

loop_
_symmetry_equiv_pos_as_xyz
'x,y,z'

loop_
_atom_site_label
_atom_site_type_symbol
_atom_site_fract_x
_atom_site_fract_y
_atom_site_fract_z
Er11	Er1	0.590440	0.914580	0.310160
Er21	Er2	0.415860	0.039850	0.348930
Er31	Er3	0.404060	0.886490	0.184760
Er41	Er4	0.533740	0.060270	0.155250
S11	S1	0.524600	0.112450	0.516820
S21	S2	0.413160	0.206490	0.228570
S31	S3	0.618310	0.985810	0.975220
S41	S4	0.733710	0.034060	0.217340
O11	O1	0.502100	0.110900	0.433800
O21	O2	0.448870	0.910400	0.309490
O31	O3	0.569800	0.040400	0.536700
O41	O4	0.408720	0.023300	0.210990
O51	O5	0.575700	0.179700	0.532600
O61	O6	0.537660	0.928100	0.181360
O71	O7	0.451400	0.116700	0.564700
O81	O8	0.541860	0.039750	0.294510
O91	O9	0.391300	0.166000	0.301700
O101	O10	0.493400	0.179600	0.203600
O111	O11	0.354500	0.190100	0.167900
O121	O12	0.418700	0.291100	0.243000
O131	O13	0.610300	0.997100	0.059100
O141	O14	0.697000	0.953300	0.957400
O151	O15	0.555800	0.932300	0.947400
O161	O16	0.607300	0.062600	0.936700
O171	O17	0.704100	0.959900	0.249300
O181	O18	0.667100	0.081300	0.188200
O191	O19	0.789600	0.016700	0.153200
O201	O20	0.775900	0.078900	0.277600
Er51	Er5	0.909560	0.585420	0.310160
Er61	Er6	0.084140	0.460150	0.348930
Er71	Er7	0.095940	0.613510	0.184760
Er81	Er8	0.966260	0.439730	0.155250
S51	S5	0.975400	0.387550	0.516820
S61	S6	0.086840	0.293510	0.228570
S71	S7	0.881690	0.514190	0.975220
S81	S8	0.766290	0.465940	0.217340
O211	O21	0.997900	0.389100	0.433800
O221	O22	0.051130	0.589600	0.309490
O231	O23	0.930200	0.459600	0.536700
O241	O24	0.091280	0.476700	0.210990
O251	O25	0.924300	0.320300	0.532600
O261	O26	0.962340	0.571900	0.181360
O271	O27	0.048600	0.383300	0.564700
O281	O28	0.958140	0.460250	0.294510
O291	O29	0.108700	0.334000	0.301700
O301	O30	0.006600	0.320400	0.203600
O311	O31	0.145500	0.309900	0.167900
O321	O32	0.081300	0.208900	0.243000
O331	O33	0.889700	0.502900	0.059100
O341	O34	0.803000	0.546700	0.957400
O351	O35	0.944200	0.567700	0.947400
O361	O36	0.892700	0.437400	0.936700
O371	O37	0.795900	0.540100	0.249300
O381	O38	0.832900	0.418700	0.188200
O391	O39	0.710400	0.483300	0.153200
O401	O40	0.724100	0.421100	0.277600
Er91	Er9	0.409560	0.414580	0.189840
Er101	Er10	0.584140	0.539850	0.151070
Er111	Er11	0.595940	0.386490	0.315240
Er121	Er12	0.466260	0.560270	0.344750
S91	S9	0.475400	0.612450	0.983180
S101	S10	0.586840	0.706490	0.271430
S111	S11	0.381690	0.485810	0.524780
S121	S12	0.266290	0.534060	0.282660
O411	O41	0.497900	0.610900	0.066200
O421	O42	0.551130	0.410400	0.190510
O431	O43	0.430200	0.540400	0.963300
O441	O44	0.591280	0.523300	0.289010
O451	O45	0.424300	0.679700	0.967400
O461	O46	0.462340	0.428100	0.318640
O471	O47	0.548600	0.616700	0.935300
O481	O48	0.458140	0.539750	0.205490
O491	O49	0.608700	0.666000	0.198300
O501	O50	0.506600	0.679600	0.296400
O511	O51	0.645500	0.690100	0.332100
O521	O52	0.581300	0.791100	0.257000
O531	O53	0.389700	0.497100	0.440900
O541	O54	0.303000	0.453300	0.542600
O551	O55	0.444200	0.432300	0.552600
O561	O56	0.392700	0.562600	0.563300
O571	O57	0.295900	0.459900	0.250700
O581	O58	0.332900	0.581300	0.311800
O591	O59	0.210400	0.516700	0.346800
O601	O60	0.224100	0.578900	0.222400
Er131	Er13	0.090440	0.085420	0.189840
Er141	Er14	0.915860	0.960150	0.151070
Er151	Er15	0.904060	0.113510	0.315240
Er161	Er16	0.033740	0.939730	0.344750
S131	S13	0.024600	0.887550	0.983180
S141	S14	0.913160	0.793510	0.271430
S151	S15	0.118310	0.014190	0.524780
S161	S16	0.233710	0.965940	0.282660
O611	O61	0.002100	0.889100	0.066200
O621	O62	0.948870	0.089600	0.190510
O631	O63	0.069800	0.959600	0.963300
O641	O64	0.908720	0.976700	0.289010
O651	O65	0.075700	0.820300	0.967400
O661	O66	0.037660	0.071900	0.318640
O671	O67	0.951400	0.883300	0.935300
O681	O68	0.041860	0.960250	0.205490
O691	O69	0.891300	0.834000	0.198300
O701	O70	0.993400	0.820400	0.296400
O711	O71	0.854500	0.809900	0.332100
O721	O72	0.918700	0.708900	0.257000
O731	O73	0.110300	0.002900	0.440900
O741	O74	0.197000	0.046700	0.542600
O751	O75	0.055800	0.067700	0.552600
O761	O76	0.107300	0.937400	0.563300
O771	O77	0.204100	0.040100	0.250700
O781	O78	0.167100	0.918700	0.311800
O791	O79	0.289600	0.983300	0.346800
O801	O80	0.275900	0.921100	0.222400
Er171	Er17	0.409560	0.085420	0.689840
Er181	Er18	0.584140	0.960150	0.651070
Er191	Er19	0.595940	0.113510	0.815240
Er201	Er20	0.466260	0.939730	0.844750
S171	S17	0.475400	0.887550	0.483180
S181	S18	0.586840	0.793510	0.771430
S191	S19	0.381690	0.014190	0.024780
S201	S20	0.266290	0.965940	0.782660
O811	O81	0.497900	0.889100	0.566200
O821	O82	0.551130	0.089600	0.690510
O831	O83	0.430200	0.959600	0.463300
O841	O84	0.591280	0.976700	0.789010
O851	O85	0.424300	0.820300	0.467400
O861	O86	0.462340	0.071900	0.818640
O871	O87	0.548600	0.883300	0.435300
O881	O88	0.458140	0.960250	0.705490
O891	O89	0.608700	0.834000	0.698300
O901	O90	0.506600	0.820400	0.796400
O911	O91	0.645500	0.809900	0.832100
O921	O92	0.581300	0.708900	0.757000
O931	O93	0.389700	0.002900	0.940900
O941	O94	0.303000	0.046700	0.042600
O951	O95	0.444200	0.067700	0.052600
O961	O96	0.392700	0.937400	0.063300
O971	O97	0.295900	0.040100	0.750700
O981	O98	0.332900	0.918700	0.811800
O991	O99	0.210400	0.983300	0.846800
O1001	O100	0.224100	0.921100	0.722400
Er211	Er21	0.090440	0.414580	0.689840
Er221	Er22	0.915860	0.539850	0.651070
Er231	Er23	0.904060	0.386490	0.815240
Er241	Er24	0.033740	0.560270	0.844750
S211	S21	0.024600	0.612450	0.483180
S221	S22	0.913160	0.706490	0.771430
S231	S23	0.118310	0.485810	0.024780
S241	S24	0.233710	0.534060	0.782660
O1011	O101	0.002100	0.610900	0.566200
O1021	O102	0.948870	0.410400	0.690510
O1031	O103	0.069800	0.540400	0.463300
O1041	O104	0.908720	0.523300	0.789010
O1051	O105	0.075700	0.679700	0.467400
O1061	O106	0.037660	0.428100	0.818640
O1071	O107	0.951400	0.616700	0.435300
O1081	O108	0.041860	0.539750	0.705490
O1091	O109	0.891300	0.666000	0.698300
O1101	O110	0.993400	0.679600	0.796400
O1111	O111	0.854500	0.690100	0.832100
O1121	O112	0.918700	0.791100	0.757000
O1131	O113	0.110300	0.497100	0.940900
O1141	O114	0.197000	0.453300	0.042600
O1151	O115	0.055800	0.432300	0.052600
O1161	O116	0.107300	0.562600	0.063300
O1171	O117	0.204100	0.459900	0.750700
O1181	O118	0.167100	0.581300	0.811800
O1191	O119	0.289600	0.516700	0.846800
O1201	O120	0.275900	0.578900	0.722400
Er251	Er25	0.590440	0.585420	0.810160
Er261	Er26	0.415860	0.460150	0.848930
Er271	Er27	0.404060	0.613510	0.684760
Er281	Er28	0.533740	0.439730	0.655250
S251	S25	0.524600	0.387550	0.016820
S261	S26	0.413160	0.293510	0.728570
S271	S27	0.618310	0.514190	0.475220
S281	S28	0.733710	0.465940	0.717340
O1211	O121	0.502100	0.389100	0.933800
O1221	O122	0.448870	0.589600	0.809490
O1231	O123	0.569800	0.459600	0.036700
O1241	O124	0.408720	0.476700	0.710990
O1251	O125	0.575700	0.320300	0.032600
O1261	O126	0.537660	0.571900	0.681360
O1271	O127	0.451400	0.383300	0.064700
O1281	O128	0.541860	0.460250	0.794510
O1291	O129	0.391300	0.334000	0.801700
O1301	O130	0.493400	0.320400	0.703600
O1311	O131	0.354500	0.309900	0.667900
O1321	O132	0.418700	0.208900	0.743000
O1331	O133	0.610300	0.502900	0.559100
O1341	O134	0.697000	0.546700	0.457400
O1351	O135	0.555800	0.567700	0.447400
O1361	O136	0.607300	0.437400	0.436700
O1371	O137	0.704100	0.540100	0.749300
O1381	O138	0.667100	0.418700	0.688200
O1391	O139	0.789600	0.483300	0.653200
O1401	O140	0.775900	0.421100	0.777600
Er291	Er29	0.909560	0.914580	0.810160
Er301	Er30	0.084140	0.039850	0.848930
Er311	Er31	0.095940	0.886490	0.684760
Er321	Er32	0.966260	0.060270	0.655250
S291	S29	0.975400	0.112450	0.016820
S301	S30	0.086840	0.206490	0.728570
S311	S31	0.881690	0.985810	0.475220
S321	S32	0.766290	0.034060	0.717340
O1411	O141	0.997900	0.110900	0.933800
O1421	O142	0.051130	0.910400	0.809490
O1431	O143	0.930200	0.040400	0.036700
O1441	O144	0.091280	0.023300	0.710990
O1451	O145	0.924300	0.179700	0.032600
O1461	O146	0.962340	0.928100	0.681360
O1471	O147	0.048600	0.116700	0.064700
O1481	O148	0.958140	0.039750	0.794510
O1491	O149	0.108700	0.166000	0.801700
O1501	O150	0.006600	0.179600	0.703600
O1511	O151	0.145500	0.190100	0.667900
O1521	O152	0.081300	0.291100	0.743000
O1531	O153	0.889700	0.997100	0.559100
O1541	O154	0.803000	0.953300	0.457400
O1551	O155	0.944200	0.932300	0.447400
O1561	O156	0.892700	0.062600	0.436700
O1571	O157	0.795900	0.959900	0.749300
O1581	O158	0.832900	0.081300	0.688200
O1591	O159	0.710400	0.016700	0.653200
O1601	O160	0.724100	0.078900	0.777600
