data_UJOJIO_clean_PM
_symmetry_space_group_name_H-M	'P1'
_cell_length_a	13.516000
_cell_length_b	13.516000
_cell_length_c	8.053300
_cell_angle_alpha	90.000000
_cell_angle_beta	90.000000
_cell_angle_gamma	120.000000
_symmetry_Int_Tables_number 1

loop_
_symmetry_equiv_pos_as_xyz
'x,y,z'

loop_
_atom_site_label
_atom_site_type_symbol
_atom_site_fract_x
_atom_site_fract_y
_atom_site_fract_z
Mn11	Mn1	0.301630	0.338410	0.545180
O11	O1	0.229040	0.181400	0.405500
C11	C1	0.534500	0.322710	0.548600
C21	C2	0.353700	0.560000	0.777100
O21	O2	0.244830	0.058130	0.245900
C31	C3	0.267100	0.158000	0.279300
N11	N1	0.347300	0.209000	0.999600
H11	H1	0.411800	0.257000	0.944800
H21	H2	0.287000	0.199000	0.939000
C41	C4	0.345800	0.255000	0.163300
H31	H3	0.423200	0.287200	0.208500
N21	N2	0.366300	0.428090	0.302600
H41	H4	0.348600	0.483900	0.294800
H51	H5	0.442900	0.461300	0.301400
C51	C5	0.320100	0.353300	0.155600
H61	H6	0.353700	0.397800	0.055900
H71	H7	0.238100	0.322300	0.150200
N31	N3	0.455400	0.321300	0.603700
N41	N4	0.367800	0.500000	0.691300
Mn21	Mn2	0.661590	0.963220	0.545180
O31	O3	0.818600	0.047640	0.405500
C61	C6	0.677290	0.211790	0.548600
C71	C7	0.440000	0.793700	0.777100
O41	O4	0.941870	0.186700	0.245900
C81	C8	0.842000	0.109100	0.279300
N51	N5	0.791000	0.138300	0.999600
H81	H8	0.743000	0.154800	0.944800
H91	H9	0.801000	0.088000	0.939000
C91	C9	0.745000	0.090800	0.163300
H101	H10	0.712800	0.136000	0.208500
N61	N6	0.571910	0.938210	0.302600
H111	H11	0.516100	0.864700	0.294800
H121	H12	0.538700	0.981600	0.301400
C101	C10	0.646700	0.966800	0.155600
H131	H13	0.602200	0.955900	0.055900
H141	H14	0.677700	0.915800	0.150200
N71	N7	0.678700	0.134100	0.603700
N81	N8	0.500000	0.867800	0.691300
Mn31	Mn3	0.036780	0.698370	0.545180
O51	O5	0.952360	0.770960	0.405500
C111	C11	0.788210	0.465500	0.548600
C121	C12	0.206300	0.646300	0.777100
O61	O6	0.813300	0.755170	0.245900
C131	C13	0.890900	0.732900	0.279300
N91	N9	0.861700	0.652700	0.999600
H151	H15	0.845200	0.588200	0.944800
H161	H16	0.912000	0.713000	0.939000
C141	C14	0.909200	0.654200	0.163300
H171	H17	0.864000	0.576800	0.208500
N101	N10	0.061790	0.633700	0.302600
H181	H18	0.135300	0.651400	0.294800
H191	H19	0.018400	0.557100	0.301400
C151	C15	0.033200	0.679900	0.155600
H201	H20	0.044100	0.646300	0.055900
H211	H21	0.084200	0.761900	0.150200
N111	N11	0.865900	0.544600	0.603700
N121	N12	0.132200	0.632200	0.691300
Mn41	Mn4	0.698370	0.661590	0.045180
O71	O7	0.770960	0.818600	0.905500
C161	C16	0.465500	0.677290	0.048600
C171	C17	0.646300	0.440000	0.277100
O81	O8	0.755170	0.941870	0.745900
C181	C18	0.732900	0.842000	0.779300
N131	N13	0.652700	0.791000	0.499600
H221	H22	0.588200	0.743000	0.444800
H231	H23	0.713000	0.801000	0.439000
C191	C19	0.654200	0.745000	0.663300
H241	H24	0.576800	0.712800	0.708500
N141	N14	0.633700	0.571910	0.802600
H251	H25	0.651400	0.516100	0.794800
H261	H26	0.557100	0.538700	0.801400
C201	C20	0.679900	0.646700	0.655600
H271	H27	0.646300	0.602200	0.555900
H281	H28	0.761900	0.677700	0.650200
N151	N15	0.544600	0.678700	0.103700
N161	N16	0.632200	0.500000	0.191300
Mn51	Mn5	0.338410	0.036780	0.045180
O91	O9	0.181400	0.952360	0.905500
C211	C21	0.322710	0.788210	0.048600
C221	C22	0.560000	0.206300	0.277100
O101	O10	0.058130	0.813300	0.745900
C231	C23	0.158000	0.890900	0.779300
N171	N17	0.209000	0.861700	0.499600
H291	H29	0.257000	0.845200	0.444800
H301	H30	0.199000	0.912000	0.439000
C241	C24	0.255000	0.909200	0.663300
H311	H31	0.287200	0.864000	0.708500
N181	N18	0.428090	0.061790	0.802600
H321	H32	0.483900	0.135300	0.794800
H331	H33	0.461300	0.018400	0.801400
C251	C25	0.353300	0.033200	0.655600
H341	H34	0.397800	0.044100	0.555900
H351	H35	0.322300	0.084200	0.650200
N191	N19	0.321300	0.865900	0.103700
N201	N20	0.500000	0.132200	0.191300
Mn61	Mn6	0.963220	0.301630	0.045180
O111	O11	0.047640	0.229040	0.905500
C261	C26	0.211790	0.534500	0.048600
C271	C27	0.793700	0.353700	0.277100
O121	O12	0.186700	0.244830	0.745900
C281	C28	0.109100	0.267100	0.779300
N211	N21	0.138300	0.347300	0.499600
H361	H36	0.154800	0.411800	0.444800
H371	H37	0.088000	0.287000	0.439000
C291	C29	0.090800	0.345800	0.663300
H381	H38	0.136000	0.423200	0.708500
N221	N22	0.938210	0.366300	0.802600
H391	H39	0.864700	0.348600	0.794800
H401	H40	0.981600	0.442900	0.801400
C301	C30	0.966800	0.320100	0.655600
H411	H41	0.955900	0.353700	0.555900
H421	H42	0.915800	0.238100	0.650200
N231	N23	0.134100	0.455400	0.103700
N241	N24	0.867800	0.367800	0.191300
Mn71	Mn7	0.333330	0.666670	0.922630
Mn81	Mn8	0.666670	0.333330	0.422630
