data_UJOJIO03_clean_PM
_symmetry_space_group_name_H-M	'P1'
_cell_length_a	13.532400
_cell_length_b	13.532400
_cell_length_c	8.066800
_cell_angle_alpha	90.000000
_cell_angle_beta	90.000000
_cell_angle_gamma	120.000000
_symmetry_Int_Tables_number 1

loop_
_symmetry_equiv_pos_as_xyz
'x,y,z'

loop_
_atom_site_label
_atom_site_type_symbol
_atom_site_fract_x
_atom_site_fract_y
_atom_site_fract_z
Mn11	Mn1	0.301920	0.337870	0.545610
O11	O1	0.230440	0.181110	0.407100
C11	C1	0.535120	0.322760	0.548400
C21	C2	0.354110	0.560290	0.776100
O21	O2	0.246100	0.057570	0.247400
C31	C3	0.268100	0.157820	0.281300
N11	N1	0.346190	0.208010	0.000600
H11	H1	0.410200	0.255900	0.945000
H21	H2	0.285600	0.197800	0.940900
C41	C4	0.345790	0.254440	0.163900
H31	H3	0.423400	0.287000	0.207700
N21	N2	0.366010	0.427030	0.302500
H41	H4	0.348400	0.482800	0.294700
H51	H5	0.442600	0.460200	0.300900
C51	C5	0.319500	0.352100	0.156200
H61	H6	0.352600	0.396400	0.056300
H71	H7	0.237600	0.320800	0.151500
N31	N3	0.456410	0.321350	0.605200
N41	N4	0.368510	0.500530	0.689700
Mn21	Mn2	0.662130	0.964050	0.545610
O31	O3	0.818890	0.049330	0.407100
C61	C6	0.677240	0.212360	0.548400
C71	C7	0.439710	0.793820	0.776100
O41	O4	0.942430	0.188530	0.247400
C81	C8	0.842180	0.110280	0.281300
N51	N5	0.791990	0.138180	0.000600
H81	H8	0.744100	0.154300	0.945000
H91	H9	0.802200	0.087800	0.940900
C91	C9	0.745560	0.091350	0.163900
H101	H10	0.713000	0.136400	0.207700
N61	N6	0.572970	0.938980	0.302500
H111	H11	0.517200	0.865600	0.294700
H121	H12	0.539800	0.982400	0.300900
C101	C10	0.647900	0.967400	0.156200
H131	H13	0.603600	0.956200	0.056300
H141	H14	0.679200	0.916800	0.151500
N71	N7	0.678650	0.135060	0.605200
N81	N8	0.499470	0.867980	0.689700
Mn31	Mn3	0.035950	0.698080	0.545610
O51	O5	0.950670	0.769560	0.407100
C111	C11	0.787640	0.464880	0.548400
C121	C12	0.206180	0.645890	0.776100
O61	O6	0.811470	0.753900	0.247400
C131	C13	0.889720	0.731900	0.281300
N91	N9	0.861820	0.653810	0.000600
H151	H15	0.845700	0.589800	0.945000
H161	H16	0.912200	0.714400	0.940900
C141	C14	0.908650	0.654210	0.163900
H171	H17	0.863600	0.576600	0.207700
N101	N10	0.061020	0.633990	0.302500
H181	H18	0.134400	0.651600	0.294700
H191	H19	0.017600	0.557400	0.300900
C151	C15	0.032600	0.680500	0.156200
H201	H20	0.043800	0.647400	0.056300
H211	H21	0.083200	0.762400	0.151500
N111	N11	0.864940	0.543590	0.605200
N121	N12	0.132020	0.631490	0.689700
Mn41	Mn4	0.698080	0.662130	0.045610
O71	O7	0.769560	0.818890	0.907100
C161	C16	0.464880	0.677240	0.048400
C171	C17	0.645890	0.439710	0.276100
O81	O8	0.753900	0.942430	0.747400
C181	C18	0.731900	0.842180	0.781300
N131	N13	0.653810	0.791990	0.500600
H221	H22	0.589800	0.744100	0.445000
H231	H23	0.714400	0.802200	0.440900
C191	C19	0.654210	0.745560	0.663900
H241	H24	0.576600	0.713000	0.707700
N141	N14	0.633990	0.572970	0.802500
H251	H25	0.651600	0.517200	0.794700
H261	H26	0.557400	0.539800	0.800900
C201	C20	0.680500	0.647900	0.656200
H271	H27	0.647400	0.603600	0.556300
H281	H28	0.762400	0.679200	0.651500
N151	N15	0.543590	0.678650	0.105200
N161	N16	0.631490	0.499470	0.189700
Mn51	Mn5	0.337870	0.035950	0.045610
O91	O9	0.181110	0.950670	0.907100
C211	C21	0.322760	0.787640	0.048400
C221	C22	0.560290	0.206180	0.276100
O101	O10	0.057570	0.811470	0.747400
C231	C23	0.157820	0.889720	0.781300
N171	N17	0.208010	0.861820	0.500600
H291	H29	0.255900	0.845700	0.445000
H301	H30	0.197800	0.912200	0.440900
C241	C24	0.254440	0.908650	0.663900
H311	H31	0.287000	0.863600	0.707700
N181	N18	0.427030	0.061020	0.802500
H321	H32	0.482800	0.134400	0.794700
H331	H33	0.460200	0.017600	0.800900
C251	C25	0.352100	0.032600	0.656200
H341	H34	0.396400	0.043800	0.556300
H351	H35	0.320800	0.083200	0.651500
N191	N19	0.321350	0.864940	0.105200
N201	N20	0.500530	0.132020	0.189700
Mn61	Mn6	0.964050	0.301920	0.045610
O111	O11	0.049330	0.230440	0.907100
C261	C26	0.212360	0.535120	0.048400
C271	C27	0.793820	0.354110	0.276100
O121	O12	0.188530	0.246100	0.747400
C281	C28	0.110280	0.268100	0.781300
N211	N21	0.138180	0.346190	0.500600
H361	H36	0.154300	0.410200	0.445000
H371	H37	0.087800	0.285600	0.440900
C291	C29	0.091350	0.345790	0.663900
H381	H38	0.136400	0.423400	0.707700
N221	N22	0.938980	0.366010	0.802500
H391	H39	0.865600	0.348400	0.794700
H401	H40	0.982400	0.442600	0.800900
C301	C30	0.967400	0.319500	0.656200
H411	H41	0.956200	0.352600	0.556300
H421	H42	0.916800	0.237600	0.651500
N231	N23	0.135060	0.456410	0.105200
N241	N24	0.867980	0.368510	0.189700
Mn71	Mn7	0.333330	0.666670	0.921010
Mn81	Mn8	0.666670	0.333330	0.421010
