data_UJOJOU_clean_PM
_symmetry_space_group_name_H-M	'P1'
_cell_length_a	13.487300
_cell_length_b	13.487300
_cell_length_c	8.025600
_cell_angle_alpha	90.000000
_cell_angle_beta	90.000000
_cell_angle_gamma	120.000000
_symmetry_Int_Tables_number 1

loop_
_symmetry_equiv_pos_as_xyz
'x,y,z'

loop_
_atom_site_label
_atom_site_type_symbol
_atom_site_fract_x
_atom_site_fract_y
_atom_site_fract_z
Mn11	Mn1	0.301580	0.338590	0.544740
O11	O1	0.226160	0.180840	0.403700
C11	C1	0.533660	0.322240	0.548600
C21	C2	0.353400	0.559700	0.778600
O21	O2	0.240230	0.057070	0.242200
C31	C3	0.264400	0.157800	0.277300
N11	N1	0.348200	0.209900	0.998200
H11	H1	0.413500	0.258200	0.944700
H21	H2	0.288500	0.200200	0.936000
C41	C4	0.345000	0.255100	0.163100
H31	H3	0.421900	0.286600	0.210400
N21	N2	0.366610	0.428870	0.301200
H41	H4	0.349100	0.484900	0.293700
H51	H5	0.443400	0.462000	0.300100
C51	C5	0.320400	0.354300	0.153500
H61	H6	0.354900	0.398700	0.053600
H71	H7	0.238400	0.324000	0.147100
N31	N3	0.454400	0.320600	0.603900
N41	N4	0.366700	0.499200	0.692900
Mn21	Mn2	0.661410	0.962990	0.544740
O31	O3	0.819160	0.045320	0.403700
C61	C6	0.677760	0.211420	0.548600
C71	C7	0.440300	0.793700	0.778600
O41	O4	0.942930	0.183160	0.242200
C81	C8	0.842200	0.106600	0.277300
N51	N5	0.790100	0.138300	0.998200
H81	H8	0.741800	0.155300	0.944700
H91	H9	0.799800	0.088300	0.936000
C91	C9	0.744900	0.089900	0.163100
H101	H10	0.713400	0.135300	0.210400
N61	N6	0.571130	0.937740	0.301200
H111	H11	0.515100	0.864200	0.293700
H121	H12	0.538000	0.981400	0.300100
C101	C10	0.645700	0.966100	0.153500
H131	H13	0.601300	0.956200	0.053600
H141	H14	0.676000	0.914400	0.147100
N71	N7	0.679400	0.133800	0.603900
N81	N8	0.500800	0.867500	0.692900
Mn31	Mn3	0.037010	0.698420	0.544740
O51	O5	0.954680	0.773840	0.403700
C111	C11	0.788580	0.466340	0.548600
C121	C12	0.206300	0.646600	0.778600
O61	O6	0.816840	0.759770	0.242200
C131	C13	0.893400	0.735600	0.277300
N91	N9	0.861700	0.651800	0.998200
H151	H15	0.844700	0.586500	0.944700
H161	H16	0.911700	0.711500	0.936000
C141	C14	0.910100	0.655000	0.163100
H171	H17	0.864700	0.578100	0.210400
N101	N10	0.062260	0.633390	0.301200
H181	H18	0.135800	0.650900	0.293700
H191	H19	0.018600	0.556600	0.300100
C151	C15	0.033900	0.679600	0.153500
H201	H20	0.043800	0.645100	0.053600
H211	H21	0.085600	0.761600	0.147100
N111	N11	0.866200	0.545600	0.603900
N121	N12	0.132500	0.633300	0.692900
Mn41	Mn4	0.698420	0.661410	0.044740
O71	O7	0.773840	0.819160	0.903700
C161	C16	0.466340	0.677760	0.048600
C171	C17	0.646600	0.440300	0.278600
O81	O8	0.759770	0.942930	0.742200
C181	C18	0.735600	0.842200	0.777300
N131	N13	0.651800	0.790100	0.498200
H221	H22	0.586500	0.741800	0.444700
H231	H23	0.711500	0.799800	0.436000
C191	C19	0.655000	0.744900	0.663100
H241	H24	0.578100	0.713400	0.710400
N141	N14	0.633390	0.571130	0.801200
H251	H25	0.650900	0.515100	0.793700
H261	H26	0.556600	0.538000	0.800100
C201	C20	0.679600	0.645700	0.653500
H271	H27	0.645100	0.601300	0.553600
H281	H28	0.761600	0.676000	0.647100
N151	N15	0.545600	0.679400	0.103900
N161	N16	0.633300	0.500800	0.192900
Mn51	Mn5	0.338590	0.037010	0.044740
O91	O9	0.180840	0.954680	0.903700
C211	C21	0.322240	0.788580	0.048600
C221	C22	0.559700	0.206300	0.278600
O101	O10	0.057070	0.816840	0.742200
C231	C23	0.157800	0.893400	0.777300
N171	N17	0.209900	0.861700	0.498200
H291	H29	0.258200	0.844700	0.444700
H301	H30	0.200200	0.911700	0.436000
C241	C24	0.255100	0.910100	0.663100
H311	H31	0.286600	0.864700	0.710400
N181	N18	0.428870	0.062260	0.801200
H321	H32	0.484900	0.135800	0.793700
H331	H33	0.462000	0.018600	0.800100
C251	C25	0.354300	0.033900	0.653500
H341	H34	0.398700	0.043800	0.553600
H351	H35	0.324000	0.085600	0.647100
N191	N19	0.320600	0.866200	0.103900
N201	N20	0.499200	0.132500	0.192900
Mn61	Mn6	0.962990	0.301580	0.044740
O111	O11	0.045320	0.226160	0.903700
C261	C26	0.211420	0.533660	0.048600
C271	C27	0.793700	0.353400	0.278600
O121	O12	0.183160	0.240230	0.742200
C281	C28	0.106600	0.264400	0.777300
N211	N21	0.138300	0.348200	0.498200
H361	H36	0.155300	0.413500	0.444700
H371	H37	0.088300	0.288500	0.436000
C291	C29	0.089900	0.345000	0.663100
H381	H38	0.135300	0.421900	0.710400
N221	N22	0.937740	0.366610	0.801200
H391	H39	0.864200	0.349100	0.793700
H401	H40	0.981400	0.443400	0.800100
C301	C30	0.966100	0.320400	0.653500
H411	H41	0.956200	0.354900	0.553600
H421	H42	0.914400	0.238400	0.647100
N231	N23	0.133800	0.454400	0.103900
N241	N24	0.867500	0.366700	0.192900
Mn71	Mn7	0.333330	0.666670	0.924470
Mn81	Mn8	0.666670	0.333330	0.424470
