data_UJOJEK_clean_PM
_symmetry_space_group_name_H-M	'P1'
_cell_length_a	13.510500
_cell_length_b	13.510500
_cell_length_c	8.046300
_cell_angle_alpha	90.000000
_cell_angle_beta	90.000000
_cell_angle_gamma	120.000000
_symmetry_Int_Tables_number 1

loop_
_symmetry_equiv_pos_as_xyz
'x,y,z'

loop_
_atom_site_label
_atom_site_type_symbol
_atom_site_fract_x
_atom_site_fract_y
_atom_site_fract_z
Mn11	Mn1	0.302490	0.338110	0.954330
O11	O1	0.229350	0.180850	0.093500
C11	C1	0.535060	0.322460	0.951200
C21	C2	0.354100	0.559900	0.723700
O21	O2	0.244070	0.057200	0.254100
C31	C3	0.266900	0.157400	0.219900
N11	N1	0.346600	0.208000	0.500200
H11	H1	0.286100	0.197800	0.560600
H21	H2	0.411000	0.256000	0.555400
C41	C4	0.345500	0.254200	0.336100
H31	H3	0.423000	0.286400	0.291200
N21	N2	0.366800	0.427570	0.198000
H41	H4	0.443500	0.460400	0.199800
H51	H5	0.349600	0.483700	0.205600
C51	C5	0.319700	0.352400	0.344500
H61	H6	0.237700	0.321500	0.349200
H71	H7	0.352900	0.396600	0.444900
N31	N3	0.455900	0.320800	0.893900
N41	N4	0.368400	0.500000	0.810000
Mn21	Mn2	0.661890	0.964380	0.954330
O31	O3	0.819150	0.048500	0.093500
C61	C6	0.677540	0.212600	0.951200
C71	C7	0.440100	0.794200	0.723700
O41	O4	0.942800	0.186870	0.254100
C81	C8	0.842600	0.109500	0.219900
N51	N5	0.792000	0.138600	0.500200
H81	H8	0.802200	0.088300	0.560600
H91	H9	0.744000	0.155000	0.555400
C91	C9	0.745800	0.091300	0.336100
H101	H10	0.713600	0.136600	0.291200
N61	N6	0.572430	0.939230	0.198000
H111	H11	0.539600	0.983100	0.199800
H121	H12	0.516300	0.865900	0.205600
C101	C10	0.647600	0.967300	0.344500
H131	H13	0.678500	0.916200	0.349200
H141	H14	0.603400	0.956300	0.444900
N71	N7	0.679200	0.135100	0.893900
N81	N8	0.500000	0.868400	0.810000
Mn31	Mn3	0.035620	0.697510	0.954330
O51	O5	0.951500	0.770650	0.093500
C111	C11	0.787400	0.464940	0.951200
C121	C12	0.205800	0.645900	0.723700
O61	O6	0.813130	0.755930	0.254100
C131	C13	0.890500	0.733100	0.219900
N91	N9	0.861400	0.653400	0.500200
H151	H15	0.911700	0.713900	0.560600
H161	H16	0.845000	0.589000	0.555400
C141	C14	0.908700	0.654500	0.336100
H171	H17	0.863400	0.577000	0.291200
N101	N10	0.060770	0.633200	0.198000
H181	H18	0.016900	0.556500	0.199800
H191	H19	0.134100	0.650400	0.205600
C151	C15	0.032700	0.680300	0.344500
H201	H20	0.083800	0.762300	0.349200
H211	H21	0.043700	0.647100	0.444900
N111	N11	0.864900	0.544100	0.893900
N121	N12	0.131600	0.631600	0.810000
Mn41	Mn4	0.697510	0.661890	0.454330
O71	O7	0.770650	0.819150	0.593500
C161	C16	0.464940	0.677540	0.451200
C171	C17	0.645900	0.440100	0.223700
O81	O8	0.755930	0.942800	0.754100
C181	C18	0.733100	0.842600	0.719900
N131	N13	0.653400	0.792000	0.000200
H221	H22	0.713900	0.802200	0.060600
H231	H23	0.589000	0.744000	0.055400
C191	C19	0.654500	0.745800	0.836100
H241	H24	0.577000	0.713600	0.791200
N141	N14	0.633200	0.572430	0.698000
H251	H25	0.556500	0.539600	0.699800
H261	H26	0.650400	0.516300	0.705600
C201	C20	0.680300	0.647600	0.844500
H271	H27	0.762300	0.678500	0.849200
H281	H28	0.647100	0.603400	0.944900
N151	N15	0.544100	0.679200	0.393900
N161	N16	0.631600	0.500000	0.310000
Mn51	Mn5	0.338110	0.035620	0.454330
O91	O9	0.180850	0.951500	0.593500
C211	C21	0.322460	0.787400	0.451200
C221	C22	0.559900	0.205800	0.223700
O101	O10	0.057200	0.813130	0.754100
C231	C23	0.157400	0.890500	0.719900
N171	N17	0.208000	0.861400	0.000200
H291	H29	0.197800	0.911700	0.060600
H301	H30	0.256000	0.845000	0.055400
C241	C24	0.254200	0.908700	0.836100
H311	H31	0.286400	0.863400	0.791200
N181	N18	0.427570	0.060770	0.698000
H321	H32	0.460400	0.016900	0.699800
H331	H33	0.483700	0.134100	0.705600
C251	C25	0.352400	0.032700	0.844500
H341	H34	0.321500	0.083800	0.849200
H351	H35	0.396600	0.043700	0.944900
N191	N19	0.320800	0.864900	0.393900
N201	N20	0.500000	0.131600	0.310000
Mn61	Mn6	0.964380	0.302490	0.454330
O111	O11	0.048500	0.229350	0.593500
C261	C26	0.212600	0.535060	0.451200
C271	C27	0.794200	0.354100	0.223700
O121	O12	0.186870	0.244070	0.754100
C281	C28	0.109500	0.266900	0.719900
N211	N21	0.138600	0.346600	0.000200
H361	H36	0.088300	0.286100	0.060600
H371	H37	0.155000	0.411000	0.055400
C291	C29	0.091300	0.345500	0.836100
H381	H38	0.136600	0.423000	0.791200
N221	N22	0.939230	0.366800	0.698000
H391	H39	0.983100	0.443500	0.699800
H401	H40	0.865900	0.349600	0.705600
C301	C30	0.967300	0.319700	0.844500
H411	H41	0.916200	0.237700	0.849200
H421	H42	0.956300	0.352900	0.944900
N231	N23	0.135100	0.455900	0.393900
N241	N24	0.868400	0.368400	0.310000
Mn71	Mn7	0.333330	0.666670	0.578770
Mn81	Mn8	0.666670	0.333330	0.078770
