data_UJOJEK02_clean_PM
_symmetry_space_group_name_H-M	'P1'
_cell_length_a	13.491700
_cell_length_b	13.491700
_cell_length_c	8.064400
_cell_angle_alpha	90.000000
_cell_angle_beta	90.000000
_cell_angle_gamma	120.000000
_symmetry_Int_Tables_number 1

loop_
_symmetry_equiv_pos_as_xyz
'x,y,z'

loop_
_atom_site_label
_atom_site_type_symbol
_atom_site_fract_x
_atom_site_fract_y
_atom_site_fract_z
Mn11	Mn1	0.302590	0.338010	0.954200
O11	O1	0.228560	0.180340	0.093600
C11	C1	0.535170	0.322370	0.950900
C21	C2	0.353980	0.559830	0.723400
O21	O2	0.242250	0.056690	0.255900
C31	C3	0.265910	0.156910	0.220500
N11	N1	0.347030	0.208360	0.500000
H11	H1	0.286800	0.198400	0.560700
H21	H2	0.411700	0.256500	0.554400
C41	C4	0.345310	0.254250	0.335900
H31	H3	0.422700	0.286300	0.290400
N21	N2	0.366930	0.428070	0.197200
H41	H4	0.443700	0.461100	0.198900
H51	H5	0.349500	0.484200	0.204500
C51	C5	0.319800	0.352900	0.344000
H61	H6	0.237700	0.322100	0.348800
H71	H7	0.353200	0.397300	0.443900
N31	N3	0.455630	0.320380	0.894100
N41	N4	0.368200	0.499310	0.809100
Mn21	Mn2	0.661990	0.964580	0.954200
O31	O3	0.819660	0.048220	0.093600
C61	C6	0.677630	0.212800	0.950900
C71	C7	0.440170	0.794150	0.723400
O41	O4	0.943310	0.185560	0.255900
C81	C8	0.843090	0.109000	0.220500
N51	N5	0.791640	0.138670	0.500000
H81	H8	0.801600	0.088400	0.560700
H91	H9	0.743500	0.155200	0.554400
C91	C9	0.745750	0.091060	0.335900
H101	H10	0.713700	0.136400	0.290400
N61	N6	0.571930	0.938860	0.197200
H111	H11	0.538900	0.982600	0.198900
H121	H12	0.515800	0.865300	0.204500
C101	C10	0.647100	0.966900	0.344000
H131	H13	0.677900	0.915600	0.348800
H141	H14	0.602700	0.955900	0.443900
N71	N7	0.679620	0.135250	0.894100
N81	N8	0.500690	0.868890	0.809100
Mn31	Mn3	0.035420	0.697410	0.954200
O51	O5	0.951780	0.771440	0.093600
C111	C11	0.787200	0.464830	0.950900
C121	C12	0.205850	0.646020	0.723400
O61	O6	0.814440	0.757750	0.255900
C131	C13	0.891000	0.734090	0.220500
N91	N9	0.861330	0.652970	0.500000
H151	H15	0.911600	0.713200	0.560700
H161	H16	0.844800	0.588300	0.554400
C141	C14	0.908940	0.654690	0.335900
H171	H17	0.863600	0.577300	0.290400
N101	N10	0.061140	0.633070	0.197200
H181	H18	0.017400	0.556300	0.198900
H191	H19	0.134700	0.650500	0.204500
C151	C15	0.033100	0.680200	0.344000
H201	H20	0.084400	0.762300	0.348800
H211	H21	0.044100	0.646800	0.443900
N111	N11	0.864750	0.544370	0.894100
N121	N12	0.131110	0.631800	0.809100
Mn41	Mn4	0.697410	0.661990	0.454200
O71	O7	0.771440	0.819660	0.593600
C161	C16	0.464830	0.677630	0.450900
C171	C17	0.646020	0.440170	0.223400
O81	O8	0.757750	0.943310	0.755900
C181	C18	0.734090	0.843090	0.720500
N131	N13	0.652970	0.791640	0.000000
H221	H22	0.713200	0.801600	0.060700
H231	H23	0.588300	0.743500	0.054400
C191	C19	0.654690	0.745750	0.835900
H241	H24	0.577300	0.713700	0.790400
N141	N14	0.633070	0.571930	0.697200
H251	H25	0.556300	0.538900	0.698900
H261	H26	0.650500	0.515800	0.704500
C201	C20	0.680200	0.647100	0.844000
H271	H27	0.762300	0.677900	0.848800
H281	H28	0.646800	0.602700	0.943900
N151	N15	0.544370	0.679620	0.394100
N161	N16	0.631800	0.500690	0.309100
Mn51	Mn5	0.338010	0.035420	0.454200
O91	O9	0.180340	0.951780	0.593600
C211	C21	0.322370	0.787200	0.450900
C221	C22	0.559830	0.205850	0.223400
O101	O10	0.056690	0.814440	0.755900
C231	C23	0.156910	0.891000	0.720500
N171	N17	0.208360	0.861330	0.000000
H291	H29	0.198400	0.911600	0.060700
H301	H30	0.256500	0.844800	0.054400
C241	C24	0.254250	0.908940	0.835900
H311	H31	0.286300	0.863600	0.790400
N181	N18	0.428070	0.061140	0.697200
H321	H32	0.461100	0.017400	0.698900
H331	H33	0.484200	0.134700	0.704500
C251	C25	0.352900	0.033100	0.844000
H341	H34	0.322100	0.084400	0.848800
H351	H35	0.397300	0.044100	0.943900
N191	N19	0.320380	0.864750	0.394100
N201	N20	0.499310	0.131110	0.309100
Mn61	Mn6	0.964580	0.302590	0.454200
O111	O11	0.048220	0.228560	0.593600
C261	C26	0.212800	0.535170	0.450900
C271	C27	0.794150	0.353980	0.223400
O121	O12	0.185560	0.242250	0.755900
C281	C28	0.109000	0.265910	0.720500
N211	N21	0.138670	0.347030	0.000000
H361	H36	0.088400	0.286800	0.060700
H371	H37	0.155200	0.411700	0.054400
C291	C29	0.091060	0.345310	0.835900
H381	H38	0.136400	0.422700	0.790400
N221	N22	0.938860	0.366930	0.697200
H391	H39	0.982600	0.443700	0.698900
H401	H40	0.865300	0.349500	0.704500
C301	C30	0.966900	0.319800	0.844000
H411	H41	0.915600	0.237700	0.848800
H421	H42	0.955900	0.353200	0.943900
N231	N23	0.135250	0.455630	0.394100
N241	N24	0.868890	0.368200	0.309100
Mn71	Mn7	0.333330	0.666670	0.578880
Mn81	Mn8	0.666670	0.333330	0.078880
