data_UJOKIP_clean_PM
_symmetry_space_group_name_H-M	'P1'
_cell_length_a	13.614400
_cell_length_b	13.614400
_cell_length_c	8.184200
_cell_angle_alpha	90.000000
_cell_angle_beta	90.000000
_cell_angle_gamma	120.000000
_symmetry_Int_Tables_number 1

loop_
_symmetry_equiv_pos_as_xyz
'x,y,z'

loop_
_atom_site_label
_atom_site_type_symbol
_atom_site_fract_x
_atom_site_fract_y
_atom_site_fract_z
Mn11	Mn1	0.295390	0.334380	0.543680
O11	O1	0.228500	0.180600	0.404600
C11	C1	0.529800	0.321100	0.554300
C21	C2	0.354000	0.555700	0.775900
O21	O2	0.244600	0.059000	0.246100
C31	C3	0.266700	0.159000	0.280400
N11	N1	0.345200	0.210200	0.004300
H11	H1	0.409500	0.257900	0.951000
H21	H2	0.285800	0.201500	0.944800
C41	C4	0.344000	0.255300	0.166700
H31	H3	0.420900	0.287100	0.210500
N21	N2	0.363100	0.425500	0.307700
H41	H4	0.346400	0.481500	0.300200
H51	H5	0.439100	0.457800	0.308400
C51	C5	0.318400	0.352600	0.161600
H61	H6	0.352300	0.397900	0.064400
H71	H7	0.237100	0.321800	0.155300
N31	N3	0.449500	0.319500	0.602700
N41	N4	0.365900	0.495200	0.691900
Mn21	Mn2	0.665620	0.961010	0.543680
O31	O3	0.819400	0.047900	0.404600
C61	C6	0.678900	0.208700	0.554300
C71	C7	0.444300	0.798300	0.775900
O41	O4	0.941000	0.185600	0.246100
C81	C8	0.841000	0.107700	0.280400
N51	N5	0.789800	0.135000	0.004300
H81	H8	0.742100	0.151600	0.951000
H91	H9	0.798500	0.084300	0.944800
C91	C9	0.744700	0.088700	0.166700
H101	H10	0.712900	0.133800	0.210500
N61	N6	0.574500	0.937600	0.307700
H111	H11	0.518500	0.864900	0.300200
H121	H12	0.542200	0.981300	0.308400
C101	C10	0.647400	0.965800	0.161600
H131	H13	0.602100	0.954400	0.064400
H141	H14	0.678200	0.915300	0.155300
N71	N7	0.680500	0.130000	0.602700
N81	N8	0.504800	0.870700	0.691900
Mn31	Mn3	0.038990	0.704610	0.543680
O51	O5	0.952100	0.771500	0.404600
C111	C11	0.791300	0.470200	0.554300
C121	C12	0.201700	0.646000	0.775900
O61	O6	0.814400	0.755400	0.246100
C131	C13	0.892300	0.733300	0.280400
N91	N9	0.865000	0.654800	0.004300
H151	H15	0.848400	0.590500	0.951000
H161	H16	0.915700	0.714200	0.944800
C141	C14	0.911300	0.656000	0.166700
H171	H17	0.866200	0.579100	0.210500
N101	N10	0.062400	0.636900	0.307700
H181	H18	0.135100	0.653600	0.300200
H191	H19	0.018700	0.560900	0.308400
C151	C15	0.034200	0.681600	0.161600
H201	H20	0.045600	0.647700	0.064400
H211	H21	0.084700	0.762900	0.155300
N111	N11	0.870000	0.550500	0.602700
N121	N12	0.129300	0.634100	0.691900
Mn41	Mn4	0.704610	0.665620	0.043680
O71	O7	0.771500	0.819400	0.904600
C161	C16	0.470200	0.678900	0.054300
C171	C17	0.646000	0.444300	0.275900
O81	O8	0.755400	0.941000	0.746100
C181	C18	0.733300	0.841000	0.780400
N131	N13	0.654800	0.789800	0.504300
H221	H22	0.590500	0.742100	0.451000
H231	H23	0.714200	0.798500	0.444800
C191	C19	0.656000	0.744700	0.666700
H241	H24	0.579100	0.712900	0.710500
N141	N14	0.636900	0.574500	0.807700
H251	H25	0.653600	0.518500	0.800200
H261	H26	0.560900	0.542200	0.808400
C201	C20	0.681600	0.647400	0.661600
H271	H27	0.647700	0.602100	0.564400
H281	H28	0.762900	0.678200	0.655300
N151	N15	0.550500	0.680500	0.102700
N161	N16	0.634100	0.504800	0.191900
Mn51	Mn5	0.334380	0.038990	0.043680
O91	O9	0.180600	0.952100	0.904600
C211	C21	0.321100	0.791300	0.054300
C221	C22	0.555700	0.201700	0.275900
O101	O10	0.059000	0.814400	0.746100
C231	C23	0.159000	0.892300	0.780400
N171	N17	0.210200	0.865000	0.504300
H291	H29	0.257900	0.848400	0.451000
H301	H30	0.201500	0.915700	0.444800
C241	C24	0.255300	0.911300	0.666700
H311	H31	0.287100	0.866200	0.710500
N181	N18	0.425500	0.062400	0.807700
H321	H32	0.481500	0.135100	0.800200
H331	H33	0.457800	0.018700	0.808400
C251	C25	0.352600	0.034200	0.661600
H341	H34	0.397900	0.045600	0.564400
H351	H35	0.321800	0.084700	0.655300
N191	N19	0.319500	0.870000	0.102700
N201	N20	0.495200	0.129300	0.191900
Mn61	Mn6	0.961010	0.295390	0.043680
O111	O11	0.047900	0.228500	0.904600
C261	C26	0.208700	0.529800	0.054300
C271	C27	0.798300	0.354000	0.275900
O121	O12	0.185600	0.244600	0.746100
C281	C28	0.107700	0.266700	0.780400
N211	N21	0.135000	0.345200	0.504300
H361	H36	0.151600	0.409500	0.451000
H371	H37	0.084300	0.285800	0.444800
C291	C29	0.088700	0.344000	0.666700
H381	H38	0.133800	0.420900	0.710500
N221	N22	0.937600	0.363100	0.807700
H391	H39	0.864900	0.346400	0.800200
H401	H40	0.981300	0.439100	0.808400
C301	C30	0.965800	0.318400	0.661600
H411	H41	0.954400	0.352300	0.564400
H421	H42	0.915300	0.237100	0.655300
N231	N23	0.130000	0.449500	0.102700
N241	N24	0.870700	0.365900	0.191900
Cr11	Cr1	0.333330	0.666670	0.924970
Cr21	Cr2	0.666670	0.333330	0.424970
