data_UJOKIP01_clean_PM
_symmetry_space_group_name_H-M	'P1'
_cell_length_a	13.573900
_cell_length_b	13.573900
_cell_length_c	8.115600
_cell_angle_alpha	90.000000
_cell_angle_beta	90.000000
_cell_angle_gamma	120.000000
_symmetry_Int_Tables_number 1

loop_
_symmetry_equiv_pos_as_xyz
'x,y,z'

loop_
_atom_site_label
_atom_site_type_symbol
_atom_site_fract_x
_atom_site_fract_y
_atom_site_fract_z
Mn11	Mn1	0.295400	0.331820	0.544380
O11	O1	0.227200	0.177500	0.406400
C11	C1	0.530700	0.320800	0.559100
C21	C2	0.352400	0.554200	0.773300
O21	O2	0.239300	0.055000	0.246400
C31	C3	0.262500	0.155500	0.280800
N11	N1	0.339800	0.207200	0.000800
H11	H1	0.403400	0.255100	0.945200
H21	H2	0.279100	0.197200	0.942300
C41	C4	0.339900	0.252900	0.165100
H31	H3	0.417400	0.284800	0.208200
N21	N2	0.362600	0.423500	0.304900
H41	H4	0.346600	0.480200	0.298000
H51	H5	0.438800	0.455000	0.303900
C51	C5	0.315100	0.349300	0.159300
H61	H6	0.347800	0.393700	0.060000
H71	H7	0.233400	0.318800	0.155500
N31	N3	0.451800	0.318900	0.611300
N41	N4	0.363100	0.493800	0.691000
Mn21	Mn2	0.668180	0.963580	0.544380
O31	O3	0.822500	0.049700	0.406400
C61	C6	0.679200	0.209900	0.559100
C71	C7	0.445800	0.798200	0.773300
O41	O4	0.945000	0.184300	0.246400
C81	C8	0.844500	0.107000	0.280800
N51	N5	0.792800	0.132600	0.000800
H81	H8	0.744900	0.148300	0.945200
H91	H9	0.802800	0.081900	0.942300
C91	C9	0.747100	0.087000	0.165100
H101	H10	0.715200	0.132600	0.208200
N61	N6	0.576500	0.939100	0.304900
H111	H11	0.519800	0.866400	0.298000
H121	H12	0.545000	0.983800	0.303900
C101	C10	0.650700	0.965800	0.159300
H131	H13	0.606300	0.954100	0.060000
H141	H14	0.681200	0.914600	0.155500
N71	N7	0.681100	0.132900	0.611300
N81	N8	0.506200	0.869300	0.691000
Mn31	Mn3	0.036420	0.704600	0.544380
O51	O5	0.950300	0.772800	0.406400
C111	C11	0.790100	0.469300	0.559100
C121	C12	0.201800	0.647600	0.773300
O61	O6	0.815700	0.760700	0.246400
C131	C13	0.893000	0.737500	0.280800
N91	N9	0.867400	0.660200	0.000800
H151	H15	0.851700	0.596600	0.945200
H161	H16	0.918100	0.720900	0.942300
C141	C14	0.913000	0.660100	0.165100
H171	H17	0.867400	0.582600	0.208200
N101	N10	0.060900	0.637400	0.304900
H181	H18	0.133600	0.653400	0.298000
H191	H19	0.016200	0.561200	0.303900
C151	C15	0.034200	0.684900	0.159300
H201	H20	0.045900	0.652200	0.060000
H211	H21	0.085400	0.766600	0.155500
N111	N11	0.867100	0.548200	0.611300
N121	N12	0.130700	0.636900	0.691000
Mn41	Mn4	0.704600	0.668180	0.044380
O71	O7	0.772800	0.822500	0.906400
C161	C16	0.469300	0.679200	0.059100
C171	C17	0.647600	0.445800	0.273300
O81	O8	0.760700	0.945000	0.746400
C181	C18	0.737500	0.844500	0.780800
N131	N13	0.660200	0.792800	0.500800
H221	H22	0.596600	0.744900	0.445200
H231	H23	0.720900	0.802800	0.442300
C191	C19	0.660100	0.747100	0.665100
H241	H24	0.582600	0.715200	0.708200
N141	N14	0.637400	0.576500	0.804900
H251	H25	0.653400	0.519800	0.798000
H261	H26	0.561200	0.545000	0.803900
C201	C20	0.684900	0.650700	0.659300
H271	H27	0.652200	0.606300	0.560000
H281	H28	0.766600	0.681200	0.655500
N151	N15	0.548200	0.681100	0.111300
N161	N16	0.636900	0.506200	0.191000
Mn51	Mn5	0.331820	0.036420	0.044380
O91	O9	0.177500	0.950300	0.906400
C211	C21	0.320800	0.790100	0.059100
C221	C22	0.554200	0.201800	0.273300
O101	O10	0.055000	0.815700	0.746400
C231	C23	0.155500	0.893000	0.780800
N171	N17	0.207200	0.867400	0.500800
H291	H29	0.255100	0.851700	0.445200
H301	H30	0.197200	0.918100	0.442300
C241	C24	0.252900	0.913000	0.665100
H311	H31	0.284800	0.867400	0.708200
N181	N18	0.423500	0.060900	0.804900
H321	H32	0.480200	0.133600	0.798000
H331	H33	0.455000	0.016200	0.803900
C251	C25	0.349300	0.034200	0.659300
H341	H34	0.393700	0.045900	0.560000
H351	H35	0.318800	0.085400	0.655500
N191	N19	0.318900	0.867100	0.111300
N201	N20	0.493800	0.130700	0.191000
Mn61	Mn6	0.963580	0.295400	0.044380
O111	O11	0.049700	0.227200	0.906400
C261	C26	0.209900	0.530700	0.059100
C271	C27	0.798200	0.352400	0.273300
O121	O12	0.184300	0.239300	0.746400
C281	C28	0.107000	0.262500	0.780800
N211	N21	0.132600	0.339800	0.500800
H361	H36	0.148300	0.403400	0.445200
H371	H37	0.081900	0.279100	0.442300
C291	C29	0.087000	0.339900	0.665100
H381	H38	0.132600	0.417400	0.708200
N221	N22	0.939100	0.362600	0.804900
H391	H39	0.866400	0.346600	0.798000
H401	H40	0.983800	0.438800	0.803900
C301	C30	0.965800	0.315100	0.659300
H411	H41	0.954100	0.347800	0.560000
H421	H42	0.914600	0.233400	0.655500
N231	N23	0.132900	0.451800	0.111300
N241	N24	0.869300	0.363100	0.191000
Cr11	Cr1	0.333330	0.666670	0.923300
Cr21	Cr2	0.666670	0.333330	0.423300
