data_UJOKIP04_clean_PM
_symmetry_space_group_name_H-M	'P1'
_cell_length_a	13.555400
_cell_length_b	13.555400
_cell_length_c	8.135100
_cell_angle_alpha	90.000000
_cell_angle_beta	90.000000
_cell_angle_gamma	120.000000
_symmetry_Int_Tables_number 1

loop_
_symmetry_equiv_pos_as_xyz
'x,y,z'

loop_
_atom_site_label
_atom_site_type_symbol
_atom_site_fract_x
_atom_site_fract_y
_atom_site_fract_z
Mn11	Mn1	0.294700	0.331150	0.544500
O11	O1	0.226800	0.176800	0.407300
C11	C1	0.531300	0.321000	0.559500
C21	C2	0.352000	0.553500	0.772800
O21	O2	0.237500	0.054600	0.244900
C31	C3	0.261200	0.154600	0.281300
N11	N1	0.338800	0.206700	0.000600
H11	H1	0.402500	0.254700	0.945200
H21	H2	0.278000	0.196500	0.942200
C41	C4	0.339000	0.252700	0.165500
H31	H3	0.416600	0.284700	0.208400
N21	N2	0.361700	0.422900	0.305000
H41	H4	0.345900	0.479800	0.298100
H51	H5	0.437900	0.454200	0.303400
C51	C5	0.313600	0.348700	0.161500
H61	H6	0.345300	0.393000	0.062100
H71	H7	0.231800	0.317700	0.159300
N31	N3	0.452100	0.319300	0.611100
N41	N4	0.361600	0.492400	0.690900
Mn21	Mn2	0.668850	0.963550	0.544500
O31	O3	0.823200	0.050000	0.407300
C61	C6	0.679000	0.210300	0.559500
C71	C7	0.446500	0.798500	0.772800
O41	O4	0.945400	0.182900	0.244900
C81	C8	0.845400	0.106600	0.281300
N51	N5	0.793300	0.132100	0.000600
H81	H8	0.745300	0.147800	0.945200
H91	H9	0.803500	0.081500	0.942200
C91	C9	0.747300	0.086300	0.165500
H101	H10	0.715300	0.131900	0.208400
N61	N6	0.577100	0.938800	0.305000
H111	H11	0.520200	0.866100	0.298100
H121	H12	0.545800	0.983700	0.303400
C101	C10	0.651300	0.964900	0.161500
H131	H13	0.607000	0.952300	0.062100
H141	H14	0.682300	0.914100	0.159300
N71	N7	0.680700	0.132800	0.611100
N81	N8	0.507600	0.869200	0.690900
Mn31	Mn3	0.036450	0.705300	0.544500
O51	O5	0.950000	0.773200	0.407300
C111	C11	0.789700	0.468700	0.559500
C121	C12	0.201500	0.648000	0.772800
O61	O6	0.817100	0.762500	0.244900
C131	C13	0.893400	0.738800	0.281300
N91	N9	0.867900	0.661200	0.000600
H151	H15	0.852200	0.597500	0.945200
H161	H16	0.918500	0.722000	0.942200
C141	C14	0.913700	0.661000	0.165500
H171	H17	0.868100	0.583400	0.208400
N101	N10	0.061200	0.638300	0.305000
H181	H18	0.133900	0.654100	0.298100
H191	H19	0.016300	0.562100	0.303400
C151	C15	0.035100	0.686400	0.161500
H201	H20	0.047700	0.654700	0.062100
H211	H21	0.085900	0.768200	0.159300
N111	N11	0.867200	0.547900	0.611100
N121	N12	0.130800	0.638400	0.690900
Mn41	Mn4	0.705300	0.668850	0.044500
O71	O7	0.773200	0.823200	0.907300
C161	C16	0.468700	0.679000	0.059500
C171	C17	0.648000	0.446500	0.272800
O81	O8	0.762500	0.945400	0.744900
C181	C18	0.738800	0.845400	0.781300
N131	N13	0.661200	0.793300	0.500600
H221	H22	0.597500	0.745300	0.445200
H231	H23	0.722000	0.803500	0.442200
C191	C19	0.661000	0.747300	0.665500
H241	H24	0.583400	0.715300	0.708400
N141	N14	0.638300	0.577100	0.805000
H251	H25	0.654100	0.520200	0.798100
H261	H26	0.562100	0.545800	0.803400
C201	C20	0.686400	0.651300	0.661500
H271	H27	0.654700	0.607000	0.562100
H281	H28	0.768200	0.682300	0.659300
N151	N15	0.547900	0.680700	0.111100
N161	N16	0.638400	0.507600	0.190900
Mn51	Mn5	0.331150	0.036450	0.044500
O91	O9	0.176800	0.950000	0.907300
C211	C21	0.321000	0.789700	0.059500
C221	C22	0.553500	0.201500	0.272800
O101	O10	0.054600	0.817100	0.744900
C231	C23	0.154600	0.893400	0.781300
N171	N17	0.206700	0.867900	0.500600
H291	H29	0.254700	0.852200	0.445200
H301	H30	0.196500	0.918500	0.442200
C241	C24	0.252700	0.913700	0.665500
H311	H31	0.284700	0.868100	0.708400
N181	N18	0.422900	0.061200	0.805000
H321	H32	0.479800	0.133900	0.798100
H331	H33	0.454200	0.016300	0.803400
C251	C25	0.348700	0.035100	0.661500
H341	H34	0.393000	0.047700	0.562100
H351	H35	0.317700	0.085900	0.659300
N191	N19	0.319300	0.867200	0.111100
N201	N20	0.492400	0.130800	0.190900
Mn61	Mn6	0.963550	0.294700	0.044500
O111	O11	0.050000	0.226800	0.907300
C261	C26	0.210300	0.531300	0.059500
C271	C27	0.798500	0.352000	0.272800
O121	O12	0.182900	0.237500	0.744900
C281	C28	0.106600	0.261200	0.781300
N211	N21	0.132100	0.338800	0.500600
H361	H36	0.147800	0.402500	0.445200
H371	H37	0.081500	0.278000	0.442200
C291	C29	0.086300	0.339000	0.665500
H381	H38	0.131900	0.416600	0.708400
N221	N22	0.938800	0.361700	0.805000
H391	H39	0.866100	0.345900	0.798100
H401	H40	0.983700	0.437900	0.803400
C301	C30	0.964900	0.313600	0.661500
H411	H41	0.952300	0.345300	0.562100
H421	H42	0.914100	0.231800	0.659300
N231	N23	0.132800	0.452100	0.111100
N241	N24	0.869200	0.361600	0.190900
Cr11	Cr1	0.333330	0.666670	0.923000
Cr21	Cr2	0.666670	0.333330	0.423000
