data_UJOKIP05_clean_PM
_symmetry_space_group_name_H-M	'P1'
_cell_length_a	13.541600
_cell_length_b	13.541600
_cell_length_c	8.114000
_cell_angle_alpha	90.000000
_cell_angle_beta	90.000000
_cell_angle_gamma	120.000000
_symmetry_Int_Tables_number 1

loop_
_symmetry_equiv_pos_as_xyz
'x,y,z'

loop_
_atom_site_label
_atom_site_type_symbol
_atom_site_fract_x
_atom_site_fract_y
_atom_site_fract_z
Mn11	Mn1	0.295300	0.331420	0.544250
O11	O1	0.226400	0.176300	0.407500
C11	C1	0.530900	0.320400	0.560700
C21	C2	0.352800	0.553800	0.773200
O21	O2	0.237900	0.054100	0.244300
C31	C3	0.261100	0.154000	0.280800
N11	N1	0.339700	0.206200	0.000500
H11	H1	0.403700	0.254100	0.945500
H21	H2	0.279200	0.196100	0.941100
C41	C4	0.339000	0.252300	0.164600
H31	H3	0.416500	0.284100	0.208100
N21	N2	0.362400	0.423400	0.304700
H41	H4	0.346200	0.480200	0.297900
H51	H5	0.438700	0.455000	0.303400
C51	C5	0.314600	0.349200	0.160500
H61	H6	0.346900	0.393600	0.061100
H71	H7	0.232800	0.318600	0.157500
N31	N3	0.451200	0.318500	0.611600
N41	N4	0.362600	0.493200	0.690200
Mn21	Mn2	0.668580	0.963880	0.544250
O31	O3	0.823700	0.050100	0.407500
C61	C6	0.679600	0.210500	0.560700
C71	C7	0.446200	0.799000	0.773200
O41	O4	0.945900	0.183800	0.244300
C81	C8	0.846000	0.107100	0.280800
N51	N5	0.793800	0.133500	0.000500
H81	H8	0.745900	0.149600	0.945500
H91	H9	0.803900	0.083100	0.941100
C91	C9	0.747700	0.086700	0.164600
H101	H10	0.715900	0.132400	0.208100
N61	N6	0.576600	0.939000	0.304700
H111	H11	0.519800	0.866000	0.297900
H121	H12	0.545000	0.983700	0.303400
C101	C10	0.650800	0.965400	0.160500
H131	H13	0.606400	0.953300	0.061100
H141	H14	0.681400	0.914200	0.157500
N71	N7	0.681500	0.132700	0.611600
N81	N8	0.506800	0.869400	0.690200
Mn31	Mn3	0.036120	0.704700	0.544250
O51	O5	0.949900	0.773600	0.407500
C111	C11	0.789500	0.469100	0.560700
C121	C12	0.201000	0.647200	0.773200
O61	O6	0.816200	0.762100	0.244300
C131	C13	0.892900	0.738900	0.280800
N91	N9	0.866500	0.660300	0.000500
H151	H15	0.850400	0.596300	0.945500
H161	H16	0.916900	0.720800	0.941100
C141	C14	0.913300	0.661000	0.164600
H171	H17	0.867600	0.583500	0.208100
N101	N10	0.061000	0.637600	0.304700
H181	H18	0.134000	0.653800	0.297900
H191	H19	0.016300	0.561300	0.303400
C151	C15	0.034600	0.685400	0.160500
H201	H20	0.046700	0.653100	0.061100
H211	H21	0.085800	0.767200	0.157500
N111	N11	0.867300	0.548800	0.611600
N121	N12	0.130600	0.637400	0.690200
Mn41	Mn4	0.704700	0.668580	0.044250
O71	O7	0.773600	0.823700	0.907500
C161	C16	0.469100	0.679600	0.060700
C171	C17	0.647200	0.446200	0.273200
O81	O8	0.762100	0.945900	0.744300
C181	C18	0.738900	0.846000	0.780800
N131	N13	0.660300	0.793800	0.500500
H221	H22	0.596300	0.745900	0.445500
H231	H23	0.720800	0.803900	0.441100
C191	C19	0.661000	0.747700	0.664600
H241	H24	0.583500	0.715900	0.708100
N141	N14	0.637600	0.576600	0.804700
H251	H25	0.653800	0.519800	0.797900
H261	H26	0.561300	0.545000	0.803400
C201	C20	0.685400	0.650800	0.660500
H271	H27	0.653100	0.606400	0.561100
H281	H28	0.767200	0.681400	0.657500
N151	N15	0.548800	0.681500	0.111600
N161	N16	0.637400	0.506800	0.190200
Mn51	Mn5	0.331420	0.036120	0.044250
O91	O9	0.176300	0.949900	0.907500
C211	C21	0.320400	0.789500	0.060700
C221	C22	0.553800	0.201000	0.273200
O101	O10	0.054100	0.816200	0.744300
C231	C23	0.154000	0.892900	0.780800
N171	N17	0.206200	0.866500	0.500500
H291	H29	0.254100	0.850400	0.445500
H301	H30	0.196100	0.916900	0.441100
C241	C24	0.252300	0.913300	0.664600
H311	H31	0.284100	0.867600	0.708100
N181	N18	0.423400	0.061000	0.804700
H321	H32	0.480200	0.134000	0.797900
H331	H33	0.455000	0.016300	0.803400
C251	C25	0.349200	0.034600	0.660500
H341	H34	0.393600	0.046700	0.561100
H351	H35	0.318600	0.085800	0.657500
N191	N19	0.318500	0.867300	0.111600
N201	N20	0.493200	0.130600	0.190200
Mn61	Mn6	0.963880	0.295300	0.044250
O111	O11	0.050100	0.226400	0.907500
C261	C26	0.210500	0.530900	0.060700
C271	C27	0.799000	0.352800	0.273200
O121	O12	0.183800	0.237900	0.744300
C281	C28	0.107100	0.261100	0.780800
N211	N21	0.133500	0.339700	0.500500
H361	H36	0.149600	0.403700	0.445500
H371	H37	0.083100	0.279200	0.441100
C291	C29	0.086700	0.339000	0.664600
H381	H38	0.132400	0.416500	0.708100
N221	N22	0.939000	0.362400	0.804700
H391	H39	0.866000	0.346200	0.797900
H401	H40	0.983700	0.438700	0.803400
C301	C30	0.965400	0.314600	0.660500
H411	H41	0.953300	0.346900	0.561100
H421	H42	0.914200	0.232800	0.657500
N231	N23	0.132700	0.451200	0.111600
N241	N24	0.869400	0.362600	0.190200
Cr11	Cr1	0.333330	0.666670	0.923500
Cr21	Cr2	0.666670	0.333330	0.423500
