data_UJULIW_clean_PM
_symmetry_space_group_name_H-M	'P1'
_cell_length_a	16.134000
_cell_length_b	16.134000
_cell_length_c	4.548900
_cell_angle_alpha	90.000000
_cell_angle_beta	90.000000
_cell_angle_gamma	90.000000
_symmetry_Int_Tables_number 1

loop_
_symmetry_equiv_pos_as_xyz
'x,y,z'

loop_
_atom_site_label
_atom_site_type_symbol
_atom_site_fract_x
_atom_site_fract_y
_atom_site_fract_z
Cu11	Cu1	0.199060	0.538580	0.501600
O11	O1	0.078600	0.693300	0.173000
H11	H1	0.045500	0.654900	0.180800
O21	O2	0.131900	0.618400	0.754000
O31	O3	0.219700	0.621300	0.205000
O41	O4	0.424000	0.963700	0.781000
O51	O5	0.476500	0.902300	0.272000
O61	O6	0.454900	0.810000	0.826000
P11	P1	0.159280	0.664620	0.998000
P21	P2	0.424880	0.884500	0.999500
C11	C1	0.207200	0.760600	0.894000
C21	C2	0.283900	0.784000	0.007000
H21	H2	0.310600	0.752300	0.149400
C31	C3	0.320000	0.858600	0.897000
C41	C4	0.278600	0.908800	0.695000
H31	H3	0.302500	0.958200	0.632000
C51	C5	0.200600	0.884400	0.587000
C61	C6	0.166700	0.812000	0.681000
H41	H4	0.115900	0.795300	0.604700
C71	C7	0.153000	0.938800	0.381000
H51	H5	0.101000	0.913000	0.333900
H61	H6	0.184400	0.946700	0.203700
H71	H7	0.143100	0.991500	0.472000
O71	O7	0.221000	0.621000	0.782000
O81	O8	0.134000	0.609200	0.283000
O91	O9	0.081000	0.694000	0.852000
O101	O10	0.457300	0.805100	0.172000
O111	O11	0.477000	0.904000	0.758000
O121	O12	0.416200	0.961500	0.207000
Cu21	Cu2	0.800940	0.461420	0.501600
O131	O13	0.921400	0.306700	0.173000
H81	H8	0.954500	0.345100	0.180800
O141	O14	0.868100	0.381600	0.754000
O151	O15	0.780300	0.378700	0.205000
O161	O16	0.576000	0.036300	0.781000
O171	O17	0.523500	0.097700	0.272000
O181	O18	0.545100	0.190000	0.826000
P31	P3	0.840720	0.335380	0.998000
P41	P4	0.575120	0.115500	0.999500
C81	C8	0.792800	0.239400	0.894000
C91	C9	0.716100	0.216000	0.007000
H91	H9	0.689400	0.247700	0.149400
C101	C10	0.680000	0.141400	0.897000
C111	C11	0.721400	0.091200	0.695000
H101	H10	0.697500	0.041800	0.632000
C121	C12	0.799400	0.115600	0.587000
C131	C13	0.833300	0.188000	0.681000
H111	H11	0.884100	0.204700	0.604700
C141	C14	0.847000	0.061200	0.381000
H121	H12	0.899000	0.087000	0.333900
H131	H13	0.815600	0.053300	0.203700
H141	H14	0.856900	0.008500	0.472000
O191	O19	0.779000	0.379000	0.782000
O201	O20	0.866000	0.390800	0.283000
O211	O21	0.919000	0.306000	0.852000
O221	O22	0.542700	0.194900	0.172000
O231	O23	0.523000	0.096000	0.758000
O241	O24	0.583800	0.038500	0.207000
Cu31	Cu3	0.538580	0.800940	0.498400
O251	O25	0.693300	0.921400	0.827000
H151	H15	0.654900	0.954500	0.819200
O261	O26	0.618400	0.868100	0.246000
O271	O27	0.621300	0.780300	0.795000
O281	O28	0.963700	0.576000	0.219000
O291	O29	0.902300	0.523500	0.728000
O301	O30	0.810000	0.545100	0.174000
P51	P5	0.664620	0.840720	0.002000
P61	P6	0.884500	0.575120	0.000500
C151	C15	0.760600	0.792800	0.106000
C161	C16	0.784000	0.716100	0.993000
H161	H16	0.752300	0.689400	0.850600
C171	C17	0.858600	0.680000	0.103000
C181	C18	0.908800	0.721400	0.305000
H171	H17	0.958200	0.697500	0.368000
C191	C19	0.884400	0.799400	0.413000
C201	C20	0.812000	0.833300	0.319000
H181	H18	0.795300	0.884100	0.395300
C211	C21	0.938800	0.847000	0.619000
H191	H19	0.913000	0.899000	0.666100
H201	H20	0.946700	0.815600	0.796300
H211	H21	0.991500	0.856900	0.528000
O311	O31	0.621000	0.779000	0.218000
O321	O32	0.609200	0.866000	0.717000
O331	O33	0.694000	0.919000	0.148000
O341	O34	0.805100	0.542700	0.828000
O351	O35	0.904000	0.523000	0.242000
O361	O36	0.961500	0.583800	0.793000
Cu41	Cu4	0.461420	0.199060	0.498400
O371	O37	0.306700	0.078600	0.827000
H221	H22	0.345100	0.045500	0.819200
O381	O38	0.381600	0.131900	0.246000
O391	O39	0.378700	0.219700	0.795000
O401	O40	0.036300	0.424000	0.219000
O411	O41	0.097700	0.476500	0.728000
O421	O42	0.190000	0.454900	0.174000
P71	P7	0.335380	0.159280	0.002000
P81	P8	0.115500	0.424880	0.000500
C221	C22	0.239400	0.207200	0.106000
C231	C23	0.216000	0.283900	0.993000
H231	H23	0.247700	0.310600	0.850600
C241	C24	0.141400	0.320000	0.103000
C251	C25	0.091200	0.278600	0.305000
H241	H24	0.041800	0.302500	0.368000
C261	C26	0.115600	0.200600	0.413000
C271	C27	0.188000	0.166700	0.319000
H251	H25	0.204700	0.115900	0.395300
C281	C28	0.061200	0.153000	0.619000
H261	H26	0.087000	0.101000	0.666100
H271	H27	0.053300	0.184400	0.796300
H281	H28	0.008500	0.143100	0.528000
O431	O43	0.379000	0.221000	0.218000
O441	O44	0.390800	0.134000	0.717000
O451	O45	0.306000	0.081000	0.148000
O461	O46	0.194900	0.457300	0.828000
O471	O47	0.096000	0.477000	0.242000
O481	O48	0.038500	0.416200	0.793000
Cu51	Cu5	0.500000	0.000000	0.500500
Cu61	Cu6	0.000000	0.500000	0.499500
