data_UJUPUM_clean_PM
_symmetry_space_group_name_H-M	'P1'
_cell_length_a	22.381900
_cell_length_b	22.381900
_cell_length_c	22.381900
_cell_angle_alpha	90.000000
_cell_angle_beta	90.000000
_cell_angle_gamma	90.000000
_symmetry_Int_Tables_number 1

loop_
_symmetry_equiv_pos_as_xyz
'x,y,z'

loop_
_atom_site_label
_atom_site_type_symbol
_atom_site_fract_x
_atom_site_fract_y
_atom_site_fract_z
N11	N1	0.562900	0.716600	0.823300
N21	N2	0.634000	0.698700	0.760200
N31	N3	0.577800	0.657400	0.823600
N41	N4	0.622200	0.649200	0.787900
C11	C1	0.599000	0.742100	0.783600
C21	C2	0.604100	0.806500	0.771000
H11	H1	0.633400	0.812800	0.740400
H21	H2	0.566100	0.821500	0.757800
H31	H3	0.616000	0.827200	0.806700
N51	N5	0.062900	0.216600	0.323300
N61	N6	0.134000	0.198700	0.260200
N71	N7	0.077800	0.157400	0.323600
N81	N8	0.122200	0.149200	0.287900
C31	C3	0.099000	0.242100	0.283600
C41	C4	0.104100	0.306500	0.271000
H41	H4	0.133400	0.312800	0.240400
H51	H5	0.066100	0.321500	0.257800
H61	H6	0.116000	0.327200	0.306700
N91	N9	0.937100	0.283400	0.323300
N101	N10	0.866000	0.301300	0.260200
N111	N11	0.922200	0.342600	0.323600
N121	N12	0.877800	0.350800	0.287900
C51	C5	0.901000	0.257900	0.283600
C61	C6	0.895900	0.193500	0.271000
H71	H7	0.866600	0.187200	0.240400
H81	H8	0.933900	0.178500	0.257800
H91	H9	0.884000	0.172800	0.306700
N131	N13	0.437100	0.783400	0.823300
N141	N14	0.366000	0.801300	0.760200
N151	N15	0.422200	0.842600	0.823600
N161	N16	0.377800	0.850800	0.787900
C71	C7	0.401000	0.757900	0.783600
C81	C8	0.395900	0.693500	0.771000
H101	H10	0.366600	0.687200	0.740400
H111	H11	0.433900	0.678500	0.757800
H121	H12	0.384000	0.672800	0.806700
N171	N17	0.437100	0.216600	0.676700
N181	N18	0.366000	0.198700	0.739800
N191	N19	0.422200	0.157400	0.676400
N201	N20	0.377800	0.149200	0.712100
C91	C9	0.401000	0.242100	0.716400
C101	C10	0.395900	0.306500	0.729000
H131	H13	0.366600	0.312800	0.759600
H141	H14	0.433900	0.321500	0.742200
H151	H15	0.384000	0.327200	0.693300
N211	N21	0.937100	0.716600	0.176700
N221	N22	0.866000	0.698700	0.239800
N231	N23	0.922200	0.657400	0.176400
N241	N24	0.877800	0.649200	0.212100
C111	C11	0.901000	0.742100	0.216400
C121	C12	0.895900	0.806500	0.229000
H161	H16	0.866600	0.812800	0.259600
H171	H17	0.933900	0.821500	0.242200
H181	H18	0.884000	0.827200	0.193300
N251	N25	0.062900	0.783400	0.176700
N261	N26	0.134000	0.801300	0.239800
N271	N27	0.077800	0.842600	0.176400
N281	N28	0.122200	0.850800	0.212100
C131	C13	0.099000	0.757900	0.216400
C141	C14	0.104100	0.693500	0.229000
H191	H19	0.133400	0.687200	0.259600
H201	H20	0.066100	0.678500	0.242200
H211	H21	0.116000	0.672800	0.193300
N291	N29	0.562900	0.283400	0.676700
N301	N30	0.634000	0.301300	0.739800
N311	N31	0.577800	0.342600	0.676400
N321	N32	0.622200	0.350800	0.712100
C151	C15	0.599000	0.257900	0.716400
C161	C16	0.604100	0.193500	0.729000
H221	H22	0.633400	0.187200	0.759600
H231	H23	0.566100	0.178500	0.742200
H241	H24	0.616000	0.172800	0.693300
N331	N33	0.823300	0.562900	0.716600
N341	N34	0.760200	0.634000	0.698700
N351	N35	0.823600	0.577800	0.657400
N361	N36	0.787900	0.622200	0.649200
C171	C17	0.783600	0.599000	0.742100
C181	C18	0.771000	0.604100	0.806500
H251	H25	0.740400	0.633400	0.812800
H261	H26	0.757800	0.566100	0.821500
H271	H27	0.806700	0.616000	0.827200
N371	N37	0.323300	0.062900	0.216600
N381	N38	0.260200	0.134000	0.198700
N391	N39	0.323600	0.077800	0.157400
N401	N40	0.287900	0.122200	0.149200
C191	C19	0.283600	0.099000	0.242100
C201	C20	0.271000	0.104100	0.306500
H281	H28	0.240400	0.133400	0.312800
H291	H29	0.257800	0.066100	0.321500
H301	H30	0.306700	0.116000	0.327200
N411	N41	0.323300	0.937100	0.283400
N421	N42	0.260200	0.866000	0.301300
N431	N43	0.323600	0.922200	0.342600
N441	N44	0.287900	0.877800	0.350800
C211	C21	0.283600	0.901000	0.257900
C221	C22	0.271000	0.895900	0.193500
H311	H31	0.240400	0.866600	0.187200
H321	H32	0.257800	0.933900	0.178500
H331	H33	0.306700	0.884000	0.172800
N451	N45	0.823300	0.437100	0.783400
N461	N46	0.760200	0.366000	0.801300
N471	N47	0.823600	0.422200	0.842600
N481	N48	0.787900	0.377800	0.850800
C231	C23	0.783600	0.401000	0.757900
C241	C24	0.771000	0.395900	0.693500
H341	H34	0.740400	0.366600	0.687200
H351	H35	0.757800	0.433900	0.678500
H361	H36	0.806700	0.384000	0.672800
N491	N49	0.676700	0.437100	0.216600
N501	N50	0.739800	0.366000	0.198700
N511	N51	0.676400	0.422200	0.157400
N521	N52	0.712100	0.377800	0.149200
C251	C25	0.716400	0.401000	0.242100
C261	C26	0.729000	0.395900	0.306500
H371	H37	0.759600	0.366600	0.312800
H381	H38	0.742200	0.433900	0.321500
H391	H39	0.693300	0.384000	0.327200
N531	N53	0.176700	0.937100	0.716600
N541	N54	0.239800	0.866000	0.698700
N551	N55	0.176400	0.922200	0.657400
N561	N56	0.212100	0.877800	0.649200
C271	C27	0.216400	0.901000	0.742100
C281	C28	0.229000	0.895900	0.806500
H401	H40	0.259600	0.866600	0.812800
H411	H41	0.242200	0.933900	0.821500
H421	H42	0.193300	0.884000	0.827200
N571	N57	0.176700	0.062900	0.783400
N581	N58	0.239800	0.134000	0.801300
N591	N59	0.176400	0.077800	0.842600
N601	N60	0.212100	0.122200	0.850800
C291	C29	0.216400	0.099000	0.757900
C301	C30	0.229000	0.104100	0.693500
H431	H43	0.259600	0.133400	0.687200
H441	H44	0.242200	0.066100	0.678500
H451	H45	0.193300	0.116000	0.672800
N611	N61	0.676700	0.562900	0.283400
N621	N62	0.739800	0.634000	0.301300
N631	N63	0.676400	0.577800	0.342600
N641	N64	0.712100	0.622200	0.350800
C311	C31	0.716400	0.599000	0.257900
C321	C32	0.729000	0.604100	0.193500
H461	H46	0.759600	0.633400	0.187200
H471	H47	0.742200	0.566100	0.178500
H481	H48	0.693300	0.616000	0.172800
N651	N65	0.716600	0.823300	0.562900
N661	N66	0.698700	0.760200	0.634000
N671	N67	0.657400	0.823600	0.577800
N681	N68	0.649200	0.787900	0.622200
C331	C33	0.742100	0.783600	0.599000
C341	C34	0.806500	0.771000	0.604100
H491	H49	0.812800	0.740400	0.633400
H501	H50	0.821500	0.757800	0.566100
H511	H51	0.827200	0.806700	0.616000
N691	N69	0.216600	0.323300	0.062900
N701	N70	0.198700	0.260200	0.134000
N711	N71	0.157400	0.323600	0.077800
N721	N72	0.149200	0.287900	0.122200
C351	C35	0.242100	0.283600	0.099000
C361	C36	0.306500	0.271000	0.104100
H521	H52	0.312800	0.240400	0.133400
H531	H53	0.321500	0.257800	0.066100
H541	H54	0.327200	0.306700	0.116000
N731	N73	0.283400	0.323300	0.937100
N741	N74	0.301300	0.260200	0.866000
N751	N75	0.342600	0.323600	0.922200
N761	N76	0.350800	0.287900	0.877800
C371	C37	0.257900	0.283600	0.901000
C381	C38	0.193500	0.271000	0.895900
H551	H55	0.187200	0.240400	0.866600
H561	H56	0.178500	0.257800	0.933900
H571	H57	0.172800	0.306700	0.884000
N771	N77	0.783400	0.823300	0.437100
N781	N78	0.801300	0.760200	0.366000
N791	N79	0.842600	0.823600	0.422200
N801	N80	0.850800	0.787900	0.377800
C391	C39	0.757900	0.783600	0.401000
C401	C40	0.693500	0.771000	0.395900
H581	H58	0.687200	0.740400	0.366600
H591	H59	0.678500	0.757800	0.433900
H601	H60	0.672800	0.806700	0.384000
N811	N81	0.216600	0.676700	0.437100
N821	N82	0.198700	0.739800	0.366000
N831	N83	0.157400	0.676400	0.422200
N841	N84	0.149200	0.712100	0.377800
C411	C41	0.242100	0.716400	0.401000
C421	C42	0.306500	0.729000	0.395900
H611	H61	0.312800	0.759600	0.366600
H621	H62	0.321500	0.742200	0.433900
H631	H63	0.327200	0.693300	0.384000
N851	N85	0.716600	0.176700	0.937100
N861	N86	0.698700	0.239800	0.866000
N871	N87	0.657400	0.176400	0.922200
N881	N88	0.649200	0.212100	0.877800
C431	C43	0.742100	0.216400	0.901000
C441	C44	0.806500	0.229000	0.895900
H641	H64	0.812800	0.259600	0.866600
H651	H65	0.821500	0.242200	0.933900
H661	H66	0.827200	0.193300	0.884000
N891	N89	0.783400	0.176700	0.062900
N901	N90	0.801300	0.239800	0.134000
N911	N91	0.842600	0.176400	0.077800
N921	N92	0.850800	0.212100	0.122200
C451	C45	0.757900	0.216400	0.099000
C461	C46	0.693500	0.229000	0.104100
H671	H67	0.687200	0.259600	0.133400
H681	H68	0.678500	0.242200	0.066100
H691	H69	0.672800	0.193300	0.116000
N931	N93	0.283400	0.676700	0.562900
N941	N94	0.301300	0.739800	0.634000
N951	N95	0.342600	0.676400	0.577800
N961	N96	0.350800	0.712100	0.622200
C471	C47	0.257900	0.716400	0.599000
C481	C48	0.193500	0.729000	0.604100
H701	H70	0.187200	0.759600	0.633400
H711	H71	0.178500	0.742200	0.566100
H721	H72	0.172800	0.693300	0.616000
N971	N97	0.966600	0.812900	0.073300
N981	N98	0.948700	0.884000	0.010200
N991	N99	0.907400	0.827800	0.073600
N1001	N100	0.899200	0.872200	0.037900
C491	C49	0.992100	0.849000	0.033600
C501	C50	0.056500	0.854100	0.021000
H731	H73	0.062800	0.883400	0.990400
H741	H74	0.071500	0.816100	0.007800
H751	H75	0.077200	0.866000	0.056700
N1011	N101	0.466600	0.312900	0.573300
N1021	N102	0.448700	0.384000	0.510200
N1031	N103	0.407400	0.327800	0.573600
N1041	N104	0.399200	0.372200	0.537900
C511	C51	0.492100	0.349000	0.533600
C521	C52	0.556500	0.354100	0.521000
H761	H76	0.562800	0.383400	0.490400
H771	H77	0.571500	0.316100	0.507800
H781	H78	0.577200	0.366000	0.556700
N1051	N105	0.533400	0.187100	0.573300
N1061	N106	0.551300	0.116000	0.510200
N1071	N107	0.592600	0.172200	0.573600
N1081	N108	0.600800	0.127800	0.537900
C531	C53	0.507900	0.151000	0.533600
C541	C54	0.443500	0.145900	0.521000
H791	H79	0.437200	0.116600	0.490400
H801	H80	0.428500	0.183900	0.507800
H811	H81	0.422800	0.134000	0.556700
N1091	N109	0.033400	0.687100	0.073300
N1101	N110	0.051300	0.616000	0.010200
N1111	N111	0.092600	0.672200	0.073600
N1121	N112	0.100800	0.627800	0.037900
C551	C55	0.007900	0.651000	0.033600
C561	C56	0.943500	0.645900	0.021000
H821	H82	0.937200	0.616600	0.990400
H831	H83	0.928500	0.683900	0.007800
H841	H84	0.922800	0.634000	0.056700
N1131	N113	0.466600	0.687100	0.926700
N1141	N114	0.448700	0.616000	0.989800
N1151	N115	0.407400	0.672200	0.926400
N1161	N116	0.399200	0.627800	0.962100
C571	C57	0.492100	0.651000	0.966400
C581	C58	0.556500	0.645900	0.979000
H851	H85	0.562800	0.616600	0.009600
H861	H86	0.571500	0.683900	0.992200
H871	H87	0.577200	0.634000	0.943300
N1171	N117	0.966600	0.187100	0.426700
N1181	N118	0.948700	0.116000	0.489800
N1191	N119	0.907400	0.172200	0.426400
N1201	N120	0.899200	0.127800	0.462100
C591	C59	0.992100	0.151000	0.466400
C601	C60	0.056500	0.145900	0.479000
H881	H88	0.062800	0.116600	0.509600
H891	H89	0.071500	0.183900	0.492200
H901	H90	0.077200	0.134000	0.443300
N1211	N121	0.033400	0.312900	0.426700
N1221	N122	0.051300	0.384000	0.489800
N1231	N123	0.092600	0.327800	0.426400
N1241	N124	0.100800	0.372200	0.462100
C611	C61	0.007900	0.349000	0.466400
C621	C62	0.943500	0.354100	0.479000
H911	H91	0.937200	0.383400	0.509600
H921	H92	0.928500	0.316100	0.492200
H931	H93	0.922800	0.366000	0.443300
N1251	N125	0.533400	0.812900	0.926700
N1261	N126	0.551300	0.884000	0.989800
N1271	N127	0.592600	0.827800	0.926400
N1281	N128	0.600800	0.872200	0.962100
C631	C63	0.507900	0.849000	0.966400
C641	C64	0.443500	0.854100	0.979000
H941	H94	0.437200	0.883400	0.009600
H951	H95	0.428500	0.816100	0.992200
H961	H96	0.422800	0.866000	0.943300
N1291	N129	0.812900	0.073300	0.966600
N1301	N130	0.884000	0.010200	0.948700
N1311	N131	0.827800	0.073600	0.907400
N1321	N132	0.872200	0.037900	0.899200
C651	C65	0.849000	0.033600	0.992100
C661	C66	0.854100	0.021000	0.056500
H971	H97	0.883400	0.990400	0.062800
H981	H98	0.816100	0.007800	0.071500
H991	H99	0.866000	0.056700	0.077200
N1331	N133	0.312900	0.573300	0.466600
N1341	N134	0.384000	0.510200	0.448700
N1351	N135	0.327800	0.573600	0.407400
N1361	N136	0.372200	0.537900	0.399200
C671	C67	0.349000	0.533600	0.492100
C681	C68	0.354100	0.521000	0.556500
H1001	H100	0.383400	0.490400	0.562800
H1011	H101	0.316100	0.507800	0.571500
H1021	H102	0.366000	0.556700	0.577200
N1371	N137	0.187100	0.573300	0.533400
N1381	N138	0.116000	0.510200	0.551300
N1391	N139	0.172200	0.573600	0.592600
N1401	N140	0.127800	0.537900	0.600800
C691	C69	0.151000	0.533600	0.507900
C701	C70	0.145900	0.521000	0.443500
H1031	H103	0.116600	0.490400	0.437200
H1041	H104	0.183900	0.507800	0.428500
H1051	H105	0.134000	0.556700	0.422800
N1411	N141	0.687100	0.073300	0.033400
N1421	N142	0.616000	0.010200	0.051300
N1431	N143	0.672200	0.073600	0.092600
N1441	N144	0.627800	0.037900	0.100800
C711	C71	0.651000	0.033600	0.007900
C721	C72	0.645900	0.021000	0.943500
H1061	H106	0.616600	0.990400	0.937200
H1071	H107	0.683900	0.007800	0.928500
H1081	H108	0.634000	0.056700	0.922800
N1451	N145	0.687100	0.926700	0.466600
N1461	N146	0.616000	0.989800	0.448700
N1471	N147	0.672200	0.926400	0.407400
N1481	N148	0.627800	0.962100	0.399200
C731	C73	0.651000	0.966400	0.492100
C741	C74	0.645900	0.979000	0.556500
H1091	H109	0.616600	0.009600	0.562800
H1101	H110	0.683900	0.992200	0.571500
H1111	H111	0.634000	0.943300	0.577200
N1491	N149	0.187100	0.426700	0.966600
N1501	N150	0.116000	0.489800	0.948700
N1511	N151	0.172200	0.426400	0.907400
N1521	N152	0.127800	0.462100	0.899200
C751	C75	0.151000	0.466400	0.992100
C761	C76	0.145900	0.479000	0.056500
H1121	H112	0.116600	0.509600	0.062800
H1131	H113	0.183900	0.492200	0.071500
H1141	H114	0.134000	0.443300	0.077200
N1531	N153	0.312900	0.426700	0.033400
N1541	N154	0.384000	0.489800	0.051300
N1551	N155	0.327800	0.426400	0.092600
N1561	N156	0.372200	0.462100	0.100800
C771	C77	0.349000	0.466400	0.007900
C781	C78	0.354100	0.479000	0.943500
H1151	H115	0.383400	0.509600	0.937200
H1161	H116	0.316100	0.492200	0.928500
H1171	H117	0.366000	0.443300	0.922800
N1571	N157	0.812900	0.926700	0.533400
N1581	N158	0.884000	0.989800	0.551300
N1591	N159	0.827800	0.926400	0.592600
N1601	N160	0.872200	0.962100	0.600800
C791	C79	0.849000	0.966400	0.507900
C801	C80	0.854100	0.979000	0.443500
H1181	H118	0.883400	0.009600	0.437200
H1191	H119	0.816100	0.992200	0.428500
H1201	H120	0.866000	0.943300	0.422800
N1611	N161	0.073300	0.966600	0.812900
N1621	N162	0.010200	0.948700	0.884000
N1631	N163	0.073600	0.907400	0.827800
N1641	N164	0.037900	0.899200	0.872200
C811	C81	0.033600	0.992100	0.849000
C821	C82	0.021000	0.056500	0.854100
H1211	H121	0.990400	0.062800	0.883400
H1221	H122	0.007800	0.071500	0.816100
H1231	H123	0.056700	0.077200	0.866000
N1651	N165	0.573300	0.466600	0.312900
N1661	N166	0.510200	0.448700	0.384000
N1671	N167	0.573600	0.407400	0.327800
N1681	N168	0.537900	0.399200	0.372200
C831	C83	0.533600	0.492100	0.349000
C841	C84	0.521000	0.556500	0.354100
H1241	H124	0.490400	0.562800	0.383400
H1251	H125	0.507800	0.571500	0.316100
H1261	H126	0.556700	0.577200	0.366000
N1691	N169	0.573300	0.533400	0.187100
N1701	N170	0.510200	0.551300	0.116000
N1711	N171	0.573600	0.592600	0.172200
N1721	N172	0.537900	0.600800	0.127800
C851	C85	0.533600	0.507900	0.151000
C861	C86	0.521000	0.443500	0.145900
H1271	H127	0.490400	0.437200	0.116600
H1281	H128	0.507800	0.428500	0.183900
H1291	H129	0.556700	0.422800	0.134000
N1731	N173	0.073300	0.033400	0.687100
N1741	N174	0.010200	0.051300	0.616000
N1751	N175	0.073600	0.092600	0.672200
N1761	N176	0.037900	0.100800	0.627800
C871	C87	0.033600	0.007900	0.651000
C881	C88	0.021000	0.943500	0.645900
H1301	H130	0.990400	0.937200	0.616600
H1311	H131	0.007800	0.928500	0.683900
H1321	H132	0.056700	0.922800	0.634000
N1771	N177	0.926700	0.466600	0.687100
N1781	N178	0.989800	0.448700	0.616000
N1791	N179	0.926400	0.407400	0.672200
N1801	N180	0.962100	0.399200	0.627800
C891	C89	0.966400	0.492100	0.651000
C901	C90	0.979000	0.556500	0.645900
H1331	H133	0.009600	0.562800	0.616600
H1341	H134	0.992200	0.571500	0.683900
H1351	H135	0.943300	0.577200	0.634000
N1811	N181	0.426700	0.966600	0.187100
N1821	N182	0.489800	0.948700	0.116000
N1831	N183	0.426400	0.907400	0.172200
N1841	N184	0.462100	0.899200	0.127800
C911	C91	0.466400	0.992100	0.151000
C921	C92	0.479000	0.056500	0.145900
H1361	H136	0.509600	0.062800	0.116600
H1371	H137	0.492200	0.071500	0.183900
H1381	H138	0.443300	0.077200	0.134000
N1851	N185	0.426700	0.033400	0.312900
N1861	N186	0.489800	0.051300	0.384000
N1871	N187	0.426400	0.092600	0.327800
N1881	N188	0.462100	0.100800	0.372200
C931	C93	0.466400	0.007900	0.349000
C941	C94	0.479000	0.943500	0.354100
H1391	H139	0.509600	0.937200	0.383400
H1401	H140	0.492200	0.928500	0.316100
H1411	H141	0.443300	0.922800	0.366000
N1891	N189	0.926700	0.533400	0.812900
N1901	N190	0.989800	0.551300	0.884000
N1911	N191	0.926400	0.592600	0.827800
N1921	N192	0.962100	0.600800	0.872200
C951	C95	0.966400	0.507900	0.849000
C961	C96	0.979000	0.443500	0.854100
H1421	H142	0.009600	0.437200	0.883400
H1431	H143	0.992200	0.428500	0.816100
H1441	H144	0.943300	0.422800	0.866000
Zn11	Zn1	0.500000	0.750000	0.875000
Zn21	Zn2	0.000000	0.250000	0.375000
Zn31	Zn3	0.500000	0.250000	0.625000
Zn41	Zn4	0.000000	0.750000	0.125000
Zn51	Zn5	0.875000	0.500000	0.750000
Zn61	Zn6	0.375000	0.000000	0.250000
Zn71	Zn7	0.625000	0.500000	0.250000
Zn81	Zn8	0.125000	0.000000	0.750000
Zn91	Zn9	0.750000	0.875000	0.500000
Zn101	Zn10	0.250000	0.375000	0.000000
Zn111	Zn11	0.250000	0.625000	0.500000
Zn121	Zn12	0.750000	0.125000	0.000000
Zn131	Zn13	0.696770	0.696770	0.696770
Zn141	Zn14	0.196770	0.196770	0.196770
Zn151	Zn15	0.803230	0.303230	0.196770
Zn161	Zn16	0.303230	0.803230	0.696770
Zn171	Zn17	0.303230	0.196770	0.803230
Zn181	Zn18	0.803230	0.696770	0.303230
Zn191	Zn19	0.196770	0.803230	0.303230
Zn201	Zn20	0.696770	0.303230	0.803230
Zn211	Zn21	0.946770	0.946770	0.946770
Zn221	Zn22	0.446770	0.446770	0.446770
Zn231	Zn23	0.553230	0.053230	0.446770
Zn241	Zn24	0.053230	0.553230	0.946770
Zn251	Zn25	0.446770	0.553230	0.053230
Zn261	Zn26	0.946770	0.053230	0.553230
Zn271	Zn27	0.053230	0.446770	0.553230
Zn281	Zn28	0.553230	0.946770	0.053230
