data_UJUXOM_clean_PM
_symmetry_space_group_name_H-M	'P1'
_cell_length_a	13.717000
_cell_length_b	8.940100
_cell_length_c	16.635000
_cell_angle_alpha	90.000000
_cell_angle_beta	93.600000
_cell_angle_gamma	90.000000
_symmetry_Int_Tables_number 1

loop_
_symmetry_equiv_pos_as_xyz
'x,y,z'

loop_
_atom_site_label
_atom_site_type_symbol
_atom_site_fract_x
_atom_site_fract_y
_atom_site_fract_z
Ag11	Ag1	0.639120	0.326270	0.566400
Ag21	Ag2	0.903610	0.616520	0.300170
N11	N1	0.685200	0.379700	0.443400
H11	H1	0.745300	0.341700	0.438600
H21	H2	0.644400	0.332600	0.407200
N21	N2	0.494100	0.841300	0.442800
H31	H3	0.479100	0.920900	0.411400
H41	H4	0.502000	0.874300	0.494000
N31	N3	0.801700	0.804500	0.360600
H51	H5	0.832700	0.892900	0.357600
H61	H6	0.746100	0.811800	0.329200
N41	N4	0.820000	0.942100	0.685900
H71	H7	0.852700	0.906200	0.644800
H81	H8	0.762200	0.894400	0.684900
N51	N5	0.968000	0.419100	0.615400
H91	H9	0.957400	0.518200	0.610900
H101	H10	0.982500	0.385300	0.566600
N61	N6	0.659700	0.385600	0.697200
H111	H11	0.653700	0.485600	0.701000
H121	H12	0.609600	0.345200	0.722000
C11	C1	0.687200	0.541000	0.422100
H131	H13	0.695300	0.550500	0.364200
C21	C2	0.592100	0.613200	0.441200
H141	H14	0.583000	0.602100	0.498200
H151	H15	0.538600	0.562000	0.411700
C31	C3	0.588800	0.779200	0.419400
H161	H16	0.592000	0.789100	0.360900
C41	C4	0.676800	0.860600	0.461100
H171	H17	0.677800	0.963100	0.442000
H181	H18	0.669200	0.863100	0.518700
C51	C5	0.773700	0.786200	0.445600
H191	H19	0.824500	0.833900	0.480900
C61	C6	0.771100	0.619800	0.467700
H201	H20	0.832200	0.573100	0.455300
H211	H21	0.764200	0.609600	0.525200
C71	C7	0.801100	0.102800	0.671200
H221	H22	0.751900	0.113400	0.626200
C81	C8	0.893500	0.181000	0.650000
H231	H23	0.916800	0.137200	0.601400
H241	H24	0.943500	0.166800	0.693200
C91	C9	0.875900	0.347100	0.636900
H251	H25	0.826700	0.360200	0.592200
C101	C10	0.839100	0.419700	0.711500
H261	H26	0.822500	0.523000	0.699100
H271	H27	0.891500	0.420100	0.753400
C111	C11	0.750200	0.343100	0.744000
H281	H28	0.744600	0.377600	0.799400
C121	C12	0.761800	0.172000	0.746400
H291	H29	0.805500	0.145900	0.792400
H301	H30	0.698700	0.127700	0.754800
Ag31	Ag3	0.360880	0.826270	0.933600
Ag41	Ag4	0.096390	0.116520	0.199830
N71	N7	0.314800	0.879700	0.056600
H311	H31	0.254700	0.841700	0.061400
H321	H32	0.355600	0.832600	0.092800
N81	N8	0.505900	0.341300	0.057200
H331	H33	0.520900	0.420900	0.088600
H341	H34	0.498000	0.374300	0.006000
N91	N9	0.198300	0.304500	0.139400
H351	H35	0.167300	0.392900	0.142400
H361	H36	0.253900	0.311800	0.170800
N101	N10	0.180000	0.442100	0.814100
H371	H37	0.147300	0.406200	0.855200
H381	H38	0.237800	0.394400	0.815100
N111	N11	0.032000	0.919100	0.884600
H391	H39	0.042600	0.018200	0.889100
H401	H40	0.017500	0.885300	0.933400
N121	N12	0.340300	0.885600	0.802800
H411	H41	0.346300	0.985600	0.799000
H421	H42	0.390400	0.845200	0.778000
C131	C13	0.312800	0.041000	0.077900
H431	H43	0.304700	0.050500	0.135800
C141	C14	0.407900	0.113200	0.058800
H441	H44	0.417000	0.102100	0.001800
H451	H45	0.461400	0.062000	0.088300
C151	C15	0.411200	0.279200	0.080600
H461	H46	0.408000	0.289100	0.139100
C161	C16	0.323200	0.360600	0.038900
H471	H47	0.322200	0.463100	0.058000
H481	H48	0.330800	0.363100	0.981300
C171	C17	0.226300	0.286200	0.054400
H491	H49	0.175500	0.333900	0.019100
C181	C18	0.228900	0.119800	0.032300
H501	H50	0.167800	0.073100	0.044700
H511	H51	0.235800	0.109600	0.974800
C191	C19	0.198900	0.602800	0.828800
H521	H52	0.248100	0.613400	0.873800
C201	C20	0.106500	0.681000	0.850000
H531	H53	0.083200	0.637200	0.898600
H541	H54	0.056500	0.666800	0.806800
C211	C21	0.124100	0.847100	0.863100
H551	H55	0.173300	0.860200	0.907800
C221	C22	0.160900	0.919700	0.788500
H561	H56	0.177500	0.023000	0.800900
H571	H57	0.108500	0.920100	0.746600
C231	C23	0.249800	0.843100	0.756000
H581	H58	0.255400	0.877600	0.700600
C241	C24	0.238200	0.672000	0.753600
H591	H59	0.194500	0.645900	0.707600
H601	H60	0.301300	0.627700	0.745200
Ag51	Ag5	0.360880	0.673730	0.433600
Ag61	Ag6	0.096390	0.383480	0.699830
N131	N13	0.314800	0.620300	0.556600
H611	H61	0.254700	0.658300	0.561400
H621	H62	0.355600	0.667400	0.592800
N141	N14	0.505900	0.158700	0.557200
H631	H63	0.520900	0.079100	0.588600
H641	H64	0.498000	0.125700	0.506000
N151	N15	0.198300	0.195500	0.639400
H651	H65	0.167300	0.107100	0.642400
H661	H66	0.253900	0.188200	0.670800
N161	N16	0.180000	0.057900	0.314100
H671	H67	0.147300	0.093800	0.355200
H681	H68	0.237800	0.105600	0.315100
N171	N17	0.032000	0.580900	0.384600
H691	H69	0.042600	0.481800	0.389100
H701	H70	0.017500	0.614700	0.433400
N181	N18	0.340300	0.614400	0.302800
H711	H71	0.346300	0.514400	0.299000
H721	H72	0.390400	0.654800	0.278000
C251	C25	0.312800	0.459000	0.577900
H731	H73	0.304700	0.449500	0.635800
C261	C26	0.407900	0.386800	0.558800
H741	H74	0.417000	0.397900	0.501800
H751	H75	0.461400	0.438000	0.588300
C271	C27	0.411200	0.220800	0.580600
H761	H76	0.408000	0.210900	0.639100
C281	C28	0.323200	0.139400	0.538900
H771	H77	0.322200	0.036900	0.558000
H781	H78	0.330800	0.136900	0.481300
C291	C29	0.226300	0.213800	0.554400
H791	H79	0.175500	0.166100	0.519100
C301	C30	0.228900	0.380200	0.532300
H801	H80	0.167800	0.426900	0.544700
H811	H81	0.235800	0.390400	0.474800
C311	C31	0.198900	0.897200	0.328800
H821	H82	0.248100	0.886600	0.373800
C321	C32	0.106500	0.819000	0.350000
H831	H83	0.083200	0.862800	0.398600
H841	H84	0.056500	0.833200	0.306800
C331	C33	0.124100	0.652900	0.363100
H851	H85	0.173300	0.639800	0.407800
C341	C34	0.160900	0.580300	0.288500
H861	H86	0.177500	0.477000	0.300900
H871	H87	0.108500	0.579900	0.246600
C351	C35	0.249800	0.656900	0.256000
H881	H88	0.255400	0.622400	0.200600
C361	C36	0.238200	0.828000	0.253600
H891	H89	0.194500	0.854100	0.207600
H901	H90	0.301300	0.872300	0.245200
Ag71	Ag7	0.639120	0.173730	0.066400
Ag81	Ag8	0.903610	0.883480	0.800170
N191	N19	0.685200	0.120300	0.943400
H911	H91	0.745300	0.158300	0.938600
H921	H92	0.644400	0.167400	0.907200
N201	N20	0.494100	0.658700	0.942800
H931	H93	0.479100	0.579100	0.911400
H941	H94	0.502000	0.625700	0.994000
N211	N21	0.801700	0.695500	0.860600
H951	H95	0.832700	0.607100	0.857600
H961	H96	0.746100	0.688200	0.829200
N221	N22	0.820000	0.557900	0.185900
H971	H97	0.852700	0.593800	0.144800
H981	H98	0.762200	0.605600	0.184900
N231	N23	0.968000	0.080900	0.115400
H991	H99	0.957400	0.981800	0.110900
H1001	H100	0.982500	0.114700	0.066600
N241	N24	0.659700	0.114400	0.197200
H1011	H101	0.653700	0.014400	0.201000
H1021	H102	0.609600	0.154800	0.222000
C371	C37	0.687200	0.959000	0.922100
H1031	H103	0.695300	0.949500	0.864200
C381	C38	0.592100	0.886800	0.941200
H1041	H104	0.583000	0.897900	0.998200
H1051	H105	0.538600	0.938000	0.911700
C391	C39	0.588800	0.720800	0.919400
H1061	H106	0.592000	0.710900	0.860900
C401	C40	0.676800	0.639400	0.961100
H1071	H107	0.677800	0.536900	0.942000
H1081	H108	0.669200	0.636900	0.018700
C411	C41	0.773700	0.713800	0.945600
H1091	H109	0.824500	0.666100	0.980900
C421	C42	0.771100	0.880200	0.967700
H1101	H110	0.832200	0.926900	0.955300
H1111	H111	0.764200	0.890400	0.025200
C431	C43	0.801100	0.397200	0.171200
H1121	H112	0.751900	0.386600	0.126200
C441	C44	0.893500	0.319000	0.150000
H1131	H113	0.916800	0.362800	0.101400
H1141	H114	0.943500	0.333200	0.193200
C451	C45	0.875900	0.152900	0.136900
H1151	H115	0.826700	0.139800	0.092200
C461	C46	0.839100	0.080300	0.211500
H1161	H116	0.822500	0.977000	0.199100
H1171	H117	0.891500	0.079900	0.253400
C471	C47	0.750200	0.156900	0.244000
H1181	H118	0.744600	0.122400	0.299400
C481	C48	0.761800	0.328000	0.246400
H1191	H119	0.805500	0.354100	0.292400
H1201	H120	0.698700	0.372300	0.254800
