data_UKAJOH_clean_PM
_symmetry_space_group_name_H-M	'P1'
_cell_length_a	47.233000
_cell_length_b	11.457100
_cell_length_c	25.455000
_cell_angle_alpha	90.000000
_cell_angle_beta	119.856000
_cell_angle_gamma	90.000000
_symmetry_Int_Tables_number 1

loop_
_symmetry_equiv_pos_as_xyz
'x,y,z'

loop_
_atom_site_label
_atom_site_type_symbol
_atom_site_fract_x
_atom_site_fract_y
_atom_site_fract_z
Zn11	Zn1	0.231340	0.045700	0.249840
S11	S1	0.058010	0.418900	0.012180
S21	S2	0.186070	0.678500	0.490640
O11	O1	0.013570	0.645300	0.203100
O21	O2	0.037800	0.800200	0.190200
O31	O3	0.066400	0.500500	0.979400
O41	O4	0.032300	0.333900	0.980400
O51	O5	0.174270	0.035900	0.181500
O61	O6	0.204900	0.193800	0.205900
O71	O7	0.209700	0.059100	0.317200
O81	O8	0.228220	0.901600	0.294200
O91	O9	0.211500	0.592900	0.522300
O101	O10	0.178100	0.760600	0.523800
O111	O11	0.038590	0.463100	0.299100
O121	O12	0.068500	0.304300	0.308800
N11	N1	0.224100	0.393600	0.685200
N21	N2	0.144800	0.212600	0.549500
N31	N3	0.100300	0.062600	0.455100
N41	N4	0.033300	0.841800	0.317000
N51	N5	0.240700	0.985300	0.184400
N61	N6	0.249200	0.814300	0.046900
N71	N7	0.995500	0.055300	0.045500
N81	N8	0.998300	0.261100	0.183100
C11	C1	0.211100	0.299600	0.696600
H11	H1	0.221000	0.272900	0.737300
C21	C2	0.184400	0.238900	0.653600
H21	H2	0.176100	0.173800	0.664800
C31	C3	0.169800	0.274500	0.593700
C41	C4	0.182500	0.375400	0.581600
H31	H3	0.172300	0.407200	0.541900
C51	C5	0.209400	0.427300	0.627000
H41	H4	0.218500	0.491700	0.616900
C61	C6	0.126100	0.255600	0.486600
H51	H5	0.139400	0.313000	0.479200
H61	H6	0.106100	0.295400	0.480500
C71	C7	0.127900	0.119700	0.561300
H71	H7	0.108200	0.152500	0.560400
H81	H8	0.142300	0.088600	0.602500
C81	C8	0.117900	0.023700	0.517800
H91	H9	0.137600	0.980300	0.524700
H101	H10	0.104000	0.969300	0.525000
C91	C9	0.116900	0.157600	0.442500
H111	H11	0.102400	0.187500	0.401100
H121	H12	0.136900	0.126400	0.444100
C101	C10	0.079500	0.991000	0.410200
C111	C11	0.065000	0.892700	0.421700
H131	H13	0.071300	0.873600	0.462300
C121	C12	0.042200	0.824200	0.375400
H141	H14	0.032400	0.761800	0.385300
C131	C13	0.047400	0.934200	0.305800
H151	H15	0.041600	0.949200	0.264900
C141	C14	0.069400	0.007300	0.349400
H161	H16	0.077900	0.070900	0.337800
C151	C15	0.029900	0.697800	0.183200
C161	C16	0.037300	0.625400	0.141000
C171	C17	0.024200	0.514900	0.122100
H171	H17	0.011100	0.482300	0.137100
C181	C18	0.029700	0.450500	0.081600
H181	H18	0.020000	0.376000	0.067600
C191	C19	0.049700	0.499200	0.062700
C201	C20	0.063800	0.607800	0.081200
H191	H19	0.077800	0.637900	0.067700
C211	C21	0.057000	0.673500	0.120500
H201	H20	0.065700	0.749800	0.132700
C221	C22	0.093500	0.340300	0.061000
C231	C23	0.090200	0.234900	0.084300
H211	H21	0.069200	0.207100	0.074400
C241	C24	0.117800	0.170600	0.122000
H221	H22	0.115900	0.096500	0.136700
C251	C25	0.148100	0.215500	0.137800
C261	C26	0.151000	0.322000	0.115900
H231	H23	0.172100	0.352200	0.127800
C271	C27	0.123200	0.386400	0.076400
H241	H24	0.125100	0.459600	0.060800
C281	C28	0.177700	0.144200	0.177900
C291	C29	0.259200	0.890900	0.195400
H251	H25	0.271200	0.863500	0.236000
C301	C30	0.261900	0.831200	0.151900
H261	H26	0.275000	0.762700	0.162600
C311	C31	0.245900	0.868700	0.091900
C321	C32	0.227800	0.973600	0.081000
H271	H27	0.217300	0.007700	0.041800
C331	C33	0.225400	0.025100	0.126800
H281	H28	0.212300	0.093200	0.117700
C341	C34	0.230100	0.850600	0.984800
H291	H29	0.229100	0.936900	0.983200
H301	H30	0.207600	0.820700	0.968000
C351	C35	0.256700	0.690200	0.052000
H311	H31	0.272500	0.672300	0.094900
H321	H32	0.236400	0.646100	0.040900
C361	C36	0.215500	0.953500	0.321600
C371	C37	0.207600	0.880300	0.362300
C381	C38	0.186700	0.927700	0.380200
H331	H33	0.177000	0.002100	0.365800
C391	C39	0.180200	0.864600	0.419700
H341	H34	0.165700	0.894900	0.432100
C401	C40	0.195100	0.756100	0.441200
C411	C41	0.215600	0.710800	0.423400
H351	H35	0.225800	0.637600	0.438800
C421	C42	0.221700	0.771800	0.382500
H361	H36	0.235300	0.739000	0.368800
C431	C43	0.150300	0.599700	0.441300
C441	C44	0.120500	0.644500	0.425600
H371	H37	0.118700	0.716900	0.441900
C451	C45	0.092800	0.583700	0.385600
H381	H38	0.071900	0.614900	0.374400
C461	C46	0.095100	0.478700	0.361900
C471	C47	0.126200	0.434700	0.378800
H391	H39	0.128000	0.362200	0.362600
C481	C48	0.153600	0.493000	0.417600
H401	H40	0.174600	0.462700	0.428600
C491	C49	0.065600	0.408000	0.320200
C501	C50	0.017400	0.169200	0.195300
H411	H41	0.032600	0.152500	0.236500
C511	C51	0.016700	0.096200	0.151700
H421	H42	0.030600	0.030100	0.163900
C521	C52	0.995800	0.116900	0.090100
C531	C53	0.975400	0.215200	0.078200
H431	H43	0.960000	0.234800	0.037500
C541	C54	0.977400	0.283500	0.125000
H441	H44	0.963300	0.348800	0.115100
C551	C55	0.011500	0.938300	0.056700
H451	H45	0.028400	0.931100	0.099900
H461	H46	0.995100	0.876200	0.047100
C561	C56	0.973300	0.075800	0.981400
H471	H47	0.964500	0.156000	0.976200
H481	H48	0.954700	0.021000	0.967200
Zn21	Zn2	0.731340	0.545700	0.249840
S31	S3	0.558010	0.918900	0.012180
S41	S4	0.686070	0.178500	0.490640
O131	O13	0.513570	0.145300	0.203100
O141	O14	0.537800	0.300200	0.190200
O151	O15	0.566400	0.000500	0.979400
O161	O16	0.532300	0.833900	0.980400
O171	O17	0.674270	0.535900	0.181500
O181	O18	0.704900	0.693800	0.205900
O191	O19	0.709700	0.559100	0.317200
O201	O20	0.728220	0.401600	0.294200
O211	O21	0.711500	0.092900	0.522300
O221	O22	0.678100	0.260600	0.523800
O231	O23	0.538590	0.963100	0.299100
O241	O24	0.568500	0.804300	0.308800
N91	N9	0.724100	0.893600	0.685200
N101	N10	0.644800	0.712600	0.549500
N111	N11	0.600300	0.562600	0.455100
N121	N12	0.533300	0.341800	0.317000
N131	N13	0.740700	0.485300	0.184400
N141	N14	0.749200	0.314300	0.046900
N151	N15	0.495500	0.555300	0.045500
N161	N16	0.498300	0.761100	0.183100
C571	C57	0.711100	0.799600	0.696600
H491	H49	0.721000	0.772900	0.737300
C581	C58	0.684400	0.738900	0.653600
H501	H50	0.676100	0.673800	0.664800
C591	C59	0.669800	0.774500	0.593700
C601	C60	0.682500	0.875400	0.581600
H511	H51	0.672300	0.907200	0.541900
C611	C61	0.709400	0.927300	0.627000
H521	H52	0.718500	0.991700	0.616900
C621	C62	0.626100	0.755600	0.486600
H531	H53	0.639400	0.813000	0.479200
H541	H54	0.606100	0.795400	0.480500
C631	C63	0.627900	0.619700	0.561300
H551	H55	0.608200	0.652500	0.560400
H561	H56	0.642300	0.588600	0.602500
C641	C64	0.617900	0.523700	0.517800
H571	H57	0.637600	0.480300	0.524700
H581	H58	0.604000	0.469300	0.525000
C651	C65	0.616900	0.657600	0.442500
H591	H59	0.602400	0.687500	0.401100
H601	H60	0.636900	0.626400	0.444100
C661	C66	0.579500	0.491000	0.410200
C671	C67	0.565000	0.392700	0.421700
H611	H61	0.571300	0.373600	0.462300
C681	C68	0.542200	0.324200	0.375400
H621	H62	0.532400	0.261800	0.385300
C691	C69	0.547400	0.434200	0.305800
H631	H63	0.541600	0.449200	0.264900
C701	C70	0.569400	0.507300	0.349400
H641	H64	0.577900	0.570900	0.337800
C711	C71	0.529900	0.197800	0.183200
C721	C72	0.537300	0.125400	0.141000
C731	C73	0.524200	0.014900	0.122100
H651	H65	0.511100	0.982300	0.137100
C741	C74	0.529700	0.950500	0.081600
H661	H66	0.520000	0.876000	0.067600
C751	C75	0.549700	0.999200	0.062700
C761	C76	0.563800	0.107800	0.081200
H671	H67	0.577800	0.137900	0.067700
C771	C77	0.557000	0.173500	0.120500
H681	H68	0.565700	0.249800	0.132700
C781	C78	0.593500	0.840300	0.061000
C791	C79	0.590200	0.734900	0.084300
H691	H69	0.569200	0.707100	0.074400
C801	C80	0.617800	0.670600	0.122000
H701	H70	0.615900	0.596500	0.136700
C811	C81	0.648100	0.715500	0.137800
C821	C82	0.651000	0.822000	0.115900
H711	H71	0.672100	0.852200	0.127800
C831	C83	0.623200	0.886400	0.076400
H721	H72	0.625100	0.959600	0.060800
C841	C84	0.677700	0.644200	0.177900
C851	C85	0.759200	0.390900	0.195400
H731	H73	0.771200	0.363500	0.236000
C861	C86	0.761900	0.331200	0.151900
H741	H74	0.775000	0.262700	0.162600
C871	C87	0.745900	0.368700	0.091900
C881	C88	0.727800	0.473600	0.081000
H751	H75	0.717300	0.507700	0.041800
C891	C89	0.725400	0.525100	0.126800
H761	H76	0.712300	0.593200	0.117700
C901	C90	0.730100	0.350600	0.984800
H771	H77	0.729100	0.436900	0.983200
H781	H78	0.707600	0.320700	0.968000
C911	C91	0.756700	0.190200	0.052000
H791	H79	0.772500	0.172300	0.094900
H801	H80	0.736400	0.146100	0.040900
C921	C92	0.715500	0.453500	0.321600
C931	C93	0.707600	0.380300	0.362300
C941	C94	0.686700	0.427700	0.380200
H811	H81	0.677000	0.502100	0.365800
C951	C95	0.680200	0.364600	0.419700
H821	H82	0.665700	0.394900	0.432100
C961	C96	0.695100	0.256100	0.441200
C971	C97	0.715600	0.210800	0.423400
H831	H83	0.725800	0.137600	0.438800
C981	C98	0.721700	0.271800	0.382500
H841	H84	0.735300	0.239000	0.368800
C991	C99	0.650300	0.099700	0.441300
C1001	C100	0.620500	0.144500	0.425600
H851	H85	0.618700	0.216900	0.441900
C1011	C101	0.592800	0.083700	0.385600
H861	H86	0.571900	0.114900	0.374400
C1021	C102	0.595100	0.978700	0.361900
C1031	C103	0.626200	0.934700	0.378800
H871	H87	0.628000	0.862200	0.362600
C1041	C104	0.653600	0.993000	0.417600
H881	H88	0.674600	0.962700	0.428600
C1051	C105	0.565600	0.908000	0.320200
C1061	C106	0.517400	0.669200	0.195300
H891	H89	0.532600	0.652500	0.236500
C1071	C107	0.516700	0.596200	0.151700
H901	H90	0.530600	0.530100	0.163900
C1081	C108	0.495800	0.616900	0.090100
C1091	C109	0.475400	0.715200	0.078200
H911	H91	0.460000	0.734800	0.037500
C1101	C110	0.477400	0.783500	0.125000
H921	H92	0.463300	0.848800	0.115100
C1111	C111	0.511500	0.438300	0.056700
H931	H93	0.528400	0.431100	0.099900
H941	H94	0.495100	0.376200	0.047100
C1121	C112	0.473300	0.575800	0.981400
H951	H95	0.464500	0.656000	0.976200
H961	H96	0.454700	0.521000	0.967200
Zn31	Zn3	0.768660	0.045700	0.250160
S51	S5	0.941990	0.418900	0.487820
S61	S6	0.813930	0.678500	0.009360
O251	O25	0.986430	0.645300	0.296900
O261	O26	0.962200	0.800200	0.309800
O271	O27	0.933600	0.500500	0.520600
O281	O28	0.967700	0.333900	0.519600
O291	O29	0.825730	0.035900	0.318500
O301	O30	0.795100	0.193800	0.294100
O311	O31	0.790300	0.059100	0.182800
O321	O32	0.771780	0.901600	0.205800
O331	O33	0.788500	0.592900	0.977700
O341	O34	0.821900	0.760600	0.976200
O351	O35	0.961410	0.463100	0.200900
O361	O36	0.931500	0.304300	0.191200
N171	N17	0.775900	0.393600	0.814800
N181	N18	0.855200	0.212600	0.950500
N191	N19	0.899700	0.062600	0.044900
N201	N20	0.966700	0.841800	0.183000
N211	N21	0.759300	0.985300	0.315600
N221	N22	0.750800	0.814300	0.453100
N231	N23	0.004500	0.055300	0.454500
N241	N24	0.001700	0.261100	0.316900
C1131	C113	0.788900	0.299600	0.803400
H971	H97	0.779000	0.272900	0.762700
C1141	C114	0.815600	0.238900	0.846400
H981	H98	0.823900	0.173800	0.835200
C1151	C115	0.830200	0.274500	0.906300
C1161	C116	0.817500	0.375400	0.918400
H991	H99	0.827700	0.407200	0.958100
C1171	C117	0.790600	0.427300	0.873000
H1001	H100	0.781500	0.491700	0.883100
C1181	C118	0.873900	0.255600	0.013400
H1011	H101	0.860600	0.313000	0.020800
H1021	H102	0.893900	0.295400	0.019500
C1191	C119	0.872100	0.119700	0.938700
H1031	H103	0.891800	0.152500	0.939600
H1041	H104	0.857700	0.088600	0.897500
C1201	C120	0.882100	0.023700	0.982200
H1051	H105	0.862400	0.980300	0.975300
H1061	H106	0.896000	0.969300	0.975000
C1211	C121	0.883100	0.157600	0.057500
H1071	H107	0.897600	0.187500	0.098900
H1081	H108	0.863100	0.126400	0.055900
C1221	C122	0.920500	0.991000	0.089800
C1231	C123	0.935000	0.892700	0.078300
H1091	H109	0.928700	0.873600	0.037700
C1241	C124	0.957800	0.824200	0.124600
H1101	H110	0.967600	0.761800	0.114700
C1251	C125	0.952600	0.934200	0.194200
H1111	H111	0.958400	0.949200	0.235100
C1261	C126	0.930600	0.007300	0.150600
H1121	H112	0.922100	0.070900	0.162200
C1271	C127	0.970100	0.697800	0.316800
C1281	C128	0.962700	0.625400	0.359000
C1291	C129	0.975800	0.514900	0.377900
H1131	H113	0.988900	0.482300	0.362900
C1301	C130	0.970300	0.450500	0.418400
H1141	H114	0.980000	0.376000	0.432400
C1311	C131	0.950300	0.499200	0.437300
C1321	C132	0.936200	0.607800	0.418800
H1151	H115	0.922200	0.637900	0.432300
C1331	C133	0.943000	0.673500	0.379500
H1161	H116	0.934300	0.749800	0.367300
C1341	C134	0.906500	0.340300	0.439000
C1351	C135	0.909800	0.234900	0.415700
H1171	H117	0.930800	0.207100	0.425600
C1361	C136	0.882200	0.170600	0.378000
H1181	H118	0.884100	0.096500	0.363300
C1371	C137	0.851900	0.215500	0.362200
C1381	C138	0.849000	0.322000	0.384100
H1191	H119	0.827900	0.352200	0.372200
C1391	C139	0.876800	0.386400	0.423600
H1201	H120	0.874900	0.459600	0.439200
C1401	C140	0.822300	0.144200	0.322100
C1411	C141	0.740800	0.890900	0.304600
H1211	H121	0.728800	0.863500	0.264000
C1421	C142	0.738100	0.831200	0.348100
H1221	H122	0.725000	0.762700	0.337400
C1431	C143	0.754100	0.868700	0.408100
C1441	C144	0.772200	0.973600	0.419000
H1231	H123	0.782700	0.007700	0.458200
C1451	C145	0.774600	0.025100	0.373200
H1241	H124	0.787700	0.093200	0.382300
C1461	C146	0.769900	0.850600	0.515200
H1251	H125	0.770900	0.936900	0.516800
H1261	H126	0.792400	0.820700	0.532000
C1471	C147	0.743300	0.690200	0.448000
H1271	H127	0.727500	0.672300	0.405100
H1281	H128	0.763600	0.646100	0.459100
C1481	C148	0.784500	0.953500	0.178400
C1491	C149	0.792400	0.880300	0.137700
C1501	C150	0.813300	0.927700	0.119800
H1291	H129	0.823000	0.002100	0.134200
C1511	C151	0.819800	0.864600	0.080300
H1301	H130	0.834300	0.894900	0.067900
C1521	C152	0.804900	0.756100	0.058800
C1531	C153	0.784400	0.710800	0.076600
H1311	H131	0.774200	0.637600	0.061200
C1541	C154	0.778300	0.771800	0.117500
H1321	H132	0.764700	0.739000	0.131200
C1551	C155	0.849700	0.599700	0.058700
C1561	C156	0.879500	0.644500	0.074400
H1331	H133	0.881300	0.716900	0.058100
C1571	C157	0.907200	0.583700	0.114400
H1341	H134	0.928100	0.614900	0.125600
C1581	C158	0.904900	0.478700	0.138100
C1591	C159	0.873800	0.434700	0.121200
H1351	H135	0.872000	0.362200	0.137400
C1601	C160	0.846400	0.493000	0.082400
H1361	H136	0.825400	0.462700	0.071400
C1611	C161	0.934400	0.408000	0.179800
C1621	C162	0.982600	0.169200	0.304700
H1371	H137	0.967400	0.152500	0.263500
C1631	C163	0.983300	0.096200	0.348300
H1381	H138	0.969400	0.030100	0.336100
C1641	C164	0.004200	0.116900	0.409900
C1651	C165	0.024600	0.215200	0.421800
H1391	H139	0.040000	0.234800	0.462500
C1661	C166	0.022600	0.283500	0.375000
H1401	H140	0.036700	0.348800	0.384900
C1671	C167	0.988500	0.938300	0.443300
H1411	H141	0.971600	0.931100	0.400100
H1421	H142	0.004900	0.876200	0.452900
C1681	C168	0.026700	0.075800	0.518600
H1431	H143	0.035500	0.156000	0.523800
H1441	H144	0.045300	0.021000	0.532800
Zn41	Zn4	0.268660	0.545700	0.250160
S71	S7	0.441990	0.918900	0.487820
S81	S8	0.313930	0.178500	0.009360
O371	O37	0.486430	0.145300	0.296900
O381	O38	0.462200	0.300200	0.309800
O391	O39	0.433600	0.000500	0.520600
O401	O40	0.467700	0.833900	0.519600
O411	O41	0.325730	0.535900	0.318500
O421	O42	0.295100	0.693800	0.294100
O431	O43	0.290300	0.559100	0.182800
O441	O44	0.271780	0.401600	0.205800
O451	O45	0.288500	0.092900	0.977700
O461	O46	0.321900	0.260600	0.976200
O471	O47	0.461410	0.963100	0.200900
O481	O48	0.431500	0.804300	0.191200
N251	N25	0.275900	0.893600	0.814800
N261	N26	0.355200	0.712600	0.950500
N271	N27	0.399700	0.562600	0.044900
N281	N28	0.466700	0.341800	0.183000
N291	N29	0.259300	0.485300	0.315600
N301	N30	0.250800	0.314300	0.453100
N311	N31	0.504500	0.555300	0.454500
N321	N32	0.501700	0.761100	0.316900
C1691	C169	0.288900	0.799600	0.803400
H1451	H145	0.279000	0.772900	0.762700
C1701	C170	0.315600	0.738900	0.846400
H1461	H146	0.323900	0.673800	0.835200
C1711	C171	0.330200	0.774500	0.906300
C1721	C172	0.317500	0.875400	0.918400
H1471	H147	0.327700	0.907200	0.958100
C1731	C173	0.290600	0.927300	0.873000
H1481	H148	0.281500	0.991700	0.883100
C1741	C174	0.373900	0.755600	0.013400
H1491	H149	0.360600	0.813000	0.020800
H1501	H150	0.393900	0.795400	0.019500
C1751	C175	0.372100	0.619700	0.938700
H1511	H151	0.391800	0.652500	0.939600
H1521	H152	0.357700	0.588600	0.897500
C1761	C176	0.382100	0.523700	0.982200
H1531	H153	0.362400	0.480300	0.975300
H1541	H154	0.396000	0.469300	0.975000
C1771	C177	0.383100	0.657600	0.057500
H1551	H155	0.397600	0.687500	0.098900
H1561	H156	0.363100	0.626400	0.055900
C1781	C178	0.420500	0.491000	0.089800
C1791	C179	0.435000	0.392700	0.078300
H1571	H157	0.428700	0.373600	0.037700
C1801	C180	0.457800	0.324200	0.124600
H1581	H158	0.467600	0.261800	0.114700
C1811	C181	0.452600	0.434200	0.194200
H1591	H159	0.458400	0.449200	0.235100
C1821	C182	0.430600	0.507300	0.150600
H1601	H160	0.422100	0.570900	0.162200
C1831	C183	0.470100	0.197800	0.316800
C1841	C184	0.462700	0.125400	0.359000
C1851	C185	0.475800	0.014900	0.377900
H1611	H161	0.488900	0.982300	0.362900
C1861	C186	0.470300	0.950500	0.418400
H1621	H162	0.480000	0.876000	0.432400
C1871	C187	0.450300	0.999200	0.437300
C1881	C188	0.436200	0.107800	0.418800
H1631	H163	0.422200	0.137900	0.432300
C1891	C189	0.443000	0.173500	0.379500
H1641	H164	0.434300	0.249800	0.367300
C1901	C190	0.406500	0.840300	0.439000
C1911	C191	0.409800	0.734900	0.415700
H1651	H165	0.430800	0.707100	0.425600
C1921	C192	0.382200	0.670600	0.378000
H1661	H166	0.384100	0.596500	0.363300
C1931	C193	0.351900	0.715500	0.362200
C1941	C194	0.349000	0.822000	0.384100
H1671	H167	0.327900	0.852200	0.372200
C1951	C195	0.376800	0.886400	0.423600
H1681	H168	0.374900	0.959600	0.439200
C1961	C196	0.322300	0.644200	0.322100
C1971	C197	0.240800	0.390900	0.304600
H1691	H169	0.228800	0.363500	0.264000
C1981	C198	0.238100	0.331200	0.348100
H1701	H170	0.225000	0.262700	0.337400
C1991	C199	0.254100	0.368700	0.408100
C2001	C200	0.272200	0.473600	0.419000
H1711	H171	0.282700	0.507700	0.458200
C2011	C201	0.274600	0.525100	0.373200
H1721	H172	0.287700	0.593200	0.382300
C2021	C202	0.269900	0.350600	0.515200
H1731	H173	0.270900	0.436900	0.516800
H1741	H174	0.292400	0.320700	0.532000
C2031	C203	0.243300	0.190200	0.448000
H1751	H175	0.227500	0.172300	0.405100
H1761	H176	0.263600	0.146100	0.459100
C2041	C204	0.284500	0.453500	0.178400
C2051	C205	0.292400	0.380300	0.137700
C2061	C206	0.313300	0.427700	0.119800
H1771	H177	0.323000	0.502100	0.134200
C2071	C207	0.319800	0.364600	0.080300
H1781	H178	0.334300	0.394900	0.067900
C2081	C208	0.304900	0.256100	0.058800
C2091	C209	0.284400	0.210800	0.076600
H1791	H179	0.274200	0.137600	0.061200
C2101	C210	0.278300	0.271800	0.117500
H1801	H180	0.264700	0.239000	0.131200
C2111	C211	0.349700	0.099700	0.058700
C2121	C212	0.379500	0.144500	0.074400
H1811	H181	0.381300	0.216900	0.058100
C2131	C213	0.407200	0.083700	0.114400
H1821	H182	0.428100	0.114900	0.125600
C2141	C214	0.404900	0.978700	0.138100
C2151	C215	0.373800	0.934700	0.121200
H1831	H183	0.372000	0.862200	0.137400
C2161	C216	0.346400	0.993000	0.082400
H1841	H184	0.325400	0.962700	0.071400
C2171	C217	0.434400	0.908000	0.179800
C2181	C218	0.482600	0.669200	0.304700
H1851	H185	0.467400	0.652500	0.263500
C2191	C219	0.483300	0.596200	0.348300
H1861	H186	0.469400	0.530100	0.336100
C2201	C220	0.504200	0.616900	0.409900
C2211	C221	0.524600	0.715200	0.421800
H1871	H187	0.540000	0.734800	0.462500
C2221	C222	0.522600	0.783500	0.375000
H1881	H188	0.536700	0.848800	0.384900
C2231	C223	0.488500	0.438300	0.443300
H1891	H189	0.471600	0.431100	0.400100
H1901	H190	0.504900	0.376200	0.452900
C2241	C224	0.526700	0.575800	0.518600
H1911	H191	0.535500	0.656000	0.523800
H1921	H192	0.545300	0.521000	0.532800
Zn51	Zn5	0.768660	0.954300	0.750160
S91	S9	0.941990	0.581100	0.987820
S101	S10	0.813930	0.321500	0.509360
O491	O49	0.986430	0.354700	0.796900
O501	O50	0.962200	0.199800	0.809800
O511	O51	0.933600	0.499500	0.020600
O521	O52	0.967700	0.666100	0.019600
O531	O53	0.825730	0.964100	0.818500
O541	O54	0.795100	0.806200	0.794100
O551	O55	0.790300	0.940900	0.682800
O561	O56	0.771780	0.098400	0.705800
O571	O57	0.788500	0.407100	0.477700
O581	O58	0.821900	0.239400	0.476200
O591	O59	0.961410	0.536900	0.700900
O601	O60	0.931500	0.695700	0.691200
N331	N33	0.775900	0.606400	0.314800
N341	N34	0.855200	0.787400	0.450500
N351	N35	0.899700	0.937400	0.544900
N361	N36	0.966700	0.158200	0.683000
N371	N37	0.759300	0.014700	0.815600
N381	N38	0.750800	0.185700	0.953100
N391	N39	0.004500	0.944700	0.954500
N401	N40	0.001700	0.738900	0.816900
C2251	C225	0.788900	0.700400	0.303400
H1931	H193	0.779000	0.727100	0.262700
C2261	C226	0.815600	0.761100	0.346400
H1941	H194	0.823900	0.826200	0.335200
C2271	C227	0.830200	0.725500	0.406300
C2281	C228	0.817500	0.624600	0.418400
H1951	H195	0.827700	0.592800	0.458100
C2291	C229	0.790600	0.572700	0.373000
H1961	H196	0.781500	0.508300	0.383100
C2301	C230	0.873900	0.744400	0.513400
H1971	H197	0.860600	0.687000	0.520800
H1981	H198	0.893900	0.704600	0.519500
C2311	C231	0.872100	0.880300	0.438700
H1991	H199	0.891800	0.847500	0.439600
H2001	H200	0.857700	0.911400	0.397500
C2321	C232	0.882100	0.976300	0.482200
H2011	H201	0.862400	0.019700	0.475300
H2021	H202	0.896000	0.030700	0.475000
C2331	C233	0.883100	0.842400	0.557500
H2031	H203	0.897600	0.812500	0.598900
H2041	H204	0.863100	0.873600	0.555900
C2341	C234	0.920500	0.009000	0.589800
C2351	C235	0.935000	0.107300	0.578300
H2051	H205	0.928700	0.126400	0.537700
C2361	C236	0.957800	0.175800	0.624600
H2061	H206	0.967600	0.238200	0.614700
C2371	C237	0.952600	0.065800	0.694200
H2071	H207	0.958400	0.050800	0.735100
C2381	C238	0.930600	0.992700	0.650600
H2081	H208	0.922100	0.929100	0.662200
C2391	C239	0.970100	0.302200	0.816800
C2401	C240	0.962700	0.374600	0.859000
C2411	C241	0.975800	0.485100	0.877900
H2091	H209	0.988900	0.517700	0.862900
C2421	C242	0.970300	0.549500	0.918400
H2101	H210	0.980000	0.624000	0.932400
C2431	C243	0.950300	0.500800	0.937300
C2441	C244	0.936200	0.392200	0.918800
H2111	H211	0.922200	0.362100	0.932300
C2451	C245	0.943000	0.326500	0.879500
H2121	H212	0.934300	0.250200	0.867300
C2461	C246	0.906500	0.659700	0.939000
C2471	C247	0.909800	0.765100	0.915700
H2131	H213	0.930800	0.792900	0.925600
C2481	C248	0.882200	0.829400	0.878000
H2141	H214	0.884100	0.903500	0.863300
C2491	C249	0.851900	0.784500	0.862200
C2501	C250	0.849000	0.678000	0.884100
H2151	H215	0.827900	0.647800	0.872200
C2511	C251	0.876800	0.613600	0.923600
H2161	H216	0.874900	0.540400	0.939200
C2521	C252	0.822300	0.855800	0.822100
C2531	C253	0.740800	0.109100	0.804600
H2171	H217	0.728800	0.136500	0.764000
C2541	C254	0.738100	0.168800	0.848100
H2181	H218	0.725000	0.237300	0.837400
C2551	C255	0.754100	0.131300	0.908100
C2561	C256	0.772200	0.026400	0.919000
H2191	H219	0.782700	0.992300	0.958200
C2571	C257	0.774600	0.974900	0.873200
H2201	H220	0.787700	0.906800	0.882300
C2581	C258	0.769900	0.149400	0.015200
H2211	H221	0.770900	0.063100	0.016800
H2221	H222	0.792400	0.179300	0.032000
C2591	C259	0.743300	0.309800	0.948000
H2231	H223	0.727500	0.327700	0.905100
H2241	H224	0.763600	0.353900	0.959100
C2601	C260	0.784500	0.046500	0.678400
C2611	C261	0.792400	0.119700	0.637700
C2621	C262	0.813300	0.072300	0.619800
H2251	H225	0.823000	0.997900	0.634200
C2631	C263	0.819800	0.135400	0.580300
H2261	H226	0.834300	0.105100	0.567900
C2641	C264	0.804900	0.243900	0.558800
C2651	C265	0.784400	0.289200	0.576600
H2271	H227	0.774200	0.362400	0.561200
C2661	C266	0.778300	0.228200	0.617500
H2281	H228	0.764700	0.261000	0.631200
C2671	C267	0.849700	0.400300	0.558700
C2681	C268	0.879500	0.355500	0.574400
H2291	H229	0.881300	0.283100	0.558100
C2691	C269	0.907200	0.416300	0.614400
H2301	H230	0.928100	0.385100	0.625600
C2701	C270	0.904900	0.521300	0.638100
C2711	C271	0.873800	0.565300	0.621200
H2311	H231	0.872000	0.637800	0.637400
C2721	C272	0.846400	0.507000	0.582400
H2321	H232	0.825400	0.537300	0.571400
C2731	C273	0.934400	0.592000	0.679800
C2741	C274	0.982600	0.830800	0.804700
H2331	H233	0.967400	0.847500	0.763500
C2751	C275	0.983300	0.903800	0.848300
H2341	H234	0.969400	0.969900	0.836100
C2761	C276	0.004200	0.883100	0.909900
C2771	C277	0.024600	0.784800	0.921800
H2351	H235	0.040000	0.765200	0.962500
C2781	C278	0.022600	0.716500	0.875000
H2361	H236	0.036700	0.651200	0.884900
C2791	C279	0.988500	0.061700	0.943300
H2371	H237	0.971600	0.068900	0.900100
H2381	H238	0.004900	0.123800	0.952900
C2801	C280	0.026700	0.924200	0.018600
H2391	H239	0.035500	0.844000	0.023800
H2401	H240	0.045300	0.979000	0.032800
Zn61	Zn6	0.268660	0.454300	0.750160
S111	S11	0.441990	0.081100	0.987820
S121	S12	0.313930	0.821500	0.509360
O611	O61	0.486430	0.854700	0.796900
O621	O62	0.462200	0.699800	0.809800
O631	O63	0.433600	0.999500	0.020600
O641	O64	0.467700	0.166100	0.019600
O651	O65	0.325730	0.464100	0.818500
O661	O66	0.295100	0.306200	0.794100
O671	O67	0.290300	0.440900	0.682800
O681	O68	0.271780	0.598400	0.705800
O691	O69	0.288500	0.907100	0.477700
O701	O70	0.321900	0.739400	0.476200
O711	O71	0.461410	0.036900	0.700900
O721	O72	0.431500	0.195700	0.691200
N411	N41	0.275900	0.106400	0.314800
N421	N42	0.355200	0.287400	0.450500
N431	N43	0.399700	0.437400	0.544900
N441	N44	0.466700	0.658200	0.683000
N451	N45	0.259300	0.514700	0.815600
N461	N46	0.250800	0.685700	0.953100
N471	N47	0.504500	0.444700	0.954500
N481	N48	0.501700	0.238900	0.816900
C2811	C281	0.288900	0.200400	0.303400
H2411	H241	0.279000	0.227100	0.262700
C2821	C282	0.315600	0.261100	0.346400
H2421	H242	0.323900	0.326200	0.335200
C2831	C283	0.330200	0.225500	0.406300
C2841	C284	0.317500	0.124600	0.418400
H2431	H243	0.327700	0.092800	0.458100
C2851	C285	0.290600	0.072700	0.373000
H2441	H244	0.281500	0.008300	0.383100
C2861	C286	0.373900	0.244400	0.513400
H2451	H245	0.360600	0.187000	0.520800
H2461	H246	0.393900	0.204600	0.519500
C2871	C287	0.372100	0.380300	0.438700
H2471	H247	0.391800	0.347500	0.439600
H2481	H248	0.357700	0.411400	0.397500
C2881	C288	0.382100	0.476300	0.482200
H2491	H249	0.362400	0.519700	0.475300
H2501	H250	0.396000	0.530700	0.475000
C2891	C289	0.383100	0.342400	0.557500
H2511	H251	0.397600	0.312500	0.598900
H2521	H252	0.363100	0.373600	0.555900
C2901	C290	0.420500	0.509000	0.589800
C2911	C291	0.435000	0.607300	0.578300
H2531	H253	0.428700	0.626400	0.537700
C2921	C292	0.457800	0.675800	0.624600
H2541	H254	0.467600	0.738200	0.614700
C2931	C293	0.452600	0.565800	0.694200
H2551	H255	0.458400	0.550800	0.735100
C2941	C294	0.430600	0.492700	0.650600
H2561	H256	0.422100	0.429100	0.662200
C2951	C295	0.470100	0.802200	0.816800
C2961	C296	0.462700	0.874600	0.859000
C2971	C297	0.475800	0.985100	0.877900
H2571	H257	0.488900	0.017700	0.862900
C2981	C298	0.470300	0.049500	0.918400
H2581	H258	0.480000	0.124000	0.932400
C2991	C299	0.450300	0.000800	0.937300
C3001	C300	0.436200	0.892200	0.918800
H2591	H259	0.422200	0.862100	0.932300
C3011	C301	0.443000	0.826500	0.879500
H2601	H260	0.434300	0.750200	0.867300
C3021	C302	0.406500	0.159700	0.939000
C3031	C303	0.409800	0.265100	0.915700
H2611	H261	0.430800	0.292900	0.925600
C3041	C304	0.382200	0.329400	0.878000
H2621	H262	0.384100	0.403500	0.863300
C3051	C305	0.351900	0.284500	0.862200
C3061	C306	0.349000	0.178000	0.884100
H2631	H263	0.327900	0.147800	0.872200
C3071	C307	0.376800	0.113600	0.923600
H2641	H264	0.374900	0.040400	0.939200
C3081	C308	0.322300	0.355800	0.822100
C3091	C309	0.240800	0.609100	0.804600
H2651	H265	0.228800	0.636500	0.764000
C3101	C310	0.238100	0.668800	0.848100
H2661	H266	0.225000	0.737300	0.837400
C3111	C311	0.254100	0.631300	0.908100
C3121	C312	0.272200	0.526400	0.919000
H2671	H267	0.282700	0.492300	0.958200
C3131	C313	0.274600	0.474900	0.873200
H2681	H268	0.287700	0.406800	0.882300
C3141	C314	0.269900	0.649400	0.015200
H2691	H269	0.270900	0.563100	0.016800
H2701	H270	0.292400	0.679300	0.032000
C3151	C315	0.243300	0.809800	0.948000
H2711	H271	0.227500	0.827700	0.905100
H2721	H272	0.263600	0.853900	0.959100
C3161	C316	0.284500	0.546500	0.678400
C3171	C317	0.292400	0.619700	0.637700
C3181	C318	0.313300	0.572300	0.619800
H2731	H273	0.323000	0.497900	0.634200
C3191	C319	0.319800	0.635400	0.580300
H2741	H274	0.334300	0.605100	0.567900
C3201	C320	0.304900	0.743900	0.558800
C3211	C321	0.284400	0.789200	0.576600
H2751	H275	0.274200	0.862400	0.561200
C3221	C322	0.278300	0.728200	0.617500
H2761	H276	0.264700	0.761000	0.631200
C3231	C323	0.349700	0.900300	0.558700
C3241	C324	0.379500	0.855500	0.574400
H2771	H277	0.381300	0.783100	0.558100
C3251	C325	0.407200	0.916300	0.614400
H2781	H278	0.428100	0.885100	0.625600
C3261	C326	0.404900	0.021300	0.638100
C3271	C327	0.373800	0.065300	0.621200
H2791	H279	0.372000	0.137800	0.637400
C3281	C328	0.346400	0.007000	0.582400
H2801	H280	0.325400	0.037300	0.571400
C3291	C329	0.434400	0.092000	0.679800
C3301	C330	0.482600	0.330800	0.804700
H2811	H281	0.467400	0.347500	0.763500
C3311	C331	0.483300	0.403800	0.848300
H2821	H282	0.469400	0.469900	0.836100
C3321	C332	0.504200	0.383100	0.909900
C3331	C333	0.524600	0.284800	0.921800
H2831	H283	0.540000	0.265200	0.962500
C3341	C334	0.522600	0.216500	0.875000
H2841	H284	0.536700	0.151200	0.884900
C3351	C335	0.488500	0.561700	0.943300
H2851	H285	0.471600	0.568900	0.900100
H2861	H286	0.504900	0.623800	0.952900
C3361	C336	0.526700	0.424200	0.018600
H2871	H287	0.535500	0.344000	0.023800
H2881	H288	0.545300	0.479000	0.032800
Zn71	Zn7	0.231340	0.954300	0.749840
S131	S13	0.058010	0.581100	0.512180
S141	S14	0.186070	0.321500	0.990640
O731	O73	0.013570	0.354700	0.703100
O741	O74	0.037800	0.199800	0.690200
O751	O75	0.066400	0.499500	0.479400
O761	O76	0.032300	0.666100	0.480400
O771	O77	0.174270	0.964100	0.681500
O781	O78	0.204900	0.806200	0.705900
O791	O79	0.209700	0.940900	0.817200
O801	O80	0.228220	0.098400	0.794200
O811	O81	0.211500	0.407100	0.022300
O821	O82	0.178100	0.239400	0.023800
O831	O83	0.038590	0.536900	0.799100
O841	O84	0.068500	0.695700	0.808800
N491	N49	0.224100	0.606400	0.185200
N501	N50	0.144800	0.787400	0.049500
N511	N51	0.100300	0.937400	0.955100
N521	N52	0.033300	0.158200	0.817000
N531	N53	0.240700	0.014700	0.684400
N541	N54	0.249200	0.185700	0.546900
N551	N55	0.995500	0.944700	0.545500
N561	N56	0.998300	0.738900	0.683100
C3371	C337	0.211100	0.700400	0.196600
H2891	H289	0.221000	0.727100	0.237300
C3381	C338	0.184400	0.761100	0.153600
H2901	H290	0.176100	0.826200	0.164800
C3391	C339	0.169800	0.725500	0.093700
C3401	C340	0.182500	0.624600	0.081600
H2911	H291	0.172300	0.592800	0.041900
C3411	C341	0.209400	0.572700	0.127000
H2921	H292	0.218500	0.508300	0.116900
C3421	C342	0.126100	0.744400	0.986600
H2931	H293	0.139400	0.687000	0.979200
H2941	H294	0.106100	0.704600	0.980500
C3431	C343	0.127900	0.880300	0.061300
H2951	H295	0.108200	0.847500	0.060400
H2961	H296	0.142300	0.911400	0.102500
C3441	C344	0.117900	0.976300	0.017800
H2971	H297	0.137600	0.019700	0.024700
H2981	H298	0.104000	0.030700	0.025000
C3451	C345	0.116900	0.842400	0.942500
H2991	H299	0.102400	0.812500	0.901100
H3001	H300	0.136900	0.873600	0.944100
C3461	C346	0.079500	0.009000	0.910200
C3471	C347	0.065000	0.107300	0.921700
H3011	H301	0.071300	0.126400	0.962300
C3481	C348	0.042200	0.175800	0.875400
H3021	H302	0.032400	0.238200	0.885300
C3491	C349	0.047400	0.065800	0.805800
H3031	H303	0.041600	0.050800	0.764900
C3501	C350	0.069400	0.992700	0.849400
H3041	H304	0.077900	0.929100	0.837800
C3511	C351	0.029900	0.302200	0.683200
C3521	C352	0.037300	0.374600	0.641000
C3531	C353	0.024200	0.485100	0.622100
H3051	H305	0.011100	0.517700	0.637100
C3541	C354	0.029700	0.549500	0.581600
H3061	H306	0.020000	0.624000	0.567600
C3551	C355	0.049700	0.500800	0.562700
C3561	C356	0.063800	0.392200	0.581200
H3071	H307	0.077800	0.362100	0.567700
C3571	C357	0.057000	0.326500	0.620500
H3081	H308	0.065700	0.250200	0.632700
C3581	C358	0.093500	0.659700	0.561000
C3591	C359	0.090200	0.765100	0.584300
H3091	H309	0.069200	0.792900	0.574400
C3601	C360	0.117800	0.829400	0.622000
H3101	H310	0.115900	0.903500	0.636700
C3611	C361	0.148100	0.784500	0.637800
C3621	C362	0.151000	0.678000	0.615900
H3111	H311	0.172100	0.647800	0.627800
C3631	C363	0.123200	0.613600	0.576400
H3121	H312	0.125100	0.540400	0.560800
C3641	C364	0.177700	0.855800	0.677900
C3651	C365	0.259200	0.109100	0.695400
H3131	H313	0.271200	0.136500	0.736000
C3661	C366	0.261900	0.168800	0.651900
H3141	H314	0.275000	0.237300	0.662600
C3671	C367	0.245900	0.131300	0.591900
C3681	C368	0.227800	0.026400	0.581000
H3151	H315	0.217300	0.992300	0.541800
C3691	C369	0.225400	0.974900	0.626800
H3161	H316	0.212300	0.906800	0.617700
C3701	C370	0.230100	0.149400	0.484800
H3171	H317	0.229100	0.063100	0.483200
H3181	H318	0.207600	0.179300	0.468000
C3711	C371	0.256700	0.309800	0.552000
H3191	H319	0.272500	0.327700	0.594900
H3201	H320	0.236400	0.353900	0.540900
C3721	C372	0.215500	0.046500	0.821600
C3731	C373	0.207600	0.119700	0.862300
C3741	C374	0.186700	0.072300	0.880200
H3211	H321	0.177000	0.997900	0.865800
C3751	C375	0.180200	0.135400	0.919700
H3221	H322	0.165700	0.105100	0.932100
C3761	C376	0.195100	0.243900	0.941200
C3771	C377	0.215600	0.289200	0.923400
H3231	H323	0.225800	0.362400	0.938800
C3781	C378	0.221700	0.228200	0.882500
H3241	H324	0.235300	0.261000	0.868800
C3791	C379	0.150300	0.400300	0.941300
C3801	C380	0.120500	0.355500	0.925600
H3251	H325	0.118700	0.283100	0.941900
C3811	C381	0.092800	0.416300	0.885600
H3261	H326	0.071900	0.385100	0.874400
C3821	C382	0.095100	0.521300	0.861900
C3831	C383	0.126200	0.565300	0.878800
H3271	H327	0.128000	0.637800	0.862600
C3841	C384	0.153600	0.507000	0.917600
H3281	H328	0.174600	0.537300	0.928600
C3851	C385	0.065600	0.592000	0.820200
C3861	C386	0.017400	0.830800	0.695300
H3291	H329	0.032600	0.847500	0.736500
C3871	C387	0.016700	0.903800	0.651700
H3301	H330	0.030600	0.969900	0.663900
C3881	C388	0.995800	0.883100	0.590100
C3891	C389	0.975400	0.784800	0.578200
H3311	H331	0.960000	0.765200	0.537500
C3901	C390	0.977400	0.716500	0.625000
H3321	H332	0.963300	0.651200	0.615100
C3911	C391	0.011500	0.061700	0.556700
H3331	H333	0.028400	0.068900	0.599900
H3341	H334	0.995100	0.123800	0.547100
C3921	C392	0.973300	0.924200	0.481400
H3351	H335	0.964500	0.844000	0.476200
H3361	H336	0.954700	0.979000	0.467200
Zn81	Zn8	0.731340	0.454300	0.749840
S151	S15	0.558010	0.081100	0.512180
S161	S16	0.686070	0.821500	0.990640
O851	O85	0.513570	0.854700	0.703100
O861	O86	0.537800	0.699800	0.690200
O871	O87	0.566400	0.999500	0.479400
O881	O88	0.532300	0.166100	0.480400
O891	O89	0.674270	0.464100	0.681500
O901	O90	0.704900	0.306200	0.705900
O911	O91	0.709700	0.440900	0.817200
O921	O92	0.728220	0.598400	0.794200
O931	O93	0.711500	0.907100	0.022300
O941	O94	0.678100	0.739400	0.023800
O951	O95	0.538590	0.036900	0.799100
O961	O96	0.568500	0.195700	0.808800
N571	N57	0.724100	0.106400	0.185200
N581	N58	0.644800	0.287400	0.049500
N591	N59	0.600300	0.437400	0.955100
N601	N60	0.533300	0.658200	0.817000
N611	N61	0.740700	0.514700	0.684400
N621	N62	0.749200	0.685700	0.546900
N631	N63	0.495500	0.444700	0.545500
N641	N64	0.498300	0.238900	0.683100
C3931	C393	0.711100	0.200400	0.196600
H3371	H337	0.721000	0.227100	0.237300
C3941	C394	0.684400	0.261100	0.153600
H3381	H338	0.676100	0.326200	0.164800
C3951	C395	0.669800	0.225500	0.093700
C3961	C396	0.682500	0.124600	0.081600
H3391	H339	0.672300	0.092800	0.041900
C3971	C397	0.709400	0.072700	0.127000
H3401	H340	0.718500	0.008300	0.116900
C3981	C398	0.626100	0.244400	0.986600
H3411	H341	0.639400	0.187000	0.979200
H3421	H342	0.606100	0.204600	0.980500
C3991	C399	0.627900	0.380300	0.061300
H3431	H343	0.608200	0.347500	0.060400
H3441	H344	0.642300	0.411400	0.102500
C4001	C400	0.617900	0.476300	0.017800
H3451	H345	0.637600	0.519700	0.024700
H3461	H346	0.604000	0.530700	0.025000
C4011	C401	0.616900	0.342400	0.942500
H3471	H347	0.602400	0.312500	0.901100
H3481	H348	0.636900	0.373600	0.944100
C4021	C402	0.579500	0.509000	0.910200
C4031	C403	0.565000	0.607300	0.921700
H3491	H349	0.571300	0.626400	0.962300
C4041	C404	0.542200	0.675800	0.875400
H3501	H350	0.532400	0.738200	0.885300
C4051	C405	0.547400	0.565800	0.805800
H3511	H351	0.541600	0.550800	0.764900
C4061	C406	0.569400	0.492700	0.849400
H3521	H352	0.577900	0.429100	0.837800
C4071	C407	0.529900	0.802200	0.683200
C4081	C408	0.537300	0.874600	0.641000
C4091	C409	0.524200	0.985100	0.622100
H3531	H353	0.511100	0.017700	0.637100
C4101	C410	0.529700	0.049500	0.581600
H3541	H354	0.520000	0.124000	0.567600
C4111	C411	0.549700	0.000800	0.562700
C4121	C412	0.563800	0.892200	0.581200
H3551	H355	0.577800	0.862100	0.567700
C4131	C413	0.557000	0.826500	0.620500
H3561	H356	0.565700	0.750200	0.632700
C4141	C414	0.593500	0.159700	0.561000
C4151	C415	0.590200	0.265100	0.584300
H3571	H357	0.569200	0.292900	0.574400
C4161	C416	0.617800	0.329400	0.622000
H3581	H358	0.615900	0.403500	0.636700
C4171	C417	0.648100	0.284500	0.637800
C4181	C418	0.651000	0.178000	0.615900
H3591	H359	0.672100	0.147800	0.627800
C4191	C419	0.623200	0.113600	0.576400
H3601	H360	0.625100	0.040400	0.560800
C4201	C420	0.677700	0.355800	0.677900
C4211	C421	0.759200	0.609100	0.695400
H3611	H361	0.771200	0.636500	0.736000
C4221	C422	0.761900	0.668800	0.651900
H3621	H362	0.775000	0.737300	0.662600
C4231	C423	0.745900	0.631300	0.591900
C4241	C424	0.727800	0.526400	0.581000
H3631	H363	0.717300	0.492300	0.541800
C4251	C425	0.725400	0.474900	0.626800
H3641	H364	0.712300	0.406800	0.617700
C4261	C426	0.730100	0.649400	0.484800
H3651	H365	0.729100	0.563100	0.483200
H3661	H366	0.707600	0.679300	0.468000
C4271	C427	0.756700	0.809800	0.552000
H3671	H367	0.772500	0.827700	0.594900
H3681	H368	0.736400	0.853900	0.540900
C4281	C428	0.715500	0.546500	0.821600
C4291	C429	0.707600	0.619700	0.862300
C4301	C430	0.686700	0.572300	0.880200
H3691	H369	0.677000	0.497900	0.865800
C4311	C431	0.680200	0.635400	0.919700
H3701	H370	0.665700	0.605100	0.932100
C4321	C432	0.695100	0.743900	0.941200
C4331	C433	0.715600	0.789200	0.923400
H3711	H371	0.725800	0.862400	0.938800
C4341	C434	0.721700	0.728200	0.882500
H3721	H372	0.735300	0.761000	0.868800
C4351	C435	0.650300	0.900300	0.941300
C4361	C436	0.620500	0.855500	0.925600
H3731	H373	0.618700	0.783100	0.941900
C4371	C437	0.592800	0.916300	0.885600
H3741	H374	0.571900	0.885100	0.874400
C4381	C438	0.595100	0.021300	0.861900
C4391	C439	0.626200	0.065300	0.878800
H3751	H375	0.628000	0.137800	0.862600
C4401	C440	0.653600	0.007000	0.917600
H3761	H376	0.674600	0.037300	0.928600
C4411	C441	0.565600	0.092000	0.820200
C4421	C442	0.517400	0.330800	0.695300
H3771	H377	0.532600	0.347500	0.736500
C4431	C443	0.516700	0.403800	0.651700
H3781	H378	0.530600	0.469900	0.663900
C4441	C444	0.495800	0.383100	0.590100
C4451	C445	0.475400	0.284800	0.578200
H3791	H379	0.460000	0.265200	0.537500
C4461	C446	0.477400	0.216500	0.625000
H3801	H380	0.463300	0.151200	0.615100
C4471	C447	0.511500	0.561700	0.556700
H3811	H381	0.528400	0.568900	0.599900
H3821	H382	0.495100	0.623800	0.547100
C4481	C448	0.473300	0.424200	0.481400
H3831	H383	0.464500	0.344000	0.476200
H3841	H384	0.454700	0.479000	0.467200
Zn91	Zn9	0.000000	0.739200	0.250000
Zn101	Zn10	0.000000	0.365040	0.250000
Zn111	Zn11	0.500000	0.239200	0.250000
Zn121	Zn12	0.500000	0.865040	0.250000
Zn131	Zn13	0.000000	0.260800	0.750000
Zn141	Zn14	0.000000	0.634960	0.750000
Zn151	Zn15	0.500000	0.760800	0.750000
Zn161	Zn16	0.500000	0.134960	0.750000
