data_UKAZEM_clean_PM
_symmetry_space_group_name_H-M	'P1'
_cell_length_a	16.963000
_cell_length_b	18.283000
_cell_length_c	18.373000
_cell_angle_alpha	90.000000
_cell_angle_beta	90.000000
_cell_angle_gamma	90.000000
_symmetry_Int_Tables_number 1

loop_
_symmetry_equiv_pos_as_xyz
'x,y,z'

loop_
_atom_site_label
_atom_site_type_symbol
_atom_site_fract_x
_atom_site_fract_y
_atom_site_fract_z
Cu11	Cu1	0.635890	0.701620	0.943450
Cu21	Cu2	0.700960	0.556400	0.865940
Cu31	Cu3	0.552420	0.647190	0.793330
Mn11	Mn1	0.896100	0.592930	0.110030
Cl11	Cl1	0.705400	0.697800	0.820400
C11	C1	0.755300	0.672800	0.035100
C21	C2	0.725400	0.593300	0.009200
C31	C3	0.796500	0.546700	0.977000
O11	O1	0.808900	0.674600	0.079300
O21	O2	0.720400	0.725700	0.007500
O31	O3	0.692600	0.556200	0.072900
O41	O4	0.669000	0.599100	0.956900
O51	O5	0.849400	0.530000	0.023600
O61	O6	0.794000	0.528800	0.914700
C41	C4	0.681400	0.483300	0.738400
C51	C5	0.594800	0.503700	0.764300
C61	C6	0.548100	0.532500	0.698900
O71	O7	0.691300	0.449400	0.682500
O81	O8	0.736400	0.501300	0.782900
O91	O9	0.559300	0.441900	0.791600
O101	O10	0.599900	0.554900	0.817700
O111	O11	0.530500	0.492900	0.649400
O121	O12	0.529800	0.600900	0.702600
C71	C7	0.473300	0.772500	0.817800
C81	C8	0.485900	0.743200	0.893700
C91	C9	0.519800	0.803600	0.943500
O131	O13	0.436700	0.830700	0.809500
O141	O14	0.498700	0.736100	0.766300
O151	O15	0.413700	0.715900	0.919400
O161	O16	0.539800	0.683700	0.890300
O171	O17	0.479800	0.858000	0.956600
O181	O18	0.586100	0.791700	0.969500
Cu41	Cu4	0.864110	0.298380	0.443450
Cu51	Cu5	0.799040	0.443600	0.365940
Cu61	Cu6	0.947580	0.352810	0.293330
Mn21	Mn2	0.603900	0.407070	0.610030
Cl21	Cl2	0.794600	0.302200	0.320400
C101	C10	0.744700	0.327200	0.535100
C111	C11	0.774600	0.406700	0.509200
C121	C12	0.703500	0.453300	0.477000
O191	O19	0.691100	0.325400	0.579300
O201	O20	0.779600	0.274300	0.507500
O211	O21	0.807400	0.443800	0.572900
O221	O22	0.831000	0.400900	0.456900
O231	O23	0.650600	0.470000	0.523600
O241	O24	0.706000	0.471200	0.414700
C131	C13	0.818600	0.516700	0.238400
C141	C14	0.905200	0.496300	0.264300
C151	C15	0.951900	0.467500	0.198900
O251	O25	0.808700	0.550600	0.182500
O261	O26	0.763600	0.498700	0.282900
O271	O27	0.940700	0.558100	0.291600
O281	O28	0.900100	0.445100	0.317700
O291	O29	0.969500	0.507100	0.149400
O301	O30	0.970200	0.399100	0.202600
C161	C16	0.026700	0.227500	0.317800
C171	C17	0.014100	0.256800	0.393700
C181	C18	0.980200	0.196400	0.443500
O311	O31	0.063300	0.169300	0.309500
O321	O32	0.001300	0.263900	0.266300
O331	O33	0.086300	0.284100	0.419400
O341	O34	0.960200	0.316300	0.390300
O351	O35	0.020200	0.142000	0.456600
O361	O36	0.913900	0.208300	0.469500
Cu71	Cu7	0.364110	0.201620	0.556550
Cu81	Cu8	0.299040	0.056400	0.634060
Cu91	Cu9	0.447580	0.147190	0.706670
Mn31	Mn3	0.103900	0.092930	0.389970
Cl31	Cl3	0.294600	0.197800	0.679600
C191	C19	0.244700	0.172800	0.464900
C201	C20	0.274600	0.093300	0.490800
C211	C21	0.203500	0.046700	0.523000
O371	O37	0.191100	0.174600	0.420700
O381	O38	0.279600	0.225700	0.492500
O391	O39	0.307400	0.056200	0.427100
O401	O40	0.331000	0.099100	0.543100
O411	O41	0.150600	0.030000	0.476400
O421	O42	0.206000	0.028800	0.585300
C221	C22	0.318600	0.983300	0.761600
C231	C23	0.405200	0.003700	0.735700
C241	C24	0.451900	0.032500	0.801100
O431	O43	0.308700	0.949400	0.817500
O441	O44	0.263600	0.001300	0.717100
O451	O45	0.440700	0.941900	0.708400
O461	O46	0.400100	0.054900	0.682300
O471	O47	0.469500	0.992900	0.850600
O481	O48	0.470200	0.100900	0.797400
C251	C25	0.526700	0.272500	0.682200
C261	C26	0.514100	0.243200	0.606300
C271	C27	0.480200	0.303600	0.556500
O491	O49	0.563300	0.330700	0.690500
O501	O50	0.501300	0.236100	0.733700
O511	O51	0.586300	0.215900	0.580600
O521	O52	0.460200	0.183700	0.609700
O531	O53	0.520200	0.358000	0.543400
O541	O54	0.413900	0.291700	0.530500
Cu101	Cu10	0.135890	0.798380	0.056550
Cu111	Cu11	0.200960	0.943600	0.134060
Cu121	Cu12	0.052420	0.852810	0.206670
Mn41	Mn4	0.396100	0.907070	0.889970
Cl41	Cl4	0.205400	0.802200	0.179600
C281	C28	0.255300	0.827200	0.964900
C291	C29	0.225400	0.906700	0.990800
C301	C30	0.296500	0.953300	0.023000
O551	O55	0.308900	0.825400	0.920700
O561	O56	0.220400	0.774300	0.992500
O571	O57	0.192600	0.943800	0.927100
O581	O58	0.169000	0.900900	0.043100
O591	O59	0.349400	0.970000	0.976400
O601	O60	0.294000	0.971200	0.085300
C311	C31	0.181400	0.016700	0.261600
C321	C32	0.094800	0.996300	0.235700
C331	C33	0.048100	0.967500	0.301100
O611	O61	0.191300	0.050600	0.317500
O621	O62	0.236400	0.998700	0.217100
O631	O63	0.059300	0.058100	0.208400
O641	O64	0.099900	0.945100	0.182300
O651	O65	0.030500	0.007100	0.350600
O661	O66	0.029800	0.899100	0.297400
C341	C34	0.973300	0.727500	0.182200
C351	C35	0.985900	0.756800	0.106300
C361	C36	0.019800	0.696400	0.056500
O671	O67	0.936700	0.669300	0.190500
O681	O68	0.998700	0.763900	0.233700
O691	O69	0.913700	0.784100	0.080600
O701	O70	0.039800	0.816300	0.109700
O711	O71	0.979800	0.642000	0.043400
O721	O72	0.086100	0.708300	0.030500
