data_UKEXEP_clean_PM
_symmetry_space_group_name_H-M	'P1'
_cell_length_a	13.071900
_cell_length_b	22.534000
_cell_length_c	16.893800
_cell_angle_alpha	90.000000
_cell_angle_beta	99.908000
_cell_angle_gamma	90.000000
_symmetry_Int_Tables_number 1

loop_
_symmetry_equiv_pos_as_xyz
'x,y,z'

loop_
_atom_site_label
_atom_site_type_symbol
_atom_site_fract_x
_atom_site_fract_y
_atom_site_fract_z
C11	C1	0.718300	0.109710	0.080400
C21	C2	0.787100	0.055690	0.089900
C31	C3	0.799400	0.022910	0.020700
H11	H1	0.766500	0.035800	0.970500
C41	C4	0.859100	0.972600	0.026500
C51	C5	0.917700	0.956600	0.100800
H21	H2	0.963800	0.924900	0.104900
C61	C6	0.905300	0.989300	0.168100
C71	C7	0.839300	0.037230	0.165500
C81	C8	0.821400	0.072590	0.237200
C91	C9	0.738700	0.063210	0.277600
C101	C10	0.719900	0.098550	0.340800
H31	H3	0.664900	0.090000	0.367300
C111	C11	0.783700	0.146470	0.363800
C121	C12	0.862600	0.159890	0.322400
H41	H4	0.901700	0.194100	0.335200
C131	C13	0.884800	0.122660	0.261400
C141	C14	0.978200	0.133600	0.222700
C151	C15	0.861700	0.933000	0.955500
C161	C16	0.762400	0.185900	0.431000
C171	C17	0.570200	0.287800	0.156700
C181	C18	0.489400	0.300340	0.208100
C191	C19	0.514400	0.291600	0.290000
H51	H5	0.578300	0.275100	0.311600
C201	C20	0.445700	0.307080	0.340900
C211	C21	0.348700	0.328960	0.307700
H61	H6	0.301500	0.339500	0.340700
C221	C22	0.322700	0.334980	0.225300
C231	C23	0.392600	0.322180	0.172800
C241	C24	0.364800	0.324830	0.083500
C251	C25	0.401200	0.368500	0.034700
C261	C26	0.372600	0.369700	0.953100
H71	H7	0.398400	0.399100	0.923300
C271	C27	0.304800	0.327210	0.914700
C281	C28	0.269400	0.282880	0.960300
H81	H8	0.223900	0.254200	0.935200
C291	C29	0.300800	0.280960	0.042700
C301	C30	0.260500	0.231450	0.089300
C311	C31	0.480700	0.302000	0.429900
C321	C32	0.263500	0.331200	0.826100
Cd11	Cd1	0.480880	0.154030	0.104540
Cd21	Cd2	0.166130	0.146490	0.171280
Cd31	Cd3	0.694010	0.248150	0.047200
N11	N1	0.967300	0.970300	0.244500
N21	N2	0.664800	0.015450	0.251400
N31	N3	0.470100	0.416400	0.071400
N41	N4	0.217500	0.358900	0.194900
O11	O1	0.751100	0.154360	0.049700
O21	O2	0.634600	0.104850	0.105700
O31	O3	0.939000	0.983370	0.307500
O41	O4	0.047300	0.940900	0.241600
O51	O5	0.928000	0.894470	0.959500
O61	O6	0.790600	0.939210	0.895220
O71	O7	0.981600	0.180190	0.181500
O81	O8	0.049000	0.096450	0.234700
O91	O9	0.696400	0.970580	0.221900
O101	O10	0.573700	0.023620	0.258300
O111	O11	0.715600	0.163550	0.482100
O121	O12	0.791400	0.237980	0.434000
O131	O13	0.583500	0.234060	0.137600
O141	O14	0.619200	0.327800	0.133500
O151	O15	0.201400	0.382100	0.129200
O161	O16	0.152400	0.353880	0.236900
O171	O17	0.434700	0.332650	0.473450
O181	O18	0.553600	0.267000	0.453000
O191	O19	0.321000	0.192530	0.122260
O201	O20	0.165800	0.230990	0.092500
O211	O21	0.463200	0.432800	0.138500
O221	O22	0.528600	0.438100	0.031700
O231	O23	0.197600	0.295020	0.794630
O241	O24	0.295400	0.373360	0.786030
C331	C33	0.281700	0.609710	0.419600
C341	C34	0.212900	0.555690	0.410100
C351	C35	0.200600	0.522910	0.479300
H91	H9	0.233500	0.535800	0.529500
C361	C36	0.140900	0.472600	0.473500
C371	C37	0.082300	0.456600	0.399200
H101	H10	0.036200	0.424900	0.395100
C381	C38	0.094700	0.489300	0.331900
C391	C39	0.160700	0.537230	0.334500
C401	C40	0.178600	0.572590	0.262800
C411	C41	0.261300	0.563210	0.222400
C421	C42	0.280100	0.598550	0.159200
H111	H11	0.335100	0.590000	0.132700
C431	C43	0.216300	0.646470	0.136200
C441	C44	0.137400	0.659890	0.177600
H121	H12	0.098300	0.694100	0.164800
C451	C45	0.115200	0.622660	0.238600
C461	C46	0.021800	0.633600	0.277300
C471	C47	0.138300	0.433000	0.544500
C481	C48	0.237600	0.685900	0.069000
C491	C49	0.429800	0.787800	0.343300
C501	C50	0.510600	0.800340	0.291900
C511	C51	0.485600	0.791600	0.210000
H131	H13	0.421700	0.775100	0.188400
C521	C52	0.554300	0.807080	0.159100
C531	C53	0.651300	0.828960	0.192300
H141	H14	0.698500	0.839500	0.159300
C541	C54	0.677300	0.834980	0.274700
C551	C55	0.607400	0.822180	0.327200
C561	C56	0.635200	0.824830	0.416500
C571	C57	0.598800	0.868500	0.465300
C581	C58	0.627400	0.869700	0.546900
H151	H15	0.601600	0.899100	0.576700
C591	C59	0.695200	0.827210	0.585300
C601	C60	0.730600	0.782880	0.539700
H161	H16	0.776100	0.754200	0.564800
C611	C61	0.699200	0.780960	0.457300
C621	C62	0.739500	0.731450	0.410700
C631	C63	0.519300	0.802000	0.070100
C641	C64	0.736500	0.831200	0.673900
Cd41	Cd4	0.519120	0.654030	0.395460
Cd51	Cd5	0.833870	0.646490	0.328720
Cd61	Cd6	0.305990	0.748150	0.452800
N51	N5	0.032700	0.470300	0.255500
N61	N6	0.335200	0.515450	0.248600
N71	N7	0.529900	0.916400	0.428600
N81	N8	0.782500	0.858900	0.305100
O251	O25	0.248900	0.654360	0.450300
O261	O26	0.365400	0.604850	0.394300
O271	O27	0.061000	0.483370	0.192500
O281	O28	0.952700	0.440900	0.258400
O291	O29	0.072000	0.394470	0.540500
O301	O30	0.209400	0.439210	0.604780
O311	O31	0.018400	0.680190	0.318500
O321	O32	0.951000	0.596450	0.265300
O331	O33	0.303600	0.470580	0.278100
O341	O34	0.426300	0.523620	0.241700
O351	O35	0.284400	0.663550	0.017900
O361	O36	0.208600	0.737980	0.066000
O371	O37	0.416500	0.734060	0.362400
O381	O38	0.380800	0.827800	0.366500
O391	O39	0.798600	0.882100	0.370800
O401	O40	0.847600	0.853880	0.263100
O411	O41	0.565300	0.832650	0.026550
O421	O42	0.446400	0.767000	0.047000
O431	O43	0.679000	0.692530	0.377740
O441	O44	0.834200	0.730990	0.407500
O451	O45	0.536800	0.932800	0.361500
O461	O46	0.471400	0.938100	0.468300
O471	O47	0.802400	0.795020	0.705370
O481	O48	0.704600	0.873360	0.713970
C651	C65	0.281700	0.890290	0.919600
C661	C66	0.212900	0.944310	0.910100
C671	C67	0.200600	0.977090	0.979300
H171	H17	0.233500	0.964200	0.029500
C681	C68	0.140900	0.027400	0.973500
C691	C69	0.082300	0.043400	0.899200
H181	H18	0.036200	0.075100	0.895100
C701	C70	0.094700	0.010700	0.831900
C711	C71	0.160700	0.962770	0.834500
C721	C72	0.178600	0.927410	0.762800
C731	C73	0.261300	0.936790	0.722400
C741	C74	0.280100	0.901450	0.659200
H191	H19	0.335100	0.910000	0.632700
C751	C75	0.216300	0.853530	0.636200
C761	C76	0.137400	0.840110	0.677600
H201	H20	0.098300	0.805900	0.664800
C771	C77	0.115200	0.877340	0.738600
C781	C78	0.021800	0.866400	0.777300
C791	C79	0.138300	0.067000	0.044500
C801	C80	0.237600	0.814100	0.569000
C811	C81	0.429800	0.712200	0.843300
C821	C82	0.510600	0.699660	0.791900
C831	C83	0.485600	0.708400	0.710000
H211	H21	0.421700	0.724900	0.688400
C841	C84	0.554300	0.692920	0.659100
C851	C85	0.651300	0.671040	0.692300
H221	H22	0.698500	0.660500	0.659300
C861	C86	0.677300	0.665020	0.774700
C871	C87	0.607400	0.677820	0.827200
C881	C88	0.635200	0.675170	0.916500
C891	C89	0.598800	0.631500	0.965300
C901	C90	0.627400	0.630300	0.046900
H231	H23	0.601600	0.600900	0.076700
C911	C91	0.695200	0.672790	0.085300
C921	C92	0.730600	0.717120	0.039700
H241	H24	0.776100	0.745800	0.064800
C931	C93	0.699200	0.719040	0.957300
C941	C94	0.739500	0.768550	0.910700
C951	C95	0.519300	0.698000	0.570100
C961	C96	0.736500	0.668800	0.173900
Cd71	Cd7	0.519120	0.845970	0.895460
Cd81	Cd8	0.833870	0.853510	0.828720
Cd91	Cd9	0.305990	0.751850	0.952800
N91	N9	0.032700	0.029700	0.755500
N101	N10	0.335200	0.984550	0.748600
N111	N11	0.529900	0.583600	0.928600
N121	N12	0.782500	0.641100	0.805100
O491	O49	0.248900	0.845640	0.950300
O501	O50	0.365400	0.895150	0.894300
O511	O51	0.061000	0.016630	0.692500
O521	O52	0.952700	0.059100	0.758400
O531	O53	0.072000	0.105530	0.040500
O541	O54	0.209400	0.060790	0.104780
O551	O55	0.018400	0.819810	0.818500
O561	O56	0.951000	0.903550	0.765300
O571	O57	0.303600	0.029420	0.778100
O581	O58	0.426300	0.976380	0.741700
O591	O59	0.284400	0.836450	0.517900
O601	O60	0.208600	0.762020	0.566000
O611	O61	0.416500	0.765940	0.862400
O621	O62	0.380800	0.672200	0.866500
O631	O63	0.798600	0.617900	0.870800
O641	O64	0.847600	0.646120	0.763100
O651	O65	0.565300	0.667350	0.526550
O661	O66	0.446400	0.733000	0.547000
O671	O67	0.679000	0.807470	0.877740
O681	O68	0.834200	0.769010	0.907500
O691	O69	0.536800	0.567200	0.861500
O701	O70	0.471400	0.561900	0.968300
O711	O71	0.802400	0.704980	0.205370
O721	O72	0.704600	0.626640	0.213970
C971	C97	0.718300	0.390290	0.580400
C981	C98	0.787100	0.444310	0.589900
C991	C99	0.799400	0.477090	0.520700
H251	H25	0.766500	0.464200	0.470500
C1001	C100	0.859100	0.527400	0.526500
C1011	C101	0.917700	0.543400	0.600800
H261	H26	0.963800	0.575100	0.604900
C1021	C102	0.905300	0.510700	0.668100
C1031	C103	0.839300	0.462770	0.665500
C1041	C104	0.821400	0.427410	0.737200
C1051	C105	0.738700	0.436790	0.777600
C1061	C106	0.719900	0.401450	0.840800
H271	H27	0.664900	0.410000	0.867300
C1071	C107	0.783700	0.353530	0.863800
C1081	C108	0.862600	0.340110	0.822400
H281	H28	0.901700	0.305900	0.835200
C1091	C109	0.884800	0.377340	0.761400
C1101	C110	0.978200	0.366400	0.722700
C1111	C111	0.861700	0.567000	0.455500
C1121	C112	0.762400	0.314100	0.931000
C1131	C113	0.570200	0.212200	0.656700
C1141	C114	0.489400	0.199660	0.708100
C1151	C115	0.514400	0.208400	0.790000
H291	H29	0.578300	0.224900	0.811600
C1161	C116	0.445700	0.192920	0.840900
C1171	C117	0.348700	0.171040	0.807700
H301	H30	0.301500	0.160500	0.840700
C1181	C118	0.322700	0.165020	0.725300
C1191	C119	0.392600	0.177820	0.672800
C1201	C120	0.364800	0.175170	0.583500
C1211	C121	0.401200	0.131500	0.534700
C1221	C122	0.372600	0.130300	0.453100
H311	H31	0.398400	0.100900	0.423300
C1231	C123	0.304800	0.172790	0.414700
C1241	C124	0.269400	0.217120	0.460300
H321	H32	0.223900	0.245800	0.435200
C1251	C125	0.300800	0.219040	0.542700
C1261	C126	0.260500	0.268550	0.589300
C1271	C127	0.480700	0.198000	0.929900
C1281	C128	0.263500	0.168800	0.326100
Cd101	Cd10	0.480880	0.345970	0.604540
Cd111	Cd11	0.166130	0.353510	0.671280
Cd121	Cd12	0.694010	0.251850	0.547200
N131	N13	0.967300	0.529700	0.744500
N141	N14	0.664800	0.484550	0.751400
N151	N15	0.470100	0.083600	0.571400
N161	N16	0.217500	0.141100	0.694900
O731	O73	0.751100	0.345640	0.549700
O741	O74	0.634600	0.395150	0.605700
O751	O75	0.939000	0.516630	0.807500
O761	O76	0.047300	0.559100	0.741600
O771	O77	0.928000	0.605530	0.459500
O781	O78	0.790600	0.560790	0.395220
O791	O79	0.981600	0.319810	0.681500
O801	O80	0.049000	0.403550	0.734700
O811	O81	0.696400	0.529420	0.721900
O821	O82	0.573700	0.476380	0.758300
O831	O83	0.715600	0.336450	0.982100
O841	O84	0.791400	0.262020	0.934000
O851	O85	0.583500	0.265940	0.637600
O861	O86	0.619200	0.172200	0.633500
O871	O87	0.201400	0.117900	0.629200
O881	O88	0.152400	0.146120	0.736900
O891	O89	0.434700	0.167350	0.973450
O901	O90	0.553600	0.233000	0.953000
O911	O91	0.321000	0.307470	0.622260
O921	O92	0.165800	0.269010	0.592500
O931	O93	0.463200	0.067200	0.638500
O941	O94	0.528600	0.061900	0.531700
O951	O95	0.197600	0.204980	0.294630
O961	O96	0.295400	0.126640	0.286030
