data_UKUBUY_clean_PM
_symmetry_space_group_name_H-M	'P1'
_cell_length_a	12.147000
_cell_length_b	12.147000
_cell_length_c	24.744000
_cell_angle_alpha	90.000000
_cell_angle_beta	90.000000
_cell_angle_gamma	90.000000
_symmetry_Int_Tables_number 1

loop_
_symmetry_equiv_pos_as_xyz
'x,y,z'

loop_
_atom_site_label
_atom_site_type_symbol
_atom_site_fract_x
_atom_site_fract_y
_atom_site_fract_z
Fe11	Fe1	0.750000	0.750000	0.921120
Fe21	Fe2	0.250000	0.250000	0.421120
H11	H1	0.584400	0.569000	0.876300
H21	H2	0.567100	0.431000	0.814600
H31	H3	0.860400	0.517400	0.754500
H41	H4	0.871300	0.649400	0.820300
H51	H5	0.802600	0.411000	0.683200
H61	H6	0.854900	0.329600	0.725600
H71	H7	0.818800	0.159000	0.609500
H81	H8	0.900800	0.174400	0.658100
H91	H9	0.089600	0.111800	0.494800
H101	H10	0.963500	0.121100	0.563400
H111	H11	0.007400	0.444300	0.564600
H121	H12	0.130100	0.424400	0.494900
H131	H13	0.530700	0.874700	0.917100
H141	H14	0.915600	0.931000	0.876300
H151	H15	0.932900	0.069000	0.814600
H161	H16	0.639600	0.982600	0.754500
H171	H17	0.628700	0.850600	0.820300
H181	H18	0.697400	0.089000	0.683200
H191	H19	0.645100	0.170400	0.725600
H201	H20	0.681200	0.341000	0.609500
H211	H21	0.599200	0.325600	0.658100
H221	H22	0.410400	0.388200	0.494800
H231	H23	0.536500	0.378900	0.563400
H241	H24	0.492600	0.055700	0.564600
H251	H25	0.369900	0.075600	0.494900
H261	H26	0.969300	0.625300	0.917100
H271	H27	0.431000	0.084400	0.376300
H281	H28	0.569000	0.067100	0.314600
H291	H29	0.482600	0.360400	0.254500
H301	H30	0.350600	0.371300	0.320300
H311	H31	0.589000	0.302600	0.183200
H321	H32	0.670400	0.354900	0.225600
H331	H33	0.841000	0.318800	0.109500
H341	H34	0.825600	0.400800	0.158100
H351	H35	0.888200	0.589600	0.994800
H361	H36	0.878900	0.463500	0.063400
H371	H37	0.555700	0.507400	0.064600
H381	H38	0.575600	0.630100	0.994900
H391	H39	0.125300	0.030700	0.417100
H401	H40	0.069000	0.415600	0.376300
H411	H41	0.931000	0.432900	0.314600
H421	H42	0.017400	0.139600	0.254500
H431	H43	0.149400	0.128700	0.320300
H441	H44	0.911000	0.197400	0.183200
H451	H45	0.829600	0.145100	0.225600
H461	H46	0.659000	0.181200	0.109500
H471	H47	0.674400	0.099200	0.158100
H481	H48	0.611800	0.910400	0.994800
H491	H49	0.621100	0.036500	0.063400
H501	H50	0.944300	0.992600	0.064600
H511	H51	0.924400	0.869900	0.994900
H521	H52	0.374700	0.469300	0.417100
C11	C1	0.641900	0.557100	0.852120
C21	C2	0.630300	0.474300	0.815140
C31	C3	0.714800	0.456000	0.778300
C41	C4	0.804000	0.524600	0.779720
C51	C5	0.809200	0.604800	0.819200
C61	C6	0.788100	0.347800	0.706120
C71	C7	0.845600	0.211000	0.636220
C81	C8	0.071800	0.180800	0.508560
C91	C9	0.995000	0.185300	0.550000
C101	C10	0.966400	0.285500	0.570770
C111	C11	0.020700	0.374700	0.550410
C121	C12	0.095800	0.361800	0.508590
C131	C13	0.858100	0.942900	0.852120
C141	C14	0.869700	0.025700	0.815140
C151	C15	0.785200	0.044000	0.778300
C161	C16	0.696000	0.975400	0.779720
C171	C17	0.690800	0.895200	0.819200
C181	C18	0.711900	0.152200	0.706120
C191	C19	0.654400	0.289000	0.636220
C201	C20	0.428200	0.319200	0.508560
C211	C21	0.505000	0.314700	0.550000
C221	C22	0.533600	0.214500	0.570770
C231	C23	0.479300	0.125300	0.550410
C241	C24	0.404200	0.138200	0.508590
C251	C25	0.442900	0.141900	0.352120
C261	C26	0.525700	0.130300	0.315140
C271	C27	0.544000	0.214800	0.278300
C281	C28	0.475400	0.304000	0.279720
C291	C29	0.395200	0.309200	0.319200
C301	C30	0.652200	0.288100	0.206120
C311	C31	0.789000	0.345600	0.136220
C321	C32	0.819200	0.571800	0.008560
C331	C33	0.814700	0.495000	0.050000
C341	C34	0.714500	0.466400	0.070770
C351	C35	0.625300	0.520700	0.050410
C361	C36	0.638200	0.595800	0.008590
C371	C37	0.057100	0.358100	0.352120
C381	C38	0.974300	0.369700	0.315140
C391	C39	0.956000	0.285200	0.278300
C401	C40	0.024600	0.196000	0.279720
C411	C41	0.104800	0.190800	0.319200
C421	C42	0.847800	0.211900	0.206120
C431	C43	0.711000	0.154400	0.136220
C441	C44	0.680800	0.928200	0.008560
C451	C45	0.685300	0.005000	0.050000
C461	C46	0.785500	0.033600	0.070770
C471	C47	0.874700	0.979300	0.050410
C481	C48	0.861800	0.904200	0.008590
C491	C49	0.750000	0.250000	0.672200
C501	C50	0.750000	0.250000	0.172200
S11	S1	0.550280	0.777960	0.919360
S21	S2	0.949720	0.722040	0.919360
S31	S3	0.222040	0.050280	0.419360
S41	S4	0.277960	0.449720	0.419360
N11	N1	0.730400	0.622200	0.855900
N21	N2	0.121200	0.266100	0.487330
N31	N3	0.769600	0.877800	0.855900
N41	N4	0.378800	0.233900	0.487330
N51	N5	0.377800	0.230400	0.355900
N61	N6	0.733900	0.621200	0.987330
N71	N7	0.122200	0.269600	0.355900
N81	N8	0.766100	0.878800	0.987330
O11	O1	0.892400	0.303400	0.610090
O21	O2	0.700400	0.371500	0.743100
O31	O3	0.607600	0.196600	0.610090
O41	O4	0.799600	0.128500	0.743100
O51	O5	0.696600	0.392400	0.110090
O61	O6	0.628500	0.200400	0.243100
O71	O7	0.803400	0.107600	0.110090
O81	O8	0.871500	0.299600	0.243100
Fe31	Fe3	0.250000	0.250000	0.078880
Fe41	Fe4	0.750000	0.750000	0.578880
H531	H53	0.415600	0.431000	0.123700
H541	H54	0.432900	0.569000	0.185400
H551	H55	0.139600	0.482600	0.245500
H561	H56	0.128700	0.350600	0.179700
H571	H57	0.197400	0.589000	0.316800
H581	H58	0.145100	0.670400	0.274400
H591	H59	0.181200	0.841000	0.390500
H601	H60	0.099200	0.825600	0.341900
H611	H61	0.910400	0.888200	0.505200
H621	H62	0.036500	0.878900	0.436600
H631	H63	0.992600	0.555700	0.435400
H641	H64	0.869900	0.575600	0.505100
H651	H65	0.469300	0.125300	0.082900
H661	H66	0.084400	0.069000	0.123700
H671	H67	0.067100	0.931000	0.185400
H681	H68	0.360400	0.017400	0.245500
H691	H69	0.371300	0.149400	0.179700
H701	H70	0.302600	0.911000	0.316800
H711	H71	0.354900	0.829600	0.274400
H721	H72	0.318800	0.659000	0.390500
H731	H73	0.400800	0.674400	0.341900
H741	H74	0.589600	0.611800	0.505200
H751	H75	0.463500	0.621100	0.436600
H761	H76	0.507400	0.944300	0.435400
H771	H77	0.630100	0.924400	0.505100
H781	H78	0.030700	0.374700	0.082900
H791	H79	0.569000	0.915600	0.623700
H801	H80	0.431000	0.932900	0.685400
H811	H81	0.517400	0.639600	0.745500
H821	H82	0.649400	0.628700	0.679700
H831	H83	0.411000	0.697400	0.816800
H841	H84	0.329600	0.645100	0.774400
H851	H85	0.159000	0.681200	0.890500
H861	H86	0.174400	0.599200	0.841900
H871	H87	0.111800	0.410400	0.005200
H881	H88	0.121100	0.536500	0.936600
H891	H89	0.444300	0.492600	0.935400
H901	H90	0.424400	0.369900	0.005100
H911	H91	0.874700	0.969300	0.582900
H921	H92	0.931000	0.584400	0.623700
H931	H93	0.069000	0.567100	0.685400
H941	H94	0.982600	0.860400	0.745500
H951	H95	0.850600	0.871300	0.679700
H961	H96	0.089000	0.802600	0.816800
H971	H97	0.170400	0.854900	0.774400
H981	H98	0.341000	0.818800	0.890500
H991	H99	0.325600	0.900800	0.841900
H1001	H100	0.388200	0.089600	0.005200
H1011	H101	0.378900	0.963500	0.936600
H1021	H102	0.055700	0.007400	0.935400
H1031	H103	0.075600	0.130100	0.005100
H1041	H104	0.625300	0.530700	0.582900
C511	C51	0.358100	0.442900	0.147880
C521	C52	0.369700	0.525700	0.184860
C531	C53	0.285200	0.544000	0.221700
C541	C54	0.196000	0.475400	0.220280
C551	C55	0.190800	0.395200	0.180800
C561	C56	0.211900	0.652200	0.293880
C571	C57	0.154400	0.789000	0.363780
C581	C58	0.928200	0.819200	0.491440
C591	C59	0.005000	0.814700	0.450000
C601	C60	0.033600	0.714500	0.429230
C611	C61	0.979300	0.625300	0.449590
C621	C62	0.904200	0.638200	0.491410
C631	C63	0.141900	0.057100	0.147880
C641	C64	0.130300	0.974300	0.184860
C651	C65	0.214800	0.956000	0.221700
C661	C66	0.304000	0.024600	0.220280
C671	C67	0.309200	0.104800	0.180800
C681	C68	0.288100	0.847800	0.293880
C691	C69	0.345600	0.711000	0.363780
C701	C70	0.571800	0.680800	0.491440
C711	C71	0.495000	0.685300	0.450000
C721	C72	0.466400	0.785500	0.429230
C731	C73	0.520700	0.874700	0.449590
C741	C74	0.595800	0.861800	0.491410
C751	C75	0.557100	0.858100	0.647880
C761	C76	0.474300	0.869700	0.684860
C771	C77	0.456000	0.785200	0.721700
C781	C78	0.524600	0.696000	0.720280
C791	C79	0.604800	0.690800	0.680800
C801	C80	0.347800	0.711900	0.793880
C811	C81	0.211000	0.654400	0.863780
C821	C82	0.180800	0.428200	0.991440
C831	C83	0.185300	0.505000	0.950000
C841	C84	0.285500	0.533600	0.929230
C851	C85	0.374700	0.479300	0.949590
C861	C86	0.361800	0.404200	0.991410
C871	C87	0.942900	0.641900	0.647880
C881	C88	0.025700	0.630300	0.684860
C891	C89	0.044000	0.714800	0.721700
C901	C90	0.975400	0.804000	0.720280
C911	C91	0.895200	0.809200	0.680800
C921	C92	0.152200	0.788100	0.793880
C931	C93	0.289000	0.845600	0.863780
C941	C94	0.319200	0.071800	0.991440
C951	C95	0.314700	0.995000	0.950000
C961	C96	0.214500	0.966400	0.929230
C971	C97	0.125300	0.020700	0.949590
C981	C98	0.138200	0.095800	0.991410
C991	C99	0.250000	0.750000	0.327800
C1001	C100	0.250000	0.750000	0.827800
S51	S5	0.449720	0.222040	0.080640
S61	S6	0.050280	0.277960	0.080640
S71	S7	0.777960	0.949720	0.580640
S81	S8	0.722040	0.550280	0.580640
N91	N9	0.269600	0.377800	0.144100
N101	N10	0.878800	0.733900	0.512670
N111	N11	0.230400	0.122200	0.144100
N121	N12	0.621200	0.766100	0.512670
N131	N13	0.622200	0.769600	0.644100
N141	N14	0.266100	0.378800	0.012670
N151	N15	0.877800	0.730400	0.644100
N161	N16	0.233900	0.121200	0.012670
O91	O9	0.107600	0.696600	0.389910
O101	O10	0.299600	0.628500	0.256900
O111	O11	0.392400	0.803400	0.389910
O121	O12	0.200400	0.871500	0.256900
O131	O13	0.303400	0.607600	0.889910
O141	O14	0.371500	0.799600	0.756900
O151	O15	0.196600	0.892400	0.889910
O161	O16	0.128500	0.700400	0.756900
