data_UKUBOS_clean_PM
_symmetry_space_group_name_H-M	'P1'
_cell_length_a	12.175000
_cell_length_b	12.175000
_cell_length_c	24.924000
_cell_angle_alpha	90.000000
_cell_angle_beta	90.000000
_cell_angle_gamma	90.000000
_symmetry_Int_Tables_number 1

loop_
_symmetry_equiv_pos_as_xyz
'x,y,z'

loop_
_atom_site_label
_atom_site_type_symbol
_atom_site_fract_x
_atom_site_fract_y
_atom_site_fract_z
Mn11	Mn1	0.750000	0.750000	0.923840
Mn21	Mn2	0.250000	0.250000	0.423840
H11	H1	0.922900	0.919100	0.872300
H21	H2	0.057500	0.938700	0.809000
H31	H3	0.993800	0.631400	0.761400
H41	H4	0.861300	0.624900	0.826400
H51	H5	0.174300	0.647500	0.729200
H61	H6	0.092000	0.692900	0.685800
H71	H7	0.325800	0.599600	0.661400
H81	H8	0.344300	0.681900	0.613600
H91	H9	0.055500	0.500600	0.564300
H101	H10	0.378800	0.535400	0.568800
H111	H11	0.077000	0.381100	0.494900
H121	H12	0.388900	0.399300	0.503700
H131	H13	0.759200	0.518000	0.888400
H141	H14	0.577100	0.580900	0.872300
H151	H15	0.442500	0.561300	0.809000
H161	H16	0.506200	0.868600	0.761400
H171	H17	0.638700	0.875100	0.826400
H181	H18	0.325700	0.852500	0.729200
H191	H19	0.408000	0.807100	0.685800
H201	H20	0.174200	0.900400	0.661400
H211	H21	0.155700	0.818100	0.613600
H221	H22	0.444500	0.999400	0.564300
H231	H23	0.121200	0.964600	0.568800
H241	H24	0.423000	0.118900	0.494900
H251	H25	0.111100	0.100700	0.503700
H261	H26	0.740800	0.982000	0.888400
H271	H27	0.080900	0.422900	0.372300
H281	H28	0.061300	0.557500	0.309000
H291	H29	0.368600	0.493800	0.261400
H301	H30	0.375100	0.361300	0.326400
H311	H31	0.352500	0.674300	0.229200
H321	H32	0.307100	0.592000	0.185800
H331	H33	0.400400	0.825800	0.161400
H341	H34	0.318100	0.844300	0.113600
H351	H35	0.499400	0.555500	0.064300
H361	H36	0.464600	0.878800	0.068800
H371	H37	0.618900	0.577000	0.994900
H381	H38	0.600700	0.888900	0.003700
H391	H39	0.482000	0.259200	0.388400
H401	H40	0.419100	0.077100	0.372300
H411	H41	0.438700	0.942500	0.309000
H421	H42	0.131400	0.006200	0.261400
H431	H43	0.124900	0.138700	0.326400
H441	H44	0.147500	0.825700	0.229200
H451	H45	0.192900	0.908000	0.185800
H461	H46	0.099600	0.674200	0.161400
H471	H47	0.181900	0.655700	0.113600
H481	H48	0.000600	0.944500	0.064300
H491	H49	0.035400	0.621200	0.068800
H501	H50	0.881100	0.923000	0.994900
H511	H51	0.899300	0.611100	0.003700
H521	H52	0.018000	0.240800	0.388400
C11	C1	0.937700	0.860000	0.849800
C21	C2	0.019200	0.872900	0.811960
C31	C3	0.042400	0.786200	0.778900
C41	C4	0.981700	0.691400	0.783780
C51	C5	0.902400	0.689000	0.823060
C61	C6	0.153900	0.711800	0.708460
C71	C7	0.290900	0.655200	0.639380
C81	C8	0.214600	0.536600	0.572510
C91	C9	0.125400	0.485700	0.551180
C101	C10	0.315100	0.504800	0.554670
C111	C11	0.139800	0.411900	0.509910
C121	C12	0.320000	0.424300	0.514260
C131	C13	0.562300	0.640000	0.849800
C141	C14	0.480800	0.627100	0.811960
C151	C15	0.457600	0.713800	0.778900
C161	C16	0.518300	0.808600	0.783780
C171	C17	0.597600	0.811000	0.823060
C181	C18	0.346100	0.788200	0.708460
C191	C19	0.209100	0.844800	0.639380
C201	C20	0.285400	0.963400	0.572510
C211	C21	0.374600	0.014300	0.551180
C221	C22	0.184900	0.995200	0.554670
C231	C23	0.360200	0.088100	0.509910
C241	C24	0.180000	0.075700	0.514260
C251	C25	0.140000	0.437700	0.349800
C261	C26	0.127100	0.519200	0.311960
C271	C27	0.213800	0.542400	0.278900
C281	C28	0.308600	0.481700	0.283780
C291	C29	0.311000	0.402400	0.323060
C301	C30	0.288200	0.653900	0.208460
C311	C31	0.344800	0.790900	0.139380
C321	C32	0.463400	0.714600	0.072510
C331	C33	0.514300	0.625400	0.051180
C341	C34	0.495200	0.815100	0.054670
C351	C35	0.588100	0.639800	0.009910
C361	C36	0.575700	0.820000	0.014260
C371	C37	0.360000	0.062300	0.349800
C381	C38	0.372900	0.980800	0.311960
C391	C39	0.286200	0.957600	0.278900
C401	C40	0.191400	0.018300	0.283780
C411	C41	0.189000	0.097600	0.323060
C421	C42	0.211800	0.846100	0.208460
C431	C43	0.155200	0.709100	0.139380
C441	C44	0.036600	0.785400	0.072510
C451	C45	0.985700	0.874600	0.051180
C461	C46	0.004800	0.684900	0.054670
C471	C47	0.911900	0.860200	0.009910
C481	C48	0.924300	0.680000	0.014260
C491	C49	0.250000	0.750000	0.674490
C501	C50	0.250000	0.750000	0.174490
S11	S1	0.776790	0.546270	0.923340
S21	S2	0.723210	0.953730	0.923340
S31	S3	0.453730	0.276790	0.423340
S41	S4	0.046270	0.223210	0.423340
N11	N1	0.879700	0.770500	0.856430
N21	N2	0.232900	0.381900	0.490360
N31	N3	0.620300	0.729500	0.856430
N41	N4	0.267100	0.118100	0.490360
N51	N5	0.229500	0.379700	0.356430
N61	N6	0.618100	0.732900	0.990360
N71	N7	0.270500	0.120300	0.356430
N81	N8	0.881900	0.767100	0.990360
O11	O1	0.125400	0.800700	0.743540
O21	O2	0.197740	0.609330	0.612000
O31	O3	0.374600	0.699300	0.743540
O41	O4	0.302260	0.890670	0.612000
O51	O5	0.199300	0.625400	0.243540
O61	O6	0.390670	0.697740	0.112000
O71	O7	0.300700	0.874600	0.243540
O81	O8	0.109330	0.802260	0.112000
Mn31	Mn3	0.250000	0.250000	0.076160
Mn41	Mn4	0.750000	0.750000	0.576160
H531	H53	0.077100	0.080900	0.127700
H541	H54	0.942500	0.061300	0.191000
H551	H55	0.006200	0.368600	0.238600
H561	H56	0.138700	0.375100	0.173600
H571	H57	0.825700	0.352500	0.270800
H581	H58	0.908000	0.307100	0.314200
H591	H59	0.674200	0.400400	0.338600
H601	H60	0.655700	0.318100	0.386400
H611	H61	0.944500	0.499400	0.435700
H621	H62	0.621200	0.464600	0.431200
H631	H63	0.923000	0.618900	0.505100
H641	H64	0.611100	0.600700	0.496300
H651	H65	0.240800	0.482000	0.111600
H661	H66	0.422900	0.419100	0.127700
H671	H67	0.557500	0.438700	0.191000
H681	H68	0.493800	0.131400	0.238600
H691	H69	0.361300	0.124900	0.173600
H701	H70	0.674300	0.147500	0.270800
H711	H71	0.592000	0.192900	0.314200
H721	H72	0.825800	0.099600	0.338600
H731	H73	0.844300	0.181900	0.386400
H741	H74	0.555500	0.000600	0.435700
H751	H75	0.878800	0.035400	0.431200
H761	H76	0.577000	0.881100	0.505100
H771	H77	0.888900	0.899300	0.496300
H781	H78	0.259200	0.018000	0.111600
H791	H79	0.919100	0.577100	0.627700
H801	H80	0.938700	0.442500	0.691000
H811	H81	0.631400	0.506200	0.738600
H821	H82	0.624900	0.638700	0.673600
H831	H83	0.647500	0.325700	0.770800
H841	H84	0.692900	0.408000	0.814200
H851	H85	0.599600	0.174200	0.838600
H861	H86	0.681900	0.155700	0.886400
H871	H87	0.500600	0.444500	0.935700
H881	H88	0.535400	0.121200	0.931200
H891	H89	0.381100	0.423000	0.005100
H901	H90	0.399300	0.111100	0.996300
H911	H91	0.518000	0.740800	0.611600
H921	H92	0.580900	0.922900	0.627700
H931	H93	0.561300	0.057500	0.691000
H941	H94	0.868600	0.993800	0.738600
H951	H95	0.875100	0.861300	0.673600
H961	H96	0.852500	0.174300	0.770800
H971	H97	0.807100	0.092000	0.814200
H981	H98	0.900400	0.325800	0.838600
H991	H99	0.818100	0.344300	0.886400
H1001	H100	0.999400	0.055500	0.935700
H1011	H101	0.964600	0.378800	0.931200
H1021	H102	0.118900	0.077000	0.005100
H1031	H103	0.100700	0.388900	0.996300
H1041	H104	0.982000	0.759200	0.611600
C511	C51	0.062300	0.140000	0.150200
C521	C52	0.980800	0.127100	0.188040
C531	C53	0.957600	0.213800	0.221100
C541	C54	0.018300	0.308600	0.216220
C551	C55	0.097600	0.311000	0.176940
C561	C56	0.846100	0.288200	0.291540
C571	C57	0.709100	0.344800	0.360620
C581	C58	0.785400	0.463400	0.427490
C591	C59	0.874600	0.514300	0.448820
C601	C60	0.684900	0.495200	0.445330
C611	C61	0.860200	0.588100	0.490090
C621	C62	0.680000	0.575700	0.485740
C631	C63	0.437700	0.360000	0.150200
C641	C64	0.519200	0.372900	0.188040
C651	C65	0.542400	0.286200	0.221100
C661	C66	0.481700	0.191400	0.216220
C671	C67	0.402400	0.189000	0.176940
C681	C68	0.653900	0.211800	0.291540
C691	C69	0.790900	0.155200	0.360620
C701	C70	0.714600	0.036600	0.427490
C711	C71	0.625400	0.985700	0.448820
C721	C72	0.815100	0.004800	0.445330
C731	C73	0.639800	0.911900	0.490090
C741	C74	0.820000	0.924300	0.485740
C751	C75	0.860000	0.562300	0.650200
C761	C76	0.872900	0.480800	0.688040
C771	C77	0.786200	0.457600	0.721100
C781	C78	0.691400	0.518300	0.716220
C791	C79	0.689000	0.597600	0.676940
C801	C80	0.711800	0.346100	0.791540
C811	C81	0.655200	0.209100	0.860620
C821	C82	0.536600	0.285400	0.927490
C831	C83	0.485700	0.374600	0.948820
C841	C84	0.504800	0.184900	0.945330
C851	C85	0.411900	0.360200	0.990090
C861	C86	0.424300	0.180000	0.985740
C871	C87	0.640000	0.937700	0.650200
C881	C88	0.627100	0.019200	0.688040
C891	C89	0.713800	0.042400	0.721100
C901	C90	0.808600	0.981700	0.716220
C911	C91	0.811000	0.902400	0.676940
C921	C92	0.788200	0.153900	0.791540
C931	C93	0.844800	0.290900	0.860620
C941	C94	0.963400	0.214600	0.927490
C951	C95	0.014300	0.125400	0.948820
C961	C96	0.995200	0.315100	0.945330
C971	C97	0.088100	0.139800	0.990090
C981	C98	0.075700	0.320000	0.985740
C991	C99	0.750000	0.250000	0.325510
C1001	C100	0.750000	0.250000	0.825510
S51	S5	0.223210	0.453730	0.076660
S61	S6	0.276790	0.046270	0.076660
S71	S7	0.546270	0.723210	0.576660
S81	S8	0.953730	0.776790	0.576660
N91	N9	0.120300	0.229500	0.143570
N101	N10	0.767100	0.618100	0.509640
N111	N11	0.379700	0.270500	0.143570
N121	N12	0.732900	0.881900	0.509640
N131	N13	0.770500	0.620300	0.643570
N141	N14	0.381900	0.267100	0.009640
N151	N15	0.729500	0.879700	0.643570
N161	N16	0.118100	0.232900	0.009640
O91	O9	0.874600	0.199300	0.256460
O101	O10	0.802260	0.390670	0.388000
O111	O11	0.625400	0.300700	0.256460
O121	O12	0.697740	0.109330	0.388000
O131	O13	0.800700	0.374600	0.756460
O141	O14	0.609330	0.302260	0.888000
O151	O15	0.699300	0.125400	0.756460
O161	O16	0.890670	0.197740	0.888000
