data_UKUMAO01_clean_PM
_symmetry_space_group_name_H-M	'P1'
_cell_length_a	7.227200
_cell_length_b	13.307500
_cell_length_c	14.615700
_cell_angle_alpha	90.000000
_cell_angle_beta	90.944000
_cell_angle_gamma	90.000000
_symmetry_Int_Tables_number 1

loop_
_symmetry_equiv_pos_as_xyz
'x,y,z'

loop_
_atom_site_label
_atom_site_type_symbol
_atom_site_fract_x
_atom_site_fract_y
_atom_site_fract_z
Fe11	Fe1	0.500000	0.500000	0.000000
Fe21	Fe2	0.000000	0.000000	0.000000
Fe31	Fe3	0.000000	0.000000	0.500000
Fe41	Fe4	0.500000	0.500000	0.500000
H11	H1	0.397000	0.289000	0.019000
H21	H2	0.405000	0.148000	0.128000
H31	H3	0.498000	0.184000	0.275000
H41	H4	0.524000	0.465000	0.202000
H51	H5	0.103000	0.789000	0.981000
H61	H6	0.095000	0.648000	0.872000
H71	H7	0.002000	0.684000	0.725000
H81	H8	0.976000	0.965000	0.798000
H91	H9	0.603000	0.711000	0.981000
H101	H10	0.595000	0.852000	0.872000
H111	H11	0.502000	0.816000	0.725000
H121	H12	0.476000	0.535000	0.798000
H131	H13	0.897000	0.211000	0.019000
H141	H14	0.905000	0.352000	0.128000
H151	H15	0.998000	0.316000	0.275000
H161	H16	0.024000	0.035000	0.202000
Au11	Au1	0.731770	0.245110	0.750960
Au21	Au2	0.977680	0.455690	0.768250
Au31	Au3	0.768230	0.745110	0.249040
Au41	Au4	0.522320	0.955690	0.231750
Au51	Au5	0.268230	0.754890	0.249040
Au61	Au6	0.022320	0.544310	0.231750
Au71	Au7	0.231770	0.254890	0.750960
Au81	Au8	0.477680	0.044310	0.768250
C11	C1	0.658400	0.333100	0.854200
C21	C2	0.135700	0.451700	0.881100
C31	C3	0.429900	0.289800	0.081500
C41	C4	0.436000	0.212300	0.144300
C51	C5	0.481500	0.236000	0.233000
C61	C6	0.505400	0.400300	0.194500
C71	C7	0.807300	0.157300	0.647500
C81	C8	0.821500	0.480200	0.659200
C91	C9	0.841600	0.833100	0.145800
C101	C10	0.364300	0.951700	0.118900
C111	C11	0.070100	0.789800	0.918500
C121	C12	0.064000	0.712300	0.855700
C131	C13	0.018500	0.736000	0.767000
C141	C14	0.994600	0.900300	0.805500
C151	C15	0.692700	0.657300	0.352500
C161	C16	0.678500	0.980200	0.340800
C171	C17	0.341600	0.666900	0.145800
C181	C18	0.864300	0.548300	0.118900
C191	C19	0.570100	0.710200	0.918500
C201	C20	0.564000	0.787700	0.855700
C211	C21	0.518500	0.764000	0.767000
C221	C22	0.494600	0.599700	0.805500
C231	C23	0.192700	0.842700	0.352500
C241	C24	0.178500	0.519800	0.340800
C251	C25	0.158400	0.166900	0.854200
C261	C26	0.635700	0.048300	0.881100
C271	C27	0.929900	0.210200	0.081500
C281	C28	0.936000	0.287700	0.144300
C291	C29	0.981500	0.264000	0.233000
C301	C30	0.005400	0.099700	0.194500
C311	C31	0.307300	0.342700	0.647500
C321	C32	0.321500	0.019800	0.659200
N11	N1	0.615700	0.386100	0.912100
N21	N2	0.236300	0.458600	0.941200
N31	N3	0.466900	0.385000	0.106600
N41	N4	0.515000	0.330400	0.259300
N51	N5	0.854100	0.105100	0.591100
N61	N6	0.722900	0.497400	0.597800
N71	N7	0.884300	0.886100	0.087900
N81	N8	0.263700	0.958600	0.058800
N91	N9	0.033100	0.885000	0.893400
N101	N10	0.985000	0.830400	0.740700
N111	N11	0.645900	0.605100	0.408900
N121	N12	0.777100	0.997400	0.402200
N131	N13	0.384300	0.613900	0.087900
N141	N14	0.763700	0.541400	0.058800
N151	N15	0.533100	0.615000	0.893400
N161	N16	0.485000	0.669600	0.740700
N171	N17	0.145900	0.894900	0.408900
N181	N18	0.277100	0.502600	0.402200
N191	N19	0.115700	0.113900	0.912100
N201	N20	0.736300	0.041400	0.941200
N211	N21	0.966900	0.115000	0.106600
N221	N22	0.015000	0.169600	0.259300
N231	N23	0.354100	0.394900	0.591100
N241	N24	0.222900	0.002600	0.597800
