data_UKUPIB_clean_PM
_symmetry_space_group_name_H-M	'P1'
_cell_length_a	14.615000
_cell_length_b	16.585000
_cell_length_c	20.559000
_cell_angle_alpha	99.330000
_cell_angle_beta	107.460000
_cell_angle_gamma	100.740000
_symmetry_Int_Tables_number 1

loop_
_symmetry_equiv_pos_as_xyz
'x,y,z'

loop_
_atom_site_label
_atom_site_type_symbol
_atom_site_fract_x
_atom_site_fract_y
_atom_site_fract_z
Mn11	Mn1	0.060380	0.220730	0.237750
Mn21	Mn2	0.148610	0.062660	0.182660
Mn31	Mn3	0.009920	0.393370	0.343700
O11	O1	0.984100	0.246400	0.310600
O21	O2	0.948500	0.103700	0.178700
O31	O3	0.239900	0.038800	0.126000
O41	O4	0.145600	0.137000	0.284540
O51	O5	0.922100	0.866800	0.961100
O61	O6	0.984100	0.292100	0.177000
O71	O7	0.129900	0.955400	0.026200
O81	O8	0.869400	0.818700	0.846800
O91	O9	0.836500	0.594800	0.625600
O101	O10	0.993900	0.011500	0.112370
O111	O11	0.807600	0.679200	0.708500
O121	O12	0.995100	0.308700	0.416300
O131	O13	0.290800	0.129800	0.278900
O141	O14	0.595100	0.076200	0.152000
C11	C1	0.626700	0.893100	0.044900
O151	O15	0.502200	0.775600	0.972100
C21	C2	0.381100	0.256200	0.408000
H11	H1	0.422100	0.247800	0.380700
C31	C3	0.297800	0.951400	0.053100
C41	C4	0.824700	0.985800	0.103900
C51	C5	0.651400	0.972300	0.092900
C61	C6	0.419400	0.314400	0.472700
C71	C7	0.983700	0.242500	0.372700
O161	O16	0.007300	0.421500	0.244300
C81	C8	0.681700	0.557300	0.639000
C91	C9	0.394300	0.993500	0.088300
H21	H2	0.410200	0.045200	0.121900
C101	C10	0.972900	0.158800	0.390900
C111	C11	0.888200	0.808600	0.908500
C121	C12	0.801400	0.908800	0.060800
H31	H3	0.851600	0.886200	0.050000
C131	C13	0.929800	0.040100	0.135400
C141	C14	0.471000	0.960100	0.074600
C151	C15	0.749200	0.018000	0.121100
H41	H4	0.766200	0.071500	0.152500
C161	C16	0.555000	0.436300	0.559800
C171	C17	0.217200	0.985000	0.069100
C181	C18	0.574300	0.008800	0.109300
C191	C19	0.444000	0.882500	0.027800
C201	C20	0.347600	0.838700	0.993100
H51	H5	0.331200	0.785500	0.961300
C211	C21	0.701500	0.862300	0.032000
H61	H6	0.685700	0.807600	0.002500
C221	C22	0.524900	0.845300	0.014300
O171	O17	0.575500	0.353700	0.463200
C231	C23	0.282200	0.210200	0.383700
C241	C24	0.650100	0.489100	0.579600
H71	H7	0.692600	0.479500	0.553600
C251	C25	0.782300	0.614200	0.659900
C261	C26	0.900200	0.700700	0.980500
H81	H8	0.936600	0.743800	0.021600
C271	C27	0.908600	0.503000	0.055000
C281	C28	0.273500	0.875600	0.006400
H91	H9	0.205800	0.847300	0.982400
C291	C29	0.226900	0.220700	0.423100
H101	H10	0.159700	0.189100	0.405200
C301	C30	0.360300	0.326000	0.513300
C311	C31	0.240700	0.156200	0.312800
C321	C32	0.523200	0.368200	0.498100
C331	C33	0.943000	0.397700	0.120800
C341	C34	0.812100	0.656700	0.858600
H111	H11	0.786800	0.670900	0.814900
C351	C35	0.865500	0.720600	0.916600
C361	C36	0.944500	0.085800	0.338500
H121	H12	0.927400	0.088200	0.290600
C371	C37	0.829100	0.551000	0.925500
C381	C38	0.983800	0.368700	0.186900
C391	C39	0.497500	0.445000	0.601300
C401	C40	0.880300	0.613700	0.983800
C411	C41	0.895500	0.334900	0.057700
H131	H13	0.893800	0.277300	0.057400
C421	C42	0.858300	0.439800	0.994600
C431	C43	0.793200	0.572500	0.860600
H141	H14	0.756700	0.530000	0.819100
C441	C44	0.000700	0.155900	0.461700
H151	H15	0.021700	0.206700	0.497000
C451	C45	0.397000	0.390300	0.579900
C461	C46	0.951200	0.480800	0.119600
H161	H16	0.984900	0.523400	0.161500
O181	O18	0.347000	0.396900	0.619000
C471	C47	0.621600	0.566100	0.677500
H171	H17	0.643700	0.611200	0.718000
C481	C48	0.968200	0.004900	0.427100
C491	C49	0.529700	0.512000	0.659900
H181	H18	0.488900	0.520300	0.687400
C501	C50	0.916400	0.593800	0.052400
C511	C51	0.997500	0.079800	0.480100
O191	O19	0.955900	0.648600	0.107600
C521	C52	0.941800	0.008500	0.357800
H191	H19	0.921300	0.957800	0.322500
C531	C53	0.260900	0.276300	0.490600
H201	H20	0.220100	0.280000	0.518700
O201	O20	0.941600	0.856900	0.399000
C541	C54	0.852500	0.357600	0.998000
H211	H21	0.816800	0.314700	0.956600
C551	C55	0.966900	0.922800	0.446300
O211	O21	0.764200	0.405900	0.873700
C561	C56	0.816900	0.461100	0.927100
Mn41	Mn4	0.939620	0.779270	0.762250
Mn51	Mn5	0.851390	0.937340	0.817340
Mn61	Mn6	0.990080	0.606630	0.656300
O221	O22	0.015900	0.753600	0.689400
O231	O23	0.051500	0.896300	0.821300
O241	O24	0.760100	0.961200	0.874000
O251	O25	0.854400	0.863000	0.715460
O261	O26	0.077900	0.133200	0.038900
O271	O27	0.015900	0.707900	0.823000
O281	O28	0.870100	0.044600	0.973800
O291	O29	0.130600	0.181300	0.153200
O301	O30	0.163500	0.405200	0.374400
O311	O31	0.006100	0.988500	0.887630
O321	O32	0.192400	0.320800	0.291500
O331	O33	0.004900	0.691300	0.583700
O341	O34	0.709200	0.870200	0.721100
O351	O35	0.404900	0.923800	0.848000
C571	C57	0.373300	0.106900	0.955100
O361	O36	0.497800	0.224400	0.027900
C581	C58	0.618900	0.743800	0.592000
H221	H22	0.577900	0.752200	0.619300
C591	C59	0.702200	0.048600	0.946900
C601	C60	0.175300	0.014200	0.896100
C611	C61	0.348600	0.027700	0.907100
C621	C62	0.580600	0.685600	0.527300
C631	C63	0.016300	0.757500	0.627300
O371	O37	0.992700	0.578500	0.755700
C641	C64	0.318300	0.442700	0.361000
C651	C65	0.605700	0.006500	0.911700
H231	H23	0.589800	0.954800	0.878100
C661	C66	0.027100	0.841200	0.609100
C671	C67	0.111800	0.191400	0.091500
C681	C68	0.198600	0.091200	0.939200
H241	H24	0.148400	0.113800	0.950000
C691	C69	0.070200	0.959900	0.864600
C701	C70	0.529000	0.039900	0.925400
C711	C71	0.250800	0.982000	0.878900
H251	H25	0.233800	0.928500	0.847500
C721	C72	0.445000	0.563700	0.440200
C731	C73	0.782800	0.015000	0.930900
C741	C74	0.425700	0.991200	0.890700
C751	C75	0.556000	0.117500	0.972200
C761	C76	0.652400	0.161300	0.006900
H261	H26	0.668800	0.214500	0.038700
C771	C77	0.298500	0.137700	0.968000
H271	H27	0.314300	0.192400	0.997500
C781	C78	0.475100	0.154700	0.985700
O381	O38	0.424500	0.646300	0.536800
C791	C79	0.717800	0.789800	0.616300
C801	C80	0.349900	0.510900	0.420400
H281	H28	0.307400	0.520500	0.446400
C811	C81	0.217700	0.385800	0.340100
C821	C82	0.099800	0.299300	0.019500
H291	H29	0.063400	0.256200	0.978400
C831	C83	0.091400	0.497000	0.945000
C841	C84	0.726500	0.124400	0.993600
H301	H30	0.794200	0.152700	0.017600
C851	C85	0.773100	0.779300	0.576900
H311	H31	0.840300	0.810900	0.594800
C861	C86	0.639700	0.674000	0.486700
C871	C87	0.759300	0.843800	0.687200
C881	C88	0.476800	0.631800	0.501900
C891	C89	0.057000	0.602300	0.879200
C901	C90	0.187900	0.343300	0.141400
H321	H32	0.213200	0.329100	0.185100
C911	C91	0.134500	0.279400	0.083400
C921	C92	0.055500	0.914200	0.661500
H331	H33	0.072600	0.911800	0.709400
C931	C93	0.170900	0.449000	0.074500
C941	C94	0.016200	0.631300	0.813100
C951	C95	0.502500	0.555000	0.398700
C961	C96	0.119700	0.386300	0.016200
C971	C97	0.104500	0.665100	0.942300
H341	H34	0.106200	0.722700	0.942600
C981	C98	0.141700	0.560200	0.005400
C991	C99	0.206800	0.427500	0.139400
H351	H35	0.243300	0.470000	0.180900
C1001	C100	0.999300	0.844100	0.538300
H361	H36	0.978300	0.793300	0.503000
C1011	C101	0.603000	0.609700	0.420100
C1021	C102	0.048800	0.519200	0.880400
H371	H37	0.015100	0.476600	0.838500
O391	O39	0.653000	0.603100	0.381000
C1031	C103	0.378400	0.433900	0.322500
H381	H38	0.356300	0.388800	0.282000
C1041	C104	0.031800	0.995100	0.572900
C1051	C105	0.470300	0.488000	0.340100
H391	H39	0.511100	0.479700	0.312600
C1061	C106	0.083600	0.406200	0.947600
C1071	C107	0.002500	0.920200	0.519900
O401	O40	0.044100	0.351400	0.892400
C1081	C108	0.058200	0.991500	0.642200
H401	H40	0.078700	0.042200	0.677500
C1091	C109	0.739100	0.723700	0.509400
H411	H41	0.779900	0.720000	0.481300
O411	O41	0.058400	0.143100	0.601000
C1101	C110	0.147500	0.642400	0.002000
H421	H42	0.183200	0.685300	0.043400
C1111	C111	0.033100	0.077200	0.553700
O421	O42	0.235800	0.594100	0.126300
C1121	C112	0.183100	0.538900	0.072900
Mn71	Mn7	0.000000	0.000000	0.000000
