data_UKUPEX_clean_PM
_symmetry_space_group_name_H-M	'P1'
_cell_length_a	14.691000
_cell_length_b	14.818000
_cell_length_c	17.713000
_cell_angle_alpha	98.130000
_cell_angle_beta	93.100000
_cell_angle_gamma	115.290000
_symmetry_Int_Tables_number 1

loop_
_symmetry_equiv_pos_as_xyz
'x,y,z'

loop_
_atom_site_label
_atom_site_type_symbol
_atom_site_fract_x
_atom_site_fract_y
_atom_site_fract_z
Mn11	Mn1	0.969820	0.008570	0.217540
Mn21	Mn2	0.755570	0.761530	0.257700
Mn31	Mn3	0.513900	0.540400	0.283400
C11	C1	0.076100	0.434300	0.120400
O11	O1	0.866700	0.915000	0.301300
O21	O2	0.642600	0.560400	0.357600
O31	O3	0.959200	0.460900	0.197000
O41	O4	0.100800	0.119700	0.082700
O51	O5	0.363400	0.196400	0.707600
O61	O6	0.864400	0.750800	0.182800
O71	O7	0.562800	0.876400	0.866400
O81	O8	0.606400	0.886100	0.629300
C21	C2	0.030100	0.582100	0.113800
O91	O9	0.476200	0.315300	0.649700
O101	O10	0.339000	0.839200	0.104900
O111	O11	0.223400	0.601800	0.993000
O121	O12	0.041700	0.158600	0.194100
O131	O13	0.672600	0.189900	0.466200
C31	C3	0.093500	0.612900	0.061500
O141	O14	0.791200	0.681900	0.337600
C41	C4	0.506600	0.857300	0.919400
C51	C5	0.691900	0.973300	0.528900
C61	C6	0.102300	0.697500	0.030400
H11	H1	0.145500	0.716400	0.991700
C71	C7	0.057200	0.339200	0.140800
H21	H2	0.007600	0.311000	0.173800
C81	C8	0.459100	0.792100	0.039900
O151	O15	0.109200	0.643400	0.415300
C91	C9	0.369200	0.892200	0.984900
C101	C10	0.992300	0.730200	0.111500
C111	C11	0.660000	0.126000	0.504300
C121	C12	0.595500	0.111200	0.567800
C131	C13	0.051500	0.756100	0.052900
H31	H3	0.057500	0.811500	0.028900
C141	C14	0.488500	0.159300	0.646800
C151	C15	0.732500	0.901600	0.508800
H41	H4	0.716000	0.846300	0.535300
O161	O16	0.923600	0.086200	0.320700
C161	C16	0.709800	0.050900	0.486800
C171	C17	0.551000	0.175500	0.586300
H51	H5	0.561800	0.229500	0.559300
O171	O17	0.971600	0.881000	0.132800
C181	C18	0.788900	0.448400	0.497600
H61	H6	0.754300	0.405600	0.532100
C191	C19	0.022100	0.492900	0.154400
C201	C20	0.622900	0.954800	0.591500
C211	C21	0.084800	0.181200	0.133100
C221	C22	0.422600	0.891800	0.919200
C231	C23	0.207800	0.420000	0.039500
H71	H7	0.258500	0.449100	0.007400
C241	C24	0.405600	0.940700	0.858300
H81	H8	0.446100	0.951400	0.817400
C251	C25	0.143400	0.469600	0.071700
C261	C26	0.572700	0.025600	0.608900
C271	C27	0.810300	0.990600	0.405700
C281	C28	0.111500	0.287400	0.112300
O181	O18	0.467600	0.588400	0.186500
O191	O19	0.628000	0.641400	0.177100
C291	C29	0.433000	0.229800	0.666800
C301	C30	0.183400	0.321600	0.063200
H91	H9	0.217100	0.282100	0.044800
C311	C31	0.947300	0.544100	0.454900
C321	C32	0.792300	0.910900	0.454000
H101	H10	0.823900	0.866800	0.445500
C331	C33	0.511500	0.010700	0.664600
H111	H11	0.497100	0.954900	0.690300
C341	C34	0.052200	0.572700	0.452800
C351	C35	0.545700	0.637600	0.152900
C361	C36	0.969400	0.636700	0.140900
H121	H12	0.919800	0.612400	0.174800
C371	C37	0.517000	0.808100	0.979400
C381	C38	0.795300	0.563700	0.416800
C391	C39	0.871600	0.004300	0.340400
C401	C40	0.771600	0.065500	0.428100
H131	H13	0.788200	0.122400	0.403500
C411	C41	0.538900	0.700400	0.097300
C421	C42	0.593100	0.706800	0.042300
H141	H14	0.632000	0.669500	0.037200
C431	C43	0.738300	0.610300	0.364000
C441	C44	0.380400	0.837000	0.049900
C451	C45	0.594300	0.775400	0.984600
H151	H15	0.646700	0.795800	0.952600
C461	C46	0.160500	0.563600	0.033900
C471	C47	0.884900	0.464200	0.491100
C481	C48	0.289500	0.918500	0.981400
H161	H16	0.246600	0.906800	0.020900
C491	C49	0.329900	0.971400	0.860900
H171	H17	0.316800	0.000600	0.819700
C501	C50	0.897500	0.588000	0.412700
H181	H18	0.934200	0.634600	0.381100
C511	C51	0.468600	0.079900	0.684500
H191	H19	0.426100	0.070500	0.724100
C521	C52	0.934700	0.794300	0.148400
C531	C53	0.466700	0.738400	0.095100
H201	H20	0.421600	0.726700	0.133000
C541	C54	0.733800	0.490800	0.456400
H211	H21	0.663200	0.471100	0.456500
C551	C55	0.271100	0.961700	0.921500
O201	O20	0.166200	0.022300	0.854600
O211	O21	0.122000	0.970500	0.967400
C561	C56	0.178700	0.990500	0.916500
Mn41	Mn4	0.030180	0.991430	0.782460
Mn51	Mn5	0.244430	0.238470	0.742300
Mn61	Mn6	0.486100	0.459600	0.716600
C571	C57	0.923900	0.565700	0.879600
O221	O22	0.133300	0.085000	0.698700
O231	O23	0.357400	0.439600	0.642400
O241	O24	0.040800	0.539100	0.803000
O251	O25	0.899200	0.880300	0.917300
O261	O26	0.636600	0.803600	0.292400
O271	O27	0.135600	0.249200	0.817200
O281	O28	0.437200	0.123600	0.133600
O291	O29	0.393600	0.113900	0.370700
C581	C58	0.969900	0.417900	0.886200
O301	O30	0.523800	0.684700	0.350300
O311	O31	0.661000	0.160800	0.895100
O321	O32	0.776600	0.398200	0.007000
O331	O33	0.958300	0.841400	0.805900
O341	O34	0.327400	0.810100	0.533800
C591	C59	0.906500	0.387100	0.938500
O351	O35	0.208800	0.318100	0.662400
C601	C60	0.493400	0.142700	0.080600
C611	C61	0.308100	0.026700	0.471100
C621	C62	0.897700	0.302500	0.969600
H221	H22	0.854500	0.283600	0.008300
C631	C63	0.942800	0.660800	0.859200
H231	H23	0.992400	0.689000	0.826200
C641	C64	0.540900	0.207900	0.960100
O361	O36	0.890800	0.356600	0.584700
C651	C65	0.630800	0.107800	0.015100
C661	C66	0.007700	0.269800	0.888500
C671	C67	0.340000	0.874000	0.495700
C681	C68	0.404500	0.888800	0.432200
C691	C69	0.948500	0.243900	0.947100
H241	H24	0.942500	0.188500	0.971100
C701	C70	0.511500	0.840700	0.353200
C711	C71	0.267500	0.098400	0.491200
H251	H25	0.284000	0.153700	0.464700
O371	O37	0.076400	0.913800	0.679300
C721	C72	0.290200	0.949100	0.513200
C731	C73	0.449000	0.824500	0.413700
H261	H26	0.438200	0.770500	0.440700
O381	O38	0.028400	0.119000	0.867200
C741	C74	0.211100	0.551600	0.502400
H271	H27	0.245700	0.594400	0.467900
C751	C75	0.977900	0.507100	0.845600
C761	C76	0.377100	0.045200	0.408500
C771	C77	0.915200	0.818800	0.866900
C781	C78	0.577400	0.108200	0.080800
C791	C79	0.792200	0.580000	0.960500
H281	H28	0.741500	0.550900	0.992600
C801	C80	0.594400	0.059300	0.141700
H291	H29	0.553900	0.048600	0.182600
C811	C81	0.856600	0.530400	0.928300
C821	C82	0.427300	0.974400	0.391100
C831	C83	0.189700	0.009400	0.594300
C841	C84	0.888500	0.712600	0.887700
O391	O39	0.532400	0.411600	0.813500
O401	O40	0.372000	0.358600	0.822900
C851	C85	0.567000	0.770200	0.333200
C861	C86	0.816600	0.678400	0.936800
H301	H30	0.782900	0.717900	0.955200
C871	C87	0.052700	0.455900	0.545100
C881	C88	0.207700	0.089100	0.546000
H311	H31	0.176100	0.133200	0.554500
C891	C89	0.488500	0.989300	0.335400
H321	H32	0.502900	0.045100	0.309700
C901	C90	0.947800	0.427300	0.547200
C911	C91	0.454300	0.362400	0.847100
C921	C92	0.030600	0.363300	0.859100
H331	H33	0.080200	0.387600	0.825200
C931	C93	0.483000	0.191900	0.020600
C941	C94	0.204700	0.436300	0.583200
C951	C95	0.128400	0.995700	0.659600
C961	C96	0.228400	0.934500	0.571900
H341	H34	0.211800	0.877600	0.596500
C971	C97	0.461100	0.299600	0.902700
C981	C98	0.406900	0.293200	0.957700
H351	H35	0.368000	0.330500	0.962800
C991	C99	0.261700	0.389700	0.636000
C1001	C100	0.619600	0.163000	0.950100
C1011	C101	0.405700	0.224600	0.015400
H361	H36	0.353300	0.204200	0.047400
C1021	C102	0.839500	0.436400	0.966100
C1031	C103	0.115100	0.535800	0.508900
C1041	C104	0.710500	0.081500	0.018600
H371	H37	0.753400	0.093200	0.979100
C1051	C105	0.670100	0.028600	0.139100
H381	H38	0.683200	0.999400	0.180300
C1061	C106	0.102500	0.412000	0.587300
H391	H39	0.065800	0.365400	0.618900
C1071	C107	0.531400	0.920100	0.315500
H401	H40	0.573900	0.929500	0.275900
C1081	C108	0.065300	0.205700	0.851600
C1091	C109	0.533300	0.261600	0.904900
H411	H41	0.578400	0.273300	0.867000
C1101	C110	0.266200	0.509200	0.543600
H421	H42	0.336800	0.528900	0.543500
C1111	C111	0.728900	0.038300	0.078500
O411	O41	0.833800	0.977700	0.145400
O421	O42	0.878000	0.029500	0.032600
C1121	C112	0.821300	0.009500	0.083500
Mn71	Mn7	0.000000	0.000000	0.000000
