data_UKUPUL_clean_PM
_symmetry_space_group_name_H-M	'P1'
_cell_length_a	16.169000
_cell_length_b	16.169000
_cell_length_c	18.199000
_cell_angle_alpha	90.000000
_cell_angle_beta	90.000000
_cell_angle_gamma	90.000000
_symmetry_Int_Tables_number 1

loop_
_symmetry_equiv_pos_as_xyz
'x,y,z'

loop_
_atom_site_label
_atom_site_type_symbol
_atom_site_fract_x
_atom_site_fract_y
_atom_site_fract_z
V11	V1	0.004200	0.822460	0.864070
V21	V2	0.175320	0.831030	0.000100
V31	V3	0.246850	0.004570	0.992450
V41	V4	0.213900	0.251400	0.727580
V51	V5	0.995800	0.177540	0.864070
V61	V6	0.824680	0.168970	0.000100
V71	V7	0.753150	0.995430	0.992450
V81	V8	0.786100	0.748600	0.727580
V91	V9	0.822460	0.995800	0.135930
V101	V10	0.831030	0.824680	0.999900
V111	V11	0.004570	0.753150	0.007550
V121	V12	0.251400	0.786100	0.272420
V131	V13	0.177540	0.004200	0.135930
V141	V14	0.168970	0.175320	0.999900
V151	V15	0.995430	0.246850	0.007550
V161	V16	0.748600	0.213900	0.272420
V171	V17	0.495800	0.322460	0.635930
V181	V18	0.324680	0.331030	0.499900
V191	V19	0.253150	0.504570	0.507550
V201	V20	0.286100	0.751400	0.772420
V211	V21	0.504200	0.677540	0.635930
V221	V22	0.675320	0.668970	0.499900
V231	V23	0.746850	0.495430	0.507550
V241	V24	0.713900	0.248600	0.772420
V251	V25	0.677540	0.495800	0.364070
V261	V26	0.668970	0.324680	0.500100
V271	V27	0.495430	0.253150	0.492450
V281	V28	0.248600	0.286100	0.227580
V291	V29	0.322460	0.504200	0.364070
V301	V30	0.331030	0.675320	0.500100
V311	V31	0.504570	0.746850	0.492450
V321	V32	0.751400	0.713900	0.227580
V331	V33	0.000000	0.000000	0.796980
V341	V34	0.000000	0.000000	0.203020
V351	V35	0.500000	0.500000	0.703020
V361	V36	0.500000	0.500000	0.296980
Si11	Si1	0.177000	0.093000	0.837700
Si21	Si2	0.179900	0.914600	0.837800
Si31	Si3	0.823000	0.907000	0.837700
Si41	Si4	0.820100	0.085400	0.837800
Si51	Si5	0.093000	0.823000	0.162300
Si61	Si6	0.914600	0.820100	0.162200
Si71	Si7	0.907000	0.177000	0.162300
Si81	Si8	0.085400	0.179900	0.162200
Si91	Si9	0.323000	0.593000	0.662300
Si101	Si10	0.320100	0.414600	0.662200
Si111	Si11	0.677000	0.407000	0.662300
Si121	Si12	0.679900	0.585400	0.662200
Si131	Si13	0.407000	0.323000	0.337700
Si141	Si14	0.585400	0.320100	0.337800
Si151	Si15	0.593000	0.677000	0.337700
Si161	Si16	0.414600	0.679900	0.337800
H11	H1	0.288800	0.073000	0.706900
H21	H2	0.243500	0.078200	0.631200
H31	H3	0.415300	0.062600	0.646200
H41	H4	0.369700	0.067200	0.570800
H51	H5	0.417900	0.935700	0.608100
H61	H6	0.329000	0.939900	0.575200
H71	H7	0.369200	0.928100	0.713300
H81	H8	0.280200	0.935200	0.682200
H91	H9	0.711200	0.927000	0.706900
H101	H10	0.756500	0.921800	0.631200
H111	H11	0.584700	0.937400	0.646200
H121	H12	0.630300	0.932800	0.570800
H131	H13	0.582100	0.064300	0.608100
H141	H14	0.671000	0.060100	0.575200
H151	H15	0.630800	0.071900	0.713300
H161	H16	0.719800	0.064800	0.682200
H171	H17	0.073000	0.711200	0.293100
H181	H18	0.078200	0.756500	0.368800
H191	H19	0.062600	0.584700	0.353800
H201	H20	0.067200	0.630300	0.429200
H211	H21	0.935700	0.582100	0.391900
H221	H22	0.939900	0.671000	0.424800
H231	H23	0.928100	0.630800	0.286700
H241	H24	0.935200	0.719800	0.317800
H251	H25	0.927000	0.288800	0.293100
H261	H26	0.921800	0.243500	0.368800
H271	H27	0.937400	0.415300	0.353800
H281	H28	0.932800	0.369700	0.429200
H291	H29	0.064300	0.417900	0.391900
H301	H30	0.060100	0.329000	0.424800
H311	H31	0.071900	0.369200	0.286700
H321	H32	0.064800	0.280200	0.317800
H331	H33	0.211200	0.573000	0.793100
H341	H34	0.256500	0.578200	0.868800
H351	H35	0.084700	0.562600	0.853800
H361	H36	0.130300	0.567200	0.929200
H371	H37	0.082100	0.435700	0.891900
H381	H38	0.171000	0.439900	0.924800
H391	H39	0.130800	0.428100	0.786700
H401	H40	0.219800	0.435200	0.817800
H411	H41	0.788800	0.427000	0.793100
H421	H42	0.743500	0.421800	0.868800
H431	H43	0.915300	0.437400	0.853800
H441	H44	0.869700	0.432800	0.929200
H451	H45	0.917900	0.564300	0.891900
H461	H46	0.829000	0.560100	0.924800
H471	H47	0.869200	0.571900	0.786700
H481	H48	0.780200	0.564800	0.817800
H491	H49	0.427000	0.211200	0.206900
H501	H50	0.421800	0.256500	0.131200
H511	H51	0.437400	0.084700	0.146200
H521	H52	0.432800	0.130300	0.070800
H531	H53	0.564300	0.082100	0.108100
H541	H54	0.560100	0.171000	0.075200
H551	H55	0.571900	0.130800	0.213300
H561	H56	0.564800	0.219800	0.182200
H571	H57	0.573000	0.788800	0.206900
H581	H58	0.578200	0.743500	0.131200
H591	H59	0.562600	0.915300	0.146200
H601	H60	0.567200	0.869700	0.070800
H611	H61	0.435700	0.917900	0.108100
H621	H62	0.439900	0.829000	0.075200
H631	H63	0.428100	0.869200	0.213300
H641	H64	0.435200	0.780200	0.182200
C11	C1	0.294000	0.092900	0.656800
C21	C2	0.364900	0.047100	0.621000
C31	C3	0.362000	0.954700	0.617700
C41	C4	0.335000	0.912900	0.672000
C51	C5	0.706000	0.907100	0.656800
C61	C6	0.635100	0.952900	0.621000
C71	C7	0.638000	0.045300	0.617700
C81	C8	0.665000	0.087100	0.672000
C91	C9	0.092900	0.706000	0.343200
C101	C10	0.047100	0.635100	0.379000
C111	C11	0.954700	0.638000	0.382300
C121	C12	0.912900	0.665000	0.328000
C131	C13	0.907100	0.294000	0.343200
C141	C14	0.952900	0.364900	0.379000
C151	C15	0.045300	0.362000	0.382300
C161	C16	0.087100	0.335000	0.328000
C171	C17	0.206000	0.592900	0.843200
C181	C18	0.135100	0.547100	0.879000
C191	C19	0.138000	0.454700	0.882300
C201	C20	0.165000	0.412900	0.828000
C211	C21	0.794000	0.407100	0.843200
C221	C22	0.864900	0.452900	0.879000
C231	C23	0.862000	0.545300	0.882300
C241	C24	0.835000	0.587100	0.828000
C251	C25	0.407100	0.206000	0.156800
C261	C26	0.452900	0.135100	0.121000
C271	C27	0.545300	0.138000	0.117700
C281	C28	0.587100	0.165000	0.172000
C291	C29	0.592900	0.794000	0.156800
C301	C30	0.547100	0.864900	0.121000
C311	C31	0.454700	0.862000	0.117700
C321	C32	0.412900	0.835000	0.172000
N11	N1	0.300000	0.184700	0.658900
N21	N2	0.325700	0.826100	0.676400
N31	N3	0.700000	0.815300	0.658900
N41	N4	0.674300	0.173900	0.676400
N51	N5	0.184700	0.700000	0.341100
N61	N6	0.826100	0.674300	0.323600
N71	N7	0.815300	0.300000	0.341100
N81	N8	0.173900	0.325700	0.323600
N91	N9	0.200000	0.684700	0.841100
N101	N10	0.174300	0.326100	0.823600
N111	N11	0.800000	0.315300	0.841100
N121	N12	0.825700	0.673900	0.823600
N131	N13	0.315300	0.200000	0.158900
N141	N14	0.673900	0.174300	0.176400
N151	N15	0.684700	0.800000	0.158900
N161	N16	0.326100	0.825700	0.176400
O11	O1	0.084800	0.797400	0.936000
O21	O2	0.208800	0.002500	0.805600
O31	O3	0.218400	0.166700	0.797200
O41	O4	0.206800	0.914200	0.925500
O51	O5	0.200200	0.091500	0.924000
O61	O6	0.078000	0.913800	0.836100
O71	O7	0.074200	0.088700	0.827400
O81	O8	0.925400	0.792800	0.939500
O91	O9	0.218200	0.837400	0.793600
O101	O10	0.915200	0.202600	0.936000
O111	O11	0.791200	0.997500	0.805600
O121	O12	0.781600	0.833300	0.797200
O131	O13	0.793200	0.085800	0.925500
O141	O14	0.799800	0.908500	0.924000
O151	O15	0.922000	0.086200	0.836100
O161	O16	0.925800	0.911300	0.827400
O171	O17	0.074600	0.207200	0.939500
O181	O18	0.781800	0.162600	0.793600
O191	O19	0.797400	0.915200	0.064000
O201	O20	0.002500	0.791200	0.194400
O211	O21	0.166700	0.781600	0.202800
O221	O22	0.914200	0.793200	0.074500
O231	O23	0.091500	0.799800	0.076000
O241	O24	0.913800	0.922000	0.163900
O251	O25	0.088700	0.925800	0.172600
O261	O26	0.792800	0.074600	0.060500
O271	O27	0.837400	0.781800	0.206400
O281	O28	0.202600	0.084800	0.064000
O291	O29	0.997500	0.208800	0.194400
O301	O30	0.833300	0.218400	0.202800
O311	O31	0.085800	0.206800	0.074500
O321	O32	0.908500	0.200200	0.076000
O331	O33	0.086200	0.078000	0.163900
O341	O34	0.911300	0.074200	0.172600
O351	O35	0.207200	0.925400	0.060500
O361	O36	0.162600	0.218200	0.206400
O371	O37	0.415200	0.297400	0.564000
O381	O38	0.291200	0.502500	0.694400
O391	O39	0.281600	0.666700	0.702800
O401	O40	0.293200	0.414200	0.574500
O411	O41	0.299800	0.591500	0.576000
O421	O42	0.422000	0.413800	0.663900
O431	O43	0.425800	0.588700	0.672600
O441	O44	0.574600	0.292800	0.560500
O451	O45	0.281800	0.337400	0.706400
O461	O46	0.584800	0.702600	0.564000
O471	O47	0.708800	0.497500	0.694400
O481	O48	0.718400	0.333300	0.702800
O491	O49	0.706800	0.585800	0.574500
O501	O50	0.700200	0.408500	0.576000
O511	O51	0.578000	0.586200	0.663900
O521	O52	0.574200	0.411300	0.672600
O531	O53	0.425400	0.707200	0.560500
O541	O54	0.718200	0.662600	0.706400
O551	O55	0.702600	0.415200	0.436000
O561	O56	0.497500	0.291200	0.305600
O571	O57	0.333300	0.281600	0.297200
O581	O58	0.585800	0.293200	0.425500
O591	O59	0.408500	0.299800	0.424000
O601	O60	0.586200	0.422000	0.336100
O611	O61	0.411300	0.425800	0.327400
O621	O62	0.707200	0.574600	0.439500
O631	O63	0.662600	0.281800	0.293600
O641	O64	0.297400	0.584800	0.436000
O651	O65	0.502500	0.708800	0.305600
O661	O66	0.666700	0.718400	0.297200
O671	O67	0.414200	0.706800	0.425500
O681	O68	0.591500	0.700200	0.424000
O691	O69	0.413800	0.578000	0.336100
O701	O70	0.588700	0.574200	0.327400
O711	O71	0.292800	0.425400	0.439500
O721	O72	0.337400	0.718200	0.293600
