data_UKUTEB_clean_PM
_symmetry_space_group_name_H-M	'P1'
_cell_length_a	16.549200
_cell_length_b	14.852300
_cell_length_c	17.731300
_cell_angle_alpha	90.000000
_cell_angle_beta	112.758000
_cell_angle_gamma	90.000000
_symmetry_Int_Tables_number 1

loop_
_symmetry_equiv_pos_as_xyz
'x,y,z'

loop_
_atom_site_label
_atom_site_type_symbol
_atom_site_fract_x
_atom_site_fract_y
_atom_site_fract_z
C11	C1	0.879000	0.811000	0.318700
C21	C2	0.786400	0.793100	0.306300
C31	C3	0.759300	0.711600	0.325500
H11	H1	0.800800	0.666400	0.346800
C41	C4	0.672700	0.693500	0.314600
C51	C5	0.614700	0.765200	0.285900
H21	H2	0.556600	0.757800	0.279500
C61	C6	0.641700	0.847800	0.266600
H31	H3	0.601400	0.894500	0.247400
C71	C7	0.726500	0.861000	0.275500
H41	H4	0.743500	0.915800	0.260800
C81	C8	0.826800	0.329900	0.546400
C91	C9	0.796300	0.426500	0.535000
C101	C10	0.744400	0.457500	0.458300
H51	H5	0.729400	0.418400	0.413900
C111	C11	0.713500	0.546600	0.445300
C121	C12	0.738600	0.604200	0.511400
H61	H6	0.720400	0.664000	0.503700
C131	C13	0.790700	0.574000	0.589300
H71	H7	0.805800	0.612900	0.633800
C141	C14	0.820100	0.485600	0.600500
H81	H8	0.856100	0.465800	0.652400
C151	C15	0.735100	0.429400	0.115100
C161	C16	0.689300	0.422600	0.170900
C171	C17	0.684500	0.496300	0.217800
H91	H9	0.712700	0.549500	0.214600
C181	C18	0.639400	0.492900	0.268700
C191	C19	0.596900	0.410600	0.270000
H101	H10	0.563600	0.406300	0.301700
C201	C20	0.603100	0.337800	0.226500
H111	H11	0.576500	0.283800	0.230400
C211	C21	0.648700	0.344600	0.176800
H121	H12	0.652000	0.294800	0.146300
C221	C22	0.290300	0.610000	0.173000
C231	C23	0.364900	0.598500	0.255400
C241	C24	0.452100	0.594100	0.261400
H131	H13	0.463100	0.595800	0.213800
C251	C25	0.521800	0.587300	0.335900
C261	C26	0.502500	0.583800	0.405900
H141	H14	0.547800	0.579300	0.457100
C271	C27	0.416300	0.586900	0.399600
H151	H15	0.404200	0.583300	0.446500
C281	C28	0.348700	0.595400	0.324300
H161	H16	0.291300	0.599000	0.320900
C291	C29	0.117900	0.783100	0.226500
H171	H17	0.151400	0.733400	0.252100
C301	C30	0.111500	0.817700	0.154700
H181	H18	0.139400	0.796900	0.121500
C311	C31	0.031100	0.895400	0.202200
H191	H19	0.993000	0.938900	0.207000
N11	N1	0.066800	0.832800	0.256100
N21	N2	0.055900	0.889500	0.139700
O11	O1	0.902100	0.884300	0.300500
O21	O2	0.934300	0.747600	0.348300
O31	O3	0.880400	0.307500	0.613400
O41	O4	0.792700	0.279000	0.484100
O51	O5	0.217100	0.625800	0.169800
O61	O6	0.310000	0.607400	0.110300
O71	O7	0.730600	0.360000	0.071800
O81	O8	0.774300	0.496600	0.113400
O91	O9	0.096300	0.889100	0.450400
C321	C32	0.027500	0.946500	0.068200
Si11	Si1	0.637250	0.582490	0.340620
Zn11	Zn1	0.047320	0.805350	0.358990
Zn21	Zn2	0.217120	0.854960	0.509320
C331	C33	0.998300	0.907100	0.991800
H201	H20	0.998100	0.844800	0.986700
C341	C34	0.030600	0.038800	0.077100
H211	H21	0.051900	0.064600	0.129000
C351	C35	0.121000	0.311000	0.181300
C361	C36	0.213600	0.293100	0.193700
C371	C37	0.240700	0.211600	0.174500
H221	H22	0.199200	0.166400	0.153200
C381	C38	0.327300	0.193500	0.185400
C391	C39	0.385300	0.265200	0.214100
H231	H23	0.443400	0.257800	0.220500
C401	C40	0.358300	0.347800	0.233400
H241	H24	0.398600	0.394500	0.252600
C411	C41	0.273500	0.361000	0.224500
H251	H25	0.256500	0.415800	0.239200
C421	C42	0.173200	0.829900	0.953600
C431	C43	0.203700	0.926500	0.965000
C441	C44	0.255600	0.957500	0.041700
H261	H26	0.270600	0.918400	0.086100
C451	C45	0.286500	0.046600	0.054700
C461	C46	0.261400	0.104200	0.988600
H271	H27	0.279600	0.164000	0.996300
C471	C47	0.209300	0.074000	0.910700
H281	H28	0.194200	0.112900	0.866200
C481	C48	0.179900	0.985600	0.899500
H291	H29	0.143900	0.965800	0.847600
C491	C49	0.264900	0.929400	0.384900
C501	C50	0.310700	0.922600	0.329100
C511	C51	0.315500	0.996300	0.282200
H301	H30	0.287300	0.049500	0.285400
C521	C52	0.360600	0.992900	0.231300
C531	C53	0.403100	0.910600	0.230000
H311	H31	0.436400	0.906300	0.198300
C541	C54	0.396900	0.837800	0.273500
H321	H32	0.423500	0.783800	0.269600
C551	C55	0.351300	0.844600	0.323200
H331	H33	0.348000	0.794800	0.353700
C561	C56	0.709700	0.110000	0.327000
C571	C57	0.635100	0.098500	0.244600
C581	C58	0.547900	0.094100	0.238600
H341	H34	0.536900	0.095800	0.286200
C591	C59	0.478200	0.087300	0.164100
C601	C60	0.497500	0.083800	0.094100
H351	H35	0.452200	0.079300	0.042900
C611	C61	0.583700	0.086900	0.100400
H361	H36	0.595800	0.083300	0.053500
C621	C62	0.651300	0.095400	0.175700
H371	H37	0.708700	0.099000	0.179100
C631	C63	0.882100	0.283100	0.273500
H381	H38	0.848600	0.233400	0.247900
C641	C64	0.888500	0.317700	0.345300
H391	H39	0.860600	0.296900	0.378500
C651	C65	0.968900	0.395400	0.297800
H401	H40	0.007000	0.438900	0.293000
N31	N3	0.933200	0.332800	0.243900
N41	N4	0.944100	0.389500	0.360300
O101	O10	0.097900	0.384300	0.199500
O111	O11	0.065700	0.247600	0.151700
O121	O12	0.119600	0.807500	0.886600
O131	O13	0.207300	0.779000	0.015900
O141	O14	0.782900	0.125800	0.330200
O151	O15	0.690000	0.107400	0.389700
O161	O16	0.269400	0.860000	0.428200
O171	O17	0.225700	0.996600	0.386600
O181	O18	0.903700	0.389100	0.049600
C661	C66	0.972500	0.446500	0.431800
Si21	Si2	0.362750	0.082490	0.159380
Zn31	Zn3	0.952680	0.305350	0.141010
Zn41	Zn4	0.782880	0.354960	0.990680
C671	C67	0.001700	0.407100	0.508200
H411	H41	0.001900	0.344800	0.513300
C681	C68	0.969400	0.538800	0.422900
H421	H42	0.948100	0.564600	0.371000
C691	C69	0.121000	0.189000	0.681300
C701	C70	0.213600	0.206900	0.693700
C711	C71	0.240700	0.288400	0.674500
H431	H43	0.199200	0.333600	0.653200
C721	C72	0.327300	0.306500	0.685400
C731	C73	0.385300	0.234800	0.714100
H441	H44	0.443400	0.242200	0.720500
C741	C74	0.358300	0.152200	0.733400
H451	H45	0.398600	0.105500	0.752600
C751	C75	0.273500	0.139000	0.724500
H461	H46	0.256500	0.084200	0.739200
C761	C76	0.173200	0.670100	0.453600
C771	C77	0.203700	0.573500	0.465000
C781	C78	0.255600	0.542500	0.541700
H471	H47	0.270600	0.581600	0.586100
C791	C79	0.286500	0.453400	0.554700
C801	C80	0.261400	0.395800	0.488600
H481	H48	0.279600	0.336000	0.496300
C811	C81	0.209300	0.426000	0.410700
H491	H49	0.194200	0.387100	0.366200
C821	C82	0.179900	0.514400	0.399500
H501	H50	0.143900	0.534200	0.347600
C831	C83	0.264900	0.570600	0.884900
C841	C84	0.310700	0.577400	0.829100
C851	C85	0.315500	0.503700	0.782200
H511	H51	0.287300	0.450500	0.785400
C861	C86	0.360600	0.507100	0.731300
C871	C87	0.403100	0.589400	0.730000
H521	H52	0.436400	0.593700	0.698300
C881	C88	0.396900	0.662200	0.773500
H531	H53	0.423500	0.716200	0.769600
C891	C89	0.351300	0.655400	0.823200
H541	H54	0.348000	0.705200	0.853700
C901	C90	0.709700	0.390000	0.827000
C911	C91	0.635100	0.401500	0.744600
C921	C92	0.547900	0.405900	0.738600
H551	H55	0.536900	0.404200	0.786200
C931	C93	0.478200	0.412700	0.664100
C941	C94	0.497500	0.416200	0.594100
H561	H56	0.452200	0.420700	0.542900
C951	C95	0.583700	0.413100	0.600400
H571	H57	0.595800	0.416700	0.553500
C961	C96	0.651300	0.404600	0.675700
H581	H58	0.708700	0.401000	0.679100
C971	C97	0.882100	0.216900	0.773500
H591	H59	0.848600	0.266600	0.747900
C981	C98	0.888500	0.182300	0.845300
H601	H60	0.860600	0.203100	0.878500
C991	C99	0.968900	0.104600	0.797800
H611	H61	0.007000	0.061100	0.793000
N51	N5	0.933200	0.167200	0.743900
N61	N6	0.944100	0.110500	0.860300
O191	O19	0.097900	0.115700	0.699500
O201	O20	0.065700	0.252400	0.651700
O211	O21	0.119600	0.692500	0.386600
O221	O22	0.207300	0.721000	0.515900
O231	O23	0.782900	0.374200	0.830200
O241	O24	0.690000	0.392600	0.889700
O251	O25	0.269400	0.640000	0.928200
O261	O26	0.225700	0.503400	0.886600
O271	O27	0.903700	0.110900	0.549600
C1001	C100	0.972500	0.053500	0.931800
Si31	Si3	0.362750	0.417510	0.659380
Zn51	Zn5	0.952680	0.194650	0.641010
Zn61	Zn6	0.782880	0.145040	0.490680
C1011	C101	0.001700	0.092900	0.008200
H621	H62	0.001900	0.155200	0.013300
C1021	C102	0.969400	0.961200	0.922900
H631	H63	0.948100	0.935400	0.871000
C1031	C103	0.879000	0.689000	0.818700
C1041	C104	0.786400	0.706900	0.806300
C1051	C105	0.759300	0.788400	0.825500
H641	H64	0.800800	0.833600	0.846800
C1061	C106	0.672700	0.806500	0.814600
C1071	C107	0.614700	0.734800	0.785900
H651	H65	0.556600	0.742200	0.779500
C1081	C108	0.641700	0.652200	0.766600
H661	H66	0.601400	0.605500	0.747400
C1091	C109	0.726500	0.639000	0.775500
H671	H67	0.743500	0.584200	0.760800
C1101	C110	0.826800	0.170100	0.046400
C1111	C111	0.796300	0.073500	0.035000
C1121	C112	0.744400	0.042500	0.958300
H681	H68	0.729400	0.081600	0.913900
C1131	C113	0.713500	0.953400	0.945300
C1141	C114	0.738600	0.895800	0.011400
H691	H69	0.720400	0.836000	0.003700
C1151	C115	0.790700	0.926000	0.089300
H701	H70	0.805800	0.887100	0.133800
C1161	C116	0.820100	0.014400	0.100500
H711	H71	0.856100	0.034200	0.152400
C1171	C117	0.735100	0.070600	0.615100
C1181	C118	0.689300	0.077400	0.670900
C1191	C119	0.684500	0.003700	0.717800
H721	H72	0.712700	0.950500	0.714600
C1201	C120	0.639400	0.007100	0.768700
C1211	C121	0.596900	0.089400	0.770000
H731	H73	0.563600	0.093700	0.801700
C1221	C122	0.603100	0.162200	0.726500
H741	H74	0.576500	0.216200	0.730400
C1231	C123	0.648700	0.155400	0.676800
H751	H75	0.652000	0.205200	0.646300
C1241	C124	0.290300	0.890000	0.673000
C1251	C125	0.364900	0.901500	0.755400
C1261	C126	0.452100	0.905900	0.761400
H761	H76	0.463100	0.904200	0.713800
C1271	C127	0.521800	0.912700	0.835900
C1281	C128	0.502500	0.916200	0.905900
H771	H77	0.547800	0.920700	0.957100
C1291	C129	0.416300	0.913100	0.899600
H781	H78	0.404200	0.916700	0.946500
C1301	C130	0.348700	0.904600	0.824300
H791	H79	0.291300	0.901000	0.820900
C1311	C131	0.117900	0.716900	0.726500
H801	H80	0.151400	0.766600	0.752100
C1321	C132	0.111500	0.682300	0.654700
H811	H81	0.139400	0.703100	0.621500
C1331	C133	0.031100	0.604600	0.702200
H821	H82	0.993000	0.561100	0.707000
N71	N7	0.066800	0.667200	0.756100
N81	N8	0.055900	0.610500	0.639700
O281	O28	0.902100	0.615700	0.800500
O291	O29	0.934300	0.752400	0.848300
O301	O30	0.880400	0.192500	0.113400
O311	O31	0.792700	0.221000	0.984100
O321	O32	0.217100	0.874200	0.669800
O331	O33	0.310000	0.892600	0.610300
O341	O34	0.730600	0.140000	0.571800
O351	O35	0.774300	0.003400	0.613400
O361	O36	0.096300	0.610900	0.950400
C1341	C134	0.027500	0.553500	0.568200
Si41	Si4	0.637250	0.917510	0.840620
Zn71	Zn7	0.047320	0.694650	0.858990
Zn81	Zn8	0.217120	0.645040	0.009320
C1351	C135	0.998300	0.592900	0.491800
H831	H83	0.998100	0.655200	0.486700
C1361	C136	0.030600	0.461200	0.577100
H841	H84	0.051900	0.435400	0.629000
