data_ULEHEA_clean_PM
_symmetry_space_group_name_H-M	'P1'
_cell_length_a	10.761300
_cell_length_b	7.194400
_cell_length_c	17.216200
_cell_angle_alpha	90.000000
_cell_angle_beta	97.107000
_cell_angle_gamma	90.000000
_symmetry_Int_Tables_number 1

loop_
_symmetry_equiv_pos_as_xyz
'x,y,z'

loop_
_atom_site_label
_atom_site_type_symbol
_atom_site_fract_x
_atom_site_fract_y
_atom_site_fract_z
Sm11	Sm1	0.326350	0.519980	0.752830
O11	O1	0.005620	0.250100	0.685060
O21	O2	0.201810	0.308300	0.669280
O31	O3	0.143200	0.689700	0.691780
O41	O4	0.083000	0.921500	0.612980
O51	O5	0.155000	0.468000	0.824060
O61	O6	0.112230	0.178900	0.858680
O71	O7	0.848300	0.185000	0.848930
O81	O8	0.851000	0.047900	0.965270
C11	C1	0.083800	0.328600	0.648840
C21	C2	0.041500	0.426400	0.573570
C31	C3	0.048100	0.618200	0.561470
C41	C4	0.006500	0.689700	0.487900
C51	C5	0.094500	0.752100	0.624870
C61	C6	0.108400	0.353400	0.866400
C71	C7	0.046800	0.429800	0.933800
C81	C8	0.098800	0.589000	0.971020
C91	C9	0.946800	0.341700	0.962500
C101	C10	0.878100	0.181800	0.920170
H11	H1	0.007000	0.826000	0.478000
H21	H2	0.178000	0.648000	0.952000
H31	H3	0.814000	0.946000	0.936000
Sm21	Sm2	0.173650	0.019980	0.747170
O91	O9	0.494380	0.750100	0.814940
O101	O10	0.298190	0.808300	0.830720
O111	O11	0.356800	0.189700	0.808220
O121	O12	0.417000	0.421500	0.887020
O131	O13	0.345000	0.968000	0.675940
O141	O14	0.387770	0.678900	0.641320
O151	O15	0.651700	0.685000	0.651070
O161	O16	0.649000	0.547900	0.534730
C111	C11	0.416200	0.828600	0.851160
C121	C12	0.458500	0.926400	0.926430
C131	C13	0.451900	0.118200	0.938530
C141	C14	0.493500	0.189700	0.012100
C151	C15	0.405500	0.252100	0.875130
C161	C16	0.391600	0.853400	0.633600
C171	C17	0.453200	0.929800	0.566200
C181	C18	0.401200	0.089000	0.528980
C191	C19	0.553200	0.841700	0.537500
C201	C20	0.621900	0.681800	0.579830
H41	H4	0.493000	0.326000	0.022000
H51	H5	0.322000	0.148000	0.548000
H61	H6	0.686000	0.446000	0.564000
Sm31	Sm3	0.673650	0.480020	0.247170
O171	O17	0.994380	0.749900	0.314940
O181	O18	0.798190	0.691700	0.330720
O191	O19	0.856800	0.310300	0.308220
O201	O20	0.917000	0.078500	0.387020
O211	O21	0.845000	0.532000	0.175940
O221	O22	0.887770	0.821100	0.141320
O231	O23	0.151700	0.815000	0.151070
O241	O24	0.149000	0.952100	0.034730
C211	C21	0.916200	0.671400	0.351160
C221	C22	0.958500	0.573600	0.426430
C231	C23	0.951900	0.381800	0.438530
C241	C24	0.993500	0.310300	0.512100
C251	C25	0.905500	0.247900	0.375130
C261	C26	0.891600	0.646600	0.133600
C271	C27	0.953200	0.570200	0.066200
C281	C28	0.901200	0.411000	0.028980
C291	C29	0.053200	0.658300	0.037500
C301	C30	0.121900	0.818200	0.079830
H71	H7	0.993000	0.174000	0.522000
H81	H8	0.822000	0.352000	0.048000
H91	H9	0.186000	0.054000	0.064000
Sm41	Sm4	0.826350	0.980020	0.252830
O251	O25	0.505620	0.249900	0.185060
O261	O26	0.701810	0.191700	0.169280
O271	O27	0.643200	0.810300	0.191780
O281	O28	0.583000	0.578500	0.112980
O291	O29	0.655000	0.032000	0.324060
O301	O30	0.612230	0.321100	0.358680
O311	O31	0.348300	0.315000	0.348930
O321	O32	0.351000	0.452100	0.465270
C311	C31	0.583800	0.171400	0.148840
C321	C32	0.541500	0.073600	0.073570
C331	C33	0.548100	0.881800	0.061470
C341	C34	0.506500	0.810300	0.987900
C351	C35	0.594500	0.747900	0.124870
C361	C36	0.608400	0.146600	0.366400
C371	C37	0.546800	0.070200	0.433800
C381	C38	0.598800	0.911000	0.471020
C391	C39	0.446800	0.158300	0.462500
C401	C40	0.378100	0.318200	0.420170
H101	H10	0.507000	0.674000	0.978000
H111	H11	0.678000	0.852000	0.452000
H121	H12	0.314000	0.554000	0.436000
