data_ULEPIM_clean_PM
_symmetry_space_group_name_H-M	'P1'
_cell_length_a	11.196700
_cell_length_b	11.196700
_cell_length_c	44.082800
_cell_angle_alpha	90.000000
_cell_angle_beta	90.000000
_cell_angle_gamma	120.000000
_symmetry_Int_Tables_number 1

loop_
_symmetry_equiv_pos_as_xyz
'x,y,z'

loop_
_atom_site_label
_atom_site_type_symbol
_atom_site_fract_x
_atom_site_fract_y
_atom_site_fract_z
H11	H1	0.653000	0.795000	0.766600
O11	O1	0.675440	0.538900	0.603440
O21	O2	0.488310	0.479330	0.630130
O31	O3	0.706700	0.759800	0.766090
N11	N1	0.563800	0.729600	0.586120
C11	C1	0.760900	0.554300	0.709260
C21	C2	0.699500	0.695500	0.739570
C31	C3	0.827900	0.475600	0.705840
H21	H2	0.874600	0.465900	0.722200
C41	C4	0.686000	0.499400	0.656240
C51	C5	0.685400	0.564100	0.684150
C61	C6	0.768200	0.622900	0.737020
C71	C7	0.618200	0.641500	0.687760
H31	H3	0.568900	0.649100	0.671600
C81	C8	0.624200	0.705500	0.714630
H41	H4	0.579000	0.755700	0.716600
C91	C9	0.545700	0.786700	0.611220
H51	H5	0.490800	0.729000	0.626700
C101	C10	0.612200	0.507200	0.628550
C111	C11	0.683400	0.015800	0.591820
C121	C12	0.703900	0.957200	0.566140
H61	H6	0.757800	0.012700	0.550300
C131	C13	0.643400	0.814500	0.564280
H71	H7	0.659100	0.776600	0.547000
C141	C14	0.756500	0.429400	0.653620
H81	H8	0.759400	0.391600	0.635000
C151	C15	0.604800	0.926900	0.614980
H91	H9	0.592300	0.962300	0.633000
C161	C16	0.824900	0.414200	0.678980
H101	H10	0.868200	0.362000	0.677300
C171	C17	0.733000	0.168200	0.595200
H111	H11	0.777500	0.197300	0.614800
H121	H12	0.652500	0.179200	0.595600
H131	H13	0.205000	0.858000	0.433270
O41	O4	0.461100	0.136540	0.270110
O51	O5	0.520670	0.008980	0.296800
O61	O6	0.240200	0.946900	0.432760
N21	N2	0.270400	0.834200	0.252790
C181	C18	0.445700	0.206600	0.375930
C191	C19	0.304500	0.004000	0.406240
C201	C20	0.524400	0.352300	0.372510
H141	H14	0.534100	0.408700	0.388870
C211	C21	0.500600	0.186600	0.322910
C221	C22	0.435900	0.121300	0.350820
C231	C23	0.377100	0.145300	0.403690
C241	C24	0.358500	0.976700	0.354430
H151	H15	0.350900	0.919800	0.338270
C251	C25	0.294500	0.918700	0.381300
H161	H16	0.244300	0.823300	0.383270
C261	C26	0.213300	0.759000	0.277890
H171	H17	0.271000	0.761800	0.293370
C271	C27	0.492800	0.105000	0.295220
C281	C28	0.984200	0.667600	0.258490
C291	C29	0.042800	0.746700	0.232810
H181	H18	0.987300	0.745100	0.216970
C301	C30	0.185500	0.828900	0.230950
H191	H19	0.223400	0.882500	0.213670
C311	C31	0.570600	0.327100	0.320290
H201	H20	0.608400	0.367800	0.301670
C321	C32	0.073100	0.677900	0.281650
H211	H21	0.037700	0.630000	0.299670
C331	C33	0.585800	0.410700	0.345650
H221	H22	0.638000	0.506200	0.343970
C341	C34	0.831800	0.564800	0.261870
H231	H23	0.802700	0.580200	0.281470
H241	H24	0.820800	0.473300	0.262270
H251	H25	0.142000	0.347000	0.099930
O71	O7	0.863460	0.324560	0.936770
O81	O8	0.991020	0.511690	0.963460
O91	O9	0.053100	0.293300	0.099420
N31	N3	0.165800	0.436200	0.919450
C351	C35	0.793400	0.239100	0.042590
C361	C36	0.996000	0.300500	0.072900
C371	C37	0.647700	0.172100	0.039170
H261	H26	0.591300	0.125400	0.055530
C381	C38	0.813400	0.314000	0.989570
C391	C39	0.878700	0.314600	0.017480
C401	C40	0.854700	0.231800	0.070350
C411	C41	0.023300	0.381800	0.021090
H271	H27	0.080200	0.431100	0.004930
C421	C42	0.081300	0.375800	0.047960
H281	H28	0.176700	0.421000	0.049930
C431	C43	0.241000	0.454300	0.944550
H291	H29	0.238200	0.509200	0.960030
C441	C44	0.895000	0.387800	0.961880
C451	C45	0.332400	0.316600	0.925150
C461	C46	0.253300	0.296100	0.899470
H301	H30	0.254900	0.242200	0.883630
C471	C47	0.171100	0.356600	0.897610
H311	H31	0.117500	0.340900	0.880330
C481	C48	0.672900	0.243500	0.986950
H321	H32	0.632200	0.240600	0.968330
C491	C49	0.322100	0.395200	0.948310
H331	H33	0.370000	0.407700	0.966330
C501	C50	0.589300	0.175100	0.012310
H341	H34	0.493800	0.131800	0.010630
C511	C51	0.435200	0.267000	0.928530
H351	H35	0.419800	0.222500	0.948130
H361	H36	0.526700	0.347500	0.928930
H371	H37	0.205000	0.347000	0.400070
O101	O10	0.461100	0.324560	0.563230
O111	O11	0.520670	0.511690	0.536540
O121	O12	0.240200	0.293300	0.400580
N41	N4	0.270400	0.436200	0.580550
C521	C52	0.445700	0.239100	0.457410
C531	C53	0.304500	0.300500	0.427100
C541	C54	0.524400	0.172100	0.460830
H381	H38	0.534100	0.125400	0.444470
C551	C55	0.500600	0.314000	0.510430
C561	C56	0.435900	0.314600	0.482520
C571	C57	0.377100	0.231800	0.429650
C581	C58	0.358500	0.381800	0.478910
H391	H39	0.350900	0.431100	0.495070
C591	C59	0.294500	0.375800	0.452040
H401	H40	0.244300	0.421000	0.450070
C601	C60	0.213300	0.454300	0.555450
H411	H41	0.271000	0.509200	0.539970
C611	C61	0.492800	0.387800	0.538120
C621	C62	0.984200	0.316600	0.574850
C631	C63	0.042800	0.296100	0.600530
H421	H42	0.987300	0.242200	0.616370
C641	C64	0.185500	0.356600	0.602390
H431	H43	0.223400	0.340900	0.619670
C651	C65	0.570600	0.243500	0.513050
H441	H44	0.608400	0.240600	0.531670
C661	C66	0.073100	0.395200	0.551690
H451	H45	0.037700	0.407700	0.533670
C671	C67	0.585800	0.175100	0.487690
H461	H46	0.638000	0.131800	0.489370
C681	C68	0.831800	0.267000	0.571470
H471	H47	0.802700	0.222500	0.551870
H481	H48	0.820800	0.347500	0.571070
H491	H49	0.142000	0.795000	0.733400
O131	O13	0.863460	0.538900	0.896560
O141	O14	0.991020	0.479330	0.869870
O151	O15	0.053100	0.759800	0.733910
N51	N5	0.165800	0.729600	0.913880
C691	C69	0.793400	0.554300	0.790740
C701	C70	0.996000	0.695500	0.760430
C711	C71	0.647700	0.475600	0.794160
H501	H50	0.591300	0.465900	0.777800
C721	C72	0.813400	0.499400	0.843760
C731	C73	0.878700	0.564100	0.815850
C741	C74	0.854700	0.622900	0.762980
C751	C75	0.023300	0.641500	0.812240
H511	H51	0.080200	0.649100	0.828400
C761	C76	0.081300	0.705500	0.785370
H521	H52	0.176700	0.755700	0.783400
C771	C77	0.241000	0.786700	0.888780
H531	H53	0.238200	0.729000	0.873300
C781	C78	0.895000	0.507200	0.871450
C791	C79	0.332400	0.015800	0.908180
C801	C80	0.253300	0.957200	0.933860
H541	H54	0.254900	0.012700	0.949700
C811	C81	0.171100	0.814500	0.935720
H551	H55	0.117500	0.776600	0.953000
C821	C82	0.672900	0.429400	0.846380
H561	H56	0.632200	0.391600	0.865000
C831	C83	0.322100	0.926900	0.885020
H571	H57	0.370000	0.962300	0.867000
C841	C84	0.589300	0.414200	0.821020
H581	H58	0.493800	0.362000	0.822700
C851	C85	0.435200	0.168200	0.904800
H591	H59	0.419800	0.197300	0.885200
H601	H60	0.526700	0.179200	0.904400
H611	H61	0.653000	0.858000	0.066730
O161	O16	0.675440	0.136540	0.229890
O171	O17	0.488310	0.008980	0.203200
O181	O18	0.706700	0.946900	0.067240
N61	N6	0.563800	0.834200	0.247210
C861	C86	0.760900	0.206600	0.124070
C871	C87	0.699500	0.004000	0.093760
C881	C88	0.827900	0.352300	0.127490
H621	H62	0.874600	0.408700	0.111130
C891	C89	0.686000	0.186600	0.177090
C901	C90	0.685400	0.121300	0.149180
C911	C91	0.768200	0.145300	0.096310
C921	C92	0.618200	0.976700	0.145570
H631	H63	0.568900	0.919800	0.161730
C931	C93	0.624200	0.918700	0.118700
H641	H64	0.579000	0.823300	0.116730
C941	C94	0.545700	0.759000	0.222110
H651	H65	0.490800	0.761800	0.206630
C951	C95	0.612200	0.105000	0.204780
C961	C96	0.683400	0.667600	0.241510
C971	C97	0.703900	0.746700	0.267190
H661	H66	0.757800	0.745100	0.283030
C981	C98	0.643400	0.828900	0.269050
H671	H67	0.659100	0.882500	0.286330
C991	C99	0.756500	0.327100	0.179710
H681	H68	0.759400	0.367800	0.198330
C1001	C100	0.604800	0.677900	0.218350
H691	H69	0.592300	0.630000	0.200330
C1011	C101	0.824900	0.410700	0.154350
H701	H70	0.868200	0.506200	0.156030
C1021	C102	0.733000	0.564800	0.238130
H711	H71	0.777500	0.580200	0.218530
H721	H72	0.652500	0.473300	0.237730
Zn11	Zn1	0.481550	0.518450	0.583330
Zn21	Zn2	0.481550	0.963100	0.250000
Zn31	Zn3	0.036900	0.518450	0.916670
H731	H73	0.347000	0.205000	0.266600
O191	O19	0.324560	0.461100	0.103440
O201	O20	0.511690	0.520670	0.130130
O211	O21	0.293300	0.240200	0.266090
N71	N7	0.436200	0.270400	0.086120
C1031	C103	0.239100	0.445700	0.209260
C1041	C104	0.300500	0.304500	0.239570
C1051	C105	0.172100	0.524400	0.205840
H741	H74	0.125400	0.534100	0.222200
C1061	C106	0.314000	0.500600	0.156240
C1071	C107	0.314600	0.435900	0.184150
C1081	C108	0.231800	0.377100	0.237020
C1091	C109	0.381800	0.358500	0.187760
H751	H75	0.431100	0.350900	0.171600
C1101	C110	0.375800	0.294500	0.214630
H761	H76	0.421000	0.244300	0.216600
C1111	C111	0.454300	0.213300	0.111220
H771	H77	0.509200	0.271000	0.126700
C1121	C112	0.387800	0.492800	0.128550
C1131	C113	0.316600	0.984200	0.091820
C1141	C114	0.296100	0.042800	0.066140
H781	H78	0.242200	0.987300	0.050300
C1151	C115	0.356600	0.185500	0.064280
H791	H79	0.340900	0.223400	0.047000
C1161	C116	0.243500	0.570600	0.153620
H801	H80	0.240600	0.608400	0.135000
C1171	C117	0.395200	0.073100	0.114980
H811	H81	0.407700	0.037700	0.133000
C1181	C118	0.175100	0.585800	0.178980
H821	H82	0.131800	0.638000	0.177300
C1191	C119	0.267000	0.831800	0.095200
H831	H83	0.222500	0.802700	0.114800
H841	H84	0.347500	0.820800	0.095600
H851	H85	0.795000	0.142000	0.933270
O221	O22	0.538900	0.863460	0.770110
O231	O23	0.479330	0.991020	0.796800
O241	O24	0.759800	0.053100	0.932760
N81	N8	0.729600	0.165800	0.752790
C1201	C120	0.554300	0.793400	0.875930
C1211	C121	0.695500	0.996000	0.906240
C1221	C122	0.475600	0.647700	0.872510
H861	H86	0.465900	0.591300	0.888870
C1231	C123	0.499400	0.813400	0.822910
C1241	C124	0.564100	0.878700	0.850820
C1251	C125	0.622900	0.854700	0.903690
C1261	C126	0.641500	0.023300	0.854430
H871	H87	0.649100	0.080200	0.838270
C1271	C127	0.705500	0.081300	0.881300
H881	H88	0.755700	0.176700	0.883270
C1281	C128	0.786700	0.241000	0.777890
H891	H89	0.729000	0.238200	0.793370
C1291	C129	0.507200	0.895000	0.795220
C1301	C130	0.015800	0.332400	0.758490
C1311	C131	0.957200	0.253300	0.732810
H901	H90	0.012700	0.254900	0.716970
C1321	C132	0.814500	0.171100	0.730950
H911	H91	0.776600	0.117500	0.713670
C1331	C133	0.429400	0.672900	0.820290
H921	H92	0.391600	0.632200	0.801670
C1341	C134	0.926900	0.322100	0.781650
H931	H93	0.962300	0.370000	0.799670
C1351	C135	0.414200	0.589300	0.845650
H941	H94	0.362000	0.493800	0.843970
C1361	C136	0.168200	0.435200	0.761870
H951	H95	0.197300	0.419800	0.781470
H961	H96	0.179200	0.526700	0.762270
H971	H97	0.858000	0.653000	0.599930
O251	O25	0.136540	0.675440	0.436770
O261	O26	0.008980	0.488310	0.463460
O271	O27	0.946900	0.706700	0.599420
N91	N9	0.834200	0.563800	0.419450
C1371	C137	0.206600	0.760900	0.542590
C1381	C138	0.004000	0.699500	0.572900
C1391	C139	0.352300	0.827900	0.539170
H981	H98	0.408700	0.874600	0.555530
C1401	C140	0.186600	0.686000	0.489570
C1411	C141	0.121300	0.685400	0.517480
C1421	C142	0.145300	0.768200	0.570350
C1431	C143	0.976700	0.618200	0.521090
H991	H99	0.919800	0.568900	0.504930
C1441	C144	0.918700	0.624200	0.547960
H1001	H100	0.823300	0.579000	0.549930
C1451	C145	0.759000	0.545700	0.444550
H1011	H101	0.761800	0.490800	0.460030
C1461	C146	0.105000	0.612200	0.461880
C1471	C147	0.667600	0.683400	0.425150
C1481	C148	0.746700	0.703900	0.399470
H1021	H102	0.745100	0.757800	0.383630
C1491	C149	0.828900	0.643400	0.397610
H1031	H103	0.882500	0.659100	0.380330
C1501	C150	0.327100	0.756500	0.486950
H1041	H104	0.367800	0.759400	0.468330
C1511	C151	0.677900	0.604800	0.448310
H1051	H105	0.630000	0.592300	0.466330
C1521	C152	0.410700	0.824900	0.512310
H1061	H106	0.506200	0.868200	0.510630
C1531	C153	0.564800	0.733000	0.428530
H1071	H107	0.580200	0.777500	0.448130
H1081	H108	0.473300	0.652500	0.428930
H1091	H109	0.795000	0.653000	0.900070
O281	O28	0.538900	0.675440	0.063230
O291	O29	0.479330	0.488310	0.036540
O301	O30	0.759800	0.706700	0.900580
N101	N10	0.729600	0.563800	0.080550
C1541	C154	0.554300	0.760900	0.957410
C1551	C155	0.695500	0.699500	0.927100
C1561	C156	0.475600	0.827900	0.960830
H1101	H110	0.465900	0.874600	0.944470
C1571	C157	0.499400	0.686000	0.010430
C1581	C158	0.564100	0.685400	0.982520
C1591	C159	0.622900	0.768200	0.929650
C1601	C160	0.641500	0.618200	0.978910
H1111	H111	0.649100	0.568900	0.995070
C1611	C161	0.705500	0.624200	0.952040
H1121	H112	0.755700	0.579000	0.950070
C1621	C162	0.786700	0.545700	0.055450
H1131	H113	0.729000	0.490800	0.039970
C1631	C163	0.507200	0.612200	0.038120
C1641	C164	0.015800	0.683400	0.074850
C1651	C165	0.957200	0.703900	0.100530
H1141	H114	0.012700	0.757800	0.116370
C1661	C166	0.814500	0.643400	0.102390
H1151	H115	0.776600	0.659100	0.119670
C1671	C167	0.429400	0.756500	0.013050
H1161	H116	0.391600	0.759400	0.031670
C1681	C168	0.926900	0.604800	0.051690
H1171	H117	0.962300	0.592300	0.033670
C1691	C169	0.414200	0.824900	0.987690
H1181	H118	0.362000	0.868200	0.989370
C1701	C170	0.168200	0.733000	0.071470
H1191	H119	0.197300	0.777500	0.051870
H1201	H120	0.179200	0.652500	0.071070
H1211	H121	0.858000	0.205000	0.233400
O311	O31	0.136540	0.461100	0.396560
O321	O32	0.008980	0.520670	0.369870
O331	O33	0.946900	0.240200	0.233910
N111	N11	0.834200	0.270400	0.413880
C1711	C171	0.206600	0.445700	0.290740
C1721	C172	0.004000	0.304500	0.260430
C1731	C173	0.352300	0.524400	0.294160
H1221	H122	0.408700	0.534100	0.277800
C1741	C174	0.186600	0.500600	0.343760
C1751	C175	0.121300	0.435900	0.315850
C1761	C176	0.145300	0.377100	0.262980
C1771	C177	0.976700	0.358500	0.312240
H1231	H123	0.919800	0.350900	0.328400
C1781	C178	0.918700	0.294500	0.285370
H1241	H124	0.823300	0.244300	0.283400
C1791	C179	0.759000	0.213300	0.388780
H1251	H125	0.761800	0.271000	0.373300
C1801	C180	0.105000	0.492800	0.371450
C1811	C181	0.667600	0.984200	0.408180
C1821	C182	0.746700	0.042800	0.433860
H1261	H126	0.745100	0.987300	0.449700
C1831	C183	0.828900	0.185500	0.435720
H1271	H127	0.882500	0.223400	0.453000
C1841	C184	0.327100	0.570600	0.346380
H1281	H128	0.367800	0.608400	0.365000
C1851	C185	0.677900	0.073100	0.385020
H1291	H129	0.630000	0.037700	0.367000
C1861	C186	0.410700	0.585800	0.321020
H1301	H130	0.506200	0.638000	0.322700
C1871	C187	0.564800	0.831800	0.404800
H1311	H131	0.580200	0.802700	0.385200
H1321	H132	0.473300	0.820800	0.404400
H1331	H133	0.347000	0.142000	0.566730
O341	O34	0.324560	0.863460	0.729890
O351	O35	0.511690	0.991020	0.703200
O361	O36	0.293300	0.053100	0.567240
N121	N12	0.436200	0.165800	0.747210
C1881	C188	0.239100	0.793400	0.624070
C1891	C189	0.300500	0.996000	0.593760
C1901	C190	0.172100	0.647700	0.627490
H1341	H134	0.125400	0.591300	0.611130
C1911	C191	0.314000	0.813400	0.677090
C1921	C192	0.314600	0.878700	0.649180
C1931	C193	0.231800	0.854700	0.596310
C1941	C194	0.381800	0.023300	0.645570
H1351	H135	0.431100	0.080200	0.661730
C1951	C195	0.375800	0.081300	0.618700
H1361	H136	0.421000	0.176700	0.616730
C1961	C196	0.454300	0.241000	0.722110
H1371	H137	0.509200	0.238200	0.706630
C1971	C197	0.387800	0.895000	0.704780
C1981	C198	0.316600	0.332400	0.741510
C1991	C199	0.296100	0.253300	0.767190
H1381	H138	0.242200	0.254900	0.783030
C2001	C200	0.356600	0.171100	0.769050
H1391	H139	0.340900	0.117500	0.786330
C2011	C201	0.243500	0.672900	0.679710
H1401	H140	0.240600	0.632200	0.698330
C2021	C202	0.395200	0.322100	0.718350
H1411	H141	0.407700	0.370000	0.700330
C2031	C203	0.175100	0.589300	0.654350
H1421	H142	0.131800	0.493800	0.656030
C2041	C204	0.267000	0.435200	0.738130
H1431	H143	0.222500	0.419800	0.718530
H1441	H144	0.347500	0.526700	0.737730
Zn41	Zn4	0.518450	0.481550	0.083330
Zn51	Zn5	0.518450	0.036900	0.750000
Zn61	Zn6	0.963100	0.481550	0.416670
