data_ULIMIN_clean_PM
_symmetry_space_group_name_H-M	'P1'
_cell_length_a	31.281000
_cell_length_b	10.567600
_cell_length_c	19.875000
_cell_angle_alpha	90.000000
_cell_angle_beta	94.444000
_cell_angle_gamma	90.000000
_symmetry_Int_Tables_number 1

loop_
_symmetry_equiv_pos_as_xyz
'x,y,z'

loop_
_atom_site_label
_atom_site_type_symbol
_atom_site_fract_x
_atom_site_fract_y
_atom_site_fract_z
Co11	Co1	0.328130	0.841070	0.257000
O11	O1	0.266690	0.857000	0.207960
O21	O2	0.390240	0.796000	0.303210
H11	H1	0.401300	0.860000	0.320200
O31	O3	0.051650	0.961100	0.073440
O41	O4	0.095790	0.125700	0.090580
O51	O5	0.250400	0.046200	0.164970
C11	C1	0.122060	0.922500	0.122620
C21	C2	0.163170	0.967900	0.137570
H21	H2	0.169300	0.052300	0.129100
N11	N1	0.328320	0.656600	0.215170
O61	O6	0.294240	0.772000	0.340250
H31	H3	0.282800	0.704300	0.329800
N21	N2	0.988960	0.187800	0.033460
N31	N3	0.020600	0.258600	0.062970
H41	H4	0.046200	0.231500	0.073100
C31	C3	0.195430	0.889000	0.165150
C41	C4	0.240830	0.935600	0.180160
C51	C5	0.144960	0.713700	0.160400
C61	C6	0.087150	0.010300	0.093150
C71	C7	0.955400	0.265200	0.026870
H51	H5	0.928500	0.241600	0.007800
C81	C8	0.965100	0.385000	0.051610
C91	C9	0.112920	0.794800	0.132770
H61	H6	0.085500	0.763800	0.121200
C101	C10	0.185460	0.763800	0.177680
H71	H7	0.206500	0.711600	0.198300
C111	C11	0.007490	0.377200	0.074830
H81	H8	0.024100	0.441900	0.095000
C121	C12	0.339920	0.461300	0.175010
C131	C13	0.357740	0.571400	0.204000
H91	H9	0.387000	0.583300	0.214300
N41	N4	0.291230	0.600900	0.193060
H101	H10	0.266600	0.636500	0.193900
C141	C14	0.936630	0.499700	0.052200
H111	H11	0.953600	0.571000	0.069600
H121	H12	0.926300	0.519400	0.006200
C151	C15	0.361990	0.341300	0.158000
H131	H13	0.344200	0.296700	0.123600
H141	H14	0.364800	0.288000	0.197800
C161	C16	0.296920	0.484400	0.169600
H151	H15	0.275500	0.429200	0.152700
C171	C17	0.405630	0.360900	0.133100
C181	C18	0.417080	0.429400	0.078400
H161	H16	0.397600	0.474200	0.049900
C191	C19	0.442900	0.308800	0.156700
H171	H17	0.446500	0.254300	0.193500
N51	N5	0.458810	0.425100	0.070590
N61	N6	0.473630	0.347200	0.119600
H181	H18	0.500000	0.324600	0.126200
N71	N7	0.857460	0.424300	0.176750
C201	C20	0.898880	0.484300	0.093600
N81	N8	0.836190	0.506900	0.134620
H191	H19	0.810500	0.532700	0.138900
C211	C21	0.859930	0.543500	0.085900
H201	H20	0.851500	0.600400	0.051700
C221	C22	0.895450	0.410900	0.151400
H211	H21	0.917200	0.358800	0.170100
O71	O7	0.169390	0.511730	0.192520
O81	O8	0.099850	0.533500	0.160180
C231	C23	0.137450	0.577500	0.172600
Co21	Co2	0.828130	0.341070	0.257000
O91	O9	0.766690	0.357000	0.207960
O101	O10	0.890240	0.296000	0.303210
H221	H22	0.901300	0.360000	0.320200
O111	O11	0.551650	0.461100	0.073440
O121	O12	0.595790	0.625700	0.090580
O131	O13	0.750400	0.546200	0.164970
C241	C24	0.622060	0.422500	0.122620
C251	C25	0.663170	0.467900	0.137570
H231	H23	0.669300	0.552300	0.129100
N91	N9	0.828320	0.156600	0.215170
O141	O14	0.794240	0.272000	0.340250
H241	H24	0.782800	0.204300	0.329800
N101	N10	0.488960	0.687800	0.033460
N111	N11	0.520600	0.758600	0.062970
H251	H25	0.546200	0.731500	0.073100
C261	C26	0.695430	0.389000	0.165150
C271	C27	0.740830	0.435600	0.180160
C281	C28	0.644960	0.213700	0.160400
C291	C29	0.587150	0.510300	0.093150
C301	C30	0.455400	0.765200	0.026870
H261	H26	0.428500	0.741600	0.007800
C311	C31	0.465100	0.885000	0.051610
C321	C32	0.612920	0.294800	0.132770
H271	H27	0.585500	0.263800	0.121200
C331	C33	0.685460	0.263800	0.177680
H281	H28	0.706500	0.211600	0.198300
C341	C34	0.507490	0.877200	0.074830
H291	H29	0.524100	0.941900	0.095000
C351	C35	0.839920	0.961300	0.175010
C361	C36	0.857740	0.071400	0.204000
H301	H30	0.887000	0.083300	0.214300
N121	N12	0.791230	0.100900	0.193060
H311	H31	0.766600	0.136500	0.193900
C371	C37	0.436630	0.999700	0.052200
H321	H32	0.453600	0.071000	0.069600
H331	H33	0.426300	0.019400	0.006200
C381	C38	0.861990	0.841300	0.158000
H341	H34	0.844200	0.796700	0.123600
H351	H35	0.864800	0.788000	0.197800
C391	C39	0.796920	0.984400	0.169600
H361	H36	0.775500	0.929200	0.152700
C401	C40	0.905630	0.860900	0.133100
C411	C41	0.917080	0.929400	0.078400
H371	H37	0.897600	0.974200	0.049900
C421	C42	0.942900	0.808800	0.156700
H381	H38	0.946500	0.754300	0.193500
N131	N13	0.958810	0.925100	0.070590
N141	N14	0.973630	0.847200	0.119600
H391	H39	0.000000	0.824600	0.126200
N151	N15	0.357460	0.924300	0.176750
C431	C43	0.398880	0.984300	0.093600
N161	N16	0.336190	0.006900	0.134620
H401	H40	0.310500	0.032700	0.138900
C441	C44	0.359930	0.043500	0.085900
H411	H41	0.351500	0.100400	0.051700
C451	C45	0.395450	0.910900	0.151400
H421	H42	0.417200	0.858800	0.170100
O151	O15	0.669390	0.011730	0.192520
O161	O16	0.599850	0.033500	0.160180
C461	C46	0.637450	0.077500	0.172600
Co31	Co3	0.671870	0.841070	0.243000
O171	O17	0.733310	0.857000	0.292040
O181	O18	0.609760	0.796000	0.196790
H431	H43	0.598700	0.860000	0.179800
O191	O19	0.948350	0.961100	0.426560
O201	O20	0.904210	0.125700	0.409420
O211	O21	0.749600	0.046200	0.335030
C471	C47	0.877940	0.922500	0.377380
C481	C48	0.836830	0.967900	0.362430
H441	H44	0.830700	0.052300	0.370900
N171	N17	0.671680	0.656600	0.284830
O221	O22	0.705760	0.772000	0.159750
H451	H45	0.717200	0.704300	0.170200
N181	N18	0.011040	0.187800	0.466540
N191	N19	0.979400	0.258600	0.437030
H461	H46	0.953800	0.231500	0.426900
C491	C49	0.804570	0.889000	0.334850
C501	C50	0.759170	0.935600	0.319840
C511	C51	0.855040	0.713700	0.339600
C521	C52	0.912850	0.010300	0.406850
C531	C53	0.044600	0.265200	0.473130
H471	H47	0.071500	0.241600	0.492200
C541	C54	0.034900	0.385000	0.448390
C551	C55	0.887080	0.794800	0.367230
H481	H48	0.914500	0.763800	0.378800
C561	C56	0.814540	0.763800	0.322320
H491	H49	0.793500	0.711600	0.301700
C571	C57	0.992510	0.377200	0.425170
H501	H50	0.975900	0.441900	0.405000
C581	C58	0.660080	0.461300	0.324990
C591	C59	0.642260	0.571400	0.296000
H511	H51	0.613000	0.583300	0.285700
N201	N20	0.708770	0.600900	0.306940
H521	H52	0.733400	0.636500	0.306100
C601	C60	0.063370	0.499700	0.447800
H531	H53	0.046400	0.571000	0.430400
H541	H54	0.073700	0.519400	0.493800
C611	C61	0.638010	0.341300	0.342000
H551	H55	0.655800	0.296700	0.376400
H561	H56	0.635200	0.288000	0.302200
C621	C62	0.703080	0.484400	0.330400
H571	H57	0.724500	0.429200	0.347300
C631	C63	0.594370	0.360900	0.366900
C641	C64	0.582920	0.429400	0.421600
H581	H58	0.602400	0.474200	0.450100
C651	C65	0.557100	0.308800	0.343300
H591	H59	0.553500	0.254300	0.306500
N211	N21	0.541190	0.425100	0.429410
N221	N22	0.526370	0.347200	0.380400
H601	H60	0.500000	0.324600	0.373800
N231	N23	0.142540	0.424300	0.323250
C661	C66	0.101120	0.484300	0.406400
N241	N24	0.163810	0.506900	0.365380
H611	H61	0.189500	0.532700	0.361100
C671	C67	0.140070	0.543500	0.414100
H621	H62	0.148500	0.600400	0.448300
C681	C68	0.104550	0.410900	0.348600
H631	H63	0.082800	0.358800	0.329900
O231	O23	0.830610	0.511730	0.307480
O241	O24	0.900150	0.533500	0.339820
C691	C69	0.862550	0.577500	0.327400
Co41	Co4	0.171870	0.341070	0.243000
O251	O25	0.233310	0.357000	0.292040
O261	O26	0.109760	0.296000	0.196790
H641	H64	0.098700	0.360000	0.179800
O271	O27	0.448350	0.461100	0.426560
O281	O28	0.404210	0.625700	0.409420
O291	O29	0.249600	0.546200	0.335030
C701	C70	0.377940	0.422500	0.377380
C711	C71	0.336830	0.467900	0.362430
H651	H65	0.330700	0.552300	0.370900
N251	N25	0.171680	0.156600	0.284830
O301	O30	0.205760	0.272000	0.159750
H661	H66	0.217200	0.204300	0.170200
N261	N26	0.511040	0.687800	0.466540
N271	N27	0.479400	0.758600	0.437030
H671	H67	0.453800	0.731500	0.426900
C721	C72	0.304570	0.389000	0.334850
C731	C73	0.259170	0.435600	0.319840
C741	C74	0.355040	0.213700	0.339600
C751	C75	0.412850	0.510300	0.406850
C761	C76	0.544600	0.765200	0.473130
H681	H68	0.571500	0.741600	0.492200
C771	C77	0.534900	0.885000	0.448390
C781	C78	0.387080	0.294800	0.367230
H691	H69	0.414500	0.263800	0.378800
C791	C79	0.314540	0.263800	0.322320
H701	H70	0.293500	0.211600	0.301700
C801	C80	0.492510	0.877200	0.425170
H711	H71	0.475900	0.941900	0.405000
C811	C81	0.160080	0.961300	0.324990
C821	C82	0.142260	0.071400	0.296000
H721	H72	0.113000	0.083300	0.285700
N281	N28	0.208770	0.100900	0.306940
H731	H73	0.233400	0.136500	0.306100
C831	C83	0.563370	0.999700	0.447800
H741	H74	0.546400	0.071000	0.430400
H751	H75	0.573700	0.019400	0.493800
C841	C84	0.138010	0.841300	0.342000
H761	H76	0.155800	0.796700	0.376400
H771	H77	0.135200	0.788000	0.302200
C851	C85	0.203080	0.984400	0.330400
H781	H78	0.224500	0.929200	0.347300
C861	C86	0.094370	0.860900	0.366900
C871	C87	0.082920	0.929400	0.421600
H791	H79	0.102400	0.974200	0.450100
C881	C88	0.057100	0.808800	0.343300
H801	H80	0.053500	0.754300	0.306500
N291	N29	0.041190	0.925100	0.429410
N301	N30	0.026370	0.847200	0.380400
H811	H81	0.000000	0.824600	0.373800
N311	N31	0.642540	0.924300	0.323250
C891	C89	0.601120	0.984300	0.406400
N321	N32	0.663810	0.006900	0.365380
H821	H82	0.689500	0.032700	0.361100
C901	C90	0.640070	0.043500	0.414100
H831	H83	0.648500	0.100400	0.448300
C911	C91	0.604550	0.910900	0.348600
H841	H84	0.582800	0.858800	0.329900
O311	O31	0.330610	0.011730	0.307480
O321	O32	0.400150	0.033500	0.339820
C921	C92	0.362550	0.077500	0.327400
Co51	Co5	0.671870	0.158930	0.743000
O331	O33	0.733310	0.143000	0.792040
O341	O34	0.609760	0.204000	0.696790
H851	H85	0.598700	0.140000	0.679800
O351	O35	0.948350	0.038900	0.926560
O361	O36	0.904210	0.874300	0.909420
O371	O37	0.749600	0.953800	0.835030
C931	C93	0.877940	0.077500	0.877380
C941	C94	0.836830	0.032100	0.862430
H861	H86	0.830700	0.947700	0.870900
N331	N33	0.671680	0.343400	0.784830
O381	O38	0.705760	0.228000	0.659750
H871	H87	0.717200	0.295700	0.670200
N341	N34	0.011040	0.812200	0.966540
N351	N35	0.979400	0.741400	0.937030
H881	H88	0.953800	0.768500	0.926900
C951	C95	0.804570	0.111000	0.834850
C961	C96	0.759170	0.064400	0.819840
C971	C97	0.855040	0.286300	0.839600
C981	C98	0.912850	0.989700	0.906850
C991	C99	0.044600	0.734800	0.973130
H891	H89	0.071500	0.758400	0.992200
C1001	C100	0.034900	0.615000	0.948390
C1011	C101	0.887080	0.205200	0.867230
H901	H90	0.914500	0.236200	0.878800
C1021	C102	0.814540	0.236200	0.822320
H911	H91	0.793500	0.288400	0.801700
C1031	C103	0.992510	0.622800	0.925170
H921	H92	0.975900	0.558100	0.905000
C1041	C104	0.660080	0.538700	0.824990
C1051	C105	0.642260	0.428600	0.796000
H931	H93	0.613000	0.416700	0.785700
N361	N36	0.708770	0.399100	0.806940
H941	H94	0.733400	0.363500	0.806100
C1061	C106	0.063370	0.500300	0.947800
H951	H95	0.046400	0.429000	0.930400
H961	H96	0.073700	0.480600	0.993800
C1071	C107	0.638010	0.658700	0.842000
H971	H97	0.655800	0.703300	0.876400
H981	H98	0.635200	0.712000	0.802200
C1081	C108	0.703080	0.515600	0.830400
H991	H99	0.724500	0.570800	0.847300
C1091	C109	0.594370	0.639100	0.866900
C1101	C110	0.582920	0.570600	0.921600
H1001	H100	0.602400	0.525800	0.950100
C1111	C111	0.557100	0.691200	0.843300
H1011	H101	0.553500	0.745700	0.806500
N371	N37	0.541190	0.574900	0.929410
N381	N38	0.526370	0.652800	0.880400
H1021	H102	0.500000	0.675400	0.873800
N391	N39	0.142540	0.575700	0.823250
C1121	C112	0.101120	0.515700	0.906400
N401	N40	0.163810	0.493100	0.865380
H1031	H103	0.189500	0.467300	0.861100
C1131	C113	0.140070	0.456500	0.914100
H1041	H104	0.148500	0.399600	0.948300
C1141	C114	0.104550	0.589100	0.848600
H1051	H105	0.082800	0.641200	0.829900
O391	O39	0.830610	0.488270	0.807480
O401	O40	0.900150	0.466500	0.839820
C1151	C115	0.862550	0.422500	0.827400
Co61	Co6	0.171870	0.658930	0.743000
O411	O41	0.233310	0.643000	0.792040
O421	O42	0.109760	0.704000	0.696790
H1061	H106	0.098700	0.640000	0.679800
O431	O43	0.448350	0.538900	0.926560
O441	O44	0.404210	0.374300	0.909420
O451	O45	0.249600	0.453800	0.835030
C1161	C116	0.377940	0.577500	0.877380
C1171	C117	0.336830	0.532100	0.862430
H1071	H107	0.330700	0.447700	0.870900
N411	N41	0.171680	0.843400	0.784830
O461	O46	0.205760	0.728000	0.659750
H1081	H108	0.217200	0.795700	0.670200
N421	N42	0.511040	0.312200	0.966540
N431	N43	0.479400	0.241400	0.937030
H1091	H109	0.453800	0.268500	0.926900
C1181	C118	0.304570	0.611000	0.834850
C1191	C119	0.259170	0.564400	0.819840
C1201	C120	0.355040	0.786300	0.839600
C1211	C121	0.412850	0.489700	0.906850
C1221	C122	0.544600	0.234800	0.973130
H1101	H110	0.571500	0.258400	0.992200
C1231	C123	0.534900	0.115000	0.948390
C1241	C124	0.387080	0.705200	0.867230
H1111	H111	0.414500	0.736200	0.878800
C1251	C125	0.314540	0.736200	0.822320
H1121	H112	0.293500	0.788400	0.801700
C1261	C126	0.492510	0.122800	0.925170
H1131	H113	0.475900	0.058100	0.905000
C1271	C127	0.160080	0.038700	0.824990
C1281	C128	0.142260	0.928600	0.796000
H1141	H114	0.113000	0.916700	0.785700
N441	N44	0.208770	0.899100	0.806940
H1151	H115	0.233400	0.863500	0.806100
C1291	C129	0.563370	0.000300	0.947800
H1161	H116	0.546400	0.929000	0.930400
H1171	H117	0.573700	0.980600	0.993800
C1301	C130	0.138010	0.158700	0.842000
H1181	H118	0.155800	0.203300	0.876400
H1191	H119	0.135200	0.212000	0.802200
C1311	C131	0.203080	0.015600	0.830400
H1201	H120	0.224500	0.070800	0.847300
C1321	C132	0.094370	0.139100	0.866900
C1331	C133	0.082920	0.070600	0.921600
H1211	H121	0.102400	0.025800	0.950100
C1341	C134	0.057100	0.191200	0.843300
H1221	H122	0.053500	0.245700	0.806500
N451	N45	0.041190	0.074900	0.929410
N461	N46	0.026370	0.152800	0.880400
H1231	H123	0.000000	0.175400	0.873800
N471	N47	0.642540	0.075700	0.823250
C1351	C135	0.601120	0.015700	0.906400
N481	N48	0.663810	0.993100	0.865380
H1241	H124	0.689500	0.967300	0.861100
C1361	C136	0.640070	0.956500	0.914100
H1251	H125	0.648500	0.899600	0.948300
C1371	C137	0.604550	0.089100	0.848600
H1261	H126	0.582800	0.141200	0.829900
O471	O47	0.330610	0.988270	0.807480
O481	O48	0.400150	0.966500	0.839820
C1381	C138	0.362550	0.922500	0.827400
Co71	Co7	0.328130	0.158930	0.757000
O491	O49	0.266690	0.143000	0.707960
O501	O50	0.390240	0.204000	0.803210
H1271	H127	0.401300	0.140000	0.820200
O511	O51	0.051650	0.038900	0.573440
O521	O52	0.095790	0.874300	0.590580
O531	O53	0.250400	0.953800	0.664970
C1391	C139	0.122060	0.077500	0.622620
C1401	C140	0.163170	0.032100	0.637570
H1281	H128	0.169300	0.947700	0.629100
N491	N49	0.328320	0.343400	0.715170
O541	O54	0.294240	0.228000	0.840250
H1291	H129	0.282800	0.295700	0.829800
N501	N50	0.988960	0.812200	0.533460
N511	N51	0.020600	0.741400	0.562970
H1301	H130	0.046200	0.768500	0.573100
C1411	C141	0.195430	0.111000	0.665150
C1421	C142	0.240830	0.064400	0.680160
C1431	C143	0.144960	0.286300	0.660400
C1441	C144	0.087150	0.989700	0.593150
C1451	C145	0.955400	0.734800	0.526870
H1311	H131	0.928500	0.758400	0.507800
C1461	C146	0.965100	0.615000	0.551610
C1471	C147	0.112920	0.205200	0.632770
H1321	H132	0.085500	0.236200	0.621200
C1481	C148	0.185460	0.236200	0.677680
H1331	H133	0.206500	0.288400	0.698300
C1491	C149	0.007490	0.622800	0.574830
H1341	H134	0.024100	0.558100	0.595000
C1501	C150	0.339920	0.538700	0.675010
C1511	C151	0.357740	0.428600	0.704000
H1351	H135	0.387000	0.416700	0.714300
N521	N52	0.291230	0.399100	0.693060
H1361	H136	0.266600	0.363500	0.693900
C1521	C152	0.936630	0.500300	0.552200
H1371	H137	0.953600	0.429000	0.569600
H1381	H138	0.926300	0.480600	0.506200
C1531	C153	0.361990	0.658700	0.658000
H1391	H139	0.344200	0.703300	0.623600
H1401	H140	0.364800	0.712000	0.697800
C1541	C154	0.296920	0.515600	0.669600
H1411	H141	0.275500	0.570800	0.652700
C1551	C155	0.405630	0.639100	0.633100
C1561	C156	0.417080	0.570600	0.578400
H1421	H142	0.397600	0.525800	0.549900
C1571	C157	0.442900	0.691200	0.656700
H1431	H143	0.446500	0.745700	0.693500
N531	N53	0.458810	0.574900	0.570590
N541	N54	0.473630	0.652800	0.619600
H1441	H144	0.500000	0.675400	0.626200
N551	N55	0.857460	0.575700	0.676750
C1581	C158	0.898880	0.515700	0.593600
N561	N56	0.836190	0.493100	0.634620
H1451	H145	0.810500	0.467300	0.638900
C1591	C159	0.859930	0.456500	0.585900
H1461	H146	0.851500	0.399600	0.551700
C1601	C160	0.895450	0.589100	0.651400
H1471	H147	0.917200	0.641200	0.670100
O551	O55	0.169390	0.488270	0.692520
O561	O56	0.099850	0.466500	0.660180
C1611	C161	0.137450	0.422500	0.672600
Co81	Co8	0.828130	0.658930	0.757000
O571	O57	0.766690	0.643000	0.707960
O581	O58	0.890240	0.704000	0.803210
H1481	H148	0.901300	0.640000	0.820200
O591	O59	0.551650	0.538900	0.573440
O601	O60	0.595790	0.374300	0.590580
O611	O61	0.750400	0.453800	0.664970
C1621	C162	0.622060	0.577500	0.622620
C1631	C163	0.663170	0.532100	0.637570
H1491	H149	0.669300	0.447700	0.629100
N571	N57	0.828320	0.843400	0.715170
O621	O62	0.794240	0.728000	0.840250
H1501	H150	0.782800	0.795700	0.829800
N581	N58	0.488960	0.312200	0.533460
N591	N59	0.520600	0.241400	0.562970
H1511	H151	0.546200	0.268500	0.573100
C1641	C164	0.695430	0.611000	0.665150
C1651	C165	0.740830	0.564400	0.680160
C1661	C166	0.644960	0.786300	0.660400
C1671	C167	0.587150	0.489700	0.593150
C1681	C168	0.455400	0.234800	0.526870
H1521	H152	0.428500	0.258400	0.507800
C1691	C169	0.465100	0.115000	0.551610
C1701	C170	0.612920	0.705200	0.632770
H1531	H153	0.585500	0.736200	0.621200
C1711	C171	0.685460	0.736200	0.677680
H1541	H154	0.706500	0.788400	0.698300
C1721	C172	0.507490	0.122800	0.574830
H1551	H155	0.524100	0.058100	0.595000
C1731	C173	0.839920	0.038700	0.675010
C1741	C174	0.857740	0.928600	0.704000
H1561	H156	0.887000	0.916700	0.714300
N601	N60	0.791230	0.899100	0.693060
H1571	H157	0.766600	0.863500	0.693900
C1751	C175	0.436630	0.000300	0.552200
H1581	H158	0.453600	0.929000	0.569600
H1591	H159	0.426300	0.980600	0.506200
C1761	C176	0.861990	0.158700	0.658000
H1601	H160	0.844200	0.203300	0.623600
H1611	H161	0.864800	0.212000	0.697800
C1771	C177	0.796920	0.015600	0.669600
H1621	H162	0.775500	0.070800	0.652700
C1781	C178	0.905630	0.139100	0.633100
C1791	C179	0.917080	0.070600	0.578400
H1631	H163	0.897600	0.025800	0.549900
C1801	C180	0.942900	0.191200	0.656700
H1641	H164	0.946500	0.245700	0.693500
N611	N61	0.958810	0.074900	0.570590
N621	N62	0.973630	0.152800	0.619600
H1651	H165	0.000000	0.175400	0.626200
N631	N63	0.357460	0.075700	0.676750
C1811	C181	0.398880	0.015700	0.593600
N641	N64	0.336190	0.993100	0.634620
H1661	H166	0.310500	0.967300	0.638900
C1821	C182	0.359930	0.956500	0.585900
H1671	H167	0.351500	0.899600	0.551700
C1831	C183	0.395450	0.089100	0.651400
H1681	H168	0.417200	0.141200	0.670100
O631	O63	0.669390	0.988270	0.692520
O641	O64	0.599850	0.966500	0.660180
C1841	C184	0.637450	0.922500	0.672600
Co91	Co9	0.000000	0.000000	0.000000
Co101	Co10	0.500000	0.500000	0.000000
Co111	Co11	0.000000	0.000000	0.500000
Co121	Co12	0.500000	0.500000	0.500000
