data_ULOGAE_clean_PM
_symmetry_space_group_name_H-M	'P1'
_cell_length_a	10.240900
_cell_length_b	19.610200
_cell_length_c	37.787000
_cell_angle_alpha	89.025000
_cell_angle_beta	89.263000
_cell_angle_gamma	76.471000
_symmetry_Int_Tables_number 1

loop_
_symmetry_equiv_pos_as_xyz
'x,y,z'

loop_
_atom_site_label
_atom_site_type_symbol
_atom_site_fract_x
_atom_site_fract_y
_atom_site_fract_z
Cd11	Cd1	0.858260	0.689390	0.609240
Cd21	Cd2	0.185600	0.695370	0.611330
Cd31	Cd3	0.357130	0.169100	0.896540
Cd41	Cd4	0.689710	0.177870	0.892860
Cd51	Cd5	0.201800	0.769850	0.841170
Cd61	Cd6	0.510580	0.633240	0.819210
Cd71	Cd7	0.783020	0.590300	0.889560
Cd81	Cd8	0.000940	0.710240	0.911180
Cd91	Cd9	0.556030	0.161540	0.589780
Cd101	Cd10	0.721340	0.291920	0.627960
Cd111	Cd11	0.012940	0.230970	0.684830
Cd121	Cd12	0.329630	0.101110	0.655670
O11	O1	0.860900	0.668700	0.667300
O21	O2	0.077400	0.670600	0.661500
O31	O3	0.374900	0.634700	0.766400
O41	O4	0.278200	0.660600	0.818800
O51	O5	0.810200	0.620500	0.832800
O61	O6	0.682500	0.636800	0.785100
C11	C1	0.995200	0.657700	0.719200
C21	C2	0.120200	0.654600	0.734000
H11	H1	0.194400	0.657100	0.719100
C31	C3	0.137000	0.648000	0.770300
C41	C4	0.029500	0.642500	0.792500
H21	H2	0.040700	0.639300	0.817400
C51	C5	0.906300	0.641900	0.777800
C61	C6	0.889600	0.650500	0.741500
H31	H3	0.804300	0.651600	0.731700
C71	C7	0.978300	0.666600	0.680000
C81	C8	0.273200	0.646800	0.785500
C91	C9	0.791500	0.632500	0.800700
O71	O7	0.880500	0.797500	0.619500
O81	O8	0.092900	0.808700	0.620300
O91	O9	0.193300	0.031400	0.648200
O101	O10	0.032400	0.121900	0.664400
O111	O11	0.551600	0.105000	0.642700
O121	O12	0.515300	0.999600	0.649900
C101	C10	0.921300	0.906900	0.632000
C111	C11	0.010100	0.950100	0.637100
H41	H4	0.103500	0.930300	0.634200
C121	C12	0.970600	0.019000	0.645700
C131	C13	0.832000	0.049500	0.648100
H51	H5	0.800800	0.097900	0.653000
C141	C14	0.743300	0.008700	0.643100
C151	C15	0.785300	0.938500	0.635700
H61	H6	0.720700	0.911300	0.633000
C161	C16	0.968100	0.830500	0.623900
C171	C17	0.071800	0.062800	0.653500
C181	C18	0.593300	0.038800	0.645300
O131	O13	0.430700	0.179200	0.839800
O141	O14	0.652800	0.179300	0.836200
O151	O15	0.850500	0.223900	0.724000
O161	O16	0.741400	0.220800	0.673200
O171	O17	0.252900	0.206600	0.680500
O181	O18	0.154200	0.226000	0.733000
C191	C19	0.524100	0.194800	0.784400
C201	C20	0.635600	0.200700	0.763600
H71	H7	0.719700	0.197200	0.774700
C211	C21	0.626100	0.211600	0.727500
C221	C22	0.504100	0.214400	0.710700
H81	H8	0.497300	0.219300	0.685700
C231	C23	0.392200	0.209800	0.731400
C241	C24	0.404300	0.199600	0.767200
H91	H9	0.327400	0.195800	0.780700
C251	C25	0.534600	0.182700	0.823600
C261	C26	0.745000	0.220600	0.706400
C271	C27	0.260000	0.213700	0.713800
O191	O19	0.434400	0.055900	0.890100
O201	O20	0.644600	0.066900	0.893300
O211	O21	0.018800	0.872500	0.852900
O221	O22	0.983500	0.765200	0.856400
O231	O23	0.510100	0.744800	0.834900
O241	O24	0.343800	0.837000	0.847900
C281	C28	0.605100	0.958300	0.874700
C291	C29	0.744600	0.930600	0.870700
H101	H10	0.806000	0.958800	0.875500
C301	C30	0.790600	0.863600	0.859900
C311	C31	0.700800	0.820800	0.850800
H111	H11	0.733800	0.774100	0.843100
C321	C32	0.565100	0.849600	0.853700
C331	C33	0.518700	0.917700	0.866100
H121	H12	0.424700	0.936300	0.868600
C341	C34	0.558900	0.033600	0.886900
C351	C35	0.940400	0.832400	0.855600
C361	C36	0.466500	0.805400	0.844500
O251	O25	0.769400	0.701900	0.905800
O261	O26	0.820600	0.773800	0.944300
O271	O27	0.536500	0.830600	0.049800
O281	O28	0.318000	0.822900	0.049000
O291	O29	0.129900	0.772600	0.937400
O301	O30	0.263600	0.718700	0.895100
C371	C37	0.598600	0.759800	0.946400
C381	C38	0.578800	0.785900	0.981400
H131	H13	0.653000	0.793900	0.994100
C391	C39	0.451900	0.799800	0.997300
C401	C40	0.344300	0.789000	0.977500
H141	H14	0.256800	0.798700	0.987800
C411	C41	0.363300	0.763800	0.942600
C421	C42	0.490600	0.747400	0.927900
H151	H15	0.504400	0.727600	0.905000
C431	C43	0.738000	0.743600	0.930900
C441	C44	0.434400	0.818800	0.034900
C451	C45	0.242800	0.750200	0.924000
O311	O31	0.984400	0.517100	0.894300
O321	O32	0.058800	0.612700	0.882500
O331	O33	0.554200	0.593200	0.875600
O341	O34	0.686500	0.490900	0.892500
O351	O35	0.518600	0.277800	0.895000
O361	O36	0.296000	0.284900	0.897300
C461	C46	0.218100	0.504400	0.888400
C471	C47	0.326500	0.536300	0.886600
H161	H16	0.311800	0.586000	0.885500
C481	C48	0.455800	0.494300	0.886300
C491	C49	0.479600	0.422500	0.890100
H171	H17	0.568700	0.394600	0.891800
C501	C50	0.367600	0.390800	0.891400
C511	C51	0.238200	0.429900	0.891700
H181	H18	0.164400	0.408400	0.894000
C521	C52	0.074700	0.549200	0.888500
C531	C53	0.573100	0.529400	0.884700
C541	C54	0.396100	0.311900	0.895000
O371	O37	0.234300	0.808500	0.406200
O381	O38	0.317700	0.806600	0.459800
O391	O39	0.074700	0.714300	0.557200
O401	O40	0.855400	0.718000	0.552000
O411	O41	0.624700	0.813200	0.443600
O421	O42	0.731100	0.853500	0.399300
C551	C55	0.096100	0.791100	0.454500
C561	C56	0.092400	0.764100	0.488300
H191	H19	0.172500	0.751900	0.501700
C571	C57	0.971100	0.754400	0.503200
C581	C58	0.854700	0.773100	0.482600
H201	H20	0.772800	0.765200	0.491900
C591	C59	0.855500	0.802300	0.449700
C601	C60	0.977700	0.811100	0.434800
H211	H21	0.979700	0.830500	0.411600
C611	C61	0.224700	0.802600	0.439400
C621	C62	0.968800	0.726500	0.540400
C631	C63	0.728600	0.825700	0.429100
O431	O43	0.964700	0.277200	0.630700
O441	O44	0.837300	0.371300	0.606400
O451	O45	0.002000	0.585900	0.599100
O461	O46	0.221700	0.580400	0.600800
O471	O47	0.539700	0.349300	0.599500
O481	O48	0.468200	0.260600	0.621800
C641	C64	0.066800	0.371000	0.611600
C651	C65	0.042300	0.442800	0.606800
H221	H22	0.952400	0.469900	0.606400
C661	C66	0.147700	0.475800	0.602700
C671	C67	0.279500	0.433600	0.602700
H231	H23	0.352700	0.455100	0.599000
C681	C68	0.305000	0.363100	0.607800
C691	C69	0.199200	0.330700	0.612900
H241	H24	0.216500	0.281500	0.617300
C701	C70	0.951600	0.338200	0.616200
C711	C71	0.121400	0.554400	0.600000
C721	C72	0.447000	0.321000	0.609700
Cd131	Cd13	0.141740	0.310610	0.390760
Cd141	Cd14	0.814400	0.304630	0.388670
Cd151	Cd15	0.642870	0.830900	0.103460
Cd161	Cd16	0.310290	0.822130	0.107140
Cd171	Cd17	0.798200	0.230150	0.158830
Cd181	Cd18	0.489420	0.366760	0.180790
Cd191	Cd19	0.216980	0.409700	0.110440
Cd201	Cd20	0.999060	0.289760	0.088820
Cd211	Cd21	0.443970	0.838460	0.410220
Cd221	Cd22	0.278660	0.708080	0.372040
Cd231	Cd23	0.987060	0.769030	0.315170
Cd241	Cd24	0.670370	0.898890	0.344330
O491	O49	0.139100	0.331300	0.332700
O501	O50	0.922600	0.329400	0.338500
O511	O51	0.625100	0.365300	0.233600
O521	O52	0.721800	0.339400	0.181200
O531	O53	0.189800	0.379500	0.167200
O541	O54	0.317500	0.363200	0.214900
C731	C73	0.004800	0.342300	0.280800
C741	C74	0.879800	0.345400	0.266000
H251	H25	0.805600	0.342900	0.280900
C751	C75	0.863000	0.352000	0.229700
C761	C76	0.970500	0.357500	0.207500
H261	H26	0.959300	0.360700	0.182600
C771	C77	0.093700	0.358100	0.222200
C781	C78	0.110400	0.349500	0.258500
H271	H27	0.195700	0.348400	0.268300
C791	C79	0.021700	0.333400	0.320000
C801	C80	0.726800	0.353200	0.214500
C811	C81	0.208500	0.367500	0.199300
O551	O55	0.119500	0.202500	0.380500
O561	O56	0.907100	0.191300	0.379700
O571	O57	0.806700	0.968600	0.351800
O581	O58	0.967600	0.878100	0.335600
O591	O59	0.448400	0.895000	0.357300
O601	O60	0.484700	0.000400	0.350100
C821	C82	0.078700	0.093100	0.368000
C831	C83	0.989900	0.049900	0.362900
H281	H28	0.896500	0.069700	0.365800
C841	C84	0.029400	0.981000	0.354300
C851	C85	0.168000	0.950500	0.351900
H291	H29	0.199200	0.902100	0.347000
C861	C86	0.256700	0.991300	0.356900
C871	C87	0.214700	0.061500	0.364300
H301	H30	0.279300	0.088700	0.367000
C881	C88	0.031900	0.169500	0.376100
C891	C89	0.928200	0.937200	0.346500
C901	C90	0.406700	0.961200	0.354700
O611	O61	0.569300	0.820800	0.160200
O621	O62	0.347200	0.820700	0.163800
O631	O63	0.149500	0.776100	0.276000
O641	O64	0.258600	0.779200	0.326800
O651	O65	0.747100	0.793400	0.319500
O661	O66	0.845800	0.774000	0.267000
C911	C91	0.475900	0.805200	0.215600
C921	C92	0.364400	0.799300	0.236400
H311	H31	0.280300	0.802800	0.225300
C931	C93	0.373900	0.788400	0.272500
C941	C94	0.495900	0.785600	0.289300
H321	H32	0.502700	0.780700	0.314300
C951	C95	0.607800	0.790200	0.268600
C961	C96	0.595700	0.800400	0.232800
H331	H33	0.672600	0.804200	0.219300
C971	C97	0.465400	0.817300	0.176400
C981	C98	0.255000	0.779400	0.293600
C991	C99	0.740000	0.786300	0.286200
O671	O67	0.565600	0.944100	0.109900
O681	O68	0.355400	0.933100	0.106700
O691	O69	0.981200	0.127500	0.147100
O701	O70	0.016500	0.234800	0.143600
O711	O71	0.489900	0.255200	0.165100
O721	O72	0.656200	0.163000	0.152100
C1001	C100	0.394900	0.041700	0.125300
C1011	C101	0.255400	0.069400	0.129300
H341	H34	0.194000	0.041200	0.124500
C1021	C102	0.209400	0.136400	0.140100
C1031	C103	0.299200	0.179200	0.149200
H351	H35	0.266200	0.225900	0.156900
C1041	C104	0.434900	0.150400	0.146300
C1051	C105	0.481300	0.082300	0.133900
H361	H36	0.575300	0.063700	0.131400
C1061	C106	0.441100	0.966400	0.113100
C1071	C107	0.059600	0.167600	0.144400
C1081	C108	0.533500	0.194600	0.155500
O731	O73	0.230600	0.298100	0.094200
O741	O74	0.179400	0.226200	0.055700
O751	O75	0.463500	0.169400	0.950200
O761	O76	0.682000	0.177100	0.951000
O771	O77	0.870100	0.227400	0.062600
O781	O78	0.736400	0.281300	0.104900
C1091	C109	0.401400	0.240200	0.053600
C1101	C110	0.421200	0.214100	0.018600
H371	H37	0.347000	0.206100	0.005900
C1111	C111	0.548100	0.200200	0.002700
C1121	C112	0.655700	0.211000	0.022500
H381	H38	0.743200	0.201300	0.012200
C1131	C113	0.636700	0.236200	0.057400
C1141	C114	0.509400	0.252600	0.072100
H391	H39	0.495600	0.272400	0.095000
C1151	C115	0.262000	0.256400	0.069100
C1161	C116	0.565600	0.181200	0.965100
C1171	C117	0.757200	0.249800	0.076000
O791	O79	0.015600	0.482900	0.105700
O801	O80	0.941200	0.387300	0.117500
O811	O81	0.445800	0.406800	0.124400
O821	O82	0.313500	0.509100	0.107500
O831	O83	0.481400	0.722200	0.105000
O841	O84	0.704000	0.715100	0.102700
C1181	C118	0.781900	0.495600	0.111600
C1191	C119	0.673500	0.463700	0.113400
H401	H40	0.688200	0.414000	0.114500
C1201	C120	0.544200	0.505700	0.113700
C1211	C121	0.520400	0.577500	0.109900
H411	H41	0.431300	0.605400	0.108200
C1221	C122	0.632400	0.609200	0.108600
C1231	C123	0.761800	0.570100	0.108300
H421	H42	0.835600	0.591600	0.106000
C1241	C124	0.925300	0.450800	0.111500
C1251	C125	0.426900	0.470600	0.115300
C1261	C126	0.603900	0.688100	0.105000
O851	O85	0.765700	0.191500	0.593800
O861	O86	0.682300	0.193400	0.540200
O871	O87	0.925300	0.285700	0.442800
O881	O88	0.144600	0.282000	0.448000
O891	O89	0.375300	0.186800	0.556400
O901	O90	0.268900	0.146500	0.600700
C1271	C127	0.903900	0.208900	0.545500
C1281	C128	0.907600	0.235900	0.511700
H431	H43	0.827500	0.248100	0.498300
C1291	C129	0.028900	0.245600	0.496800
C1301	C130	0.145300	0.226900	0.517400
H441	H44	0.227200	0.234800	0.508100
C1311	C131	0.144500	0.197700	0.550300
C1321	C132	0.022300	0.188900	0.565200
H451	H45	0.020300	0.169500	0.588400
C1331	C133	0.775300	0.197400	0.560600
C1341	C134	0.031200	0.273500	0.459600
C1351	C135	0.271400	0.174300	0.570900
O911	O91	0.035300	0.722800	0.369300
O921	O92	0.162700	0.628700	0.393600
O931	O93	0.998000	0.414100	0.400900
O941	O94	0.778300	0.419600	0.399200
O951	O95	0.460300	0.650700	0.400500
O961	O96	0.531800	0.739400	0.378200
C1361	C136	0.933200	0.629000	0.388400
C1371	C137	0.957700	0.557200	0.393200
H461	H46	0.047600	0.530100	0.393600
C1381	C138	0.852300	0.524200	0.397300
C1391	C139	0.720500	0.566400	0.397300
H471	H47	0.647300	0.544900	0.401000
C1401	C140	0.695000	0.636900	0.392200
C1411	C141	0.800800	0.669300	0.387100
H481	H48	0.783500	0.718500	0.382700
C1421	C142	0.048400	0.661800	0.383800
C1431	C143	0.878600	0.445600	0.400000
C1441	C144	0.553000	0.679000	0.390300
