data_ULOLIS_clean_PM
_symmetry_space_group_name_H-M	'P1'
_cell_length_a	35.254700
_cell_length_b	14.762800
_cell_length_c	31.040500
_cell_angle_alpha	90.000000
_cell_angle_beta	101.841000
_cell_angle_gamma	90.000000
_symmetry_Int_Tables_number 1

loop_
_symmetry_equiv_pos_as_xyz
'x,y,z'

loop_
_atom_site_label
_atom_site_type_symbol
_atom_site_fract_x
_atom_site_fract_y
_atom_site_fract_z
I11	I1	0.523560	0.850470	0.632710
I21	I2	0.734160	0.260220	0.296700
I31	I3	0.616280	0.757810	0.560480
I41	I4	0.628720	0.330500	0.197430
I51	I5	0.889800	0.241630	0.400660
I61	I6	0.852670	0.091150	0.510250
Zn11	Zn1	0.580580	0.875410	0.595570
Zn21	Zn2	0.873750	0.096530	0.436720
Zn31	Zn3	0.672330	0.350970	0.273000
N11	N1	0.683800	0.488900	0.278700
N21	N2	0.832100	0.030000	0.392000
N31	N3	0.720700	0.946800	0.271600
N41	N4	0.680700	0.819600	0.250500
N51	N5	0.619500	0.055800	0.143000
N61	N6	0.639500	0.334200	0.320100
N71	N7	0.567400	0.979700	0.550100
N81	N8	0.522300	0.270500	0.471500
N91	N9	0.734200	0.808400	0.310400
N101	N10	0.420400	0.511100	0.440600
N111	N11	0.538100	0.352500	0.411900
N121	N12	0.574200	0.220600	0.438500
C11	C1	0.556700	0.132200	0.496000
C21	C2	0.610600	0.972300	0.153900
H11	H1	0.587900	0.946800	0.138100
C31	C3	0.773300	0.941300	0.334600
C41	C4	0.666000	0.958300	0.210400
C51	C5	0.690700	0.905900	0.246500
C61	C6	0.551300	0.212100	0.466500
C71	C7	0.741200	0.896100	0.303900
C81	C8	0.517200	0.336400	0.441900
C91	C9	0.676200	0.046400	0.200000
H21	H2	0.698600	0.073700	0.215600
C101	C10	0.704400	0.773500	0.281400
C111	C11	0.649900	0.279600	0.355300
H31	H3	0.673900	0.250900	0.359300
C121	C12	0.632700	0.921100	0.186900
H41	H4	0.625200	0.862900	0.192900
C131	C13	0.652100	0.091500	0.165900
H51	H5	0.659100	0.149500	0.158700
C141	C14	0.658900	0.546800	0.253900
H61	H6	0.637100	0.523400	0.235100
C151	C15	0.591700	0.308000	0.380600
C161	C16	0.566900	0.293000	0.412100
C171	C17	0.715200	0.523500	0.305300
H71	H7	0.732800	0.484100	0.322200
C181	C18	0.437400	0.466100	0.476900
H81	H8	0.427700	0.474000	0.502300
C191	C19	0.696700	0.674800	0.282800
C201	C20	0.587600	0.073100	0.497100
H91	H9	0.605300	0.084000	0.479300
C211	C21	0.483900	0.398200	0.442100
C221	C22	0.784300	0.027400	0.326500
H101	H10	0.771600	0.057500	0.301300
C231	C23	0.581100	0.364800	0.344500
H111	H11	0.557600	0.395400	0.339900
C241	C24	0.791900	0.899700	0.372900
H121	H12	0.784900	0.841700	0.380000
C251	C25	0.813400	0.069300	0.354600
H131	H13	0.820700	0.127300	0.347900
C261	C26	0.530600	0.110900	0.522500
H141	H14	0.509200	0.147800	0.522500
C271	C27	0.821600	0.946300	0.400700
H151	H15	0.834500	0.918000	0.426300
C281	C28	0.664400	0.637900	0.255100
H161	H16	0.646500	0.675600	0.237400
C291	C29	0.536500	0.035200	0.548600
H171	H17	0.518700	0.021500	0.566000
C301	C30	0.627600	0.264400	0.384900
H181	H18	0.636100	0.224900	0.408200
C311	C31	0.722300	0.614600	0.308500
H191	H19	0.744200	0.636400	0.327800
C321	C32	0.605200	0.375700	0.316000
H201	H20	0.597400	0.414400	0.292200
C331	C33	0.592200	0.999100	0.524200
H211	H21	0.613300	0.961200	0.524600
C341	C34	0.468100	0.409500	0.478700
H221	H22	0.478300	0.378500	0.504500
C351	C35	0.435300	0.499500	0.405300
H231	H23	0.424400	0.531300	0.379900
C361	C36	0.466300	0.442500	0.403900
H241	H24	0.475200	0.434300	0.377900
I71	I7	0.023560	0.350470	0.632710
I81	I8	0.234160	0.760220	0.296700
I91	I9	0.116280	0.257810	0.560480
I101	I10	0.128720	0.830500	0.197430
I111	I11	0.389800	0.741630	0.400660
I121	I12	0.352670	0.591150	0.510250
Zn41	Zn4	0.080580	0.375410	0.595570
Zn51	Zn5	0.373750	0.596530	0.436720
Zn61	Zn6	0.172330	0.850970	0.273000
N131	N13	0.183800	0.988900	0.278700
N141	N14	0.332100	0.530000	0.392000
N151	N15	0.220700	0.446800	0.271600
N161	N16	0.180700	0.319600	0.250500
N171	N17	0.119500	0.555800	0.143000
N181	N18	0.139500	0.834200	0.320100
N191	N19	0.067400	0.479700	0.550100
N201	N20	0.022300	0.770500	0.471500
N211	N21	0.234200	0.308400	0.310400
N221	N22	0.920400	0.011100	0.440600
N231	N23	0.038100	0.852500	0.411900
N241	N24	0.074200	0.720600	0.438500
C371	C37	0.056700	0.632200	0.496000
C381	C38	0.110600	0.472300	0.153900
H251	H25	0.087900	0.446800	0.138100
C391	C39	0.273300	0.441300	0.334600
C401	C40	0.166000	0.458300	0.210400
C411	C41	0.190700	0.405900	0.246500
C421	C42	0.051300	0.712100	0.466500
C431	C43	0.241200	0.396100	0.303900
C441	C44	0.017200	0.836400	0.441900
C451	C45	0.176200	0.546400	0.200000
H261	H26	0.198600	0.573700	0.215600
C461	C46	0.204400	0.273500	0.281400
C471	C47	0.149900	0.779600	0.355300
H271	H27	0.173900	0.750900	0.359300
C481	C48	0.132700	0.421100	0.186900
H281	H28	0.125200	0.362900	0.192900
C491	C49	0.152100	0.591500	0.165900
H291	H29	0.159100	0.649500	0.158700
C501	C50	0.158900	0.046800	0.253900
H301	H30	0.137100	0.023400	0.235100
C511	C51	0.091700	0.808000	0.380600
C521	C52	0.066900	0.793000	0.412100
C531	C53	0.215200	0.023500	0.305300
H311	H31	0.232800	0.984100	0.322200
C541	C54	0.937400	0.966100	0.476900
H321	H32	0.927700	0.974000	0.502300
C551	C55	0.196700	0.174800	0.282800
C561	C56	0.087600	0.573100	0.497100
H331	H33	0.105300	0.584000	0.479300
C571	C57	0.983900	0.898200	0.442100
C581	C58	0.284300	0.527400	0.326500
H341	H34	0.271600	0.557500	0.301300
C591	C59	0.081100	0.864800	0.344500
H351	H35	0.057600	0.895400	0.339900
C601	C60	0.291900	0.399700	0.372900
H361	H36	0.284900	0.341700	0.380000
C611	C61	0.313400	0.569300	0.354600
H371	H37	0.320700	0.627300	0.347900
C621	C62	0.030600	0.610900	0.522500
H381	H38	0.009200	0.647800	0.522500
C631	C63	0.321600	0.446300	0.400700
H391	H39	0.334500	0.418000	0.426300
C641	C64	0.164400	0.137900	0.255100
H401	H40	0.146500	0.175600	0.237400
C651	C65	0.036500	0.535200	0.548600
H411	H41	0.018700	0.521500	0.566000
C661	C66	0.127600	0.764400	0.384900
H421	H42	0.136100	0.724900	0.408200
C671	C67	0.222300	0.114600	0.308500
H431	H43	0.244200	0.136400	0.327800
C681	C68	0.105200	0.875700	0.316000
H441	H44	0.097400	0.914400	0.292200
C691	C69	0.092200	0.499100	0.524200
H451	H45	0.113300	0.461200	0.524600
C701	C70	0.968100	0.909500	0.478700
H461	H46	0.978300	0.878500	0.504500
C711	C71	0.935300	0.999500	0.405300
H471	H47	0.924400	0.031300	0.379900
C721	C72	0.966300	0.942500	0.403900
H481	H48	0.975200	0.934300	0.377900
I131	I13	0.523560	0.149530	0.132710
I141	I14	0.734160	0.739780	0.796700
I151	I15	0.616280	0.242190	0.060480
I161	I16	0.628720	0.669500	0.697430
I171	I17	0.889800	0.758370	0.900660
I181	I18	0.852670	0.908850	0.010250
Zn71	Zn7	0.580580	0.124590	0.095570
Zn81	Zn8	0.873750	0.903470	0.936720
Zn91	Zn9	0.672330	0.649030	0.773000
N251	N25	0.683800	0.511100	0.778700
N261	N26	0.832100	0.970000	0.892000
N271	N27	0.720700	0.053200	0.771600
N281	N28	0.680700	0.180400	0.750500
N291	N29	0.619500	0.944200	0.643000
N301	N30	0.639500	0.665800	0.820100
N311	N31	0.567400	0.020300	0.050100
N321	N32	0.522300	0.729500	0.971500
N331	N33	0.734200	0.191600	0.810400
N341	N34	0.420400	0.488900	0.940600
N351	N35	0.538100	0.647500	0.911900
N361	N36	0.574200	0.779400	0.938500
C731	C73	0.556700	0.867800	0.996000
C741	C74	0.610600	0.027700	0.653900
H491	H49	0.587900	0.053200	0.638100
C751	C75	0.773300	0.058700	0.834600
C761	C76	0.666000	0.041700	0.710400
C771	C77	0.690700	0.094100	0.746500
C781	C78	0.551300	0.787900	0.966500
C791	C79	0.741200	0.103900	0.803900
C801	C80	0.517200	0.663600	0.941900
C811	C81	0.676200	0.953600	0.700000
H501	H50	0.698600	0.926300	0.715600
C821	C82	0.704400	0.226500	0.781400
C831	C83	0.649900	0.720400	0.855300
H511	H51	0.673900	0.749100	0.859300
C841	C84	0.632700	0.078900	0.686900
H521	H52	0.625200	0.137100	0.692900
C851	C85	0.652100	0.908500	0.665900
H531	H53	0.659100	0.850500	0.658700
C861	C86	0.658900	0.453200	0.753900
H541	H54	0.637100	0.476600	0.735100
C871	C87	0.591700	0.692000	0.880600
C881	C88	0.566900	0.707000	0.912100
C891	C89	0.715200	0.476500	0.805300
H551	H55	0.732800	0.515900	0.822200
C901	C90	0.437400	0.533900	0.976900
H561	H56	0.427700	0.526000	0.002300
C911	C91	0.696700	0.325200	0.782800
C921	C92	0.587600	0.926900	0.997100
H571	H57	0.605300	0.916000	0.979300
C931	C93	0.483900	0.601800	0.942100
C941	C94	0.784300	0.972600	0.826500
H581	H58	0.771600	0.942500	0.801300
C951	C95	0.581100	0.635200	0.844500
H591	H59	0.557600	0.604600	0.839900
C961	C96	0.791900	0.100300	0.872900
H601	H60	0.784900	0.158300	0.880000
C971	C97	0.813400	0.930700	0.854600
H611	H61	0.820700	0.872700	0.847900
C981	C98	0.530600	0.889100	0.022500
H621	H62	0.509200	0.852200	0.022500
C991	C99	0.821600	0.053700	0.900700
H631	H63	0.834500	0.082000	0.926300
C1001	C100	0.664400	0.362100	0.755100
H641	H64	0.646500	0.324400	0.737400
C1011	C101	0.536500	0.964800	0.048600
H651	H65	0.518700	0.978500	0.066000
C1021	C102	0.627600	0.735600	0.884900
H661	H66	0.636100	0.775100	0.908200
C1031	C103	0.722300	0.385400	0.808500
H671	H67	0.744200	0.363600	0.827800
C1041	C104	0.605200	0.624300	0.816000
H681	H68	0.597400	0.585600	0.792200
C1051	C105	0.592200	0.000900	0.024200
H691	H69	0.613300	0.038800	0.024600
C1061	C106	0.468100	0.590500	0.978700
H701	H70	0.478300	0.621500	0.004500
C1071	C107	0.435300	0.500500	0.905300
H711	H71	0.424400	0.468700	0.879900
C1081	C108	0.466300	0.557500	0.903900
H721	H72	0.475200	0.565700	0.877900
I191	I19	0.023560	0.649530	0.132710
I201	I20	0.234160	0.239780	0.796700
I211	I21	0.116280	0.742190	0.060480
I221	I22	0.128720	0.169500	0.697430
I231	I23	0.389800	0.258370	0.900660
I241	I24	0.352670	0.408850	0.010250
Zn101	Zn10	0.080580	0.624590	0.095570
Zn111	Zn11	0.373750	0.403470	0.936720
Zn121	Zn12	0.172330	0.149030	0.773000
N371	N37	0.183800	0.011100	0.778700
N381	N38	0.332100	0.470000	0.892000
N391	N39	0.220700	0.553200	0.771600
N401	N40	0.180700	0.680400	0.750500
N411	N41	0.119500	0.444200	0.643000
N421	N42	0.139500	0.165800	0.820100
N431	N43	0.067400	0.520300	0.050100
N441	N44	0.022300	0.229500	0.971500
N451	N45	0.234200	0.691600	0.810400
N461	N46	0.920400	0.988900	0.940600
N471	N47	0.038100	0.147500	0.911900
N481	N48	0.074200	0.279400	0.938500
C1091	C109	0.056700	0.367800	0.996000
C1101	C110	0.110600	0.527700	0.653900
H731	H73	0.087900	0.553200	0.638100
C1111	C111	0.273300	0.558700	0.834600
C1121	C112	0.166000	0.541700	0.710400
C1131	C113	0.190700	0.594100	0.746500
C1141	C114	0.051300	0.287900	0.966500
C1151	C115	0.241200	0.603900	0.803900
C1161	C116	0.017200	0.163600	0.941900
C1171	C117	0.176200	0.453600	0.700000
H741	H74	0.198600	0.426300	0.715600
C1181	C118	0.204400	0.726500	0.781400
C1191	C119	0.149900	0.220400	0.855300
H751	H75	0.173900	0.249100	0.859300
C1201	C120	0.132700	0.578900	0.686900
H761	H76	0.125200	0.637100	0.692900
C1211	C121	0.152100	0.408500	0.665900
H771	H77	0.159100	0.350500	0.658700
C1221	C122	0.158900	0.953200	0.753900
H781	H78	0.137100	0.976600	0.735100
C1231	C123	0.091700	0.192000	0.880600
C1241	C124	0.066900	0.207000	0.912100
C1251	C125	0.215200	0.976500	0.805300
H791	H79	0.232800	0.015900	0.822200
C1261	C126	0.937400	0.033900	0.976900
H801	H80	0.927700	0.026000	0.002300
C1271	C127	0.196700	0.825200	0.782800
C1281	C128	0.087600	0.426900	0.997100
H811	H81	0.105300	0.416000	0.979300
C1291	C129	0.983900	0.101800	0.942100
C1301	C130	0.284300	0.472600	0.826500
H821	H82	0.271600	0.442500	0.801300
C1311	C131	0.081100	0.135200	0.844500
H831	H83	0.057600	0.104600	0.839900
C1321	C132	0.291900	0.600300	0.872900
H841	H84	0.284900	0.658300	0.880000
C1331	C133	0.313400	0.430700	0.854600
H851	H85	0.320700	0.372700	0.847900
C1341	C134	0.030600	0.389100	0.022500
H861	H86	0.009200	0.352200	0.022500
C1351	C135	0.321600	0.553700	0.900700
H871	H87	0.334500	0.582000	0.926300
C1361	C136	0.164400	0.862100	0.755100
H881	H88	0.146500	0.824400	0.737400
C1371	C137	0.036500	0.464800	0.048600
H891	H89	0.018700	0.478500	0.066000
C1381	C138	0.127600	0.235600	0.884900
H901	H90	0.136100	0.275100	0.908200
C1391	C139	0.222300	0.885400	0.808500
H911	H91	0.244200	0.863600	0.827800
C1401	C140	0.105200	0.124300	0.816000
H921	H92	0.097400	0.085600	0.792200
C1411	C141	0.092200	0.500900	0.024200
H931	H93	0.113300	0.538800	0.024600
C1421	C142	0.968100	0.090500	0.978700
H941	H94	0.978300	0.121500	0.004500
C1431	C143	0.935300	0.000500	0.905300
H951	H95	0.924400	0.968700	0.879900
C1441	C144	0.966300	0.057500	0.903900
H961	H96	0.975200	0.065700	0.877900
I251	I25	0.476440	0.850470	0.867290
I261	I26	0.265840	0.260220	0.203300
I271	I27	0.383720	0.757810	0.939520
I281	I28	0.371280	0.330500	0.302570
I291	I29	0.110200	0.241630	0.099340
I301	I30	0.147330	0.091150	0.989750
Zn131	Zn13	0.419420	0.875410	0.904430
Zn141	Zn14	0.126250	0.096530	0.063280
Zn151	Zn15	0.327670	0.350970	0.227000
N491	N49	0.316200	0.488900	0.221300
N501	N50	0.167900	0.030000	0.108000
N511	N51	0.279300	0.946800	0.228400
N521	N52	0.319300	0.819600	0.249500
N531	N53	0.380500	0.055800	0.357000
N541	N54	0.360500	0.334200	0.179900
N551	N55	0.432600	0.979700	0.949900
N561	N56	0.477700	0.270500	0.028500
N571	N57	0.265800	0.808400	0.189600
N581	N58	0.579600	0.511100	0.059400
N591	N59	0.461900	0.352500	0.088100
N601	N60	0.425800	0.220600	0.061500
C1451	C145	0.443300	0.132200	0.004000
C1461	C146	0.389400	0.972300	0.346100
H971	H97	0.412100	0.946800	0.361900
C1471	C147	0.226700	0.941300	0.165400
C1481	C148	0.334000	0.958300	0.289600
C1491	C149	0.309300	0.905900	0.253500
C1501	C150	0.448700	0.212100	0.033500
C1511	C151	0.258800	0.896100	0.196100
C1521	C152	0.482800	0.336400	0.058100
C1531	C153	0.323800	0.046400	0.300000
H981	H98	0.301400	0.073700	0.284400
C1541	C154	0.295600	0.773500	0.218600
C1551	C155	0.350100	0.279600	0.144700
H991	H99	0.326100	0.250900	0.140700
C1561	C156	0.367300	0.921100	0.313100
H1001	H100	0.374800	0.862900	0.307100
C1571	C157	0.347900	0.091500	0.334100
H1011	H101	0.340900	0.149500	0.341300
C1581	C158	0.341100	0.546800	0.246100
H1021	H102	0.362900	0.523400	0.264900
C1591	C159	0.408300	0.308000	0.119400
C1601	C160	0.433100	0.293000	0.087900
C1611	C161	0.284800	0.523500	0.194700
H1031	H103	0.267200	0.484100	0.177800
C1621	C162	0.562600	0.466100	0.023100
H1041	H104	0.572300	0.474000	0.997700
C1631	C163	0.303300	0.674800	0.217200
C1641	C164	0.412400	0.073100	0.002900
H1051	H105	0.394700	0.084000	0.020700
C1651	C165	0.516100	0.398200	0.057900
C1661	C166	0.215700	0.027400	0.173500
H1061	H106	0.228400	0.057500	0.198700
C1671	C167	0.418900	0.364800	0.155500
H1071	H107	0.442400	0.395400	0.160100
C1681	C168	0.208100	0.899700	0.127100
H1081	H108	0.215100	0.841700	0.120000
C1691	C169	0.186600	0.069300	0.145400
H1091	H109	0.179300	0.127300	0.152100
C1701	C170	0.469400	0.110900	0.977500
H1101	H110	0.490800	0.147800	0.977500
C1711	C171	0.178400	0.946300	0.099300
H1111	H111	0.165500	0.918000	0.073700
C1721	C172	0.335600	0.637900	0.244900
H1121	H112	0.353500	0.675600	0.262600
C1731	C173	0.463500	0.035200	0.951400
H1131	H113	0.481300	0.021500	0.934000
C1741	C174	0.372400	0.264400	0.115100
H1141	H114	0.363900	0.224900	0.091800
C1751	C175	0.277700	0.614600	0.191500
H1151	H115	0.255800	0.636400	0.172200
C1761	C176	0.394800	0.375700	0.184000
H1161	H116	0.402600	0.414400	0.207800
C1771	C177	0.407800	0.999100	0.975800
H1171	H117	0.386700	0.961200	0.975400
C1781	C178	0.531900	0.409500	0.021300
H1181	H118	0.521700	0.378500	0.995500
C1791	C179	0.564700	0.499500	0.094700
H1191	H119	0.575600	0.531300	0.120100
C1801	C180	0.533700	0.442500	0.096100
H1201	H120	0.524800	0.434300	0.122100
I311	I31	0.976440	0.350470	0.867290
I321	I32	0.765840	0.760220	0.203300
I331	I33	0.883720	0.257810	0.939520
I341	I34	0.871280	0.830500	0.302570
I351	I35	0.610200	0.741630	0.099340
I361	I36	0.647330	0.591150	0.989750
Zn161	Zn16	0.919420	0.375410	0.904430
Zn171	Zn17	0.626250	0.596530	0.063280
Zn181	Zn18	0.827670	0.850970	0.227000
N611	N61	0.816200	0.988900	0.221300
N621	N62	0.667900	0.530000	0.108000
N631	N63	0.779300	0.446800	0.228400
N641	N64	0.819300	0.319600	0.249500
N651	N65	0.880500	0.555800	0.357000
N661	N66	0.860500	0.834200	0.179900
N671	N67	0.932600	0.479700	0.949900
N681	N68	0.977700	0.770500	0.028500
N691	N69	0.765800	0.308400	0.189600
N701	N70	0.079600	0.011100	0.059400
N711	N71	0.961900	0.852500	0.088100
N721	N72	0.925800	0.720600	0.061500
C1811	C181	0.943300	0.632200	0.004000
C1821	C182	0.889400	0.472300	0.346100
H1211	H121	0.912100	0.446800	0.361900
C1831	C183	0.726700	0.441300	0.165400
C1841	C184	0.834000	0.458300	0.289600
C1851	C185	0.809300	0.405900	0.253500
C1861	C186	0.948700	0.712100	0.033500
C1871	C187	0.758800	0.396100	0.196100
C1881	C188	0.982800	0.836400	0.058100
C1891	C189	0.823800	0.546400	0.300000
H1221	H122	0.801400	0.573700	0.284400
C1901	C190	0.795600	0.273500	0.218600
C1911	C191	0.850100	0.779600	0.144700
H1231	H123	0.826100	0.750900	0.140700
C1921	C192	0.867300	0.421100	0.313100
H1241	H124	0.874800	0.362900	0.307100
C1931	C193	0.847900	0.591500	0.334100
H1251	H125	0.840900	0.649500	0.341300
C1941	C194	0.841100	0.046800	0.246100
H1261	H126	0.862900	0.023400	0.264900
C1951	C195	0.908300	0.808000	0.119400
C1961	C196	0.933100	0.793000	0.087900
C1971	C197	0.784800	0.023500	0.194700
H1271	H127	0.767200	0.984100	0.177800
C1981	C198	0.062600	0.966100	0.023100
H1281	H128	0.072300	0.974000	0.997700
C1991	C199	0.803300	0.174800	0.217200
C2001	C200	0.912400	0.573100	0.002900
H1291	H129	0.894700	0.584000	0.020700
C2011	C201	0.016100	0.898200	0.057900
C2021	C202	0.715700	0.527400	0.173500
H1301	H130	0.728400	0.557500	0.198700
C2031	C203	0.918900	0.864800	0.155500
H1311	H131	0.942400	0.895400	0.160100
C2041	C204	0.708100	0.399700	0.127100
H1321	H132	0.715100	0.341700	0.120000
C2051	C205	0.686600	0.569300	0.145400
H1331	H133	0.679300	0.627300	0.152100
C2061	C206	0.969400	0.610900	0.977500
H1341	H134	0.990800	0.647800	0.977500
C2071	C207	0.678400	0.446300	0.099300
H1351	H135	0.665500	0.418000	0.073700
C2081	C208	0.835600	0.137900	0.244900
H1361	H136	0.853500	0.175600	0.262600
C2091	C209	0.963500	0.535200	0.951400
H1371	H137	0.981300	0.521500	0.934000
C2101	C210	0.872400	0.764400	0.115100
H1381	H138	0.863900	0.724900	0.091800
C2111	C211	0.777700	0.114600	0.191500
H1391	H139	0.755800	0.136400	0.172200
C2121	C212	0.894800	0.875700	0.184000
H1401	H140	0.902600	0.914400	0.207800
C2131	C213	0.907800	0.499100	0.975800
H1411	H141	0.886700	0.461200	0.975400
C2141	C214	0.031900	0.909500	0.021300
H1421	H142	0.021700	0.878500	0.995500
C2151	C215	0.064700	0.999500	0.094700
H1431	H143	0.075600	0.031300	0.120100
C2161	C216	0.033700	0.942500	0.096100
H1441	H144	0.024800	0.934300	0.122100
I371	I37	0.476440	0.149530	0.367290
I381	I38	0.265840	0.739780	0.703300
I391	I39	0.383720	0.242190	0.439520
I401	I40	0.371280	0.669500	0.802570
I411	I41	0.110200	0.758370	0.599340
I421	I42	0.147330	0.908850	0.489750
Zn191	Zn19	0.419420	0.124590	0.404430
Zn201	Zn20	0.126250	0.903470	0.563280
Zn211	Zn21	0.327670	0.649030	0.727000
N731	N73	0.316200	0.511100	0.721300
N741	N74	0.167900	0.970000	0.608000
N751	N75	0.279300	0.053200	0.728400
N761	N76	0.319300	0.180400	0.749500
N771	N77	0.380500	0.944200	0.857000
N781	N78	0.360500	0.665800	0.679900
N791	N79	0.432600	0.020300	0.449900
N801	N80	0.477700	0.729500	0.528500
N811	N81	0.265800	0.191600	0.689600
N821	N82	0.579600	0.488900	0.559400
N831	N83	0.461900	0.647500	0.588100
N841	N84	0.425800	0.779400	0.561500
C2171	C217	0.443300	0.867800	0.504000
C2181	C218	0.389400	0.027700	0.846100
H1451	H145	0.412100	0.053200	0.861900
C2191	C219	0.226700	0.058700	0.665400
C2201	C220	0.334000	0.041700	0.789600
C2211	C221	0.309300	0.094100	0.753500
C2221	C222	0.448700	0.787900	0.533500
C2231	C223	0.258800	0.103900	0.696100
C2241	C224	0.482800	0.663600	0.558100
C2251	C225	0.323800	0.953600	0.800000
H1461	H146	0.301400	0.926300	0.784400
C2261	C226	0.295600	0.226500	0.718600
C2271	C227	0.350100	0.720400	0.644700
H1471	H147	0.326100	0.749100	0.640700
C2281	C228	0.367300	0.078900	0.813100
H1481	H148	0.374800	0.137100	0.807100
C2291	C229	0.347900	0.908500	0.834100
H1491	H149	0.340900	0.850500	0.841300
C2301	C230	0.341100	0.453200	0.746100
H1501	H150	0.362900	0.476600	0.764900
C2311	C231	0.408300	0.692000	0.619400
C2321	C232	0.433100	0.707000	0.587900
C2331	C233	0.284800	0.476500	0.694700
H1511	H151	0.267200	0.515900	0.677800
C2341	C234	0.562600	0.533900	0.523100
H1521	H152	0.572300	0.526000	0.497700
C2351	C235	0.303300	0.325200	0.717200
C2361	C236	0.412400	0.926900	0.502900
H1531	H153	0.394700	0.916000	0.520700
C2371	C237	0.516100	0.601800	0.557900
C2381	C238	0.215700	0.972600	0.673500
H1541	H154	0.228400	0.942500	0.698700
C2391	C239	0.418900	0.635200	0.655500
H1551	H155	0.442400	0.604600	0.660100
C2401	C240	0.208100	0.100300	0.627100
H1561	H156	0.215100	0.158300	0.620000
C2411	C241	0.186600	0.930700	0.645400
H1571	H157	0.179300	0.872700	0.652100
C2421	C242	0.469400	0.889100	0.477500
H1581	H158	0.490800	0.852200	0.477500
C2431	C243	0.178400	0.053700	0.599300
H1591	H159	0.165500	0.082000	0.573700
C2441	C244	0.335600	0.362100	0.744900
H1601	H160	0.353500	0.324400	0.762600
C2451	C245	0.463500	0.964800	0.451400
H1611	H161	0.481300	0.978500	0.434000
C2461	C246	0.372400	0.735600	0.615100
H1621	H162	0.363900	0.775100	0.591800
C2471	C247	0.277700	0.385400	0.691500
H1631	H163	0.255800	0.363600	0.672200
C2481	C248	0.394800	0.624300	0.684000
H1641	H164	0.402600	0.585600	0.707800
C2491	C249	0.407800	0.000900	0.475800
H1651	H165	0.386700	0.038800	0.475400
C2501	C250	0.531900	0.590500	0.521300
H1661	H166	0.521700	0.621500	0.495500
C2511	C251	0.564700	0.500500	0.594700
H1671	H167	0.575600	0.468700	0.620100
C2521	C252	0.533700	0.557500	0.596100
H1681	H168	0.524800	0.565700	0.622100
I431	I43	0.976440	0.649530	0.367290
I441	I44	0.765840	0.239780	0.703300
I451	I45	0.883720	0.742190	0.439520
I461	I46	0.871280	0.169500	0.802570
I471	I47	0.610200	0.258370	0.599340
I481	I48	0.647330	0.408850	0.489750
Zn221	Zn22	0.919420	0.624590	0.404430
Zn231	Zn23	0.626250	0.403470	0.563280
Zn241	Zn24	0.827670	0.149030	0.727000
N851	N85	0.816200	0.011100	0.721300
N861	N86	0.667900	0.470000	0.608000
N871	N87	0.779300	0.553200	0.728400
N881	N88	0.819300	0.680400	0.749500
N891	N89	0.880500	0.444200	0.857000
N901	N90	0.860500	0.165800	0.679900
N911	N91	0.932600	0.520300	0.449900
N921	N92	0.977700	0.229500	0.528500
N931	N93	0.765800	0.691600	0.689600
N941	N94	0.079600	0.988900	0.559400
N951	N95	0.961900	0.147500	0.588100
N961	N96	0.925800	0.279400	0.561500
C2531	C253	0.943300	0.367800	0.504000
C2541	C254	0.889400	0.527700	0.846100
H1691	H169	0.912100	0.553200	0.861900
C2551	C255	0.726700	0.558700	0.665400
C2561	C256	0.834000	0.541700	0.789600
C2571	C257	0.809300	0.594100	0.753500
C2581	C258	0.948700	0.287900	0.533500
C2591	C259	0.758800	0.603900	0.696100
C2601	C260	0.982800	0.163600	0.558100
C2611	C261	0.823800	0.453600	0.800000
H1701	H170	0.801400	0.426300	0.784400
C2621	C262	0.795600	0.726500	0.718600
C2631	C263	0.850100	0.220400	0.644700
H1711	H171	0.826100	0.249100	0.640700
C2641	C264	0.867300	0.578900	0.813100
H1721	H172	0.874800	0.637100	0.807100
C2651	C265	0.847900	0.408500	0.834100
H1731	H173	0.840900	0.350500	0.841300
C2661	C266	0.841100	0.953200	0.746100
H1741	H174	0.862900	0.976600	0.764900
C2671	C267	0.908300	0.192000	0.619400
C2681	C268	0.933100	0.207000	0.587900
C2691	C269	0.784800	0.976500	0.694700
H1751	H175	0.767200	0.015900	0.677800
C2701	C270	0.062600	0.033900	0.523100
H1761	H176	0.072300	0.026000	0.497700
C2711	C271	0.803300	0.825200	0.717200
C2721	C272	0.912400	0.426900	0.502900
H1771	H177	0.894700	0.416000	0.520700
C2731	C273	0.016100	0.101800	0.557900
C2741	C274	0.715700	0.472600	0.673500
H1781	H178	0.728400	0.442500	0.698700
C2751	C275	0.918900	0.135200	0.655500
H1791	H179	0.942400	0.104600	0.660100
C2761	C276	0.708100	0.600300	0.627100
H1801	H180	0.715100	0.658300	0.620000
C2771	C277	0.686600	0.430700	0.645400
H1811	H181	0.679300	0.372700	0.652100
C2781	C278	0.969400	0.389100	0.477500
H1821	H182	0.990800	0.352200	0.477500
C2791	C279	0.678400	0.553700	0.599300
H1831	H183	0.665500	0.582000	0.573700
C2801	C280	0.835600	0.862100	0.744900
H1841	H184	0.853500	0.824400	0.762600
C2811	C281	0.963500	0.464800	0.451400
H1851	H185	0.981300	0.478500	0.434000
C2821	C282	0.872400	0.235600	0.615100
H1861	H186	0.863900	0.275100	0.591800
C2831	C283	0.777700	0.885400	0.691500
H1871	H187	0.755800	0.863600	0.672200
C2841	C284	0.894800	0.124300	0.684000
H1881	H188	0.902600	0.085600	0.707800
C2851	C285	0.907800	0.500900	0.475800
H1891	H189	0.886700	0.538800	0.475400
C2861	C286	0.031900	0.090500	0.521300
H1901	H190	0.021700	0.121500	0.495500
C2871	C287	0.064700	0.000500	0.594700
H1911	H191	0.075600	0.968700	0.620100
C2881	C288	0.033700	0.057500	0.596100
H1921	H192	0.024800	0.065700	0.622100
