data_ULOLEO_clean_PM
_symmetry_space_group_name_H-M	'P1'
_cell_length_a	35.150200
_cell_length_b	14.613900
_cell_length_c	31.065500
_cell_angle_alpha	90.000000
_cell_angle_beta	101.300000
_cell_angle_gamma	90.000000
_symmetry_Int_Tables_number 1

loop_
_symmetry_equiv_pos_as_xyz
'x,y,z'

loop_
_atom_site_label
_atom_site_type_symbol
_atom_site_fract_x
_atom_site_fract_y
_atom_site_fract_z
I11	I1	0.268730	0.746220	0.209220
I21	I2	0.380240	0.757450	0.440710
I31	I3	0.375460	0.663820	0.303990
I41	I4	0.475860	0.836080	0.368470
I51	I5	0.649830	0.602160	0.492650
I61	I6	0.607990	0.741700	0.603940
Zn11	Zn1	0.417430	0.869360	0.402570
Zn21	Zn2	0.330340	0.652130	0.229060
Zn31	Zn3	0.626180	0.601040	0.564370
N11	N1	0.362680	0.327500	0.680900
N21	N2	0.318600	0.513700	0.219900
N31	N3	0.279300	0.051900	0.226600
N41	N4	0.430440	0.979100	0.445600
N51	N5	0.379340	0.939600	0.353800
N61	N6	0.266750	0.191900	0.187400
N71	N7	0.579290	0.513300	0.558200
N81	N8	0.320220	0.179100	0.247300
N91	N9	0.167730	0.967700	0.109000
C11	C1	0.344000	0.454800	0.242800
H11	H1	0.366400	0.477800	0.260500
N101	N10	0.460250	0.354000	0.584500
N111	N11	0.424790	0.221100	0.558100
C21	C2	0.481700	0.338500	0.554100
C31	C3	0.259600	0.104000	0.194700
N121	N12	0.476340	0.271400	0.524500
C41	C4	0.346600	0.903500	0.331100
H21	H2	0.339300	0.845100	0.338200
C51	C5	0.226600	0.058500	0.164900
C61	C6	0.333700	0.038100	0.287100
C71	C7	0.463000	0.029000	0.449800
H31	H3	0.481900	0.011000	0.434300
C81	C8	0.309800	0.093300	0.251600
C91	C9	0.564300	0.467400	0.522000
H41	H4	0.575400	0.474600	0.497400
C101	C10	0.296900	0.226700	0.216000
C111	C11	0.304900	0.326300	0.214900
C121	C12	0.323300	0.950700	0.297200
H51	H5	0.300900	0.923900	0.281400
C131	C13	0.515400	0.400300	0.554700
C141	C14	0.408200	0.081700	0.495700
H61	H6	0.389000	0.098700	0.510900
C151	C15	0.350700	0.275000	0.646100
H71	H7	0.326600	0.246800	0.643100
C161	C16	0.338200	0.360900	0.241300
H81	H8	0.356300	0.321900	0.257700
C171	C17	0.562900	0.501900	0.593200
H91	H9	0.573200	0.533100	0.618900
C181	C18	0.447900	0.212900	0.528700
C191	C19	0.532800	0.409500	0.519200
H101	H10	0.523600	0.377100	0.493500
C201	C20	0.431800	0.292900	0.584800
C211	C21	0.287000	0.479400	0.193900
H111	H11	0.269400	0.519800	0.177700
C221	C22	0.403400	0.005400	0.468500
H121	H12	0.380800	0.971100	0.466000
C231	C23	0.213800	0.974800	0.175900
H131	H13	0.225000	0.947300	0.202300
C241	C24	0.389700	0.023400	0.343500
H141	H14	0.412700	0.047900	0.359100
C251	C25	0.442200	0.132100	0.499600
C261	C26	0.179800	0.050200	0.098800
H151	H15	0.167900	0.076300	0.072300
C271	C27	0.208800	0.098600	0.125500
H161	H16	0.216200	0.156200	0.117400
C281	C28	0.407700	0.304600	0.618100
C291	C29	0.469800	0.105500	0.475900
H171	H17	0.492600	0.138700	0.477600
C301	C30	0.372400	0.260300	0.614100
H181	H18	0.363500	0.221600	0.590500
C311	C31	0.367700	0.075100	0.310900
H191	H19	0.375500	0.133800	0.305000
C321	C32	0.184400	0.931600	0.147700
H201	H20	0.175700	0.875300	0.155800
C331	C33	0.419800	0.358900	0.654200
H211	H21	0.443500	0.389300	0.657700
C341	C34	0.397000	0.368300	0.685400
H221	H22	0.405800	0.404100	0.710100
C351	C35	0.279300	0.387300	0.190200
H231	H23	0.257200	0.366100	0.171300
C361	C36	0.531300	0.445800	0.592700
H241	H24	0.520900	0.438800	0.617800
I71	I7	0.768730	0.246220	0.209220
I81	I8	0.880240	0.257450	0.440710
I91	I9	0.875460	0.163820	0.303990
I101	I10	0.975860	0.336080	0.368470
I111	I11	0.149830	0.102160	0.492650
I121	I12	0.107990	0.241700	0.603940
Zn41	Zn4	0.917430	0.369360	0.402570
Zn51	Zn5	0.830340	0.152130	0.229060
Zn61	Zn6	0.126180	0.101040	0.564370
N131	N13	0.862680	0.827500	0.680900
N141	N14	0.818600	0.013700	0.219900
N151	N15	0.779300	0.551900	0.226600
N161	N16	0.930440	0.479100	0.445600
N171	N17	0.879340	0.439600	0.353800
N181	N18	0.766750	0.691900	0.187400
N191	N19	0.079290	0.013300	0.558200
N201	N20	0.820220	0.679100	0.247300
N211	N21	0.667730	0.467700	0.109000
C371	C37	0.844000	0.954800	0.242800
H251	H25	0.866400	0.977800	0.260500
N221	N22	0.960250	0.854000	0.584500
N231	N23	0.924790	0.721100	0.558100
C381	C38	0.981700	0.838500	0.554100
C391	C39	0.759600	0.604000	0.194700
N241	N24	0.976340	0.771400	0.524500
C401	C40	0.846600	0.403500	0.331100
H261	H26	0.839300	0.345100	0.338200
C411	C41	0.726600	0.558500	0.164900
C421	C42	0.833700	0.538100	0.287100
C431	C43	0.963000	0.529000	0.449800
H271	H27	0.981900	0.511000	0.434300
C441	C44	0.809800	0.593300	0.251600
C451	C45	0.064300	0.967400	0.522000
H281	H28	0.075400	0.974600	0.497400
C461	C46	0.796900	0.726700	0.216000
C471	C47	0.804900	0.826300	0.214900
C481	C48	0.823300	0.450700	0.297200
H291	H29	0.800900	0.423900	0.281400
C491	C49	0.015400	0.900300	0.554700
C501	C50	0.908200	0.581700	0.495700
H301	H30	0.889000	0.598700	0.510900
C511	C51	0.850700	0.775000	0.646100
H311	H31	0.826600	0.746800	0.643100
C521	C52	0.838200	0.860900	0.241300
H321	H32	0.856300	0.821900	0.257700
C531	C53	0.062900	0.001900	0.593200
H331	H33	0.073200	0.033100	0.618900
C541	C54	0.947900	0.712900	0.528700
C551	C55	0.032800	0.909500	0.519200
H341	H34	0.023600	0.877100	0.493500
C561	C56	0.931800	0.792900	0.584800
C571	C57	0.787000	0.979400	0.193900
H351	H35	0.769400	0.019800	0.177700
C581	C58	0.903400	0.505400	0.468500
H361	H36	0.880800	0.471100	0.466000
C591	C59	0.713800	0.474800	0.175900
H371	H37	0.725000	0.447300	0.202300
C601	C60	0.889700	0.523400	0.343500
H381	H38	0.912700	0.547900	0.359100
C611	C61	0.942200	0.632100	0.499600
C621	C62	0.679800	0.550200	0.098800
H391	H39	0.667900	0.576300	0.072300
C631	C63	0.708800	0.598600	0.125500
H401	H40	0.716200	0.656200	0.117400
C641	C64	0.907700	0.804600	0.618100
C651	C65	0.969800	0.605500	0.475900
H411	H41	0.992600	0.638700	0.477600
C661	C66	0.872400	0.760300	0.614100
H421	H42	0.863500	0.721600	0.590500
C671	C67	0.867700	0.575100	0.310900
H431	H43	0.875500	0.633800	0.305000
C681	C68	0.684400	0.431600	0.147700
H441	H44	0.675700	0.375300	0.155800
C691	C69	0.919800	0.858900	0.654200
H451	H45	0.943500	0.889300	0.657700
C701	C70	0.897000	0.868300	0.685400
H461	H46	0.905800	0.904100	0.710100
C711	C71	0.779300	0.887300	0.190200
H471	H47	0.757200	0.866100	0.171300
C721	C72	0.031300	0.945800	0.592700
H481	H48	0.020900	0.938800	0.617800
I131	I13	0.268730	0.253780	0.709220
I141	I14	0.380240	0.242550	0.940710
I151	I15	0.375460	0.336180	0.803990
I161	I16	0.475860	0.163920	0.868470
I171	I17	0.649830	0.397840	0.992650
I181	I18	0.607990	0.258300	0.103940
Zn71	Zn7	0.417430	0.130640	0.902570
Zn81	Zn8	0.330340	0.347870	0.729060
Zn91	Zn9	0.626180	0.398960	0.064370
N251	N25	0.362680	0.672500	0.180900
N261	N26	0.318600	0.486300	0.719900
N271	N27	0.279300	0.948100	0.726600
N281	N28	0.430440	0.020900	0.945600
N291	N29	0.379340	0.060400	0.853800
N301	N30	0.266750	0.808100	0.687400
N311	N31	0.579290	0.486700	0.058200
N321	N32	0.320220	0.820900	0.747300
N331	N33	0.167730	0.032300	0.609000
C731	C73	0.344000	0.545200	0.742800
H491	H49	0.366400	0.522200	0.760500
N341	N34	0.460250	0.646000	0.084500
N351	N35	0.424790	0.778900	0.058100
C741	C74	0.481700	0.661500	0.054100
C751	C75	0.259600	0.896000	0.694700
N361	N36	0.476340	0.728600	0.024500
C761	C76	0.346600	0.096500	0.831100
H501	H50	0.339300	0.154900	0.838200
C771	C77	0.226600	0.941500	0.664900
C781	C78	0.333700	0.961900	0.787100
C791	C79	0.463000	0.971000	0.949800
H511	H51	0.481900	0.989000	0.934300
C801	C80	0.309800	0.906700	0.751600
C811	C81	0.564300	0.532600	0.022000
H521	H52	0.575400	0.525400	0.997400
C821	C82	0.296900	0.773300	0.716000
C831	C83	0.304900	0.673700	0.714900
C841	C84	0.323300	0.049300	0.797200
H531	H53	0.300900	0.076100	0.781400
C851	C85	0.515400	0.599700	0.054700
C861	C86	0.408200	0.918300	0.995700
H541	H54	0.389000	0.901300	0.010900
C871	C87	0.350700	0.725000	0.146100
H551	H55	0.326600	0.753200	0.143100
C881	C88	0.338200	0.639100	0.741300
H561	H56	0.356300	0.678100	0.757700
C891	C89	0.562900	0.498100	0.093200
H571	H57	0.573200	0.466900	0.118900
C901	C90	0.447900	0.787100	0.028700
C911	C91	0.532800	0.590500	0.019200
H581	H58	0.523600	0.622900	0.993500
C921	C92	0.431800	0.707100	0.084800
C931	C93	0.287000	0.520600	0.693900
H591	H59	0.269400	0.480200	0.677700
C941	C94	0.403400	0.994600	0.968500
H601	H60	0.380800	0.028900	0.966000
C951	C95	0.213800	0.025200	0.675900
H611	H61	0.225000	0.052700	0.702300
C961	C96	0.389700	0.976600	0.843500
H621	H62	0.412700	0.952100	0.859100
C971	C97	0.442200	0.867900	0.999600
C981	C98	0.179800	0.949800	0.598800
H631	H63	0.167900	0.923700	0.572300
C991	C99	0.208800	0.901400	0.625500
H641	H64	0.216200	0.843800	0.617400
C1001	C100	0.407700	0.695400	0.118100
C1011	C101	0.469800	0.894500	0.975900
H651	H65	0.492600	0.861300	0.977600
C1021	C102	0.372400	0.739700	0.114100
H661	H66	0.363500	0.778400	0.090500
C1031	C103	0.367700	0.924900	0.810900
H671	H67	0.375500	0.866200	0.805000
C1041	C104	0.184400	0.068400	0.647700
H681	H68	0.175700	0.124700	0.655800
C1051	C105	0.419800	0.641100	0.154200
H691	H69	0.443500	0.610700	0.157700
C1061	C106	0.397000	0.631700	0.185400
H701	H70	0.405800	0.595900	0.210100
C1071	C107	0.279300	0.612700	0.690200
H711	H71	0.257200	0.633900	0.671300
C1081	C108	0.531300	0.554200	0.092700
H721	H72	0.520900	0.561200	0.117800
I191	I19	0.768730	0.753780	0.709220
I201	I20	0.880240	0.742550	0.940710
I211	I21	0.875460	0.836180	0.803990
I221	I22	0.975860	0.663920	0.868470
I231	I23	0.149830	0.897840	0.992650
I241	I24	0.107990	0.758300	0.103940
Zn101	Zn10	0.917430	0.630640	0.902570
Zn111	Zn11	0.830340	0.847870	0.729060
Zn121	Zn12	0.126180	0.898960	0.064370
N371	N37	0.862680	0.172500	0.180900
N381	N38	0.818600	0.986300	0.719900
N391	N39	0.779300	0.448100	0.726600
N401	N40	0.930440	0.520900	0.945600
N411	N41	0.879340	0.560400	0.853800
N421	N42	0.766750	0.308100	0.687400
N431	N43	0.079290	0.986700	0.058200
N441	N44	0.820220	0.320900	0.747300
N451	N45	0.667730	0.532300	0.609000
C1091	C109	0.844000	0.045200	0.742800
H731	H73	0.866400	0.022200	0.760500
N461	N46	0.960250	0.146000	0.084500
N471	N47	0.924790	0.278900	0.058100
C1101	C110	0.981700	0.161500	0.054100
C1111	C111	0.759600	0.396000	0.694700
N481	N48	0.976340	0.228600	0.024500
C1121	C112	0.846600	0.596500	0.831100
H741	H74	0.839300	0.654900	0.838200
C1131	C113	0.726600	0.441500	0.664900
C1141	C114	0.833700	0.461900	0.787100
C1151	C115	0.963000	0.471000	0.949800
H751	H75	0.981900	0.489000	0.934300
C1161	C116	0.809800	0.406700	0.751600
C1171	C117	0.064300	0.032600	0.022000
H761	H76	0.075400	0.025400	0.997400
C1181	C118	0.796900	0.273300	0.716000
C1191	C119	0.804900	0.173700	0.714900
C1201	C120	0.823300	0.549300	0.797200
H771	H77	0.800900	0.576100	0.781400
C1211	C121	0.015400	0.099700	0.054700
C1221	C122	0.908200	0.418300	0.995700
H781	H78	0.889000	0.401300	0.010900
C1231	C123	0.850700	0.225000	0.146100
H791	H79	0.826600	0.253200	0.143100
C1241	C124	0.838200	0.139100	0.741300
H801	H80	0.856300	0.178100	0.757700
C1251	C125	0.062900	0.998100	0.093200
H811	H81	0.073200	0.966900	0.118900
C1261	C126	0.947900	0.287100	0.028700
C1271	C127	0.032800	0.090500	0.019200
H821	H82	0.023600	0.122900	0.993500
C1281	C128	0.931800	0.207100	0.084800
C1291	C129	0.787000	0.020600	0.693900
H831	H83	0.769400	0.980200	0.677700
C1301	C130	0.903400	0.494600	0.968500
H841	H84	0.880800	0.528900	0.966000
C1311	C131	0.713800	0.525200	0.675900
H851	H85	0.725000	0.552700	0.702300
C1321	C132	0.889700	0.476600	0.843500
H861	H86	0.912700	0.452100	0.859100
C1331	C133	0.942200	0.367900	0.999600
C1341	C134	0.679800	0.449800	0.598800
H871	H87	0.667900	0.423700	0.572300
C1351	C135	0.708800	0.401400	0.625500
H881	H88	0.716200	0.343800	0.617400
C1361	C136	0.907700	0.195400	0.118100
C1371	C137	0.969800	0.394500	0.975900
H891	H89	0.992600	0.361300	0.977600
C1381	C138	0.872400	0.239700	0.114100
H901	H90	0.863500	0.278400	0.090500
C1391	C139	0.867700	0.424900	0.810900
H911	H91	0.875500	0.366200	0.805000
C1401	C140	0.684400	0.568400	0.647700
H921	H92	0.675700	0.624700	0.655800
C1411	C141	0.919800	0.141100	0.154200
H931	H93	0.943500	0.110700	0.157700
C1421	C142	0.897000	0.131700	0.185400
H941	H94	0.905800	0.095900	0.210100
C1431	C143	0.779300	0.112700	0.690200
H951	H95	0.757200	0.133900	0.671300
C1441	C144	0.031300	0.054200	0.092700
H961	H96	0.020900	0.061200	0.117800
I251	I25	0.731270	0.746220	0.290780
I261	I26	0.619760	0.757450	0.059290
I271	I27	0.624540	0.663820	0.196010
I281	I28	0.524140	0.836080	0.131530
I291	I29	0.350170	0.602160	0.007350
I301	I30	0.392010	0.741700	0.896060
Zn131	Zn13	0.582570	0.869360	0.097430
Zn141	Zn14	0.669660	0.652130	0.270940
Zn151	Zn15	0.373820	0.601040	0.935630
N491	N49	0.637320	0.327500	0.819100
N501	N50	0.681400	0.513700	0.280100
N511	N51	0.720700	0.051900	0.273400
N521	N52	0.569560	0.979100	0.054400
N531	N53	0.620660	0.939600	0.146200
N541	N54	0.733250	0.191900	0.312600
N551	N55	0.420710	0.513300	0.941800
N561	N56	0.679780	0.179100	0.252700
N571	N57	0.832270	0.967700	0.391000
C1451	C145	0.656000	0.454800	0.257200
H971	H97	0.633600	0.477800	0.239500
N581	N58	0.539750	0.354000	0.915500
N591	N59	0.575210	0.221100	0.941900
C1461	C146	0.518300	0.338500	0.945900
C1471	C147	0.740400	0.104000	0.305300
N601	N60	0.523660	0.271400	0.975500
C1481	C148	0.653400	0.903500	0.168900
H981	H98	0.660700	0.845100	0.161800
C1491	C149	0.773400	0.058500	0.335100
C1501	C150	0.666300	0.038100	0.212900
C1511	C151	0.537000	0.029000	0.050200
H991	H99	0.518100	0.011000	0.065700
C1521	C152	0.690200	0.093300	0.248400
C1531	C153	0.435700	0.467400	0.978000
H1001	H100	0.424600	0.474600	0.002600
C1541	C154	0.703100	0.226700	0.284000
C1551	C155	0.695100	0.326300	0.285100
C1561	C156	0.676700	0.950700	0.202800
H1011	H101	0.699100	0.923900	0.218600
C1571	C157	0.484600	0.400300	0.945300
C1581	C158	0.591800	0.081700	0.004300
H1021	H102	0.611000	0.098700	0.989100
C1591	C159	0.649300	0.275000	0.853900
H1031	H103	0.673400	0.246800	0.856900
C1601	C160	0.661800	0.360900	0.258700
H1041	H104	0.643700	0.321900	0.242300
C1611	C161	0.437100	0.501900	0.906800
H1051	H105	0.426800	0.533100	0.881100
C1621	C162	0.552100	0.212900	0.971300
C1631	C163	0.467200	0.409500	0.980800
H1061	H106	0.476400	0.377100	0.006500
C1641	C164	0.568200	0.292900	0.915200
C1651	C165	0.713000	0.479400	0.306100
H1071	H107	0.730600	0.519800	0.322300
C1661	C166	0.596600	0.005400	0.031500
H1081	H108	0.619200	0.971100	0.034000
C1671	C167	0.786200	0.974800	0.324100
H1091	H109	0.775000	0.947300	0.297700
C1681	C168	0.610300	0.023400	0.156500
H1101	H110	0.587300	0.047900	0.140900
C1691	C169	0.557800	0.132100	0.000400
C1701	C170	0.820200	0.050200	0.401200
H1111	H111	0.832100	0.076300	0.427700
C1711	C171	0.791200	0.098600	0.374500
H1121	H112	0.783800	0.156200	0.382600
C1721	C172	0.592300	0.304600	0.881900
C1731	C173	0.530200	0.105500	0.024100
H1131	H113	0.507400	0.138700	0.022400
C1741	C174	0.627600	0.260300	0.885900
H1141	H114	0.636500	0.221600	0.909500
C1751	C175	0.632300	0.075100	0.189100
H1151	H115	0.624500	0.133800	0.195000
C1761	C176	0.815600	0.931600	0.352300
H1161	H116	0.824300	0.875300	0.344200
C1771	C177	0.580200	0.358900	0.845800
H1171	H117	0.556500	0.389300	0.842300
C1781	C178	0.603000	0.368300	0.814600
H1181	H118	0.594200	0.404100	0.789900
C1791	C179	0.720700	0.387300	0.309800
H1191	H119	0.742800	0.366100	0.328700
C1801	C180	0.468700	0.445800	0.907300
H1201	H120	0.479100	0.438800	0.882200
I311	I31	0.231270	0.246220	0.290780
I321	I32	0.119760	0.257450	0.059290
I331	I33	0.124540	0.163820	0.196010
I341	I34	0.024140	0.336080	0.131530
I351	I35	0.850170	0.102160	0.007350
I361	I36	0.892010	0.241700	0.896060
Zn161	Zn16	0.082570	0.369360	0.097430
Zn171	Zn17	0.169660	0.152130	0.270940
Zn181	Zn18	0.873820	0.101040	0.935630
N611	N61	0.137320	0.827500	0.819100
N621	N62	0.181400	0.013700	0.280100
N631	N63	0.220700	0.551900	0.273400
N641	N64	0.069560	0.479100	0.054400
N651	N65	0.120660	0.439600	0.146200
N661	N66	0.233250	0.691900	0.312600
N671	N67	0.920710	0.013300	0.941800
N681	N68	0.179780	0.679100	0.252700
N691	N69	0.332270	0.467700	0.391000
C1811	C181	0.156000	0.954800	0.257200
H1211	H121	0.133600	0.977800	0.239500
N701	N70	0.039750	0.854000	0.915500
N711	N71	0.075210	0.721100	0.941900
C1821	C182	0.018300	0.838500	0.945900
C1831	C183	0.240400	0.604000	0.305300
N721	N72	0.023660	0.771400	0.975500
C1841	C184	0.153400	0.403500	0.168900
H1221	H122	0.160700	0.345100	0.161800
C1851	C185	0.273400	0.558500	0.335100
C1861	C186	0.166300	0.538100	0.212900
C1871	C187	0.037000	0.529000	0.050200
H1231	H123	0.018100	0.511000	0.065700
C1881	C188	0.190200	0.593300	0.248400
C1891	C189	0.935700	0.967400	0.978000
H1241	H124	0.924600	0.974600	0.002600
C1901	C190	0.203100	0.726700	0.284000
C1911	C191	0.195100	0.826300	0.285100
C1921	C192	0.176700	0.450700	0.202800
H1251	H125	0.199100	0.423900	0.218600
C1931	C193	0.984600	0.900300	0.945300
C1941	C194	0.091800	0.581700	0.004300
H1261	H126	0.111000	0.598700	0.989100
C1951	C195	0.149300	0.775000	0.853900
H1271	H127	0.173400	0.746800	0.856900
C1961	C196	0.161800	0.860900	0.258700
H1281	H128	0.143700	0.821900	0.242300
C1971	C197	0.937100	0.001900	0.906800
H1291	H129	0.926800	0.033100	0.881100
C1981	C198	0.052100	0.712900	0.971300
C1991	C199	0.967200	0.909500	0.980800
H1301	H130	0.976400	0.877100	0.006500
C2001	C200	0.068200	0.792900	0.915200
C2011	C201	0.213000	0.979400	0.306100
H1311	H131	0.230600	0.019800	0.322300
C2021	C202	0.096600	0.505400	0.031500
H1321	H132	0.119200	0.471100	0.034000
C2031	C203	0.286200	0.474800	0.324100
H1331	H133	0.275000	0.447300	0.297700
C2041	C204	0.110300	0.523400	0.156500
H1341	H134	0.087300	0.547900	0.140900
C2051	C205	0.057800	0.632100	0.000400
C2061	C206	0.320200	0.550200	0.401200
H1351	H135	0.332100	0.576300	0.427700
C2071	C207	0.291200	0.598600	0.374500
H1361	H136	0.283800	0.656200	0.382600
C2081	C208	0.092300	0.804600	0.881900
C2091	C209	0.030200	0.605500	0.024100
H1371	H137	0.007400	0.638700	0.022400
C2101	C210	0.127600	0.760300	0.885900
H1381	H138	0.136500	0.721600	0.909500
C2111	C211	0.132300	0.575100	0.189100
H1391	H139	0.124500	0.633800	0.195000
C2121	C212	0.315600	0.431600	0.352300
H1401	H140	0.324300	0.375300	0.344200
C2131	C213	0.080200	0.858900	0.845800
H1411	H141	0.056500	0.889300	0.842300
C2141	C214	0.103000	0.868300	0.814600
H1421	H142	0.094200	0.904100	0.789900
C2151	C215	0.220700	0.887300	0.309800
H1431	H143	0.242800	0.866100	0.328700
C2161	C216	0.968700	0.945800	0.907300
H1441	H144	0.979100	0.938800	0.882200
I371	I37	0.731270	0.253780	0.790780
I381	I38	0.619760	0.242550	0.559290
I391	I39	0.624540	0.336180	0.696010
I401	I40	0.524140	0.163920	0.631530
I411	I41	0.350170	0.397840	0.507350
I421	I42	0.392010	0.258300	0.396060
Zn191	Zn19	0.582570	0.130640	0.597430
Zn201	Zn20	0.669660	0.347870	0.770940
Zn211	Zn21	0.373820	0.398960	0.435630
N731	N73	0.637320	0.672500	0.319100
N741	N74	0.681400	0.486300	0.780100
N751	N75	0.720700	0.948100	0.773400
N761	N76	0.569560	0.020900	0.554400
N771	N77	0.620660	0.060400	0.646200
N781	N78	0.733250	0.808100	0.812600
N791	N79	0.420710	0.486700	0.441800
N801	N80	0.679780	0.820900	0.752700
N811	N81	0.832270	0.032300	0.891000
C2171	C217	0.656000	0.545200	0.757200
H1451	H145	0.633600	0.522200	0.739500
N821	N82	0.539750	0.646000	0.415500
N831	N83	0.575210	0.778900	0.441900
C2181	C218	0.518300	0.661500	0.445900
C2191	C219	0.740400	0.896000	0.805300
N841	N84	0.523660	0.728600	0.475500
C2201	C220	0.653400	0.096500	0.668900
H1461	H146	0.660700	0.154900	0.661800
C2211	C221	0.773400	0.941500	0.835100
C2221	C222	0.666300	0.961900	0.712900
C2231	C223	0.537000	0.971000	0.550200
H1471	H147	0.518100	0.989000	0.565700
C2241	C224	0.690200	0.906700	0.748400
C2251	C225	0.435700	0.532600	0.478000
H1481	H148	0.424600	0.525400	0.502600
C2261	C226	0.703100	0.773300	0.784000
C2271	C227	0.695100	0.673700	0.785100
C2281	C228	0.676700	0.049300	0.702800
H1491	H149	0.699100	0.076100	0.718600
C2291	C229	0.484600	0.599700	0.445300
C2301	C230	0.591800	0.918300	0.504300
H1501	H150	0.611000	0.901300	0.489100
C2311	C231	0.649300	0.725000	0.353900
H1511	H151	0.673400	0.753200	0.356900
C2321	C232	0.661800	0.639100	0.758700
H1521	H152	0.643700	0.678100	0.742300
C2331	C233	0.437100	0.498100	0.406800
H1531	H153	0.426800	0.466900	0.381100
C2341	C234	0.552100	0.787100	0.471300
C2351	C235	0.467200	0.590500	0.480800
H1541	H154	0.476400	0.622900	0.506500
C2361	C236	0.568200	0.707100	0.415200
C2371	C237	0.713000	0.520600	0.806100
H1551	H155	0.730600	0.480200	0.822300
C2381	C238	0.596600	0.994600	0.531500
H1561	H156	0.619200	0.028900	0.534000
C2391	C239	0.786200	0.025200	0.824100
H1571	H157	0.775000	0.052700	0.797700
C2401	C240	0.610300	0.976600	0.656500
H1581	H158	0.587300	0.952100	0.640900
C2411	C241	0.557800	0.867900	0.500400
C2421	C242	0.820200	0.949800	0.901200
H1591	H159	0.832100	0.923700	0.927700
C2431	C243	0.791200	0.901400	0.874500
H1601	H160	0.783800	0.843800	0.882600
C2441	C244	0.592300	0.695400	0.381900
C2451	C245	0.530200	0.894500	0.524100
H1611	H161	0.507400	0.861300	0.522400
C2461	C246	0.627600	0.739700	0.385900
H1621	H162	0.636500	0.778400	0.409500
C2471	C247	0.632300	0.924900	0.689100
H1631	H163	0.624500	0.866200	0.695000
C2481	C248	0.815600	0.068400	0.852300
H1641	H164	0.824300	0.124700	0.844200
C2491	C249	0.580200	0.641100	0.345800
H1651	H165	0.556500	0.610700	0.342300
C2501	C250	0.603000	0.631700	0.314600
H1661	H166	0.594200	0.595900	0.289900
C2511	C251	0.720700	0.612700	0.809800
H1671	H167	0.742800	0.633900	0.828700
C2521	C252	0.468700	0.554200	0.407300
H1681	H168	0.479100	0.561200	0.382200
I431	I43	0.231270	0.753780	0.790780
I441	I44	0.119760	0.742550	0.559290
I451	I45	0.124540	0.836180	0.696010
I461	I46	0.024140	0.663920	0.631530
I471	I47	0.850170	0.897840	0.507350
I481	I48	0.892010	0.758300	0.396060
Zn221	Zn22	0.082570	0.630640	0.597430
Zn231	Zn23	0.169660	0.847870	0.770940
Zn241	Zn24	0.873820	0.898960	0.435630
N851	N85	0.137320	0.172500	0.319100
N861	N86	0.181400	0.986300	0.780100
N871	N87	0.220700	0.448100	0.773400
N881	N88	0.069560	0.520900	0.554400
N891	N89	0.120660	0.560400	0.646200
N901	N90	0.233250	0.308100	0.812600
N911	N91	0.920710	0.986700	0.441800
N921	N92	0.179780	0.320900	0.752700
N931	N93	0.332270	0.532300	0.891000
C2531	C253	0.156000	0.045200	0.757200
H1691	H169	0.133600	0.022200	0.739500
N941	N94	0.039750	0.146000	0.415500
N951	N95	0.075210	0.278900	0.441900
C2541	C254	0.018300	0.161500	0.445900
C2551	C255	0.240400	0.396000	0.805300
N961	N96	0.023660	0.228600	0.475500
C2561	C256	0.153400	0.596500	0.668900
H1701	H170	0.160700	0.654900	0.661800
C2571	C257	0.273400	0.441500	0.835100
C2581	C258	0.166300	0.461900	0.712900
C2591	C259	0.037000	0.471000	0.550200
H1711	H171	0.018100	0.489000	0.565700
C2601	C260	0.190200	0.406700	0.748400
C2611	C261	0.935700	0.032600	0.478000
H1721	H172	0.924600	0.025400	0.502600
C2621	C262	0.203100	0.273300	0.784000
C2631	C263	0.195100	0.173700	0.785100
C2641	C264	0.176700	0.549300	0.702800
H1731	H173	0.199100	0.576100	0.718600
C2651	C265	0.984600	0.099700	0.445300
C2661	C266	0.091800	0.418300	0.504300
H1741	H174	0.111000	0.401300	0.489100
C2671	C267	0.149300	0.225000	0.353900
H1751	H175	0.173400	0.253200	0.356900
C2681	C268	0.161800	0.139100	0.758700
H1761	H176	0.143700	0.178100	0.742300
C2691	C269	0.937100	0.998100	0.406800
H1771	H177	0.926800	0.966900	0.381100
C2701	C270	0.052100	0.287100	0.471300
C2711	C271	0.967200	0.090500	0.480800
H1781	H178	0.976400	0.122900	0.506500
C2721	C272	0.068200	0.207100	0.415200
C2731	C273	0.213000	0.020600	0.806100
H1791	H179	0.230600	0.980200	0.822300
C2741	C274	0.096600	0.494600	0.531500
H1801	H180	0.119200	0.528900	0.534000
C2751	C275	0.286200	0.525200	0.824100
H1811	H181	0.275000	0.552700	0.797700
C2761	C276	0.110300	0.476600	0.656500
H1821	H182	0.087300	0.452100	0.640900
C2771	C277	0.057800	0.367900	0.500400
C2781	C278	0.320200	0.449800	0.901200
H1831	H183	0.332100	0.423700	0.927700
C2791	C279	0.291200	0.401400	0.874500
H1841	H184	0.283800	0.343800	0.882600
C2801	C280	0.092300	0.195400	0.381900
C2811	C281	0.030200	0.394500	0.524100
H1851	H185	0.007400	0.361300	0.522400
C2821	C282	0.127600	0.239700	0.385900
H1861	H186	0.136500	0.278400	0.409500
C2831	C283	0.132300	0.424900	0.689100
H1871	H187	0.124500	0.366200	0.695000
C2841	C284	0.315600	0.568400	0.852300
H1881	H188	0.324300	0.624700	0.844200
C2851	C285	0.080200	0.141100	0.345800
H1891	H189	0.056500	0.110700	0.342300
C2861	C286	0.103000	0.131700	0.314600
H1901	H190	0.094200	0.095900	0.289900
C2871	C287	0.220700	0.112700	0.809800
H1911	H191	0.242800	0.133900	0.828700
C2881	C288	0.968700	0.054200	0.407300
H1921	H192	0.979100	0.061200	0.382200
