data_ULUPUM01_clean_PM
_symmetry_space_group_name_H-M	'P1'
_cell_length_a	6.822000
_cell_length_b	9.970000
_cell_length_c	10.910200
_cell_angle_alpha	90.000000
_cell_angle_beta	90.000000
_cell_angle_gamma	90.000000
_symmetry_Int_Tables_number 1

loop_
_symmetry_equiv_pos_as_xyz
'x,y,z'

loop_
_atom_site_label
_atom_site_type_symbol
_atom_site_fract_x
_atom_site_fract_y
_atom_site_fract_z
Co11	Co1	0.141640	0.703020	0.290040
Co21	Co2	0.358360	0.296980	0.790040
Co31	Co3	0.858360	0.203020	0.209960
Co41	Co4	0.641640	0.796980	0.709960
H11	H1	0.626000	0.625000	0.420600
H21	H2	0.470000	0.586000	0.509000
H31	H3	0.451000	0.397000	0.310200
H41	H4	0.336000	0.418000	0.428600
H51	H5	0.874000	0.375000	0.920600
H61	H6	0.030000	0.414000	0.009000
H71	H7	0.049000	0.603000	0.810200
H81	H8	0.164000	0.582000	0.928600
H91	H9	0.374000	0.125000	0.079400
H101	H10	0.530000	0.086000	0.991000
H111	H11	0.549000	0.897000	0.189800
H121	H12	0.664000	0.918000	0.071400
H131	H13	0.126000	0.875000	0.579400
H141	H14	0.970000	0.914000	0.491000
H151	H15	0.951000	0.103000	0.689800
H161	H16	0.836000	0.082000	0.571400
C11	C1	0.454400	0.783300	0.448110
C21	C2	0.499500	0.634750	0.435120
C31	C3	0.341300	0.443020	0.344640
C41	C4	0.150200	0.415570	0.276130
C51	C5	0.045600	0.216700	0.948110
C61	C6	0.000500	0.365250	0.935120
C71	C7	0.158700	0.556980	0.844640
C81	C8	0.349800	0.584430	0.776130
C91	C9	0.545600	0.283300	0.051890
C101	C10	0.500500	0.134750	0.064880
C111	C11	0.658700	0.943020	0.155360
C121	C12	0.849800	0.915570	0.223870
C131	C13	0.954400	0.716700	0.551890
C141	C14	0.999500	0.865250	0.564880
C151	C15	0.841300	0.056980	0.655360
C161	C16	0.650200	0.084430	0.723870
O11	O1	0.336690	0.836760	0.372590
O21	O2	0.536590	0.847110	0.532430
O31	O3	0.048060	0.510170	0.238430
O41	O4	0.110780	0.291780	0.263940
O51	O5	0.384610	0.582380	0.336610
O61	O6	0.163310	0.163240	0.872590
O71	O7	0.963410	0.152890	0.032430
O81	O8	0.451940	0.489830	0.738430
O91	O9	0.389220	0.708220	0.763940
O101	O10	0.115390	0.417620	0.836610
O111	O11	0.663310	0.336760	0.127410
O121	O12	0.463410	0.347110	0.967570
O131	O13	0.951940	0.010170	0.261570
O141	O14	0.889220	0.791780	0.236060
O151	O15	0.615390	0.082380	0.163390
O161	O16	0.836690	0.663240	0.627410
O171	O17	0.036590	0.652890	0.467570
O181	O18	0.548060	0.989830	0.761570
O191	O19	0.610780	0.208220	0.736060
O201	O20	0.884610	0.917620	0.663390
