data_ULUQAV_clean_PM
_symmetry_space_group_name_H-M	'P1'
_cell_length_a	5.995300
_cell_length_b	11.935500
_cell_length_c	23.368000
_cell_angle_alpha	90.000000
_cell_angle_beta	97.076000
_cell_angle_gamma	90.000000
_symmetry_Int_Tables_number 1

loop_
_symmetry_equiv_pos_as_xyz
'x,y,z'

loop_
_atom_site_label
_atom_site_type_symbol
_atom_site_fract_x
_atom_site_fract_y
_atom_site_fract_z
Gd11	Gd1	0.614230	0.145720	0.043990
O11	O1	0.508000	0.834900	0.154800
O21	O2	0.621000	0.932700	0.035500
O31	O3	0.845000	0.007000	0.106800
O41	O4	0.295000	0.720200	0.029300
O51	O5	0.123000	0.883100	0.028000
O61	O6	0.539000	0.744300	0.411900
O71	O7	0.827000	0.732800	0.361400
C11	C1	0.684000	0.764400	0.143900
C21	C2	0.824000	0.809700	0.105200
C31	C3	0.999000	0.741600	0.090800
C41	C4	0.044000	0.639000	0.115200
H11	H1	0.172600	0.597900	0.108000
C51	C5	0.896000	0.596900	0.150900
H21	H2	0.920600	0.524000	0.166800
C61	C6	0.716000	0.658000	0.163900
H31	H3	0.612200	0.625500	0.186900
C71	C7	0.762000	0.921600	0.080500
C81	C8	0.152000	0.784500	0.048200
C91	C9	0.442000	0.837200	0.209500
C101	C10	0.574000	0.796300	0.259800
H41	H4	0.718800	0.764700	0.258300
C111	C11	0.481000	0.804800	0.311500
C121	C12	0.272000	0.850000	0.314200
H51	H5	0.208500	0.851500	0.349400
C131	C13	0.155000	0.893600	0.263100
H61	H6	0.013900	0.928900	0.265000
C141	C14	0.235000	0.887600	0.212000
H71	H7	0.151000	0.917100	0.178200
C151	C15	0.615000	0.759100	0.362400
Gd21	Gd2	0.885770	0.645720	0.456010
O81	O8	0.992000	0.334900	0.345200
O91	O9	0.879000	0.432700	0.464500
O101	O10	0.655000	0.507000	0.393200
O111	O11	0.205000	0.220200	0.470700
O121	O12	0.377000	0.383100	0.472000
O131	O13	0.961000	0.244300	0.088100
O141	O14	0.673000	0.232800	0.138600
C161	C16	0.816000	0.264400	0.356100
C171	C17	0.676000	0.309700	0.394800
C181	C18	0.501000	0.241600	0.409200
C191	C19	0.456000	0.139000	0.384800
H81	H8	0.327400	0.097900	0.392000
C201	C20	0.604000	0.096900	0.349100
H91	H9	0.579400	0.024000	0.333200
C211	C21	0.784000	0.158000	0.336100
H101	H10	0.887800	0.125500	0.313100
C221	C22	0.738000	0.421600	0.419500
C231	C23	0.348000	0.284500	0.451800
C241	C24	0.058000	0.337200	0.290500
C251	C25	0.926000	0.296300	0.240200
H111	H11	0.781200	0.264700	0.241700
C261	C26	0.019000	0.304800	0.188500
C271	C27	0.228000	0.350000	0.185800
H121	H12	0.291500	0.351500	0.150600
C281	C28	0.345000	0.393600	0.236900
H131	H13	0.486100	0.428900	0.235000
C291	C29	0.265000	0.387600	0.288000
H141	H14	0.349000	0.417100	0.321800
C301	C30	0.885000	0.259100	0.137600
Gd31	Gd3	0.385770	0.854280	0.956010
O151	O15	0.492000	0.165100	0.845200
O161	O16	0.379000	0.067300	0.964500
O171	O17	0.155000	0.993000	0.893200
O181	O18	0.705000	0.279800	0.970700
O191	O19	0.877000	0.116900	0.972000
O201	O20	0.461000	0.255700	0.588100
O211	O21	0.173000	0.267200	0.638600
C311	C31	0.316000	0.235600	0.856100
C321	C32	0.176000	0.190300	0.894800
C331	C33	0.001000	0.258400	0.909200
C341	C34	0.956000	0.361000	0.884800
H151	H15	0.827400	0.402100	0.892000
C351	C35	0.104000	0.403100	0.849100
H161	H16	0.079400	0.476000	0.833200
C361	C36	0.284000	0.342000	0.836100
H171	H17	0.387800	0.374500	0.813100
C371	C37	0.238000	0.078400	0.919500
C381	C38	0.848000	0.215500	0.951800
C391	C39	0.558000	0.162800	0.790500
C401	C40	0.426000	0.203700	0.740200
H181	H18	0.281200	0.235300	0.741700
C411	C41	0.519000	0.195200	0.688500
C421	C42	0.728000	0.150000	0.685800
H191	H19	0.791500	0.148500	0.650600
C431	C43	0.845000	0.106400	0.736900
H201	H20	0.986100	0.071100	0.735000
C441	C44	0.765000	0.112400	0.788000
H211	H21	0.849000	0.082900	0.821800
C451	C45	0.385000	0.240900	0.637600
Gd41	Gd4	0.114230	0.354280	0.543990
O221	O22	0.008000	0.665100	0.654800
O231	O23	0.121000	0.567300	0.535500
O241	O24	0.345000	0.493000	0.606800
O251	O25	0.795000	0.779800	0.529300
O261	O26	0.623000	0.616900	0.528000
O271	O27	0.039000	0.755700	0.911900
O281	O28	0.327000	0.767200	0.861400
C461	C46	0.184000	0.735600	0.643900
C471	C47	0.324000	0.690300	0.605200
C481	C48	0.499000	0.758400	0.590800
C491	C49	0.544000	0.861000	0.615200
H221	H22	0.672600	0.902100	0.608000
C501	C50	0.396000	0.903100	0.650900
H231	H23	0.420600	0.976000	0.666800
C511	C51	0.216000	0.842000	0.663900
H241	H24	0.112200	0.874500	0.686900
C521	C52	0.262000	0.578400	0.580500
C531	C53	0.652000	0.715500	0.548200
C541	C54	0.942000	0.662800	0.709500
C551	C55	0.074000	0.703700	0.759800
H251	H25	0.218800	0.735300	0.758300
C561	C56	0.981000	0.695200	0.811500
C571	C57	0.772000	0.650000	0.814200
H261	H26	0.708500	0.648500	0.849400
C581	C58	0.655000	0.606400	0.763100
H271	H27	0.513900	0.571100	0.765000
C591	C59	0.735000	0.612400	0.712000
H281	H28	0.651000	0.582900	0.678200
C601	C60	0.115000	0.740900	0.862400
