data_UMABOB_clean_PM
_symmetry_space_group_name_H-M	'P1'
_cell_length_a	17.388000
_cell_length_b	12.418000
_cell_length_c	19.709100
_cell_angle_alpha	90.000000
_cell_angle_beta	90.854000
_cell_angle_gamma	90.000000
_symmetry_Int_Tables_number 1

loop_
_symmetry_equiv_pos_as_xyz
'x,y,z'

loop_
_atom_site_label
_atom_site_type_symbol
_atom_site_fract_x
_atom_site_fract_y
_atom_site_fract_z
Mn11	Mn1	0.668840	0.003700	0.836190
Mn21	Mn2	0.657300	0.266400	0.742320
Mn31	Mn3	0.661350	0.001300	0.656450
O11	O1	0.631400	0.094000	0.747100
O21	O2	0.698600	0.135800	0.902400
O31	O3	0.670200	0.291300	0.850600
C11	C1	0.698100	0.234700	0.898600
C21	C2	0.733600	0.296600	0.957700
C31	C3	0.797600	0.260700	0.990800
H11	H1	0.821700	0.195700	0.977300
C41	C4	0.828000	0.320900	0.045400
H21	H2	0.874300	0.297500	0.067000
N11	N1	0.793700	0.409400	0.067700
C51	C5	0.729500	0.441900	0.035800
H31	H3	0.703700	0.503400	0.052900
C61	C6	0.698900	0.391300	0.979800
H41	H4	0.655200	0.420000	0.956600
O41	O4	0.649800	0.843700	0.798400
O51	O5	0.612500	0.847600	0.689800
C71	C7	0.637000	0.801000	0.742400
C81	C8	0.648400	0.680700	0.738500
C91	C9	0.629700	0.621100	0.681700
H51	H5	0.611200	0.655600	0.641600
C101	C10	0.638300	0.510100	0.683800
H61	H6	0.623200	0.470000	0.644800
N21	N2	0.666200	0.456600	0.737000
C111	C11	0.686700	0.514900	0.792100
H71	H7	0.707900	0.478500	0.830400
C121	C12	0.677800	0.628000	0.795200
H81	H8	0.691500	0.666800	0.835100
O61	O6	0.787100	0.998200	0.807300
O71	O7	0.769700	0.952700	0.697900
C131	C13	0.807600	0.956900	0.752700
C141	C14	0.885300	0.904500	0.752000
C151	C15	0.931800	0.899200	0.810500
H91	H9	0.914500	0.929100	0.851900
C161	C16	0.002800	0.850300	0.807900
H101	H10	0.033200	0.846000	0.848300
N31	N3	0.030900	0.808400	0.750400
C171	C17	0.985900	0.811300	0.695200
H111	H11	0.004300	0.780100	0.654500
C181	C18	0.913900	0.857600	0.694200
H121	H12	0.883800	0.857100	0.653600
O81	O8	0.648500	0.276900	0.634300
O91	O9	0.711600	0.130300	0.603000
C191	C19	0.693500	0.226200	0.596600
C201	C20	0.729800	0.288300	0.539700
C211	C21	0.800900	0.261200	0.515400
H131	H13	0.828100	0.201100	0.533500
C221	C22	0.832400	0.323000	0.464100
H141	H14	0.881900	0.304100	0.448100
N41	N4	0.796900	0.407000	0.436400
C231	C23	0.726800	0.432900	0.458900
H151	H15	0.700300	0.491500	0.438300
C241	C24	0.691300	0.377200	0.511400
H161	H16	0.642400	0.398900	0.527500
Mn41	Mn4	0.168840	0.503700	0.836190
Mn51	Mn5	0.157300	0.766400	0.742320
Mn61	Mn6	0.161350	0.501300	0.656450
O101	O10	0.131400	0.594000	0.747100
O111	O11	0.198600	0.635800	0.902400
O121	O12	0.170200	0.791300	0.850600
C251	C25	0.198100	0.734700	0.898600
C261	C26	0.233600	0.796600	0.957700
C271	C27	0.297600	0.760700	0.990800
H171	H17	0.321700	0.695700	0.977300
C281	C28	0.328000	0.820900	0.045400
H181	H18	0.374300	0.797500	0.067000
N51	N5	0.293700	0.909400	0.067700
C291	C29	0.229500	0.941900	0.035800
H191	H19	0.203700	0.003400	0.052900
C301	C30	0.198900	0.891300	0.979800
H201	H20	0.155200	0.920000	0.956600
O131	O13	0.149800	0.343700	0.798400
O141	O14	0.112500	0.347600	0.689800
C311	C31	0.137000	0.301000	0.742400
C321	C32	0.148400	0.180700	0.738500
C331	C33	0.129700	0.121100	0.681700
H211	H21	0.111200	0.155600	0.641600
C341	C34	0.138300	0.010100	0.683800
H221	H22	0.123200	0.970000	0.644800
N61	N6	0.166200	0.956600	0.737000
C351	C35	0.186700	0.014900	0.792100
H231	H23	0.207900	0.978500	0.830400
C361	C36	0.177800	0.128000	0.795200
H241	H24	0.191500	0.166800	0.835100
O151	O15	0.287100	0.498200	0.807300
O161	O16	0.269700	0.452700	0.697900
C371	C37	0.307600	0.456900	0.752700
C381	C38	0.385300	0.404500	0.752000
C391	C39	0.431800	0.399200	0.810500
H251	H25	0.414500	0.429100	0.851900
C401	C40	0.502800	0.350300	0.807900
H261	H26	0.533200	0.346000	0.848300
N71	N7	0.530900	0.308400	0.750400
C411	C41	0.485900	0.311300	0.695200
H271	H27	0.504300	0.280100	0.654500
C421	C42	0.413900	0.357600	0.694200
H281	H28	0.383800	0.357100	0.653600
O171	O17	0.148500	0.776900	0.634300
O181	O18	0.211600	0.630300	0.603000
C431	C43	0.193500	0.726200	0.596600
C441	C44	0.229800	0.788300	0.539700
C451	C45	0.300900	0.761200	0.515400
H291	H29	0.328100	0.701100	0.533500
C461	C46	0.332400	0.823000	0.464100
H301	H30	0.381900	0.804100	0.448100
N81	N8	0.296900	0.907000	0.436400
C471	C47	0.226800	0.932900	0.458900
H311	H31	0.200300	0.991500	0.438300
C481	C48	0.191300	0.877200	0.511400
H321	H32	0.142400	0.898900	0.527500
Mn71	Mn7	0.331160	0.003700	0.163810
Mn81	Mn8	0.342700	0.266400	0.257680
Mn91	Mn9	0.338650	0.001300	0.343550
O191	O19	0.368600	0.094000	0.252900
O201	O20	0.301400	0.135800	0.097600
O211	O21	0.329800	0.291300	0.149400
C491	C49	0.301900	0.234700	0.101400
C501	C50	0.266400	0.296600	0.042300
C511	C51	0.202400	0.260700	0.009200
H331	H33	0.178300	0.195700	0.022700
C521	C52	0.172000	0.320900	0.954600
H341	H34	0.125700	0.297500	0.933000
N91	N9	0.206300	0.409400	0.932300
C531	C53	0.270500	0.441900	0.964200
H351	H35	0.296300	0.503400	0.947100
C541	C54	0.301100	0.391300	0.020200
H361	H36	0.344800	0.420000	0.043400
O221	O22	0.350200	0.843700	0.201600
O231	O23	0.387500	0.847600	0.310200
C551	C55	0.363000	0.801000	0.257600
C561	C56	0.351600	0.680700	0.261500
C571	C57	0.370300	0.621100	0.318300
H371	H37	0.388800	0.655600	0.358400
C581	C58	0.361700	0.510100	0.316200
H381	H38	0.376800	0.470000	0.355200
N101	N10	0.333800	0.456600	0.263000
C591	C59	0.313300	0.514900	0.207900
H391	H39	0.292100	0.478500	0.169600
C601	C60	0.322200	0.628000	0.204800
H401	H40	0.308500	0.666800	0.164900
O241	O24	0.212900	0.998200	0.192700
O251	O25	0.230300	0.952700	0.302100
C611	C61	0.192400	0.956900	0.247300
C621	C62	0.114700	0.904500	0.248000
C631	C63	0.068200	0.899200	0.189500
H411	H41	0.085500	0.929100	0.148100
C641	C64	0.997200	0.850300	0.192100
H421	H42	0.966800	0.846000	0.151700
N111	N11	0.969100	0.808400	0.249600
C651	C65	0.014100	0.811300	0.304800
H431	H43	0.995700	0.780100	0.345500
C661	C66	0.086100	0.857600	0.305800
H441	H44	0.116200	0.857100	0.346400
O261	O26	0.351500	0.276900	0.365700
O271	O27	0.288400	0.130300	0.397000
C671	C67	0.306500	0.226200	0.403400
C681	C68	0.270200	0.288300	0.460300
C691	C69	0.199100	0.261200	0.484600
H451	H45	0.171900	0.201100	0.466500
C701	C70	0.167600	0.323000	0.535900
H461	H46	0.118100	0.304100	0.551900
N121	N12	0.203100	0.407000	0.563600
C711	C71	0.273200	0.432900	0.541100
H471	H47	0.299700	0.491500	0.561700
C721	C72	0.308700	0.377200	0.488600
H481	H48	0.357600	0.398900	0.472500
Mn101	Mn10	0.831160	0.503700	0.163810
Mn111	Mn11	0.842700	0.766400	0.257680
Mn121	Mn12	0.838650	0.501300	0.343550
O281	O28	0.868600	0.594000	0.252900
O291	O29	0.801400	0.635800	0.097600
O301	O30	0.829800	0.791300	0.149400
C731	C73	0.801900	0.734700	0.101400
C741	C74	0.766400	0.796600	0.042300
C751	C75	0.702400	0.760700	0.009200
H491	H49	0.678300	0.695700	0.022700
C761	C76	0.672000	0.820900	0.954600
H501	H50	0.625700	0.797500	0.933000
N131	N13	0.706300	0.909400	0.932300
C771	C77	0.770500	0.941900	0.964200
H511	H51	0.796300	0.003400	0.947100
C781	C78	0.801100	0.891300	0.020200
H521	H52	0.844800	0.920000	0.043400
O311	O31	0.850200	0.343700	0.201600
O321	O32	0.887500	0.347600	0.310200
C791	C79	0.863000	0.301000	0.257600
C801	C80	0.851600	0.180700	0.261500
C811	C81	0.870300	0.121100	0.318300
H531	H53	0.888800	0.155600	0.358400
C821	C82	0.861700	0.010100	0.316200
H541	H54	0.876800	0.970000	0.355200
N141	N14	0.833800	0.956600	0.263000
C831	C83	0.813300	0.014900	0.207900
H551	H55	0.792100	0.978500	0.169600
C841	C84	0.822200	0.128000	0.204800
H561	H56	0.808500	0.166800	0.164900
O331	O33	0.712900	0.498200	0.192700
O341	O34	0.730300	0.452700	0.302100
C851	C85	0.692400	0.456900	0.247300
C861	C86	0.614700	0.404500	0.248000
C871	C87	0.568200	0.399200	0.189500
H571	H57	0.585500	0.429100	0.148100
C881	C88	0.497200	0.350300	0.192100
H581	H58	0.466800	0.346000	0.151700
N151	N15	0.469100	0.308400	0.249600
C891	C89	0.514100	0.311300	0.304800
H591	H59	0.495700	0.280100	0.345500
C901	C90	0.586100	0.357600	0.305800
H601	H60	0.616200	0.357100	0.346400
O351	O35	0.851500	0.776900	0.365700
O361	O36	0.788400	0.630300	0.397000
C911	C91	0.806500	0.726200	0.403400
C921	C92	0.770200	0.788300	0.460300
C931	C93	0.699100	0.761200	0.484600
H611	H61	0.671900	0.701100	0.466500
C941	C94	0.667600	0.823000	0.535900
H621	H62	0.618100	0.804100	0.551900
N161	N16	0.703100	0.907000	0.563600
C951	C95	0.773200	0.932900	0.541100
H631	H63	0.799700	0.991500	0.561700
C961	C96	0.808700	0.877200	0.488600
H641	H64	0.857600	0.898900	0.472500
