data_UMARAC_charged_PM
_symmetry_space_group_name_H-M	'P1'
_cell_length_a	22.646700
_cell_length_b	22.646700
_cell_length_c	22.646700
_cell_angle_alpha	90.000000
_cell_angle_beta	90.000000
_cell_angle_gamma	90.000000
_symmetry_Int_Tables_number 1

loop_
_symmetry_equiv_pos_as_xyz
'x,y,z'

loop_
_atom_site_label
_atom_site_type_symbol
_atom_site_fract_x
_atom_site_fract_y
_atom_site_fract_z
Cd11	Cd1	0.000000	0.000000	0.500000
Cd21	Cd2	0.500000	0.000000	0.000000
Cd31	Cd3	0.000000	0.500000	0.000000
Cd41	Cd4	0.500000	0.500000	0.500000
Cu11	Cu1	0.903760	0.402540	0.497870
Cu21	Cu2	0.596240	0.597460	0.997870
Cu31	Cu3	0.096240	0.902540	0.002130
Cu41	Cu4	0.403760	0.097460	0.502130
Cu51	Cu5	0.497870	0.903760	0.402540
Cu61	Cu6	0.997870	0.596240	0.597460
Cu71	Cu7	0.002130	0.096240	0.902540
Cu81	Cu8	0.502130	0.403760	0.097460
Cu91	Cu9	0.402540	0.497870	0.903760
Cu101	Cu10	0.597460	0.997870	0.596240
Cu111	Cu11	0.902540	0.002130	0.096240
Cu121	Cu12	0.097460	0.502130	0.403760
Cu131	Cu13	0.096240	0.597460	0.502130
Cu141	Cu14	0.403760	0.402540	0.002130
Cu151	Cu15	0.903760	0.097460	0.997870
Cu161	Cu16	0.596240	0.902540	0.497870
Cu171	Cu17	0.502130	0.096240	0.597460
Cu181	Cu18	0.002130	0.403760	0.402540
Cu191	Cu19	0.997870	0.903760	0.097460
Cu201	Cu20	0.497870	0.596240	0.902540
Cu211	Cu21	0.597460	0.502130	0.096240
Cu221	Cu22	0.402540	0.002130	0.403760
Cu231	Cu23	0.097460	0.997870	0.903760
Cu241	Cu24	0.902540	0.497870	0.596240
H11	H1	0.903300	0.060000	0.900200
H21	H2	0.919100	0.296300	0.604400
H31	H3	0.929600	0.228600	0.590300
H41	H4	0.878300	0.263400	0.558000
H51	H5	0.071400	0.277500	0.378500
H61	H6	0.093100	0.229000	0.423900
H71	H7	0.115600	0.295000	0.429900
H81	H8	0.958600	0.140500	0.480700
H91	H9	0.096700	0.200800	0.570000
H101	H10	0.596700	0.940000	0.400200
H111	H11	0.580900	0.703700	0.104400
H121	H12	0.570400	0.771400	0.090300
H131	H13	0.621700	0.736600	0.058000
H141	H14	0.428600	0.722500	0.878500
H151	H15	0.406900	0.771000	0.923900
H161	H16	0.384400	0.705000	0.929900
H171	H17	0.541400	0.859500	0.980700
H181	H18	0.403300	0.799200	0.070000
H191	H19	0.096700	0.560000	0.599800
H201	H20	0.080900	0.796300	0.895600
H211	H21	0.070400	0.728600	0.909700
H221	H22	0.121700	0.763400	0.942000
H231	H23	0.928600	0.777500	0.121500
H241	H24	0.906900	0.729000	0.076100
H251	H25	0.884400	0.795000	0.070100
H261	H26	0.041400	0.640500	0.019300
H271	H27	0.903300	0.700800	0.930000
H281	H28	0.403300	0.440000	0.099800
H291	H29	0.419100	0.203700	0.395600
H301	H30	0.429600	0.271400	0.409700
H311	H31	0.378300	0.236600	0.442000
H321	H32	0.571400	0.222500	0.621500
H331	H33	0.593100	0.271000	0.576100
H341	H34	0.615600	0.205000	0.570100
H351	H35	0.458600	0.359500	0.519300
H361	H36	0.596700	0.299200	0.430000
H371	H37	0.900200	0.903300	0.060000
H381	H38	0.604400	0.919100	0.296300
H391	H39	0.590300	0.929600	0.228600
H401	H40	0.558000	0.878300	0.263400
H411	H41	0.378500	0.071400	0.277500
H421	H42	0.423900	0.093100	0.229000
H431	H43	0.429900	0.115600	0.295000
H441	H44	0.480700	0.958600	0.140500
H451	H45	0.570000	0.096700	0.200800
H461	H46	0.400200	0.596700	0.940000
H471	H47	0.104400	0.580900	0.703700
H481	H48	0.090300	0.570400	0.771400
H491	H49	0.058000	0.621700	0.736600
H501	H50	0.878500	0.428600	0.722500
H511	H51	0.923900	0.406900	0.771000
H521	H52	0.929900	0.384400	0.705000
H531	H53	0.980700	0.541400	0.859500
H541	H54	0.070000	0.403300	0.799200
H551	H55	0.599800	0.096700	0.560000
H561	H56	0.895600	0.080900	0.796300
H571	H57	0.909700	0.070400	0.728600
H581	H58	0.942000	0.121700	0.763400
H591	H59	0.121500	0.928600	0.777500
H601	H60	0.076100	0.906900	0.729000
H611	H61	0.070100	0.884400	0.795000
H621	H62	0.019300	0.041400	0.640500
H631	H63	0.930000	0.903300	0.700800
H641	H64	0.099800	0.403300	0.440000
H651	H65	0.395600	0.419100	0.203700
H661	H66	0.409700	0.429600	0.271400
H671	H67	0.442000	0.378300	0.236600
H681	H68	0.621500	0.571400	0.222500
H691	H69	0.576100	0.593100	0.271000
H701	H70	0.570100	0.615600	0.205000
H711	H71	0.519300	0.458600	0.359500
H721	H72	0.430000	0.596700	0.299200
H731	H73	0.060000	0.900200	0.903300
H741	H74	0.296300	0.604400	0.919100
H751	H75	0.228600	0.590300	0.929600
H761	H76	0.263400	0.558000	0.878300
H771	H77	0.277500	0.378500	0.071400
H781	H78	0.229000	0.423900	0.093100
H791	H79	0.295000	0.429900	0.115600
H801	H80	0.140500	0.480700	0.958600
H811	H81	0.200800	0.570000	0.096700
H821	H82	0.940000	0.400200	0.596700
H831	H83	0.703700	0.104400	0.580900
H841	H84	0.771400	0.090300	0.570400
H851	H85	0.736600	0.058000	0.621700
H861	H86	0.722500	0.878500	0.428600
H871	H87	0.771000	0.923900	0.406900
H881	H88	0.705000	0.929900	0.384400
H891	H89	0.859500	0.980700	0.541400
H901	H90	0.799200	0.070000	0.403300
H911	H91	0.560000	0.599800	0.096700
H921	H92	0.796300	0.895600	0.080900
H931	H93	0.728600	0.909700	0.070400
H941	H94	0.763400	0.942000	0.121700
H951	H95	0.777500	0.121500	0.928600
H961	H96	0.729000	0.076100	0.906900
H971	H97	0.795000	0.070100	0.884400
H981	H98	0.640500	0.019300	0.041400
H991	H99	0.700800	0.930000	0.903300
H1001	H100	0.440000	0.099800	0.403300
H1011	H101	0.203700	0.395600	0.419100
H1021	H102	0.271400	0.409700	0.429600
H1031	H103	0.236600	0.442000	0.378300
H1041	H104	0.222500	0.621500	0.571400
H1051	H105	0.271000	0.576100	0.593100
H1061	H106	0.205000	0.570100	0.615600
H1071	H107	0.359500	0.519300	0.458600
H1081	H108	0.299200	0.430000	0.596700
H1091	H109	0.096700	0.940000	0.099800
H1101	H110	0.080900	0.703700	0.395600
H1111	H111	0.070400	0.771400	0.409700
H1121	H112	0.121700	0.736600	0.442000
H1131	H113	0.928600	0.722500	0.621500
H1141	H114	0.906900	0.771000	0.576100
H1151	H115	0.884400	0.705000	0.570100
H1161	H116	0.041400	0.859500	0.519300
H1171	H117	0.903300	0.799200	0.430000
H1181	H118	0.403300	0.060000	0.599800
H1191	H119	0.419100	0.296300	0.895600
H1201	H120	0.429600	0.228600	0.909700
H1211	H121	0.378300	0.263400	0.942000
H1221	H122	0.571400	0.277500	0.121500
H1231	H123	0.593100	0.229000	0.076100
H1241	H124	0.615600	0.295000	0.070100
H1251	H125	0.458600	0.140500	0.019300
H1261	H126	0.596700	0.200800	0.930000
H1271	H127	0.903300	0.440000	0.400200
H1281	H128	0.919100	0.203700	0.104400
H1291	H129	0.929600	0.271400	0.090300
H1301	H130	0.878300	0.236600	0.058000
H1311	H131	0.071400	0.222500	0.878500
H1321	H132	0.093100	0.271000	0.923900
H1331	H133	0.115600	0.205000	0.929900
H1341	H134	0.958600	0.359500	0.980700
H1351	H135	0.096700	0.299200	0.070000
H1361	H136	0.596700	0.560000	0.900200
H1371	H137	0.580900	0.796300	0.604400
H1381	H138	0.570400	0.728600	0.590300
H1391	H139	0.621700	0.763400	0.558000
H1401	H140	0.428600	0.777500	0.378500
H1411	H141	0.406900	0.729000	0.423900
H1421	H142	0.384400	0.795000	0.429900
H1431	H143	0.541400	0.640500	0.480700
H1441	H144	0.403300	0.700800	0.570000
H1451	H145	0.099800	0.096700	0.940000
H1461	H146	0.395600	0.080900	0.703700
H1471	H147	0.409700	0.070400	0.771400
H1481	H148	0.442000	0.121700	0.736600
H1491	H149	0.621500	0.928600	0.722500
H1501	H150	0.576100	0.906900	0.771000
H1511	H151	0.570100	0.884400	0.705000
H1521	H152	0.519300	0.041400	0.859500
H1531	H153	0.430000	0.903300	0.799200
H1541	H154	0.599800	0.403300	0.060000
H1551	H155	0.895600	0.419100	0.296300
H1561	H156	0.909700	0.429600	0.228600
H1571	H157	0.942000	0.378300	0.263400
H1581	H158	0.121500	0.571400	0.277500
H1591	H159	0.076100	0.593100	0.229000
H1601	H160	0.070100	0.615600	0.295000
H1611	H161	0.019300	0.458600	0.140500
H1621	H162	0.930000	0.596700	0.200800
H1631	H163	0.400200	0.903300	0.440000
H1641	H164	0.104400	0.919100	0.203700
H1651	H165	0.090300	0.929600	0.271400
H1661	H166	0.058000	0.878300	0.236600
H1671	H167	0.878500	0.071400	0.222500
H1681	H168	0.923900	0.093100	0.271000
H1691	H169	0.929900	0.115600	0.205000
H1701	H170	0.980700	0.958600	0.359500
H1711	H171	0.070000	0.096700	0.299200
H1721	H172	0.900200	0.596700	0.560000
H1731	H173	0.604400	0.580900	0.796300
H1741	H174	0.590300	0.570400	0.728600
H1751	H175	0.558000	0.621700	0.763400
H1761	H176	0.378500	0.428600	0.777500
H1771	H177	0.423900	0.406900	0.729000
H1781	H178	0.429900	0.384400	0.795000
H1791	H179	0.480700	0.541400	0.640500
H1801	H180	0.570000	0.403300	0.700800
H1811	H181	0.940000	0.099800	0.096700
H1821	H182	0.703700	0.395600	0.080900
H1831	H183	0.771400	0.409700	0.070400
H1841	H184	0.736600	0.442000	0.121700
H1851	H185	0.722500	0.621500	0.928600
H1861	H186	0.771000	0.576100	0.906900
H1871	H187	0.705000	0.570100	0.884400
H1881	H188	0.859500	0.519300	0.041400
H1891	H189	0.799200	0.430000	0.903300
H1901	H190	0.060000	0.599800	0.403300
H1911	H191	0.296300	0.895600	0.419100
H1921	H192	0.228600	0.909700	0.429600
H1931	H193	0.263400	0.942000	0.378300
H1941	H194	0.277500	0.121500	0.571400
H1951	H195	0.229000	0.076100	0.593100
H1961	H196	0.295000	0.070100	0.615600
H1971	H197	0.140500	0.019300	0.458600
H1981	H198	0.200800	0.930000	0.596700
H1991	H199	0.440000	0.400200	0.903300
H2001	H200	0.203700	0.104400	0.919100
H2011	H201	0.271400	0.090300	0.929600
H2021	H202	0.236600	0.058000	0.878300
H2031	H203	0.222500	0.878500	0.071400
H2041	H204	0.271000	0.923900	0.093100
H2051	H205	0.205000	0.929900	0.115600
H2061	H206	0.359500	0.980700	0.958600
H2071	H207	0.299200	0.070000	0.096700
H2081	H208	0.560000	0.900200	0.596700
H2091	H209	0.796300	0.604400	0.580900
H2101	H210	0.728600	0.590300	0.570400
H2111	H211	0.763400	0.558000	0.621700
H2121	H212	0.777500	0.378500	0.428600
H2131	H213	0.729000	0.423900	0.406900
H2141	H214	0.795000	0.429900	0.384400
H2151	H215	0.640500	0.480700	0.541400
H2161	H216	0.700800	0.570000	0.403300
C11	C1	0.918000	0.266300	0.573800
C21	C2	0.959200	0.282600	0.526000
C31	C3	0.006300	0.251200	0.503300
C41	C4	0.031000	0.284100	0.458600
C51	C5	0.082300	0.270100	0.419300
C61	C6	0.993200	0.142200	0.503600
C71	C7	0.069300	0.174600	0.553000
C81	C8	0.582000	0.733700	0.073800
C91	C9	0.540800	0.717400	0.026000
C101	C10	0.493700	0.748800	0.003300
C111	C11	0.469000	0.715900	0.958600
C121	C12	0.417700	0.729900	0.919300
C131	C13	0.506800	0.857800	0.003600
C141	C14	0.430700	0.825400	0.053000
C151	C15	0.082000	0.766300	0.926200
C161	C16	0.040800	0.782600	0.974000
C171	C17	0.993700	0.751200	0.996700
C181	C18	0.969000	0.784100	0.041400
C191	C19	0.917700	0.770100	0.080700
C201	C20	0.006800	0.642200	0.996400
C211	C21	0.930700	0.674600	0.947000
C221	C22	0.418000	0.233700	0.426200
C231	C23	0.459200	0.217400	0.474000
C241	C24	0.506300	0.248800	0.496700
C251	C25	0.531000	0.215900	0.541400
C261	C26	0.582300	0.229900	0.580700
C271	C27	0.493200	0.357800	0.496400
C281	C28	0.569300	0.325400	0.447000
C291	C29	0.573800	0.918000	0.266300
C301	C30	0.526000	0.959200	0.282600
C311	C31	0.503300	0.006300	0.251200
C321	C32	0.458600	0.031000	0.284100
C331	C33	0.419300	0.082300	0.270100
C341	C34	0.503600	0.993200	0.142200
C351	C35	0.553000	0.069300	0.174600
C361	C36	0.073800	0.582000	0.733700
C371	C37	0.026000	0.540800	0.717400
C381	C38	0.003300	0.493700	0.748800
C391	C39	0.958600	0.469000	0.715900
C401	C40	0.919300	0.417700	0.729900
C411	C41	0.003600	0.506800	0.857800
C421	C42	0.053000	0.430700	0.825400
C431	C43	0.926200	0.082000	0.766300
C441	C44	0.974000	0.040800	0.782600
C451	C45	0.996700	0.993700	0.751200
C461	C46	0.041400	0.969000	0.784100
C471	C47	0.080700	0.917700	0.770100
C481	C48	0.996400	0.006800	0.642200
C491	C49	0.947000	0.930700	0.674600
C501	C50	0.426200	0.418000	0.233700
C511	C51	0.474000	0.459200	0.217400
C521	C52	0.496700	0.506300	0.248800
C531	C53	0.541400	0.531000	0.215900
C541	C54	0.580700	0.582300	0.229900
C551	C55	0.496400	0.493200	0.357800
C561	C56	0.447000	0.569300	0.325400
C571	C57	0.266300	0.573800	0.918000
C581	C58	0.282600	0.526000	0.959200
C591	C59	0.251200	0.503300	0.006300
C601	C60	0.284100	0.458600	0.031000
C611	C61	0.270100	0.419300	0.082300
C621	C62	0.142200	0.503600	0.993200
C631	C63	0.174600	0.553000	0.069300
C641	C64	0.733700	0.073800	0.582000
C651	C65	0.717400	0.026000	0.540800
C661	C66	0.748800	0.003300	0.493700
C671	C67	0.715900	0.958600	0.469000
C681	C68	0.729900	0.919300	0.417700
C691	C69	0.857800	0.003600	0.506800
C701	C70	0.825400	0.053000	0.430700
C711	C71	0.766300	0.926200	0.082000
C721	C72	0.782600	0.974000	0.040800
C731	C73	0.751200	0.996700	0.993700
C741	C74	0.784100	0.041400	0.969000
C751	C75	0.770100	0.080700	0.917700
C761	C76	0.642200	0.996400	0.006800
C771	C77	0.674600	0.947000	0.930700
C781	C78	0.233700	0.426200	0.418000
C791	C79	0.217400	0.474000	0.459200
C801	C80	0.248800	0.496700	0.506300
C811	C81	0.215900	0.541400	0.531000
C821	C82	0.229900	0.580700	0.582300
C831	C83	0.357800	0.496400	0.493200
C841	C84	0.325400	0.447000	0.569300
C851	C85	0.082000	0.733700	0.426200
C861	C86	0.040800	0.717400	0.474000
C871	C87	0.993700	0.748800	0.496700
C881	C88	0.969000	0.715900	0.541400
C891	C89	0.917700	0.729900	0.580700
C901	C90	0.006800	0.857800	0.496400
C911	C91	0.930700	0.825400	0.447000
C921	C92	0.418000	0.266300	0.926200
C931	C93	0.459200	0.282600	0.974000
C941	C94	0.506300	0.251200	0.996700
C951	C95	0.531000	0.284100	0.041400
C961	C96	0.582300	0.270100	0.080700
C971	C97	0.493200	0.142200	0.996400
C981	C98	0.569300	0.174600	0.947000
C991	C99	0.918000	0.233700	0.073800
C1001	C100	0.959200	0.217400	0.026000
C1011	C101	0.006300	0.248800	0.003300
C1021	C102	0.031000	0.215900	0.958600
C1031	C103	0.082300	0.229900	0.919300
C1041	C104	0.993200	0.357800	0.003600
C1051	C105	0.069300	0.325400	0.053000
C1061	C106	0.582000	0.766300	0.573800
C1071	C107	0.540800	0.782600	0.526000
C1081	C108	0.493700	0.751200	0.503300
C1091	C109	0.469000	0.784100	0.458600
C1101	C110	0.417700	0.770100	0.419300
C1111	C111	0.506800	0.642200	0.503600
C1121	C112	0.430700	0.674600	0.553000
C1131	C113	0.426200	0.082000	0.733700
C1141	C114	0.474000	0.040800	0.717400
C1151	C115	0.496700	0.993700	0.748800
C1161	C116	0.541400	0.969000	0.715900
C1171	C117	0.580700	0.917700	0.729900
C1181	C118	0.496400	0.006800	0.857800
C1191	C119	0.447000	0.930700	0.825400
C1201	C120	0.926200	0.418000	0.266300
C1211	C121	0.974000	0.459200	0.282600
C1221	C122	0.996700	0.506300	0.251200
C1231	C123	0.041400	0.531000	0.284100
C1241	C124	0.080700	0.582300	0.270100
C1251	C125	0.996400	0.493200	0.142200
C1261	C126	0.947000	0.569300	0.174600
C1271	C127	0.073800	0.918000	0.233700
C1281	C128	0.026000	0.959200	0.217400
C1291	C129	0.003300	0.006300	0.248800
C1301	C130	0.958600	0.031000	0.215900
C1311	C131	0.919300	0.082300	0.229900
C1321	C132	0.003600	0.993200	0.357800
C1331	C133	0.053000	0.069300	0.325400
C1341	C134	0.573800	0.582000	0.766300
C1351	C135	0.526000	0.540800	0.782600
C1361	C136	0.503300	0.493700	0.751200
C1371	C137	0.458600	0.469000	0.784100
C1381	C138	0.419300	0.417700	0.770100
C1391	C139	0.503600	0.506800	0.642200
C1401	C140	0.553000	0.430700	0.674600
C1411	C141	0.733700	0.426200	0.082000
C1421	C142	0.717400	0.474000	0.040800
C1431	C143	0.748800	0.496700	0.993700
C1441	C144	0.715900	0.541400	0.969000
C1451	C145	0.729900	0.580700	0.917700
C1461	C146	0.857800	0.496400	0.006800
C1471	C147	0.825400	0.447000	0.930700
C1481	C148	0.266300	0.926200	0.418000
C1491	C149	0.282600	0.974000	0.459200
C1501	C150	0.251200	0.996700	0.506300
C1511	C151	0.284100	0.041400	0.531000
C1521	C152	0.270100	0.080700	0.582300
C1531	C153	0.142200	0.996400	0.493200
C1541	C154	0.174600	0.947000	0.569300
C1551	C155	0.233700	0.073800	0.918000
C1561	C156	0.217400	0.026000	0.959200
C1571	C157	0.248800	0.003300	0.006300
C1581	C158	0.215900	0.958600	0.031000
C1591	C159	0.229900	0.919300	0.082300
C1601	C160	0.357800	0.003600	0.993200
C1611	C161	0.325400	0.053000	0.069300
C1621	C162	0.766300	0.573800	0.582000
C1631	C163	0.782600	0.526000	0.540800
C1641	C164	0.751200	0.503300	0.493700
C1651	C165	0.784100	0.458600	0.469000
C1661	C166	0.770100	0.419300	0.417700
C1671	C167	0.642200	0.503600	0.506800
C1681	C168	0.674600	0.553000	0.430700
N11	N1	0.956600	0.334500	0.496100
N21	N2	0.001200	0.334900	0.455100
N31	N3	0.022500	0.096950	0.524800
N41	N4	0.021800	0.192240	0.520800
N51	N5	0.072600	0.117500	0.557500
N61	N6	0.543400	0.665500	0.996100
N71	N7	0.498800	0.665100	0.955100
N81	N8	0.477500	0.903050	0.024800
N91	N9	0.478200	0.807760	0.020800
N101	N10	0.427400	0.882500	0.057500
N111	N11	0.043400	0.834500	0.003900
N121	N12	0.998800	0.834900	0.044900
N131	N13	0.977500	0.596950	0.975200
N141	N14	0.978200	0.692240	0.979200
N151	N15	0.927400	0.617500	0.942500
N161	N16	0.456600	0.165500	0.503900
N171	N17	0.501200	0.165100	0.544900
N181	N18	0.522500	0.403050	0.475200
N191	N19	0.521800	0.307760	0.479200
N201	N20	0.572600	0.382500	0.442500
N211	N21	0.496100	0.956600	0.334500
N221	N22	0.455100	0.001200	0.334900
N231	N23	0.524800	0.022500	0.096950
N241	N24	0.520800	0.021800	0.192240
N251	N25	0.557500	0.072600	0.117500
N261	N26	0.996100	0.543400	0.665500
N271	N27	0.955100	0.498800	0.665100
N281	N28	0.024800	0.477500	0.903050
N291	N29	0.020800	0.478200	0.807760
N301	N30	0.057500	0.427400	0.882500
N311	N31	0.003900	0.043400	0.834500
N321	N32	0.044900	0.998800	0.834900
N331	N33	0.975200	0.977500	0.596950
N341	N34	0.979200	0.978200	0.692240
N351	N35	0.942500	0.927400	0.617500
N361	N36	0.503900	0.456600	0.165500
N371	N37	0.544900	0.501200	0.165100
N381	N38	0.475200	0.522500	0.403050
N391	N39	0.479200	0.521800	0.307760
N401	N40	0.442500	0.572600	0.382500
N411	N41	0.334500	0.496100	0.956600
N421	N42	0.334900	0.455100	0.001200
N431	N43	0.096950	0.524800	0.022500
N441	N44	0.192240	0.520800	0.021800
N451	N45	0.117500	0.557500	0.072600
N461	N46	0.665500	0.996100	0.543400
N471	N47	0.665100	0.955100	0.498800
N481	N48	0.903050	0.024800	0.477500
N491	N49	0.807760	0.020800	0.478200
N501	N50	0.882500	0.057500	0.427400
N511	N51	0.834500	0.003900	0.043400
N521	N52	0.834900	0.044900	0.998800
N531	N53	0.596950	0.975200	0.977500
N541	N54	0.692240	0.979200	0.978200
N551	N55	0.617500	0.942500	0.927400
N561	N56	0.165500	0.503900	0.456600
N571	N57	0.165100	0.544900	0.501200
N581	N58	0.403050	0.475200	0.522500
N591	N59	0.307760	0.479200	0.521800
N601	N60	0.382500	0.442500	0.572600
N611	N61	0.043400	0.665500	0.503900
N621	N62	0.998800	0.665100	0.544900
N631	N63	0.977500	0.903050	0.475200
N641	N64	0.978200	0.807760	0.479200
N651	N65	0.927400	0.882500	0.442500
N661	N66	0.456600	0.334500	0.003900
N671	N67	0.501200	0.334900	0.044900
N681	N68	0.522500	0.096950	0.975200
N691	N69	0.521800	0.192240	0.979200
N701	N70	0.572600	0.117500	0.942500
N711	N71	0.956600	0.165500	0.996100
N721	N72	0.001200	0.165100	0.955100
N731	N73	0.022500	0.403050	0.024800
N741	N74	0.021800	0.307760	0.020800
N751	N75	0.072600	0.382500	0.057500
N761	N76	0.543400	0.834500	0.496100
N771	N77	0.498800	0.834900	0.455100
N781	N78	0.477500	0.596950	0.524800
N791	N79	0.478200	0.692240	0.520800
N801	N80	0.427400	0.617500	0.557500
N811	N81	0.503900	0.043400	0.665500
N821	N82	0.544900	0.998800	0.665100
N831	N83	0.475200	0.977500	0.903050
N841	N84	0.479200	0.978200	0.807760
N851	N85	0.442500	0.927400	0.882500
N861	N86	0.003900	0.456600	0.334500
N871	N87	0.044900	0.501200	0.334900
N881	N88	0.975200	0.522500	0.096950
N891	N89	0.979200	0.521800	0.192240
N901	N90	0.942500	0.572600	0.117500
N911	N91	0.996100	0.956600	0.165500
N921	N92	0.955100	0.001200	0.165100
N931	N93	0.024800	0.022500	0.403050
N941	N94	0.020800	0.021800	0.307760
N951	N95	0.057500	0.072600	0.382500
N961	N96	0.496100	0.543400	0.834500
N971	N97	0.455100	0.498800	0.834900
N981	N98	0.524800	0.477500	0.596950
N991	N99	0.520800	0.478200	0.692240
N1001	N100	0.557500	0.427400	0.617500
N1011	N101	0.665500	0.503900	0.043400
N1021	N102	0.665100	0.544900	0.998800
N1031	N103	0.903050	0.475200	0.977500
N1041	N104	0.807760	0.479200	0.978200
N1051	N105	0.882500	0.442500	0.927400
N1061	N106	0.334500	0.003900	0.456600
N1071	N107	0.334900	0.044900	0.501200
N1081	N108	0.096950	0.975200	0.522500
N1091	N109	0.192240	0.979200	0.521800
N1101	N110	0.117500	0.942500	0.572600
N1111	N111	0.165500	0.996100	0.956600
N1121	N112	0.165100	0.955100	0.001200
N1131	N113	0.403050	0.024800	0.022500
N1141	N114	0.307760	0.020800	0.021800
N1151	N115	0.382500	0.057500	0.072600
N1161	N116	0.834500	0.496100	0.543400
N1171	N117	0.834900	0.455100	0.498800
N1181	N118	0.596950	0.524800	0.477500
N1191	N119	0.692240	0.520800	0.478200
N1201	N120	0.617500	0.557500	0.427400
O11	O1	0.917060	0.092800	0.913840
O21	O2	0.582940	0.907200	0.413840
O31	O3	0.082940	0.592800	0.586160
O41	O4	0.417060	0.407200	0.086160
O51	O5	0.913840	0.917060	0.092800
O61	O6	0.413840	0.582940	0.907200
O71	O7	0.586160	0.082940	0.592800
O81	O8	0.086160	0.417060	0.407200
O91	O9	0.092800	0.913840	0.917060
O101	O10	0.907200	0.413840	0.582940
O111	O11	0.592800	0.586160	0.082940
O121	O12	0.407200	0.086160	0.417060
O131	O13	0.082940	0.907200	0.086160
O141	O14	0.417060	0.092800	0.586160
O151	O15	0.917060	0.407200	0.413840
O161	O16	0.582940	0.592800	0.913840
O171	O17	0.086160	0.082940	0.907200
O181	O18	0.586160	0.417060	0.092800
O191	O19	0.413840	0.917060	0.407200
O201	O20	0.913840	0.582940	0.592800
O211	O21	0.907200	0.086160	0.082940
O221	O22	0.092800	0.586160	0.417060
O231	O23	0.407200	0.413840	0.917060
O241	O24	0.592800	0.913840	0.582940
Cd51	Cd5	0.920560	0.920560	0.920560
Cd61	Cd6	0.079440	0.079440	0.079440
Cl11	Cl1	0.862400	0.977700	0.855200
Cl21	Cl2	0.855200	0.862400	0.977700
Cl31	Cl3	0.977700	0.855200	0.862400
Cl41	Cl4	0.137600	0.022300	0.144800
Cl51	Cl5	0.144800	0.137600	0.022300
Cl61	Cl6	0.022300	0.144800	0.137600
Cl71	Cl7	0.988610	0.988610	0.988610
Cl81	Cl8	0.011390	0.011390	0.011390
Cd71	Cd7	0.579440	0.079440	0.420560
Cd81	Cd8	0.420560	0.920560	0.579440
Cl91	Cl9	0.637600	0.022300	0.355200
Cl101	Cl10	0.644800	0.137600	0.477700
Cl111	Cl11	0.522300	0.144800	0.362400
Cl121	Cl12	0.362400	0.977700	0.644800
Cl131	Cl13	0.355200	0.862400	0.522300
Cl141	Cl14	0.477700	0.855200	0.637600
Cl151	Cl15	0.511390	0.011390	0.488610
Cl161	Cl16	0.488610	0.988610	0.511390
Cd91	Cd9	0.079440	0.420560	0.579440
Cd101	Cd10	0.920560	0.579440	0.420560
Cl171	Cl17	0.137600	0.477700	0.644800
Cl181	Cl18	0.144800	0.362400	0.522300
Cl191	Cl19	0.022300	0.355200	0.637600
Cl201	Cl20	0.862400	0.522300	0.355200
Cl211	Cl21	0.855200	0.637600	0.477700
Cl221	Cl22	0.977700	0.644800	0.362400
Cl231	Cl23	0.011390	0.488610	0.511390
Cl241	Cl24	0.988610	0.511390	0.488610
Cd111	Cd11	0.420560	0.579440	0.079440
Cd121	Cd12	0.579440	0.420560	0.920560
Cl251	Cl25	0.362400	0.522300	0.144800
Cl261	Cl26	0.355200	0.637600	0.022300
Cl271	Cl27	0.477700	0.644800	0.137600
Cl281	Cl28	0.637600	0.477700	0.855200
Cl291	Cl29	0.644800	0.362400	0.977700
Cl301	Cl30	0.522300	0.355200	0.862400
Cl311	Cl31	0.488610	0.511390	0.011390
Cl321	Cl32	0.511390	0.488610	0.988610
