data_UMEDIB_clean_PM
_symmetry_space_group_name_H-M	'P1'
_cell_length_a	33.688900
_cell_length_b	14.646400
_cell_length_c	31.952100
_cell_angle_alpha	90.000000
_cell_angle_beta	99.149200
_cell_angle_gamma	90.000000
_symmetry_Int_Tables_number 1

loop_
_symmetry_equiv_pos_as_xyz
'x,y,z'

loop_
_atom_site_label
_atom_site_type_symbol
_atom_site_fract_x
_atom_site_fract_y
_atom_site_fract_z
I11	I1	0.764510	0.227150	0.707100
I21	I2	0.599390	0.262420	0.605880
I31	I3	0.653060	0.367410	0.495330
I41	I4	0.875110	0.160380	0.798760
I51	I5	0.859970	0.267250	0.939280
I61	I6	0.970680	0.323640	0.877480
Zn11	Zn1	0.829320	0.137430	0.728410
Zn21	Zn2	0.626750	0.390180	0.564140
Zn31	Zn3	0.907220	0.369320	0.905810
N11	N1	0.818610	0.998500	0.721740
N21	N2	0.921710	0.478300	0.946920
N31	N3	0.670500	0.455000	0.606510
N41	N4	0.975830	0.765700	0.021420
N51	N5	0.768940	0.677000	0.686880
C11	C1	0.782700	0.871000	0.688400
H11	H1	0.762100	0.848200	0.667100
N61	N6	0.923610	0.716700	0.058230
N71	N7	0.872940	0.435500	0.855800
N81	N8	0.821320	0.665200	0.745690
C21	C2	0.966500	0.596800	0.976100
H21	H2	0.991800	0.626100	0.977800
C31	C3	0.682400	0.539900	0.598700
H31	H3	0.670300	0.569200	0.573300
C41	C4	0.841600	0.941100	0.747300
H41	H4	0.862600	0.965400	0.767600
C51	C5	0.729800	0.543300	0.662500
C61	C6	0.823400	0.436800	0.794000
H51	H5	0.803200	0.405100	0.775500
C71	C7	0.806100	0.812000	0.715300
C81	C8	0.761580	0.587900	0.692400
C91	C9	0.843600	0.394200	0.829200
H61	H6	0.836500	0.333300	0.835100
C101	C10	0.836100	0.848000	0.745500
H71	H7	0.852700	0.809000	0.764600
C111	C11	0.798430	0.711700	0.715000
C121	C12	0.810500	0.578000	0.749100
C131	C13	0.938350	0.628700	0.999600
C141	C14	0.717400	0.456100	0.670600
H81	H8	0.729400	0.424800	0.695500
C151	C15	0.832700	0.526500	0.785700
C161	C16	0.957300	0.521300	0.950100
H91	H9	0.976800	0.499400	0.934100
C171	C17	0.930300	0.792500	0.081400
C181	C18	0.687600	0.414500	0.642200
H101	H10	0.678900	0.355000	0.648500
C191	C19	0.946460	0.708100	0.028000
C201	C20	0.018460	0.891500	0.050830
C211	C21	0.037180	0.905800	0.015630
H111	H11	0.027700	0.875200	0.989800
C221	C22	0.069730	0.965100	0.018290
H121	H12	0.082500	0.974900	0.994200
N91	N9	0.083550	0.009900	0.056130
C231	C23	0.064800	0.995600	0.091330
H131	H13	0.074300	0.026200	0.117200
C241	C24	0.032300	0.936400	0.088680
H141	H14	0.019500	0.926500	0.112700
C251	C25	0.894400	0.509000	0.969700
H151	H15	0.869200	0.478900	0.967300
C261	C26	0.901800	0.583200	0.996600
H161	H16	0.882100	0.602900	0.012800
C271	C27	0.711200	0.586500	0.625700
H171	H17	0.718300	0.647200	0.619400
C281	C28	0.863000	0.569500	0.812900
H181	H18	0.870300	0.630900	0.808100
N101	N10	0.780640	0.536100	0.723890
C291	C29	0.882400	0.521200	0.847100
H191	H19	0.903700	0.550300	0.865400
C301	C30	0.789500	0.963800	0.692700
H201	H20	0.772900	0.004400	0.674400
N111	N11	0.958340	0.854300	0.077600
C311	C31	0.981200	0.835700	0.048500
C321	C32	0.879800	0.744400	0.126100
H211	H21	0.877100	0.687000	0.112100
C331	C33	0.905100	0.808800	0.114600
C341	C34	0.858400	0.763000	0.158100
H221	H22	0.841000	0.717100	0.165800
C351	C35	0.905100	0.892800	0.133700
H231	H23	0.920600	0.941400	0.124900
C361	C36	0.882700	0.906600	0.165600
H241	H24	0.883200	0.964900	0.178700
N121	N12	0.860460	0.840800	0.178700
I71	I7	0.264510	0.727150	0.707100
I81	I8	0.099390	0.762420	0.605880
I91	I9	0.153060	0.867410	0.495330
I101	I10	0.375110	0.660380	0.798760
I111	I11	0.359970	0.767250	0.939280
I121	I12	0.470680	0.823640	0.877480
Zn41	Zn4	0.329320	0.637430	0.728410
Zn51	Zn5	0.126750	0.890180	0.564140
Zn61	Zn6	0.407220	0.869320	0.905810
N131	N13	0.318610	0.498500	0.721740
N141	N14	0.421710	0.978300	0.946920
N151	N15	0.170500	0.955000	0.606510
N161	N16	0.475830	0.265700	0.021420
N171	N17	0.268940	0.177000	0.686880
C371	C37	0.282700	0.371000	0.688400
H251	H25	0.262100	0.348200	0.667100
N181	N18	0.423610	0.216700	0.058230
N191	N19	0.372940	0.935500	0.855800
N201	N20	0.321320	0.165200	0.745690
C381	C38	0.466500	0.096800	0.976100
H261	H26	0.491800	0.126100	0.977800
C391	C39	0.182400	0.039900	0.598700
H271	H27	0.170300	0.069200	0.573300
C401	C40	0.341600	0.441100	0.747300
H281	H28	0.362600	0.465400	0.767600
C411	C41	0.229800	0.043300	0.662500
C421	C42	0.323400	0.936800	0.794000
H291	H29	0.303200	0.905100	0.775500
C431	C43	0.306100	0.312000	0.715300
C441	C44	0.261580	0.087900	0.692400
C451	C45	0.343600	0.894200	0.829200
H301	H30	0.336500	0.833300	0.835100
C461	C46	0.336100	0.348000	0.745500
H311	H31	0.352700	0.309000	0.764600
C471	C47	0.298430	0.211700	0.715000
C481	C48	0.310500	0.078000	0.749100
C491	C49	0.438350	0.128700	0.999600
C501	C50	0.217400	0.956100	0.670600
H321	H32	0.229400	0.924800	0.695500
C511	C51	0.332700	0.026500	0.785700
C521	C52	0.457300	0.021300	0.950100
H331	H33	0.476800	0.999400	0.934100
C531	C53	0.430300	0.292500	0.081400
C541	C54	0.187600	0.914500	0.642200
H341	H34	0.178900	0.855000	0.648500
C551	C55	0.446460	0.208100	0.028000
C561	C56	0.518460	0.391500	0.050830
C571	C57	0.537180	0.405800	0.015630
H351	H35	0.527700	0.375200	0.989800
C581	C58	0.569730	0.465100	0.018290
H361	H36	0.582500	0.474900	0.994200
N211	N21	0.583550	0.509900	0.056130
C591	C59	0.564800	0.495600	0.091330
H371	H37	0.574300	0.526200	0.117200
C601	C60	0.532300	0.436400	0.088680
H381	H38	0.519500	0.426500	0.112700
C611	C61	0.394400	0.009000	0.969700
H391	H39	0.369200	0.978900	0.967300
C621	C62	0.401800	0.083200	0.996600
H401	H40	0.382100	0.102900	0.012800
C631	C63	0.211200	0.086500	0.625700
H411	H41	0.218300	0.147200	0.619400
C641	C64	0.363000	0.069500	0.812900
H421	H42	0.370300	0.130900	0.808100
N221	N22	0.280640	0.036100	0.723890
C651	C65	0.382400	0.021200	0.847100
H431	H43	0.403700	0.050300	0.865400
C661	C66	0.289500	0.463800	0.692700
H441	H44	0.272900	0.504400	0.674400
N231	N23	0.458340	0.354300	0.077600
C671	C67	0.481200	0.335700	0.048500
C681	C68	0.379800	0.244400	0.126100
H451	H45	0.377100	0.187000	0.112100
C691	C69	0.405100	0.308800	0.114600
C701	C70	0.358400	0.263000	0.158100
H461	H46	0.341000	0.217100	0.165800
C711	C71	0.405100	0.392800	0.133700
H471	H47	0.420600	0.441400	0.124900
C721	C72	0.382700	0.406600	0.165600
H481	H48	0.383200	0.464900	0.178700
N241	N24	0.360460	0.340800	0.178700
I131	I13	0.764510	0.772850	0.207100
I141	I14	0.599390	0.737580	0.105880
I151	I15	0.653060	0.632590	0.995330
I161	I16	0.875110	0.839620	0.298760
I171	I17	0.859970	0.732750	0.439280
I181	I18	0.970680	0.676360	0.377480
Zn71	Zn7	0.829320	0.862570	0.228410
Zn81	Zn8	0.626750	0.609820	0.064140
Zn91	Zn9	0.907220	0.630680	0.405810
N251	N25	0.818610	0.001500	0.221740
N261	N26	0.921710	0.521700	0.446920
N271	N27	0.670500	0.545000	0.106510
N281	N28	0.975830	0.234300	0.521420
N291	N29	0.768940	0.323000	0.186880
C731	C73	0.782700	0.129000	0.188400
H491	H49	0.762100	0.151800	0.167100
N301	N30	0.923610	0.283300	0.558230
N311	N31	0.872940	0.564500	0.355800
N321	N32	0.821320	0.334800	0.245690
C741	C74	0.966500	0.403200	0.476100
H501	H50	0.991800	0.373900	0.477800
C751	C75	0.682400	0.460100	0.098700
H511	H51	0.670300	0.430800	0.073300
C761	C76	0.841600	0.058900	0.247300
H521	H52	0.862600	0.034600	0.267600
C771	C77	0.729800	0.456700	0.162500
C781	C78	0.823400	0.563200	0.294000
H531	H53	0.803200	0.594900	0.275500
C791	C79	0.806100	0.188000	0.215300
C801	C80	0.761580	0.412100	0.192400
C811	C81	0.843600	0.605800	0.329200
H541	H54	0.836500	0.666700	0.335100
C821	C82	0.836100	0.152000	0.245500
H551	H55	0.852700	0.191000	0.264600
C831	C83	0.798430	0.288300	0.215000
C841	C84	0.810500	0.422000	0.249100
C851	C85	0.938350	0.371300	0.499600
C861	C86	0.717400	0.543900	0.170600
H561	H56	0.729400	0.575200	0.195500
C871	C87	0.832700	0.473500	0.285700
C881	C88	0.957300	0.478700	0.450100
H571	H57	0.976800	0.500600	0.434100
C891	C89	0.930300	0.207500	0.581400
C901	C90	0.687600	0.585500	0.142200
H581	H58	0.678900	0.645000	0.148500
C911	C91	0.946460	0.291900	0.528000
C921	C92	0.018460	0.108500	0.550830
C931	C93	0.037180	0.094200	0.515630
H591	H59	0.027700	0.124800	0.489800
C941	C94	0.069730	0.034900	0.518290
H601	H60	0.082500	0.025100	0.494200
N331	N33	0.083550	0.990100	0.556130
C951	C95	0.064800	0.004400	0.591330
H611	H61	0.074300	0.973800	0.617200
C961	C96	0.032300	0.063600	0.588680
H621	H62	0.019500	0.073500	0.612700
C971	C97	0.894400	0.491000	0.469700
H631	H63	0.869200	0.521100	0.467300
C981	C98	0.901800	0.416800	0.496600
H641	H64	0.882100	0.397100	0.512800
C991	C99	0.711200	0.413500	0.125700
H651	H65	0.718300	0.352800	0.119400
C1001	C100	0.863000	0.430500	0.312900
H661	H66	0.870300	0.369100	0.308100
N341	N34	0.780640	0.463900	0.223890
C1011	C101	0.882400	0.478800	0.347100
H671	H67	0.903700	0.449700	0.365400
C1021	C102	0.789500	0.036200	0.192700
H681	H68	0.772900	0.995600	0.174400
N351	N35	0.958340	0.145700	0.577600
C1031	C103	0.981200	0.164300	0.548500
C1041	C104	0.879800	0.255600	0.626100
H691	H69	0.877100	0.313000	0.612100
C1051	C105	0.905100	0.191200	0.614600
C1061	C106	0.858400	0.237000	0.658100
H701	H70	0.841000	0.282900	0.665800
C1071	C107	0.905100	0.107200	0.633700
H711	H71	0.920600	0.058600	0.624900
C1081	C108	0.882700	0.093400	0.665600
H721	H72	0.883200	0.035100	0.678700
N361	N36	0.860460	0.159200	0.678700
I191	I19	0.264510	0.272850	0.207100
I201	I20	0.099390	0.237580	0.105880
I211	I21	0.153060	0.132590	0.995330
I221	I22	0.375110	0.339620	0.298760
I231	I23	0.359970	0.232750	0.439280
I241	I24	0.470680	0.176360	0.377480
Zn101	Zn10	0.329320	0.362570	0.228410
Zn111	Zn11	0.126750	0.109820	0.064140
Zn121	Zn12	0.407220	0.130680	0.405810
N371	N37	0.318610	0.501500	0.221740
N381	N38	0.421710	0.021700	0.446920
N391	N39	0.170500	0.045000	0.106510
N401	N40	0.475830	0.734300	0.521420
N411	N41	0.268940	0.823000	0.186880
C1091	C109	0.282700	0.629000	0.188400
H731	H73	0.262100	0.651800	0.167100
N421	N42	0.423610	0.783300	0.558230
N431	N43	0.372940	0.064500	0.355800
N441	N44	0.321320	0.834800	0.245690
C1101	C110	0.466500	0.903200	0.476100
H741	H74	0.491800	0.873900	0.477800
C1111	C111	0.182400	0.960100	0.098700
H751	H75	0.170300	0.930800	0.073300
C1121	C112	0.341600	0.558900	0.247300
H761	H76	0.362600	0.534600	0.267600
C1131	C113	0.229800	0.956700	0.162500
C1141	C114	0.323400	0.063200	0.294000
H771	H77	0.303200	0.094900	0.275500
C1151	C115	0.306100	0.688000	0.215300
C1161	C116	0.261580	0.912100	0.192400
C1171	C117	0.343600	0.105800	0.329200
H781	H78	0.336500	0.166700	0.335100
C1181	C118	0.336100	0.652000	0.245500
H791	H79	0.352700	0.691000	0.264600
C1191	C119	0.298430	0.788300	0.215000
C1201	C120	0.310500	0.922000	0.249100
C1211	C121	0.438350	0.871300	0.499600
C1221	C122	0.217400	0.043900	0.170600
H801	H80	0.229400	0.075200	0.195500
C1231	C123	0.332700	0.973500	0.285700
C1241	C124	0.457300	0.978700	0.450100
H811	H81	0.476800	0.000600	0.434100
C1251	C125	0.430300	0.707500	0.581400
C1261	C126	0.187600	0.085500	0.142200
H821	H82	0.178900	0.145000	0.148500
C1271	C127	0.446460	0.791900	0.528000
C1281	C128	0.518460	0.608500	0.550830
C1291	C129	0.537180	0.594200	0.515630
H831	H83	0.527700	0.624800	0.489800
C1301	C130	0.569730	0.534900	0.518290
H841	H84	0.582500	0.525100	0.494200
N451	N45	0.583550	0.490100	0.556130
C1311	C131	0.564800	0.504400	0.591330
H851	H85	0.574300	0.473800	0.617200
C1321	C132	0.532300	0.563600	0.588680
H861	H86	0.519500	0.573500	0.612700
C1331	C133	0.394400	0.991000	0.469700
H871	H87	0.369200	0.021100	0.467300
C1341	C134	0.401800	0.916800	0.496600
H881	H88	0.382100	0.897100	0.512800
C1351	C135	0.211200	0.913500	0.125700
H891	H89	0.218300	0.852800	0.119400
C1361	C136	0.363000	0.930500	0.312900
H901	H90	0.370300	0.869100	0.308100
N461	N46	0.280640	0.963900	0.223890
C1371	C137	0.382400	0.978800	0.347100
H911	H91	0.403700	0.949700	0.365400
C1381	C138	0.289500	0.536200	0.192700
H921	H92	0.272900	0.495600	0.174400
N471	N47	0.458340	0.645700	0.577600
C1391	C139	0.481200	0.664300	0.548500
C1401	C140	0.379800	0.755600	0.626100
H931	H93	0.377100	0.813000	0.612100
C1411	C141	0.405100	0.691200	0.614600
C1421	C142	0.358400	0.737000	0.658100
H941	H94	0.341000	0.782900	0.665800
C1431	C143	0.405100	0.607200	0.633700
H951	H95	0.420600	0.558600	0.624900
C1441	C144	0.382700	0.593400	0.665600
H961	H96	0.383200	0.535100	0.678700
N481	N48	0.360460	0.659200	0.678700
I251	I25	0.235490	0.227150	0.792900
I261	I26	0.400610	0.262420	0.894120
I271	I27	0.346940	0.367410	0.004670
I281	I28	0.124890	0.160380	0.701240
I291	I29	0.140030	0.267250	0.560720
I301	I30	0.029320	0.323640	0.622520
Zn131	Zn13	0.170680	0.137430	0.771590
Zn141	Zn14	0.373250	0.390180	0.935860
Zn151	Zn15	0.092780	0.369320	0.594190
N491	N49	0.181390	0.998500	0.778260
N501	N50	0.078290	0.478300	0.553080
N511	N51	0.329500	0.455000	0.893490
N521	N52	0.024170	0.765700	0.478580
N531	N53	0.231060	0.677000	0.813120
C1451	C145	0.217300	0.871000	0.811600
H971	H97	0.237900	0.848200	0.832900
N541	N54	0.076390	0.716700	0.441770
N551	N55	0.127060	0.435500	0.644200
N561	N56	0.178680	0.665200	0.754310
C1461	C146	0.033500	0.596800	0.523900
H981	H98	0.008200	0.626100	0.522200
C1471	C147	0.317600	0.539900	0.901300
H991	H99	0.329700	0.569200	0.926700
C1481	C148	0.158400	0.941100	0.752700
H1001	H100	0.137400	0.965400	0.732400
C1491	C149	0.270200	0.543300	0.837500
C1501	C150	0.176600	0.436800	0.706000
H1011	H101	0.196800	0.405100	0.724500
C1511	C151	0.193900	0.812000	0.784700
C1521	C152	0.238420	0.587900	0.807600
C1531	C153	0.156400	0.394200	0.670800
H1021	H102	0.163500	0.333300	0.664900
C1541	C154	0.163900	0.848000	0.754500
H1031	H103	0.147300	0.809000	0.735400
C1551	C155	0.201570	0.711700	0.785000
C1561	C156	0.189500	0.578000	0.750900
C1571	C157	0.061650	0.628700	0.500400
C1581	C158	0.282600	0.456100	0.829400
H1041	H104	0.270600	0.424800	0.804500
C1591	C159	0.167300	0.526500	0.714300
C1601	C160	0.042700	0.521300	0.549900
H1051	H105	0.023200	0.499400	0.565900
C1611	C161	0.069700	0.792500	0.418600
C1621	C162	0.312400	0.414500	0.857800
H1061	H106	0.321100	0.355000	0.851500
C1631	C163	0.053540	0.708100	0.472000
C1641	C164	0.981540	0.891500	0.449170
C1651	C165	0.962820	0.905800	0.484370
H1071	H107	0.972300	0.875200	0.510200
C1661	C166	0.930270	0.965100	0.481710
H1081	H108	0.917500	0.974900	0.505800
N571	N57	0.916450	0.009900	0.443870
C1671	C167	0.935200	0.995600	0.408670
H1091	H109	0.925700	0.026200	0.382800
C1681	C168	0.967700	0.936400	0.411320
H1101	H110	0.980500	0.926500	0.387300
C1691	C169	0.105600	0.509000	0.530300
H1111	H111	0.130800	0.478900	0.532700
C1701	C170	0.098200	0.583200	0.503400
H1121	H112	0.117900	0.602900	0.487200
C1711	C171	0.288800	0.586500	0.874300
H1131	H113	0.281700	0.647200	0.880600
C1721	C172	0.137000	0.569500	0.687100
H1141	H114	0.129700	0.630900	0.691900
N581	N58	0.219360	0.536100	0.776110
C1731	C173	0.117600	0.521200	0.652900
H1151	H115	0.096300	0.550300	0.634600
C1741	C174	0.210500	0.963800	0.807300
H1161	H116	0.227100	0.004400	0.825600
N591	N59	0.041660	0.854300	0.422400
C1751	C175	0.018800	0.835700	0.451500
C1761	C176	0.120200	0.744400	0.373900
H1171	H117	0.122900	0.687000	0.387900
C1771	C177	0.094900	0.808800	0.385400
C1781	C178	0.141600	0.763000	0.341900
H1181	H118	0.159000	0.717100	0.334200
C1791	C179	0.094900	0.892800	0.366300
H1191	H119	0.079400	0.941400	0.375100
C1801	C180	0.117300	0.906600	0.334400
H1201	H120	0.116800	0.964900	0.321300
N601	N60	0.139540	0.840800	0.321300
I311	I31	0.735490	0.727150	0.792900
I321	I32	0.900610	0.762420	0.894120
I331	I33	0.846940	0.867410	0.004670
I341	I34	0.624890	0.660380	0.701240
I351	I35	0.640030	0.767250	0.560720
I361	I36	0.529320	0.823640	0.622520
Zn161	Zn16	0.670680	0.637430	0.771590
Zn171	Zn17	0.873250	0.890180	0.935860
Zn181	Zn18	0.592780	0.869320	0.594190
N611	N61	0.681390	0.498500	0.778260
N621	N62	0.578290	0.978300	0.553080
N631	N63	0.829500	0.955000	0.893490
N641	N64	0.524170	0.265700	0.478580
N651	N65	0.731060	0.177000	0.813120
C1811	C181	0.717300	0.371000	0.811600
H1211	H121	0.737900	0.348200	0.832900
N661	N66	0.576390	0.216700	0.441770
N671	N67	0.627060	0.935500	0.644200
N681	N68	0.678680	0.165200	0.754310
C1821	C182	0.533500	0.096800	0.523900
H1221	H122	0.508200	0.126100	0.522200
C1831	C183	0.817600	0.039900	0.901300
H1231	H123	0.829700	0.069200	0.926700
C1841	C184	0.658400	0.441100	0.752700
H1241	H124	0.637400	0.465400	0.732400
C1851	C185	0.770200	0.043300	0.837500
C1861	C186	0.676600	0.936800	0.706000
H1251	H125	0.696800	0.905100	0.724500
C1871	C187	0.693900	0.312000	0.784700
C1881	C188	0.738420	0.087900	0.807600
C1891	C189	0.656400	0.894200	0.670800
H1261	H126	0.663500	0.833300	0.664900
C1901	C190	0.663900	0.348000	0.754500
H1271	H127	0.647300	0.309000	0.735400
C1911	C191	0.701570	0.211700	0.785000
C1921	C192	0.689500	0.078000	0.750900
C1931	C193	0.561650	0.128700	0.500400
C1941	C194	0.782600	0.956100	0.829400
H1281	H128	0.770600	0.924800	0.804500
C1951	C195	0.667300	0.026500	0.714300
C1961	C196	0.542700	0.021300	0.549900
H1291	H129	0.523200	0.999400	0.565900
C1971	C197	0.569700	0.292500	0.418600
C1981	C198	0.812400	0.914500	0.857800
H1301	H130	0.821100	0.855000	0.851500
C1991	C199	0.553540	0.208100	0.472000
C2001	C200	0.481540	0.391500	0.449170
C2011	C201	0.462820	0.405800	0.484370
H1311	H131	0.472300	0.375200	0.510200
C2021	C202	0.430270	0.465100	0.481710
H1321	H132	0.417500	0.474900	0.505800
N691	N69	0.416450	0.509900	0.443870
C2031	C203	0.435200	0.495600	0.408670
H1331	H133	0.425700	0.526200	0.382800
C2041	C204	0.467700	0.436400	0.411320
H1341	H134	0.480500	0.426500	0.387300
C2051	C205	0.605600	0.009000	0.530300
H1351	H135	0.630800	0.978900	0.532700
C2061	C206	0.598200	0.083200	0.503400
H1361	H136	0.617900	0.102900	0.487200
C2071	C207	0.788800	0.086500	0.874300
H1371	H137	0.781700	0.147200	0.880600
C2081	C208	0.637000	0.069500	0.687100
H1381	H138	0.629700	0.130900	0.691900
N701	N70	0.719360	0.036100	0.776110
C2091	C209	0.617600	0.021200	0.652900
H1391	H139	0.596300	0.050300	0.634600
C2101	C210	0.710500	0.463800	0.807300
H1401	H140	0.727100	0.504400	0.825600
N711	N71	0.541660	0.354300	0.422400
C2111	C211	0.518800	0.335700	0.451500
C2121	C212	0.620200	0.244400	0.373900
H1411	H141	0.622900	0.187000	0.387900
C2131	C213	0.594900	0.308800	0.385400
C2141	C214	0.641600	0.263000	0.341900
H1421	H142	0.659000	0.217100	0.334200
C2151	C215	0.594900	0.392800	0.366300
H1431	H143	0.579400	0.441400	0.375100
C2161	C216	0.617300	0.406600	0.334400
H1441	H144	0.616800	0.464900	0.321300
N721	N72	0.639540	0.340800	0.321300
I371	I37	0.235490	0.772850	0.292900
I381	I38	0.400610	0.737580	0.394120
I391	I39	0.346940	0.632590	0.504670
I401	I40	0.124890	0.839620	0.201240
I411	I41	0.140030	0.732750	0.060720
I421	I42	0.029320	0.676360	0.122520
Zn191	Zn19	0.170680	0.862570	0.271590
Zn201	Zn20	0.373250	0.609820	0.435860
Zn211	Zn21	0.092780	0.630680	0.094190
N731	N73	0.181390	0.001500	0.278260
N741	N74	0.078290	0.521700	0.053080
N751	N75	0.329500	0.545000	0.393490
N761	N76	0.024170	0.234300	0.978580
N771	N77	0.231060	0.323000	0.313120
C2171	C217	0.217300	0.129000	0.311600
H1451	H145	0.237900	0.151800	0.332900
N781	N78	0.076390	0.283300	0.941770
N791	N79	0.127060	0.564500	0.144200
N801	N80	0.178680	0.334800	0.254310
C2181	C218	0.033500	0.403200	0.023900
H1461	H146	0.008200	0.373900	0.022200
C2191	C219	0.317600	0.460100	0.401300
H1471	H147	0.329700	0.430800	0.426700
C2201	C220	0.158400	0.058900	0.252700
H1481	H148	0.137400	0.034600	0.232400
C2211	C221	0.270200	0.456700	0.337500
C2221	C222	0.176600	0.563200	0.206000
H1491	H149	0.196800	0.594900	0.224500
C2231	C223	0.193900	0.188000	0.284700
C2241	C224	0.238420	0.412100	0.307600
C2251	C225	0.156400	0.605800	0.170800
H1501	H150	0.163500	0.666700	0.164900
C2261	C226	0.163900	0.152000	0.254500
H1511	H151	0.147300	0.191000	0.235400
C2271	C227	0.201570	0.288300	0.285000
C2281	C228	0.189500	0.422000	0.250900
C2291	C229	0.061650	0.371300	0.000400
C2301	C230	0.282600	0.543900	0.329400
H1521	H152	0.270600	0.575200	0.304500
C2311	C231	0.167300	0.473500	0.214300
C2321	C232	0.042700	0.478700	0.049900
H1531	H153	0.023200	0.500600	0.065900
C2331	C233	0.069700	0.207500	0.918600
C2341	C234	0.312400	0.585500	0.357800
H1541	H154	0.321100	0.645000	0.351500
C2351	C235	0.053540	0.291900	0.972000
C2361	C236	0.981540	0.108500	0.949170
C2371	C237	0.962820	0.094200	0.984370
H1551	H155	0.972300	0.124800	0.010200
C2381	C238	0.930270	0.034900	0.981710
H1561	H156	0.917500	0.025100	0.005800
N811	N81	0.916450	0.990100	0.943870
C2391	C239	0.935200	0.004400	0.908670
H1571	H157	0.925700	0.973800	0.882800
C2401	C240	0.967700	0.063600	0.911320
H1581	H158	0.980500	0.073500	0.887300
C2411	C241	0.105600	0.491000	0.030300
H1591	H159	0.130800	0.521100	0.032700
C2421	C242	0.098200	0.416800	0.003400
H1601	H160	0.117900	0.397100	0.987200
C2431	C243	0.288800	0.413500	0.374300
H1611	H161	0.281700	0.352800	0.380600
C2441	C244	0.137000	0.430500	0.187100
H1621	H162	0.129700	0.369100	0.191900
N821	N82	0.219360	0.463900	0.276110
C2451	C245	0.117600	0.478800	0.152900
H1631	H163	0.096300	0.449700	0.134600
C2461	C246	0.210500	0.036200	0.307300
H1641	H164	0.227100	0.995600	0.325600
N831	N83	0.041660	0.145700	0.922400
C2471	C247	0.018800	0.164300	0.951500
C2481	C248	0.120200	0.255600	0.873900
H1651	H165	0.122900	0.313000	0.887900
C2491	C249	0.094900	0.191200	0.885400
C2501	C250	0.141600	0.237000	0.841900
H1661	H166	0.159000	0.282900	0.834200
C2511	C251	0.094900	0.107200	0.866300
H1671	H167	0.079400	0.058600	0.875100
C2521	C252	0.117300	0.093400	0.834400
H1681	H168	0.116800	0.035100	0.821300
N841	N84	0.139540	0.159200	0.821300
I431	I43	0.735490	0.272850	0.292900
I441	I44	0.900610	0.237580	0.394120
I451	I45	0.846940	0.132590	0.504670
I461	I46	0.624890	0.339620	0.201240
I471	I47	0.640030	0.232750	0.060720
I481	I48	0.529320	0.176360	0.122520
Zn221	Zn22	0.670680	0.362570	0.271590
Zn231	Zn23	0.873250	0.109820	0.435860
Zn241	Zn24	0.592780	0.130680	0.094190
N851	N85	0.681390	0.501500	0.278260
N861	N86	0.578290	0.021700	0.053080
N871	N87	0.829500	0.045000	0.393490
N881	N88	0.524170	0.734300	0.978580
N891	N89	0.731060	0.823000	0.313120
C2531	C253	0.717300	0.629000	0.311600
H1691	H169	0.737900	0.651800	0.332900
N901	N90	0.576390	0.783300	0.941770
N911	N91	0.627060	0.064500	0.144200
N921	N92	0.678680	0.834800	0.254310
C2541	C254	0.533500	0.903200	0.023900
H1701	H170	0.508200	0.873900	0.022200
C2551	C255	0.817600	0.960100	0.401300
H1711	H171	0.829700	0.930800	0.426700
C2561	C256	0.658400	0.558900	0.252700
H1721	H172	0.637400	0.534600	0.232400
C2571	C257	0.770200	0.956700	0.337500
C2581	C258	0.676600	0.063200	0.206000
H1731	H173	0.696800	0.094900	0.224500
C2591	C259	0.693900	0.688000	0.284700
C2601	C260	0.738420	0.912100	0.307600
C2611	C261	0.656400	0.105800	0.170800
H1741	H174	0.663500	0.166700	0.164900
C2621	C262	0.663900	0.652000	0.254500
H1751	H175	0.647300	0.691000	0.235400
C2631	C263	0.701570	0.788300	0.285000
C2641	C264	0.689500	0.922000	0.250900
C2651	C265	0.561650	0.871300	0.000400
C2661	C266	0.782600	0.043900	0.329400
H1761	H176	0.770600	0.075200	0.304500
C2671	C267	0.667300	0.973500	0.214300
C2681	C268	0.542700	0.978700	0.049900
H1771	H177	0.523200	0.000600	0.065900
C2691	C269	0.569700	0.707500	0.918600
C2701	C270	0.812400	0.085500	0.357800
H1781	H178	0.821100	0.145000	0.351500
C2711	C271	0.553540	0.791900	0.972000
C2721	C272	0.481540	0.608500	0.949170
C2731	C273	0.462820	0.594200	0.984370
H1791	H179	0.472300	0.624800	0.010200
C2741	C274	0.430270	0.534900	0.981710
H1801	H180	0.417500	0.525100	0.005800
N931	N93	0.416450	0.490100	0.943870
C2751	C275	0.435200	0.504400	0.908670
H1811	H181	0.425700	0.473800	0.882800
C2761	C276	0.467700	0.563600	0.911320
H1821	H182	0.480500	0.573500	0.887300
C2771	C277	0.605600	0.991000	0.030300
H1831	H183	0.630800	0.021100	0.032700
C2781	C278	0.598200	0.916800	0.003400
H1841	H184	0.617900	0.897100	0.987200
C2791	C279	0.788800	0.913500	0.374300
H1851	H185	0.781700	0.852800	0.380600
C2801	C280	0.637000	0.930500	0.187100
H1861	H186	0.629700	0.869100	0.191900
N941	N94	0.719360	0.963900	0.276110
C2811	C281	0.617600	0.978800	0.152900
H1871	H187	0.596300	0.949700	0.134600
C2821	C282	0.710500	0.536200	0.307300
H1881	H188	0.727100	0.495600	0.325600
N951	N95	0.541660	0.645700	0.922400
C2831	C283	0.518800	0.664300	0.951500
C2841	C284	0.620200	0.755600	0.873900
H1891	H189	0.622900	0.813000	0.887900
C2851	C285	0.594900	0.691200	0.885400
C2861	C286	0.641600	0.737000	0.841900
H1901	H190	0.659000	0.782900	0.834200
C2871	C287	0.594900	0.607200	0.866300
H1911	H191	0.579400	0.558600	0.875100
C2881	C288	0.617300	0.593400	0.834400
H1921	H192	0.616800	0.535100	0.821300
N961	N96	0.639540	0.659200	0.821300
