data_UMEDOH_clean_PM
_symmetry_space_group_name_H-M	'P1'
_cell_length_a	34.592200
_cell_length_b	14.814100
_cell_length_c	31.426600
_cell_angle_alpha	90.000000
_cell_angle_beta	100.790000
_cell_angle_gamma	90.000000
_symmetry_Int_Tables_number 1

loop_
_symmetry_equiv_pos_as_xyz
'x,y,z'

loop_
_atom_site_label
_atom_site_type_symbol
_atom_site_fract_x
_atom_site_fract_y
_atom_site_fract_z
I11	I1	0.267190	0.241080	0.208930
I21	I2	0.374690	0.165490	0.303040
I31	I3	0.107160	0.265220	0.101490
I41	I4	0.474410	0.341550	0.372630
I51	I5	0.148930	0.400610	0.990480
I61	I6	0.374210	0.265230	0.437750
Zn11	Zn1	0.126960	0.405540	0.062630
Zn21	Zn2	0.413530	0.378470	0.403630
Zn31	Zn3	0.328880	0.147010	0.229090
N11	N1	0.316600	0.010200	0.222000
N21	N2	0.266800	0.691400	0.187500
C11	C1	0.310100	0.594900	0.250600
N31	N3	0.426900	0.483400	0.447000
N41	N4	0.423500	0.721900	0.559600
C21	C2	0.260700	0.605600	0.193100
N51	N5	0.377000	0.448500	0.355100
C31	C3	0.516300	0.894300	0.555400
N61	N6	0.475300	0.769300	0.525600
N71	N7	0.320400	0.680200	0.247400
N81	N8	0.580800	0.006900	0.557900
C41	C4	0.287200	0.976300	0.194700
H11	H1	0.270000	0.016500	0.176700
C51	C5	0.296700	0.727500	0.216000
C61	C6	0.446500	0.712300	0.530400
N91	N9	0.169100	0.471500	0.106100
C71	C7	0.333200	0.542600	0.286400
C81	C8	0.351300	0.773200	0.650800
H21	H2	0.328900	0.736300	0.651100
C91	C9	0.440100	0.632300	0.501200
N101	N10	0.459900	0.849900	0.585400
C101	C10	0.567100	0.991100	0.592700
H31	H3	0.579600	0.018600	0.619000
N111	N11	0.279800	0.553100	0.224900
C111	C11	0.407100	0.806100	0.619500
C121	C12	0.344900	0.409200	0.330700
H41	H4	0.337000	0.350900	0.338200
C131	C13	0.303900	0.824200	0.216000
C141	C14	0.482100	0.834800	0.555200
N121	N12	0.360200	0.833300	0.680300
C151	C15	0.366200	0.580600	0.312200
H51	H5	0.374100	0.640400	0.307100
C161	C16	0.431700	0.792700	0.584900
C171	C17	0.228000	0.559000	0.162600
C181	C18	0.340600	0.951700	0.246200
H61	H6	0.362700	0.975300	0.265600
C191	C19	0.323800	0.452500	0.295300
H71	H7	0.303000	0.422200	0.276900
C201	C20	0.373600	0.759700	0.618000
H81	H8	0.364900	0.718400	0.595000
C211	C21	0.467100	0.604600	0.476600
H91	H9	0.491000	0.637500	0.478400
C221	C22	0.565700	0.960900	0.522700
H101	H10	0.577400	0.967500	0.497900
C231	C23	0.279900	0.884800	0.190500
H111	H11	0.258200	0.863600	0.169800
C241	C24	0.460700	0.532600	0.450300
H121	H12	0.479800	0.515800	0.433700
C251	C25	0.181700	0.552400	0.097700
H131	H13	0.170400	0.578800	0.070700
C261	C26	0.399800	0.508600	0.471000
H141	H14	0.376600	0.473700	0.469900
C271	C27	0.335600	0.859900	0.244700
H151	H15	0.353400	0.821500	0.263000
C281	C28	0.187100	0.433500	0.144100
H161	H16	0.178100	0.376300	0.152000
C291	C29	0.386800	0.529900	0.345000
H171	H17	0.410000	0.555400	0.361600
C301	C30	0.405800	0.584500	0.497100
H181	H18	0.385900	0.603500	0.512200
C311	C31	0.210500	0.602900	0.125300
H191	H19	0.217300	0.662700	0.118700
C321	C32	0.216500	0.473100	0.170600
H201	H20	0.229900	0.441600	0.195400
C331	C33	0.533800	0.903800	0.520100
H211	H21	0.524200	0.871500	0.494100
C341	C34	0.534500	0.934800	0.593400
H221	H22	0.525200	0.924900	0.619600
C351	C35	0.391100	0.883400	0.678000
H231	H23	0.396400	0.932500	0.697600
C361	C36	0.415200	0.871400	0.650900
H241	H24	0.438100	0.907800	0.652900
H251	H25	0.488800	0.764000	0.504600
H261	H26	0.273300	0.496600	0.228700
I71	I7	0.767190	0.741080	0.208930
I81	I8	0.874690	0.665490	0.303040
I91	I9	0.607160	0.765220	0.101490
I101	I10	0.974410	0.841550	0.372630
I111	I11	0.648930	0.900610	0.990480
I121	I12	0.874210	0.765230	0.437750
Zn41	Zn4	0.626960	0.905540	0.062630
Zn51	Zn5	0.913530	0.878470	0.403630
Zn61	Zn6	0.828880	0.647010	0.229090
N131	N13	0.816600	0.510200	0.222000
N141	N14	0.766800	0.191400	0.187500
C371	C37	0.810100	0.094900	0.250600
N151	N15	0.926900	0.983400	0.447000
N161	N16	0.923500	0.221900	0.559600
C381	C38	0.760700	0.105600	0.193100
N171	N17	0.877000	0.948500	0.355100
C391	C39	0.016300	0.394300	0.555400
N181	N18	0.975300	0.269300	0.525600
N191	N19	0.820400	0.180200	0.247400
N201	N20	0.080800	0.506900	0.557900
C401	C40	0.787200	0.476300	0.194700
H271	H27	0.770000	0.516500	0.176700
C411	C41	0.796700	0.227500	0.216000
C421	C42	0.946500	0.212300	0.530400
N211	N21	0.669100	0.971500	0.106100
C431	C43	0.833200	0.042600	0.286400
C441	C44	0.851300	0.273200	0.650800
H281	H28	0.828900	0.236300	0.651100
C451	C45	0.940100	0.132300	0.501200
N221	N22	0.959900	0.349900	0.585400
C461	C46	0.067100	0.491100	0.592700
H291	H29	0.079600	0.518600	0.619000
N231	N23	0.779800	0.053100	0.224900
C471	C47	0.907100	0.306100	0.619500
C481	C48	0.844900	0.909200	0.330700
H301	H30	0.837000	0.850900	0.338200
C491	C49	0.803900	0.324200	0.216000
C501	C50	0.982100	0.334800	0.555200
N241	N24	0.860200	0.333300	0.680300
C511	C51	0.866200	0.080600	0.312200
H311	H31	0.874100	0.140400	0.307100
C521	C52	0.931700	0.292700	0.584900
C531	C53	0.728000	0.059000	0.162600
C541	C54	0.840600	0.451700	0.246200
H321	H32	0.862700	0.475300	0.265600
C551	C55	0.823800	0.952500	0.295300
H331	H33	0.803000	0.922200	0.276900
C561	C56	0.873600	0.259700	0.618000
H341	H34	0.864900	0.218400	0.595000
C571	C57	0.967100	0.104600	0.476600
H351	H35	0.991000	0.137500	0.478400
C581	C58	0.065700	0.460900	0.522700
H361	H36	0.077400	0.467500	0.497900
C591	C59	0.779900	0.384800	0.190500
H371	H37	0.758200	0.363600	0.169800
C601	C60	0.960700	0.032600	0.450300
H381	H38	0.979800	0.015800	0.433700
C611	C61	0.681700	0.052400	0.097700
H391	H39	0.670400	0.078800	0.070700
C621	C62	0.899800	0.008600	0.471000
H401	H40	0.876600	0.973700	0.469900
C631	C63	0.835600	0.359900	0.244700
H411	H41	0.853400	0.321500	0.263000
C641	C64	0.687100	0.933500	0.144100
H421	H42	0.678100	0.876300	0.152000
C651	C65	0.886800	0.029900	0.345000
H431	H43	0.910000	0.055400	0.361600
C661	C66	0.905800	0.084500	0.497100
H441	H44	0.885900	0.103500	0.512200
C671	C67	0.710500	0.102900	0.125300
H451	H45	0.717300	0.162700	0.118700
C681	C68	0.716500	0.973100	0.170600
H461	H46	0.729900	0.941600	0.195400
C691	C69	0.033800	0.403800	0.520100
H471	H47	0.024200	0.371500	0.494100
C701	C70	0.034500	0.434800	0.593400
H481	H48	0.025200	0.424900	0.619600
C711	C71	0.891100	0.383400	0.678000
H491	H49	0.896400	0.432500	0.697600
C721	C72	0.915200	0.371400	0.650900
H501	H50	0.938100	0.407800	0.652900
H511	H51	0.988800	0.264000	0.504600
H521	H52	0.773300	0.996600	0.228700
I131	I13	0.267190	0.758920	0.708930
I141	I14	0.374690	0.834510	0.803040
I151	I15	0.107160	0.734780	0.601490
I161	I16	0.474410	0.658450	0.872630
I171	I17	0.148930	0.599390	0.490480
I181	I18	0.374210	0.734770	0.937750
Zn71	Zn7	0.126960	0.594460	0.562630
Zn81	Zn8	0.413530	0.621530	0.903630
Zn91	Zn9	0.328880	0.852990	0.729090
N251	N25	0.316600	0.989800	0.722000
N261	N26	0.266800	0.308600	0.687500
C731	C73	0.310100	0.405100	0.750600
N271	N27	0.426900	0.516600	0.947000
N281	N28	0.423500	0.278100	0.059600
C741	C74	0.260700	0.394400	0.693100
N291	N29	0.377000	0.551500	0.855100
C751	C75	0.516300	0.105700	0.055400
N301	N30	0.475300	0.230700	0.025600
N311	N31	0.320400	0.319800	0.747400
N321	N32	0.580800	0.993100	0.057900
C761	C76	0.287200	0.023700	0.694700
H531	H53	0.270000	0.983500	0.676700
C771	C77	0.296700	0.272500	0.716000
C781	C78	0.446500	0.287700	0.030400
N331	N33	0.169100	0.528500	0.606100
C791	C79	0.333200	0.457400	0.786400
C801	C80	0.351300	0.226800	0.150800
H541	H54	0.328900	0.263700	0.151100
C811	C81	0.440100	0.367700	0.001200
N341	N34	0.459900	0.150100	0.085400
C821	C82	0.567100	0.008900	0.092700
H551	H55	0.579600	0.981400	0.119000
N351	N35	0.279800	0.446900	0.724900
C831	C83	0.407100	0.193900	0.119500
C841	C84	0.344900	0.590800	0.830700
H561	H56	0.337000	0.649100	0.838200
C851	C85	0.303900	0.175800	0.716000
C861	C86	0.482100	0.165200	0.055200
N361	N36	0.360200	0.166700	0.180300
C871	C87	0.366200	0.419400	0.812200
H571	H57	0.374100	0.359600	0.807100
C881	C88	0.431700	0.207300	0.084900
C891	C89	0.228000	0.441000	0.662600
C901	C90	0.340600	0.048300	0.746200
H581	H58	0.362700	0.024700	0.765600
C911	C91	0.323800	0.547500	0.795300
H591	H59	0.303000	0.577800	0.776900
C921	C92	0.373600	0.240300	0.118000
H601	H60	0.364900	0.281600	0.095000
C931	C93	0.467100	0.395400	0.976600
H611	H61	0.491000	0.362500	0.978400
C941	C94	0.565700	0.039100	0.022700
H621	H62	0.577400	0.032500	0.997900
C951	C95	0.279900	0.115200	0.690500
H631	H63	0.258200	0.136400	0.669800
C961	C96	0.460700	0.467400	0.950300
H641	H64	0.479800	0.484200	0.933700
C971	C97	0.181700	0.447600	0.597700
H651	H65	0.170400	0.421200	0.570700
C981	C98	0.399800	0.491400	0.971000
H661	H66	0.376600	0.526300	0.969900
C991	C99	0.335600	0.140100	0.744700
H671	H67	0.353400	0.178500	0.763000
C1001	C100	0.187100	0.566500	0.644100
H681	H68	0.178100	0.623700	0.652000
C1011	C101	0.386800	0.470100	0.845000
H691	H69	0.410000	0.444600	0.861600
C1021	C102	0.405800	0.415500	0.997100
H701	H70	0.385900	0.396500	0.012200
C1031	C103	0.210500	0.397100	0.625300
H711	H71	0.217300	0.337300	0.618700
C1041	C104	0.216500	0.526900	0.670600
H721	H72	0.229900	0.558400	0.695400
C1051	C105	0.533800	0.096200	0.020100
H731	H73	0.524200	0.128500	0.994100
C1061	C106	0.534500	0.065200	0.093400
H741	H74	0.525200	0.075100	0.119600
C1071	C107	0.391100	0.116600	0.178000
H751	H75	0.396400	0.067500	0.197600
C1081	C108	0.415200	0.128600	0.150900
H761	H76	0.438100	0.092200	0.152900
H771	H77	0.488800	0.236000	0.004600
H781	H78	0.273300	0.503400	0.728700
I191	I19	0.767190	0.258920	0.708930
I201	I20	0.874690	0.334510	0.803040
I211	I21	0.607160	0.234780	0.601490
I221	I22	0.974410	0.158450	0.872630
I231	I23	0.648930	0.099390	0.490480
I241	I24	0.874210	0.234770	0.937750
Zn101	Zn10	0.626960	0.094460	0.562630
Zn111	Zn11	0.913530	0.121530	0.903630
Zn121	Zn12	0.828880	0.352990	0.729090
N371	N37	0.816600	0.489800	0.722000
N381	N38	0.766800	0.808600	0.687500
C1091	C109	0.810100	0.905100	0.750600
N391	N39	0.926900	0.016600	0.947000
N401	N40	0.923500	0.778100	0.059600
C1101	C110	0.760700	0.894400	0.693100
N411	N41	0.877000	0.051500	0.855100
C1111	C111	0.016300	0.605700	0.055400
N421	N42	0.975300	0.730700	0.025600
N431	N43	0.820400	0.819800	0.747400
N441	N44	0.080800	0.493100	0.057900
C1121	C112	0.787200	0.523700	0.694700
H791	H79	0.770000	0.483500	0.676700
C1131	C113	0.796700	0.772500	0.716000
C1141	C114	0.946500	0.787700	0.030400
N451	N45	0.669100	0.028500	0.606100
C1151	C115	0.833200	0.957400	0.786400
C1161	C116	0.851300	0.726800	0.150800
H801	H80	0.828900	0.763700	0.151100
C1171	C117	0.940100	0.867700	0.001200
N461	N46	0.959900	0.650100	0.085400
C1181	C118	0.067100	0.508900	0.092700
H811	H81	0.079600	0.481400	0.119000
N471	N47	0.779800	0.946900	0.724900
C1191	C119	0.907100	0.693900	0.119500
C1201	C120	0.844900	0.090800	0.830700
H821	H82	0.837000	0.149100	0.838200
C1211	C121	0.803900	0.675800	0.716000
C1221	C122	0.982100	0.665200	0.055200
N481	N48	0.860200	0.666700	0.180300
C1231	C123	0.866200	0.919400	0.812200
H831	H83	0.874100	0.859600	0.807100
C1241	C124	0.931700	0.707300	0.084900
C1251	C125	0.728000	0.941000	0.662600
C1261	C126	0.840600	0.548300	0.746200
H841	H84	0.862700	0.524700	0.765600
C1271	C127	0.823800	0.047500	0.795300
H851	H85	0.803000	0.077800	0.776900
C1281	C128	0.873600	0.740300	0.118000
H861	H86	0.864900	0.781600	0.095000
C1291	C129	0.967100	0.895400	0.976600
H871	H87	0.991000	0.862500	0.978400
C1301	C130	0.065700	0.539100	0.022700
H881	H88	0.077400	0.532500	0.997900
C1311	C131	0.779900	0.615200	0.690500
H891	H89	0.758200	0.636400	0.669800
C1321	C132	0.960700	0.967400	0.950300
H901	H90	0.979800	0.984200	0.933700
C1331	C133	0.681700	0.947600	0.597700
H911	H91	0.670400	0.921200	0.570700
C1341	C134	0.899800	0.991400	0.971000
H921	H92	0.876600	0.026300	0.969900
C1351	C135	0.835600	0.640100	0.744700
H931	H93	0.853400	0.678500	0.763000
C1361	C136	0.687100	0.066500	0.644100
H941	H94	0.678100	0.123700	0.652000
C1371	C137	0.886800	0.970100	0.845000
H951	H95	0.910000	0.944600	0.861600
C1381	C138	0.905800	0.915500	0.997100
H961	H96	0.885900	0.896500	0.012200
C1391	C139	0.710500	0.897100	0.625300
H971	H97	0.717300	0.837300	0.618700
C1401	C140	0.716500	0.026900	0.670600
H981	H98	0.729900	0.058400	0.695400
C1411	C141	0.033800	0.596200	0.020100
H991	H99	0.024200	0.628500	0.994100
C1421	C142	0.034500	0.565200	0.093400
H1001	H100	0.025200	0.575100	0.119600
C1431	C143	0.891100	0.616600	0.178000
H1011	H101	0.896400	0.567500	0.197600
C1441	C144	0.915200	0.628600	0.150900
H1021	H102	0.938100	0.592200	0.152900
H1031	H103	0.988800	0.736000	0.004600
H1041	H104	0.773300	0.003400	0.728700
I251	I25	0.732810	0.241080	0.291070
I261	I26	0.625310	0.165490	0.196960
I271	I27	0.892840	0.265220	0.398510
I281	I28	0.525590	0.341550	0.127370
I291	I29	0.851070	0.400610	0.509520
I301	I30	0.625790	0.265230	0.062250
Zn131	Zn13	0.873040	0.405540	0.437370
Zn141	Zn14	0.586470	0.378470	0.096370
Zn151	Zn15	0.671120	0.147010	0.270910
N491	N49	0.683400	0.010200	0.278000
N501	N50	0.733200	0.691400	0.312500
C1451	C145	0.689900	0.594900	0.249400
N511	N51	0.573100	0.483400	0.053000
N521	N52	0.576500	0.721900	0.940400
C1461	C146	0.739300	0.605600	0.306900
N531	N53	0.623000	0.448500	0.144900
C1471	C147	0.483700	0.894300	0.944600
N541	N54	0.524700	0.769300	0.974400
N551	N55	0.679600	0.680200	0.252600
N561	N56	0.419200	0.006900	0.942100
C1481	C148	0.712800	0.976300	0.305300
H1051	H105	0.730000	0.016500	0.323300
C1491	C149	0.703300	0.727500	0.284000
C1501	C150	0.553500	0.712300	0.969600
N571	N57	0.830900	0.471500	0.393900
C1511	C151	0.666800	0.542600	0.213600
C1521	C152	0.648700	0.773200	0.849200
H1061	H106	0.671100	0.736300	0.848900
C1531	C153	0.559900	0.632300	0.998800
N581	N58	0.540100	0.849900	0.914600
C1541	C154	0.432900	0.991100	0.907300
H1071	H107	0.420400	0.018600	0.881000
N591	N59	0.720200	0.553100	0.275100
C1551	C155	0.592900	0.806100	0.880500
C1561	C156	0.655100	0.409200	0.169300
H1081	H108	0.663000	0.350900	0.161800
C1571	C157	0.696100	0.824200	0.284000
C1581	C158	0.517900	0.834800	0.944800
N601	N60	0.639800	0.833300	0.819700
C1591	C159	0.633800	0.580600	0.187800
H1091	H109	0.625900	0.640400	0.192900
C1601	C160	0.568300	0.792700	0.915100
C1611	C161	0.772000	0.559000	0.337400
C1621	C162	0.659400	0.951700	0.253800
H1101	H110	0.637300	0.975300	0.234400
C1631	C163	0.676200	0.452500	0.204700
H1111	H111	0.697000	0.422200	0.223100
C1641	C164	0.626400	0.759700	0.882000
H1121	H112	0.635100	0.718400	0.905000
C1651	C165	0.532900	0.604600	0.023400
H1131	H113	0.509000	0.637500	0.021600
C1661	C166	0.434300	0.960900	0.977300
H1141	H114	0.422600	0.967500	0.002100
C1671	C167	0.720100	0.884800	0.309500
H1151	H115	0.741800	0.863600	0.330200
C1681	C168	0.539300	0.532600	0.049700
H1161	H116	0.520200	0.515800	0.066300
C1691	C169	0.818300	0.552400	0.402300
H1171	H117	0.829600	0.578800	0.429300
C1701	C170	0.600200	0.508600	0.029000
H1181	H118	0.623400	0.473700	0.030100
C1711	C171	0.664400	0.859900	0.255300
H1191	H119	0.646600	0.821500	0.237000
C1721	C172	0.812900	0.433500	0.355900
H1201	H120	0.821900	0.376300	0.348000
C1731	C173	0.613200	0.529900	0.155000
H1211	H121	0.590000	0.555400	0.138400
C1741	C174	0.594200	0.584500	0.002900
H1221	H122	0.614100	0.603500	0.987800
C1751	C175	0.789500	0.602900	0.374700
H1231	H123	0.782700	0.662700	0.381300
C1761	C176	0.783500	0.473100	0.329400
H1241	H124	0.770100	0.441600	0.304600
C1771	C177	0.466200	0.903800	0.979900
H1251	H125	0.475800	0.871500	0.005900
C1781	C178	0.465500	0.934800	0.906600
H1261	H126	0.474800	0.924900	0.880400
C1791	C179	0.608900	0.883400	0.822000
H1271	H127	0.603600	0.932500	0.802400
C1801	C180	0.584800	0.871400	0.849100
H1281	H128	0.561900	0.907800	0.847100
H1291	H129	0.511200	0.764000	0.995400
H1301	H130	0.726700	0.496600	0.271300
I311	I31	0.232810	0.741080	0.291070
I321	I32	0.125310	0.665490	0.196960
I331	I33	0.392840	0.765220	0.398510
I341	I34	0.025590	0.841550	0.127370
I351	I35	0.351070	0.900610	0.509520
I361	I36	0.125790	0.765230	0.062250
Zn161	Zn16	0.373040	0.905540	0.437370
Zn171	Zn17	0.086470	0.878470	0.096370
Zn181	Zn18	0.171120	0.647010	0.270910
N611	N61	0.183400	0.510200	0.278000
N621	N62	0.233200	0.191400	0.312500
C1811	C181	0.189900	0.094900	0.249400
N631	N63	0.073100	0.983400	0.053000
N641	N64	0.076500	0.221900	0.940400
C1821	C182	0.239300	0.105600	0.306900
N651	N65	0.123000	0.948500	0.144900
C1831	C183	0.983700	0.394300	0.944600
N661	N66	0.024700	0.269300	0.974400
N671	N67	0.179600	0.180200	0.252600
N681	N68	0.919200	0.506900	0.942100
C1841	C184	0.212800	0.476300	0.305300
H1311	H131	0.230000	0.516500	0.323300
C1851	C185	0.203300	0.227500	0.284000
C1861	C186	0.053500	0.212300	0.969600
N691	N69	0.330900	0.971500	0.393900
C1871	C187	0.166800	0.042600	0.213600
C1881	C188	0.148700	0.273200	0.849200
H1321	H132	0.171100	0.236300	0.848900
C1891	C189	0.059900	0.132300	0.998800
N701	N70	0.040100	0.349900	0.914600
C1901	C190	0.932900	0.491100	0.907300
H1331	H133	0.920400	0.518600	0.881000
N711	N71	0.220200	0.053100	0.275100
C1911	C191	0.092900	0.306100	0.880500
C1921	C192	0.155100	0.909200	0.169300
H1341	H134	0.163000	0.850900	0.161800
C1931	C193	0.196100	0.324200	0.284000
C1941	C194	0.017900	0.334800	0.944800
N721	N72	0.139800	0.333300	0.819700
C1951	C195	0.133800	0.080600	0.187800
H1351	H135	0.125900	0.140400	0.192900
C1961	C196	0.068300	0.292700	0.915100
C1971	C197	0.272000	0.059000	0.337400
C1981	C198	0.159400	0.451700	0.253800
H1361	H136	0.137300	0.475300	0.234400
C1991	C199	0.176200	0.952500	0.204700
H1371	H137	0.197000	0.922200	0.223100
C2001	C200	0.126400	0.259700	0.882000
H1381	H138	0.135100	0.218400	0.905000
C2011	C201	0.032900	0.104600	0.023400
H1391	H139	0.009000	0.137500	0.021600
C2021	C202	0.934300	0.460900	0.977300
H1401	H140	0.922600	0.467500	0.002100
C2031	C203	0.220100	0.384800	0.309500
H1411	H141	0.241800	0.363600	0.330200
C2041	C204	0.039300	0.032600	0.049700
H1421	H142	0.020200	0.015800	0.066300
C2051	C205	0.318300	0.052400	0.402300
H1431	H143	0.329600	0.078800	0.429300
C2061	C206	0.100200	0.008600	0.029000
H1441	H144	0.123400	0.973700	0.030100
C2071	C207	0.164400	0.359900	0.255300
H1451	H145	0.146600	0.321500	0.237000
C2081	C208	0.312900	0.933500	0.355900
H1461	H146	0.321900	0.876300	0.348000
C2091	C209	0.113200	0.029900	0.155000
H1471	H147	0.090000	0.055400	0.138400
C2101	C210	0.094200	0.084500	0.002900
H1481	H148	0.114100	0.103500	0.987800
C2111	C211	0.289500	0.102900	0.374700
H1491	H149	0.282700	0.162700	0.381300
C2121	C212	0.283500	0.973100	0.329400
H1501	H150	0.270100	0.941600	0.304600
C2131	C213	0.966200	0.403800	0.979900
H1511	H151	0.975800	0.371500	0.005900
C2141	C214	0.965500	0.434800	0.906600
H1521	H152	0.974800	0.424900	0.880400
C2151	C215	0.108900	0.383400	0.822000
H1531	H153	0.103600	0.432500	0.802400
C2161	C216	0.084800	0.371400	0.849100
H1541	H154	0.061900	0.407800	0.847100
H1551	H155	0.011200	0.264000	0.995400
H1561	H156	0.226700	0.996600	0.271300
I371	I37	0.732810	0.758920	0.791070
I381	I38	0.625310	0.834510	0.696960
I391	I39	0.892840	0.734780	0.898510
I401	I40	0.525590	0.658450	0.627370
I411	I41	0.851070	0.599390	0.009520
I421	I42	0.625790	0.734770	0.562250
Zn191	Zn19	0.873040	0.594460	0.937370
Zn201	Zn20	0.586470	0.621530	0.596370
Zn211	Zn21	0.671120	0.852990	0.770910
N731	N73	0.683400	0.989800	0.778000
N741	N74	0.733200	0.308600	0.812500
C2171	C217	0.689900	0.405100	0.749400
N751	N75	0.573100	0.516600	0.553000
N761	N76	0.576500	0.278100	0.440400
C2181	C218	0.739300	0.394400	0.806900
N771	N77	0.623000	0.551500	0.644900
C2191	C219	0.483700	0.105700	0.444600
N781	N78	0.524700	0.230700	0.474400
N791	N79	0.679600	0.319800	0.752600
N801	N80	0.419200	0.993100	0.442100
C2201	C220	0.712800	0.023700	0.805300
H1571	H157	0.730000	0.983500	0.823300
C2211	C221	0.703300	0.272500	0.784000
C2221	C222	0.553500	0.287700	0.469600
N811	N81	0.830900	0.528500	0.893900
C2231	C223	0.666800	0.457400	0.713600
C2241	C224	0.648700	0.226800	0.349200
H1581	H158	0.671100	0.263700	0.348900
C2251	C225	0.559900	0.367700	0.498800
N821	N82	0.540100	0.150100	0.414600
C2261	C226	0.432900	0.008900	0.407300
H1591	H159	0.420400	0.981400	0.381000
N831	N83	0.720200	0.446900	0.775100
C2271	C227	0.592900	0.193900	0.380500
C2281	C228	0.655100	0.590800	0.669300
H1601	H160	0.663000	0.649100	0.661800
C2291	C229	0.696100	0.175800	0.784000
C2301	C230	0.517900	0.165200	0.444800
N841	N84	0.639800	0.166700	0.319700
C2311	C231	0.633800	0.419400	0.687800
H1611	H161	0.625900	0.359600	0.692900
C2321	C232	0.568300	0.207300	0.415100
C2331	C233	0.772000	0.441000	0.837400
C2341	C234	0.659400	0.048300	0.753800
H1621	H162	0.637300	0.024700	0.734400
C2351	C235	0.676200	0.547500	0.704700
H1631	H163	0.697000	0.577800	0.723100
C2361	C236	0.626400	0.240300	0.382000
H1641	H164	0.635100	0.281600	0.405000
C2371	C237	0.532900	0.395400	0.523400
H1651	H165	0.509000	0.362500	0.521600
C2381	C238	0.434300	0.039100	0.477300
H1661	H166	0.422600	0.032500	0.502100
C2391	C239	0.720100	0.115200	0.809500
H1671	H167	0.741800	0.136400	0.830200
C2401	C240	0.539300	0.467400	0.549700
H1681	H168	0.520200	0.484200	0.566300
C2411	C241	0.818300	0.447600	0.902300
H1691	H169	0.829600	0.421200	0.929300
C2421	C242	0.600200	0.491400	0.529000
H1701	H170	0.623400	0.526300	0.530100
C2431	C243	0.664400	0.140100	0.755300
H1711	H171	0.646600	0.178500	0.737000
C2441	C244	0.812900	0.566500	0.855900
H1721	H172	0.821900	0.623700	0.848000
C2451	C245	0.613200	0.470100	0.655000
H1731	H173	0.590000	0.444600	0.638400
C2461	C246	0.594200	0.415500	0.502900
H1741	H174	0.614100	0.396500	0.487800
C2471	C247	0.789500	0.397100	0.874700
H1751	H175	0.782700	0.337300	0.881300
C2481	C248	0.783500	0.526900	0.829400
H1761	H176	0.770100	0.558400	0.804600
C2491	C249	0.466200	0.096200	0.479900
H1771	H177	0.475800	0.128500	0.505900
C2501	C250	0.465500	0.065200	0.406600
H1781	H178	0.474800	0.075100	0.380400
C2511	C251	0.608900	0.116600	0.322000
H1791	H179	0.603600	0.067500	0.302400
C2521	C252	0.584800	0.128600	0.349100
H1801	H180	0.561900	0.092200	0.347100
H1811	H181	0.511200	0.236000	0.495400
H1821	H182	0.726700	0.503400	0.771300
I431	I43	0.232810	0.258920	0.791070
I441	I44	0.125310	0.334510	0.696960
I451	I45	0.392840	0.234780	0.898510
I461	I46	0.025590	0.158450	0.627370
I471	I47	0.351070	0.099390	0.009520
I481	I48	0.125790	0.234770	0.562250
Zn221	Zn22	0.373040	0.094460	0.937370
Zn231	Zn23	0.086470	0.121530	0.596370
Zn241	Zn24	0.171120	0.352990	0.770910
N851	N85	0.183400	0.489800	0.778000
N861	N86	0.233200	0.808600	0.812500
C2531	C253	0.189900	0.905100	0.749400
N871	N87	0.073100	0.016600	0.553000
N881	N88	0.076500	0.778100	0.440400
C2541	C254	0.239300	0.894400	0.806900
N891	N89	0.123000	0.051500	0.644900
C2551	C255	0.983700	0.605700	0.444600
N901	N90	0.024700	0.730700	0.474400
N911	N91	0.179600	0.819800	0.752600
N921	N92	0.919200	0.493100	0.442100
C2561	C256	0.212800	0.523700	0.805300
H1831	H183	0.230000	0.483500	0.823300
C2571	C257	0.203300	0.772500	0.784000
C2581	C258	0.053500	0.787700	0.469600
N931	N93	0.330900	0.028500	0.893900
C2591	C259	0.166800	0.957400	0.713600
C2601	C260	0.148700	0.726800	0.349200
H1841	H184	0.171100	0.763700	0.348900
C2611	C261	0.059900	0.867700	0.498800
N941	N94	0.040100	0.650100	0.414600
C2621	C262	0.932900	0.508900	0.407300
H1851	H185	0.920400	0.481400	0.381000
N951	N95	0.220200	0.946900	0.775100
C2631	C263	0.092900	0.693900	0.380500
C2641	C264	0.155100	0.090800	0.669300
H1861	H186	0.163000	0.149100	0.661800
C2651	C265	0.196100	0.675800	0.784000
C2661	C266	0.017900	0.665200	0.444800
N961	N96	0.139800	0.666700	0.319700
C2671	C267	0.133800	0.919400	0.687800
H1871	H187	0.125900	0.859600	0.692900
C2681	C268	0.068300	0.707300	0.415100
C2691	C269	0.272000	0.941000	0.837400
C2701	C270	0.159400	0.548300	0.753800
H1881	H188	0.137300	0.524700	0.734400
C2711	C271	0.176200	0.047500	0.704700
H1891	H189	0.197000	0.077800	0.723100
C2721	C272	0.126400	0.740300	0.382000
H1901	H190	0.135100	0.781600	0.405000
C2731	C273	0.032900	0.895400	0.523400
H1911	H191	0.009000	0.862500	0.521600
C2741	C274	0.934300	0.539100	0.477300
H1921	H192	0.922600	0.532500	0.502100
C2751	C275	0.220100	0.615200	0.809500
H1931	H193	0.241800	0.636400	0.830200
C2761	C276	0.039300	0.967400	0.549700
H1941	H194	0.020200	0.984200	0.566300
C2771	C277	0.318300	0.947600	0.902300
H1951	H195	0.329600	0.921200	0.929300
C2781	C278	0.100200	0.991400	0.529000
H1961	H196	0.123400	0.026300	0.530100
C2791	C279	0.164400	0.640100	0.755300
H1971	H197	0.146600	0.678500	0.737000
C2801	C280	0.312900	0.066500	0.855900
H1981	H198	0.321900	0.123700	0.848000
C2811	C281	0.113200	0.970100	0.655000
H1991	H199	0.090000	0.944600	0.638400
C2821	C282	0.094200	0.915500	0.502900
H2001	H200	0.114100	0.896500	0.487800
C2831	C283	0.289500	0.897100	0.874700
H2011	H201	0.282700	0.837300	0.881300
C2841	C284	0.283500	0.026900	0.829400
H2021	H202	0.270100	0.058400	0.804600
C2851	C285	0.966200	0.596200	0.479900
H2031	H203	0.975800	0.628500	0.505900
C2861	C286	0.965500	0.565200	0.406600
H2041	H204	0.974800	0.575100	0.380400
C2871	C287	0.108900	0.616600	0.322000
H2051	H205	0.103600	0.567500	0.302400
C2881	C288	0.084800	0.628600	0.349100
H2061	H206	0.061900	0.592200	0.347100
H2071	H207	0.011200	0.736000	0.495400
H2081	H208	0.226700	0.003400	0.771300
