data_UMEKII_clean_PM
_symmetry_space_group_name_H-M	'P1'
_cell_length_a	20.818000
_cell_length_b	9.887000
_cell_length_c	17.281000
_cell_angle_alpha	90.000000
_cell_angle_beta	90.000000
_cell_angle_gamma	90.000000
_symmetry_Int_Tables_number 1

loop_
_symmetry_equiv_pos_as_xyz
'x,y,z'

loop_
_atom_site_label
_atom_site_type_symbol
_atom_site_fract_x
_atom_site_fract_y
_atom_site_fract_z
Zn11	Zn1	0.183830	0.689730	0.177180
O11	O1	0.097990	0.690900	0.225100
N11	N1	0.193000	0.662000	0.063500
C11	C1	0.001600	0.811700	0.244700
O21	O2	0.080000	0.871800	0.149900
C21	C2	0.064900	0.793300	0.203200
N21	N2	0.249000	0.949500	0.152800
C31	C3	0.245500	0.914900	0.276100
N31	N3	0.232100	0.859400	0.345300
H11	H1	0.241300	0.901900	0.387300
H21	H2	0.214700	0.780600	0.347500
H31	H3	0.121400	0.871600	0.045100
C41	C4	0.880500	0.833000	0.312400
H41	H4	0.840500	0.841000	0.336000
N41	N4	0.230100	0.560400	0.037100
C51	C5	0.979300	0.938600	0.269100
C61	C6	0.962600	0.696700	0.255900
H51	H5	0.977700	0.612500	0.240100
C71	C7	0.902300	0.707500	0.289100
H61	H6	0.876500	0.631300	0.295100
C81	C8	0.918200	0.946400	0.302100
H71	H7	0.902500	0.030100	0.317800
N51	N5	0.273600	0.054800	0.186400
N61	N6	0.272700	0.037400	0.264400
N71	N7	0.230600	0.859000	0.208100
Zn21	Zn2	0.816170	0.310270	0.177180
O31	O3	0.902010	0.309100	0.225100
N81	N8	0.807000	0.338000	0.063500
C91	C9	0.998400	0.188300	0.244700
O41	O4	0.920000	0.128200	0.149900
C101	C10	0.935100	0.206700	0.203200
N91	N9	0.751000	0.050500	0.152800
C111	C11	0.754500	0.085100	0.276100
N101	N10	0.767900	0.140600	0.345300
H81	H8	0.758700	0.098100	0.387300
H91	H9	0.785300	0.219400	0.347500
H101	H10	0.878600	0.128400	0.045100
C121	C12	0.119500	0.167000	0.312400
H111	H11	0.159500	0.159000	0.336000
N111	N11	0.769900	0.439600	0.037100
C131	C13	0.020700	0.061400	0.269100
C141	C14	0.037400	0.303300	0.255900
H121	H12	0.022300	0.387500	0.240100
C151	C15	0.097700	0.292500	0.289100
H131	H13	0.123500	0.368700	0.295100
C161	C16	0.081800	0.053600	0.302100
H141	H14	0.097500	0.969900	0.317800
N121	N12	0.726400	0.945200	0.186400
N131	N13	0.727300	0.962600	0.264400
N141	N14	0.769400	0.141000	0.208100
Zn31	Zn3	0.316170	0.189730	0.322820
O51	O5	0.402010	0.190900	0.274900
N151	N15	0.307000	0.162000	0.436500
C171	C17	0.498400	0.311700	0.255300
O61	O6	0.420000	0.371800	0.350100
C181	C18	0.435100	0.293300	0.296800
N161	N16	0.251000	0.449500	0.347200
C191	C19	0.254500	0.414900	0.223900
N171	N17	0.267900	0.359400	0.154700
H151	H15	0.258700	0.401900	0.112700
H161	H16	0.285300	0.280600	0.152500
H171	H17	0.378600	0.371600	0.454900
C201	C20	0.619500	0.333000	0.187600
H181	H18	0.659500	0.341000	0.164000
N181	N18	0.269900	0.060400	0.462900
C211	C21	0.520700	0.438600	0.230900
C221	C22	0.537400	0.196700	0.244100
H191	H19	0.522300	0.112500	0.259900
C231	C23	0.597700	0.207500	0.210900
H201	H20	0.623500	0.131300	0.204900
C241	C24	0.581800	0.446400	0.197900
H211	H21	0.597500	0.530100	0.182200
N191	N19	0.226400	0.554800	0.313600
N201	N20	0.227300	0.537400	0.235600
N211	N21	0.269400	0.359000	0.291900
Zn41	Zn4	0.683830	0.810270	0.322820
O71	O7	0.597990	0.809100	0.274900
N221	N22	0.693000	0.838000	0.436500
C251	C25	0.501600	0.688300	0.255300
O81	O8	0.580000	0.628200	0.350100
C261	C26	0.564900	0.706700	0.296800
N231	N23	0.749000	0.550500	0.347200
C271	C27	0.745500	0.585100	0.223900
N241	N24	0.732100	0.640600	0.154700
H221	H22	0.741300	0.598100	0.112700
H231	H23	0.714700	0.719400	0.152500
H241	H24	0.621400	0.628400	0.454900
C281	C28	0.380500	0.667000	0.187600
H251	H25	0.340500	0.659000	0.164000
N251	N25	0.730100	0.939600	0.462900
C291	C29	0.479300	0.561400	0.230900
C301	C30	0.462600	0.803300	0.244100
H261	H26	0.477700	0.887500	0.259900
C311	C31	0.402300	0.792500	0.210900
H271	H27	0.376500	0.868700	0.204900
C321	C32	0.418200	0.553600	0.197900
H281	H28	0.402500	0.469900	0.182200
N261	N26	0.773600	0.445200	0.313600
N271	N27	0.772700	0.462600	0.235600
N281	N28	0.730600	0.641000	0.291900
Zn51	Zn5	0.816170	0.310270	0.822820
O91	O9	0.902010	0.309100	0.774900
N291	N29	0.807000	0.338000	0.936500
C331	C33	0.998400	0.188300	0.755300
O101	O10	0.920000	0.128200	0.850100
C341	C34	0.935100	0.206700	0.796800
N301	N30	0.751000	0.050500	0.847200
C351	C35	0.754500	0.085100	0.723900
N311	N31	0.767900	0.140600	0.654700
H291	H29	0.758700	0.098100	0.612700
H301	H30	0.785300	0.219400	0.652500
H311	H31	0.878600	0.128400	0.954900
C361	C36	0.119500	0.167000	0.687600
H321	H32	0.159500	0.159000	0.664000
N321	N32	0.769900	0.439600	0.962900
C371	C37	0.020700	0.061400	0.730900
C381	C38	0.037400	0.303300	0.744100
H331	H33	0.022300	0.387500	0.759900
C391	C39	0.097700	0.292500	0.710900
H341	H34	0.123500	0.368700	0.704900
C401	C40	0.081800	0.053600	0.697900
H351	H35	0.097500	0.969900	0.682200
N331	N33	0.726400	0.945200	0.813600
N341	N34	0.727300	0.962600	0.735600
N351	N35	0.769400	0.141000	0.791900
Zn61	Zn6	0.183830	0.689730	0.822820
O111	O11	0.097990	0.690900	0.774900
N361	N36	0.193000	0.662000	0.936500
C411	C41	0.001600	0.811700	0.755300
O121	O12	0.080000	0.871800	0.850100
C421	C42	0.064900	0.793300	0.796800
N371	N37	0.249000	0.949500	0.847200
C431	C43	0.245500	0.914900	0.723900
N381	N38	0.232100	0.859400	0.654700
H361	H36	0.241300	0.901900	0.612700
H371	H37	0.214700	0.780600	0.652500
H381	H38	0.121400	0.871600	0.954900
C441	C44	0.880500	0.833000	0.687600
H391	H39	0.840500	0.841000	0.664000
N391	N39	0.230100	0.560400	0.962900
C451	C45	0.979300	0.938600	0.730900
C461	C46	0.962600	0.696700	0.744100
H401	H40	0.977700	0.612500	0.759900
C471	C47	0.902300	0.707500	0.710900
H411	H41	0.876500	0.631300	0.704900
C481	C48	0.918200	0.946400	0.697900
H421	H42	0.902500	0.030100	0.682200
N401	N40	0.273600	0.054800	0.813600
N411	N41	0.272700	0.037400	0.735600
N421	N42	0.230600	0.859000	0.791900
Zn71	Zn7	0.683830	0.810270	0.677180
O131	O13	0.597990	0.809100	0.725100
N431	N43	0.693000	0.838000	0.563500
C491	C49	0.501600	0.688300	0.744700
O141	O14	0.580000	0.628200	0.649900
C501	C50	0.564900	0.706700	0.703200
N441	N44	0.749000	0.550500	0.652800
C511	C51	0.745500	0.585100	0.776100
N451	N45	0.732100	0.640600	0.845300
H431	H43	0.741300	0.598100	0.887300
H441	H44	0.714700	0.719400	0.847500
H451	H45	0.621400	0.628400	0.545100
C521	C52	0.380500	0.667000	0.812400
H461	H46	0.340500	0.659000	0.836000
N461	N46	0.730100	0.939600	0.537100
C531	C53	0.479300	0.561400	0.769100
C541	C54	0.462600	0.803300	0.755900
H471	H47	0.477700	0.887500	0.740100
C551	C55	0.402300	0.792500	0.789100
H481	H48	0.376500	0.868700	0.795100
C561	C56	0.418200	0.553600	0.802100
H491	H49	0.402500	0.469900	0.817800
N471	N47	0.773600	0.445200	0.686400
N481	N48	0.772700	0.462600	0.764400
N491	N49	0.730600	0.641000	0.708100
Zn81	Zn8	0.316170	0.189730	0.677180
O151	O15	0.402010	0.190900	0.725100
N501	N50	0.307000	0.162000	0.563500
C571	C57	0.498400	0.311700	0.744700
O161	O16	0.420000	0.371800	0.649900
C581	C58	0.435100	0.293300	0.703200
N511	N51	0.251000	0.449500	0.652800
C591	C59	0.254500	0.414900	0.776100
N521	N52	0.267900	0.359400	0.845300
H501	H50	0.258700	0.401900	0.887300
H511	H51	0.285300	0.280600	0.847500
H521	H52	0.378600	0.371600	0.545100
C601	C60	0.619500	0.333000	0.812400
H531	H53	0.659500	0.341000	0.836000
N531	N53	0.269900	0.060400	0.537100
C611	C61	0.520700	0.438600	0.769100
C621	C62	0.537400	0.196700	0.755900
H541	H54	0.522300	0.112500	0.740100
C631	C63	0.597700	0.207500	0.789100
H551	H55	0.623500	0.131300	0.795100
C641	C64	0.581800	0.446400	0.802100
H561	H56	0.597500	0.530100	0.817800
N541	N54	0.226400	0.554800	0.686400
N551	N55	0.227300	0.537400	0.764400
N561	N56	0.269400	0.359000	0.708100
C651	C65	0.173100	0.724700	0.000000
N571	N57	0.134700	0.835600	0.000000
C661	C66	0.826900	0.275300	0.000000
N581	N58	0.865300	0.164400	0.000000
C671	C67	0.326900	0.224700	0.500000
N591	N59	0.365300	0.335600	0.500000
C681	C68	0.673100	0.775300	0.500000
N601	N60	0.634700	0.664400	0.500000
