data_UMELUU_clean_PM
_symmetry_space_group_name_H-M	'P1'
_cell_length_a	9.155500
_cell_length_b	11.747000
_cell_length_c	11.538100
_cell_angle_alpha	90.000000
_cell_angle_beta	90.000000
_cell_angle_gamma	90.000000
_symmetry_Int_Tables_number 1

loop_
_symmetry_equiv_pos_as_xyz
'x,y,z'

loop_
_atom_site_label
_atom_site_type_symbol
_atom_site_fract_x
_atom_site_fract_y
_atom_site_fract_z
Cd11	Cd1	0.126490	0.940030	0.846800
Cd21	Cd2	0.629720	0.968790	0.877400
Cd31	Cd3	0.873510	0.059970	0.346800
Cd41	Cd4	0.370280	0.031210	0.377400
Cd51	Cd5	0.373510	0.440030	0.846800
Cd61	Cd6	0.870280	0.468790	0.877400
Cd71	Cd7	0.626490	0.559970	0.346800
Cd81	Cd8	0.129720	0.531210	0.377400
C11	C1	0.796300	0.206100	0.870200
C21	C2	0.641900	0.244000	0.865900
C31	C3	0.465200	0.003000	0.112000
C41	C4	0.621200	0.000400	0.150600
C51	C5	0.203700	0.793900	0.370200
C61	C6	0.358100	0.756000	0.365900
C71	C7	0.534800	0.997000	0.612000
C81	C8	0.378800	0.999600	0.650600
C91	C9	0.703700	0.706100	0.870200
C101	C10	0.858100	0.744000	0.865900
C111	C11	0.034800	0.503000	0.112000
C121	C12	0.878800	0.500400	0.150600
C131	C13	0.296300	0.293900	0.370200
C141	C14	0.141900	0.256000	0.365900
C151	C15	0.965200	0.497000	0.612000
C161	C16	0.121200	0.499600	0.650600
N11	N1	0.834800	0.096500	0.866900
N21	N2	0.980900	0.098400	0.872800
N31	N3	0.027800	0.205300	0.877300
N41	N4	0.914000	0.273800	0.877100
N51	N5	0.422800	0.987400	0.003600
N61	N6	0.282100	0.001200	0.003600
N71	N7	0.234800	0.025200	0.108500
N81	N8	0.350400	0.028300	0.179200
N91	N9	0.165200	0.903500	0.366900
N101	N10	0.019100	0.901600	0.372800
N111	N11	0.972200	0.794700	0.377300
N121	N12	0.086000	0.726200	0.377100
N131	N13	0.577200	0.012600	0.503600
N141	N14	0.717900	0.998800	0.503600
N151	N15	0.765200	0.974800	0.608500
N161	N16	0.649600	0.971700	0.679200
N171	N17	0.665200	0.596500	0.866900
N181	N18	0.519100	0.598400	0.872800
N191	N19	0.472200	0.705300	0.877300
N201	N20	0.586000	0.773800	0.877100
N211	N21	0.077200	0.487400	0.003600
N221	N22	0.217900	0.501200	0.003600
N231	N23	0.265200	0.525200	0.108500
N241	N24	0.149600	0.528300	0.179200
N251	N25	0.334800	0.403500	0.366900
N261	N26	0.480900	0.401600	0.372800
N271	N27	0.527800	0.294700	0.377300
N281	N28	0.414000	0.226200	0.377100
N291	N29	0.922800	0.512600	0.503600
N301	N30	0.782100	0.498800	0.503600
N311	N31	0.734800	0.474800	0.608500
N321	N32	0.850400	0.471700	0.679200
O11	O1	0.549800	0.164400	0.861800
O21	O2	0.618900	0.349700	0.870400
O31	O3	0.714100	0.980100	0.072000
O41	O4	0.646800	0.025100	0.254900
O51	O5	0.450200	0.835600	0.361800
O61	O6	0.381100	0.650300	0.370400
O71	O7	0.285900	0.019900	0.572000
O81	O8	0.353200	0.974900	0.754900
O91	O9	0.950200	0.664400	0.861800
O101	O10	0.881100	0.849700	0.870400
O111	O11	0.785900	0.480100	0.072000
O121	O12	0.853200	0.525100	0.254900
O131	O13	0.049800	0.335600	0.361800
O141	O14	0.118900	0.150300	0.370400
O151	O15	0.214100	0.519900	0.572000
O161	O16	0.146800	0.474900	0.754900
