data_UMEPOT_clean_PM
_symmetry_space_group_name_H-M	'P1'
_cell_length_a	50.824000
_cell_length_b	11.369000
_cell_length_c	17.604000
_cell_angle_alpha	90.000000
_cell_angle_beta	90.000000
_cell_angle_gamma	90.000000
_symmetry_Int_Tables_number 1

loop_
_symmetry_equiv_pos_as_xyz
'x,y,z'

loop_
_atom_site_label
_atom_site_type_symbol
_atom_site_fract_x
_atom_site_fract_y
_atom_site_fract_z
C11	C1	0.509400	0.570800	0.422800
C21	C2	0.498200	0.530900	0.349600
C31	C3	0.474000	0.554700	0.322600
H11	H1	0.461800	0.599800	0.348900
C41	C4	0.469000	0.504600	0.250600
H21	H2	0.453200	0.511100	0.224700
C51	C5	0.490200	0.446600	0.224600
C61	C6	0.492200	0.384500	0.151300
C71	C7	0.549400	0.820500	0.414500
C81	C8	0.545400	0.903200	0.349800
C91	C9	0.525200	0.976800	0.336400
H31	H3	0.510900	0.985400	0.368900
C101	C10	0.528100	0.039600	0.268000
H41	H4	0.516100	0.095300	0.250700
C111	C11	0.550300	0.009500	0.230300
C121	C12	0.558700	0.056500	0.155400
C131	C13	0.547100	0.860100	0.640400
C141	C14	0.556000	0.913100	0.711700
C151	C15	0.579400	0.899500	0.745900
H51	H5	0.593500	0.859300	0.724200
C161	C16	0.580500	0.952100	0.817400
H61	H6	0.595000	0.947100	0.849400
C171	C17	0.558200	0.011100	0.835600
C181	C18	0.551700	0.067400	0.909700
C191	C19	0.609900	0.530900	0.405700
C201	C20	0.604500	0.470200	0.331700
C211	C21	0.582800	0.410800	0.311900
H71	H7	0.567900	0.407500	0.342200
C221	C22	0.584700	0.353600	0.241100
H81	H8	0.571400	0.307900	0.219700
C231	C23	0.608190	0.374000	0.208500
C241	C24	0.619300	0.323900	0.136600
C251	C25	0.606700	0.519800	0.650200
C261	C26	0.614400	0.471100	0.724800
C271	C27	0.637400	0.493500	0.759900
H91	H9	0.650000	0.544100	0.740100
C281	C28	0.640600	0.433700	0.828900
H101	H10	0.655500	0.440600	0.859500
C291	C29	0.619770	0.364900	0.845900
C301	C30	0.616800	0.288400	0.911400
C311	C31	0.672200	0.869800	0.411700
C321	C32	0.662200	0.921600	0.339400
C331	C33	0.638300	0.900000	0.307100
H111	H11	0.625300	0.853300	0.328800
C341	C34	0.635800	0.958000	0.235800
H121	H12	0.620700	0.954600	0.205800
C351	C35	0.657500	0.018400	0.216600
C361	C36	0.662500	0.087500	0.147300
C371	C37	0.712800	0.581800	0.633300
C381	C38	0.722900	0.534700	0.706100
C391	C39	0.747600	0.546200	0.735300
H131	H13	0.761200	0.585700	0.711200
C401	C40	0.749800	0.491000	0.806700
H141	H14	0.765300	0.487900	0.834500
C411	C41	0.727100	0.443300	0.830300
C421	C42	0.721500	0.388000	0.905900
C431	C43	0.714800	0.625300	0.409200
C441	C44	0.711420	0.545400	0.344400
C451	C45	0.690300	0.478500	0.328100
H151	H15	0.675400	0.473900	0.358600
C461	C46	0.693300	0.416800	0.259600
H161	H16	0.680500	0.367500	0.239500
C471	C47	0.716800	0.436000	0.226100
C481	C48	0.725400	0.389500	0.150700
C491	C49	0.659100	0.042800	0.908500
C501	C50	0.669100	0.995800	0.833700
C511	C51	0.693100	0.015600	0.802200
H171	H17	0.706000	0.062600	0.823800
C521	C52	0.695700	0.956500	0.733100
H181	H18	0.711000	0.958800	0.703900
C531	C53	0.673700	0.894700	0.712700
C541	C54	0.669400	0.824400	0.643700
O11	O1	0.532840	0.541400	0.438100
O21	O2	0.494570	0.630200	0.463100
O31	O3	0.512740	0.328600	0.138800
O41	O4	0.473290	0.391500	0.105500
O51	O5	0.531380	0.806800	0.461600
O61	O6	0.570680	0.765900	0.417900
O71	O7	0.542180	0.111500	0.118300
O81	O8	0.581550	0.034200	0.134000
O91	O9	0.523540	0.872700	0.622300
O101	O10	0.564350	0.804300	0.603200
O111	O11	0.531700	0.132200	0.912400
O121	O12	0.566380	0.042600	0.964700
O131	O13	0.592220	0.521900	0.454400
O141	O14	0.631320	0.581800	0.412800
O151	O15	0.602460	0.267500	0.095800
O161	O16	0.642880	0.336600	0.122400
O171	O17	0.582690	0.526800	0.632500
O181	O18	0.625010	0.549400	0.607900
O191	O19	0.609340	0.748100	0.525900
O201	O20	0.635800	0.271200	0.955900
O211	O21	0.656200	0.815600	0.451700
O221	O22	0.696000	0.889800	0.427100
O231	O23	0.645020	0.088200	0.095700
O241	O24	0.683500	0.142300	0.140100
O251	O25	0.688780	0.564900	0.618500
O261	O26	0.728830	0.636800	0.592900
O271	O27	0.700660	0.335400	0.915600
O281	O28	0.739330	0.403200	0.954700
O291	O29	0.695940	0.638100	0.455500
O301	O30	0.736140	0.678300	0.417800
O311	O31	0.748650	0.378800	0.135600
O321	O32	0.706410	0.368600	0.106100
O331	O33	0.635840	0.020300	0.925700
O341	O34	0.675830	0.098300	0.947500
O351	O35	0.647510	0.775200	0.636100
O361	O36	0.687510	0.813700	0.596700
O371	O37	0.594960	0.237300	0.921500
S11	S1	0.515590	0.447800	0.286610
S21	S2	0.568310	0.909100	0.278720
S31	S3	0.535910	0.999200	0.764960
S41	S4	0.628240	0.460600	0.263100
S51	S5	0.595620	0.376300	0.777840
S61	S6	0.681460	0.009700	0.284390
S71	S7	0.702560	0.458300	0.765260
S81	S8	0.735670	0.530500	0.277840
S91	S9	0.649690	0.908500	0.779230
Nd11	Nd1	0.488800	0.806970	0.532090
Nd21	Nd2	0.562760	0.634700	0.526070
Nd31	Nd3	0.655740	0.638340	0.527130
Nd41	Nd4	0.726900	0.817750	0.523840
Nd51	Nd5	0.606100	0.090010	0.022160
Nd61	Nd6	0.676600	0.269590	0.027430
H191	H19	0.613500	0.778000	0.568000
H201	H20	0.606300	0.802000	0.494000
C551	C55	0.490600	0.429200	0.922800
C561	C56	0.501800	0.469100	0.849600
C571	C57	0.526000	0.445300	0.822600
H211	H21	0.538200	0.400200	0.848900
C581	C58	0.531000	0.495400	0.750600
H221	H22	0.546800	0.488900	0.724700
C591	C59	0.509800	0.553400	0.724600
C601	C60	0.507800	0.615500	0.651300
C611	C61	0.450600	0.179500	0.914500
C621	C62	0.454600	0.096800	0.849800
C631	C63	0.474800	0.023200	0.836400
H231	H23	0.489100	0.014600	0.868900
C641	C64	0.471900	0.960400	0.768000
H241	H24	0.483900	0.904700	0.750700
C651	C65	0.449700	0.990500	0.730300
C661	C66	0.441300	0.943500	0.655400
C671	C67	0.452900	0.139900	0.140400
C681	C68	0.444000	0.086900	0.211700
C691	C69	0.420600	0.100500	0.245900
H251	H25	0.406500	0.140700	0.224200
C701	C70	0.419500	0.047900	0.317400
H261	H26	0.405000	0.052900	0.349400
C711	C71	0.441800	0.988900	0.335600
C721	C72	0.448300	0.932600	0.409700
C731	C73	0.390100	0.469100	0.905700
C741	C74	0.395500	0.529800	0.831700
C751	C75	0.417200	0.589200	0.811900
H271	H27	0.432100	0.592500	0.842200
C761	C76	0.415300	0.646400	0.741100
H281	H28	0.428600	0.692100	0.719700
C771	C77	0.391810	0.626000	0.708500
C781	C78	0.380700	0.676100	0.636600
C791	C79	0.393300	0.480200	0.150200
C801	C80	0.385600	0.528900	0.224800
C811	C81	0.362600	0.506500	0.259900
H291	H29	0.350000	0.455900	0.240100
C821	C82	0.359400	0.566300	0.328900
H301	H30	0.344500	0.559400	0.359500
C831	C83	0.380230	0.635100	0.345900
C841	C84	0.383200	0.711600	0.411400
C851	C85	0.327800	0.130200	0.911700
C861	C86	0.337800	0.078400	0.839400
C871	C87	0.361700	0.100000	0.807100
H311	H31	0.374700	0.146700	0.828800
C881	C88	0.364200	0.042000	0.735800
H321	H32	0.379300	0.045400	0.705800
C891	C89	0.342500	0.981600	0.716600
C901	C90	0.337500	0.912500	0.647300
C911	C91	0.287200	0.418200	0.133300
C921	C92	0.277100	0.465300	0.206100
C931	C93	0.252400	0.453800	0.235300
H331	H33	0.238800	0.414300	0.211200
C941	C94	0.250200	0.509000	0.306700
H341	H34	0.234700	0.512100	0.334500
C951	C95	0.272900	0.556700	0.330300
C961	C96	0.278500	0.612000	0.405900
C971	C97	0.285200	0.374700	0.909200
C981	C98	0.288580	0.454600	0.844400
C991	C99	0.309700	0.521500	0.828100
H351	H35	0.324600	0.526100	0.858600
C1001	C100	0.306700	0.583200	0.759600
H361	H36	0.319500	0.632500	0.739500
C1011	C101	0.283200	0.564000	0.726100
C1021	C102	0.274600	0.610500	0.650700
C1031	C103	0.340900	0.957200	0.408500
C1041	C104	0.330900	0.004200	0.333700
C1051	C105	0.306900	0.984400	0.302200
H371	H37	0.294000	0.937400	0.323800
C1061	C106	0.304300	0.043500	0.233100
H381	H38	0.289000	0.041200	0.203900
C1071	C107	0.326300	0.105300	0.212700
C1081	C108	0.330600	0.175600	0.143700
O381	O38	0.467160	0.458600	0.938100
O391	O39	0.505430	0.369800	0.963100
O401	O40	0.487260	0.671400	0.638800
O411	O41	0.526710	0.608500	0.605500
O421	O42	0.468620	0.193200	0.961600
O431	O43	0.429320	0.234100	0.917900
O441	O44	0.457820	0.888500	0.618300
O451	O45	0.418450	0.965800	0.634000
O461	O46	0.476460	0.127300	0.122300
O471	O47	0.435650	0.195700	0.103200
O481	O48	0.468300	0.867800	0.412400
O491	O49	0.433620	0.957400	0.464700
O501	O50	0.407780	0.478100	0.954400
O511	O51	0.368680	0.418200	0.912800
O521	O52	0.397540	0.732500	0.595800
O531	O53	0.357120	0.663400	0.622400
O541	O54	0.417310	0.473200	0.132500
O551	O55	0.374990	0.450600	0.107900
O561	O56	0.390660	0.251900	0.025900
O571	O57	0.364200	0.728800	0.455900
O581	O58	0.343800	0.184400	0.951700
O591	O59	0.304000	0.110200	0.927100
O601	O60	0.354980	0.911800	0.595700
O611	O61	0.316500	0.857700	0.640100
O621	O62	0.311220	0.435100	0.118500
O631	O63	0.271170	0.363200	0.092900
O641	O64	0.299340	0.664600	0.415600
O651	O65	0.260670	0.596800	0.454700
O661	O66	0.304060	0.361900	0.955500
O671	O67	0.263860	0.321700	0.917800
O681	O68	0.251350	0.621200	0.635600
O691	O69	0.293590	0.631400	0.606100
O701	O70	0.364160	0.979700	0.425700
O711	O71	0.324170	0.901700	0.447500
O721	O72	0.352490	0.224800	0.136100
O731	O73	0.312490	0.186300	0.096700
O741	O74	0.405040	0.762700	0.421500
S101	S10	0.484410	0.552200	0.786610
S111	S11	0.431690	0.090900	0.778720
S121	S12	0.464090	0.000800	0.264960
S131	S13	0.371760	0.539400	0.763100
S141	S14	0.404380	0.623700	0.277840
S151	S15	0.318540	0.990300	0.784390
S161	S16	0.297440	0.541700	0.265260
S171	S17	0.264330	0.469500	0.777840
S181	S18	0.350310	0.091500	0.279230
Nd71	Nd7	0.511200	0.193030	0.032090
Nd81	Nd8	0.437240	0.365300	0.026070
Nd91	Nd9	0.344260	0.361660	0.027130
Nd101	Nd10	0.273100	0.182250	0.023840
Nd111	Nd11	0.393900	0.909990	0.522160
Nd121	Nd12	0.323400	0.730410	0.527430
H391	H39	0.386500	0.222000	0.068000
H401	H40	0.393700	0.198000	0.994000
C1091	C109	0.009400	0.929200	0.422800
C1101	C110	0.998200	0.969100	0.349600
C1111	C111	0.974000	0.945300	0.322600
H411	H41	0.961800	0.900200	0.348900
C1121	C112	0.969000	0.995400	0.250600
H421	H42	0.953200	0.988900	0.224700
C1131	C113	0.990200	0.053400	0.224600
C1141	C114	0.992200	0.115500	0.151300
C1151	C115	0.049400	0.679500	0.414500
C1161	C116	0.045400	0.596800	0.349800
C1171	C117	0.025200	0.523200	0.336400
H431	H43	0.010900	0.514600	0.368900
C1181	C118	0.028100	0.460400	0.268000
H441	H44	0.016100	0.404700	0.250700
C1191	C119	0.050300	0.490500	0.230300
C1201	C120	0.058700	0.443500	0.155400
C1211	C121	0.047100	0.639900	0.640400
C1221	C122	0.056000	0.586900	0.711700
C1231	C123	0.079400	0.600500	0.745900
H451	H45	0.093500	0.640700	0.724200
C1241	C124	0.080500	0.547900	0.817400
H461	H46	0.095000	0.552900	0.849400
C1251	C125	0.058200	0.488900	0.835600
C1261	C126	0.051700	0.432600	0.909700
C1271	C127	0.109900	0.969100	0.405700
C1281	C128	0.104500	0.029800	0.331700
C1291	C129	0.082800	0.089200	0.311900
H471	H47	0.067900	0.092500	0.342200
C1301	C130	0.084700	0.146400	0.241100
H481	H48	0.071400	0.192100	0.219700
C1311	C131	0.108190	0.126000	0.208500
C1321	C132	0.119300	0.176100	0.136600
C1331	C133	0.106700	0.980200	0.650200
C1341	C134	0.114400	0.028900	0.724800
C1351	C135	0.137400	0.006500	0.759900
H491	H49	0.150000	0.955900	0.740100
C1361	C136	0.140600	0.066300	0.828900
H501	H50	0.155500	0.059400	0.859500
C1371	C137	0.119770	0.135100	0.845900
C1381	C138	0.116800	0.211600	0.911400
C1391	C139	0.172200	0.630200	0.411700
C1401	C140	0.162200	0.578400	0.339400
C1411	C141	0.138300	0.600000	0.307100
H511	H51	0.125300	0.646700	0.328800
C1421	C142	0.135800	0.542000	0.235800
H521	H52	0.120700	0.545400	0.205800
C1431	C143	0.157500	0.481600	0.216600
C1441	C144	0.162500	0.412500	0.147300
C1451	C145	0.212800	0.918200	0.633300
C1461	C146	0.222900	0.965300	0.706100
C1471	C147	0.247600	0.953800	0.735300
H531	H53	0.261200	0.914300	0.711200
C1481	C148	0.249800	0.009000	0.806700
H541	H54	0.265300	0.012100	0.834500
C1491	C149	0.227100	0.056700	0.830300
C1501	C150	0.221500	0.112000	0.905900
C1511	C151	0.214800	0.874700	0.409200
C1521	C152	0.211420	0.954600	0.344400
C1531	C153	0.190300	0.021500	0.328100
H551	H55	0.175400	0.026100	0.358600
C1541	C154	0.193300	0.083200	0.259600
H561	H56	0.180500	0.132500	0.239500
C1551	C155	0.216800	0.064000	0.226100
C1561	C156	0.225400	0.110500	0.150700
C1571	C157	0.159100	0.457200	0.908500
C1581	C158	0.169100	0.504200	0.833700
C1591	C159	0.193100	0.484400	0.802200
H571	H57	0.206000	0.437400	0.823800
C1601	C160	0.195700	0.543500	0.733100
H581	H58	0.211000	0.541200	0.703900
C1611	C161	0.173700	0.605300	0.712700
C1621	C162	0.169400	0.675600	0.643700
O751	O75	0.032840	0.958600	0.438100
O761	O76	0.994570	0.869800	0.463100
O771	O77	0.012740	0.171400	0.138800
O781	O78	0.973290	0.108500	0.105500
O791	O79	0.031380	0.693200	0.461600
O801	O80	0.070680	0.734100	0.417900
O811	O81	0.042180	0.388500	0.118300
O821	O82	0.081550	0.465800	0.134000
O831	O83	0.023540	0.627300	0.622300
O841	O84	0.064350	0.695700	0.603200
O851	O85	0.031700	0.367800	0.912400
O861	O86	0.066380	0.457400	0.964700
O871	O87	0.092220	0.978100	0.454400
O881	O88	0.131320	0.918200	0.412800
O891	O89	0.102460	0.232500	0.095800
O901	O90	0.142880	0.163400	0.122400
O911	O91	0.082690	0.973200	0.632500
O921	O92	0.125010	0.950600	0.607900
O931	O93	0.109340	0.751900	0.525900
O941	O94	0.135800	0.228800	0.955900
O951	O95	0.156200	0.684400	0.451700
O961	O96	0.196000	0.610200	0.427100
O971	O97	0.145020	0.411800	0.095700
O981	O98	0.183500	0.357700	0.140100
O991	O99	0.188780	0.935100	0.618500
O1001	O100	0.228830	0.863200	0.592900
O1011	O101	0.200660	0.164600	0.915600
O1021	O102	0.239330	0.096800	0.954700
O1031	O103	0.195940	0.861900	0.455500
O1041	O104	0.236140	0.821700	0.417800
O1051	O105	0.248650	0.121200	0.135600
O1061	O106	0.206410	0.131400	0.106100
O1071	O107	0.135840	0.479700	0.925700
O1081	O108	0.175830	0.401700	0.947500
O1091	O109	0.147510	0.724800	0.636100
O1101	O110	0.187510	0.686300	0.596700
O1111	O111	0.094960	0.262700	0.921500
S191	S19	0.015590	0.052200	0.286610
S201	S20	0.068310	0.590900	0.278720
S211	S21	0.035910	0.500800	0.764960
S221	S22	0.128240	0.039400	0.263100
S231	S23	0.095620	0.123700	0.777840
S241	S24	0.181460	0.490300	0.284390
S251	S25	0.202560	0.041700	0.765260
S261	S26	0.235670	0.969500	0.277840
S271	S27	0.149690	0.591500	0.779230
Nd131	Nd13	0.988800	0.693030	0.532090
Nd141	Nd14	0.062760	0.865300	0.526070
Nd151	Nd15	0.155740	0.861660	0.527130
Nd161	Nd16	0.226900	0.682250	0.523840
Nd171	Nd17	0.106100	0.409990	0.022160
Nd181	Nd18	0.176600	0.230410	0.027430
H591	H59	0.113500	0.722000	0.568000
H601	H60	0.106300	0.698000	0.494000
C1631	C163	0.990600	0.070800	0.922800
C1641	C164	0.001800	0.030900	0.849600
C1651	C165	0.026000	0.054700	0.822600
H611	H61	0.038200	0.099800	0.848900
C1661	C166	0.031000	0.004600	0.750600
H621	H62	0.046800	0.011100	0.724700
C1671	C167	0.009800	0.946600	0.724600
C1681	C168	0.007800	0.884500	0.651300
C1691	C169	0.950600	0.320500	0.914500
C1701	C170	0.954600	0.403200	0.849800
C1711	C171	0.974800	0.476800	0.836400
H631	H63	0.989100	0.485400	0.868900
C1721	C172	0.971900	0.539600	0.768000
H641	H64	0.983900	0.595300	0.750700
C1731	C173	0.949700	0.509500	0.730300
C1741	C174	0.941300	0.556500	0.655400
C1751	C175	0.952900	0.360100	0.140400
C1761	C176	0.944000	0.413100	0.211700
C1771	C177	0.920600	0.399500	0.245900
H651	H65	0.906500	0.359300	0.224200
C1781	C178	0.919500	0.452100	0.317400
H661	H66	0.905000	0.447100	0.349400
C1791	C179	0.941800	0.511100	0.335600
C1801	C180	0.948300	0.567400	0.409700
C1811	C181	0.890100	0.030900	0.905700
C1821	C182	0.895500	0.970200	0.831700
C1831	C183	0.917200	0.910800	0.811900
H671	H67	0.932100	0.907500	0.842200
C1841	C184	0.915300	0.853600	0.741100
H681	H68	0.928600	0.807900	0.719700
C1851	C185	0.891810	0.874000	0.708500
C1861	C186	0.880700	0.823900	0.636600
C1871	C187	0.893300	0.019800	0.150200
C1881	C188	0.885600	0.971100	0.224800
C1891	C189	0.862600	0.993500	0.259900
H691	H69	0.850000	0.044100	0.240100
C1901	C190	0.859400	0.933700	0.328900
H701	H70	0.844500	0.940600	0.359500
C1911	C191	0.880230	0.864900	0.345900
C1921	C192	0.883200	0.788400	0.411400
C1931	C193	0.827800	0.369800	0.911700
C1941	C194	0.837800	0.421600	0.839400
C1951	C195	0.861700	0.400000	0.807100
H711	H71	0.874700	0.353300	0.828800
C1961	C196	0.864200	0.458000	0.735800
H721	H72	0.879300	0.454600	0.705800
C1971	C197	0.842500	0.518400	0.716600
C1981	C198	0.837500	0.587500	0.647300
C1991	C199	0.787200	0.081800	0.133300
C2001	C200	0.777100	0.034700	0.206100
C2011	C201	0.752400	0.046200	0.235300
H731	H73	0.738800	0.085700	0.211200
C2021	C202	0.750200	0.991000	0.306700
H741	H74	0.734700	0.987900	0.334500
C2031	C203	0.772900	0.943300	0.330300
C2041	C204	0.778500	0.888000	0.405900
C2051	C205	0.785200	0.125300	0.909200
C2061	C206	0.788580	0.045400	0.844400
C2071	C207	0.809700	0.978500	0.828100
H751	H75	0.824600	0.973900	0.858600
C2081	C208	0.806700	0.916800	0.759600
H761	H76	0.819500	0.867500	0.739500
C2091	C209	0.783200	0.936000	0.726100
C2101	C210	0.774600	0.889500	0.650700
C2111	C211	0.840900	0.542800	0.408500
C2121	C212	0.830900	0.495800	0.333700
C2131	C213	0.806900	0.515600	0.302200
H771	H77	0.794000	0.562600	0.323800
C2141	C214	0.804300	0.456500	0.233100
H781	H78	0.789000	0.458800	0.203900
C2151	C215	0.826300	0.394700	0.212700
C2161	C216	0.830600	0.324400	0.143700
O1121	O112	0.967160	0.041400	0.938100
O1131	O113	0.005430	0.130200	0.963100
O1141	O114	0.987260	0.828600	0.638800
O1151	O115	0.026710	0.891500	0.605500
O1161	O116	0.968620	0.306800	0.961600
O1171	O117	0.929320	0.265900	0.917900
O1181	O118	0.957820	0.611500	0.618300
O1191	O119	0.918450	0.534200	0.634000
O1201	O120	0.976460	0.372700	0.122300
O1211	O121	0.935650	0.304300	0.103200
O1221	O122	0.968300	0.632200	0.412400
O1231	O123	0.933620	0.542600	0.464700
O1241	O124	0.907780	0.021900	0.954400
O1251	O125	0.868680	0.081800	0.912800
O1261	O126	0.897540	0.767500	0.595800
O1271	O127	0.857120	0.836600	0.622400
O1281	O128	0.917310	0.026800	0.132500
O1291	O129	0.874990	0.049400	0.107900
O1301	O130	0.890660	0.248100	0.025900
O1311	O131	0.864200	0.771200	0.455900
O1321	O132	0.843800	0.315600	0.951700
O1331	O133	0.804000	0.389800	0.927100
O1341	O134	0.854980	0.588200	0.595700
O1351	O135	0.816500	0.642300	0.640100
O1361	O136	0.811220	0.064900	0.118500
O1371	O137	0.771170	0.136800	0.092900
O1381	O138	0.799340	0.835400	0.415600
O1391	O139	0.760670	0.903200	0.454700
O1401	O140	0.804060	0.138100	0.955500
O1411	O141	0.763860	0.178300	0.917800
O1421	O142	0.751350	0.878800	0.635600
O1431	O143	0.793590	0.868600	0.606100
O1441	O144	0.864160	0.520300	0.425700
O1451	O145	0.824170	0.598300	0.447500
O1461	O146	0.852490	0.275200	0.136100
O1471	O147	0.812490	0.313700	0.096700
O1481	O148	0.905040	0.737300	0.421500
S281	S28	0.984410	0.947800	0.786610
S291	S29	0.931690	0.409100	0.778720
S301	S30	0.964090	0.499200	0.264960
S311	S31	0.871760	0.960600	0.763100
S321	S32	0.904380	0.876300	0.277840
S331	S33	0.818540	0.509700	0.784390
S341	S34	0.797440	0.958300	0.265260
S351	S35	0.764330	0.030500	0.777840
S361	S36	0.850310	0.408500	0.279230
Nd191	Nd19	0.011200	0.306970	0.032090
Nd201	Nd20	0.937240	0.134700	0.026070
Nd211	Nd21	0.844260	0.138340	0.027130
Nd221	Nd22	0.773100	0.317750	0.023840
Nd231	Nd23	0.893900	0.590010	0.522160
Nd241	Nd24	0.823400	0.769590	0.527430
H791	H79	0.886500	0.278000	0.068000
H801	H80	0.893700	0.302000	0.994000
