data_UMEVUD_clean_PM
_symmetry_space_group_name_H-M	'P1'
_cell_length_a	15.486000
_cell_length_b	9.815000
_cell_length_c	9.836500
_cell_angle_alpha	90.000000
_cell_angle_beta	105.990000
_cell_angle_gamma	90.000000
_symmetry_Int_Tables_number 1

loop_
_symmetry_equiv_pos_as_xyz
'x,y,z'

loop_
_atom_site_label
_atom_site_type_symbol
_atom_site_fract_x
_atom_site_fract_y
_atom_site_fract_z
Zn11	Zn1	0.552380	0.179450	0.448400
Zn21	Zn2	0.945690	0.084850	0.678250
P11	P1	0.733780	0.018000	0.598080
H11	H1	0.338000	0.412000	0.130000
H21	H2	0.638000	0.945000	0.682000
P21	P2	0.483990	0.395130	0.208390
P31	P3	0.985310	0.790780	0.561320
H31	H3	0.856000	0.825000	0.465000
O11	O1	0.676270	0.138800	0.537100
O21	O2	0.545660	0.353400	0.352700
O31	O3	0.823690	0.056100	0.696400
O41	O4	0.994150	0.907000	0.664300
O51	O5	0.747340	0.925000	0.479600
O61	O6	0.686130	0.929500	0.688500
O71	O7	0.487330	0.293800	0.092100
O81	O8	0.515860	0.536800	0.174000
O91	O9	0.387240	0.402100	0.221000
O101	O10	0.055630	0.795000	0.478500
O111	O11	0.990890	0.653100	0.635000
O121	O12	0.892130	0.796200	0.445200
Zn31	Zn3	0.447620	0.679450	0.051600
Zn41	Zn4	0.054310	0.584850	0.821750
P41	P4	0.266220	0.518000	0.901920
H41	H4	0.662000	0.912000	0.370000
H51	H5	0.362000	0.445000	0.818000
P51	P5	0.516010	0.895130	0.291610
P61	P6	0.014690	0.290780	0.938680
H61	H6	0.144000	0.325000	0.035000
O131	O13	0.323730	0.638800	0.962900
O141	O14	0.454340	0.853400	0.147300
O151	O15	0.176310	0.556100	0.803600
O161	O16	0.005850	0.407000	0.835700
O171	O17	0.252660	0.425000	0.020400
O181	O18	0.313870	0.429500	0.811500
O191	O19	0.512670	0.793800	0.407900
O201	O20	0.484140	0.036800	0.326000
O211	O21	0.612760	0.902100	0.279000
O221	O22	0.944370	0.295000	0.021500
O231	O23	0.009110	0.153100	0.865000
O241	O24	0.107870	0.296200	0.054800
Zn51	Zn5	0.447620	0.820550	0.551600
Zn61	Zn6	0.054310	0.915150	0.321750
P71	P7	0.266220	0.982000	0.401920
H71	H7	0.662000	0.588000	0.870000
H81	H8	0.362000	0.055000	0.318000
P81	P8	0.516010	0.604870	0.791610
P91	P9	0.014690	0.209220	0.438680
H91	H9	0.144000	0.175000	0.535000
O251	O25	0.323730	0.861200	0.462900
O261	O26	0.454340	0.646600	0.647300
O271	O27	0.176310	0.943900	0.303600
O281	O28	0.005850	0.093000	0.335700
O291	O29	0.252660	0.075000	0.520400
O301	O30	0.313870	0.070500	0.311500
O311	O31	0.512670	0.706200	0.907900
O321	O32	0.484140	0.463200	0.826000
O331	O33	0.612760	0.597900	0.779000
O341	O34	0.944370	0.205000	0.521500
O351	O35	0.009110	0.346900	0.365000
O361	O36	0.107870	0.203800	0.554800
Zn71	Zn7	0.552380	0.320550	0.948400
Zn81	Zn8	0.945690	0.415150	0.178250
P101	P10	0.733780	0.482000	0.098080
H101	H10	0.338000	0.088000	0.630000
H111	H11	0.638000	0.555000	0.182000
P111	P11	0.483990	0.104870	0.708390
P121	P12	0.985310	0.709220	0.061320
H121	H12	0.856000	0.675000	0.965000
O371	O37	0.676270	0.361200	0.037100
O381	O38	0.545660	0.146600	0.852700
O391	O39	0.823690	0.443900	0.196400
O401	O40	0.994150	0.593000	0.164300
O411	O41	0.747340	0.575000	0.979600
O421	O42	0.686130	0.570500	0.188500
O431	O43	0.487330	0.206200	0.592100
O441	O44	0.515860	0.963200	0.674000
O451	O45	0.387240	0.097900	0.721000
O461	O46	0.055630	0.705000	0.978500
O471	O47	0.990890	0.846900	0.135000
O481	O48	0.892130	0.703800	0.945200
