data_UMEXUF01_clean_PM
_symmetry_space_group_name_H-M	'P1'
_cell_length_a	7.419600
_cell_length_b	16.727600
_cell_length_c	15.490500
_cell_angle_alpha	90.000000
_cell_angle_beta	113.207000
_cell_angle_gamma	90.000000
_symmetry_Int_Tables_number 1

loop_
_symmetry_equiv_pos_as_xyz
'x,y,z'

loop_
_atom_site_label
_atom_site_type_symbol
_atom_site_fract_x
_atom_site_fract_y
_atom_site_fract_z
Zn11	Zn1	0.463180	0.983020	0.183700
Zn21	Zn2	0.289950	0.875590	0.977640
C11	C1	0.066300	0.840100	0.094800
C21	C2	0.008200	0.777600	0.148000
C31	C3	0.132600	0.713100	0.184200
H11	H1	0.242800	0.707900	0.170200
C41	C4	0.837700	0.783500	0.165200
C51	C5	0.097600	0.656100	0.241100
C61	C6	0.926600	0.661400	0.258300
C71	C7	0.797600	0.724200	0.218200
H21	H2	0.680900	0.726700	0.227100
C81	C8	0.687300	0.848300	0.128200
C91	C9	0.869700	0.601400	0.314900
C101	C10	0.250900	0.592800	0.280100
O11	O1	0.193800	0.819000	0.064500
O21	O2	0.985100	0.906300	0.084100
O31	O3	0.579000	0.846700	0.042100
O41	O4	0.674400	0.896100	0.187100
O51	O5	0.992600	0.584600	0.395000
O61	O6	0.700500	0.573900	0.279000
O71	O7	0.343900	0.585000	0.366800
O81	O8	0.293400	0.550800	0.223900
O91	O9	0.299100	0.984400	0.043900
H31	H3	0.340100	0.030200	0.022700
Zn31	Zn3	0.536820	0.483020	0.316300
Zn41	Zn4	0.710050	0.375590	0.522360
C111	C11	0.933700	0.340100	0.405200
C121	C12	0.991800	0.277600	0.352000
C131	C13	0.867400	0.213100	0.315800
H41	H4	0.757200	0.207900	0.329800
C141	C14	0.162300	0.283500	0.334800
C151	C15	0.902400	0.156100	0.258900
C161	C16	0.073400	0.161400	0.241700
C171	C17	0.202400	0.224200	0.281800
H51	H5	0.319100	0.226700	0.272900
C181	C18	0.312700	0.348300	0.371800
C191	C19	0.130300	0.101400	0.185100
C201	C20	0.749100	0.092800	0.219900
O101	O10	0.806200	0.319000	0.435500
O111	O11	0.014900	0.406300	0.415900
O121	O12	0.421000	0.346700	0.457900
O131	O13	0.325600	0.396100	0.312900
O141	O14	0.007400	0.084600	0.105000
O151	O15	0.299500	0.073900	0.221000
O161	O16	0.656100	0.085000	0.133200
O171	O17	0.706600	0.050800	0.276100
O181	O18	0.700900	0.484400	0.456100
H61	H6	0.659900	0.530200	0.477300
Zn51	Zn5	0.536820	0.016980	0.816300
Zn61	Zn6	0.710050	0.124410	0.022360
C211	C21	0.933700	0.159900	0.905200
C221	C22	0.991800	0.222400	0.852000
C231	C23	0.867400	0.286900	0.815800
H71	H7	0.757200	0.292100	0.829800
C241	C24	0.162300	0.216500	0.834800
C251	C25	0.902400	0.343900	0.758900
C261	C26	0.073400	0.338600	0.741700
C271	C27	0.202400	0.275800	0.781800
H81	H8	0.319100	0.273300	0.772900
C281	C28	0.312700	0.151700	0.871800
C291	C29	0.130300	0.398600	0.685100
C301	C30	0.749100	0.407200	0.719900
O191	O19	0.806200	0.181000	0.935500
O201	O20	0.014900	0.093700	0.915900
O211	O21	0.421000	0.153300	0.957900
O221	O22	0.325600	0.103900	0.812900
O231	O23	0.007400	0.415400	0.605000
O241	O24	0.299500	0.426100	0.721000
O251	O25	0.656100	0.415000	0.633200
O261	O26	0.706600	0.449200	0.776100
O271	O27	0.700900	0.015600	0.956100
H91	H9	0.659900	0.969800	0.977300
Zn71	Zn7	0.463180	0.516980	0.683700
Zn81	Zn8	0.289950	0.624410	0.477640
C311	C31	0.066300	0.659900	0.594800
C321	C32	0.008200	0.722400	0.648000
C331	C33	0.132600	0.786900	0.684200
H101	H10	0.242800	0.792100	0.670200
C341	C34	0.837700	0.716500	0.665200
C351	C35	0.097600	0.843900	0.741100
C361	C36	0.926600	0.838600	0.758300
C371	C37	0.797600	0.775800	0.718200
H111	H11	0.680900	0.773300	0.727100
C381	C38	0.687300	0.651700	0.628200
C391	C39	0.869700	0.898600	0.814900
C401	C40	0.250900	0.907200	0.780100
O281	O28	0.193800	0.681000	0.564500
O291	O29	0.985100	0.593700	0.584100
O301	O30	0.579000	0.653300	0.542100
O311	O31	0.674400	0.603900	0.687100
O321	O32	0.992600	0.915400	0.895000
O331	O33	0.700500	0.926100	0.779000
O341	O34	0.343900	0.915000	0.866800
O351	O35	0.293400	0.949200	0.723900
O361	O36	0.299100	0.515600	0.543900
H121	H12	0.340100	0.469800	0.522700
Zn91	Zn9	0.000000	0.000000	0.000000
Zn101	Zn10	0.000000	0.500000	0.500000
