data_UMEXUF_clean_PM
_symmetry_space_group_name_H-M	'P1'
_cell_length_a	7.408700
_cell_length_b	14.534700
_cell_length_c	16.423600
_cell_angle_alpha	90.000000
_cell_angle_beta	90.000000
_cell_angle_gamma	94.993000
_symmetry_Int_Tables_number 1

loop_
_symmetry_equiv_pos_as_xyz
'x,y,z'

loop_
_atom_site_label
_atom_site_type_symbol
_atom_site_fract_x
_atom_site_fract_y
_atom_site_fract_z
Zn11	Zn1	0.221600	0.680870	0.481920
Zn21	Zn2	0.191300	0.479100	0.372770
Zn31	Zn3	0.278400	0.819130	0.981920
Zn41	Zn4	0.308700	0.020900	0.872770
Zn51	Zn5	0.778400	0.319130	0.518080
Zn61	Zn6	0.808700	0.520900	0.627230
Zn71	Zn7	0.721600	0.180870	0.018080
Zn81	Zn8	0.691300	0.979100	0.127230
Zn91	Zn9	0.500000	0.500000	0.500000
Zn101	Zn10	0.000000	0.000000	0.000000
H11	H1	0.836200	0.482000	0.476000
H21	H2	0.428800	0.674200	0.205400
H31	H3	0.048600	0.729200	0.224400
H41	H4	0.663800	0.018000	0.976000
H51	H5	0.071200	0.825800	0.705400
H61	H6	0.451400	0.770800	0.724400
H71	H7	0.163800	0.518000	0.524000
H81	H8	0.571200	0.325800	0.794600
H91	H9	0.951400	0.270800	0.775600
H101	H10	0.336200	0.982000	0.024000
H111	H11	0.928800	0.174200	0.294600
H121	H12	0.548600	0.229200	0.275600
C11	C1	0.830700	0.664400	0.280300
C21	C2	0.643100	0.647600	0.274700
C31	C3	0.553500	0.687200	0.210500
C41	C4	0.643900	0.744800	0.154500
C51	C5	0.832700	0.759900	0.159700
C61	C6	0.923000	0.719500	0.221600
C71	C7	0.945900	0.625900	0.345700
C81	C8	0.534400	0.592000	0.336300
C91	C9	0.528100	0.786300	0.092100
C101	C10	0.945600	0.819000	0.099300
C111	C11	0.669300	0.835600	0.780300
C121	C12	0.856900	0.852400	0.774700
C131	C13	0.946500	0.812800	0.710500
C141	C14	0.856100	0.755200	0.654500
C151	C15	0.667300	0.740100	0.659700
C161	C16	0.577000	0.780500	0.721600
C171	C17	0.554100	0.874100	0.845700
C181	C18	0.965600	0.908000	0.836300
C191	C19	0.971900	0.713700	0.592100
C201	C20	0.554400	0.681000	0.599300
C211	C21	0.169300	0.335600	0.719700
C221	C22	0.356900	0.352400	0.725300
C231	C23	0.446500	0.312800	0.789500
C241	C24	0.356100	0.255200	0.845500
C251	C25	0.167300	0.240100	0.840300
C261	C26	0.077000	0.280500	0.778400
C271	C27	0.054100	0.374100	0.654300
C281	C28	0.465600	0.408000	0.663700
C291	C29	0.471900	0.213700	0.907900
C301	C30	0.054400	0.181000	0.900700
C311	C31	0.330700	0.164400	0.219700
C321	C32	0.143100	0.147600	0.225300
C331	C33	0.053500	0.187200	0.289500
C341	C34	0.143900	0.244800	0.345500
C351	C35	0.332700	0.259900	0.340300
C361	C36	0.423000	0.219500	0.278400
C371	C37	0.445900	0.125900	0.154300
C381	C38	0.034400	0.092000	0.163700
C391	C39	0.028100	0.286300	0.407900
C401	C40	0.445600	0.319000	0.400700
O11	O1	0.970000	0.542600	0.341000
O21	O2	0.017400	0.683300	0.394700
O31	O3	0.377800	0.560300	0.313800
O41	O4	0.603800	0.580900	0.404100
O51	O5	0.523700	0.871600	0.087000
O61	O6	0.427200	0.732900	0.049600
O71	O7	0.078300	0.783100	0.070500
O81	O8	0.901400	0.897300	0.084300
O91	O9	0.754000	0.453500	0.517400
O101	O10	0.530000	0.957400	0.841000
O111	O11	0.482600	0.816700	0.894700
O121	O12	0.122200	0.939700	0.813800
O131	O13	0.896200	0.919100	0.904100
O141	O14	0.976300	0.628400	0.587000
O151	O15	0.072800	0.767100	0.549600
O161	O16	0.421700	0.716900	0.570500
O171	O17	0.598600	0.602700	0.584300
O181	O18	0.746000	0.046500	0.017400
O191	O19	0.030000	0.457400	0.659000
O201	O20	0.982600	0.316700	0.605300
O211	O21	0.622200	0.439700	0.686200
O221	O22	0.396200	0.419100	0.595900
O231	O23	0.476300	0.128400	0.913000
O241	O24	0.572800	0.267100	0.950400
O251	O25	0.921700	0.216900	0.929500
O261	O26	0.098600	0.102700	0.915700
O271	O27	0.246000	0.546500	0.482600
O281	O28	0.470000	0.042600	0.159000
O291	O29	0.517400	0.183300	0.105300
O301	O30	0.877800	0.060300	0.186200
O311	O31	0.103800	0.080900	0.095900
O321	O32	0.023700	0.371600	0.413000
O331	O33	0.927200	0.232900	0.450400
O341	O34	0.578300	0.283100	0.429500
O351	O35	0.401400	0.397300	0.415700
O361	O36	0.254000	0.953500	0.982600
