data_UMIZEX_clean_PM
_symmetry_space_group_name_H-M	'P1'
_cell_length_a	24.713900
_cell_length_b	20.770400
_cell_length_c	24.950200
_cell_angle_alpha	90.000000
_cell_angle_beta	99.081000
_cell_angle_gamma	90.000000
_symmetry_Int_Tables_number 1

loop_
_symmetry_equiv_pos_as_xyz
'x,y,z'

loop_
_atom_site_label
_atom_site_type_symbol
_atom_site_fract_x
_atom_site_fract_y
_atom_site_fract_z
Gd11	Gd1	0.788150	0.534970	0.875520
O11	O1	0.813750	0.564300	0.791200
O21	O2	0.765460	0.450000	0.810900
O31	O3	0.869880	0.479000	0.869590
O41	O4	0.850900	0.620000	0.903400
O51	O5	0.708500	0.596300	0.837200
O61	O6	0.741600	0.611800	0.924400
O71	O7	0.804500	0.475500	0.956700
Gd21	Gd2	0.913540	0.533120	0.804630
Gd31	Gd3	0.771770	0.494120	0.721730
H11	H1	0.808300	0.603900	0.783500
Gd41	Gd4	0.841920	0.375770	0.834730
H21	H2	0.734600	0.432900	0.812600
H31	H3	0.890500	0.476500	0.900200
O81	O8	0.856690	0.451200	0.763180
O91	O9	0.968700	0.442400	0.808200
O101	O10	0.905500	0.636400	0.841400
O111	O11	0.905900	0.590400	0.723400
O121	O12	0.701270	0.425000	0.682920
O131	O13	0.726000	0.535200	0.635380
O141	O14	0.682380	0.538600	0.730110
O151	O15	0.813900	0.422900	0.663120
O161	O16	0.827600	0.561300	0.673200
O171	O17	0.875500	0.273800	0.881000
O181	O18	0.917900	0.362200	0.914300
O191	O19	0.927600	0.346700	0.801800
O201	O20	0.759800	0.306500	0.814170
O211	O21	0.812100	0.316900	0.750880
O221	O22	0.801800	0.375800	0.919310
H41	H4	0.872200	0.432000	0.739600
Gd51	Gd5	0.682200	0.450270	0.583350
Gd61	Gd6	0.615740	0.451810	0.707960
H51	H5	0.709400	0.385600	0.688900
Gd71	Gd7	0.657360	0.609910	0.655860
H61	H6	0.748700	0.554000	0.618400
H71	H7	0.681200	0.555800	0.760800
C11	C1	0.809100	0.401400	0.616600
C21	C2	0.911500	0.303400	0.914800
O231	O23	0.617960	0.509400	0.627510
O241	O24	0.670900	0.536000	0.523180
O251	O25	0.770100	0.412300	0.579000
O261	O26	0.664400	0.341700	0.601800
O271	O27	0.601700	0.352500	0.657800
O281	O28	0.567400	0.533900	0.744900
O291	O29	0.651900	0.404700	0.793900
O301	O30	0.566000	0.383100	0.761400
O311	O31	0.668300	0.631800	0.563700
O321	O32	0.571530	0.616500	0.687600
O331	O33	0.673700	0.682300	0.737070
O341	O34	0.741400	0.663300	0.691400
C31	C3	0.855600	0.360800	0.602800
H81	H8	0.934200	0.278800	0.941600
H91	H9	0.586600	0.512900	0.608100
C41	C4	0.681200	0.595700	0.527300
C51	C5	0.619700	0.327400	0.619000
C61	C6	0.548600	0.586000	0.721600
C71	C7	0.895500	0.336000	0.643100
C81	C8	0.861700	0.351100	0.549000
C91	C9	0.709700	0.624400	0.483700
C101	C10	0.585200	0.277000	0.586600
C111	C11	0.496700	0.611600	0.737400
H101	H10	0.891300	0.340900	0.680100
C121	C12	0.941500	0.304100	0.630200
C131	C13	0.907900	0.319700	0.536300
H111	H11	0.834200	0.365900	0.520700
C141	C14	0.731600	0.585200	0.447800
C151	C15	0.713500	0.690400	0.477900
C161	C16	0.599900	0.256600	0.538000
C171	C17	0.536600	0.256500	0.601700
C181	C18	0.464700	0.573200	0.764300
C191	C19	0.481000	0.675500	0.727200
H121	H12	0.968100	0.286800	0.658300
C201	C20	0.948400	0.297600	0.576400
H131	H13	0.911500	0.313400	0.499300
H141	H14	0.730700	0.539800	0.452400
C211	C21	0.754800	0.610100	0.405800
C221	C22	0.737100	0.716600	0.435800
H151	H15	0.699900	0.718200	0.503000
C231	C23	0.565000	0.217400	0.503300
H161	H16	0.634000	0.269600	0.528400
H171	H17	0.527600	0.269800	0.635600
C241	C24	0.500700	0.216600	0.568200
H181	H18	0.475600	0.529900	0.772100
C251	C25	0.416600	0.595600	0.780500
C261	C26	0.433700	0.699800	0.744200
H191	H19	0.502600	0.702800	0.708500
C271	C27	0.000700	0.270100	0.562300
H201	H20	0.769100	0.582000	0.381500
C281	C28	0.757300	0.676500	0.398800
H211	H21	0.739500	0.762000	0.432200
C291	C29	0.578300	0.198500	0.449700
C301	C30	0.515700	0.197300	0.518500
C311	C31	0.448100	0.195000	0.582100
H221	H22	0.394700	0.567500	0.798100
C321	C32	0.400700	0.659800	0.770700
H231	H23	0.424000	0.743600	0.737800
C331	C33	0.031000	0.223900	0.594200
C341	C34	0.020600	0.293600	0.516700
C351	C35	0.776700	0.703900	0.350300
C361	C36	0.631500	0.181800	0.442900
C371	C37	0.535900	0.196700	0.404900
H241	H24	0.491800	0.170100	0.495000
C381	C38	0.442100	0.180600	0.635600
C391	C39	0.402500	0.188300	0.540600
C401	C40	0.348900	0.685000	0.787900
H251	H25	0.018300	0.207800	0.625600
C411	C41	0.080200	0.200700	0.580400
C421	C42	0.069400	0.271300	0.502700
H261	H26	0.000400	0.325500	0.494800
C431	C43	0.743500	0.746300	0.316400
C441	C44	0.828100	0.686200	0.336400
C451	C45	0.641100	0.159200	0.392700
H271	H27	0.660900	0.185900	0.472200
H281	H28	0.500200	0.210900	0.408700
C461	C46	0.546100	0.174400	0.355400
H291	H29	0.472100	0.186600	0.664100
C471	C47	0.392200	0.157500	0.647300
C481	C48	0.354300	0.163900	0.553400
H301	H30	0.405100	0.200400	0.504300
C491	C49	0.332900	0.664300	0.836600
C501	C50	0.316000	0.727700	0.754500
C511	C51	0.100200	0.224400	0.535300
C521	C52	0.109500	0.147900	0.614900
C531	C53	0.088100	0.299500	0.453800
H311	H31	0.708800	0.758500	0.325000
C541	C54	0.760800	0.770800	0.269900
C551	C55	0.845500	0.711200	0.290600
H321	H32	0.850800	0.656800	0.358800
C561	C56	0.598600	0.153300	0.349000
H331	H33	0.677200	0.147700	0.388100
H341	H34	0.517200	0.173400	0.325300
H351	H35	0.388000	0.148100	0.683700
C571	C57	0.349100	0.148500	0.605400
H361	H36	0.324000	0.157800	0.525300
H371	H37	0.355400	0.635000	0.859400
C581	C58	0.284200	0.686500	0.851800
C591	C59	0.266700	0.750000	0.769600
H381	H38	0.326700	0.741900	0.721600
H391	H39	0.134000	0.209300	0.526500
C601	C60	0.141200	0.320300	0.454200
C611	C61	0.049800	0.308000	0.406500
C621	C62	0.811700	0.753800	0.257900
C631	C63	0.723100	0.811000	0.231200
C641	C64	0.896800	0.689700	0.272700
C651	C65	0.606500	0.121100	0.298400
C661	C66	0.296500	0.117200	0.615600
C671	C67	0.252200	0.730000	0.818900
C681	C68	0.266100	0.662500	0.903000
C691	C69	0.229700	0.793700	0.732200
H401	H40	0.168300	0.311900	0.484800
C701	C70	0.155100	0.353600	0.410000
C711	C71	0.064500	0.340200	0.362500
H411	H41	0.013700	0.291500	0.404700
H421	H42	0.823800	0.771600	0.226800
C721	C72	0.909600	0.623600	0.274100
C731	C73	0.930900	0.731300	0.250800
H431	H43	0.219900	0.746500	0.829900
C741	C74	0.275700	0.597800	0.919400
C751	C75	0.237800	0.701800	0.934200
H441	H44	0.191500	0.368800	0.411300
C761	C76	0.116800	0.365200	0.364000
H451	H45	0.038300	0.345300	0.330600
H461	H46	0.887800	0.594300	0.290600
C771	C77	0.953700	0.601100	0.251800
C781	C78	0.976100	0.708700	0.229000
H471	H47	0.923600	0.776200	0.250500
H481	H48	0.295700	0.570200	0.899300
C791	C79	0.255800	0.574400	0.965200
C801	C80	0.219900	0.677400	0.980800
H491	H49	0.230500	0.745300	0.923900
C811	C81	0.129800	0.406600	0.318300
H501	H50	0.961200	0.556200	0.252200
C821	C82	0.987300	0.643400	0.228800
H511	H51	0.999100	0.738200	0.214200
H521	H52	0.260800	0.530200	0.974600
C831	C83	0.229600	0.613400	0.996400
H531	H53	0.201000	0.704900	0.002100
C841	C84	0.034300	0.617200	0.204500
C851	C85	0.207800	0.586700	0.046400
O351	O35	0.240000	0.539700	0.067800
Gd81	Gd8	0.211850	0.034970	0.624480
O361	O36	0.186250	0.064300	0.708800
O371	O37	0.234540	0.950000	0.689100
O381	O38	0.130120	0.979000	0.630410
O391	O39	0.149100	0.120000	0.596600
O401	O40	0.291500	0.096300	0.662800
O411	O41	0.258400	0.111800	0.575600
O421	O42	0.195500	0.975500	0.543300
Gd91	Gd9	0.086460	0.033120	0.695370
Gd101	Gd10	0.228230	0.994120	0.778270
H541	H54	0.191700	0.103900	0.716500
Gd111	Gd11	0.158080	0.875770	0.665270
H551	H55	0.265400	0.932900	0.687400
H561	H56	0.109500	0.976500	0.599800
O431	O43	0.143310	0.951200	0.736820
O441	O44	0.031300	0.942400	0.691800
O451	O45	0.094500	0.136400	0.658600
O461	O46	0.094100	0.090400	0.776600
O471	O47	0.298730	0.925000	0.817080
O481	O48	0.274000	0.035200	0.864620
O491	O49	0.317620	0.038600	0.769890
O501	O50	0.186100	0.922900	0.836880
O511	O51	0.172400	0.061300	0.826800
O521	O52	0.124500	0.773800	0.619000
O531	O53	0.082100	0.862200	0.585700
O541	O54	0.072400	0.846700	0.698200
O551	O55	0.240200	0.806500	0.685830
O561	O56	0.187900	0.816900	0.749120
O571	O57	0.198200	0.875800	0.580690
H571	H57	0.127800	0.932000	0.760400
Gd121	Gd12	0.317800	0.950270	0.916650
Gd131	Gd13	0.384260	0.951810	0.792040
H581	H58	0.290600	0.885600	0.811100
Gd141	Gd14	0.342640	0.109910	0.844140
H591	H59	0.251300	0.054000	0.881600
H601	H60	0.318800	0.055800	0.739200
C861	C86	0.190900	0.901400	0.883400
C871	C87	0.088500	0.803400	0.585200
O581	O58	0.382040	0.009400	0.872490
O591	O59	0.329100	0.036000	0.976820
O601	O60	0.229900	0.912300	0.921000
O611	O61	0.335600	0.841700	0.898200
O621	O62	0.398300	0.852500	0.842200
O631	O63	0.432600	0.033900	0.755100
O641	O64	0.348100	0.904700	0.706100
O651	O65	0.434000	0.883100	0.738600
O661	O66	0.331700	0.131800	0.936300
O671	O67	0.428470	0.116500	0.812400
O681	O68	0.326300	0.182300	0.762930
O691	O69	0.258600	0.163300	0.808600
C881	C88	0.144400	0.860800	0.897200
H611	H61	0.065800	0.778800	0.558400
H621	H62	0.413400	0.012900	0.891900
C891	C89	0.318800	0.095700	0.972700
C901	C90	0.380300	0.827400	0.881000
C911	C91	0.451400	0.086000	0.778400
C921	C92	0.104500	0.836000	0.856900
C931	C93	0.138300	0.851100	0.951000
C941	C94	0.290300	0.124400	0.016300
C951	C95	0.414800	0.777000	0.913400
C961	C96	0.503300	0.111600	0.762600
H631	H63	0.108700	0.840900	0.819900
C971	C97	0.058500	0.804100	0.869800
C981	C98	0.092100	0.819700	0.963700
H641	H64	0.165800	0.865900	0.979300
C991	C99	0.268400	0.085200	0.052200
C1001	C100	0.286500	0.190400	0.022100
C1011	C101	0.400100	0.756600	0.962000
C1021	C102	0.463400	0.756500	0.898300
C1031	C103	0.535300	0.073200	0.735700
C1041	C104	0.519000	0.175500	0.772800
H651	H65	0.031900	0.786800	0.841700
C1051	C105	0.051600	0.797600	0.923600
H661	H66	0.088500	0.813400	0.000700
H671	H67	0.269300	0.039800	0.047600
C1061	C106	0.245200	0.110100	0.094200
C1071	C107	0.262900	0.216600	0.064200
H681	H68	0.300100	0.218200	0.997000
C1081	C108	0.435000	0.717400	0.996700
H691	H69	0.366000	0.769600	0.971600
H701	H70	0.472400	0.769800	0.864400
C1091	C109	0.499300	0.716600	0.931800
H711	H71	0.524400	0.029900	0.727900
C1101	C110	0.583400	0.095600	0.719500
C1111	C111	0.566300	0.199800	0.755800
H721	H72	0.497400	0.202800	0.791500
C1121	C112	0.999300	0.770100	0.937700
H731	H73	0.230900	0.082000	0.118500
C1131	C113	0.242700	0.176500	0.101200
H741	H74	0.260500	0.262000	0.067800
C1141	C114	0.421700	0.698500	0.050300
C1151	C115	0.484300	0.697300	0.981500
C1161	C116	0.551900	0.695000	0.917900
H751	H75	0.605300	0.067500	0.701900
C1171	C117	0.599300	0.159800	0.729300
H761	H76	0.576000	0.243600	0.762200
C1181	C118	0.969000	0.723900	0.905800
C1191	C119	0.979400	0.793600	0.983300
C1201	C120	0.223300	0.203900	0.149700
C1211	C121	0.368500	0.681800	0.057100
C1221	C122	0.464100	0.696700	0.095100
H771	H77	0.508200	0.670100	0.005000
C1231	C123	0.557900	0.680600	0.864400
C1241	C124	0.597500	0.688300	0.959400
C1251	C125	0.651100	0.185000	0.712100
H781	H78	0.981700	0.707800	0.874400
C1261	C126	0.919800	0.700700	0.919600
C1271	C127	0.930600	0.771300	0.997300
H791	H79	0.999600	0.825500	0.005200
C1281	C128	0.256500	0.246300	0.183600
C1291	C129	0.171900	0.186200	0.163600
C1301	C130	0.358900	0.659200	0.107300
H801	H80	0.339100	0.685900	0.027800
H811	H81	0.499800	0.710900	0.091300
C1311	C131	0.453900	0.674400	0.144600
H821	H82	0.527900	0.686600	0.835900
C1321	C132	0.607800	0.657500	0.852700
C1331	C133	0.645700	0.663900	0.946600
H831	H83	0.594900	0.700400	0.995700
C1341	C134	0.667100	0.164300	0.663400
C1351	C135	0.684000	0.227700	0.745500
C1361	C136	0.899800	0.724400	0.964700
C1371	C137	0.890500	0.647900	0.885100
C1381	C138	0.911900	0.799500	0.046200
H841	H84	0.291200	0.258500	0.175000
C1391	C139	0.239200	0.270800	0.230100
C1401	C140	0.154500	0.211200	0.209400
H851	H85	0.149200	0.156800	0.141200
C1411	C141	0.401400	0.653300	0.151000
H861	H86	0.322800	0.647700	0.111900
H871	H87	0.482800	0.673400	0.174700
H881	H88	0.612000	0.648100	0.816300
C1421	C142	0.650900	0.648500	0.894600
H891	H89	0.676000	0.657800	0.974700
H901	H90	0.644600	0.135000	0.640600
C1431	C143	0.715800	0.186500	0.648200
C1441	C144	0.733300	0.250000	0.730400
H911	H91	0.673300	0.241900	0.778400
H921	H92	0.866000	0.709300	0.973500
C1451	C145	0.858800	0.820300	0.045800
C1461	C146	0.950200	0.808000	0.093500
C1471	C147	0.188300	0.253800	0.242100
C1481	C148	0.276900	0.311000	0.268800
C1491	C149	0.103200	0.189700	0.227300
C1501	C150	0.393500	0.621100	0.201600
C1511	C151	0.703500	0.617200	0.884400
C1521	C152	0.747800	0.230000	0.681100
C1531	C153	0.733900	0.162500	0.597000
C1541	C154	0.770300	0.293700	0.767800
H931	H93	0.831700	0.811900	0.015200
C1551	C155	0.844900	0.853600	0.090000
C1561	C156	0.935500	0.840200	0.137500
H941	H94	0.986300	0.791500	0.095300
H951	H95	0.176200	0.271600	0.273200
C1571	C157	0.090400	0.123600	0.225900
C1581	C158	0.069100	0.231300	0.249200
H961	H96	0.780100	0.246500	0.670100
C1591	C159	0.724300	0.097800	0.580600
C1601	C160	0.762200	0.201800	0.565800
H971	H97	0.808500	0.868800	0.088700
C1611	C161	0.883200	0.865200	0.136000
H981	H98	0.961700	0.845300	0.169400
H991	H99	0.112200	0.094300	0.209400
C1621	C162	0.046300	0.101100	0.248200
C1631	C163	0.023900	0.208700	0.271000
H1001	H100	0.076400	0.276200	0.249500
H1011	H101	0.704300	0.070200	0.600700
C1641	C164	0.744200	0.074400	0.534800
C1651	C165	0.780100	0.177400	0.519200
H1021	H102	0.769500	0.245300	0.576100
C1661	C166	0.870200	0.906600	0.181700
H1031	H103	0.038800	0.056200	0.247800
C1671	C167	0.012700	0.143400	0.271200
H1041	H104	0.000900	0.238200	0.285800
H1051	H105	0.739200	0.030200	0.525400
C1681	C168	0.770400	0.113400	0.503600
H1061	H106	0.799000	0.204900	0.497900
C1691	C169	0.965700	0.117200	0.295500
C1701	C170	0.792200	0.086700	0.453600
O701	O70	0.760000	0.039700	0.432200
Gd151	Gd15	0.211850	0.465030	0.124480
O711	O71	0.186250	0.435700	0.208800
O721	O72	0.234540	0.550000	0.189100
O731	O73	0.130120	0.521000	0.130410
O741	O74	0.149100	0.380000	0.096600
O751	O75	0.291500	0.403700	0.162800
O761	O76	0.258400	0.388200	0.075600
O771	O77	0.195500	0.524500	0.043300
Gd161	Gd16	0.086460	0.466880	0.195370
Gd171	Gd17	0.228230	0.505880	0.278270
H1071	H107	0.191700	0.396100	0.216500
Gd181	Gd18	0.158080	0.624230	0.165270
H1081	H108	0.265400	0.567100	0.187400
H1091	H109	0.109500	0.523500	0.099800
O781	O78	0.143310	0.548800	0.236820
O791	O79	0.031300	0.557600	0.191800
O801	O80	0.094500	0.363600	0.158600
O811	O81	0.094100	0.409600	0.276600
O821	O82	0.298730	0.575000	0.317080
O831	O83	0.274000	0.464800	0.364620
O841	O84	0.317620	0.461400	0.269890
O851	O85	0.186100	0.577100	0.336880
O861	O86	0.172400	0.438700	0.326800
O871	O87	0.124500	0.726200	0.119000
O881	O88	0.082100	0.637800	0.085700
O891	O89	0.072400	0.653300	0.198200
O901	O90	0.240200	0.693500	0.185830
O911	O91	0.187900	0.683100	0.249120
O921	O92	0.198200	0.624200	0.080690
H1101	H110	0.127800	0.568000	0.260400
Gd191	Gd19	0.317800	0.549730	0.416650
Gd201	Gd20	0.384260	0.548190	0.292040
H1111	H111	0.290600	0.614400	0.311100
Gd211	Gd21	0.342640	0.390090	0.344140
H1121	H112	0.251300	0.446000	0.381600
H1131	H113	0.318800	0.444200	0.239200
C1711	C171	0.190900	0.598600	0.383400
C1721	C172	0.088500	0.696600	0.085200
O931	O93	0.382040	0.490600	0.372490
O941	O94	0.329100	0.464000	0.476820
O951	O95	0.229900	0.587700	0.421000
O961	O96	0.335600	0.658300	0.398200
O971	O97	0.398300	0.647500	0.342200
O981	O98	0.432600	0.466100	0.255100
O991	O99	0.348100	0.595300	0.206100
O1001	O100	0.434000	0.616900	0.238600
O1011	O101	0.331700	0.368200	0.436300
O1021	O102	0.428470	0.383500	0.312400
O1031	O103	0.326300	0.317700	0.262930
O1041	O104	0.258600	0.336700	0.308600
C1731	C173	0.144400	0.639200	0.397200
H1141	H114	0.065800	0.721200	0.058400
H1151	H115	0.413400	0.487100	0.391900
C1741	C174	0.318800	0.404300	0.472700
C1751	C175	0.380300	0.672600	0.381000
C1761	C176	0.451400	0.414000	0.278400
C1771	C177	0.104500	0.664000	0.356900
C1781	C178	0.138300	0.648900	0.451000
C1791	C179	0.290300	0.375600	0.516300
C1801	C180	0.414800	0.723000	0.413400
C1811	C181	0.503300	0.388400	0.262600
H1161	H116	0.108700	0.659100	0.319900
C1821	C182	0.058500	0.695900	0.369800
C1831	C183	0.092100	0.680300	0.463700
H1171	H117	0.165800	0.634100	0.479300
C1841	C184	0.268400	0.414800	0.552200
C1851	C185	0.286500	0.309600	0.522100
C1861	C186	0.400100	0.743400	0.462000
C1871	C187	0.463400	0.743500	0.398300
C1881	C188	0.535300	0.426800	0.235700
C1891	C189	0.519000	0.324500	0.272800
H1181	H118	0.031900	0.713200	0.341700
C1901	C190	0.051600	0.702400	0.423600
H1191	H119	0.088500	0.686600	0.500700
H1201	H120	0.269300	0.460200	0.547600
C1911	C191	0.245200	0.389900	0.594200
C1921	C192	0.262900	0.283400	0.564200
H1211	H121	0.300100	0.281800	0.497000
C1931	C193	0.435000	0.782600	0.496700
H1221	H122	0.366000	0.730400	0.471600
H1231	H123	0.472400	0.730200	0.364400
C1941	C194	0.499300	0.783400	0.431800
H1241	H124	0.524400	0.470100	0.227900
C1951	C195	0.583400	0.404400	0.219500
C1961	C196	0.566300	0.300200	0.255800
H1251	H125	0.497400	0.297200	0.291500
C1971	C197	0.999300	0.729900	0.437700
H1261	H126	0.230900	0.418000	0.618500
C1981	C198	0.242700	0.323500	0.601200
H1271	H127	0.260500	0.238000	0.567800
C1991	C199	0.421700	0.801500	0.550300
C2001	C200	0.484300	0.802700	0.481500
C2011	C201	0.551900	0.805000	0.417900
H1281	H128	0.605300	0.432500	0.201900
C2021	C202	0.599300	0.340200	0.229300
H1291	H129	0.576000	0.256400	0.262200
C2031	C203	0.969000	0.776100	0.405800
C2041	C204	0.979400	0.706400	0.483300
C2051	C205	0.223300	0.296100	0.649700
C2061	C206	0.368500	0.818200	0.557100
C2071	C207	0.464100	0.803300	0.595100
H1301	H130	0.508200	0.829900	0.505000
C2081	C208	0.557900	0.819400	0.364400
C2091	C209	0.597500	0.811700	0.459400
C2101	C210	0.651100	0.315000	0.212100
H1311	H131	0.981700	0.792200	0.374400
C2111	C211	0.919800	0.799300	0.419600
C2121	C212	0.930600	0.728700	0.497300
H1321	H132	0.999600	0.674500	0.505200
C2131	C213	0.256500	0.253700	0.683600
C2141	C214	0.171900	0.313800	0.663600
C2151	C215	0.358900	0.840800	0.607300
H1331	H133	0.339100	0.814100	0.527800
H1341	H134	0.499800	0.789100	0.591300
C2161	C216	0.453900	0.825600	0.644600
H1351	H135	0.527900	0.813400	0.335900
C2171	C217	0.607800	0.842500	0.352700
C2181	C218	0.645700	0.836100	0.446600
H1361	H136	0.594900	0.799600	0.495700
C2191	C219	0.667100	0.335700	0.163400
C2201	C220	0.684000	0.272300	0.245500
C2211	C221	0.899800	0.775600	0.464700
C2221	C222	0.890500	0.852100	0.385100
C2231	C223	0.911900	0.700500	0.546200
H1371	H137	0.291200	0.241500	0.675000
C2241	C224	0.239200	0.229200	0.730100
C2251	C225	0.154500	0.288800	0.709400
H1381	H138	0.149200	0.343200	0.641200
C2261	C226	0.401400	0.846700	0.651000
H1391	H139	0.322800	0.852300	0.611900
H1401	H140	0.482800	0.826600	0.674700
H1411	H141	0.612000	0.851900	0.316300
C2271	C227	0.650900	0.851500	0.394600
H1421	H142	0.676000	0.842200	0.474700
H1431	H143	0.644600	0.365000	0.140600
C2281	C228	0.715800	0.313500	0.148200
C2291	C229	0.733300	0.250000	0.230400
H1441	H144	0.673300	0.258100	0.278400
H1451	H145	0.866000	0.790700	0.473500
C2301	C230	0.858800	0.679700	0.545800
C2311	C231	0.950200	0.692000	0.593500
C2321	C232	0.188300	0.246200	0.742100
C2331	C233	0.276900	0.189000	0.768800
C2341	C234	0.103200	0.310300	0.727300
C2351	C235	0.393500	0.878900	0.701600
C2361	C236	0.703500	0.882800	0.384400
C2371	C237	0.747800	0.270000	0.181100
C2381	C238	0.733900	0.337500	0.097000
C2391	C239	0.770300	0.206300	0.267800
H1461	H146	0.831700	0.688100	0.515200
C2401	C240	0.844900	0.646400	0.590000
C2411	C241	0.935500	0.659800	0.637500
H1471	H147	0.986300	0.708500	0.595300
H1481	H148	0.176200	0.228400	0.773200
C2421	C242	0.090400	0.376400	0.725900
C2431	C243	0.069100	0.268700	0.749200
H1491	H149	0.780100	0.253500	0.170100
C2441	C244	0.724300	0.402200	0.080600
C2451	C245	0.762200	0.298200	0.065800
H1501	H150	0.808500	0.631200	0.588700
C2461	C246	0.883200	0.634800	0.636000
H1511	H151	0.961700	0.654700	0.669400
H1521	H152	0.112200	0.405700	0.709400
C2471	C247	0.046300	0.398900	0.748200
C2481	C248	0.023900	0.291300	0.771000
H1531	H153	0.076400	0.223800	0.749500
H1541	H154	0.704300	0.429800	0.100700
C2491	C249	0.744200	0.425600	0.034800
C2501	C250	0.780100	0.322600	0.019200
H1551	H155	0.769500	0.254700	0.076100
C2511	C251	0.870200	0.593400	0.681700
H1561	H156	0.038800	0.443800	0.747800
C2521	C252	0.012700	0.356600	0.771200
H1571	H157	0.000900	0.261800	0.785800
H1581	H158	0.739200	0.469800	0.025400
C2531	C253	0.770400	0.386600	0.003600
H1591	H159	0.799000	0.295100	0.997900
C2541	C254	0.965700	0.382800	0.795500
C2551	C255	0.792200	0.413300	0.953600
O1051	O105	0.760000	0.460300	0.932200
Gd221	Gd22	0.788150	0.965030	0.375520
O1061	O106	0.813750	0.935700	0.291200
O1071	O107	0.765460	0.050000	0.310900
O1081	O108	0.869880	0.021000	0.369590
O1091	O109	0.850900	0.880000	0.403400
O1101	O110	0.708500	0.903700	0.337200
O1111	O111	0.741600	0.888200	0.424400
O1121	O112	0.804500	0.024500	0.456700
Gd231	Gd23	0.913540	0.966880	0.304630
Gd241	Gd24	0.771770	0.005880	0.221730
H1601	H160	0.808300	0.896100	0.283500
Gd251	Gd25	0.841920	0.124230	0.334730
H1611	H161	0.734600	0.067100	0.312600
H1621	H162	0.890500	0.023500	0.400200
O1131	O113	0.856690	0.048800	0.263180
O1141	O114	0.968700	0.057600	0.308200
O1151	O115	0.905500	0.863600	0.341400
O1161	O116	0.905900	0.909600	0.223400
O1171	O117	0.701270	0.075000	0.182920
O1181	O118	0.726000	0.964800	0.135380
O1191	O119	0.682380	0.961400	0.230110
O1201	O120	0.813900	0.077100	0.163120
O1211	O121	0.827600	0.938700	0.173200
O1221	O122	0.875500	0.226200	0.381000
O1231	O123	0.917900	0.137800	0.414300
O1241	O124	0.927600	0.153300	0.301800
O1251	O125	0.759800	0.193500	0.314170
O1261	O126	0.812100	0.183100	0.250880
O1271	O127	0.801800	0.124200	0.419310
H1631	H163	0.872200	0.068000	0.239600
Gd261	Gd26	0.682200	0.049730	0.083350
Gd271	Gd27	0.615740	0.048190	0.207960
H1641	H164	0.709400	0.114400	0.188900
Gd281	Gd28	0.657360	0.890090	0.155860
H1651	H165	0.748700	0.946000	0.118400
H1661	H166	0.681200	0.944200	0.260800
C2561	C256	0.809100	0.098600	0.116600
C2571	C257	0.911500	0.196600	0.414800
O1281	O128	0.617960	0.990600	0.127510
O1291	O129	0.670900	0.964000	0.023180
O1301	O130	0.770100	0.087700	0.079000
O1311	O131	0.664400	0.158300	0.101800
O1321	O132	0.601700	0.147500	0.157800
O1331	O133	0.567400	0.966100	0.244900
O1341	O134	0.651900	0.095300	0.293900
O1351	O135	0.566000	0.116900	0.261400
O1361	O136	0.668300	0.868200	0.063700
O1371	O137	0.571530	0.883500	0.187600
O1381	O138	0.673700	0.817700	0.237070
O1391	O139	0.741400	0.836700	0.191400
C2581	C258	0.855600	0.139200	0.102800
H1671	H167	0.934200	0.221200	0.441600
H1681	H168	0.586600	0.987100	0.108100
C2591	C259	0.681200	0.904300	0.027300
C2601	C260	0.619700	0.172600	0.119000
C2611	C261	0.548600	0.914000	0.221600
C2621	C262	0.895500	0.164000	0.143100
C2631	C263	0.861700	0.148900	0.049000
C2641	C264	0.709700	0.875600	0.983700
C2651	C265	0.585200	0.223000	0.086600
C2661	C266	0.496700	0.888400	0.237400
H1691	H169	0.891300	0.159100	0.180100
C2671	C267	0.941500	0.195900	0.130200
C2681	C268	0.907900	0.180300	0.036300
H1701	H170	0.834200	0.134100	0.020700
C2691	C269	0.731600	0.914800	0.947800
C2701	C270	0.713500	0.809600	0.977900
C2711	C271	0.599900	0.243400	0.038000
C2721	C272	0.536600	0.243500	0.101700
C2731	C273	0.464700	0.926800	0.264300
C2741	C274	0.481000	0.824500	0.227200
H1711	H171	0.968100	0.213200	0.158300
C2751	C275	0.948400	0.202400	0.076400
H1721	H172	0.911500	0.186600	0.999300
H1731	H173	0.730700	0.960200	0.952400
C2761	C276	0.754800	0.889900	0.905800
C2771	C277	0.737100	0.783400	0.935800
H1741	H174	0.699900	0.781800	0.003000
C2781	C278	0.565000	0.282600	0.003300
H1751	H175	0.634000	0.230400	0.028400
H1761	H176	0.527600	0.230200	0.135600
C2791	C279	0.500700	0.283400	0.068200
H1771	H177	0.475600	0.970100	0.272100
C2801	C280	0.416600	0.904400	0.280500
C2811	C281	0.433700	0.800200	0.244200
H1781	H178	0.502600	0.797200	0.208500
C2821	C282	0.000700	0.229900	0.062300
H1791	H179	0.769100	0.918000	0.881500
C2831	C283	0.757300	0.823500	0.898800
H1801	H180	0.739500	0.738000	0.932200
C2841	C284	0.578300	0.301500	0.949700
C2851	C285	0.515700	0.302700	0.018500
C2861	C286	0.448100	0.305000	0.082100
H1811	H181	0.394700	0.932500	0.298100
C2871	C287	0.400700	0.840200	0.270700
H1821	H182	0.424000	0.756400	0.237800
C2881	C288	0.031000	0.276100	0.094200
C2891	C289	0.020600	0.206400	0.016700
C2901	C290	0.776700	0.796100	0.850300
C2911	C291	0.631500	0.318200	0.942900
C2921	C292	0.535900	0.303300	0.904900
H1831	H183	0.491800	0.329900	0.995000
C2931	C293	0.442100	0.319400	0.135600
C2941	C294	0.402500	0.311700	0.040600
C2951	C295	0.348900	0.815000	0.287900
H1841	H184	0.018300	0.292200	0.125600
C2961	C296	0.080200	0.299300	0.080400
C2971	C297	0.069400	0.228700	0.002700
H1851	H185	0.000400	0.174500	0.994800
C2981	C298	0.743500	0.753700	0.816400
C2991	C299	0.828100	0.813800	0.836400
C3001	C300	0.641100	0.340800	0.892700
H1861	H186	0.660900	0.314100	0.972200
H1871	H187	0.500200	0.289100	0.908700
C3011	C301	0.546100	0.325600	0.855400
H1881	H188	0.472100	0.313400	0.164100
C3021	C302	0.392200	0.342500	0.147300
C3031	C303	0.354300	0.336100	0.053400
H1891	H189	0.405100	0.299600	0.004300
C3041	C304	0.332900	0.835700	0.336600
C3051	C305	0.316000	0.772300	0.254500
C3061	C306	0.100200	0.275600	0.035300
C3071	C307	0.109500	0.352100	0.114900
C3081	C308	0.088100	0.200500	0.953800
H1901	H190	0.708800	0.741500	0.825000
C3091	C309	0.760800	0.729200	0.769900
C3101	C310	0.845500	0.788800	0.790600
H1911	H191	0.850800	0.843200	0.858800
C3111	C311	0.598600	0.346700	0.849000
H1921	H192	0.677200	0.352300	0.888100
H1931	H193	0.517200	0.326600	0.825300
H1941	H194	0.388000	0.351900	0.183700
C3121	C312	0.349100	0.351500	0.105400
H1951	H195	0.324000	0.342200	0.025300
H1961	H196	0.355400	0.865000	0.359400
C3131	C313	0.284200	0.813500	0.351800
C3141	C314	0.266700	0.750000	0.269600
H1971	H197	0.326700	0.758100	0.221600
H1981	H198	0.134000	0.290700	0.026500
C3151	C315	0.141200	0.179700	0.954200
C3161	C316	0.049800	0.192000	0.906500
C3171	C317	0.811700	0.746200	0.757900
C3181	C318	0.723100	0.689000	0.731200
C3191	C319	0.896800	0.810300	0.772700
C3201	C320	0.606500	0.378900	0.798400
C3211	C321	0.296500	0.382800	0.115600
C3221	C322	0.252200	0.770000	0.318900
C3231	C323	0.266100	0.837500	0.403000
C3241	C324	0.229700	0.706300	0.232200
H1991	H199	0.168300	0.188100	0.984800
C3251	C325	0.155100	0.146400	0.910000
C3261	C326	0.064500	0.159800	0.862500
H2001	H200	0.013700	0.208500	0.904700
H2011	H201	0.823800	0.728400	0.726800
C3271	C327	0.909600	0.876400	0.774100
C3281	C328	0.930900	0.768700	0.750800
H2021	H202	0.219900	0.753500	0.329900
C3291	C329	0.275700	0.902200	0.419400
C3301	C330	0.237800	0.798200	0.434200
H2031	H203	0.191500	0.131200	0.911300
C3311	C331	0.116800	0.134800	0.864000
H2041	H204	0.038300	0.154700	0.830600
H2051	H205	0.887800	0.905700	0.790600
C3321	C332	0.953700	0.898900	0.751800
C3331	C333	0.976100	0.791300	0.729000
H2061	H206	0.923600	0.723800	0.750500
H2071	H207	0.295700	0.929800	0.399300
C3341	C334	0.255800	0.925600	0.465200
C3351	C335	0.219900	0.822600	0.480800
H2081	H208	0.230500	0.754700	0.423900
C3361	C336	0.129800	0.093400	0.818300
H2091	H209	0.961200	0.943800	0.752200
C3371	C337	0.987300	0.856600	0.728800
H2101	H210	0.999100	0.761800	0.714200
H2111	H211	0.260800	0.969800	0.474600
C3381	C338	0.229600	0.886600	0.496400
H2121	H212	0.201000	0.795100	0.502100
C3391	C339	0.034300	0.882800	0.704500
C3401	C340	0.207800	0.913300	0.546400
O1401	O140	0.240000	0.960300	0.567800
