data_UMOBEF07_clean_PM
_symmetry_space_group_name_H-M	'P1'
_cell_length_a	35.818600
_cell_length_b	35.818600
_cell_length_c	15.320500
_cell_angle_alpha	90.000000
_cell_angle_beta	90.000000
_cell_angle_gamma	120.000000
_symmetry_Int_Tables_number 1

loop_
_symmetry_equiv_pos_as_xyz
'x,y,z'

loop_
_atom_site_label
_atom_site_type_symbol
_atom_site_fract_x
_atom_site_fract_y
_atom_site_fract_z
O11	O1	0.480670	0.442360	0.577670
O21	O2	0.486600	0.436160	0.433360
C11	C1	0.478610	0.421780	0.508500
C21	C2	0.464110	0.374750	0.522600
C31	C3	0.456850	0.347740	0.456600
H11	H1	0.462000	0.358600	0.398600
C41	C4	0.441960	0.304070	0.470200
H21	H2	0.438300	0.286000	0.421700
C51	C5	0.432610	0.286960	0.551300
C61	C6	0.442140	0.315030	0.620900
H31	H3	0.438100	0.304400	0.678900
C71	C7	0.457480	0.358450	0.606500
H41	H4	0.463500	0.377200	0.654800
C81	C8	0.412350	0.239850	0.569600
C91	C9	0.374170	0.220240	0.617500
H51	H5	0.361600	0.237000	0.634300
H61	H6	0.505500	0.230400	0.595000
O31	O3	0.147340	0.775690	0.911000
O41	O4	0.153270	0.769490	0.766690
C101	C10	0.145280	0.755110	0.841830
C111	C11	0.130780	0.708080	0.855930
C121	C12	0.123520	0.681070	0.789930
H71	H7	0.128670	0.691930	0.731930
C131	C13	0.108630	0.637400	0.803530
H81	H8	0.104970	0.619330	0.755030
C141	C14	0.099280	0.620290	0.884630
C151	C15	0.108810	0.648360	0.954230
H91	H9	0.104770	0.637730	0.012230
C161	C16	0.124150	0.691780	0.939830
H101	H10	0.130170	0.710530	0.988130
C171	C17	0.079020	0.573180	0.902930
C181	C18	0.040840	0.553570	0.950830
H111	H11	0.028270	0.570330	0.967630
H121	H12	0.172170	0.563730	0.928330
O51	O5	0.814000	0.109030	0.244340
O61	O6	0.819930	0.102830	0.100030
C191	C19	0.811940	0.088450	0.175170
C201	C20	0.797440	0.041420	0.189270
C211	C21	0.790180	0.014410	0.123270
H131	H13	0.795330	0.025270	0.065270
C221	C22	0.775290	0.970740	0.136870
H141	H14	0.771630	0.952670	0.088370
C231	C23	0.765940	0.953630	0.217970
C241	C24	0.775470	0.981700	0.287570
H151	H15	0.771430	0.971070	0.345570
C251	C25	0.790810	0.025120	0.273170
H161	H16	0.796830	0.043870	0.321470
C261	C26	0.745680	0.906520	0.236270
C271	C27	0.707500	0.886910	0.284170
H171	H17	0.694930	0.903670	0.300970
H181	H18	0.838830	0.897070	0.261670
O71	O7	0.557640	0.038310	0.577670
O81	O8	0.563840	0.050440	0.433360
C281	C28	0.578220	0.056830	0.508500
C291	C29	0.625250	0.089360	0.522600
C301	C30	0.652260	0.109110	0.456600
H191	H19	0.641400	0.103400	0.398600
C311	C31	0.695930	0.137890	0.470200
H201	H20	0.714000	0.152300	0.421700
C321	C32	0.713040	0.145650	0.551300
C331	C33	0.684970	0.127110	0.620900
H211	H21	0.695600	0.133700	0.678900
C341	C34	0.641550	0.099030	0.606500
H221	H22	0.622800	0.086300	0.654800
C351	C35	0.760150	0.172500	0.569600
C361	C36	0.779760	0.153930	0.617500
H231	H23	0.763000	0.124600	0.634300
H241	H24	0.769600	0.275100	0.595000
O91	O9	0.224310	0.371640	0.911000
O101	O10	0.230510	0.383770	0.766690
C371	C37	0.244890	0.390160	0.841830
C381	C38	0.291920	0.422690	0.855930
C391	C39	0.318930	0.442440	0.789930
H251	H25	0.308070	0.436730	0.731930
C401	C40	0.362600	0.471220	0.803530
H261	H26	0.380670	0.485630	0.755030
C411	C41	0.379710	0.478980	0.884630
C421	C42	0.351640	0.460440	0.954230
H271	H27	0.362270	0.467030	0.012230
C431	C43	0.308220	0.432360	0.939830
H281	H28	0.289470	0.419630	0.988130
C441	C44	0.426820	0.505830	0.902930
C451	C45	0.446430	0.487260	0.950830
H291	H29	0.429670	0.457930	0.967630
H301	H30	0.436270	0.608430	0.928330
O111	O11	0.890970	0.704980	0.244340
O121	O12	0.897170	0.717110	0.100030
C461	C46	0.911550	0.723500	0.175170
C471	C47	0.958580	0.756030	0.189270
C481	C48	0.985590	0.775780	0.123270
H311	H31	0.974730	0.770070	0.065270
C491	C49	0.029260	0.804560	0.136870
H321	H32	0.047330	0.818970	0.088370
C501	C50	0.046370	0.812320	0.217970
C511	C51	0.018300	0.793780	0.287570
H331	H33	0.028930	0.800370	0.345570
C521	C52	0.974880	0.765700	0.273170
H341	H34	0.956130	0.752970	0.321470
C531	C53	0.093480	0.839170	0.236270
C541	C54	0.113090	0.820600	0.284170
H351	H35	0.096330	0.791270	0.300970
H361	H36	0.102930	0.941770	0.261670
O131	O13	0.961690	0.519330	0.577670
O141	O14	0.949560	0.513400	0.433360
C551	C55	0.943170	0.521390	0.508500
C561	C56	0.910640	0.535890	0.522600
C571	C57	0.890890	0.543150	0.456600
H371	H37	0.896600	0.538000	0.398600
C581	C58	0.862110	0.558040	0.470200
H381	H38	0.847700	0.561700	0.421700
C591	C59	0.854350	0.567390	0.551300
C601	C60	0.872890	0.557860	0.620900
H391	H39	0.866300	0.561900	0.678900
C611	C61	0.900970	0.542520	0.606500
H401	H40	0.913700	0.536500	0.654800
C621	C62	0.827500	0.587650	0.569600
C631	C63	0.846070	0.625830	0.617500
H411	H41	0.875400	0.638400	0.634300
H421	H42	0.724900	0.494500	0.595000
O151	O15	0.628360	0.852660	0.911000
O161	O16	0.616230	0.846730	0.766690
C641	C64	0.609840	0.854720	0.841830
C651	C65	0.577310	0.869220	0.855930
C661	C66	0.557560	0.876480	0.789930
H431	H43	0.563270	0.871330	0.731930
C671	C67	0.528780	0.891370	0.803530
H441	H44	0.514370	0.895030	0.755030
C681	C68	0.521020	0.900720	0.884630
C691	C69	0.539560	0.891190	0.954230
H451	H45	0.532970	0.895230	0.012230
C701	C70	0.567640	0.875850	0.939830
H461	H46	0.580370	0.869830	0.988130
C711	C71	0.494170	0.920980	0.902930
C721	C72	0.512740	0.959160	0.950830
H471	H47	0.542070	0.971730	0.967630
H481	H48	0.391570	0.827830	0.928330
O171	O17	0.295020	0.186000	0.244340
O181	O18	0.282890	0.180070	0.100030
C731	C73	0.276500	0.188060	0.175170
C741	C74	0.243970	0.202560	0.189270
C751	C75	0.224220	0.209820	0.123270
H491	H49	0.229930	0.204670	0.065270
C761	C76	0.195440	0.224710	0.136870
H501	H50	0.181030	0.228370	0.088370
C771	C77	0.187680	0.234060	0.217970
C781	C78	0.206220	0.224530	0.287570
H511	H51	0.199630	0.228570	0.345570
C791	C79	0.234300	0.209190	0.273170
H521	H52	0.247030	0.203170	0.321470
C801	C80	0.160830	0.254320	0.236270
C811	C81	0.179400	0.292500	0.284170
H531	H53	0.208730	0.305070	0.300970
H541	H54	0.058230	0.161170	0.261670
O191	O19	0.442360	0.480670	0.422330
O201	O20	0.436160	0.486600	0.566640
C821	C82	0.421780	0.478610	0.491500
C831	C83	0.374750	0.464110	0.477400
C841	C84	0.347740	0.456850	0.543400
H551	H55	0.358600	0.462000	0.601400
C851	C85	0.304070	0.441960	0.529800
H561	H56	0.286000	0.438300	0.578300
C861	C86	0.286960	0.432610	0.448700
C871	C87	0.315030	0.442140	0.379100
H571	H57	0.304400	0.438100	0.321100
C881	C88	0.358450	0.457480	0.393500
H581	H58	0.377200	0.463500	0.345200
C891	C89	0.239850	0.412350	0.430400
C901	C90	0.220240	0.374170	0.382500
H591	H59	0.237000	0.361600	0.365700
H601	H60	0.230400	0.505500	0.405000
O211	O21	0.109030	0.814000	0.755660
O221	O22	0.102830	0.819930	0.899970
C911	C91	0.088450	0.811940	0.824830
C921	C92	0.041420	0.797440	0.810730
C931	C93	0.014410	0.790180	0.876730
H611	H61	0.025270	0.795330	0.934730
C941	C94	0.970740	0.775290	0.863130
H621	H62	0.952670	0.771630	0.911630
C951	C95	0.953630	0.765940	0.782030
C961	C96	0.981700	0.775470	0.712430
H631	H63	0.971070	0.771430	0.654430
C971	C97	0.025120	0.790810	0.726830
H641	H64	0.043870	0.796830	0.678530
C981	C98	0.906520	0.745680	0.763730
C991	C99	0.886910	0.707500	0.715830
H651	H65	0.903670	0.694930	0.699030
H661	H66	0.897070	0.838830	0.738330
O231	O23	0.775690	0.147340	0.089000
O241	O24	0.769490	0.153270	0.233310
C1001	C100	0.755110	0.145280	0.158170
C1011	C101	0.708080	0.130780	0.144070
C1021	C102	0.681070	0.123520	0.210070
H671	H67	0.691930	0.128670	0.268070
C1031	C103	0.637400	0.108630	0.196470
H681	H68	0.619330	0.104970	0.244970
C1041	C104	0.620290	0.099280	0.115370
C1051	C105	0.648360	0.108810	0.045770
H691	H69	0.637730	0.104770	0.987770
C1061	C106	0.691780	0.124150	0.060170
H701	H70	0.710530	0.130170	0.011870
C1071	C107	0.573180	0.079020	0.097070
C1081	C108	0.553570	0.040840	0.049170
H711	H71	0.570330	0.028270	0.032370
H721	H72	0.563730	0.172170	0.071670
O251	O25	0.038310	0.557640	0.422330
O261	O26	0.050440	0.563840	0.566640
C1091	C109	0.056830	0.578220	0.491500
C1101	C110	0.089360	0.625250	0.477400
C1111	C111	0.109110	0.652260	0.543400
H731	H73	0.103400	0.641400	0.601400
C1121	C112	0.137890	0.695930	0.529800
H741	H74	0.152300	0.714000	0.578300
C1131	C113	0.145650	0.713040	0.448700
C1141	C114	0.127110	0.684970	0.379100
H751	H75	0.133700	0.695600	0.321100
C1151	C115	0.099030	0.641550	0.393500
H761	H76	0.086300	0.622800	0.345200
C1161	C116	0.172500	0.760150	0.430400
C1171	C117	0.153930	0.779760	0.382500
H771	H77	0.124600	0.763000	0.365700
H781	H78	0.275100	0.769600	0.405000
O271	O27	0.704980	0.890970	0.755660
O281	O28	0.717110	0.897170	0.899970
C1181	C118	0.723500	0.911550	0.824830
C1191	C119	0.756030	0.958580	0.810730
C1201	C120	0.775780	0.985590	0.876730
H791	H79	0.770070	0.974730	0.934730
C1211	C121	0.804560	0.029260	0.863130
H801	H80	0.818970	0.047330	0.911630
C1221	C122	0.812320	0.046370	0.782030
C1231	C123	0.793780	0.018300	0.712430
H811	H81	0.800370	0.028930	0.654430
C1241	C124	0.765700	0.974880	0.726830
H821	H82	0.752970	0.956130	0.678530
C1251	C125	0.839170	0.093480	0.763730
C1261	C126	0.820600	0.113090	0.715830
H831	H83	0.791270	0.096330	0.699030
H841	H84	0.941770	0.102930	0.738330
O291	O29	0.371640	0.224310	0.089000
O301	O30	0.383770	0.230510	0.233310
C1271	C127	0.390160	0.244890	0.158170
C1281	C128	0.422690	0.291920	0.144070
C1291	C129	0.442440	0.318930	0.210070
H851	H85	0.436730	0.308070	0.268070
C1301	C130	0.471220	0.362600	0.196470
H861	H86	0.485630	0.380670	0.244970
C1311	C131	0.478980	0.379710	0.115370
C1321	C132	0.460440	0.351640	0.045770
H871	H87	0.467030	0.362270	0.987770
C1331	C133	0.432360	0.308220	0.060170
H881	H88	0.419630	0.289470	0.011870
C1341	C134	0.505830	0.426820	0.097070
C1351	C135	0.487260	0.446430	0.049170
H891	H89	0.457930	0.429670	0.032370
H901	H90	0.608430	0.436270	0.071670
O311	O31	0.519330	0.961690	0.422330
O321	O32	0.513400	0.949560	0.566640
C1361	C136	0.521390	0.943170	0.491500
C1371	C137	0.535890	0.910640	0.477400
C1381	C138	0.543150	0.890890	0.543400
H911	H91	0.538000	0.896600	0.601400
C1391	C139	0.558040	0.862110	0.529800
H921	H92	0.561700	0.847700	0.578300
C1401	C140	0.567390	0.854350	0.448700
C1411	C141	0.557860	0.872890	0.379100
H931	H93	0.561900	0.866300	0.321100
C1421	C142	0.542520	0.900970	0.393500
H941	H94	0.536500	0.913700	0.345200
C1431	C143	0.587650	0.827500	0.430400
C1441	C144	0.625830	0.846070	0.382500
H951	H95	0.638400	0.875400	0.365700
H961	H96	0.494500	0.724900	0.405000
O331	O33	0.186000	0.295020	0.755660
O341	O34	0.180070	0.282890	0.899970
C1451	C145	0.188060	0.276500	0.824830
C1461	C146	0.202560	0.243970	0.810730
C1471	C147	0.209820	0.224220	0.876730
H971	H97	0.204670	0.229930	0.934730
C1481	C148	0.224710	0.195440	0.863130
H981	H98	0.228370	0.181030	0.911630
C1491	C149	0.234060	0.187680	0.782030
C1501	C150	0.224530	0.206220	0.712430
H991	H99	0.228570	0.199630	0.654430
C1511	C151	0.209190	0.234300	0.726830
H1001	H100	0.203170	0.247030	0.678530
C1521	C152	0.254320	0.160830	0.763730
C1531	C153	0.292500	0.179400	0.715830
H1011	H101	0.305070	0.208730	0.699030
H1021	H102	0.161170	0.058230	0.738330
O351	O35	0.852660	0.628360	0.089000
O361	O36	0.846730	0.616230	0.233310
C1541	C154	0.854720	0.609840	0.158170
C1551	C155	0.869220	0.577310	0.144070
C1561	C156	0.876480	0.557560	0.210070
H1031	H103	0.871330	0.563270	0.268070
C1571	C157	0.891370	0.528780	0.196470
H1041	H104	0.895030	0.514370	0.244970
C1581	C158	0.900720	0.521020	0.115370
C1591	C159	0.891190	0.539560	0.045770
H1051	H105	0.895230	0.532970	0.987770
C1601	C160	0.875850	0.567640	0.060170
H1061	H106	0.869830	0.580370	0.011870
C1611	C161	0.920980	0.494170	0.097070
C1621	C162	0.959160	0.512740	0.049170
H1071	H107	0.971730	0.542070	0.032370
H1081	H108	0.827830	0.391570	0.071670
O371	O37	0.519330	0.557640	0.422330
O381	O38	0.513400	0.563840	0.566640
C1631	C163	0.521390	0.578220	0.491500
C1641	C164	0.535890	0.625250	0.477400
C1651	C165	0.543150	0.652260	0.543400
H1091	H109	0.538000	0.641400	0.601400
C1661	C166	0.558040	0.695930	0.529800
H1101	H110	0.561700	0.714000	0.578300
C1671	C167	0.567390	0.713040	0.448700
C1681	C168	0.557860	0.684970	0.379100
H1111	H111	0.561900	0.695600	0.321100
C1691	C169	0.542520	0.641550	0.393500
H1121	H112	0.536500	0.622800	0.345200
C1701	C170	0.587650	0.760150	0.430400
C1711	C171	0.625830	0.779760	0.382500
H1131	H113	0.638400	0.763000	0.365700
H1141	H114	0.494500	0.769600	0.405000
O391	O39	0.186000	0.890970	0.755660
O401	O40	0.180070	0.897170	0.899970
C1721	C172	0.188060	0.911550	0.824830
C1731	C173	0.202560	0.958580	0.810730
C1741	C174	0.209820	0.985590	0.876730
H1151	H115	0.204670	0.974730	0.934730
C1751	C175	0.224710	0.029260	0.863130
H1161	H116	0.228370	0.047330	0.911630
C1761	C176	0.234060	0.046370	0.782030
C1771	C177	0.224530	0.018300	0.712430
H1171	H117	0.228570	0.028930	0.654430
C1781	C178	0.209190	0.974880	0.726830
H1181	H118	0.203170	0.956130	0.678530
C1791	C179	0.254320	0.093480	0.763730
C1801	C180	0.292500	0.113090	0.715830
H1191	H119	0.305070	0.096330	0.699030
H1201	H120	0.161170	0.102930	0.738330
O411	O41	0.852660	0.224310	0.089000
O421	O42	0.846730	0.230510	0.233310
C1811	C181	0.854720	0.244890	0.158170
C1821	C182	0.869220	0.291920	0.144070
C1831	C183	0.876480	0.318930	0.210070
H1211	H121	0.871330	0.308070	0.268070
C1841	C184	0.891370	0.362600	0.196470
H1221	H122	0.895030	0.380670	0.244970
C1851	C185	0.900720	0.379710	0.115370
C1861	C186	0.891190	0.351640	0.045770
H1231	H123	0.895230	0.362270	0.987770
C1871	C187	0.875850	0.308220	0.060170
H1241	H124	0.869830	0.289470	0.011870
C1881	C188	0.920980	0.426820	0.097070
C1891	C189	0.959160	0.446430	0.049170
H1251	H125	0.971730	0.429670	0.032370
H1261	H126	0.827830	0.436270	0.071670
O431	O43	0.442360	0.961690	0.422330
O441	O44	0.436160	0.949560	0.566640
C1901	C190	0.421780	0.943170	0.491500
C1911	C191	0.374750	0.910640	0.477400
C1921	C192	0.347740	0.890890	0.543400
H1271	H127	0.358600	0.896600	0.601400
C1931	C193	0.304070	0.862110	0.529800
H1281	H128	0.286000	0.847700	0.578300
C1941	C194	0.286960	0.854350	0.448700
C1951	C195	0.315030	0.872890	0.379100
H1291	H129	0.304400	0.866300	0.321100
C1961	C196	0.358450	0.900970	0.393500
H1301	H130	0.377200	0.913700	0.345200
C1971	C197	0.239850	0.827500	0.430400
C1981	C198	0.220240	0.846070	0.382500
H1311	H131	0.237000	0.875400	0.365700
H1321	H132	0.230400	0.724900	0.405000
O451	O45	0.109030	0.295020	0.755660
O461	O46	0.102830	0.282890	0.899970
C1991	C199	0.088450	0.276500	0.824830
C2001	C200	0.041420	0.243970	0.810730
C2011	C201	0.014410	0.224220	0.876730
H1331	H133	0.025270	0.229930	0.934730
C2021	C202	0.970740	0.195440	0.863130
H1341	H134	0.952670	0.181030	0.911630
C2031	C203	0.953630	0.187680	0.782030
C2041	C204	0.981700	0.206220	0.712430
H1351	H135	0.971070	0.199630	0.654430
C2051	C205	0.025120	0.234300	0.726830
H1361	H136	0.043870	0.247030	0.678530
C2061	C206	0.906520	0.160830	0.763730
C2071	C207	0.886910	0.179400	0.715830
H1371	H137	0.903670	0.208730	0.699030
H1381	H138	0.897070	0.058230	0.738330
O471	O47	0.775690	0.628360	0.089000
O481	O48	0.769490	0.616230	0.233310
C2081	C208	0.755110	0.609840	0.158170
C2091	C209	0.708080	0.577310	0.144070
C2101	C210	0.681070	0.557560	0.210070
H1391	H139	0.691930	0.563270	0.268070
C2111	C211	0.637400	0.528780	0.196470
H1401	H140	0.619330	0.514370	0.244970
C2121	C212	0.620290	0.521020	0.115370
C2131	C213	0.648360	0.539560	0.045770
H1411	H141	0.637730	0.532970	0.987770
C2141	C214	0.691780	0.567640	0.060170
H1421	H142	0.710530	0.580370	0.011870
C2151	C215	0.573180	0.494170	0.097070
C2161	C216	0.553570	0.512740	0.049170
H1431	H143	0.570330	0.542070	0.032370
H1441	H144	0.563730	0.391570	0.071670
O491	O49	0.038310	0.480670	0.422330
O501	O50	0.050440	0.486600	0.566640
C2171	C217	0.056830	0.478610	0.491500
C2181	C218	0.089360	0.464110	0.477400
C2191	C219	0.109110	0.456850	0.543400
H1451	H145	0.103400	0.462000	0.601400
C2201	C220	0.137890	0.441960	0.529800
H1461	H146	0.152300	0.438300	0.578300
C2211	C221	0.145650	0.432610	0.448700
C2221	C222	0.127110	0.442140	0.379100
H1471	H147	0.133700	0.438100	0.321100
C2231	C223	0.099030	0.457480	0.393500
H1481	H148	0.086300	0.463500	0.345200
C2241	C224	0.172500	0.412350	0.430400
C2251	C225	0.153930	0.374170	0.382500
H1491	H149	0.124600	0.361600	0.365700
H1501	H150	0.275100	0.505500	0.405000
O511	O51	0.704980	0.814000	0.755660
O521	O52	0.717110	0.819930	0.899970
C2261	C226	0.723500	0.811940	0.824830
C2271	C227	0.756030	0.797440	0.810730
C2281	C228	0.775780	0.790180	0.876730
H1511	H151	0.770070	0.795330	0.934730
C2291	C229	0.804560	0.775290	0.863130
H1521	H152	0.818970	0.771630	0.911630
C2301	C230	0.812320	0.765940	0.782030
C2311	C231	0.793780	0.775470	0.712430
H1531	H153	0.800370	0.771430	0.654430
C2321	C232	0.765700	0.790810	0.726830
H1541	H154	0.752970	0.796830	0.678530
C2331	C233	0.839170	0.745680	0.763730
C2341	C234	0.820600	0.707500	0.715830
H1551	H155	0.791270	0.694930	0.699030
H1561	H156	0.941770	0.838830	0.738330
O531	O53	0.371640	0.147340	0.089000
O541	O54	0.383770	0.153270	0.233310
C2351	C235	0.390160	0.145280	0.158170
C2361	C236	0.422690	0.130780	0.144070
C2371	C237	0.442440	0.123520	0.210070
H1571	H157	0.436730	0.128670	0.268070
C2381	C238	0.471220	0.108630	0.196470
H1581	H158	0.485630	0.104970	0.244970
C2391	C239	0.478980	0.099280	0.115370
C2401	C240	0.460440	0.108810	0.045770
H1591	H159	0.467030	0.104770	0.987770
C2411	C241	0.432360	0.124150	0.060170
H1601	H160	0.419630	0.130170	0.011870
C2421	C242	0.505830	0.079020	0.097070
C2431	C243	0.487260	0.040840	0.049170
H1611	H161	0.457930	0.028270	0.032370
H1621	H162	0.608430	0.172170	0.071670
O551	O55	0.557640	0.519330	0.577670
O561	O56	0.563840	0.513400	0.433360
C2441	C244	0.578220	0.521390	0.508500
C2451	C245	0.625250	0.535890	0.522600
C2461	C246	0.652260	0.543150	0.456600
H1631	H163	0.641400	0.538000	0.398600
C2471	C247	0.695930	0.558040	0.470200
H1641	H164	0.714000	0.561700	0.421700
C2481	C248	0.713040	0.567390	0.551300
C2491	C249	0.684970	0.557860	0.620900
H1651	H165	0.695600	0.561900	0.678900
C2501	C250	0.641550	0.542520	0.606500
H1661	H166	0.622800	0.536500	0.654800
C2511	C251	0.760150	0.587650	0.569600
C2521	C252	0.779760	0.625830	0.617500
H1671	H167	0.763000	0.638400	0.634300
H1681	H168	0.769600	0.494500	0.595000
O571	O57	0.224310	0.852660	0.911000
O581	O58	0.230510	0.846730	0.766690
C2531	C253	0.244890	0.854720	0.841830
C2541	C254	0.291920	0.869220	0.855930
C2551	C255	0.318930	0.876480	0.789930
H1691	H169	0.308070	0.871330	0.731930
C2561	C256	0.362600	0.891370	0.803530
H1701	H170	0.380670	0.895030	0.755030
C2571	C257	0.379710	0.900720	0.884630
C2581	C258	0.351640	0.891190	0.954230
H1711	H171	0.362270	0.895230	0.012230
C2591	C259	0.308220	0.875850	0.939830
H1721	H172	0.289470	0.869830	0.988130
C2601	C260	0.426820	0.920980	0.902930
C2611	C261	0.446430	0.959160	0.950830
H1731	H173	0.429670	0.971730	0.967630
H1741	H174	0.436270	0.827830	0.928330
O591	O59	0.890970	0.186000	0.244340
O601	O60	0.897170	0.180070	0.100030
C2621	C262	0.911550	0.188060	0.175170
C2631	C263	0.958580	0.202560	0.189270
C2641	C264	0.985590	0.209820	0.123270
H1751	H175	0.974730	0.204670	0.065270
C2651	C265	0.029260	0.224710	0.136870
H1761	H176	0.047330	0.228370	0.088370
C2661	C266	0.046370	0.234060	0.217970
C2671	C267	0.018300	0.224530	0.287570
H1771	H177	0.028930	0.228570	0.345570
C2681	C268	0.974880	0.209190	0.273170
H1781	H178	0.956130	0.203170	0.321470
C2691	C269	0.093480	0.254320	0.236270
C2701	C270	0.113090	0.292500	0.284170
H1791	H179	0.096330	0.305070	0.300970
H1801	H180	0.102930	0.161170	0.261670
O611	O61	0.961690	0.442360	0.577670
O621	O62	0.949560	0.436160	0.433360
C2711	C271	0.943170	0.421780	0.508500
C2721	C272	0.910640	0.374750	0.522600
C2731	C273	0.890890	0.347740	0.456600
H1811	H181	0.896600	0.358600	0.398600
C2741	C274	0.862110	0.304070	0.470200
H1821	H182	0.847700	0.286000	0.421700
C2751	C275	0.854350	0.286960	0.551300
C2761	C276	0.872890	0.315030	0.620900
H1831	H183	0.866300	0.304400	0.678900
C2771	C277	0.900970	0.358450	0.606500
H1841	H184	0.913700	0.377200	0.654800
C2781	C278	0.827500	0.239850	0.569600
C2791	C279	0.846070	0.220240	0.617500
H1851	H185	0.875400	0.237000	0.634300
H1861	H186	0.724900	0.230400	0.595000
O631	O63	0.628360	0.775690	0.911000
O641	O64	0.616230	0.769490	0.766690
C2801	C280	0.609840	0.755110	0.841830
C2811	C281	0.577310	0.708080	0.855930
C2821	C282	0.557560	0.681070	0.789930
H1871	H187	0.563270	0.691930	0.731930
C2831	C283	0.528780	0.637400	0.803530
H1881	H188	0.514370	0.619330	0.755030
C2841	C284	0.521020	0.620290	0.884630
C2851	C285	0.539560	0.648360	0.954230
H1891	H189	0.532970	0.637730	0.012230
C2861	C286	0.567640	0.691780	0.939830
H1901	H190	0.580370	0.710530	0.988130
C2871	C287	0.494170	0.573180	0.902930
C2881	C288	0.512740	0.553570	0.950830
H1911	H191	0.542070	0.570330	0.967630
H1921	H192	0.391570	0.563730	0.928330
O651	O65	0.295020	0.109030	0.244340
O661	O66	0.282890	0.102830	0.100030
C2891	C289	0.276500	0.088450	0.175170
C2901	C290	0.243970	0.041420	0.189270
C2911	C291	0.224220	0.014410	0.123270
H1931	H193	0.229930	0.025270	0.065270
C2921	C292	0.195440	0.970740	0.136870
H1941	H194	0.181030	0.952670	0.088370
C2931	C293	0.187680	0.953630	0.217970
C2941	C294	0.206220	0.981700	0.287570
H1951	H195	0.199630	0.971070	0.345570
C2951	C295	0.234300	0.025120	0.273170
H1961	H196	0.247030	0.043870	0.321470
C2961	C296	0.160830	0.906520	0.236270
C2971	C297	0.179400	0.886910	0.284170
H1971	H197	0.208730	0.903670	0.300970
H1981	H198	0.058230	0.897070	0.261670
O671	O67	0.480670	0.038310	0.577670
O681	O68	0.486600	0.050440	0.433360
C2981	C298	0.478610	0.056830	0.508500
C2991	C299	0.464110	0.089360	0.522600
C3001	C300	0.456850	0.109110	0.456600
H1991	H199	0.462000	0.103400	0.398600
C3011	C301	0.441960	0.137890	0.470200
H2001	H200	0.438300	0.152300	0.421700
C3021	C302	0.432610	0.145650	0.551300
C3031	C303	0.442140	0.127110	0.620900
H2011	H201	0.438100	0.133700	0.678900
C3041	C304	0.457480	0.099030	0.606500
H2021	H202	0.463500	0.086300	0.654800
C3051	C305	0.412350	0.172500	0.569600
C3061	C306	0.374170	0.153930	0.617500
H2031	H203	0.361600	0.124600	0.634300
H2041	H204	0.505500	0.275100	0.595000
O691	O69	0.147340	0.371640	0.911000
O701	O70	0.153270	0.383770	0.766690
C3071	C307	0.145280	0.390160	0.841830
C3081	C308	0.130780	0.422690	0.855930
C3091	C309	0.123520	0.442440	0.789930
H2051	H205	0.128670	0.436730	0.731930
C3101	C310	0.108630	0.471220	0.803530
H2061	H206	0.104970	0.485630	0.755030
C3111	C311	0.099280	0.478980	0.884630
C3121	C312	0.108810	0.460440	0.954230
H2071	H207	0.104770	0.467030	0.012230
C3131	C313	0.124150	0.432360	0.939830
H2081	H208	0.130170	0.419630	0.988130
C3141	C314	0.079020	0.505830	0.902930
C3151	C315	0.040840	0.487260	0.950830
H2091	H209	0.028270	0.457930	0.967630
H2101	H210	0.172170	0.608430	0.928330
O711	O71	0.814000	0.704980	0.244340
O721	O72	0.819930	0.717110	0.100030
C3161	C316	0.811940	0.723500	0.175170
C3171	C317	0.797440	0.756030	0.189270
C3181	C318	0.790180	0.775780	0.123270
H2111	H211	0.795330	0.770070	0.065270
C3191	C319	0.775290	0.804560	0.136870
H2121	H212	0.771630	0.818970	0.088370
C3201	C320	0.765940	0.812320	0.217970
C3211	C321	0.775470	0.793780	0.287570
H2131	H213	0.771430	0.800370	0.345570
C3221	C322	0.790810	0.765700	0.273170
H2141	H214	0.796830	0.752970	0.321470
C3231	C323	0.745680	0.839170	0.236270
C3241	C324	0.707500	0.820600	0.284170
H2151	H215	0.694930	0.791270	0.300970
H2161	H216	0.838830	0.941770	0.261670
Cu11	Cu1	0.496610	0.503390	0.585220
Cu21	Cu2	0.163280	0.836720	0.918550
Cu31	Cu3	0.829940	0.170060	0.251890
Cu41	Cu4	0.496610	0.993220	0.585220
Cu51	Cu5	0.163280	0.326550	0.918550
Cu61	Cu6	0.829940	0.659890	0.251890
Cu71	Cu7	0.006780	0.503390	0.585220
Cu81	Cu8	0.673450	0.836720	0.918550
Cu91	Cu9	0.340110	0.170060	0.251890
Cu101	Cu10	0.503390	0.496610	0.414780
Cu111	Cu11	0.170060	0.829940	0.748110
Cu121	Cu12	0.836720	0.163280	0.081450
Cu131	Cu13	0.993220	0.496610	0.414780
Cu141	Cu14	0.659890	0.829940	0.748110
Cu151	Cu15	0.326550	0.163280	0.081450
Cu161	Cu16	0.503390	0.006780	0.414780
Cu171	Cu17	0.170060	0.340110	0.748110
Cu181	Cu18	0.836720	0.673450	0.081450
O731	O73	0.469230	0.234610	0.499200
C3251	C325	0.353670	0.176830	0.641900
C3261	C326	0.430640	0.215320	0.545000
C3271	C327	0.506400	0.253200	0.558100
H2171	H217	0.533000	0.266500	0.523800
O741	O74	0.135900	0.567950	0.832530
C3281	C328	0.020340	0.510170	0.975230
C3291	C329	0.097310	0.548650	0.878330
C3301	C330	0.173070	0.586530	0.891430
H2181	H218	0.199670	0.599830	0.857130
O751	O75	0.802560	0.901280	0.165870
C3311	C331	0.687000	0.843500	0.308570
C3321	C332	0.763970	0.881990	0.211670
C3331	C333	0.839730	0.919870	0.224770
H2191	H219	0.866330	0.933170	0.190470
O761	O76	0.765390	0.234610	0.499200
C3341	C334	0.823170	0.176830	0.641900
C3351	C335	0.784680	0.215320	0.545000
C3361	C336	0.746800	0.253200	0.558100
H2201	H220	0.733500	0.266500	0.523800
O771	O77	0.432050	0.567950	0.832530
C3371	C337	0.489830	0.510170	0.975230
C3381	C338	0.451350	0.548650	0.878330
C3391	C339	0.413470	0.586530	0.891430
H2211	H221	0.400170	0.599830	0.857130
O781	O78	0.098720	0.901280	0.165870
C3401	C340	0.156500	0.843500	0.308570
C3411	C341	0.118010	0.881990	0.211670
C3421	C342	0.080130	0.919870	0.224770
H2221	H222	0.066830	0.933170	0.190470
O791	O79	0.765390	0.530770	0.499200
C3431	C343	0.823170	0.646330	0.641900
C3441	C344	0.784680	0.569360	0.545000
C3451	C345	0.746800	0.493600	0.558100
H2231	H223	0.733500	0.467000	0.523800
O801	O80	0.432050	0.864100	0.832530
C3461	C346	0.489830	0.979660	0.975230
C3471	C347	0.451350	0.902690	0.878330
C3481	C348	0.413470	0.826930	0.891430
H2241	H224	0.400170	0.800330	0.857130
O811	O81	0.098720	0.197440	0.165870
C3491	C349	0.156500	0.313000	0.308570
C3501	C350	0.118010	0.236030	0.211670
C3511	C351	0.080130	0.160270	0.224770
H2251	H225	0.066830	0.133670	0.190470
O821	O82	0.234610	0.469230	0.500800
C3521	C352	0.176830	0.353670	0.358100
C3531	C353	0.215320	0.430640	0.455000
C3541	C354	0.253200	0.506400	0.441900
H2261	H226	0.266500	0.533000	0.476200
O831	O83	0.901280	0.802560	0.834130
C3551	C355	0.843500	0.687000	0.691430
C3561	C356	0.881990	0.763970	0.788330
C3571	C357	0.919870	0.839730	0.775230
H2271	H227	0.933170	0.866330	0.809530
O841	O84	0.567950	0.135900	0.167470
C3581	C358	0.510170	0.020340	0.024770
C3591	C359	0.548650	0.097310	0.121670
C3601	C360	0.586530	0.173070	0.108570
H2281	H228	0.599830	0.199670	0.142870
O851	O85	0.234610	0.765390	0.500800
C3611	C361	0.176830	0.823170	0.358100
C3621	C362	0.215320	0.784680	0.455000
C3631	C363	0.253200	0.746800	0.441900
H2291	H229	0.266500	0.733500	0.476200
O861	O86	0.901280	0.098720	0.834130
C3641	C364	0.843500	0.156500	0.691430
C3651	C365	0.881990	0.118010	0.788330
C3661	C366	0.919870	0.080130	0.775230
H2301	H230	0.933170	0.066830	0.809530
O871	O87	0.567950	0.432050	0.167470
C3671	C367	0.510170	0.489830	0.024770
C3681	C368	0.548650	0.451350	0.121670
C3691	C369	0.586530	0.413470	0.108570
H2311	H231	0.599830	0.400170	0.142870
O881	O88	0.530770	0.765390	0.500800
C3701	C370	0.646330	0.823170	0.358100
C3711	C371	0.569360	0.784680	0.455000
C3721	C372	0.493600	0.746800	0.441900
H2321	H232	0.467000	0.733500	0.476200
O891	O89	0.197440	0.098720	0.834130
C3731	C373	0.313000	0.156500	0.691430
C3741	C374	0.236030	0.118010	0.788330
C3751	C375	0.160270	0.080130	0.775230
H2331	H233	0.133670	0.066830	0.809530
O901	O90	0.864100	0.432050	0.167470
C3761	C376	0.979660	0.489830	0.024770
C3771	C377	0.902690	0.451350	0.121670
C3781	C378	0.826930	0.413470	0.108570
H2341	H234	0.800330	0.400170	0.142870
