data_UMOBEF08_clean_PM
_symmetry_space_group_name_H-M	'P1'
_cell_length_a	35.833200
_cell_length_b	35.833200
_cell_length_c	15.214200
_cell_angle_alpha	90.000000
_cell_angle_beta	90.000000
_cell_angle_gamma	120.000000
_symmetry_Int_Tables_number 1

loop_
_symmetry_equiv_pos_as_xyz
'x,y,z'

loop_
_atom_site_label
_atom_site_type_symbol
_atom_site_fract_x
_atom_site_fract_y
_atom_site_fract_z
O11	O1	0.557580	0.038180	0.578120
O21	O2	0.563650	0.050460	0.432800
C11	C1	0.578370	0.057190	0.508400
C21	C2	0.625170	0.089280	0.522400
C31	C3	0.652270	0.109160	0.455800
H11	H1	0.641600	0.103400	0.397300
C41	C4	0.695800	0.138110	0.470000
H21	H2	0.713800	0.152700	0.421200
C51	C5	0.712970	0.145860	0.551000
C61	C6	0.684980	0.127180	0.621100
H31	H3	0.695800	0.133800	0.679400
C71	C7	0.641550	0.099080	0.607500
H41	H4	0.622900	0.086400	0.656400
C81	C8	0.759910	0.172520	0.569100
C91	C9	0.779860	0.153950	0.617300
H51	H5	0.763300	0.124500	0.633500
H61	H6	0.769900	0.274700	0.599700
O31	O3	0.224250	0.371510	0.911450
O41	O4	0.230320	0.383790	0.766130
C101	C10	0.245040	0.390520	0.841730
C111	C11	0.291840	0.422610	0.855730
C121	C12	0.318940	0.442490	0.789130
H71	H7	0.308270	0.436730	0.730630
C131	C13	0.362470	0.471440	0.803330
H81	H8	0.380470	0.486030	0.754530
C141	C14	0.379640	0.479190	0.884330
C151	C15	0.351650	0.460510	0.954430
H91	H9	0.362470	0.467130	0.012730
C161	C16	0.308220	0.432410	0.940830
H101	H10	0.289570	0.419730	0.989730
C171	C17	0.426580	0.505850	0.902430
C181	C18	0.446530	0.487280	0.950630
H111	H11	0.429970	0.457830	0.966830
H121	H12	0.436570	0.608030	0.933030
O51	O5	0.890910	0.704850	0.244790
O61	O6	0.896980	0.717130	0.099470
C191	C19	0.911700	0.723860	0.175070
C201	C20	0.958500	0.755950	0.189070
C211	C21	0.985600	0.775830	0.122470
H131	H13	0.974930	0.770070	0.063970
C221	C22	0.029130	0.804780	0.136670
H141	H14	0.047130	0.819370	0.087870
C231	C23	0.046300	0.812530	0.217670
C241	C24	0.018310	0.793850	0.287770
H151	H15	0.029130	0.800470	0.346070
C251	C25	0.974880	0.765750	0.274170
H161	H16	0.956230	0.753070	0.323070
C261	C26	0.093240	0.839190	0.235770
C271	C27	0.113190	0.820620	0.283970
H171	H17	0.096630	0.791170	0.300170
H181	H18	0.103230	0.941370	0.266370
O71	O7	0.961820	0.519400	0.578120
O81	O8	0.949540	0.513190	0.432800
C281	C28	0.942810	0.521180	0.508400
C291	C29	0.910720	0.535890	0.522400
C301	C30	0.890840	0.543110	0.455800
H191	H19	0.896600	0.538200	0.397300
C311	C31	0.861890	0.557690	0.470000
H201	H20	0.847300	0.561100	0.421200
C321	C32	0.854140	0.567110	0.551000
C331	C33	0.872820	0.557800	0.621100
H211	H21	0.866200	0.562000	0.679400
C341	C34	0.900920	0.542470	0.607500
H221	H22	0.913600	0.536500	0.656400
C351	C35	0.827480	0.587390	0.569100
C361	C36	0.846050	0.625910	0.617300
H231	H23	0.875500	0.638800	0.633500
H241	H24	0.725300	0.495200	0.599700
O91	O9	0.628490	0.852730	0.911450
O101	O10	0.616210	0.846520	0.766130
C371	C37	0.609480	0.854510	0.841730
C381	C38	0.577390	0.869220	0.855730
C391	C39	0.557510	0.876440	0.789130
H251	H25	0.563270	0.871530	0.730630
C401	C40	0.528560	0.891020	0.803330
H261	H26	0.513970	0.894430	0.754530
C411	C41	0.520810	0.900440	0.884330
C421	C42	0.539490	0.891130	0.954430
H271	H27	0.532870	0.895330	0.012730
C431	C43	0.567590	0.875800	0.940830
H281	H28	0.580270	0.869830	0.989730
C441	C44	0.494150	0.920720	0.902430
C451	C45	0.512720	0.959240	0.950630
H291	H29	0.542170	0.972130	0.966830
H301	H30	0.391970	0.828530	0.933030
O111	O11	0.295150	0.186070	0.244790
O121	O12	0.282870	0.179860	0.099470
C461	C46	0.276140	0.187850	0.175070
C471	C47	0.244050	0.202560	0.189070
C481	C48	0.224170	0.209780	0.122470
H311	H31	0.229930	0.204870	0.063970
C491	C49	0.195220	0.224360	0.136670
H321	H32	0.180630	0.227770	0.087870
C501	C50	0.187470	0.233780	0.217670
C511	C51	0.206150	0.224470	0.287770
H331	H33	0.199530	0.228670	0.346070
C521	C52	0.234250	0.209140	0.274170
H341	H34	0.246930	0.203170	0.323070
C531	C53	0.160810	0.254060	0.235770
C541	C54	0.179380	0.292580	0.283970
H351	H35	0.208830	0.305470	0.300170
H361	H36	0.058630	0.161870	0.266370
O131	O13	0.480600	0.442420	0.578120
O141	O14	0.486810	0.436350	0.432800
C551	C55	0.478820	0.421630	0.508400
C561	C56	0.464110	0.374830	0.522400
C571	C57	0.456890	0.347730	0.455800
H371	H37	0.461800	0.358400	0.397300
C581	C58	0.442310	0.304200	0.470000
H381	H38	0.438900	0.286200	0.421200
C591	C59	0.432890	0.287030	0.551000
C601	C60	0.442200	0.315020	0.621100
H391	H39	0.438000	0.304200	0.679400
C611	C61	0.457530	0.358450	0.607500
H401	H40	0.463500	0.377100	0.656400
C621	C62	0.412610	0.240090	0.569100
C631	C63	0.374090	0.220140	0.617300
H411	H41	0.361200	0.236700	0.633500
H421	H42	0.504800	0.230100	0.599700
O151	O15	0.147270	0.775750	0.911450
O161	O16	0.153480	0.769680	0.766130
C641	C64	0.145490	0.754960	0.841730
C651	C65	0.130780	0.708160	0.855730
C661	C66	0.123560	0.681060	0.789130
H431	H43	0.128470	0.691730	0.730630
C671	C67	0.108980	0.637530	0.803330
H441	H44	0.105570	0.619530	0.754530
C681	C68	0.099560	0.620360	0.884330
C691	C69	0.108870	0.648350	0.954430
H451	H45	0.104670	0.637530	0.012730
C701	C70	0.124200	0.691780	0.940830
H461	H46	0.130170	0.710430	0.989730
C711	C71	0.079280	0.573420	0.902430
C721	C72	0.040760	0.553470	0.950630
H471	H47	0.027870	0.570030	0.966830
H481	H48	0.171470	0.563430	0.933030
O171	O17	0.813930	0.109090	0.244790
O181	O18	0.820140	0.103020	0.099470
C731	C73	0.812150	0.088300	0.175070
C741	C74	0.797440	0.041500	0.189070
C751	C75	0.790220	0.014400	0.122470
H491	H49	0.795130	0.025070	0.063970
C761	C76	0.775640	0.970870	0.136670
H501	H50	0.772230	0.952870	0.087870
C771	C77	0.766220	0.953700	0.217670
C781	C78	0.775530	0.981690	0.287770
H511	H51	0.771330	0.970870	0.346070
C791	C79	0.790860	0.025120	0.274170
H521	H52	0.796830	0.043770	0.323070
C801	C80	0.745940	0.906760	0.235770
C811	C81	0.707420	0.886810	0.283970
H531	H53	0.694530	0.903370	0.300170
H541	H54	0.838130	0.896770	0.266370
O191	O19	0.038180	0.557580	0.421880
O201	O20	0.050460	0.563650	0.567200
C821	C82	0.057190	0.578370	0.491600
C831	C83	0.089280	0.625170	0.477600
C841	C84	0.109160	0.652270	0.544200
H551	H55	0.103400	0.641600	0.602700
C851	C85	0.138110	0.695800	0.530000
H561	H56	0.152700	0.713800	0.578800
C861	C86	0.145860	0.712970	0.449000
C871	C87	0.127180	0.684980	0.378900
H571	H57	0.133800	0.695800	0.320600
C881	C88	0.099080	0.641550	0.392500
H581	H58	0.086400	0.622900	0.343600
C891	C89	0.172520	0.759910	0.430900
C901	C90	0.153950	0.779860	0.382700
H591	H59	0.124500	0.763300	0.366500
H601	H60	0.274700	0.769900	0.400300
O211	O21	0.704850	0.890910	0.755210
O221	O22	0.717130	0.896980	0.900530
C911	C91	0.723860	0.911700	0.824930
C921	C92	0.755950	0.958500	0.810930
C931	C93	0.775830	0.985600	0.877530
H611	H61	0.770070	0.974930	0.936030
C941	C94	0.804780	0.029130	0.863330
H621	H62	0.819370	0.047130	0.912130
C951	C95	0.812530	0.046300	0.782330
C961	C96	0.793850	0.018310	0.712230
H631	H63	0.800470	0.029130	0.653930
C971	C97	0.765750	0.974880	0.725830
H641	H64	0.753070	0.956230	0.676930
C981	C98	0.839190	0.093240	0.764230
C991	C99	0.820620	0.113190	0.716030
H651	H65	0.791170	0.096630	0.699830
H661	H66	0.941370	0.103230	0.733630
O231	O23	0.371510	0.224250	0.088550
O241	O24	0.383790	0.230320	0.233870
C1001	C100	0.390520	0.245040	0.158270
C1011	C101	0.422610	0.291840	0.144270
C1021	C102	0.442490	0.318940	0.210870
H671	H67	0.436730	0.308270	0.269370
C1031	C103	0.471440	0.362470	0.196670
H681	H68	0.486030	0.380470	0.245470
C1041	C104	0.479190	0.379640	0.115670
C1051	C105	0.460510	0.351650	0.045570
H691	H69	0.467130	0.362470	0.987270
C1061	C106	0.432410	0.308220	0.059170
H701	H70	0.419730	0.289570	0.010270
C1071	C107	0.505850	0.426580	0.097570
C1081	C108	0.487280	0.446530	0.049370
H711	H71	0.457830	0.429970	0.033170
H721	H72	0.608030	0.436570	0.066970
O251	O25	0.519400	0.961820	0.421880
O261	O26	0.513190	0.949540	0.567200
C1091	C109	0.521180	0.942810	0.491600
C1101	C110	0.535890	0.910720	0.477600
C1111	C111	0.543110	0.890840	0.544200
H731	H73	0.538200	0.896600	0.602700
C1121	C112	0.557690	0.861890	0.530000
H741	H74	0.561100	0.847300	0.578800
C1131	C113	0.567110	0.854140	0.449000
C1141	C114	0.557800	0.872820	0.378900
H751	H75	0.562000	0.866200	0.320600
C1151	C115	0.542470	0.900920	0.392500
H761	H76	0.536500	0.913600	0.343600
C1161	C116	0.587390	0.827480	0.430900
C1171	C117	0.625910	0.846050	0.382700
H771	H77	0.638800	0.875500	0.366500
H781	H78	0.495200	0.725300	0.400300
O271	O27	0.186070	0.295150	0.755210
O281	O28	0.179860	0.282870	0.900530
C1181	C118	0.187850	0.276140	0.824930
C1191	C119	0.202560	0.244050	0.810930
C1201	C120	0.209780	0.224170	0.877530
H791	H79	0.204870	0.229930	0.936030
C1211	C121	0.224360	0.195220	0.863330
H801	H80	0.227770	0.180630	0.912130
C1221	C122	0.233780	0.187470	0.782330
C1231	C123	0.224470	0.206150	0.712230
H811	H81	0.228670	0.199530	0.653930
C1241	C124	0.209140	0.234250	0.725830
H821	H82	0.203170	0.246930	0.676930
C1251	C125	0.254060	0.160810	0.764230
C1261	C126	0.292580	0.179380	0.716030
H831	H83	0.305470	0.208830	0.699830
H841	H84	0.161870	0.058630	0.733630
O291	O29	0.852730	0.628490	0.088550
O301	O30	0.846520	0.616210	0.233870
C1271	C127	0.854510	0.609480	0.158270
C1281	C128	0.869220	0.577390	0.144270
C1291	C129	0.876440	0.557510	0.210870
H851	H85	0.871530	0.563270	0.269370
C1301	C130	0.891020	0.528560	0.196670
H861	H86	0.894430	0.513970	0.245470
C1311	C131	0.900440	0.520810	0.115670
C1321	C132	0.891130	0.539490	0.045570
H871	H87	0.895330	0.532870	0.987270
C1331	C133	0.875800	0.567590	0.059170
H881	H88	0.869830	0.580270	0.010270
C1341	C134	0.920720	0.494150	0.097570
C1351	C135	0.959240	0.512720	0.049370
H891	H89	0.972130	0.542170	0.033170
H901	H90	0.828530	0.391970	0.066970
O311	O31	0.442420	0.480600	0.421880
O321	O32	0.436350	0.486810	0.567200
C1361	C136	0.421630	0.478820	0.491600
C1371	C137	0.374830	0.464110	0.477600
C1381	C138	0.347730	0.456890	0.544200
H911	H91	0.358400	0.461800	0.602700
C1391	C139	0.304200	0.442310	0.530000
H921	H92	0.286200	0.438900	0.578800
C1401	C140	0.287030	0.432890	0.449000
C1411	C141	0.315020	0.442200	0.378900
H931	H93	0.304200	0.438000	0.320600
C1421	C142	0.358450	0.457530	0.392500
H941	H94	0.377100	0.463500	0.343600
C1431	C143	0.240090	0.412610	0.430900
C1441	C144	0.220140	0.374090	0.382700
H951	H95	0.236700	0.361200	0.366500
H961	H96	0.230100	0.504800	0.400300
O331	O33	0.109090	0.813930	0.755210
O341	O34	0.103020	0.820140	0.900530
C1451	C145	0.088300	0.812150	0.824930
C1461	C146	0.041500	0.797440	0.810930
C1471	C147	0.014400	0.790220	0.877530
H971	H97	0.025070	0.795130	0.936030
C1481	C148	0.970870	0.775640	0.863330
H981	H98	0.952870	0.772230	0.912130
C1491	C149	0.953700	0.766220	0.782330
C1501	C150	0.981690	0.775530	0.712230
H991	H99	0.970870	0.771330	0.653930
C1511	C151	0.025120	0.790860	0.725830
H1001	H100	0.043770	0.796830	0.676930
C1521	C152	0.906760	0.745940	0.764230
C1531	C153	0.886810	0.707420	0.716030
H1011	H101	0.903370	0.694530	0.699830
H1021	H102	0.896770	0.838130	0.733630
O351	O35	0.775750	0.147270	0.088550
O361	O36	0.769680	0.153480	0.233870
C1541	C154	0.754960	0.145490	0.158270
C1551	C155	0.708160	0.130780	0.144270
C1561	C156	0.681060	0.123560	0.210870
H1031	H103	0.691730	0.128470	0.269370
C1571	C157	0.637530	0.108980	0.196670
H1041	H104	0.619530	0.105570	0.245470
C1581	C158	0.620360	0.099560	0.115670
C1591	C159	0.648350	0.108870	0.045570
H1051	H105	0.637530	0.104670	0.987270
C1601	C160	0.691780	0.124200	0.059170
H1061	H106	0.710430	0.130170	0.010270
C1611	C161	0.573420	0.079280	0.097570
C1621	C162	0.553470	0.040760	0.049370
H1071	H107	0.570030	0.027870	0.033170
H1081	H108	0.563430	0.171470	0.066970
O371	O37	0.442420	0.961820	0.421880
O381	O38	0.436350	0.949540	0.567200
C1631	C163	0.421630	0.942810	0.491600
C1641	C164	0.374830	0.910720	0.477600
C1651	C165	0.347730	0.890840	0.544200
H1091	H109	0.358400	0.896600	0.602700
C1661	C166	0.304200	0.861890	0.530000
H1101	H110	0.286200	0.847300	0.578800
C1671	C167	0.287030	0.854140	0.449000
C1681	C168	0.315020	0.872820	0.378900
H1111	H111	0.304200	0.866200	0.320600
C1691	C169	0.358450	0.900920	0.392500
H1121	H112	0.377100	0.913600	0.343600
C1701	C170	0.240090	0.827480	0.430900
C1711	C171	0.220140	0.846050	0.382700
H1131	H113	0.236700	0.875500	0.366500
H1141	H114	0.230100	0.725300	0.400300
O391	O39	0.109090	0.295150	0.755210
O401	O40	0.103020	0.282870	0.900530
C1721	C172	0.088300	0.276140	0.824930
C1731	C173	0.041500	0.244050	0.810930
C1741	C174	0.014400	0.224170	0.877530
H1151	H115	0.025070	0.229930	0.936030
C1751	C175	0.970870	0.195220	0.863330
H1161	H116	0.952870	0.180630	0.912130
C1761	C176	0.953700	0.187470	0.782330
C1771	C177	0.981690	0.206150	0.712230
H1171	H117	0.970870	0.199530	0.653930
C1781	C178	0.025120	0.234250	0.725830
H1181	H118	0.043770	0.246930	0.676930
C1791	C179	0.906760	0.160810	0.764230
C1801	C180	0.886810	0.179380	0.716030
H1191	H119	0.903370	0.208830	0.699830
H1201	H120	0.896770	0.058630	0.733630
O411	O41	0.775750	0.628490	0.088550
O421	O42	0.769680	0.616210	0.233870
C1811	C181	0.754960	0.609480	0.158270
C1821	C182	0.708160	0.577390	0.144270
C1831	C183	0.681060	0.557510	0.210870
H1211	H121	0.691730	0.563270	0.269370
C1841	C184	0.637530	0.528560	0.196670
H1221	H122	0.619530	0.513970	0.245470
C1851	C185	0.620360	0.520810	0.115670
C1861	C186	0.648350	0.539490	0.045570
H1231	H123	0.637530	0.532870	0.987270
C1871	C187	0.691780	0.567590	0.059170
H1241	H124	0.710430	0.580270	0.010270
C1881	C188	0.573420	0.494150	0.097570
C1891	C189	0.553470	0.512720	0.049370
H1251	H125	0.570030	0.542170	0.033170
H1261	H126	0.563430	0.391970	0.066970
O431	O43	0.038180	0.480600	0.421880
O441	O44	0.050460	0.486810	0.567200
C1901	C190	0.057190	0.478820	0.491600
C1911	C191	0.089280	0.464110	0.477600
C1921	C192	0.109160	0.456890	0.544200
H1271	H127	0.103400	0.461800	0.602700
C1931	C193	0.138110	0.442310	0.530000
H1281	H128	0.152700	0.438900	0.578800
C1941	C194	0.145860	0.432890	0.449000
C1951	C195	0.127180	0.442200	0.378900
H1291	H129	0.133800	0.438000	0.320600
C1961	C196	0.099080	0.457530	0.392500
H1301	H130	0.086400	0.463500	0.343600
C1971	C197	0.172520	0.412610	0.430900
C1981	C198	0.153950	0.374090	0.382700
H1311	H131	0.124500	0.361200	0.366500
H1321	H132	0.274700	0.504800	0.400300
O451	O45	0.704850	0.813930	0.755210
O461	O46	0.717130	0.820140	0.900530
C1991	C199	0.723860	0.812150	0.824930
C2001	C200	0.755950	0.797440	0.810930
C2011	C201	0.775830	0.790220	0.877530
H1331	H133	0.770070	0.795130	0.936030
C2021	C202	0.804780	0.775640	0.863330
H1341	H134	0.819370	0.772230	0.912130
C2031	C203	0.812530	0.766220	0.782330
C2041	C204	0.793850	0.775530	0.712230
H1351	H135	0.800470	0.771330	0.653930
C2051	C205	0.765750	0.790860	0.725830
H1361	H136	0.753070	0.796830	0.676930
C2061	C206	0.839190	0.745940	0.764230
C2071	C207	0.820620	0.707420	0.716030
H1371	H137	0.791170	0.694530	0.699830
H1381	H138	0.941370	0.838130	0.733630
O471	O47	0.371510	0.147270	0.088550
O481	O48	0.383790	0.153480	0.233870
C2081	C208	0.390520	0.145490	0.158270
C2091	C209	0.422610	0.130780	0.144270
C2101	C210	0.442490	0.123560	0.210870
H1391	H139	0.436730	0.128470	0.269370
C2111	C211	0.471440	0.108980	0.196670
H1401	H140	0.486030	0.105570	0.245470
C2121	C212	0.479190	0.099560	0.115670
C2131	C213	0.460510	0.108870	0.045570
H1411	H141	0.467130	0.104670	0.987270
C2141	C214	0.432410	0.124200	0.059170
H1421	H142	0.419730	0.130170	0.010270
C2151	C215	0.505850	0.079280	0.097570
C2161	C216	0.487280	0.040760	0.049370
H1431	H143	0.457830	0.027870	0.033170
H1441	H144	0.608030	0.171470	0.066970
O491	O49	0.519400	0.557580	0.421880
O501	O50	0.513190	0.563650	0.567200
C2171	C217	0.521180	0.578370	0.491600
C2181	C218	0.535890	0.625170	0.477600
C2191	C219	0.543110	0.652270	0.544200
H1451	H145	0.538200	0.641600	0.602700
C2201	C220	0.557690	0.695800	0.530000
H1461	H146	0.561100	0.713800	0.578800
C2211	C221	0.567110	0.712970	0.449000
C2221	C222	0.557800	0.684980	0.378900
H1471	H147	0.562000	0.695800	0.320600
C2231	C223	0.542470	0.641550	0.392500
H1481	H148	0.536500	0.622900	0.343600
C2241	C224	0.587390	0.759910	0.430900
C2251	C225	0.625910	0.779860	0.382700
H1491	H149	0.638800	0.763300	0.366500
H1501	H150	0.495200	0.769900	0.400300
O511	O51	0.186070	0.890910	0.755210
O521	O52	0.179860	0.896980	0.900530
C2261	C226	0.187850	0.911700	0.824930
C2271	C227	0.202560	0.958500	0.810930
C2281	C228	0.209780	0.985600	0.877530
H1511	H151	0.204870	0.974930	0.936030
C2291	C229	0.224360	0.029130	0.863330
H1521	H152	0.227770	0.047130	0.912130
C2301	C230	0.233780	0.046300	0.782330
C2311	C231	0.224470	0.018310	0.712230
H1531	H153	0.228670	0.029130	0.653930
C2321	C232	0.209140	0.974880	0.725830
H1541	H154	0.203170	0.956230	0.676930
C2331	C233	0.254060	0.093240	0.764230
C2341	C234	0.292580	0.113190	0.716030
H1551	H155	0.305470	0.096630	0.699830
H1561	H156	0.161870	0.103230	0.733630
O531	O53	0.852730	0.224250	0.088550
O541	O54	0.846520	0.230320	0.233870
C2351	C235	0.854510	0.245040	0.158270
C2361	C236	0.869220	0.291840	0.144270
C2371	C237	0.876440	0.318940	0.210870
H1571	H157	0.871530	0.308270	0.269370
C2381	C238	0.891020	0.362470	0.196670
H1581	H158	0.894430	0.380470	0.245470
C2391	C239	0.900440	0.379640	0.115670
C2401	C240	0.891130	0.351650	0.045570
H1591	H159	0.895330	0.362470	0.987270
C2411	C241	0.875800	0.308220	0.059170
H1601	H160	0.869830	0.289570	0.010270
C2421	C242	0.920720	0.426580	0.097570
C2431	C243	0.959240	0.446530	0.049370
H1611	H161	0.972130	0.429970	0.033170
H1621	H162	0.828530	0.436570	0.066970
O551	O55	0.961820	0.442420	0.578120
O561	O56	0.949540	0.436350	0.432800
C2441	C244	0.942810	0.421630	0.508400
C2451	C245	0.910720	0.374830	0.522400
C2461	C246	0.890840	0.347730	0.455800
H1631	H163	0.896600	0.358400	0.397300
C2471	C247	0.861890	0.304200	0.470000
H1641	H164	0.847300	0.286200	0.421200
C2481	C248	0.854140	0.287030	0.551000
C2491	C249	0.872820	0.315020	0.621100
H1651	H165	0.866200	0.304200	0.679400
C2501	C250	0.900920	0.358450	0.607500
H1661	H166	0.913600	0.377100	0.656400
C2511	C251	0.827480	0.240090	0.569100
C2521	C252	0.846050	0.220140	0.617300
H1671	H167	0.875500	0.236700	0.633500
H1681	H168	0.725300	0.230100	0.599700
O571	O57	0.628490	0.775750	0.911450
O581	O58	0.616210	0.769680	0.766130
C2531	C253	0.609480	0.754960	0.841730
C2541	C254	0.577390	0.708160	0.855730
C2551	C255	0.557510	0.681060	0.789130
H1691	H169	0.563270	0.691730	0.730630
C2561	C256	0.528560	0.637530	0.803330
H1701	H170	0.513970	0.619530	0.754530
C2571	C257	0.520810	0.620360	0.884330
C2581	C258	0.539490	0.648350	0.954430
H1711	H171	0.532870	0.637530	0.012730
C2591	C259	0.567590	0.691780	0.940830
H1721	H172	0.580270	0.710430	0.989730
C2601	C260	0.494150	0.573420	0.902430
C2611	C261	0.512720	0.553470	0.950630
H1731	H173	0.542170	0.570030	0.966830
H1741	H174	0.391970	0.563430	0.933030
O591	O59	0.295150	0.109090	0.244790
O601	O60	0.282870	0.103020	0.099470
C2621	C262	0.276140	0.088300	0.175070
C2631	C263	0.244050	0.041500	0.189070
C2641	C264	0.224170	0.014400	0.122470
H1751	H175	0.229930	0.025070	0.063970
C2651	C265	0.195220	0.970870	0.136670
H1761	H176	0.180630	0.952870	0.087870
C2661	C266	0.187470	0.953700	0.217670
C2671	C267	0.206150	0.981690	0.287770
H1771	H177	0.199530	0.970870	0.346070
C2681	C268	0.234250	0.025120	0.274170
H1781	H178	0.246930	0.043770	0.323070
C2691	C269	0.160810	0.906760	0.235770
C2701	C270	0.179380	0.886810	0.283970
H1791	H179	0.208830	0.903370	0.300170
H1801	H180	0.058630	0.896770	0.266370
O611	O61	0.480600	0.038180	0.578120
O621	O62	0.486810	0.050460	0.432800
C2711	C271	0.478820	0.057190	0.508400
C2721	C272	0.464110	0.089280	0.522400
C2731	C273	0.456890	0.109160	0.455800
H1811	H181	0.461800	0.103400	0.397300
C2741	C274	0.442310	0.138110	0.470000
H1821	H182	0.438900	0.152700	0.421200
C2751	C275	0.432890	0.145860	0.551000
C2761	C276	0.442200	0.127180	0.621100
H1831	H183	0.438000	0.133800	0.679400
C2771	C277	0.457530	0.099080	0.607500
H1841	H184	0.463500	0.086400	0.656400
C2781	C278	0.412610	0.172520	0.569100
C2791	C279	0.374090	0.153950	0.617300
H1851	H185	0.361200	0.124500	0.633500
H1861	H186	0.504800	0.274700	0.599700
O631	O63	0.147270	0.371510	0.911450
O641	O64	0.153480	0.383790	0.766130
C2801	C280	0.145490	0.390520	0.841730
C2811	C281	0.130780	0.422610	0.855730
C2821	C282	0.123560	0.442490	0.789130
H1871	H187	0.128470	0.436730	0.730630
C2831	C283	0.108980	0.471440	0.803330
H1881	H188	0.105570	0.486030	0.754530
C2841	C284	0.099560	0.479190	0.884330
C2851	C285	0.108870	0.460510	0.954430
H1891	H189	0.104670	0.467130	0.012730
C2861	C286	0.124200	0.432410	0.940830
H1901	H190	0.130170	0.419730	0.989730
C2871	C287	0.079280	0.505850	0.902430
C2881	C288	0.040760	0.487280	0.950630
H1911	H191	0.027870	0.457830	0.966830
H1921	H192	0.171470	0.608030	0.933030
O651	O65	0.813930	0.704850	0.244790
O661	O66	0.820140	0.717130	0.099470
C2891	C289	0.812150	0.723860	0.175070
C2901	C290	0.797440	0.755950	0.189070
C2911	C291	0.790220	0.775830	0.122470
H1931	H193	0.795130	0.770070	0.063970
C2921	C292	0.775640	0.804780	0.136670
H1941	H194	0.772230	0.819370	0.087870
C2931	C293	0.766220	0.812530	0.217670
C2941	C294	0.775530	0.793850	0.287770
H1951	H195	0.771330	0.800470	0.346070
C2951	C295	0.790860	0.765750	0.274170
H1961	H196	0.796830	0.753070	0.323070
C2961	C296	0.745940	0.839190	0.235770
C2971	C297	0.707420	0.820620	0.283970
H1971	H197	0.694530	0.791170	0.300170
H1981	H198	0.838130	0.941370	0.266370
O671	O67	0.557580	0.519400	0.578120
O681	O68	0.563650	0.513190	0.432800
C2981	C298	0.578370	0.521180	0.508400
C2991	C299	0.625170	0.535890	0.522400
C3001	C300	0.652270	0.543110	0.455800
H1991	H199	0.641600	0.538200	0.397300
C3011	C301	0.695800	0.557690	0.470000
H2001	H200	0.713800	0.561100	0.421200
C3021	C302	0.712970	0.567110	0.551000
C3031	C303	0.684980	0.557800	0.621100
H2011	H201	0.695800	0.562000	0.679400
C3041	C304	0.641550	0.542470	0.607500
H2021	H202	0.622900	0.536500	0.656400
C3051	C305	0.759910	0.587390	0.569100
C3061	C306	0.779860	0.625910	0.617300
H2031	H203	0.763300	0.638800	0.633500
H2041	H204	0.769900	0.495200	0.599700
O691	O69	0.224250	0.852730	0.911450
O701	O70	0.230320	0.846520	0.766130
C3071	C307	0.245040	0.854510	0.841730
C3081	C308	0.291840	0.869220	0.855730
C3091	C309	0.318940	0.876440	0.789130
H2051	H205	0.308270	0.871530	0.730630
C3101	C310	0.362470	0.891020	0.803330
H2061	H206	0.380470	0.894430	0.754530
C3111	C311	0.379640	0.900440	0.884330
C3121	C312	0.351650	0.891130	0.954430
H2071	H207	0.362470	0.895330	0.012730
C3131	C313	0.308220	0.875800	0.940830
H2081	H208	0.289570	0.869830	0.989730
C3141	C314	0.426580	0.920720	0.902430
C3151	C315	0.446530	0.959240	0.950630
H2091	H209	0.429970	0.972130	0.966830
H2101	H210	0.436570	0.828530	0.933030
O711	O71	0.890910	0.186070	0.244790
O721	O72	0.896980	0.179860	0.099470
C3161	C316	0.911700	0.187850	0.175070
C3171	C317	0.958500	0.202560	0.189070
C3181	C318	0.985600	0.209780	0.122470
H2111	H211	0.974930	0.204870	0.063970
C3191	C319	0.029130	0.224360	0.136670
H2121	H212	0.047130	0.227770	0.087870
C3201	C320	0.046300	0.233780	0.217670
C3211	C321	0.018310	0.224470	0.287770
H2131	H213	0.029130	0.228670	0.346070
C3221	C322	0.974880	0.209140	0.274170
H2141	H214	0.956230	0.203170	0.323070
C3231	C323	0.093240	0.254060	0.235770
C3241	C324	0.113190	0.292580	0.283970
H2151	H215	0.096630	0.305470	0.300170
H2161	H216	0.103230	0.161870	0.266370
Cu11	Cu1	0.503350	0.006690	0.414080
Cu21	Cu2	0.170010	0.340020	0.747410
Cu31	Cu3	0.836680	0.673360	0.080750
Cu41	Cu4	0.993310	0.496650	0.414080
Cu51	Cu5	0.659980	0.829990	0.747410
Cu61	Cu6	0.326640	0.163320	0.080750
Cu71	Cu7	0.503350	0.496650	0.414080
Cu81	Cu8	0.170010	0.829990	0.747410
Cu91	Cu9	0.836680	0.163320	0.080750
Cu101	Cu10	0.006690	0.503350	0.585920
Cu111	Cu11	0.673360	0.836680	0.919250
Cu121	Cu12	0.340020	0.170010	0.252590
Cu131	Cu13	0.496650	0.993310	0.585920
Cu141	Cu14	0.163320	0.326640	0.919250
Cu151	Cu15	0.829990	0.659980	0.252590
Cu161	Cu16	0.496650	0.503350	0.585920
Cu171	Cu17	0.163320	0.836680	0.919250
Cu181	Cu18	0.829990	0.170010	0.252590
O731	O73	0.765090	0.234910	0.499600
C3251	C325	0.822960	0.177040	0.642200
C3261	C326	0.784480	0.215520	0.545500
C3271	C327	0.746820	0.253180	0.562600
H2171	H217	0.733200	0.266800	0.530100
O741	O74	0.431760	0.568240	0.832930
C3281	C328	0.489630	0.510370	0.975530
C3291	C329	0.451150	0.548850	0.878830
C3301	C330	0.413490	0.586510	0.895930
H2181	H218	0.399870	0.600130	0.863430
O751	O75	0.098420	0.901580	0.166270
C3311	C331	0.156290	0.843710	0.308870
C3321	C332	0.117810	0.882190	0.212170
C3331	C333	0.080150	0.919850	0.229270
H2191	H219	0.066530	0.933470	0.196770
O761	O76	0.765090	0.530180	0.499600
C3341	C334	0.822960	0.645920	0.642200
C3351	C335	0.784480	0.568960	0.545500
C3361	C336	0.746820	0.493640	0.562600
H2201	H220	0.733200	0.466400	0.530100
O771	O77	0.431760	0.863510	0.832930
C3371	C337	0.489630	0.979250	0.975530
C3381	C338	0.451150	0.902290	0.878830
C3391	C339	0.413490	0.826970	0.895930
H2211	H221	0.399870	0.799730	0.863430
O781	O78	0.098420	0.196850	0.166270
C3401	C340	0.156290	0.312590	0.308870
C3411	C341	0.117810	0.235630	0.212170
C3421	C342	0.080150	0.160310	0.229270
H2221	H222	0.066530	0.133070	0.196770
O791	O79	0.469820	0.234910	0.499600
C3431	C343	0.354080	0.177040	0.642200
C3441	C344	0.431040	0.215520	0.545500
C3451	C345	0.506360	0.253180	0.562600
H2231	H223	0.533600	0.266800	0.530100
O801	O80	0.136490	0.568240	0.832930
C3461	C346	0.020750	0.510370	0.975530
C3471	C347	0.097710	0.548850	0.878830
C3481	C348	0.173030	0.586510	0.895930
H2241	H224	0.200270	0.600130	0.863430
O811	O81	0.803150	0.901580	0.166270
C3491	C349	0.687410	0.843710	0.308870
C3501	C350	0.764370	0.882190	0.212170
C3511	C351	0.839690	0.919850	0.229270
H2251	H225	0.866930	0.933470	0.196770
O821	O82	0.234910	0.765090	0.500400
C3521	C352	0.177040	0.822960	0.357800
C3531	C353	0.215520	0.784480	0.454500
C3541	C354	0.253180	0.746820	0.437400
H2261	H226	0.266800	0.733200	0.469900
O831	O83	0.901580	0.098420	0.833730
C3551	C355	0.843710	0.156290	0.691130
C3561	C356	0.882190	0.117810	0.787830
C3571	C357	0.919850	0.080150	0.770730
H2271	H227	0.933470	0.066530	0.803230
O841	O84	0.568240	0.431760	0.167070
C3581	C358	0.510370	0.489630	0.024470
C3591	C359	0.548850	0.451150	0.121170
C3601	C360	0.586510	0.413490	0.104070
H2281	H228	0.600130	0.399870	0.136570
O851	O85	0.530180	0.765090	0.500400
C3611	C361	0.645920	0.822960	0.357800
C3621	C362	0.568960	0.784480	0.454500
C3631	C363	0.493640	0.746820	0.437400
H2291	H229	0.466400	0.733200	0.469900
O861	O86	0.196850	0.098420	0.833730
C3641	C364	0.312590	0.156290	0.691130
C3651	C365	0.235630	0.117810	0.787830
C3661	C366	0.160310	0.080150	0.770730
H2301	H230	0.133070	0.066530	0.803230
O871	O87	0.863510	0.431760	0.167070
C3671	C367	0.979250	0.489630	0.024470
C3681	C368	0.902290	0.451150	0.121170
C3691	C369	0.826970	0.413490	0.104070
H2311	H231	0.799730	0.399870	0.136570
O881	O88	0.234910	0.469820	0.500400
C3701	C370	0.177040	0.354080	0.357800
C3711	C371	0.215520	0.431040	0.454500
C3721	C372	0.253180	0.506360	0.437400
H2321	H232	0.266800	0.533600	0.469900
O891	O89	0.901580	0.803150	0.833730
C3731	C373	0.843710	0.687410	0.691130
C3741	C374	0.882190	0.764370	0.787830
C3751	C375	0.919850	0.839690	0.770730
H2331	H233	0.933470	0.866930	0.803230
O901	O90	0.568240	0.136490	0.167070
C3761	C376	0.510370	0.020750	0.024470
C3771	C377	0.548850	0.097710	0.121170
C3781	C378	0.586510	0.173030	0.104070
H2341	H234	0.600130	0.200270	0.136570
