data_UMOBEF_clean_PM
_symmetry_space_group_name_H-M	'P1'
_cell_length_a	34.802800
_cell_length_b	34.802800
_cell_length_c	24.253200
_cell_angle_alpha	90.000000
_cell_angle_beta	90.000000
_cell_angle_gamma	120.000000
_symmetry_Int_Tables_number 1

loop_
_symmetry_equiv_pos_as_xyz
'x,y,z'

loop_
_atom_site_label
_atom_site_type_symbol
_atom_site_fract_x
_atom_site_fract_y
_atom_site_fract_z
O11	O1	0.526370	0.552840	0.434310
O21	O2	0.511360	0.568100	0.519200
C11	C1	0.524670	0.578130	0.470220
C21	C2	0.540470	0.625210	0.452270
C31	C3	0.543200	0.656390	0.489980
H11	H1	0.534900	0.648100	0.527300
C41	C4	0.557830	0.699260	0.473620
H21	H2	0.558600	0.720000	0.499700
C51	C5	0.571430	0.712890	0.420330
C61	C6	0.568940	0.681570	0.383410
H31	H3	0.577600	0.689900	0.346200
C71	C7	0.554130	0.638280	0.399440
H41	H4	0.553500	0.617500	0.373500
C81	C8	0.589550	0.759870	0.402340
C91	C9	0.627180	0.779490	0.369380
H51	H5	0.640300	0.762300	0.359100
H61	H6	0.490800	0.722400	0.403500
O31	O3	0.193040	0.886170	0.767640
O41	O4	0.178030	0.901430	0.852530
C101	C10	0.191340	0.911460	0.803550
C111	C11	0.207140	0.958540	0.785600
C121	C12	0.209870	0.989720	0.823310
H71	H7	0.201570	0.981430	0.860630
C131	C13	0.224500	0.032590	0.806950
H81	H8	0.225270	0.053330	0.833030
C141	C14	0.238100	0.046220	0.753660
C151	C15	0.235610	0.014900	0.716740
H91	H9	0.244270	0.023230	0.679530
C161	C16	0.220800	0.971610	0.732770
H101	H10	0.220170	0.950830	0.706830
C171	C17	0.256220	0.093200	0.735670
C181	C18	0.293850	0.112820	0.702710
H111	H11	0.306970	0.095630	0.692430
H121	H12	0.157470	0.055730	0.736830
O51	O5	0.859700	0.219510	0.100980
O61	O6	0.844690	0.234770	0.185870
C191	C19	0.858000	0.244800	0.136890
C201	C20	0.873800	0.291880	0.118940
C211	C21	0.876530	0.323060	0.156650
H131	H13	0.868230	0.314770	0.193970
C221	C22	0.891160	0.365930	0.140290
H141	H14	0.891930	0.386670	0.166370
C231	C23	0.904760	0.379560	0.087000
C241	C24	0.902270	0.348240	0.050080
H151	H15	0.910930	0.356570	0.012870
C251	C25	0.887460	0.304950	0.066110
H161	H16	0.886830	0.284170	0.040170
C261	C26	0.922880	0.426540	0.069010
C271	C27	0.960510	0.446160	0.036050
H171	H17	0.973630	0.428970	0.025770
H181	H18	0.824130	0.389070	0.070170
O71	O7	0.447160	0.973530	0.434310
O81	O8	0.431900	0.943260	0.519200
C281	C28	0.421870	0.946540	0.470220
C291	C29	0.374790	0.915260	0.452270
C301	C30	0.343610	0.886810	0.489980
H191	H19	0.351900	0.886800	0.527300
C311	C31	0.300740	0.858570	0.473620
H201	H20	0.280000	0.838600	0.499700
C321	C32	0.287110	0.858540	0.420330
C331	C33	0.318430	0.887370	0.383410
H211	H21	0.310100	0.887700	0.346200
C341	C34	0.361720	0.915850	0.399440
H221	H22	0.382500	0.936000	0.373500
C351	C35	0.240130	0.829680	0.402340
C361	C36	0.220510	0.847690	0.369380
H231	H23	0.237700	0.878000	0.359100
H241	H24	0.277600	0.768400	0.403500
O91	O9	0.113830	0.306860	0.767640
O101	O10	0.098570	0.276590	0.852530
C371	C37	0.088540	0.279870	0.803550
C381	C38	0.041460	0.248590	0.785600
C391	C39	0.010280	0.220140	0.823310
H251	H25	0.018570	0.220130	0.860630
C401	C40	0.967410	0.191900	0.806950
H261	H26	0.946670	0.171930	0.833030
C411	C41	0.953780	0.191870	0.753660
C421	C42	0.985100	0.220700	0.716740
H271	H27	0.976770	0.221030	0.679530
C431	C43	0.028390	0.249180	0.732770
H281	H28	0.049170	0.269330	0.706830
C441	C44	0.906800	0.163010	0.735670
C451	C45	0.887180	0.181020	0.702710
H291	H29	0.904370	0.211330	0.692430
H301	H30	0.944270	0.101730	0.736830
O111	O11	0.780490	0.640200	0.100980
O121	O12	0.765230	0.609930	0.185870
C461	C46	0.755200	0.613210	0.136890
C471	C47	0.708120	0.581930	0.118940
C481	C48	0.676940	0.553480	0.156650
H311	H31	0.685230	0.553470	0.193970
C491	C49	0.634070	0.525240	0.140290
H321	H32	0.613330	0.505270	0.166370
C501	C50	0.620440	0.525210	0.087000
C511	C51	0.651760	0.554040	0.050080
H331	H33	0.643430	0.554370	0.012870
C521	C52	0.695050	0.582520	0.066110
H341	H34	0.715830	0.602670	0.040170
C531	C53	0.573460	0.496350	0.069010
C541	C54	0.553840	0.514360	0.036050
H351	H35	0.571030	0.544670	0.025770
H361	H36	0.610930	0.435070	0.070170
O131	O13	0.026470	0.473630	0.434310
O141	O14	0.056740	0.488640	0.519200
C551	C55	0.053460	0.475330	0.470220
C561	C56	0.084740	0.459530	0.452270
C571	C57	0.113190	0.456800	0.489980
H371	H37	0.113200	0.465100	0.527300
C581	C58	0.141430	0.442170	0.473620
H381	H38	0.161400	0.441400	0.499700
C591	C59	0.141460	0.428570	0.420330
C601	C60	0.112630	0.431060	0.383410
H391	H39	0.112300	0.422400	0.346200
C611	C61	0.084150	0.445870	0.399440
H401	H40	0.064000	0.446500	0.373500
C621	C62	0.170320	0.410450	0.402340
C631	C63	0.152310	0.372820	0.369380
H411	H41	0.122000	0.359700	0.359100
H421	H42	0.231600	0.509200	0.403500
O151	O15	0.693140	0.806960	0.767640
O161	O16	0.723410	0.821970	0.852530
C641	C64	0.720130	0.808660	0.803550
C651	C65	0.751410	0.792860	0.785600
C661	C66	0.779860	0.790130	0.823310
H431	H43	0.779870	0.798430	0.860630
C671	C67	0.808100	0.775500	0.806950
H441	H44	0.828070	0.774730	0.833030
C681	C68	0.808130	0.761900	0.753660
C691	C69	0.779300	0.764390	0.716740
H451	H45	0.778970	0.755730	0.679530
C701	C70	0.750820	0.779200	0.732770
H461	H46	0.730670	0.779830	0.706830
C711	C71	0.836990	0.743780	0.735670
C721	C72	0.818980	0.706150	0.702710
H471	H47	0.788670	0.693030	0.692430
H481	H48	0.898270	0.842530	0.736830
O171	O17	0.359800	0.140300	0.100980
O181	O18	0.390070	0.155310	0.185870
C731	C73	0.386790	0.142000	0.136890
C741	C74	0.418070	0.126200	0.118940
C751	C75	0.446520	0.123470	0.156650
H491	H49	0.446530	0.131770	0.193970
C761	C76	0.474760	0.108840	0.140290
H501	H50	0.494730	0.108070	0.166370
C771	C77	0.474790	0.095240	0.087000
C781	C78	0.445960	0.097730	0.050080
H511	H51	0.445630	0.089070	0.012870
C791	C79	0.417480	0.112540	0.066110
H521	H52	0.397330	0.113170	0.040170
C801	C80	0.503650	0.077120	0.069010
C811	C81	0.485640	0.039490	0.036050
H531	H53	0.455330	0.026370	0.025770
H541	H54	0.564930	0.175870	0.070170
O191	O19	0.552840	0.526370	0.565690
O201	O20	0.568100	0.511360	0.480800
C821	C82	0.578130	0.524670	0.529780
C831	C83	0.625210	0.540470	0.547730
C841	C84	0.656390	0.543200	0.510020
H551	H55	0.648100	0.534900	0.472700
C851	C85	0.699260	0.557830	0.526380
H561	H56	0.720000	0.558600	0.500300
C861	C86	0.712890	0.571430	0.579670
C871	C87	0.681570	0.568940	0.616590
H571	H57	0.689900	0.577600	0.653800
C881	C88	0.638280	0.554130	0.600560
H581	H58	0.617500	0.553500	0.626500
C891	C89	0.759870	0.589550	0.597660
C901	C90	0.779490	0.627180	0.630620
H591	H59	0.762300	0.640300	0.640900
H601	H60	0.722400	0.490800	0.596500
O211	O21	0.219510	0.859700	0.899020
O221	O22	0.234770	0.844690	0.814130
C911	C91	0.244800	0.858000	0.863110
C921	C92	0.291880	0.873800	0.881060
C931	C93	0.323060	0.876530	0.843350
H611	H61	0.314770	0.868230	0.806030
C941	C94	0.365930	0.891160	0.859710
H621	H62	0.386670	0.891930	0.833630
C951	C95	0.379560	0.904760	0.913000
C961	C96	0.348240	0.902270	0.949920
H631	H63	0.356570	0.910930	0.987130
C971	C97	0.304950	0.887460	0.933890
H641	H64	0.284170	0.886830	0.959830
C981	C98	0.426540	0.922880	0.930990
C991	C99	0.446160	0.960510	0.963950
H651	H65	0.428970	0.973630	0.974230
H661	H66	0.389070	0.824130	0.929830
O231	O23	0.886170	0.193040	0.232360
O241	O24	0.901430	0.178030	0.147470
C1001	C100	0.911460	0.191340	0.196450
C1011	C101	0.958540	0.207140	0.214400
C1021	C102	0.989720	0.209870	0.176690
H671	H67	0.981430	0.201570	0.139370
C1031	C103	0.032590	0.224500	0.193050
H681	H68	0.053330	0.225270	0.166970
C1041	C104	0.046220	0.238100	0.246340
C1051	C105	0.014900	0.235610	0.283260
H691	H69	0.023230	0.244270	0.320470
C1061	C106	0.971610	0.220800	0.267230
H701	H70	0.950830	0.220170	0.293170
C1071	C107	0.093200	0.256220	0.264330
C1081	C108	0.112820	0.293850	0.297290
H711	H71	0.095630	0.306970	0.307570
H721	H72	0.055730	0.157470	0.263170
O251	O25	0.973530	0.447160	0.565690
O261	O26	0.943260	0.431900	0.480800
C1091	C109	0.946540	0.421870	0.529780
C1101	C110	0.915260	0.374790	0.547730
C1111	C111	0.886810	0.343610	0.510020
H731	H73	0.886800	0.351900	0.472700
C1121	C112	0.858570	0.300740	0.526380
H741	H74	0.838600	0.280000	0.500300
C1131	C113	0.858540	0.287110	0.579670
C1141	C114	0.887370	0.318430	0.616590
H751	H75	0.887700	0.310100	0.653800
C1151	C115	0.915850	0.361720	0.600560
H761	H76	0.936000	0.382500	0.626500
C1161	C116	0.829680	0.240130	0.597660
C1171	C117	0.847690	0.220510	0.630620
H771	H77	0.878000	0.237700	0.640900
H781	H78	0.768400	0.277600	0.596500
O271	O27	0.640200	0.780490	0.899020
O281	O28	0.609930	0.765230	0.814130
C1181	C118	0.613210	0.755200	0.863110
C1191	C119	0.581930	0.708120	0.881060
C1201	C120	0.553480	0.676940	0.843350
H791	H79	0.553470	0.685230	0.806030
C1211	C121	0.525240	0.634070	0.859710
H801	H80	0.505270	0.613330	0.833630
C1221	C122	0.525210	0.620440	0.913000
C1231	C123	0.554040	0.651760	0.949920
H811	H81	0.554370	0.643430	0.987130
C1241	C124	0.582520	0.695050	0.933890
H821	H82	0.602670	0.715830	0.959830
C1251	C125	0.496350	0.573460	0.930990
C1261	C126	0.514360	0.553840	0.963950
H831	H83	0.544670	0.571030	0.974230
H841	H84	0.435070	0.610930	0.929830
O291	O29	0.306860	0.113830	0.232360
O301	O30	0.276590	0.098570	0.147470
C1271	C127	0.279870	0.088540	0.196450
C1281	C128	0.248590	0.041460	0.214400
C1291	C129	0.220140	0.010280	0.176690
H851	H85	0.220130	0.018570	0.139370
C1301	C130	0.191900	0.967410	0.193050
H861	H86	0.171930	0.946670	0.166970
C1311	C131	0.191870	0.953780	0.246340
C1321	C132	0.220700	0.985100	0.283260
H871	H87	0.221030	0.976770	0.320470
C1331	C133	0.249180	0.028390	0.267230
H881	H88	0.269330	0.049170	0.293170
C1341	C134	0.163010	0.906800	0.264330
C1351	C135	0.181020	0.887180	0.297290
H891	H89	0.211330	0.904370	0.307570
H901	H90	0.101730	0.944270	0.263170
O311	O31	0.473630	0.026470	0.565690
O321	O32	0.488640	0.056740	0.480800
C1361	C136	0.475330	0.053460	0.529780
C1371	C137	0.459530	0.084740	0.547730
C1381	C138	0.456800	0.113190	0.510020
H911	H91	0.465100	0.113200	0.472700
C1391	C139	0.442170	0.141430	0.526380
H921	H92	0.441400	0.161400	0.500300
C1401	C140	0.428570	0.141460	0.579670
C1411	C141	0.431060	0.112630	0.616590
H931	H93	0.422400	0.112300	0.653800
C1421	C142	0.445870	0.084150	0.600560
H941	H94	0.446500	0.064000	0.626500
C1431	C143	0.410450	0.170320	0.597660
C1441	C144	0.372820	0.152310	0.630620
H951	H95	0.359700	0.122000	0.640900
H961	H96	0.509200	0.231600	0.596500
O331	O33	0.140300	0.359800	0.899020
O341	O34	0.155310	0.390070	0.814130
C1451	C145	0.142000	0.386790	0.863110
C1461	C146	0.126200	0.418070	0.881060
C1471	C147	0.123470	0.446520	0.843350
H971	H97	0.131770	0.446530	0.806030
C1481	C148	0.108840	0.474760	0.859710
H981	H98	0.108070	0.494730	0.833630
C1491	C149	0.095240	0.474790	0.913000
C1501	C150	0.097730	0.445960	0.949920
H991	H99	0.089070	0.445630	0.987130
C1511	C151	0.112540	0.417480	0.933890
H1001	H100	0.113170	0.397330	0.959830
C1521	C152	0.077120	0.503650	0.930990
C1531	C153	0.039490	0.485640	0.963950
H1011	H101	0.026370	0.455330	0.974230
H1021	H102	0.175870	0.564930	0.929830
O351	O35	0.806960	0.693140	0.232360
O361	O36	0.821970	0.723410	0.147470
C1541	C154	0.808660	0.720130	0.196450
C1551	C155	0.792860	0.751410	0.214400
C1561	C156	0.790130	0.779860	0.176690
H1031	H103	0.798430	0.779870	0.139370
C1571	C157	0.775500	0.808100	0.193050
H1041	H104	0.774730	0.828070	0.166970
C1581	C158	0.761900	0.808130	0.246340
C1591	C159	0.764390	0.779300	0.283260
H1051	H105	0.755730	0.778970	0.320470
C1601	C160	0.779200	0.750820	0.267230
H1061	H106	0.779830	0.730670	0.293170
C1611	C161	0.743780	0.836990	0.264330
C1621	C162	0.706150	0.818980	0.297290
H1071	H107	0.693030	0.788670	0.307570
H1081	H108	0.842530	0.898270	0.263170
O371	O37	0.473630	0.447160	0.565690
O381	O38	0.488640	0.431900	0.480800
C1631	C163	0.475330	0.421870	0.529780
C1641	C164	0.459530	0.374790	0.547730
C1651	C165	0.456800	0.343610	0.510020
H1091	H109	0.465100	0.351900	0.472700
C1661	C166	0.442170	0.300740	0.526380
H1101	H110	0.441400	0.280000	0.500300
C1671	C167	0.428570	0.287110	0.579670
C1681	C168	0.431060	0.318430	0.616590
H1111	H111	0.422400	0.310100	0.653800
C1691	C169	0.445870	0.361720	0.600560
H1121	H112	0.446500	0.382500	0.626500
C1701	C170	0.410450	0.240130	0.597660
C1711	C171	0.372820	0.220510	0.630620
H1131	H113	0.359700	0.237700	0.640900
H1141	H114	0.509200	0.277600	0.596500
O391	O39	0.140300	0.780490	0.899020
O401	O40	0.155310	0.765230	0.814130
C1721	C172	0.142000	0.755200	0.863110
C1731	C173	0.126200	0.708120	0.881060
C1741	C174	0.123470	0.676940	0.843350
H1151	H115	0.131770	0.685230	0.806030
C1751	C175	0.108840	0.634070	0.859710
H1161	H116	0.108070	0.613330	0.833630
C1761	C176	0.095240	0.620440	0.913000
C1771	C177	0.097730	0.651760	0.949920
H1171	H117	0.089070	0.643430	0.987130
C1781	C178	0.112540	0.695050	0.933890
H1181	H118	0.113170	0.715830	0.959830
C1791	C179	0.077120	0.573460	0.930990
C1801	C180	0.039490	0.553840	0.963950
H1191	H119	0.026370	0.571030	0.974230
H1201	H120	0.175870	0.610930	0.929830
O411	O41	0.806960	0.113830	0.232360
O421	O42	0.821970	0.098570	0.147470
C1811	C181	0.808660	0.088540	0.196450
C1821	C182	0.792860	0.041460	0.214400
C1831	C183	0.790130	0.010280	0.176690
H1211	H121	0.798430	0.018570	0.139370
C1841	C184	0.775500	0.967410	0.193050
H1221	H122	0.774730	0.946670	0.166970
C1851	C185	0.761900	0.953780	0.246340
C1861	C186	0.764390	0.985100	0.283260
H1231	H123	0.755730	0.976770	0.320470
C1871	C187	0.779200	0.028390	0.267230
H1241	H124	0.779830	0.049170	0.293170
C1881	C188	0.743780	0.906800	0.264330
C1891	C189	0.706150	0.887180	0.297290
H1251	H125	0.693030	0.904370	0.307570
H1261	H126	0.842530	0.944270	0.263170
O431	O43	0.552840	0.026470	0.565690
O441	O44	0.568100	0.056740	0.480800
C1901	C190	0.578130	0.053460	0.529780
C1911	C191	0.625210	0.084740	0.547730
C1921	C192	0.656390	0.113190	0.510020
H1271	H127	0.648100	0.113200	0.472700
C1931	C193	0.699260	0.141430	0.526380
H1281	H128	0.720000	0.161400	0.500300
C1941	C194	0.712890	0.141460	0.579670
C1951	C195	0.681570	0.112630	0.616590
H1291	H129	0.689900	0.112300	0.653800
C1961	C196	0.638280	0.084150	0.600560
H1301	H130	0.617500	0.064000	0.626500
C1971	C197	0.759870	0.170320	0.597660
C1981	C198	0.779490	0.152310	0.630620
H1311	H131	0.762300	0.122000	0.640900
H1321	H132	0.722400	0.231600	0.596500
O451	O45	0.219510	0.359800	0.899020
O461	O46	0.234770	0.390070	0.814130
C1991	C199	0.244800	0.386790	0.863110
C2001	C200	0.291880	0.418070	0.881060
C2011	C201	0.323060	0.446520	0.843350
H1331	H133	0.314770	0.446530	0.806030
C2021	C202	0.365930	0.474760	0.859710
H1341	H134	0.386670	0.494730	0.833630
C2031	C203	0.379560	0.474790	0.913000
C2041	C204	0.348240	0.445960	0.949920
H1351	H135	0.356570	0.445630	0.987130
C2051	C205	0.304950	0.417480	0.933890
H1361	H136	0.284170	0.397330	0.959830
C2061	C206	0.426540	0.503650	0.930990
C2071	C207	0.446160	0.485640	0.963950
H1371	H137	0.428970	0.455330	0.974230
H1381	H138	0.389070	0.564930	0.929830
O471	O47	0.886170	0.693140	0.232360
O481	O48	0.901430	0.723410	0.147470
C2081	C208	0.911460	0.720130	0.196450
C2091	C209	0.958540	0.751410	0.214400
C2101	C210	0.989720	0.779860	0.176690
H1391	H139	0.981430	0.779870	0.139370
C2111	C211	0.032590	0.808100	0.193050
H1401	H140	0.053330	0.828070	0.166970
C2121	C212	0.046220	0.808130	0.246340
C2131	C213	0.014900	0.779300	0.283260
H1411	H141	0.023230	0.778970	0.320470
C2141	C214	0.971610	0.750820	0.267230
H1421	H142	0.950830	0.730670	0.293170
C2151	C215	0.093200	0.836990	0.264330
C2161	C216	0.112820	0.818980	0.297290
H1431	H143	0.095630	0.788670	0.307570
H1441	H144	0.055730	0.898270	0.263170
O491	O49	0.973530	0.526370	0.565690
O501	O50	0.943260	0.511360	0.480800
C2171	C217	0.946540	0.524670	0.529780
C2181	C218	0.915260	0.540470	0.547730
C2191	C219	0.886810	0.543200	0.510020
H1451	H145	0.886800	0.534900	0.472700
C2201	C220	0.858570	0.557830	0.526380
H1461	H146	0.838600	0.558600	0.500300
C2211	C221	0.858540	0.571430	0.579670
C2221	C222	0.887370	0.568940	0.616590
H1471	H147	0.887700	0.577600	0.653800
C2231	C223	0.915850	0.554130	0.600560
H1481	H148	0.936000	0.553500	0.626500
C2241	C224	0.829680	0.589550	0.597660
C2251	C225	0.847690	0.627180	0.630620
H1491	H149	0.878000	0.640300	0.640900
H1501	H150	0.768400	0.490800	0.596500
O511	O51	0.640200	0.859700	0.899020
O521	O52	0.609930	0.844690	0.814130
C2261	C226	0.613210	0.858000	0.863110
C2271	C227	0.581930	0.873800	0.881060
C2281	C228	0.553480	0.876530	0.843350
H1511	H151	0.553470	0.868230	0.806030
C2291	C229	0.525240	0.891160	0.859710
H1521	H152	0.505270	0.891930	0.833630
C2301	C230	0.525210	0.904760	0.913000
C2311	C231	0.554040	0.902270	0.949920
H1531	H153	0.554370	0.910930	0.987130
C2321	C232	0.582520	0.887460	0.933890
H1541	H154	0.602670	0.886830	0.959830
C2331	C233	0.496350	0.922880	0.930990
C2341	C234	0.514360	0.960510	0.963950
H1551	H155	0.544670	0.973630	0.974230
H1561	H156	0.435070	0.824130	0.929830
O531	O53	0.306860	0.193040	0.232360
O541	O54	0.276590	0.178030	0.147470
C2351	C235	0.279870	0.191340	0.196450
C2361	C236	0.248590	0.207140	0.214400
C2371	C237	0.220140	0.209870	0.176690
H1571	H157	0.220130	0.201570	0.139370
C2381	C238	0.191900	0.224500	0.193050
H1581	H158	0.171930	0.225270	0.166970
C2391	C239	0.191870	0.238100	0.246340
C2401	C240	0.220700	0.235610	0.283260
H1591	H159	0.221030	0.244270	0.320470
C2411	C241	0.249180	0.220800	0.267230
H1601	H160	0.269330	0.220170	0.293170
C2421	C242	0.163010	0.256220	0.264330
C2431	C243	0.181020	0.293850	0.297290
H1611	H161	0.211330	0.306970	0.307570
H1621	H162	0.101730	0.157470	0.263170
O551	O55	0.447160	0.473630	0.434310
O561	O56	0.431900	0.488640	0.519200
C2441	C244	0.421870	0.475330	0.470220
C2451	C245	0.374790	0.459530	0.452270
C2461	C246	0.343610	0.456800	0.489980
H1631	H163	0.351900	0.465100	0.527300
C2471	C247	0.300740	0.442170	0.473620
H1641	H164	0.280000	0.441400	0.499700
C2481	C248	0.287110	0.428570	0.420330
C2491	C249	0.318430	0.431060	0.383410
H1651	H165	0.310100	0.422400	0.346200
C2501	C250	0.361720	0.445870	0.399440
H1661	H166	0.382500	0.446500	0.373500
C2511	C251	0.240130	0.410450	0.402340
C2521	C252	0.220510	0.372820	0.369380
H1671	H167	0.237700	0.359700	0.359100
H1681	H168	0.277600	0.509200	0.403500
O571	O57	0.113830	0.806960	0.767640
O581	O58	0.098570	0.821970	0.852530
C2531	C253	0.088540	0.808660	0.803550
C2541	C254	0.041460	0.792860	0.785600
C2551	C255	0.010280	0.790130	0.823310
H1691	H169	0.018570	0.798430	0.860630
C2561	C256	0.967410	0.775500	0.806950
H1701	H170	0.946670	0.774730	0.833030
C2571	C257	0.953780	0.761900	0.753660
C2581	C258	0.985100	0.764390	0.716740
H1711	H171	0.976770	0.755730	0.679530
C2591	C259	0.028390	0.779200	0.732770
H1721	H172	0.049170	0.779830	0.706830
C2601	C260	0.906800	0.743780	0.735670
C2611	C261	0.887180	0.706150	0.702710
H1731	H173	0.904370	0.693030	0.692430
H1741	H174	0.944270	0.842530	0.736830
O591	O59	0.780490	0.140300	0.100980
O601	O60	0.765230	0.155310	0.185870
C2621	C262	0.755200	0.142000	0.136890
C2631	C263	0.708120	0.126200	0.118940
C2641	C264	0.676940	0.123470	0.156650
H1751	H175	0.685230	0.131770	0.193970
C2651	C265	0.634070	0.108840	0.140290
H1761	H176	0.613330	0.108070	0.166370
C2661	C266	0.620440	0.095240	0.087000
C2671	C267	0.651760	0.097730	0.050080
H1771	H177	0.643430	0.089070	0.012870
C2681	C268	0.695050	0.112540	0.066110
H1781	H178	0.715830	0.113170	0.040170
C2691	C269	0.573460	0.077120	0.069010
C2701	C270	0.553840	0.039490	0.036050
H1791	H179	0.571030	0.026370	0.025770
H1801	H180	0.610930	0.175870	0.070170
O611	O61	0.026470	0.552840	0.434310
O621	O62	0.056740	0.568100	0.519200
C2711	C271	0.053460	0.578130	0.470220
C2721	C272	0.084740	0.625210	0.452270
C2731	C273	0.113190	0.656390	0.489980
H1811	H181	0.113200	0.648100	0.527300
C2741	C274	0.141430	0.699260	0.473620
H1821	H182	0.161400	0.720000	0.499700
C2751	C275	0.141460	0.712890	0.420330
C2761	C276	0.112630	0.681570	0.383410
H1831	H183	0.112300	0.689900	0.346200
C2771	C277	0.084150	0.638280	0.399440
H1841	H184	0.064000	0.617500	0.373500
C2781	C278	0.170320	0.759870	0.402340
C2791	C279	0.152310	0.779490	0.369380
H1851	H185	0.122000	0.762300	0.359100
H1861	H186	0.231600	0.722400	0.403500
O631	O63	0.693140	0.886170	0.767640
O641	O64	0.723410	0.901430	0.852530
C2801	C280	0.720130	0.911460	0.803550
C2811	C281	0.751410	0.958540	0.785600
C2821	C282	0.779860	0.989720	0.823310
H1871	H187	0.779870	0.981430	0.860630
C2831	C283	0.808100	0.032590	0.806950
H1881	H188	0.828070	0.053330	0.833030
C2841	C284	0.808130	0.046220	0.753660
C2851	C285	0.779300	0.014900	0.716740
H1891	H189	0.778970	0.023230	0.679530
C2861	C286	0.750820	0.971610	0.732770
H1901	H190	0.730670	0.950830	0.706830
C2871	C287	0.836990	0.093200	0.735670
C2881	C288	0.818980	0.112820	0.702710
H1911	H191	0.788670	0.095630	0.692430
H1921	H192	0.898270	0.055730	0.736830
O651	O65	0.359800	0.219510	0.100980
O661	O66	0.390070	0.234770	0.185870
C2891	C289	0.386790	0.244800	0.136890
C2901	C290	0.418070	0.291880	0.118940
C2911	C291	0.446520	0.323060	0.156650
H1931	H193	0.446530	0.314770	0.193970
C2921	C292	0.474760	0.365930	0.140290
H1941	H194	0.494730	0.386670	0.166370
C2931	C293	0.474790	0.379560	0.087000
C2941	C294	0.445960	0.348240	0.050080
H1951	H195	0.445630	0.356570	0.012870
C2951	C295	0.417480	0.304950	0.066110
H1961	H196	0.397330	0.284170	0.040170
C2961	C296	0.503650	0.426540	0.069010
C2971	C297	0.485640	0.446160	0.036050
H1971	H197	0.455330	0.428970	0.025770
H1981	H198	0.564930	0.389070	0.070170
O671	O67	0.526370	0.973530	0.434310
O681	O68	0.511360	0.943260	0.519200
C2981	C298	0.524670	0.946540	0.470220
C2991	C299	0.540470	0.915260	0.452270
C3001	C300	0.543200	0.886810	0.489980
H1991	H199	0.534900	0.886800	0.527300
C3011	C301	0.557830	0.858570	0.473620
H2001	H200	0.558600	0.838600	0.499700
C3021	C302	0.571430	0.858540	0.420330
C3031	C303	0.568940	0.887370	0.383410
H2011	H201	0.577600	0.887700	0.346200
C3041	C304	0.554130	0.915850	0.399440
H2021	H202	0.553500	0.936000	0.373500
C3051	C305	0.589550	0.829680	0.402340
C3061	C306	0.627180	0.847690	0.369380
H2031	H203	0.640300	0.878000	0.359100
H2041	H204	0.490800	0.768400	0.403500
O691	O69	0.193040	0.306860	0.767640
O701	O70	0.178030	0.276590	0.852530
C3071	C307	0.191340	0.279870	0.803550
C3081	C308	0.207140	0.248590	0.785600
C3091	C309	0.209870	0.220140	0.823310
H2051	H205	0.201570	0.220130	0.860630
C3101	C310	0.224500	0.191900	0.806950
H2061	H206	0.225270	0.171930	0.833030
C3111	C311	0.238100	0.191870	0.753660
C3121	C312	0.235610	0.220700	0.716740
H2071	H207	0.244270	0.221030	0.679530
C3131	C313	0.220800	0.249180	0.732770
H2081	H208	0.220170	0.269330	0.706830
C3141	C314	0.256220	0.163010	0.735670
C3151	C315	0.293850	0.181020	0.702710
H2091	H209	0.306970	0.211330	0.692430
H2101	H210	0.157470	0.101730	0.736830
O711	O71	0.859700	0.640200	0.100980
O721	O72	0.844690	0.609930	0.185870
C3161	C316	0.858000	0.613210	0.136890
C3171	C317	0.873800	0.581930	0.118940
C3181	C318	0.876530	0.553480	0.156650
H2111	H211	0.868230	0.553470	0.193970
C3191	C319	0.891160	0.525240	0.140290
H2121	H212	0.891930	0.505270	0.166370
C3201	C320	0.904760	0.525210	0.087000
C3211	C321	0.902270	0.554040	0.050080
H2131	H213	0.910930	0.554370	0.012870
C3221	C322	0.887460	0.582520	0.066110
H2141	H214	0.886830	0.602670	0.040170
C3231	C323	0.922880	0.496350	0.069010
C3241	C324	0.960510	0.514360	0.036050
H2151	H215	0.973630	0.544670	0.025770
H2161	H216	0.824130	0.435070	0.070170
Cu11	Cu1	0.508980	0.491020	0.450280
Cu21	Cu2	0.175650	0.824350	0.783610
Cu31	Cu3	0.842310	0.157690	0.116950
Cu41	Cu4	0.508980	0.017960	0.450280
Cu51	Cu5	0.175650	0.351290	0.783610
Cu61	Cu6	0.842310	0.684630	0.116950
Cu71	Cu7	0.982040	0.491020	0.450280
Cu81	Cu8	0.648710	0.824350	0.783610
Cu91	Cu9	0.315370	0.157690	0.116950
Cu101	Cu10	0.491020	0.508980	0.549720
Cu111	Cu11	0.157690	0.842310	0.883050
Cu121	Cu12	0.824350	0.175650	0.216390
Cu131	Cu13	0.017960	0.508980	0.549720
Cu141	Cu14	0.684630	0.842310	0.883050
Cu151	Cu15	0.351290	0.175650	0.216390
Cu161	Cu16	0.491020	0.982040	0.549720
Cu171	Cu17	0.157690	0.315370	0.883050
Cu181	Cu18	0.824350	0.648710	0.216390
O731	O73	0.533650	0.766830	0.452460
C3251	C325	0.646720	0.823360	0.350530
C3261	C326	0.570900	0.785450	0.419140
C3271	C327	0.493370	0.746690	0.426600
H2171	H217	0.469700	0.734850	0.454200
O741	O74	0.200320	0.100160	0.785790
C3281	C328	0.313390	0.156690	0.683860
C3291	C329	0.237570	0.118780	0.752470
C3301	C330	0.160040	0.080020	0.759930
H2181	H218	0.136370	0.068180	0.787530
O751	O75	0.866980	0.433490	0.119130
C3311	C331	0.980050	0.490030	0.017200
C3321	C332	0.904230	0.452120	0.085810
C3331	C333	0.826700	0.413350	0.093270
H2191	H219	0.803030	0.401520	0.120870
O761	O76	0.233170	0.766830	0.452460
C3341	C334	0.176640	0.823360	0.350530
C3351	C335	0.214550	0.785450	0.419140
C3361	C336	0.253310	0.746690	0.426600
H2201	H220	0.265150	0.734850	0.454200
O771	O77	0.899840	0.100160	0.785790
C3371	C337	0.843310	0.156690	0.683860
C3381	C338	0.881220	0.118780	0.752470
C3391	C339	0.919980	0.080020	0.759930
H2211	H221	0.931820	0.068180	0.787530
O781	O78	0.566510	0.433490	0.119130
C3401	C340	0.509970	0.490030	0.017200
C3411	C341	0.547880	0.452120	0.085810
C3421	C342	0.586650	0.413350	0.093270
H2221	H222	0.598480	0.401520	0.120870
O791	O79	0.233170	0.466350	0.452460
C3431	C343	0.176640	0.353280	0.350530
C3441	C344	0.214550	0.429100	0.419140
C3451	C345	0.253310	0.506630	0.426600
H2231	H223	0.265150	0.530300	0.454200
O801	O80	0.899840	0.799680	0.785790
C3461	C346	0.843310	0.686610	0.683860
C3471	C347	0.881220	0.762430	0.752470
C3481	C348	0.919980	0.839960	0.759930
H2241	H224	0.931820	0.863630	0.787530
O811	O81	0.566510	0.133020	0.119130
C3491	C349	0.509970	0.019950	0.017200
C3501	C350	0.547880	0.095770	0.085810
C3511	C351	0.586650	0.173300	0.093270
H2251	H225	0.598480	0.196970	0.120870
O821	O82	0.766830	0.533650	0.547540
C3521	C352	0.823360	0.646720	0.649470
C3531	C353	0.785450	0.570900	0.580860
C3541	C354	0.746690	0.493370	0.573400
H2261	H226	0.734850	0.469700	0.545800
O831	O83	0.433490	0.866980	0.880870
C3551	C355	0.490030	0.980050	0.982800
C3561	C356	0.452120	0.904230	0.914190
C3571	C357	0.413350	0.826700	0.906730
H2271	H227	0.401520	0.803030	0.879130
O841	O84	0.100160	0.200320	0.214210
C3581	C358	0.156690	0.313390	0.316140
C3591	C359	0.118780	0.237570	0.247530
C3601	C360	0.080020	0.160040	0.240070
H2281	H228	0.068180	0.136370	0.212470
O851	O85	0.766830	0.233170	0.547540
C3611	C361	0.823360	0.176640	0.649470
C3621	C362	0.785450	0.214550	0.580860
C3631	C363	0.746690	0.253310	0.573400
H2291	H229	0.734850	0.265150	0.545800
O861	O86	0.433490	0.566510	0.880870
C3641	C364	0.490030	0.509970	0.982800
C3651	C365	0.452120	0.547880	0.914190
C3661	C366	0.413350	0.586650	0.906730
H2301	H230	0.401520	0.598480	0.879130
O871	O87	0.100160	0.899840	0.214210
C3671	C367	0.156690	0.843310	0.316140
C3681	C368	0.118780	0.881220	0.247530
C3691	C369	0.080020	0.919980	0.240070
H2311	H231	0.068180	0.931820	0.212470
O881	O88	0.466350	0.233170	0.547540
C3701	C370	0.353280	0.176640	0.649470
C3711	C371	0.429100	0.214550	0.580860
C3721	C372	0.506630	0.253310	0.573400
H2321	H232	0.530300	0.265150	0.545800
O891	O89	0.133020	0.566510	0.880870
C3731	C373	0.019950	0.509970	0.982800
C3741	C374	0.095770	0.547880	0.914190
C3751	C375	0.173300	0.586650	0.906730
H2331	H233	0.196970	0.598480	0.879130
O901	O90	0.799680	0.899840	0.214210
C3761	C376	0.686610	0.843310	0.316140
C3771	C377	0.762430	0.881220	0.247530
C3781	C378	0.839960	0.919980	0.240070
H2341	H234	0.863630	0.931820	0.212470
