data_UMOBEF02_clean_PM
_symmetry_space_group_name_H-M	'P1'
_cell_length_a	35.067300
_cell_length_b	35.067300
_cell_length_c	22.397000
_cell_angle_alpha	90.000000
_cell_angle_beta	90.000000
_cell_angle_gamma	120.000000
_symmetry_Int_Tables_number 1

loop_
_symmetry_equiv_pos_as_xyz
'x,y,z'

loop_
_atom_site_label
_atom_site_type_symbol
_atom_site_fract_x
_atom_site_fract_y
_atom_site_fract_z
O11	O1	0.446940	0.474550	0.433140
O21	O2	0.432910	0.488990	0.521760
C11	C1	0.421760	0.475810	0.470300
C21	C2	0.375270	0.460430	0.453200
C31	C3	0.344730	0.458440	0.494600
H11	H1	0.352900	0.466400	0.534200
C41	C4	0.301840	0.444290	0.475900
H21	H2	0.282100	0.444600	0.503500
C51	C5	0.287440	0.430240	0.420300
C61	C6	0.318260	0.432410	0.379600
H31	H3	0.309700	0.423600	0.340400
C71	C7	0.361680	0.447390	0.396000
H41	H4	0.381700	0.448500	0.367800
C81	C8	0.240480	0.411660	0.402900
C91	C9	0.220450	0.373200	0.369600
H51	H5	0.237000	0.360300	0.358300
H61	H6	0.230600	0.505900	0.399100
O31	O3	0.113610	0.807880	0.766470
O41	O4	0.099580	0.822320	0.855090
C101	C10	0.088430	0.809140	0.803630
C111	C11	0.041940	0.793760	0.786530
C121	C12	0.011400	0.791770	0.827930
H71	H7	0.019570	0.799730	0.867530
C131	C13	0.968510	0.777620	0.809230
H81	H8	0.948770	0.777930	0.836830
C141	C14	0.954110	0.763570	0.753630
C151	C15	0.984930	0.765740	0.712930
H91	H9	0.976370	0.756930	0.673730
C161	C16	0.028350	0.780720	0.729330
H101	H10	0.048370	0.781830	0.701130
C171	C17	0.907150	0.744990	0.736230
C181	C18	0.887120	0.706530	0.702930
H111	H11	0.903670	0.693630	0.691630
H121	H12	0.897270	0.839230	0.732430
O51	O5	0.780270	0.141220	0.099810
O61	O6	0.766240	0.155660	0.188430
C191	C19	0.755090	0.142480	0.136970
C201	C20	0.708600	0.127100	0.119870
C211	C21	0.678060	0.125110	0.161270
H131	H13	0.686230	0.133070	0.200870
C221	C22	0.635170	0.110960	0.142570
H141	H14	0.615430	0.111270	0.170170
C231	C23	0.620770	0.096910	0.086970
C241	C24	0.651590	0.099080	0.046270
H151	H15	0.643030	0.090270	0.007070
C251	C25	0.695010	0.114060	0.062670
H161	H16	0.715030	0.115170	0.034470
C261	C26	0.573810	0.078330	0.069570
C271	C27	0.553780	0.039870	0.036270
H171	H17	0.570330	0.026970	0.024970
H181	H18	0.563930	0.172570	0.065770
O71	O7	0.525450	0.972390	0.433140
O81	O8	0.511010	0.943920	0.521760
C281	C28	0.524190	0.945950	0.470300
C291	C29	0.539570	0.914840	0.453200
C301	C30	0.541560	0.886290	0.494600
H191	H19	0.533600	0.886500	0.534200
C311	C31	0.555710	0.857550	0.475900
H201	H20	0.555400	0.837500	0.503500
C321	C32	0.569760	0.857200	0.420300
C331	C33	0.567590	0.885850	0.379600
H211	H21	0.576400	0.886100	0.340400
C341	C34	0.552610	0.914290	0.396000
H221	H22	0.551500	0.933200	0.367800
C351	C35	0.588340	0.828820	0.402900
C361	C36	0.626800	0.847250	0.369600
H231	H23	0.639700	0.876700	0.358300
H241	H24	0.494100	0.724700	0.399100
O91	O9	0.192120	0.305720	0.766470
O101	O10	0.177680	0.277250	0.855090
C371	C37	0.190860	0.279280	0.803630
C381	C38	0.206240	0.248170	0.786530
C391	C39	0.208230	0.219620	0.827930
H251	H25	0.200270	0.219830	0.867530
C401	C40	0.222380	0.190880	0.809230
H261	H26	0.222070	0.170830	0.836830
C411	C41	0.236430	0.190530	0.753630
C421	C42	0.234260	0.219180	0.712930
H271	H27	0.243070	0.219430	0.673730
C431	C43	0.219280	0.247620	0.729330
H281	H28	0.218170	0.266530	0.701130
C441	C44	0.255010	0.162150	0.736230
C451	C45	0.293470	0.180580	0.702930
H291	H29	0.306370	0.210030	0.691630
H301	H30	0.160770	0.058030	0.732430
O111	O11	0.858780	0.639060	0.099810
O121	O12	0.844340	0.610590	0.188430
C461	C46	0.857520	0.612620	0.136970
C471	C47	0.872900	0.581510	0.119870
C481	C48	0.874890	0.552960	0.161270
H311	H31	0.866930	0.553170	0.200870
C491	C49	0.889040	0.524220	0.142570
H321	H32	0.888730	0.504170	0.170170
C501	C50	0.903090	0.523870	0.086970
C511	C51	0.900920	0.552520	0.046270
H331	H33	0.909730	0.552770	0.007070
C521	C52	0.885940	0.580960	0.062670
H341	H34	0.884830	0.599870	0.034470
C531	C53	0.921670	0.495490	0.069570
C541	C54	0.960130	0.513920	0.036270
H351	H35	0.973030	0.543370	0.024970
H361	H36	0.827430	0.391370	0.065770
O131	O13	0.027610	0.553060	0.433140
O141	O14	0.056080	0.567090	0.521760
C551	C55	0.054050	0.578240	0.470300
C561	C56	0.085160	0.624730	0.453200
C571	C57	0.113710	0.655270	0.494600
H371	H37	0.113500	0.647100	0.534200
C581	C58	0.142450	0.698160	0.475900
H381	H38	0.162500	0.717900	0.503500
C591	C59	0.142800	0.712560	0.420300
C601	C60	0.114150	0.681740	0.379600
H391	H39	0.113900	0.690300	0.340400
C611	C61	0.085710	0.638320	0.396000
H401	H40	0.066800	0.618300	0.367800
C621	C62	0.171180	0.759520	0.402900
C631	C63	0.152750	0.779550	0.369600
H411	H41	0.123300	0.763000	0.358300
H421	H42	0.275300	0.769400	0.399100
O151	O15	0.694280	0.886390	0.766470
O161	O16	0.722750	0.900420	0.855090
C641	C64	0.720720	0.911570	0.803630
C651	C65	0.751830	0.958060	0.786530
C661	C66	0.780380	0.988600	0.827930
H431	H43	0.780170	0.980430	0.867530
C671	C67	0.809120	0.031490	0.809230
H441	H44	0.829170	0.051230	0.836830
C681	C68	0.809470	0.045890	0.753630
C691	C69	0.780820	0.015070	0.712930
H451	H45	0.780570	0.023630	0.673730
C701	C70	0.752380	0.971650	0.729330
H461	H46	0.733470	0.951630	0.701130
C711	C71	0.837850	0.092850	0.736230
C721	C72	0.819420	0.112880	0.702930
H471	H47	0.789970	0.096330	0.691630
H481	H48	0.941970	0.102730	0.732430
O171	O17	0.360940	0.219730	0.099810
O181	O18	0.389410	0.233760	0.188430
C731	C73	0.387380	0.244910	0.136970
C741	C74	0.418490	0.291400	0.119870
C751	C75	0.447040	0.321940	0.161270
H491	H49	0.446830	0.313770	0.200870
C761	C76	0.475780	0.364830	0.142570
H501	H50	0.495830	0.384570	0.170170
C771	C77	0.476130	0.379230	0.086970
C781	C78	0.447480	0.348410	0.046270
H511	H51	0.447230	0.356970	0.007070
C791	C79	0.419040	0.304990	0.062670
H521	H52	0.400130	0.284970	0.034470
C801	C80	0.504510	0.426190	0.069570
C811	C81	0.486080	0.446220	0.036270
H531	H53	0.456630	0.429670	0.024970
H541	H54	0.608630	0.436070	0.065770
O191	O19	0.474550	0.446940	0.566860
O201	O20	0.488990	0.432910	0.478240
C821	C82	0.475810	0.421760	0.529700
C831	C83	0.460430	0.375270	0.546800
C841	C84	0.458440	0.344730	0.505400
H551	H55	0.466400	0.352900	0.465800
C851	C85	0.444290	0.301840	0.524100
H561	H56	0.444600	0.282100	0.496500
C861	C86	0.430240	0.287440	0.579700
C871	C87	0.432410	0.318260	0.620400
H571	H57	0.423600	0.309700	0.659600
C881	C88	0.447390	0.361680	0.604000
H581	H58	0.448500	0.381700	0.632200
C891	C89	0.411660	0.240480	0.597100
C901	C90	0.373200	0.220450	0.630400
H591	H59	0.360300	0.237000	0.641700
H601	H60	0.505900	0.230600	0.600900
O211	O21	0.141220	0.780270	0.900190
O221	O22	0.155660	0.766240	0.811570
C911	C91	0.142480	0.755090	0.863030
C921	C92	0.127100	0.708600	0.880130
C931	C93	0.125110	0.678060	0.838730
H611	H61	0.133070	0.686230	0.799130
C941	C94	0.110960	0.635170	0.857430
H621	H62	0.111270	0.615430	0.829830
C951	C95	0.096910	0.620770	0.913030
C961	C96	0.099080	0.651590	0.953730
H631	H63	0.090270	0.643030	0.992930
C971	C97	0.114060	0.695010	0.937330
H641	H64	0.115170	0.715030	0.965530
C981	C98	0.078330	0.573810	0.930430
C991	C99	0.039870	0.553780	0.963730
H651	H65	0.026970	0.570330	0.975030
H661	H66	0.172570	0.563930	0.934230
O231	O23	0.807880	0.113610	0.233530
O241	O24	0.822320	0.099580	0.144910
C1001	C100	0.809140	0.088430	0.196370
C1011	C101	0.793760	0.041940	0.213470
C1021	C102	0.791770	0.011400	0.172070
H671	H67	0.799730	0.019570	0.132470
C1031	C103	0.777620	0.968510	0.190770
H681	H68	0.777930	0.948770	0.163170
C1041	C104	0.763570	0.954110	0.246370
C1051	C105	0.765740	0.984930	0.287070
H691	H69	0.756930	0.976370	0.326270
C1061	C106	0.780720	0.028350	0.270670
H701	H70	0.781830	0.048370	0.298870
C1071	C107	0.744990	0.907150	0.263770
C1081	C108	0.706530	0.887120	0.297070
H711	H71	0.693630	0.903670	0.308370
H721	H72	0.839230	0.897270	0.267570
O251	O25	0.972390	0.525450	0.566860
O261	O26	0.943920	0.511010	0.478240
C1091	C109	0.945950	0.524190	0.529700
C1101	C110	0.914840	0.539570	0.546800
C1111	C111	0.886290	0.541560	0.505400
H731	H73	0.886500	0.533600	0.465800
C1121	C112	0.857550	0.555710	0.524100
H741	H74	0.837500	0.555400	0.496500
C1131	C113	0.857200	0.569760	0.579700
C1141	C114	0.885850	0.567590	0.620400
H751	H75	0.886100	0.576400	0.659600
C1151	C115	0.914290	0.552610	0.604000
H761	H76	0.933200	0.551500	0.632200
C1161	C116	0.828820	0.588340	0.597100
C1171	C117	0.847250	0.626800	0.630400
H771	H77	0.876700	0.639700	0.641700
H781	H78	0.724700	0.494100	0.600900
O271	O27	0.639060	0.858780	0.900190
O281	O28	0.610590	0.844340	0.811570
C1181	C118	0.612620	0.857520	0.863030
C1191	C119	0.581510	0.872900	0.880130
C1201	C120	0.552960	0.874890	0.838730
H791	H79	0.553170	0.866930	0.799130
C1211	C121	0.524220	0.889040	0.857430
H801	H80	0.504170	0.888730	0.829830
C1221	C122	0.523870	0.903090	0.913030
C1231	C123	0.552520	0.900920	0.953730
H811	H81	0.552770	0.909730	0.992930
C1241	C124	0.580960	0.885940	0.937330
H821	H82	0.599870	0.884830	0.965530
C1251	C125	0.495490	0.921670	0.930430
C1261	C126	0.513920	0.960130	0.963730
H831	H83	0.543370	0.973030	0.975030
H841	H84	0.391370	0.827430	0.934230
O291	O29	0.305720	0.192120	0.233530
O301	O30	0.277250	0.177680	0.144910
C1271	C127	0.279280	0.190860	0.196370
C1281	C128	0.248170	0.206240	0.213470
C1291	C129	0.219620	0.208230	0.172070
H851	H85	0.219830	0.200270	0.132470
C1301	C130	0.190880	0.222380	0.190770
H861	H86	0.170830	0.222070	0.163170
C1311	C131	0.190530	0.236430	0.246370
C1321	C132	0.219180	0.234260	0.287070
H871	H87	0.219430	0.243070	0.326270
C1331	C133	0.247620	0.219280	0.270670
H881	H88	0.266530	0.218170	0.298870
C1341	C134	0.162150	0.255010	0.263770
C1351	C135	0.180580	0.293470	0.297070
H891	H89	0.210030	0.306370	0.308370
H901	H90	0.058030	0.160770	0.267570
O311	O31	0.553060	0.027610	0.566860
O321	O32	0.567090	0.056080	0.478240
C1361	C136	0.578240	0.054050	0.529700
C1371	C137	0.624730	0.085160	0.546800
C1381	C138	0.655270	0.113710	0.505400
H911	H91	0.647100	0.113500	0.465800
C1391	C139	0.698160	0.142450	0.524100
H921	H92	0.717900	0.162500	0.496500
C1401	C140	0.712560	0.142800	0.579700
C1411	C141	0.681740	0.114150	0.620400
H931	H93	0.690300	0.113900	0.659600
C1421	C142	0.638320	0.085710	0.604000
H941	H94	0.618300	0.066800	0.632200
C1431	C143	0.759520	0.171180	0.597100
C1441	C144	0.779550	0.152750	0.630400
H951	H95	0.763000	0.123300	0.641700
H961	H96	0.769400	0.275300	0.600900
O331	O33	0.219730	0.360940	0.900190
O341	O34	0.233760	0.389410	0.811570
C1451	C145	0.244910	0.387380	0.863030
C1461	C146	0.291400	0.418490	0.880130
C1471	C147	0.321940	0.447040	0.838730
H971	H97	0.313770	0.446830	0.799130
C1481	C148	0.364830	0.475780	0.857430
H981	H98	0.384570	0.495830	0.829830
C1491	C149	0.379230	0.476130	0.913030
C1501	C150	0.348410	0.447480	0.953730
H991	H99	0.356970	0.447230	0.992930
C1511	C151	0.304990	0.419040	0.937330
H1001	H100	0.284970	0.400130	0.965530
C1521	C152	0.426190	0.504510	0.930430
C1531	C153	0.446220	0.486080	0.963730
H1011	H101	0.429670	0.456630	0.975030
H1021	H102	0.436070	0.608630	0.934230
O351	O35	0.886390	0.694280	0.233530
O361	O36	0.900420	0.722750	0.144910
C1541	C154	0.911570	0.720720	0.196370
C1551	C155	0.958060	0.751830	0.213470
C1561	C156	0.988600	0.780380	0.172070
H1031	H103	0.980430	0.780170	0.132470
C1571	C157	0.031490	0.809120	0.190770
H1041	H104	0.051230	0.829170	0.163170
C1581	C158	0.045890	0.809470	0.246370
C1591	C159	0.015070	0.780820	0.287070
H1051	H105	0.023630	0.780570	0.326270
C1601	C160	0.971650	0.752380	0.270670
H1061	H106	0.951630	0.733470	0.298870
C1611	C161	0.092850	0.837850	0.263770
C1621	C162	0.112880	0.819420	0.297070
H1071	H107	0.096330	0.789970	0.308370
H1081	H108	0.102730	0.941970	0.267570
O371	O37	0.553060	0.525450	0.566860
O381	O38	0.567090	0.511010	0.478240
C1631	C163	0.578240	0.524190	0.529700
C1641	C164	0.624730	0.539570	0.546800
C1651	C165	0.655270	0.541560	0.505400
H1091	H109	0.647100	0.533600	0.465800
C1661	C166	0.698160	0.555710	0.524100
H1101	H110	0.717900	0.555400	0.496500
C1671	C167	0.712560	0.569760	0.579700
C1681	C168	0.681740	0.567590	0.620400
H1111	H111	0.690300	0.576400	0.659600
C1691	C169	0.638320	0.552610	0.604000
H1121	H112	0.618300	0.551500	0.632200
C1701	C170	0.759520	0.588340	0.597100
C1711	C171	0.779550	0.626800	0.630400
H1131	H113	0.763000	0.639700	0.641700
H1141	H114	0.769400	0.494100	0.600900
O391	O39	0.219730	0.858780	0.900190
O401	O40	0.233760	0.844340	0.811570
C1721	C172	0.244910	0.857520	0.863030
C1731	C173	0.291400	0.872900	0.880130
C1741	C174	0.321940	0.874890	0.838730
H1151	H115	0.313770	0.866930	0.799130
C1751	C175	0.364830	0.889040	0.857430
H1161	H116	0.384570	0.888730	0.829830
C1761	C176	0.379230	0.903090	0.913030
C1771	C177	0.348410	0.900920	0.953730
H1171	H117	0.356970	0.909730	0.992930
C1781	C178	0.304990	0.885940	0.937330
H1181	H118	0.284970	0.884830	0.965530
C1791	C179	0.426190	0.921670	0.930430
C1801	C180	0.446220	0.960130	0.963730
H1191	H119	0.429670	0.973030	0.975030
H1201	H120	0.436070	0.827430	0.934230
O411	O41	0.886390	0.192120	0.233530
O421	O42	0.900420	0.177680	0.144910
C1811	C181	0.911570	0.190860	0.196370
C1821	C182	0.958060	0.206240	0.213470
C1831	C183	0.988600	0.208230	0.172070
H1211	H121	0.980430	0.200270	0.132470
C1841	C184	0.031490	0.222380	0.190770
H1221	H122	0.051230	0.222070	0.163170
C1851	C185	0.045890	0.236430	0.246370
C1861	C186	0.015070	0.234260	0.287070
H1231	H123	0.023630	0.243070	0.326270
C1871	C187	0.971650	0.219280	0.270670
H1241	H124	0.951630	0.218170	0.298870
C1881	C188	0.092850	0.255010	0.263770
C1891	C189	0.112880	0.293470	0.297070
H1251	H125	0.096330	0.306370	0.308370
H1261	H126	0.102730	0.160770	0.267570
O431	O43	0.474550	0.027610	0.566860
O441	O44	0.488990	0.056080	0.478240
C1901	C190	0.475810	0.054050	0.529700
C1911	C191	0.460430	0.085160	0.546800
C1921	C192	0.458440	0.113710	0.505400
H1271	H127	0.466400	0.113500	0.465800
C1931	C193	0.444290	0.142450	0.524100
H1281	H128	0.444600	0.162500	0.496500
C1941	C194	0.430240	0.142800	0.579700
C1951	C195	0.432410	0.114150	0.620400
H1291	H129	0.423600	0.113900	0.659600
C1961	C196	0.447390	0.085710	0.604000
H1301	H130	0.448500	0.066800	0.632200
C1971	C197	0.411660	0.171180	0.597100
C1981	C198	0.373200	0.152750	0.630400
H1311	H131	0.360300	0.123300	0.641700
H1321	H132	0.505900	0.275300	0.600900
O451	O45	0.141220	0.360940	0.900190
O461	O46	0.155660	0.389410	0.811570
C1991	C199	0.142480	0.387380	0.863030
C2001	C200	0.127100	0.418490	0.880130
C2011	C201	0.125110	0.447040	0.838730
H1331	H133	0.133070	0.446830	0.799130
C2021	C202	0.110960	0.475780	0.857430
H1341	H134	0.111270	0.495830	0.829830
C2031	C203	0.096910	0.476130	0.913030
C2041	C204	0.099080	0.447480	0.953730
H1351	H135	0.090270	0.447230	0.992930
C2051	C205	0.114060	0.419040	0.937330
H1361	H136	0.115170	0.400130	0.965530
C2061	C206	0.078330	0.504510	0.930430
C2071	C207	0.039870	0.486080	0.963730
H1371	H137	0.026970	0.456630	0.975030
H1381	H138	0.172570	0.608630	0.934230
O471	O47	0.807880	0.694280	0.233530
O481	O48	0.822320	0.722750	0.144910
C2081	C208	0.809140	0.720720	0.196370
C2091	C209	0.793760	0.751830	0.213470
C2101	C210	0.791770	0.780380	0.172070
H1391	H139	0.799730	0.780170	0.132470
C2111	C211	0.777620	0.809120	0.190770
H1401	H140	0.777930	0.829170	0.163170
C2121	C212	0.763570	0.809470	0.246370
C2131	C213	0.765740	0.780820	0.287070
H1411	H141	0.756930	0.780570	0.326270
C2141	C214	0.780720	0.752380	0.270670
H1421	H142	0.781830	0.733470	0.298870
C2151	C215	0.744990	0.837850	0.263770
C2161	C216	0.706530	0.819420	0.297070
H1431	H143	0.693630	0.789970	0.308370
H1441	H144	0.839230	0.941970	0.267570
O491	O49	0.972390	0.446940	0.566860
O501	O50	0.943920	0.432910	0.478240
C2171	C217	0.945950	0.421760	0.529700
C2181	C218	0.914840	0.375270	0.546800
C2191	C219	0.886290	0.344730	0.505400
H1451	H145	0.886500	0.352900	0.465800
C2201	C220	0.857550	0.301840	0.524100
H1461	H146	0.837500	0.282100	0.496500
C2211	C221	0.857200	0.287440	0.579700
C2221	C222	0.885850	0.318260	0.620400
H1471	H147	0.886100	0.309700	0.659600
C2231	C223	0.914290	0.361680	0.604000
H1481	H148	0.933200	0.381700	0.632200
C2241	C224	0.828820	0.240480	0.597100
C2251	C225	0.847250	0.220450	0.630400
H1491	H149	0.876700	0.237000	0.641700
H1501	H150	0.724700	0.230600	0.600900
O511	O51	0.639060	0.780270	0.900190
O521	O52	0.610590	0.766240	0.811570
C2261	C226	0.612620	0.755090	0.863030
C2271	C227	0.581510	0.708600	0.880130
C2281	C228	0.552960	0.678060	0.838730
H1511	H151	0.553170	0.686230	0.799130
C2291	C229	0.524220	0.635170	0.857430
H1521	H152	0.504170	0.615430	0.829830
C2301	C230	0.523870	0.620770	0.913030
C2311	C231	0.552520	0.651590	0.953730
H1531	H153	0.552770	0.643030	0.992930
C2321	C232	0.580960	0.695010	0.937330
H1541	H154	0.599870	0.715030	0.965530
C2331	C233	0.495490	0.573810	0.930430
C2341	C234	0.513920	0.553780	0.963730
H1551	H155	0.543370	0.570330	0.975030
H1561	H156	0.391370	0.563930	0.934230
O531	O53	0.305720	0.113610	0.233530
O541	O54	0.277250	0.099580	0.144910
C2351	C235	0.279280	0.088430	0.196370
C2361	C236	0.248170	0.041940	0.213470
C2371	C237	0.219620	0.011400	0.172070
H1571	H157	0.219830	0.019570	0.132470
C2381	C238	0.190880	0.968510	0.190770
H1581	H158	0.170830	0.948770	0.163170
C2391	C239	0.190530	0.954110	0.246370
C2401	C240	0.219180	0.984930	0.287070
H1591	H159	0.219430	0.976370	0.326270
C2411	C241	0.247620	0.028350	0.270670
H1601	H160	0.266530	0.048370	0.298870
C2421	C242	0.162150	0.907150	0.263770
C2431	C243	0.180580	0.887120	0.297070
H1611	H161	0.210030	0.903670	0.308370
H1621	H162	0.058030	0.897270	0.267570
O551	O55	0.525450	0.553060	0.433140
O561	O56	0.511010	0.567090	0.521760
C2441	C244	0.524190	0.578240	0.470300
C2451	C245	0.539570	0.624730	0.453200
C2461	C246	0.541560	0.655270	0.494600
H1631	H163	0.533600	0.647100	0.534200
C2471	C247	0.555710	0.698160	0.475900
H1641	H164	0.555400	0.717900	0.503500
C2481	C248	0.569760	0.712560	0.420300
C2491	C249	0.567590	0.681740	0.379600
H1651	H165	0.576400	0.690300	0.340400
C2501	C250	0.552610	0.638320	0.396000
H1661	H166	0.551500	0.618300	0.367800
C2511	C251	0.588340	0.759520	0.402900
C2521	C252	0.626800	0.779550	0.369600
H1671	H167	0.639700	0.763000	0.358300
H1681	H168	0.494100	0.769400	0.399100
O571	O57	0.192120	0.886390	0.766470
O581	O58	0.177680	0.900420	0.855090
C2531	C253	0.190860	0.911570	0.803630
C2541	C254	0.206240	0.958060	0.786530
C2551	C255	0.208230	0.988600	0.827930
H1691	H169	0.200270	0.980430	0.867530
C2561	C256	0.222380	0.031490	0.809230
H1701	H170	0.222070	0.051230	0.836830
C2571	C257	0.236430	0.045890	0.753630
C2581	C258	0.234260	0.015070	0.712930
H1711	H171	0.243070	0.023630	0.673730
C2591	C259	0.219280	0.971650	0.729330
H1721	H172	0.218170	0.951630	0.701130
C2601	C260	0.255010	0.092850	0.736230
C2611	C261	0.293470	0.112880	0.702930
H1731	H173	0.306370	0.096330	0.691630
H1741	H174	0.160770	0.102730	0.732430
O591	O59	0.858780	0.219730	0.099810
O601	O60	0.844340	0.233760	0.188430
C2621	C262	0.857520	0.244910	0.136970
C2631	C263	0.872900	0.291400	0.119870
C2641	C264	0.874890	0.321940	0.161270
H1751	H175	0.866930	0.313770	0.200870
C2651	C265	0.889040	0.364830	0.142570
H1761	H176	0.888730	0.384570	0.170170
C2661	C266	0.903090	0.379230	0.086970
C2671	C267	0.900920	0.348410	0.046270
H1771	H177	0.909730	0.356970	0.007070
C2681	C268	0.885940	0.304990	0.062670
H1781	H178	0.884830	0.284970	0.034470
C2691	C269	0.921670	0.426190	0.069570
C2701	C270	0.960130	0.446220	0.036270
H1791	H179	0.973030	0.429670	0.024970
H1801	H180	0.827430	0.436070	0.065770
O611	O61	0.027610	0.474550	0.433140
O621	O62	0.056080	0.488990	0.521760
C2711	C271	0.054050	0.475810	0.470300
C2721	C272	0.085160	0.460430	0.453200
C2731	C273	0.113710	0.458440	0.494600
H1811	H181	0.113500	0.466400	0.534200
C2741	C274	0.142450	0.444290	0.475900
H1821	H182	0.162500	0.444600	0.503500
C2751	C275	0.142800	0.430240	0.420300
C2761	C276	0.114150	0.432410	0.379600
H1831	H183	0.113900	0.423600	0.340400
C2771	C277	0.085710	0.447390	0.396000
H1841	H184	0.066800	0.448500	0.367800
C2781	C278	0.171180	0.411660	0.402900
C2791	C279	0.152750	0.373200	0.369600
H1851	H185	0.123300	0.360300	0.358300
H1861	H186	0.275300	0.505900	0.399100
O631	O63	0.694280	0.807880	0.766470
O641	O64	0.722750	0.822320	0.855090
C2801	C280	0.720720	0.809140	0.803630
C2811	C281	0.751830	0.793760	0.786530
C2821	C282	0.780380	0.791770	0.827930
H1871	H187	0.780170	0.799730	0.867530
C2831	C283	0.809120	0.777620	0.809230
H1881	H188	0.829170	0.777930	0.836830
C2841	C284	0.809470	0.763570	0.753630
C2851	C285	0.780820	0.765740	0.712930
H1891	H189	0.780570	0.756930	0.673730
C2861	C286	0.752380	0.780720	0.729330
H1901	H190	0.733470	0.781830	0.701130
C2871	C287	0.837850	0.744990	0.736230
C2881	C288	0.819420	0.706530	0.702930
H1911	H191	0.789970	0.693630	0.691630
H1921	H192	0.941970	0.839230	0.732430
O651	O65	0.360940	0.141220	0.099810
O661	O66	0.389410	0.155660	0.188430
C2891	C289	0.387380	0.142480	0.136970
C2901	C290	0.418490	0.127100	0.119870
C2911	C291	0.447040	0.125110	0.161270
H1931	H193	0.446830	0.133070	0.200870
C2921	C292	0.475780	0.110960	0.142570
H1941	H194	0.495830	0.111270	0.170170
C2931	C293	0.476130	0.096910	0.086970
C2941	C294	0.447480	0.099080	0.046270
H1951	H195	0.447230	0.090270	0.007070
C2951	C295	0.419040	0.114060	0.062670
H1961	H196	0.400130	0.115170	0.034470
C2961	C296	0.504510	0.078330	0.069570
C2971	C297	0.486080	0.039870	0.036270
H1971	H197	0.456630	0.026970	0.024970
H1981	H198	0.608630	0.172570	0.065770
O671	O67	0.446940	0.972390	0.433140
O681	O68	0.432910	0.943920	0.521760
C2981	C298	0.421760	0.945950	0.470300
C2991	C299	0.375270	0.914840	0.453200
C3001	C300	0.344730	0.886290	0.494600
H1991	H199	0.352900	0.886500	0.534200
C3011	C301	0.301840	0.857550	0.475900
H2001	H200	0.282100	0.837500	0.503500
C3021	C302	0.287440	0.857200	0.420300
C3031	C303	0.318260	0.885850	0.379600
H2011	H201	0.309700	0.886100	0.340400
C3041	C304	0.361680	0.914290	0.396000
H2021	H202	0.381700	0.933200	0.367800
C3051	C305	0.240480	0.828820	0.402900
C3061	C306	0.220450	0.847250	0.369600
H2031	H203	0.237000	0.876700	0.358300
H2041	H204	0.230600	0.724700	0.399100
O691	O69	0.113610	0.305720	0.766470
O701	O70	0.099580	0.277250	0.855090
C3071	C307	0.088430	0.279280	0.803630
C3081	C308	0.041940	0.248170	0.786530
C3091	C309	0.011400	0.219620	0.827930
H2051	H205	0.019570	0.219830	0.867530
C3101	C310	0.968510	0.190880	0.809230
H2061	H206	0.948770	0.170830	0.836830
C3111	C311	0.954110	0.190530	0.753630
C3121	C312	0.984930	0.219180	0.712930
H2071	H207	0.976370	0.219430	0.673730
C3131	C313	0.028350	0.247620	0.729330
H2081	H208	0.048370	0.266530	0.701130
C3141	C314	0.907150	0.162150	0.736230
C3151	C315	0.887120	0.180580	0.702930
H2091	H209	0.903670	0.210030	0.691630
H2101	H210	0.897270	0.058030	0.732430
O711	O71	0.780270	0.639060	0.099810
O721	O72	0.766240	0.610590	0.188430
C3161	C316	0.755090	0.612620	0.136970
C3171	C317	0.708600	0.581510	0.119870
C3181	C318	0.678060	0.552960	0.161270
H2111	H211	0.686230	0.553170	0.200870
C3191	C319	0.635170	0.524220	0.142570
H2121	H212	0.615430	0.504170	0.170170
C3201	C320	0.620770	0.523870	0.086970
C3211	C321	0.651590	0.552520	0.046270
H2131	H213	0.643030	0.552770	0.007070
C3221	C322	0.695010	0.580960	0.062670
H2141	H214	0.715030	0.599870	0.034470
C3231	C323	0.573810	0.495490	0.069570
C3241	C324	0.553780	0.513920	0.036270
H2151	H215	0.570330	0.543370	0.024970
H2161	H216	0.563930	0.391370	0.065770
Cu11	Cu1	0.491530	0.508470	0.553130
Cu21	Cu2	0.158200	0.841800	0.886460
Cu31	Cu3	0.824860	0.175140	0.219800
Cu41	Cu4	0.491530	0.983060	0.553130
Cu51	Cu5	0.158200	0.316390	0.886460
Cu61	Cu6	0.824860	0.649730	0.219800
Cu71	Cu7	0.016940	0.508470	0.553130
Cu81	Cu8	0.683610	0.841800	0.886460
Cu91	Cu9	0.350270	0.175140	0.219800
Cu101	Cu10	0.508470	0.491530	0.446870
Cu111	Cu11	0.175140	0.824860	0.780200
Cu121	Cu12	0.841800	0.158200	0.113540
Cu131	Cu13	0.983060	0.491530	0.446870
Cu141	Cu14	0.649730	0.824860	0.780200
Cu151	Cu15	0.316390	0.158200	0.113540
Cu161	Cu16	0.508470	0.016940	0.446870
Cu171	Cu17	0.175140	0.350270	0.780200
Cu181	Cu18	0.841800	0.683610	0.113540
O731	O73	0.233900	0.467800	0.457200
C3251	C325	0.176660	0.353320	0.352600
C3261	C326	0.215240	0.430480	0.417600
C3271	C327	0.252650	0.505300	0.423800
H2171	H217	0.265200	0.530400	0.449800
O741	O74	0.900570	0.801130	0.790530
C3281	C328	0.843330	0.686650	0.685930
C3291	C329	0.881910	0.763810	0.750930
C3301	C330	0.919320	0.838630	0.757130
H2181	H218	0.931870	0.863730	0.783130
O751	O75	0.567230	0.134470	0.123870
C3311	C331	0.509990	0.019990	0.019270
C3321	C332	0.548570	0.097150	0.084270
C3331	C333	0.585980	0.171970	0.090470
H2191	H219	0.598530	0.197070	0.116470
O761	O76	0.532200	0.766100	0.457200
C3341	C334	0.646680	0.823340	0.352600
C3351	C335	0.569520	0.784760	0.417600
C3361	C336	0.494700	0.747350	0.423800
H2201	H220	0.469600	0.734800	0.449800
O771	O77	0.198870	0.099430	0.790530
C3371	C337	0.313350	0.156670	0.685930
C3381	C338	0.236190	0.118090	0.750930
C3391	C339	0.161370	0.080680	0.757130
H2211	H221	0.136270	0.068130	0.783130
O781	O78	0.865530	0.432770	0.123870
C3401	C340	0.980010	0.490010	0.019270
C3411	C341	0.902850	0.451430	0.084270
C3421	C342	0.828030	0.414020	0.090470
H2221	H222	0.802930	0.401470	0.116470
O791	O79	0.233900	0.766100	0.457200
C3431	C343	0.176660	0.823340	0.352600
C3441	C344	0.215240	0.784760	0.417600
C3451	C345	0.252650	0.747350	0.423800
H2231	H223	0.265200	0.734800	0.449800
O801	O80	0.900570	0.099430	0.790530
C3461	C346	0.843330	0.156670	0.685930
C3471	C347	0.881910	0.118090	0.750930
C3481	C348	0.919320	0.080680	0.757130
H2241	H224	0.931870	0.068130	0.783130
O811	O81	0.567230	0.432770	0.123870
C3491	C349	0.509990	0.490010	0.019270
C3501	C350	0.548570	0.451430	0.084270
C3511	C351	0.585980	0.414020	0.090470
H2251	H225	0.598530	0.401470	0.116470
O821	O82	0.467800	0.233900	0.542800
C3521	C352	0.353320	0.176660	0.647400
C3531	C353	0.430480	0.215240	0.582400
C3541	C354	0.505300	0.252650	0.576200
H2261	H226	0.530400	0.265200	0.550200
O831	O83	0.134470	0.567230	0.876130
C3551	C355	0.019990	0.509990	0.980730
C3561	C356	0.097150	0.548570	0.915730
C3571	C357	0.171970	0.585980	0.909530
H2271	H227	0.197070	0.598530	0.883530
O841	O84	0.801130	0.900570	0.209470
C3581	C358	0.686650	0.843330	0.314070
C3591	C359	0.763810	0.881910	0.249070
C3601	C360	0.838630	0.919320	0.242870
H2281	H228	0.863730	0.931870	0.216870
O851	O85	0.766100	0.532200	0.542800
C3611	C361	0.823340	0.646680	0.647400
C3621	C362	0.784760	0.569520	0.582400
C3631	C363	0.747350	0.494700	0.576200
H2291	H229	0.734800	0.469600	0.550200
O861	O86	0.432770	0.865530	0.876130
C3641	C364	0.490010	0.980010	0.980730
C3651	C365	0.451430	0.902850	0.915730
C3661	C366	0.414020	0.828030	0.909530
H2301	H230	0.401470	0.802930	0.883530
O871	O87	0.099430	0.198870	0.209470
C3671	C367	0.156670	0.313350	0.314070
C3681	C368	0.118090	0.236190	0.249070
C3691	C369	0.080680	0.161370	0.242870
H2311	H231	0.068130	0.136270	0.216870
O881	O88	0.766100	0.233900	0.542800
C3701	C370	0.823340	0.176660	0.647400
C3711	C371	0.784760	0.215240	0.582400
C3721	C372	0.747350	0.252650	0.576200
H2321	H232	0.734800	0.265200	0.550200
O891	O89	0.432770	0.567230	0.876130
C3731	C373	0.490010	0.509990	0.980730
C3741	C374	0.451430	0.548570	0.915730
C3751	C375	0.414020	0.585980	0.909530
H2331	H233	0.401470	0.598530	0.883530
O901	O90	0.099430	0.900570	0.209470
C3761	C376	0.156670	0.843330	0.314070
C3771	C377	0.118090	0.881910	0.249070
C3781	C378	0.080680	0.919320	0.242870
H2341	H234	0.068130	0.931870	0.216870
