data_UMOBEF06_clean_PM
_symmetry_space_group_name_H-M	'P1'
_cell_length_a	35.834100
_cell_length_b	35.834100
_cell_length_c	15.590300
_cell_angle_alpha	90.000000
_cell_angle_beta	90.000000
_cell_angle_gamma	120.000000
_symmetry_Int_Tables_number 1

loop_
_symmetry_equiv_pos_as_xyz
'x,y,z'

loop_
_atom_site_label
_atom_site_type_symbol
_atom_site_fract_x
_atom_site_fract_y
_atom_site_fract_z
O11	O1	0.557650	0.038060	0.576930
O21	O2	0.564020	0.050720	0.435080
C11	C1	0.578450	0.057050	0.509300
C21	C2	0.625430	0.089130	0.523500
C31	C3	0.652720	0.109260	0.456800
H11	H1	0.641900	0.103600	0.399800
C41	C4	0.696210	0.138010	0.470900
H21	H2	0.714400	0.152600	0.423600
C51	C5	0.713230	0.145570	0.552200
C61	C6	0.685360	0.126350	0.619600
H31	H3	0.696100	0.132100	0.676700
C71	C7	0.641700	0.098580	0.605600
H41	H4	0.622900	0.086000	0.653100
C81	C8	0.760380	0.172380	0.569800
C91	C9	0.780020	0.153950	0.617100
H51	H5	0.763300	0.124500	0.633100
H61	H6	0.769800	0.274900	0.595600
O31	O3	0.224320	0.371390	0.910260
O41	O4	0.230690	0.384050	0.768410
C101	C10	0.245120	0.390380	0.842630
C111	C11	0.292100	0.422460	0.856830
C121	C12	0.319390	0.442590	0.790130
H71	H7	0.308570	0.436930	0.733130
C131	C13	0.362880	0.471340	0.804230
H81	H8	0.381070	0.485930	0.756930
C141	C14	0.379900	0.478900	0.885530
C151	C15	0.352030	0.459680	0.952930
H91	H9	0.362770	0.465430	0.010030
C161	C16	0.308370	0.431910	0.938930
H101	H10	0.289570	0.419330	0.986430
C171	C17	0.427050	0.505710	0.903130
C181	C18	0.446690	0.487280	0.950430
H111	H11	0.429970	0.457830	0.966430
H121	H12	0.436470	0.608230	0.928930
O51	O5	0.890980	0.704730	0.243600
O61	O6	0.897350	0.717390	0.101750
C191	C19	0.911780	0.723720	0.175970
C201	C20	0.958760	0.755800	0.190170
C211	C21	0.986050	0.775930	0.123470
H131	H13	0.975230	0.770270	0.066470
C221	C22	0.029540	0.804680	0.137570
H141	H14	0.047730	0.819270	0.090270
C231	C23	0.046560	0.812240	0.218870
C241	C24	0.018690	0.793020	0.286270
H151	H15	0.029430	0.798770	0.343370
C251	C25	0.975030	0.765250	0.272270
H161	H16	0.956230	0.752670	0.319770
C261	C26	0.093710	0.839050	0.236470
C271	C27	0.113350	0.820620	0.283770
H171	H17	0.096630	0.791170	0.299770
H181	H18	0.103130	0.941570	0.262270
O71	O7	0.961940	0.519590	0.576930
O81	O8	0.949280	0.513300	0.435080
C281	C28	0.942950	0.521400	0.509300
C291	C29	0.910870	0.536300	0.523500
C301	C30	0.890740	0.543460	0.456800
H191	H19	0.896400	0.538300	0.399800
C311	C31	0.861990	0.558200	0.470900
H201	H20	0.847400	0.561800	0.423600
C321	C32	0.854430	0.567660	0.552200
C331	C33	0.873650	0.559010	0.619600
H211	H21	0.867900	0.564000	0.676700
C341	C34	0.901420	0.543120	0.605600
H221	H22	0.914000	0.536900	0.653100
C351	C35	0.827620	0.588000	0.569800
C361	C36	0.846050	0.626070	0.617100
H231	H23	0.875500	0.638800	0.633100
H241	H24	0.725100	0.494900	0.595600
O91	O9	0.628610	0.852920	0.910260
O101	O10	0.615950	0.846630	0.768410
C371	C37	0.609620	0.854730	0.842630
C381	C38	0.577540	0.869630	0.856830
C391	C39	0.557410	0.876790	0.790130
H251	H25	0.563070	0.871630	0.733130
C401	C40	0.528660	0.891530	0.804230
H261	H26	0.514070	0.895130	0.756930
C411	C41	0.521100	0.900990	0.885530
C421	C42	0.540320	0.892340	0.952930
H271	H27	0.534570	0.897330	0.010030
C431	C43	0.568090	0.876450	0.938930
H281	H28	0.580670	0.870230	0.986430
C441	C44	0.494290	0.921330	0.903130
C451	C45	0.512720	0.959400	0.950430
H291	H29	0.542170	0.972130	0.966430
H301	H30	0.391770	0.828230	0.928930
O111	O11	0.295270	0.186260	0.243600
O121	O12	0.282610	0.179970	0.101750
C461	C46	0.276280	0.188070	0.175970
C471	C47	0.244200	0.202970	0.190170
C481	C48	0.224070	0.210130	0.123470
H311	H31	0.229730	0.204970	0.066470
C491	C49	0.195320	0.224870	0.137570
H321	H32	0.180730	0.228470	0.090270
C501	C50	0.187760	0.234330	0.218870
C511	C51	0.206980	0.225680	0.286270
H331	H33	0.201230	0.230670	0.343370
C521	C52	0.234750	0.209790	0.272270
H341	H34	0.247330	0.203570	0.319770
C531	C53	0.160950	0.254670	0.236470
C541	C54	0.179380	0.292740	0.283770
H351	H35	0.208830	0.305470	0.299770
H361	H36	0.058430	0.161570	0.262270
O131	O13	0.480410	0.442350	0.576930
O141	O14	0.486700	0.435980	0.435080
C551	C55	0.478600	0.421550	0.509300
C561	C56	0.463700	0.374570	0.523500
C571	C57	0.456540	0.347280	0.456800
H371	H37	0.461700	0.358100	0.399800
C581	C58	0.441800	0.303790	0.470900
H381	H38	0.438200	0.285600	0.423600
C591	C59	0.432340	0.286770	0.552200
C601	C60	0.440990	0.314640	0.619600
H391	H39	0.436000	0.303900	0.676700
C611	C61	0.456880	0.358300	0.605600
H401	H40	0.463100	0.377100	0.653100
C621	C62	0.412000	0.239620	0.569800
C631	C63	0.373930	0.219980	0.617100
H411	H41	0.361200	0.236700	0.633100
H421	H42	0.505100	0.230200	0.595600
O151	O15	0.147080	0.775680	0.910260
O161	O16	0.153370	0.769310	0.768410
C641	C64	0.145270	0.754880	0.842630
C651	C65	0.130370	0.707900	0.856830
C661	C66	0.123210	0.680610	0.790130
H431	H43	0.128370	0.691430	0.733130
C671	C67	0.108470	0.637120	0.804230
H441	H44	0.104870	0.618930	0.756930
C681	C68	0.099010	0.620100	0.885530
C691	C69	0.107660	0.647970	0.952930
H451	H45	0.102670	0.637230	0.010030
C701	C70	0.123550	0.691630	0.938930
H461	H46	0.129770	0.710430	0.986430
C711	C71	0.078670	0.572950	0.903130
C721	C72	0.040600	0.553310	0.950430
H471	H47	0.027870	0.570030	0.966430
H481	H48	0.171770	0.563530	0.928930
O171	O17	0.813740	0.109020	0.243600
O181	O18	0.820030	0.102650	0.101750
C731	C73	0.811930	0.088220	0.175970
C741	C74	0.797030	0.041240	0.190170
C751	C75	0.789870	0.013950	0.123470
H491	H49	0.795030	0.024770	0.066470
C761	C76	0.775130	0.970460	0.137570
H501	H50	0.771530	0.952270	0.090270
C771	C77	0.765670	0.953440	0.218870
C781	C78	0.774320	0.981310	0.286270
H511	H51	0.769330	0.970570	0.343370
C791	C79	0.790210	0.024970	0.272270
H521	H52	0.796430	0.043770	0.319770
C801	C80	0.745330	0.906290	0.236470
C811	C81	0.707260	0.886650	0.283770
H531	H53	0.694530	0.903370	0.299770
H541	H54	0.838430	0.896870	0.262270
O191	O19	0.038060	0.557650	0.423070
O201	O20	0.050720	0.564020	0.564920
C821	C82	0.057050	0.578450	0.490700
C831	C83	0.089130	0.625430	0.476500
C841	C84	0.109260	0.652720	0.543200
H551	H55	0.103600	0.641900	0.600200
C851	C85	0.138010	0.696210	0.529100
H561	H56	0.152600	0.714400	0.576400
C861	C86	0.145570	0.713230	0.447800
C871	C87	0.126350	0.685360	0.380400
H571	H57	0.132100	0.696100	0.323300
C881	C88	0.098580	0.641700	0.394400
H581	H58	0.086000	0.622900	0.346900
C891	C89	0.172380	0.760380	0.430200
C901	C90	0.153950	0.780020	0.382900
H591	H59	0.124500	0.763300	0.366900
H601	H60	0.274900	0.769800	0.404400
O211	O21	0.704730	0.890980	0.756400
O221	O22	0.717390	0.897350	0.898250
C911	C91	0.723720	0.911780	0.824030
C921	C92	0.755800	0.958760	0.809830
C931	C93	0.775930	0.986050	0.876530
H611	H61	0.770270	0.975230	0.933530
C941	C94	0.804680	0.029540	0.862430
H621	H62	0.819270	0.047730	0.909730
C951	C95	0.812240	0.046560	0.781130
C961	C96	0.793020	0.018690	0.713730
H631	H63	0.798770	0.029430	0.656630
C971	C97	0.765250	0.975030	0.727730
H641	H64	0.752670	0.956230	0.680230
C981	C98	0.839050	0.093710	0.763530
C991	C99	0.820620	0.113350	0.716230
H651	H65	0.791170	0.096630	0.700230
H661	H66	0.941570	0.103130	0.737730
O231	O23	0.371390	0.224320	0.089740
O241	O24	0.384050	0.230690	0.231590
C1001	C100	0.390380	0.245120	0.157370
C1011	C101	0.422460	0.292100	0.143170
C1021	C102	0.442590	0.319390	0.209870
H671	H67	0.436930	0.308570	0.266870
C1031	C103	0.471340	0.362880	0.195770
H681	H68	0.485930	0.381070	0.243070
C1041	C104	0.478900	0.379900	0.114470
C1051	C105	0.459680	0.352030	0.047070
H691	H69	0.465430	0.362770	0.989970
C1061	C106	0.431910	0.308370	0.061070
H701	H70	0.419330	0.289570	0.013570
C1071	C107	0.505710	0.427050	0.096870
C1081	C108	0.487280	0.446690	0.049570
H711	H71	0.457830	0.429970	0.033570
H721	H72	0.608230	0.436470	0.071070
O251	O25	0.519590	0.961940	0.423070
O261	O26	0.513300	0.949280	0.564920
C1091	C109	0.521400	0.942950	0.490700
C1101	C110	0.536300	0.910870	0.476500
C1111	C111	0.543460	0.890740	0.543200
H731	H73	0.538300	0.896400	0.600200
C1121	C112	0.558200	0.861990	0.529100
H741	H74	0.561800	0.847400	0.576400
C1131	C113	0.567660	0.854430	0.447800
C1141	C114	0.559010	0.873650	0.380400
H751	H75	0.564000	0.867900	0.323300
C1151	C115	0.543120	0.901420	0.394400
H761	H76	0.536900	0.914000	0.346900
C1161	C116	0.588000	0.827620	0.430200
C1171	C117	0.626070	0.846050	0.382900
H771	H77	0.638800	0.875500	0.366900
H781	H78	0.494900	0.725100	0.404400
O271	O27	0.186260	0.295270	0.756400
O281	O28	0.179970	0.282610	0.898250
C1181	C118	0.188070	0.276280	0.824030
C1191	C119	0.202970	0.244200	0.809830
C1201	C120	0.210130	0.224070	0.876530
H791	H79	0.204970	0.229730	0.933530
C1211	C121	0.224870	0.195320	0.862430
H801	H80	0.228470	0.180730	0.909730
C1221	C122	0.234330	0.187760	0.781130
C1231	C123	0.225680	0.206980	0.713730
H811	H81	0.230670	0.201230	0.656630
C1241	C124	0.209790	0.234750	0.727730
H821	H82	0.203570	0.247330	0.680230
C1251	C125	0.254670	0.160950	0.763530
C1261	C126	0.292740	0.179380	0.716230
H831	H83	0.305470	0.208830	0.700230
H841	H84	0.161570	0.058430	0.737730
O291	O29	0.852920	0.628610	0.089740
O301	O30	0.846630	0.615950	0.231590
C1271	C127	0.854730	0.609620	0.157370
C1281	C128	0.869630	0.577540	0.143170
C1291	C129	0.876790	0.557410	0.209870
H851	H85	0.871630	0.563070	0.266870
C1301	C130	0.891530	0.528660	0.195770
H861	H86	0.895130	0.514070	0.243070
C1311	C131	0.900990	0.521100	0.114470
C1321	C132	0.892340	0.540320	0.047070
H871	H87	0.897330	0.534570	0.989970
C1331	C133	0.876450	0.568090	0.061070
H881	H88	0.870230	0.580670	0.013570
C1341	C134	0.921330	0.494290	0.096870
C1351	C135	0.959400	0.512720	0.049570
H891	H89	0.972130	0.542170	0.033570
H901	H90	0.828230	0.391770	0.071070
O311	O31	0.442350	0.480410	0.423070
O321	O32	0.435980	0.486700	0.564920
C1361	C136	0.421550	0.478600	0.490700
C1371	C137	0.374570	0.463700	0.476500
C1381	C138	0.347280	0.456540	0.543200
H911	H91	0.358100	0.461700	0.600200
C1391	C139	0.303790	0.441800	0.529100
H921	H92	0.285600	0.438200	0.576400
C1401	C140	0.286770	0.432340	0.447800
C1411	C141	0.314640	0.440990	0.380400
H931	H93	0.303900	0.436000	0.323300
C1421	C142	0.358300	0.456880	0.394400
H941	H94	0.377100	0.463100	0.346900
C1431	C143	0.239620	0.412000	0.430200
C1441	C144	0.219980	0.373930	0.382900
H951	H95	0.236700	0.361200	0.366900
H961	H96	0.230200	0.505100	0.404400
O331	O33	0.109020	0.813740	0.756400
O341	O34	0.102650	0.820030	0.898250
C1451	C145	0.088220	0.811930	0.824030
C1461	C146	0.041240	0.797030	0.809830
C1471	C147	0.013950	0.789870	0.876530
H971	H97	0.024770	0.795030	0.933530
C1481	C148	0.970460	0.775130	0.862430
H981	H98	0.952270	0.771530	0.909730
C1491	C149	0.953440	0.765670	0.781130
C1501	C150	0.981310	0.774320	0.713730
H991	H99	0.970570	0.769330	0.656630
C1511	C151	0.024970	0.790210	0.727730
H1001	H100	0.043770	0.796430	0.680230
C1521	C152	0.906290	0.745330	0.763530
C1531	C153	0.886650	0.707260	0.716230
H1011	H101	0.903370	0.694530	0.700230
H1021	H102	0.896870	0.838430	0.737730
O351	O35	0.775680	0.147080	0.089740
O361	O36	0.769310	0.153370	0.231590
C1541	C154	0.754880	0.145270	0.157370
C1551	C155	0.707900	0.130370	0.143170
C1561	C156	0.680610	0.123210	0.209870
H1031	H103	0.691430	0.128370	0.266870
C1571	C157	0.637120	0.108470	0.195770
H1041	H104	0.618930	0.104870	0.243070
C1581	C158	0.620100	0.099010	0.114470
C1591	C159	0.647970	0.107660	0.047070
H1051	H105	0.637230	0.102670	0.989970
C1601	C160	0.691630	0.123550	0.061070
H1061	H106	0.710430	0.129770	0.013570
C1611	C161	0.572950	0.078670	0.096870
C1621	C162	0.553310	0.040600	0.049570
H1071	H107	0.570030	0.027870	0.033570
H1081	H108	0.563530	0.171770	0.071070
O371	O37	0.442350	0.961940	0.423070
O381	O38	0.435980	0.949280	0.564920
C1631	C163	0.421550	0.942950	0.490700
C1641	C164	0.374570	0.910870	0.476500
C1651	C165	0.347280	0.890740	0.543200
H1091	H109	0.358100	0.896400	0.600200
C1661	C166	0.303790	0.861990	0.529100
H1101	H110	0.285600	0.847400	0.576400
C1671	C167	0.286770	0.854430	0.447800
C1681	C168	0.314640	0.873650	0.380400
H1111	H111	0.303900	0.867900	0.323300
C1691	C169	0.358300	0.901420	0.394400
H1121	H112	0.377100	0.914000	0.346900
C1701	C170	0.239620	0.827620	0.430200
C1711	C171	0.219980	0.846050	0.382900
H1131	H113	0.236700	0.875500	0.366900
H1141	H114	0.230200	0.725100	0.404400
O391	O39	0.109020	0.295270	0.756400
O401	O40	0.102650	0.282610	0.898250
C1721	C172	0.088220	0.276280	0.824030
C1731	C173	0.041240	0.244200	0.809830
C1741	C174	0.013950	0.224070	0.876530
H1151	H115	0.024770	0.229730	0.933530
C1751	C175	0.970460	0.195320	0.862430
H1161	H116	0.952270	0.180730	0.909730
C1761	C176	0.953440	0.187760	0.781130
C1771	C177	0.981310	0.206980	0.713730
H1171	H117	0.970570	0.201230	0.656630
C1781	C178	0.024970	0.234750	0.727730
H1181	H118	0.043770	0.247330	0.680230
C1791	C179	0.906290	0.160950	0.763530
C1801	C180	0.886650	0.179380	0.716230
H1191	H119	0.903370	0.208830	0.700230
H1201	H120	0.896870	0.058430	0.737730
O411	O41	0.775680	0.628610	0.089740
O421	O42	0.769310	0.615950	0.231590
C1811	C181	0.754880	0.609620	0.157370
C1821	C182	0.707900	0.577540	0.143170
C1831	C183	0.680610	0.557410	0.209870
H1211	H121	0.691430	0.563070	0.266870
C1841	C184	0.637120	0.528660	0.195770
H1221	H122	0.618930	0.514070	0.243070
C1851	C185	0.620100	0.521100	0.114470
C1861	C186	0.647970	0.540320	0.047070
H1231	H123	0.637230	0.534570	0.989970
C1871	C187	0.691630	0.568090	0.061070
H1241	H124	0.710430	0.580670	0.013570
C1881	C188	0.572950	0.494290	0.096870
C1891	C189	0.553310	0.512720	0.049570
H1251	H125	0.570030	0.542170	0.033570
H1261	H126	0.563530	0.391770	0.071070
O431	O43	0.038060	0.480410	0.423070
O441	O44	0.050720	0.486700	0.564920
C1901	C190	0.057050	0.478600	0.490700
C1911	C191	0.089130	0.463700	0.476500
C1921	C192	0.109260	0.456540	0.543200
H1271	H127	0.103600	0.461700	0.600200
C1931	C193	0.138010	0.441800	0.529100
H1281	H128	0.152600	0.438200	0.576400
C1941	C194	0.145570	0.432340	0.447800
C1951	C195	0.126350	0.440990	0.380400
H1291	H129	0.132100	0.436000	0.323300
C1961	C196	0.098580	0.456880	0.394400
H1301	H130	0.086000	0.463100	0.346900
C1971	C197	0.172380	0.412000	0.430200
C1981	C198	0.153950	0.373930	0.382900
H1311	H131	0.124500	0.361200	0.366900
H1321	H132	0.274900	0.505100	0.404400
O451	O45	0.704730	0.813740	0.756400
O461	O46	0.717390	0.820030	0.898250
C1991	C199	0.723720	0.811930	0.824030
C2001	C200	0.755800	0.797030	0.809830
C2011	C201	0.775930	0.789870	0.876530
H1331	H133	0.770270	0.795030	0.933530
C2021	C202	0.804680	0.775130	0.862430
H1341	H134	0.819270	0.771530	0.909730
C2031	C203	0.812240	0.765670	0.781130
C2041	C204	0.793020	0.774320	0.713730
H1351	H135	0.798770	0.769330	0.656630
C2051	C205	0.765250	0.790210	0.727730
H1361	H136	0.752670	0.796430	0.680230
C2061	C206	0.839050	0.745330	0.763530
C2071	C207	0.820620	0.707260	0.716230
H1371	H137	0.791170	0.694530	0.700230
H1381	H138	0.941570	0.838430	0.737730
O471	O47	0.371390	0.147080	0.089740
O481	O48	0.384050	0.153370	0.231590
C2081	C208	0.390380	0.145270	0.157370
C2091	C209	0.422460	0.130370	0.143170
C2101	C210	0.442590	0.123210	0.209870
H1391	H139	0.436930	0.128370	0.266870
C2111	C211	0.471340	0.108470	0.195770
H1401	H140	0.485930	0.104870	0.243070
C2121	C212	0.478900	0.099010	0.114470
C2131	C213	0.459680	0.107660	0.047070
H1411	H141	0.465430	0.102670	0.989970
C2141	C214	0.431910	0.123550	0.061070
H1421	H142	0.419330	0.129770	0.013570
C2151	C215	0.505710	0.078670	0.096870
C2161	C216	0.487280	0.040600	0.049570
H1431	H143	0.457830	0.027870	0.033570
H1441	H144	0.608230	0.171770	0.071070
O491	O49	0.519590	0.557650	0.423070
O501	O50	0.513300	0.564020	0.564920
C2171	C217	0.521400	0.578450	0.490700
C2181	C218	0.536300	0.625430	0.476500
C2191	C219	0.543460	0.652720	0.543200
H1451	H145	0.538300	0.641900	0.600200
C2201	C220	0.558200	0.696210	0.529100
H1461	H146	0.561800	0.714400	0.576400
C2211	C221	0.567660	0.713230	0.447800
C2221	C222	0.559010	0.685360	0.380400
H1471	H147	0.564000	0.696100	0.323300
C2231	C223	0.543120	0.641700	0.394400
H1481	H148	0.536900	0.622900	0.346900
C2241	C224	0.588000	0.760380	0.430200
C2251	C225	0.626070	0.780020	0.382900
H1491	H149	0.638800	0.763300	0.366900
H1501	H150	0.494900	0.769800	0.404400
O511	O51	0.186260	0.890980	0.756400
O521	O52	0.179970	0.897350	0.898250
C2261	C226	0.188070	0.911780	0.824030
C2271	C227	0.202970	0.958760	0.809830
C2281	C228	0.210130	0.986050	0.876530
H1511	H151	0.204970	0.975230	0.933530
C2291	C229	0.224870	0.029540	0.862430
H1521	H152	0.228470	0.047730	0.909730
C2301	C230	0.234330	0.046560	0.781130
C2311	C231	0.225680	0.018690	0.713730
H1531	H153	0.230670	0.029430	0.656630
C2321	C232	0.209790	0.975030	0.727730
H1541	H154	0.203570	0.956230	0.680230
C2331	C233	0.254670	0.093710	0.763530
C2341	C234	0.292740	0.113350	0.716230
H1551	H155	0.305470	0.096630	0.700230
H1561	H156	0.161570	0.103130	0.737730
O531	O53	0.852920	0.224320	0.089740
O541	O54	0.846630	0.230690	0.231590
C2351	C235	0.854730	0.245120	0.157370
C2361	C236	0.869630	0.292100	0.143170
C2371	C237	0.876790	0.319390	0.209870
H1571	H157	0.871630	0.308570	0.266870
C2381	C238	0.891530	0.362880	0.195770
H1581	H158	0.895130	0.381070	0.243070
C2391	C239	0.900990	0.379900	0.114470
C2401	C240	0.892340	0.352030	0.047070
H1591	H159	0.897330	0.362770	0.989970
C2411	C241	0.876450	0.308370	0.061070
H1601	H160	0.870230	0.289570	0.013570
C2421	C242	0.921330	0.427050	0.096870
C2431	C243	0.959400	0.446690	0.049570
H1611	H161	0.972130	0.429970	0.033570
H1621	H162	0.828230	0.436470	0.071070
O551	O55	0.961940	0.442350	0.576930
O561	O56	0.949280	0.435980	0.435080
C2441	C244	0.942950	0.421550	0.509300
C2451	C245	0.910870	0.374570	0.523500
C2461	C246	0.890740	0.347280	0.456800
H1631	H163	0.896400	0.358100	0.399800
C2471	C247	0.861990	0.303790	0.470900
H1641	H164	0.847400	0.285600	0.423600
C2481	C248	0.854430	0.286770	0.552200
C2491	C249	0.873650	0.314640	0.619600
H1651	H165	0.867900	0.303900	0.676700
C2501	C250	0.901420	0.358300	0.605600
H1661	H166	0.914000	0.377100	0.653100
C2511	C251	0.827620	0.239620	0.569800
C2521	C252	0.846050	0.219980	0.617100
H1671	H167	0.875500	0.236700	0.633100
H1681	H168	0.725100	0.230200	0.595600
O571	O57	0.628610	0.775680	0.910260
O581	O58	0.615950	0.769310	0.768410
C2531	C253	0.609620	0.754880	0.842630
C2541	C254	0.577540	0.707900	0.856830
C2551	C255	0.557410	0.680610	0.790130
H1691	H169	0.563070	0.691430	0.733130
C2561	C256	0.528660	0.637120	0.804230
H1701	H170	0.514070	0.618930	0.756930
C2571	C257	0.521100	0.620100	0.885530
C2581	C258	0.540320	0.647970	0.952930
H1711	H171	0.534570	0.637230	0.010030
C2591	C259	0.568090	0.691630	0.938930
H1721	H172	0.580670	0.710430	0.986430
C2601	C260	0.494290	0.572950	0.903130
C2611	C261	0.512720	0.553310	0.950430
H1731	H173	0.542170	0.570030	0.966430
H1741	H174	0.391770	0.563530	0.928930
O591	O59	0.295270	0.109020	0.243600
O601	O60	0.282610	0.102650	0.101750
C2621	C262	0.276280	0.088220	0.175970
C2631	C263	0.244200	0.041240	0.190170
C2641	C264	0.224070	0.013950	0.123470
H1751	H175	0.229730	0.024770	0.066470
C2651	C265	0.195320	0.970460	0.137570
H1761	H176	0.180730	0.952270	0.090270
C2661	C266	0.187760	0.953440	0.218870
C2671	C267	0.206980	0.981310	0.286270
H1771	H177	0.201230	0.970570	0.343370
C2681	C268	0.234750	0.024970	0.272270
H1781	H178	0.247330	0.043770	0.319770
C2691	C269	0.160950	0.906290	0.236470
C2701	C270	0.179380	0.886650	0.283770
H1791	H179	0.208830	0.903370	0.299770
H1801	H180	0.058430	0.896870	0.262270
O611	O61	0.480410	0.038060	0.576930
O621	O62	0.486700	0.050720	0.435080
C2711	C271	0.478600	0.057050	0.509300
C2721	C272	0.463700	0.089130	0.523500
C2731	C273	0.456540	0.109260	0.456800
H1811	H181	0.461700	0.103600	0.399800
C2741	C274	0.441800	0.138010	0.470900
H1821	H182	0.438200	0.152600	0.423600
C2751	C275	0.432340	0.145570	0.552200
C2761	C276	0.440990	0.126350	0.619600
H1831	H183	0.436000	0.132100	0.676700
C2771	C277	0.456880	0.098580	0.605600
H1841	H184	0.463100	0.086000	0.653100
C2781	C278	0.412000	0.172380	0.569800
C2791	C279	0.373930	0.153950	0.617100
H1851	H185	0.361200	0.124500	0.633100
H1861	H186	0.505100	0.274900	0.595600
O631	O63	0.147080	0.371390	0.910260
O641	O64	0.153370	0.384050	0.768410
C2801	C280	0.145270	0.390380	0.842630
C2811	C281	0.130370	0.422460	0.856830
C2821	C282	0.123210	0.442590	0.790130
H1871	H187	0.128370	0.436930	0.733130
C2831	C283	0.108470	0.471340	0.804230
H1881	H188	0.104870	0.485930	0.756930
C2841	C284	0.099010	0.478900	0.885530
C2851	C285	0.107660	0.459680	0.952930
H1891	H189	0.102670	0.465430	0.010030
C2861	C286	0.123550	0.431910	0.938930
H1901	H190	0.129770	0.419330	0.986430
C2871	C287	0.078670	0.505710	0.903130
C2881	C288	0.040600	0.487280	0.950430
H1911	H191	0.027870	0.457830	0.966430
H1921	H192	0.171770	0.608230	0.928930
O651	O65	0.813740	0.704730	0.243600
O661	O66	0.820030	0.717390	0.101750
C2891	C289	0.811930	0.723720	0.175970
C2901	C290	0.797030	0.755800	0.190170
C2911	C291	0.789870	0.775930	0.123470
H1931	H193	0.795030	0.770270	0.066470
C2921	C292	0.775130	0.804680	0.137570
H1941	H194	0.771530	0.819270	0.090270
C2931	C293	0.765670	0.812240	0.218870
C2941	C294	0.774320	0.793020	0.286270
H1951	H195	0.769330	0.798770	0.343370
C2951	C295	0.790210	0.765250	0.272270
H1961	H196	0.796430	0.752670	0.319770
C2961	C296	0.745330	0.839050	0.236470
C2971	C297	0.707260	0.820620	0.283770
H1971	H197	0.694530	0.791170	0.299770
H1981	H198	0.838430	0.941570	0.262270
O671	O67	0.557650	0.519590	0.576930
O681	O68	0.564020	0.513300	0.435080
C2981	C298	0.578450	0.521400	0.509300
C2991	C299	0.625430	0.536300	0.523500
C3001	C300	0.652720	0.543460	0.456800
H1991	H199	0.641900	0.538300	0.399800
C3011	C301	0.696210	0.558200	0.470900
H2001	H200	0.714400	0.561800	0.423600
C3021	C302	0.713230	0.567660	0.552200
C3031	C303	0.685360	0.559010	0.619600
H2011	H201	0.696100	0.564000	0.676700
C3041	C304	0.641700	0.543120	0.605600
H2021	H202	0.622900	0.536900	0.653100
C3051	C305	0.760380	0.588000	0.569800
C3061	C306	0.780020	0.626070	0.617100
H2031	H203	0.763300	0.638800	0.633100
H2041	H204	0.769800	0.494900	0.595600
O691	O69	0.224320	0.852920	0.910260
O701	O70	0.230690	0.846630	0.768410
C3071	C307	0.245120	0.854730	0.842630
C3081	C308	0.292100	0.869630	0.856830
C3091	C309	0.319390	0.876790	0.790130
H2051	H205	0.308570	0.871630	0.733130
C3101	C310	0.362880	0.891530	0.804230
H2061	H206	0.381070	0.895130	0.756930
C3111	C311	0.379900	0.900990	0.885530
C3121	C312	0.352030	0.892340	0.952930
H2071	H207	0.362770	0.897330	0.010030
C3131	C313	0.308370	0.876450	0.938930
H2081	H208	0.289570	0.870230	0.986430
C3141	C314	0.427050	0.921330	0.903130
C3151	C315	0.446690	0.959400	0.950430
H2091	H209	0.429970	0.972130	0.966430
H2101	H210	0.436470	0.828230	0.928930
O711	O71	0.890980	0.186260	0.243600
O721	O72	0.897350	0.179970	0.101750
C3161	C316	0.911780	0.188070	0.175970
C3171	C317	0.958760	0.202970	0.190170
C3181	C318	0.986050	0.210130	0.123470
H2111	H211	0.975230	0.204970	0.066470
C3191	C319	0.029540	0.224870	0.137570
H2121	H212	0.047730	0.228470	0.090270
C3201	C320	0.046560	0.234330	0.218870
C3211	C321	0.018690	0.225680	0.286270
H2131	H213	0.029430	0.230670	0.343370
C3221	C322	0.975030	0.209790	0.272270
H2141	H214	0.956230	0.203570	0.319770
C3231	C323	0.093710	0.254670	0.236470
C3241	C324	0.113350	0.292740	0.283770
H2151	H215	0.096630	0.305470	0.299770
H2161	H216	0.103130	0.161570	0.262270
Cu11	Cu1	0.503500	0.006990	0.416160
Cu21	Cu2	0.170160	0.340320	0.749490
Cu31	Cu3	0.836830	0.673660	0.082830
Cu41	Cu4	0.993010	0.496500	0.416160
Cu51	Cu5	0.659680	0.829840	0.749490
Cu61	Cu6	0.326340	0.163170	0.082830
Cu71	Cu7	0.503500	0.496500	0.416160
Cu81	Cu8	0.170160	0.829840	0.749490
Cu91	Cu9	0.836830	0.163170	0.082830
Cu101	Cu10	0.006990	0.503500	0.583840
Cu111	Cu11	0.673660	0.836830	0.917170
Cu121	Cu12	0.340320	0.170160	0.250510
Cu131	Cu13	0.496500	0.993010	0.583840
Cu141	Cu14	0.163170	0.326340	0.917170
Cu151	Cu15	0.829840	0.659680	0.250510
Cu161	Cu16	0.496500	0.503500	0.583840
Cu171	Cu17	0.163170	0.836830	0.917170
Cu181	Cu18	0.829840	0.170160	0.250510
O731	O73	0.765630	0.234370	0.500300
C3251	C325	0.823110	0.176890	0.642000
C3261	C326	0.784770	0.215230	0.545100
C3271	C327	0.746950	0.253050	0.559300
H2171	H217	0.733600	0.266400	0.525900
O741	O74	0.432300	0.567700	0.833630
C3281	C328	0.489780	0.510220	0.975330
C3291	C329	0.451440	0.548560	0.878430
C3301	C330	0.413620	0.586380	0.892630
H2181	H218	0.400270	0.599730	0.859230
O751	O75	0.098960	0.901040	0.166970
C3311	C331	0.156440	0.843560	0.308670
C3321	C332	0.118100	0.881900	0.211770
C3331	C333	0.080280	0.919720	0.225970
H2191	H219	0.066930	0.933070	0.192570
O761	O76	0.765630	0.531260	0.500300
C3341	C334	0.823110	0.646220	0.642000
C3351	C335	0.784770	0.569540	0.545100
C3361	C336	0.746950	0.493900	0.559300
H2201	H220	0.733600	0.467200	0.525900
O771	O77	0.432300	0.864590	0.833630
C3371	C337	0.489780	0.979550	0.975330
C3381	C338	0.451440	0.902870	0.878430
C3391	C339	0.413620	0.827230	0.892630
H2211	H221	0.400270	0.800530	0.859230
O781	O78	0.098960	0.197930	0.166970
C3401	C340	0.156440	0.312890	0.308670
C3411	C341	0.118100	0.236210	0.211770
C3421	C342	0.080280	0.160570	0.225970
H2221	H222	0.066930	0.133870	0.192570
O791	O79	0.468740	0.234370	0.500300
C3431	C343	0.353780	0.176890	0.642000
C3441	C344	0.430460	0.215230	0.545100
C3451	C345	0.506100	0.253050	0.559300
H2231	H223	0.532800	0.266400	0.525900
O801	O80	0.135410	0.567700	0.833630
C3461	C346	0.020450	0.510220	0.975330
C3471	C347	0.097130	0.548560	0.878430
C3481	C348	0.172770	0.586380	0.892630
H2241	H224	0.199470	0.599730	0.859230
O811	O81	0.802070	0.901040	0.166970
C3491	C349	0.687110	0.843560	0.308670
C3501	C350	0.763790	0.881900	0.211770
C3511	C351	0.839430	0.919720	0.225970
H2251	H225	0.866130	0.933070	0.192570
O821	O82	0.234370	0.765630	0.499700
C3521	C352	0.176890	0.823110	0.358000
C3531	C353	0.215230	0.784770	0.454900
C3541	C354	0.253050	0.746950	0.440700
H2261	H226	0.266400	0.733600	0.474100
O831	O83	0.901040	0.098960	0.833030
C3551	C355	0.843560	0.156440	0.691330
C3561	C356	0.881900	0.118100	0.788230
C3571	C357	0.919720	0.080280	0.774030
H2271	H227	0.933070	0.066930	0.807430
O841	O84	0.567700	0.432300	0.166370
C3581	C358	0.510220	0.489780	0.024670
C3591	C359	0.548560	0.451440	0.121570
C3601	C360	0.586380	0.413620	0.107370
H2281	H228	0.599730	0.400270	0.140770
O851	O85	0.531260	0.765630	0.499700
C3611	C361	0.646220	0.823110	0.358000
C3621	C362	0.569540	0.784770	0.454900
C3631	C363	0.493900	0.746950	0.440700
H2291	H229	0.467200	0.733600	0.474100
O861	O86	0.197930	0.098960	0.833030
C3641	C364	0.312890	0.156440	0.691330
C3651	C365	0.236210	0.118100	0.788230
C3661	C366	0.160570	0.080280	0.774030
H2301	H230	0.133870	0.066930	0.807430
O871	O87	0.864590	0.432300	0.166370
C3671	C367	0.979550	0.489780	0.024670
C3681	C368	0.902870	0.451440	0.121570
C3691	C369	0.827230	0.413620	0.107370
H2311	H231	0.800530	0.400270	0.140770
O881	O88	0.234370	0.468740	0.499700
C3701	C370	0.176890	0.353780	0.358000
C3711	C371	0.215230	0.430460	0.454900
C3721	C372	0.253050	0.506100	0.440700
H2321	H232	0.266400	0.532800	0.474100
O891	O89	0.901040	0.802070	0.833030
C3731	C373	0.843560	0.687110	0.691330
C3741	C374	0.881900	0.763790	0.788230
C3751	C375	0.919720	0.839430	0.774030
H2331	H233	0.933070	0.866130	0.807430
O901	O90	0.567700	0.135410	0.166370
C3761	C376	0.510220	0.020450	0.024670
C3771	C377	0.548560	0.097130	0.121570
C3781	C378	0.586380	0.172770	0.107370
H2341	H234	0.599730	0.199470	0.140770
