data_UMOBEF04_clean_PM
_symmetry_space_group_name_H-M	'P1'
_cell_length_a	35.631000
_cell_length_b	35.631000
_cell_length_c	17.334000
_cell_angle_alpha	90.000000
_cell_angle_beta	90.000000
_cell_angle_gamma	120.000000
_symmetry_Int_Tables_number 1

loop_
_symmetry_equiv_pos_as_xyz
'x,y,z'

loop_
_atom_site_label
_atom_site_type_symbol
_atom_site_fract_x
_atom_site_fract_y
_atom_site_fract_z
O11	O1	0.889150	0.187810	0.747100
O21	O2	0.898300	0.178090	0.618500
C11	C1	0.911050	0.188250	0.686200
C21	C2	0.958100	0.202290	0.706000
C31	C3	0.985930	0.205730	0.649300
H11	H1	0.975400	0.198400	0.598000
C41	C4	0.029330	0.219650	0.664100
H21	H2	0.047600	0.219900	0.623900
C51	C5	0.045160	0.232600	0.734600
C61	C6	0.017750	0.228930	0.795000
H31	H3	0.028400	0.236100	0.846300
C71	C7	0.973420	0.214180	0.778000
H41	H4	0.954500	0.212700	0.818000
C81	C8	0.092230	0.252290	0.753900
C91	C9	0.112500	0.291080	0.791900
H51	H5	0.095900	0.304400	0.804500
H61	H6	0.057100	0.159100	0.775800
O31	O3	0.555820	0.521140	0.080430
O41	O4	0.564970	0.511420	0.951830
C101	C10	0.577720	0.521580	0.019530
C111	C11	0.624770	0.535620	0.039330
C121	C12	0.652600	0.539060	0.982630
H71	H7	0.642070	0.531730	0.931330
C131	C13	0.696000	0.552980	0.997430
H81	H8	0.714270	0.553230	0.957230
C141	C14	0.711830	0.565930	0.067930
C151	C15	0.684420	0.562260	0.128330
H91	H9	0.695070	0.569430	0.179630
C161	C16	0.640090	0.547510	0.111330
H101	H10	0.621170	0.546030	0.151330
C171	C17	0.758900	0.585620	0.087230
C181	C18	0.779170	0.624410	0.125230
H111	H11	0.762570	0.637730	0.137830
H121	H12	0.723770	0.492430	0.109130
O51	O5	0.222480	0.854480	0.413770
O61	O6	0.231630	0.844760	0.285170
C191	C19	0.244380	0.854920	0.352870
C201	C20	0.291430	0.868960	0.372670
C211	C21	0.319260	0.872400	0.315970
H131	H13	0.308730	0.865070	0.264670
C221	C22	0.362660	0.886320	0.330770
H141	H14	0.380930	0.886570	0.290570
C231	C23	0.378490	0.899270	0.401270
C241	C24	0.351080	0.895600	0.461670
H151	H15	0.361730	0.902770	0.512970
C251	C25	0.306750	0.880850	0.444670
H161	H16	0.287830	0.879370	0.484670
C261	C26	0.425560	0.918960	0.420570
C271	C27	0.445830	0.957750	0.458570
H171	H17	0.429230	0.971070	0.471170
H181	H18	0.390430	0.825770	0.442470
O71	O7	0.812190	0.701340	0.747100
O81	O8	0.821910	0.720210	0.618500
C281	C28	0.811750	0.722800	0.686200
C291	C29	0.797710	0.755810	0.706000
C301	C30	0.794270	0.780200	0.649300
H191	H19	0.801600	0.777000	0.598000
C311	C31	0.780350	0.809680	0.664100
H201	H20	0.780100	0.827700	0.623900
C321	C32	0.767400	0.812560	0.734600
C331	C33	0.771070	0.788820	0.795000
H211	H21	0.763900	0.792300	0.846300
C341	C34	0.785820	0.759240	0.778000
H221	H22	0.787300	0.741800	0.818000
C351	C35	0.747710	0.839940	0.753900
C361	C36	0.708920	0.821420	0.791900
H231	H23	0.695600	0.791500	0.804500
H241	H24	0.840900	0.898000	0.775800
O91	O9	0.478860	0.034670	0.080430
O101	O10	0.488580	0.053540	0.951830
C371	C37	0.478420	0.056130	0.019530
C381	C38	0.464380	0.089140	0.039330
C391	C39	0.460940	0.113530	0.982630
H251	H25	0.468270	0.110330	0.931330
C401	C40	0.447020	0.143010	0.997430
H261	H26	0.446770	0.161030	0.957230
C411	C41	0.434070	0.145890	0.067930
C421	C42	0.437740	0.122150	0.128330
H271	H27	0.430570	0.125630	0.179630
C431	C43	0.452490	0.092570	0.111330
H281	H28	0.453970	0.075130	0.151330
C441	C44	0.414380	0.173270	0.087230
C451	C45	0.375590	0.154750	0.125230
H291	H29	0.362270	0.124830	0.137830
H301	H30	0.507570	0.231330	0.109130
O111	O11	0.145520	0.368010	0.413770
O121	O12	0.155240	0.386880	0.285170
C461	C46	0.145080	0.389470	0.352870
C471	C47	0.131040	0.422480	0.372670
C481	C48	0.127600	0.446870	0.315970
H311	H31	0.134930	0.443670	0.264670
C491	C49	0.113680	0.476350	0.330770
H321	H32	0.113430	0.494370	0.290570
C501	C50	0.100730	0.479230	0.401270
C511	C51	0.104400	0.455490	0.461670
H331	H33	0.097230	0.458970	0.512970
C521	C52	0.119150	0.425910	0.444670
H341	H34	0.120630	0.408470	0.484670
C531	C53	0.081040	0.506610	0.420570
C541	C54	0.042250	0.488090	0.458570
H351	H35	0.028930	0.458170	0.471170
H361	H36	0.174230	0.564670	0.442470
O131	O13	0.298660	0.110850	0.747100
O141	O14	0.279790	0.101700	0.618500
C551	C55	0.277200	0.088950	0.686200
C561	C56	0.244190	0.041900	0.706000
C571	C57	0.219800	0.014070	0.649300
H371	H37	0.223000	0.024600	0.598000
C581	C58	0.190320	0.970670	0.664100
H381	H38	0.172300	0.952400	0.623900
C591	C59	0.187440	0.954840	0.734600
C601	C60	0.211180	0.982250	0.795000
H391	H39	0.207700	0.971600	0.846300
C611	C61	0.240760	0.026580	0.778000
H401	H40	0.258200	0.045500	0.818000
C621	C62	0.160060	0.907770	0.753900
C631	C63	0.178580	0.887500	0.791900
H411	H41	0.208500	0.904100	0.804500
H421	H42	0.102000	0.942900	0.775800
O151	O15	0.965330	0.444180	0.080430
O161	O16	0.946460	0.435030	0.951830
C641	C64	0.943870	0.422280	0.019530
C651	C65	0.910860	0.375230	0.039330
C661	C66	0.886470	0.347400	0.982630
H431	H43	0.889670	0.357930	0.931330
C671	C67	0.856990	0.304000	0.997430
H441	H44	0.838970	0.285730	0.957230
C681	C68	0.854110	0.288170	0.067930
C691	C69	0.877850	0.315580	0.128330
H451	H45	0.874370	0.304930	0.179630
C701	C70	0.907430	0.359910	0.111330
H461	H46	0.924870	0.378830	0.151330
C711	C71	0.826730	0.241100	0.087230
C721	C72	0.845250	0.220830	0.125230
H471	H47	0.875170	0.237430	0.137830
H481	H48	0.768670	0.276230	0.109130
O171	O17	0.631990	0.777520	0.413770
O181	O18	0.613120	0.768370	0.285170
C731	C73	0.610530	0.755620	0.352870
C741	C74	0.577520	0.708570	0.372670
C751	C75	0.553130	0.680740	0.315970
H491	H49	0.556330	0.691270	0.264670
C761	C76	0.523650	0.637340	0.330770
H501	H50	0.505630	0.619070	0.290570
C771	C77	0.520770	0.621510	0.401270
C781	C78	0.544510	0.648920	0.461670
H511	H51	0.541030	0.638270	0.512970
C791	C79	0.574090	0.693250	0.444670
H521	H52	0.591530	0.712170	0.484670
C801	C80	0.493390	0.574440	0.420570
C811	C81	0.511910	0.554170	0.458570
H531	H53	0.541830	0.570770	0.471170
H541	H54	0.435330	0.609570	0.442470
O191	O19	0.187810	0.889150	0.252900
O201	O20	0.178090	0.898300	0.381500
C821	C82	0.188250	0.911050	0.313800
C831	C83	0.202290	0.958100	0.294000
C841	C84	0.205730	0.985930	0.350700
H551	H55	0.198400	0.975400	0.402000
C851	C85	0.219650	0.029330	0.335900
H561	H56	0.219900	0.047600	0.376100
C861	C86	0.232600	0.045160	0.265400
C871	C87	0.228930	0.017750	0.205000
H571	H57	0.236100	0.028400	0.153700
C881	C88	0.214180	0.973420	0.222000
H581	H58	0.212700	0.954500	0.182000
C891	C89	0.252290	0.092230	0.246100
C901	C90	0.291080	0.112500	0.208100
H591	H59	0.304400	0.095900	0.195500
H601	H60	0.159100	0.057100	0.224200
O211	O21	0.854480	0.222480	0.586230
O221	O22	0.844760	0.231630	0.714830
C911	C91	0.854920	0.244380	0.647130
C921	C92	0.868960	0.291430	0.627330
C931	C93	0.872400	0.319260	0.684030
H611	H61	0.865070	0.308730	0.735330
C941	C94	0.886320	0.362660	0.669230
H621	H62	0.886570	0.380930	0.709430
C951	C95	0.899270	0.378490	0.598730
C961	C96	0.895600	0.351080	0.538330
H631	H63	0.902770	0.361730	0.487030
C971	C97	0.880850	0.306750	0.555330
H641	H64	0.879370	0.287830	0.515330
C981	C98	0.918960	0.425560	0.579430
C991	C99	0.957750	0.445830	0.541430
H651	H65	0.971070	0.429230	0.528830
H661	H66	0.825770	0.390430	0.557530
O231	O23	0.521140	0.555820	0.919570
O241	O24	0.511420	0.564970	0.048170
C1001	C100	0.521580	0.577720	0.980470
C1011	C101	0.535620	0.624770	0.960670
C1021	C102	0.539060	0.652600	0.017370
H671	H67	0.531730	0.642070	0.068670
C1031	C103	0.552980	0.696000	0.002570
H681	H68	0.553230	0.714270	0.042770
C1041	C104	0.565930	0.711830	0.932070
C1051	C105	0.562260	0.684420	0.871670
H691	H69	0.569430	0.695070	0.820370
C1061	C106	0.547510	0.640090	0.888670
H701	H70	0.546030	0.621170	0.848670
C1071	C107	0.585620	0.758900	0.912770
C1081	C108	0.624410	0.779170	0.874770
H711	H71	0.637730	0.762570	0.862170
H721	H72	0.492430	0.723770	0.890870
O251	O25	0.701340	0.812190	0.252900
O261	O26	0.720210	0.821910	0.381500
C1091	C109	0.722800	0.811750	0.313800
C1101	C110	0.755810	0.797710	0.294000
C1111	C111	0.780200	0.794270	0.350700
H731	H73	0.777000	0.801600	0.402000
C1121	C112	0.809680	0.780350	0.335900
H741	H74	0.827700	0.780100	0.376100
C1131	C113	0.812560	0.767400	0.265400
C1141	C114	0.788820	0.771070	0.205000
H751	H75	0.792300	0.763900	0.153700
C1151	C115	0.759240	0.785820	0.222000
H761	H76	0.741800	0.787300	0.182000
C1161	C116	0.839940	0.747710	0.246100
C1171	C117	0.821420	0.708920	0.208100
H771	H77	0.791500	0.695600	0.195500
H781	H78	0.898000	0.840900	0.224200
O271	O27	0.368010	0.145520	0.586230
O281	O28	0.386880	0.155240	0.714830
C1181	C118	0.389470	0.145080	0.647130
C1191	C119	0.422480	0.131040	0.627330
C1201	C120	0.446870	0.127600	0.684030
H791	H79	0.443670	0.134930	0.735330
C1211	C121	0.476350	0.113680	0.669230
H801	H80	0.494370	0.113430	0.709430
C1221	C122	0.479230	0.100730	0.598730
C1231	C123	0.455490	0.104400	0.538330
H811	H81	0.458970	0.097230	0.487030
C1241	C124	0.425910	0.119150	0.555330
H821	H82	0.408470	0.120630	0.515330
C1251	C125	0.506610	0.081040	0.579430
C1261	C126	0.488090	0.042250	0.541430
H831	H83	0.458170	0.028930	0.528830
H841	H84	0.564670	0.174230	0.557530
O291	O29	0.034670	0.478860	0.919570
O301	O30	0.053540	0.488580	0.048170
C1271	C127	0.056130	0.478420	0.980470
C1281	C128	0.089140	0.464380	0.960670
C1291	C129	0.113530	0.460940	0.017370
H851	H85	0.110330	0.468270	0.068670
C1301	C130	0.143010	0.447020	0.002570
H861	H86	0.161030	0.446770	0.042770
C1311	C131	0.145890	0.434070	0.932070
C1321	C132	0.122150	0.437740	0.871670
H871	H87	0.125630	0.430570	0.820370
C1331	C133	0.092570	0.452490	0.888670
H881	H88	0.075130	0.453970	0.848670
C1341	C134	0.173270	0.414380	0.912770
C1351	C135	0.154750	0.375590	0.874770
H891	H89	0.124830	0.362270	0.862170
H901	H90	0.231330	0.507570	0.890870
O311	O31	0.110850	0.298660	0.252900
O321	O32	0.101700	0.279790	0.381500
C1361	C136	0.088950	0.277200	0.313800
C1371	C137	0.041900	0.244190	0.294000
C1381	C138	0.014070	0.219800	0.350700
H911	H91	0.024600	0.223000	0.402000
C1391	C139	0.970670	0.190320	0.335900
H921	H92	0.952400	0.172300	0.376100
C1401	C140	0.954840	0.187440	0.265400
C1411	C141	0.982250	0.211180	0.205000
H931	H93	0.971600	0.207700	0.153700
C1421	C142	0.026580	0.240760	0.222000
H941	H94	0.045500	0.258200	0.182000
C1431	C143	0.907770	0.160060	0.246100
C1441	C144	0.887500	0.178580	0.208100
H951	H95	0.904100	0.208500	0.195500
H961	H96	0.942900	0.102000	0.224200
O331	O33	0.777520	0.631990	0.586230
O341	O34	0.768370	0.613120	0.714830
C1451	C145	0.755620	0.610530	0.647130
C1461	C146	0.708570	0.577520	0.627330
C1471	C147	0.680740	0.553130	0.684030
H971	H97	0.691270	0.556330	0.735330
C1481	C148	0.637340	0.523650	0.669230
H981	H98	0.619070	0.505630	0.709430
C1491	C149	0.621510	0.520770	0.598730
C1501	C150	0.648920	0.544510	0.538330
H991	H99	0.638270	0.541030	0.487030
C1511	C151	0.693250	0.574090	0.555330
H1001	H100	0.712170	0.591530	0.515330
C1521	C152	0.574440	0.493390	0.579430
C1531	C153	0.554170	0.511910	0.541430
H1011	H101	0.570770	0.541830	0.528830
H1021	H102	0.609570	0.435330	0.557530
O351	O35	0.444180	0.965330	0.919570
O361	O36	0.435030	0.946460	0.048170
C1541	C154	0.422280	0.943870	0.980470
C1551	C155	0.375230	0.910860	0.960670
C1561	C156	0.347400	0.886470	0.017370
H1031	H103	0.357930	0.889670	0.068670
C1571	C157	0.304000	0.856990	0.002570
H1041	H104	0.285730	0.838970	0.042770
C1581	C158	0.288170	0.854110	0.932070
C1591	C159	0.315580	0.877850	0.871670
H1051	H105	0.304930	0.874370	0.820370
C1601	C160	0.359910	0.907430	0.888670
H1061	H106	0.378830	0.924870	0.848670
C1611	C161	0.241100	0.826730	0.912770
C1621	C162	0.220830	0.845250	0.874770
H1071	H107	0.237430	0.875170	0.862170
H1081	H108	0.276230	0.768670	0.890870
O371	O37	0.110850	0.812190	0.252900
O381	O38	0.101700	0.821910	0.381500
C1631	C163	0.088950	0.811750	0.313800
C1641	C164	0.041900	0.797710	0.294000
C1651	C165	0.014070	0.794270	0.350700
H1091	H109	0.024600	0.801600	0.402000
C1661	C166	0.970670	0.780350	0.335900
H1101	H110	0.952400	0.780100	0.376100
C1671	C167	0.954840	0.767400	0.265400
C1681	C168	0.982250	0.771070	0.205000
H1111	H111	0.971600	0.763900	0.153700
C1691	C169	0.026580	0.785820	0.222000
H1121	H112	0.045500	0.787300	0.182000
C1701	C170	0.907770	0.747710	0.246100
C1711	C171	0.887500	0.708920	0.208100
H1131	H113	0.904100	0.695600	0.195500
H1141	H114	0.942900	0.840900	0.224200
O391	O39	0.777520	0.145520	0.586230
O401	O40	0.768370	0.155240	0.714830
C1721	C172	0.755620	0.145080	0.647130
C1731	C173	0.708570	0.131040	0.627330
C1741	C174	0.680740	0.127600	0.684030
H1151	H115	0.691270	0.134930	0.735330
C1751	C175	0.637340	0.113680	0.669230
H1161	H116	0.619070	0.113430	0.709430
C1761	C176	0.621510	0.100730	0.598730
C1771	C177	0.648920	0.104400	0.538330
H1171	H117	0.638270	0.097230	0.487030
C1781	C178	0.693250	0.119150	0.555330
H1181	H118	0.712170	0.120630	0.515330
C1791	C179	0.574440	0.081040	0.579430
C1801	C180	0.554170	0.042250	0.541430
H1191	H119	0.570770	0.028930	0.528830
H1201	H120	0.609570	0.174230	0.557530
O411	O41	0.444180	0.478860	0.919570
O421	O42	0.435030	0.488580	0.048170
C1811	C181	0.422280	0.478420	0.980470
C1821	C182	0.375230	0.464380	0.960670
C1831	C183	0.347400	0.460940	0.017370
H1211	H121	0.357930	0.468270	0.068670
C1841	C184	0.304000	0.447020	0.002570
H1221	H122	0.285730	0.446770	0.042770
C1851	C185	0.288170	0.434070	0.932070
C1861	C186	0.315580	0.437740	0.871670
H1231	H123	0.304930	0.430570	0.820370
C1871	C187	0.359910	0.452490	0.888670
H1241	H124	0.378830	0.453970	0.848670
C1881	C188	0.241100	0.414380	0.912770
C1891	C189	0.220830	0.375590	0.874770
H1251	H125	0.237430	0.362270	0.862170
H1261	H126	0.276230	0.507570	0.890870
O431	O43	0.187810	0.298660	0.252900
O441	O44	0.178090	0.279790	0.381500
C1901	C190	0.188250	0.277200	0.313800
C1911	C191	0.202290	0.244190	0.294000
C1921	C192	0.205730	0.219800	0.350700
H1271	H127	0.198400	0.223000	0.402000
C1931	C193	0.219650	0.190320	0.335900
H1281	H128	0.219900	0.172300	0.376100
C1941	C194	0.232600	0.187440	0.265400
C1951	C195	0.228930	0.211180	0.205000
H1291	H129	0.236100	0.207700	0.153700
C1961	C196	0.214180	0.240760	0.222000
H1301	H130	0.212700	0.258200	0.182000
C1971	C197	0.252290	0.160060	0.246100
C1981	C198	0.291080	0.178580	0.208100
H1311	H131	0.304400	0.208500	0.195500
H1321	H132	0.159100	0.102000	0.224200
O451	O45	0.854480	0.631990	0.586230
O461	O46	0.844760	0.613120	0.714830
C1991	C199	0.854920	0.610530	0.647130
C2001	C200	0.868960	0.577520	0.627330
C2011	C201	0.872400	0.553130	0.684030
H1331	H133	0.865070	0.556330	0.735330
C2021	C202	0.886320	0.523650	0.669230
H1341	H134	0.886570	0.505630	0.709430
C2031	C203	0.899270	0.520770	0.598730
C2041	C204	0.895600	0.544510	0.538330
H1351	H135	0.902770	0.541030	0.487030
C2051	C205	0.880850	0.574090	0.555330
H1361	H136	0.879370	0.591530	0.515330
C2061	C206	0.918960	0.493390	0.579430
C2071	C207	0.957750	0.511910	0.541430
H1371	H137	0.971070	0.541830	0.528830
H1381	H138	0.825770	0.435330	0.557530
O471	O47	0.521140	0.965330	0.919570
O481	O48	0.511420	0.946460	0.048170
C2081	C208	0.521580	0.943870	0.980470
C2091	C209	0.535620	0.910860	0.960670
C2101	C210	0.539060	0.886470	0.017370
H1391	H139	0.531730	0.889670	0.068670
C2111	C211	0.552980	0.856990	0.002570
H1401	H140	0.553230	0.838970	0.042770
C2121	C212	0.565930	0.854110	0.932070
C2131	C213	0.562260	0.877850	0.871670
H1411	H141	0.569430	0.874370	0.820370
C2141	C214	0.547510	0.907430	0.888670
H1421	H142	0.546030	0.924870	0.848670
C2151	C215	0.585620	0.826730	0.912770
C2161	C216	0.624410	0.845250	0.874770
H1431	H143	0.637730	0.875170	0.862170
H1441	H144	0.492430	0.768670	0.890870
O491	O49	0.701340	0.889150	0.252900
O501	O50	0.720210	0.898300	0.381500
C2171	C217	0.722800	0.911050	0.313800
C2181	C218	0.755810	0.958100	0.294000
C2191	C219	0.780200	0.985930	0.350700
H1451	H145	0.777000	0.975400	0.402000
C2201	C220	0.809680	0.029330	0.335900
H1461	H146	0.827700	0.047600	0.376100
C2211	C221	0.812560	0.045160	0.265400
C2221	C222	0.788820	0.017750	0.205000
H1471	H147	0.792300	0.028400	0.153700
C2231	C223	0.759240	0.973420	0.222000
H1481	H148	0.741800	0.954500	0.182000
C2241	C224	0.839940	0.092230	0.246100
C2251	C225	0.821420	0.112500	0.208100
H1491	H149	0.791500	0.095900	0.195500
H1501	H150	0.898000	0.057100	0.224200
O511	O51	0.368010	0.222480	0.586230
O521	O52	0.386880	0.231630	0.714830
C2261	C226	0.389470	0.244380	0.647130
C2271	C227	0.422480	0.291430	0.627330
C2281	C228	0.446870	0.319260	0.684030
H1511	H151	0.443670	0.308730	0.735330
C2291	C229	0.476350	0.362660	0.669230
H1521	H152	0.494370	0.380930	0.709430
C2301	C230	0.479230	0.378490	0.598730
C2311	C231	0.455490	0.351080	0.538330
H1531	H153	0.458970	0.361730	0.487030
C2321	C232	0.425910	0.306750	0.555330
H1541	H154	0.408470	0.287830	0.515330
C2331	C233	0.506610	0.425560	0.579430
C2341	C234	0.488090	0.445830	0.541430
H1551	H155	0.458170	0.429230	0.528830
H1561	H156	0.564670	0.390430	0.557530
O531	O53	0.034670	0.555820	0.919570
O541	O54	0.053540	0.564970	0.048170
C2351	C235	0.056130	0.577720	0.980470
C2361	C236	0.089140	0.624770	0.960670
C2371	C237	0.113530	0.652600	0.017370
H1571	H157	0.110330	0.642070	0.068670
C2381	C238	0.143010	0.696000	0.002570
H1581	H158	0.161030	0.714270	0.042770
C2391	C239	0.145890	0.711830	0.932070
C2401	C240	0.122150	0.684420	0.871670
H1591	H159	0.125630	0.695070	0.820370
C2411	C241	0.092570	0.640090	0.888670
H1601	H160	0.075130	0.621170	0.848670
C2421	C242	0.173270	0.758900	0.912770
C2431	C243	0.154750	0.779170	0.874770
H1611	H161	0.124830	0.762570	0.862170
H1621	H162	0.231330	0.723770	0.890870
O551	O55	0.812190	0.110850	0.747100
O561	O56	0.821910	0.101700	0.618500
C2441	C244	0.811750	0.088950	0.686200
C2451	C245	0.797710	0.041900	0.706000
C2461	C246	0.794270	0.014070	0.649300
H1631	H163	0.801600	0.024600	0.598000
C2471	C247	0.780350	0.970670	0.664100
H1641	H164	0.780100	0.952400	0.623900
C2481	C248	0.767400	0.954840	0.734600
C2491	C249	0.771070	0.982250	0.795000
H1651	H165	0.763900	0.971600	0.846300
C2501	C250	0.785820	0.026580	0.778000
H1661	H166	0.787300	0.045500	0.818000
C2511	C251	0.747710	0.907770	0.753900
C2521	C252	0.708920	0.887500	0.791900
H1671	H167	0.695600	0.904100	0.804500
H1681	H168	0.840900	0.942900	0.775800
O571	O57	0.478860	0.444180	0.080430
O581	O58	0.488580	0.435030	0.951830
C2531	C253	0.478420	0.422280	0.019530
C2541	C254	0.464380	0.375230	0.039330
C2551	C255	0.460940	0.347400	0.982630
H1691	H169	0.468270	0.357930	0.931330
C2561	C256	0.447020	0.304000	0.997430
H1701	H170	0.446770	0.285730	0.957230
C2571	C257	0.434070	0.288170	0.067930
C2581	C258	0.437740	0.315580	0.128330
H1711	H171	0.430570	0.304930	0.179630
C2591	C259	0.452490	0.359910	0.111330
H1721	H172	0.453970	0.378830	0.151330
C2601	C260	0.414380	0.241100	0.087230
C2611	C261	0.375590	0.220830	0.125230
H1731	H173	0.362270	0.237430	0.137830
H1741	H174	0.507570	0.276230	0.109130
O591	O59	0.145520	0.777520	0.413770
O601	O60	0.155240	0.768370	0.285170
C2621	C262	0.145080	0.755620	0.352870
C2631	C263	0.131040	0.708570	0.372670
C2641	C264	0.127600	0.680740	0.315970
H1751	H175	0.134930	0.691270	0.264670
C2651	C265	0.113680	0.637340	0.330770
H1761	H176	0.113430	0.619070	0.290570
C2661	C266	0.100730	0.621510	0.401270
C2671	C267	0.104400	0.648920	0.461670
H1771	H177	0.097230	0.638270	0.512970
C2681	C268	0.119150	0.693250	0.444670
H1781	H178	0.120630	0.712170	0.484670
C2691	C269	0.081040	0.574440	0.420570
C2701	C270	0.042250	0.554170	0.458570
H1791	H179	0.028930	0.570770	0.471170
H1801	H180	0.174230	0.609570	0.442470
O611	O61	0.298660	0.187810	0.747100
O621	O62	0.279790	0.178090	0.618500
C2711	C271	0.277200	0.188250	0.686200
C2721	C272	0.244190	0.202290	0.706000
C2731	C273	0.219800	0.205730	0.649300
H1811	H181	0.223000	0.198400	0.598000
C2741	C274	0.190320	0.219650	0.664100
H1821	H182	0.172300	0.219900	0.623900
C2751	C275	0.187440	0.232600	0.734600
C2761	C276	0.211180	0.228930	0.795000
H1831	H183	0.207700	0.236100	0.846300
C2771	C277	0.240760	0.214180	0.778000
H1841	H184	0.258200	0.212700	0.818000
C2781	C278	0.160060	0.252290	0.753900
C2791	C279	0.178580	0.291080	0.791900
H1851	H185	0.208500	0.304400	0.804500
H1861	H186	0.102000	0.159100	0.775800
O631	O63	0.965330	0.521140	0.080430
O641	O64	0.946460	0.511420	0.951830
C2801	C280	0.943870	0.521580	0.019530
C2811	C281	0.910860	0.535620	0.039330
C2821	C282	0.886470	0.539060	0.982630
H1871	H187	0.889670	0.531730	0.931330
C2831	C283	0.856990	0.552980	0.997430
H1881	H188	0.838970	0.553230	0.957230
C2841	C284	0.854110	0.565930	0.067930
C2851	C285	0.877850	0.562260	0.128330
H1891	H189	0.874370	0.569430	0.179630
C2861	C286	0.907430	0.547510	0.111330
H1901	H190	0.924870	0.546030	0.151330
C2871	C287	0.826730	0.585620	0.087230
C2881	C288	0.845250	0.624410	0.125230
H1911	H191	0.875170	0.637730	0.137830
H1921	H192	0.768670	0.492430	0.109130
O651	O65	0.631990	0.854480	0.413770
O661	O66	0.613120	0.844760	0.285170
C2891	C289	0.610530	0.854920	0.352870
C2901	C290	0.577520	0.868960	0.372670
C2911	C291	0.553130	0.872400	0.315970
H1931	H193	0.556330	0.865070	0.264670
C2921	C292	0.523650	0.886320	0.330770
H1941	H194	0.505630	0.886570	0.290570
C2931	C293	0.520770	0.899270	0.401270
C2941	C294	0.544510	0.895600	0.461670
H1951	H195	0.541030	0.902770	0.512970
C2951	C295	0.574090	0.880850	0.444670
H1961	H196	0.591530	0.879370	0.484670
C2961	C296	0.493390	0.918960	0.420570
C2971	C297	0.511910	0.957750	0.458570
H1971	H197	0.541830	0.971070	0.471170
H1981	H198	0.435330	0.825770	0.442470
O671	O67	0.889150	0.701340	0.747100
O681	O68	0.898300	0.720210	0.618500
C2981	C298	0.911050	0.722800	0.686200
C2991	C299	0.958100	0.755810	0.706000
C3001	C300	0.985930	0.780200	0.649300
H1991	H199	0.975400	0.777000	0.598000
C3011	C301	0.029330	0.809680	0.664100
H2001	H200	0.047600	0.827700	0.623900
C3021	C302	0.045160	0.812560	0.734600
C3031	C303	0.017750	0.788820	0.795000
H2011	H201	0.028400	0.792300	0.846300
C3041	C304	0.973420	0.759240	0.778000
H2021	H202	0.954500	0.741800	0.818000
C3051	C305	0.092230	0.839940	0.753900
C3061	C306	0.112500	0.821420	0.791900
H2031	H203	0.095900	0.791500	0.804500
H2041	H204	0.057100	0.898000	0.775800
O691	O69	0.555820	0.034670	0.080430
O701	O70	0.564970	0.053540	0.951830
C3071	C307	0.577720	0.056130	0.019530
C3081	C308	0.624770	0.089140	0.039330
C3091	C309	0.652600	0.113530	0.982630
H2051	H205	0.642070	0.110330	0.931330
C3101	C310	0.696000	0.143010	0.997430
H2061	H206	0.714270	0.161030	0.957230
C3111	C311	0.711830	0.145890	0.067930
C3121	C312	0.684420	0.122150	0.128330
H2071	H207	0.695070	0.125630	0.179630
C3131	C313	0.640090	0.092570	0.111330
H2081	H208	0.621170	0.075130	0.151330
C3141	C314	0.758900	0.173270	0.087230
C3151	C315	0.779170	0.154750	0.125230
H2091	H209	0.762570	0.124830	0.137830
H2101	H210	0.723770	0.231330	0.109130
O711	O71	0.222480	0.368010	0.413770
O721	O72	0.231630	0.386880	0.285170
C3161	C316	0.244380	0.389470	0.352870
C3171	C317	0.291430	0.422480	0.372670
C3181	C318	0.319260	0.446870	0.315970
H2111	H211	0.308730	0.443670	0.264670
C3191	C319	0.362660	0.476350	0.330770
H2121	H212	0.380930	0.494370	0.290570
C3201	C320	0.378490	0.479230	0.401270
C3211	C321	0.351080	0.455490	0.461670
H2131	H213	0.361730	0.458970	0.512970
C3221	C322	0.306750	0.425910	0.444670
H2141	H214	0.287830	0.408470	0.484670
C3231	C323	0.425560	0.506610	0.420570
C3241	C324	0.445830	0.488090	0.458570
H2151	H215	0.429230	0.458170	0.471170
H2161	H216	0.390430	0.564670	0.442470
Cu11	Cu1	0.838730	0.161270	0.593040
Cu21	Cu2	0.505400	0.494600	0.926370
Cu31	Cu3	0.172060	0.827940	0.259710
Cu41	Cu4	0.838730	0.677460	0.593040
Cu51	Cu5	0.505400	0.010790	0.926370
Cu61	Cu6	0.172060	0.344130	0.259710
Cu71	Cu7	0.322540	0.161270	0.593040
Cu81	Cu8	0.989210	0.494600	0.926370
Cu91	Cu9	0.655870	0.827940	0.259710
Cu101	Cu10	0.161270	0.838730	0.406960
Cu111	Cu11	0.827940	0.172060	0.740290
Cu121	Cu12	0.494600	0.505400	0.073630
Cu131	Cu13	0.677460	0.838730	0.406960
Cu141	Cu14	0.344130	0.172060	0.740290
Cu151	Cu15	0.010790	0.505400	0.073630
Cu161	Cu16	0.161270	0.322540	0.406960
Cu171	Cu17	0.827940	0.655870	0.740290
Cu181	Cu18	0.494600	0.989210	0.073630
O731	O73	0.097220	0.194440	0.692500
C3251	C325	0.156250	0.312500	0.813600
C3261	C326	0.116490	0.232970	0.732400
C3271	C327	0.079100	0.158200	0.743200
H2171	H217	0.065700	0.131400	0.713000
O741	O74	0.763890	0.527770	0.025830
C3281	C328	0.822920	0.645830	0.146930
C3291	C329	0.783150	0.566300	0.065730
C3301	C330	0.745770	0.491530	0.076530
H2181	H218	0.732370	0.464730	0.046330
O751	O75	0.430550	0.861110	0.359170
C3311	C331	0.489580	0.979170	0.480270
C3321	C332	0.449820	0.899640	0.399070
C3331	C333	0.412430	0.824870	0.409870
H2191	H219	0.399030	0.798070	0.379670
O761	O76	0.805560	0.902780	0.692500
C3341	C334	0.687500	0.843750	0.813600
C3351	C335	0.767030	0.883510	0.732400
C3361	C336	0.841800	0.920900	0.743200
H2201	H220	0.868600	0.934300	0.713000
O771	O77	0.472230	0.236110	0.025830
C3371	C337	0.354170	0.177080	0.146930
C3381	C338	0.433700	0.216850	0.065730
C3391	C339	0.508470	0.254230	0.076530
H2211	H221	0.535270	0.267630	0.046330
O781	O78	0.138890	0.569450	0.359170
C3401	C340	0.020830	0.510420	0.480270
C3411	C341	0.100360	0.550180	0.399070
C3421	C342	0.175130	0.587570	0.409870
H2221	H222	0.201930	0.600970	0.379670
O791	O79	0.097220	0.902780	0.692500
C3431	C343	0.156250	0.843750	0.813600
C3441	C344	0.116490	0.883510	0.732400
C3451	C345	0.079100	0.920900	0.743200
H2231	H223	0.065700	0.934300	0.713000
O801	O80	0.763890	0.236110	0.025830
C3461	C346	0.822920	0.177080	0.146930
C3471	C347	0.783150	0.216850	0.065730
C3481	C348	0.745770	0.254230	0.076530
H2241	H224	0.732370	0.267630	0.046330
O811	O81	0.430550	0.569450	0.359170
C3491	C349	0.489580	0.510420	0.480270
C3501	C350	0.449820	0.550180	0.399070
C3511	C351	0.412430	0.587570	0.409870
H2251	H225	0.399030	0.600970	0.379670
O821	O82	0.194440	0.097220	0.307500
C3521	C352	0.312500	0.156250	0.186400
C3531	C353	0.232970	0.116490	0.267600
C3541	C354	0.158200	0.079100	0.256800
H2261	H226	0.131400	0.065700	0.287000
O831	O83	0.861110	0.430550	0.640830
C3551	C355	0.979170	0.489580	0.519730
C3561	C356	0.899640	0.449820	0.600930
C3571	C357	0.824870	0.412430	0.590130
H2271	H227	0.798070	0.399030	0.620330
O841	O84	0.527770	0.763890	0.974170
C3581	C358	0.645830	0.822920	0.853070
C3591	C359	0.566300	0.783150	0.934270
C3601	C360	0.491530	0.745770	0.923470
H2281	H228	0.464730	0.732370	0.953670
O851	O85	0.902780	0.805560	0.307500
C3611	C361	0.843750	0.687500	0.186400
C3621	C362	0.883510	0.767030	0.267600
C3631	C363	0.920900	0.841800	0.256800
H2291	H229	0.934300	0.868600	0.287000
O861	O86	0.569450	0.138890	0.640830
C3641	C364	0.510420	0.020830	0.519730
C3651	C365	0.550180	0.100360	0.600930
C3661	C366	0.587570	0.175130	0.590130
H2301	H230	0.600970	0.201930	0.620330
O871	O87	0.236110	0.472230	0.974170
C3671	C367	0.177080	0.354170	0.853070
C3681	C368	0.216850	0.433700	0.934270
C3691	C369	0.254230	0.508470	0.923470
H2311	H231	0.267630	0.535270	0.953670
O881	O88	0.902780	0.097220	0.307500
C3701	C370	0.843750	0.156250	0.186400
C3711	C371	0.883510	0.116490	0.267600
C3721	C372	0.920900	0.079100	0.256800
H2321	H232	0.934300	0.065700	0.287000
O891	O89	0.569450	0.430550	0.640830
C3731	C373	0.510420	0.489580	0.519730
C3741	C374	0.550180	0.449820	0.600930
C3751	C375	0.587570	0.412430	0.590130
H2331	H233	0.600970	0.399030	0.620330
O901	O90	0.236110	0.763890	0.974170
C3761	C376	0.177080	0.822920	0.853070
C3771	C377	0.216850	0.783150	0.934270
C3781	C378	0.254230	0.745770	0.923470
H2341	H234	0.267630	0.732370	0.953670
