data_UMOBEF01_clean_PM
_symmetry_space_group_name_H-M	'P1'
_cell_length_a	35.022700
_cell_length_b	35.022700
_cell_length_c	22.753900
_cell_angle_alpha	90.000000
_cell_angle_beta	90.000000
_cell_angle_gamma	120.000000
_symmetry_Int_Tables_number 1

loop_
_symmetry_equiv_pos_as_xyz
'x,y,z'

loop_
_atom_site_label
_atom_site_type_symbol
_atom_site_fract_x
_atom_site_fract_y
_atom_site_fract_z
O11	O1	0.219880	0.361370	0.401150
O21	O2	0.234090	0.389460	0.310410
C11	C1	0.244670	0.387540	0.361820
C21	C2	0.291640	0.419010	0.380240
C31	C3	0.321800	0.447030	0.339360
H11	H1	0.313100	0.446700	0.300700
C41	C4	0.365000	0.475620	0.355930
H21	H2	0.384900	0.494800	0.328200
C51	C5	0.379010	0.476290	0.411840
C61	C6	0.348510	0.448050	0.453040
H31	H3	0.357200	0.448200	0.491700
C71	C7	0.305190	0.419620	0.436230
H41	H4	0.285100	0.400700	0.463900
C81	C8	0.426080	0.504720	0.430230
C91	C9	0.445740	0.486310	0.464000
H51	H5	0.428800	0.457000	0.475300
H61	H6	0.435200	0.609500	0.436300
O31	O3	0.886550	0.694700	0.734480
O41	O4	0.900760	0.722790	0.643740
C101	C10	0.911340	0.720870	0.695150
C111	C11	0.958310	0.752340	0.713570
C121	C12	0.988470	0.780360	0.672690
H71	H7	0.979770	0.780030	0.634030
C131	C13	0.031670	0.808950	0.689260
H81	H8	0.051570	0.828130	0.661530
C141	C14	0.045680	0.809620	0.745170
C151	C15	0.015180	0.781380	0.786370
H91	H9	0.023870	0.781530	0.825030
C161	C16	0.971860	0.752950	0.769560
H101	H10	0.951770	0.734030	0.797230
C171	C17	0.092750	0.838050	0.763560
C181	C18	0.112410	0.819640	0.797330
H111	H11	0.095470	0.790330	0.808630
H121	H12	0.101870	0.942830	0.769630
O51	O5	0.553210	0.028040	0.067820
O61	O6	0.567420	0.056130	0.977080
C191	C19	0.578000	0.054210	0.028490
C201	C20	0.624970	0.085680	0.046910
C211	C21	0.655130	0.113700	0.006030
H131	H13	0.646430	0.113370	0.967370
C221	C22	0.698330	0.142290	0.022600
H141	H14	0.718230	0.161470	0.994870
C231	C23	0.712340	0.142960	0.078510
C241	C24	0.681840	0.114720	0.119710
H151	H15	0.690530	0.114870	0.158370
C251	C25	0.638520	0.086290	0.102900
H161	H16	0.618430	0.067370	0.130570
C261	C26	0.759410	0.171390	0.096900
C271	C27	0.779070	0.152980	0.130670
H171	H17	0.762130	0.123670	0.141970
H181	H18	0.768530	0.276170	0.102970
O71	O7	0.638630	0.858510	0.401150
O81	O8	0.610540	0.844630	0.310410
C281	C28	0.612460	0.857130	0.361820
C291	C29	0.580990	0.872630	0.380240
C301	C30	0.552970	0.874770	0.339360
H191	H19	0.553300	0.866400	0.300700
C311	C31	0.524380	0.889380	0.355930
H201	H20	0.505200	0.890100	0.328200
C321	C32	0.523710	0.902720	0.411840
C331	C33	0.551950	0.900460	0.453040
H211	H21	0.551800	0.909000	0.491700
C341	C34	0.580380	0.885570	0.436230
H221	H22	0.599300	0.884400	0.463900
C351	C35	0.495280	0.921360	0.430230
C361	C36	0.513690	0.959430	0.464000
H231	H23	0.543000	0.971800	0.475300
H241	H24	0.390500	0.825700	0.436300
O91	O9	0.305300	0.191840	0.734480
O101	O10	0.277210	0.177960	0.643740
C371	C37	0.279130	0.190460	0.695150
C381	C38	0.247660	0.205960	0.713570
C391	C39	0.219640	0.208100	0.672690
H251	H25	0.219970	0.199730	0.634030
C401	C40	0.191050	0.222710	0.689260
H261	H26	0.171870	0.223430	0.661530
C411	C41	0.190380	0.236050	0.745170
C421	C42	0.218620	0.233790	0.786370
H271	H27	0.218470	0.242330	0.825030
C431	C43	0.247050	0.218900	0.769560
H281	H28	0.265970	0.217730	0.797230
C441	C44	0.161950	0.254690	0.763560
C451	C45	0.180360	0.292760	0.797330
H291	H29	0.209670	0.305130	0.808630
H301	H30	0.057170	0.159030	0.769630
O111	O11	0.971960	0.525180	0.067820
O121	O12	0.943870	0.511300	0.977080
C461	C46	0.945790	0.523800	0.028490
C471	C47	0.914320	0.539300	0.046910
C481	C48	0.886300	0.541440	0.006030
H311	H31	0.886630	0.533070	0.967370
C491	C49	0.857710	0.556050	0.022600
H321	H32	0.838530	0.556770	0.994870
C501	C50	0.857040	0.569390	0.078510
C511	C51	0.885280	0.567130	0.119710
H331	H33	0.885130	0.575670	0.158370
C521	C52	0.913710	0.552240	0.102900
H341	H34	0.932630	0.551070	0.130570
C531	C53	0.828610	0.588030	0.096900
C541	C54	0.847020	0.626100	0.130670
H351	H35	0.876330	0.638470	0.141970
H361	H36	0.723830	0.492370	0.102970
O131	O13	0.141490	0.780120	0.401150
O141	O14	0.155370	0.765910	0.310410
C551	C55	0.142870	0.755330	0.361820
C561	C56	0.127370	0.708360	0.380240
C571	C57	0.125230	0.678200	0.339360
H371	H37	0.133600	0.686900	0.300700
C581	C58	0.110620	0.635000	0.355930
H381	H38	0.109900	0.615100	0.328200
C591	C59	0.097280	0.620990	0.411840
C601	C60	0.099540	0.651490	0.453040
H391	H39	0.091000	0.642800	0.491700
C611	C61	0.114430	0.694810	0.436230
H401	H40	0.115600	0.714900	0.463900
C621	C62	0.078640	0.573920	0.430230
C631	C63	0.040570	0.554260	0.464000
H411	H41	0.028200	0.571200	0.475300
H421	H42	0.174300	0.564800	0.436300
O151	O15	0.808160	0.113450	0.734480
O161	O16	0.822040	0.099240	0.643740
C641	C64	0.809540	0.088660	0.695150
C651	C65	0.794040	0.041690	0.713570
C661	C66	0.791900	0.011530	0.672690
H431	H43	0.800270	0.020230	0.634030
C671	C67	0.777290	0.968330	0.689260
H441	H44	0.776570	0.948430	0.661530
C681	C68	0.763950	0.954320	0.745170
C691	C69	0.766210	0.984820	0.786370
H451	H45	0.757670	0.976130	0.825030
C701	C70	0.781100	0.028140	0.769560
H461	H46	0.782270	0.048230	0.797230
C711	C71	0.745310	0.907250	0.763560
C721	C72	0.707240	0.887590	0.797330
H471	H47	0.694870	0.904530	0.808630
H481	H48	0.840970	0.898130	0.769630
O171	O17	0.474820	0.446790	0.067820
O181	O18	0.488700	0.432580	0.977080
C731	C73	0.476200	0.422000	0.028490
C741	C74	0.460700	0.375030	0.046910
C751	C75	0.458560	0.344870	0.006030
H491	H49	0.466930	0.353570	0.967370
C761	C76	0.443950	0.301670	0.022600
H501	H50	0.443230	0.281770	0.994870
C771	C77	0.430610	0.287660	0.078510
C781	C78	0.432870	0.318160	0.119710
H511	H51	0.424330	0.309470	0.158370
C791	C79	0.447760	0.361480	0.102900
H521	H52	0.448930	0.381570	0.130570
C801	C80	0.411970	0.240590	0.096900
C811	C81	0.373900	0.220930	0.130670
H531	H53	0.361530	0.237870	0.141970
H541	H54	0.507630	0.231470	0.102970
O191	O19	0.361370	0.219880	0.598850
O201	O20	0.389460	0.234090	0.689590
C821	C82	0.387540	0.244670	0.638180
C831	C83	0.419010	0.291640	0.619760
C841	C84	0.447030	0.321800	0.660640
H551	H55	0.446700	0.313100	0.699300
C851	C85	0.475620	0.365000	0.644070
H561	H56	0.494800	0.384900	0.671800
C861	C86	0.476290	0.379010	0.588160
C871	C87	0.448050	0.348510	0.546960
H571	H57	0.448200	0.357200	0.508300
C881	C88	0.419620	0.305190	0.563770
H581	H58	0.400700	0.285100	0.536100
C891	C89	0.504720	0.426080	0.569770
C901	C90	0.486310	0.445740	0.536000
H591	H59	0.457000	0.428800	0.524700
H601	H60	0.609500	0.435200	0.563700
O211	O21	0.028040	0.553210	0.932180
O221	O22	0.056130	0.567420	0.022920
C911	C91	0.054210	0.578000	0.971510
C921	C92	0.085680	0.624970	0.953090
C931	C93	0.113700	0.655130	0.993970
H611	H61	0.113370	0.646430	0.032630
C941	C94	0.142290	0.698330	0.977400
H621	H62	0.161470	0.718230	0.005130
C951	C95	0.142960	0.712340	0.921490
C961	C96	0.114720	0.681840	0.880290
H631	H63	0.114870	0.690530	0.841630
C971	C97	0.086290	0.638520	0.897100
H641	H64	0.067370	0.618430	0.869430
C981	C98	0.171390	0.759410	0.903100
C991	C99	0.152980	0.779070	0.869330
H651	H65	0.123670	0.762130	0.858030
H661	H66	0.276170	0.768530	0.897030
O231	O23	0.694700	0.886550	0.265520
O241	O24	0.722790	0.900760	0.356260
C1001	C100	0.720870	0.911340	0.304850
C1011	C101	0.752340	0.958310	0.286430
C1021	C102	0.780360	0.988470	0.327310
H671	H67	0.780030	0.979770	0.365970
C1031	C103	0.808950	0.031670	0.310740
H681	H68	0.828130	0.051570	0.338470
C1041	C104	0.809620	0.045680	0.254830
C1051	C105	0.781380	0.015180	0.213630
H691	H69	0.781530	0.023870	0.174970
C1061	C106	0.752950	0.971860	0.230440
H701	H70	0.734030	0.951770	0.202770
C1071	C107	0.838050	0.092750	0.236440
C1081	C108	0.819640	0.112410	0.202670
H711	H71	0.790330	0.095470	0.191370
H721	H72	0.942830	0.101870	0.230370
O251	O25	0.858510	0.638630	0.598850
O261	O26	0.844630	0.610540	0.689590
C1091	C109	0.857130	0.612460	0.638180
C1101	C110	0.872630	0.580990	0.619760
C1111	C111	0.874770	0.552970	0.660640
H731	H73	0.866400	0.553300	0.699300
C1121	C112	0.889380	0.524380	0.644070
H741	H74	0.890100	0.505200	0.671800
C1131	C113	0.902720	0.523710	0.588160
C1141	C114	0.900460	0.551950	0.546960
H751	H75	0.909000	0.551800	0.508300
C1151	C115	0.885570	0.580380	0.563770
H761	H76	0.884400	0.599300	0.536100
C1161	C116	0.921360	0.495280	0.569770
C1171	C117	0.959430	0.513690	0.536000
H771	H77	0.971800	0.543000	0.524700
H781	H78	0.825700	0.390500	0.563700
O271	O27	0.525180	0.971960	0.932180
O281	O28	0.511300	0.943870	0.022920
C1181	C118	0.523800	0.945790	0.971510
C1191	C119	0.539300	0.914320	0.953090
C1201	C120	0.541440	0.886300	0.993970
H791	H79	0.533070	0.886630	0.032630
C1211	C121	0.556050	0.857710	0.977400
H801	H80	0.556770	0.838530	0.005130
C1221	C122	0.569390	0.857040	0.921490
C1231	C123	0.567130	0.885280	0.880290
H811	H81	0.575670	0.885130	0.841630
C1241	C124	0.552240	0.913710	0.897100
H821	H82	0.551070	0.932630	0.869430
C1251	C125	0.588030	0.828610	0.903100
C1261	C126	0.626100	0.847020	0.869330
H831	H83	0.638470	0.876330	0.858030
H841	H84	0.492370	0.723830	0.897030
O291	O29	0.191840	0.305300	0.265520
O301	O30	0.177960	0.277210	0.356260
C1271	C127	0.190460	0.279130	0.304850
C1281	C128	0.205960	0.247660	0.286430
C1291	C129	0.208100	0.219640	0.327310
H851	H85	0.199730	0.219970	0.365970
C1301	C130	0.222710	0.191050	0.310740
H861	H86	0.223430	0.171870	0.338470
C1311	C131	0.236050	0.190380	0.254830
C1321	C132	0.233790	0.218620	0.213630
H871	H87	0.242330	0.218470	0.174970
C1331	C133	0.218900	0.247050	0.230440
H881	H88	0.217730	0.265970	0.202770
C1341	C134	0.254690	0.161950	0.236440
C1351	C135	0.292760	0.180360	0.202670
H891	H89	0.305130	0.209670	0.191370
H901	H90	0.159030	0.057170	0.230370
O311	O31	0.780120	0.141490	0.598850
O321	O32	0.765910	0.155370	0.689590
C1361	C136	0.755330	0.142870	0.638180
C1371	C137	0.708360	0.127370	0.619760
C1381	C138	0.678200	0.125230	0.660640
H911	H91	0.686900	0.133600	0.699300
C1391	C139	0.635000	0.110620	0.644070
H921	H92	0.615100	0.109900	0.671800
C1401	C140	0.620990	0.097280	0.588160
C1411	C141	0.651490	0.099540	0.546960
H931	H93	0.642800	0.091000	0.508300
C1421	C142	0.694810	0.114430	0.563770
H941	H94	0.714900	0.115600	0.536100
C1431	C143	0.573920	0.078640	0.569770
C1441	C144	0.554260	0.040570	0.536000
H951	H95	0.571200	0.028200	0.524700
H961	H96	0.564800	0.174300	0.563700
O331	O33	0.446790	0.474820	0.932180
O341	O34	0.432580	0.488700	0.022920
C1451	C145	0.422000	0.476200	0.971510
C1461	C146	0.375030	0.460700	0.953090
C1471	C147	0.344870	0.458560	0.993970
H971	H97	0.353570	0.466930	0.032630
C1481	C148	0.301670	0.443950	0.977400
H981	H98	0.281770	0.443230	0.005130
C1491	C149	0.287660	0.430610	0.921490
C1501	C150	0.318160	0.432870	0.880290
H991	H99	0.309470	0.424330	0.841630
C1511	C151	0.361480	0.447760	0.897100
H1001	H100	0.381570	0.448930	0.869430
C1521	C152	0.240590	0.411970	0.903100
C1531	C153	0.220930	0.373900	0.869330
H1011	H101	0.237870	0.361530	0.858030
H1021	H102	0.231470	0.507630	0.897030
O351	O35	0.113450	0.808160	0.265520
O361	O36	0.099240	0.822040	0.356260
C1541	C154	0.088660	0.809540	0.304850
C1551	C155	0.041690	0.794040	0.286430
C1561	C156	0.011530	0.791900	0.327310
H1031	H103	0.020230	0.800270	0.365970
C1571	C157	0.968330	0.777290	0.310740
H1041	H104	0.948430	0.776570	0.338470
C1581	C158	0.954320	0.763950	0.254830
C1591	C159	0.984820	0.766210	0.213630
H1051	H105	0.976130	0.757670	0.174970
C1601	C160	0.028140	0.781100	0.230440
H1061	H106	0.048230	0.782270	0.202770
C1611	C161	0.907250	0.745310	0.236440
C1621	C162	0.887590	0.707240	0.202670
H1071	H107	0.904530	0.694870	0.191370
H1081	H108	0.898130	0.840970	0.230370
O371	O37	0.780120	0.638630	0.598850
O381	O38	0.765910	0.610540	0.689590
C1631	C163	0.755330	0.612460	0.638180
C1641	C164	0.708360	0.580990	0.619760
C1651	C165	0.678200	0.552970	0.660640
H1091	H109	0.686900	0.553300	0.699300
C1661	C166	0.635000	0.524380	0.644070
H1101	H110	0.615100	0.505200	0.671800
C1671	C167	0.620990	0.523710	0.588160
C1681	C168	0.651490	0.551950	0.546960
H1111	H111	0.642800	0.551800	0.508300
C1691	C169	0.694810	0.580380	0.563770
H1121	H112	0.714900	0.599300	0.536100
C1701	C170	0.573920	0.495280	0.569770
C1711	C171	0.554260	0.513690	0.536000
H1131	H113	0.571200	0.543000	0.524700
H1141	H114	0.564800	0.390500	0.563700
O391	O39	0.446790	0.971960	0.932180
O401	O40	0.432580	0.943870	0.022920
C1721	C172	0.422000	0.945790	0.971510
C1731	C173	0.375030	0.914320	0.953090
C1741	C174	0.344870	0.886300	0.993970
H1151	H115	0.353570	0.886630	0.032630
C1751	C175	0.301670	0.857710	0.977400
H1161	H116	0.281770	0.838530	0.005130
C1761	C176	0.287660	0.857040	0.921490
C1771	C177	0.318160	0.885280	0.880290
H1171	H117	0.309470	0.885130	0.841630
C1781	C178	0.361480	0.913710	0.897100
H1181	H118	0.381570	0.932630	0.869430
C1791	C179	0.240590	0.828610	0.903100
C1801	C180	0.220930	0.847020	0.869330
H1191	H119	0.237870	0.876330	0.858030
H1201	H120	0.231470	0.723830	0.897030
O411	O41	0.113450	0.305300	0.265520
O421	O42	0.099240	0.277210	0.356260
C1811	C181	0.088660	0.279130	0.304850
C1821	C182	0.041690	0.247660	0.286430
C1831	C183	0.011530	0.219640	0.327310
H1211	H121	0.020230	0.219970	0.365970
C1841	C184	0.968330	0.191050	0.310740
H1221	H122	0.948430	0.171870	0.338470
C1851	C185	0.954320	0.190380	0.254830
C1861	C186	0.984820	0.218620	0.213630
H1231	H123	0.976130	0.218470	0.174970
C1871	C187	0.028140	0.247050	0.230440
H1241	H124	0.048230	0.265970	0.202770
C1881	C188	0.907250	0.161950	0.236440
C1891	C189	0.887590	0.180360	0.202670
H1251	H125	0.904530	0.209670	0.191370
H1261	H126	0.898130	0.057170	0.230370
O431	O43	0.361370	0.141490	0.598850
O441	O44	0.389460	0.155370	0.689590
C1901	C190	0.387540	0.142870	0.638180
C1911	C191	0.419010	0.127370	0.619760
C1921	C192	0.447030	0.125230	0.660640
H1271	H127	0.446700	0.133600	0.699300
C1931	C193	0.475620	0.110620	0.644070
H1281	H128	0.494800	0.109900	0.671800
C1941	C194	0.476290	0.097280	0.588160
C1951	C195	0.448050	0.099540	0.546960
H1291	H129	0.448200	0.091000	0.508300
C1961	C196	0.419620	0.114430	0.563770
H1301	H130	0.400700	0.115600	0.536100
C1971	C197	0.504720	0.078640	0.569770
C1981	C198	0.486310	0.040570	0.536000
H1311	H131	0.457000	0.028200	0.524700
H1321	H132	0.609500	0.174300	0.563700
O451	O45	0.028040	0.474820	0.932180
O461	O46	0.056130	0.488700	0.022920
C1991	C199	0.054210	0.476200	0.971510
C2001	C200	0.085680	0.460700	0.953090
C2011	C201	0.113700	0.458560	0.993970
H1331	H133	0.113370	0.466930	0.032630
C2021	C202	0.142290	0.443950	0.977400
H1341	H134	0.161470	0.443230	0.005130
C2031	C203	0.142960	0.430610	0.921490
C2041	C204	0.114720	0.432870	0.880290
H1351	H135	0.114870	0.424330	0.841630
C2051	C205	0.086290	0.447760	0.897100
H1361	H136	0.067370	0.448930	0.869430
C2061	C206	0.171390	0.411970	0.903100
C2071	C207	0.152980	0.373900	0.869330
H1371	H137	0.123670	0.361530	0.858030
H1381	H138	0.276170	0.507630	0.897030
O471	O47	0.694700	0.808160	0.265520
O481	O48	0.722790	0.822040	0.356260
C2081	C208	0.720870	0.809540	0.304850
C2091	C209	0.752340	0.794040	0.286430
C2101	C210	0.780360	0.791900	0.327310
H1391	H139	0.780030	0.800270	0.365970
C2111	C211	0.808950	0.777290	0.310740
H1401	H140	0.828130	0.776570	0.338470
C2121	C212	0.809620	0.763950	0.254830
C2131	C213	0.781380	0.766210	0.213630
H1411	H141	0.781530	0.757670	0.174970
C2141	C214	0.752950	0.781100	0.230440
H1421	H142	0.734030	0.782270	0.202770
C2151	C215	0.838050	0.745310	0.236440
C2161	C216	0.819640	0.707240	0.202670
H1431	H143	0.790330	0.694870	0.191370
H1441	H144	0.942830	0.840970	0.230370
O491	O49	0.858510	0.219880	0.598850
O501	O50	0.844630	0.234090	0.689590
C2171	C217	0.857130	0.244670	0.638180
C2181	C218	0.872630	0.291640	0.619760
C2191	C219	0.874770	0.321800	0.660640
H1451	H145	0.866400	0.313100	0.699300
C2201	C220	0.889380	0.365000	0.644070
H1461	H146	0.890100	0.384900	0.671800
C2211	C221	0.902720	0.379010	0.588160
C2221	C222	0.900460	0.348510	0.546960
H1471	H147	0.909000	0.357200	0.508300
C2231	C223	0.885570	0.305190	0.563770
H1481	H148	0.884400	0.285100	0.536100
C2241	C224	0.921360	0.426080	0.569770
C2251	C225	0.959430	0.445740	0.536000
H1491	H149	0.971800	0.428800	0.524700
H1501	H150	0.825700	0.435200	0.563700
O511	O51	0.525180	0.553210	0.932180
O521	O52	0.511300	0.567420	0.022920
C2261	C226	0.523800	0.578000	0.971510
C2271	C227	0.539300	0.624970	0.953090
C2281	C228	0.541440	0.655130	0.993970
H1511	H151	0.533070	0.646430	0.032630
C2291	C229	0.556050	0.698330	0.977400
H1521	H152	0.556770	0.718230	0.005130
C2301	C230	0.569390	0.712340	0.921490
C2311	C231	0.567130	0.681840	0.880290
H1531	H153	0.575670	0.690530	0.841630
C2321	C232	0.552240	0.638520	0.897100
H1541	H154	0.551070	0.618430	0.869430
C2331	C233	0.588030	0.759410	0.903100
C2341	C234	0.626100	0.779070	0.869330
H1551	H155	0.638470	0.762130	0.858030
H1561	H156	0.492370	0.768530	0.897030
O531	O53	0.191840	0.886550	0.265520
O541	O54	0.177960	0.900760	0.356260
C2351	C235	0.190460	0.911340	0.304850
C2361	C236	0.205960	0.958310	0.286430
C2371	C237	0.208100	0.988470	0.327310
H1571	H157	0.199730	0.979770	0.365970
C2381	C238	0.222710	0.031670	0.310740
H1581	H158	0.223430	0.051570	0.338470
C2391	C239	0.236050	0.045680	0.254830
C2401	C240	0.233790	0.015180	0.213630
H1591	H159	0.242330	0.023870	0.174970
C2411	C241	0.218900	0.971860	0.230440
H1601	H160	0.217730	0.951770	0.202770
C2421	C242	0.254690	0.092750	0.236440
C2431	C243	0.292760	0.112410	0.202670
H1611	H161	0.305130	0.095470	0.191370
H1621	H162	0.159030	0.101870	0.230370
O551	O55	0.638630	0.780120	0.401150
O561	O56	0.610540	0.765910	0.310410
C2441	C244	0.612460	0.755330	0.361820
C2451	C245	0.580990	0.708360	0.380240
C2461	C246	0.552970	0.678200	0.339360
H1631	H163	0.553300	0.686900	0.300700
C2471	C247	0.524380	0.635000	0.355930
H1641	H164	0.505200	0.615100	0.328200
C2481	C248	0.523710	0.620990	0.411840
C2491	C249	0.551950	0.651490	0.453040
H1651	H165	0.551800	0.642800	0.491700
C2501	C250	0.580380	0.694810	0.436230
H1661	H166	0.599300	0.714900	0.463900
C2511	C251	0.495280	0.573920	0.430230
C2521	C252	0.513690	0.554260	0.464000
H1671	H167	0.543000	0.571200	0.475300
H1681	H168	0.390500	0.564800	0.436300
O571	O57	0.305300	0.113450	0.734480
O581	O58	0.277210	0.099240	0.643740
C2531	C253	0.279130	0.088660	0.695150
C2541	C254	0.247660	0.041690	0.713570
C2551	C255	0.219640	0.011530	0.672690
H1691	H169	0.219970	0.020230	0.634030
C2561	C256	0.191050	0.968330	0.689260
H1701	H170	0.171870	0.948430	0.661530
C2571	C257	0.190380	0.954320	0.745170
C2581	C258	0.218620	0.984820	0.786370
H1711	H171	0.218470	0.976130	0.825030
C2591	C259	0.247050	0.028140	0.769560
H1721	H172	0.265970	0.048230	0.797230
C2601	C260	0.161950	0.907250	0.763560
C2611	C261	0.180360	0.887590	0.797330
H1731	H173	0.209670	0.904530	0.808630
H1741	H174	0.057170	0.898130	0.769630
O591	O59	0.971960	0.446790	0.067820
O601	O60	0.943870	0.432580	0.977080
C2621	C262	0.945790	0.422000	0.028490
C2631	C263	0.914320	0.375030	0.046910
C2641	C264	0.886300	0.344870	0.006030
H1751	H175	0.886630	0.353570	0.967370
C2651	C265	0.857710	0.301670	0.022600
H1761	H176	0.838530	0.281770	0.994870
C2661	C266	0.857040	0.287660	0.078510
C2671	C267	0.885280	0.318160	0.119710
H1771	H177	0.885130	0.309470	0.158370
C2681	C268	0.913710	0.361480	0.102900
H1781	H178	0.932630	0.381570	0.130570
C2691	C269	0.828610	0.240590	0.096900
C2701	C270	0.847020	0.220930	0.130670
H1791	H179	0.876330	0.237870	0.141970
H1801	H180	0.723830	0.231470	0.102970
O611	O61	0.141490	0.361370	0.401150
O621	O62	0.155370	0.389460	0.310410
C2711	C271	0.142870	0.387540	0.361820
C2721	C272	0.127370	0.419010	0.380240
C2731	C273	0.125230	0.447030	0.339360
H1811	H181	0.133600	0.446700	0.300700
C2741	C274	0.110620	0.475620	0.355930
H1821	H182	0.109900	0.494800	0.328200
C2751	C275	0.097280	0.476290	0.411840
C2761	C276	0.099540	0.448050	0.453040
H1831	H183	0.091000	0.448200	0.491700
C2771	C277	0.114430	0.419620	0.436230
H1841	H184	0.115600	0.400700	0.463900
C2781	C278	0.078640	0.504720	0.430230
C2791	C279	0.040570	0.486310	0.464000
H1851	H185	0.028200	0.457000	0.475300
H1861	H186	0.174300	0.609500	0.436300
O631	O63	0.808160	0.694700	0.734480
O641	O64	0.822040	0.722790	0.643740
C2801	C280	0.809540	0.720870	0.695150
C2811	C281	0.794040	0.752340	0.713570
C2821	C282	0.791900	0.780360	0.672690
H1871	H187	0.800270	0.780030	0.634030
C2831	C283	0.777290	0.808950	0.689260
H1881	H188	0.776570	0.828130	0.661530
C2841	C284	0.763950	0.809620	0.745170
C2851	C285	0.766210	0.781380	0.786370
H1891	H189	0.757670	0.781530	0.825030
C2861	C286	0.781100	0.752950	0.769560
H1901	H190	0.782270	0.734030	0.797230
C2871	C287	0.745310	0.838050	0.763560
C2881	C288	0.707240	0.819640	0.797330
H1911	H191	0.694870	0.790330	0.808630
H1921	H192	0.840970	0.942830	0.769630
O651	O65	0.474820	0.028040	0.067820
O661	O66	0.488700	0.056130	0.977080
C2891	C289	0.476200	0.054210	0.028490
C2901	C290	0.460700	0.085680	0.046910
C2911	C291	0.458560	0.113700	0.006030
H1931	H193	0.466930	0.113370	0.967370
C2921	C292	0.443950	0.142290	0.022600
H1941	H194	0.443230	0.161470	0.994870
C2931	C293	0.430610	0.142960	0.078510
C2941	C294	0.432870	0.114720	0.119710
H1951	H195	0.424330	0.114870	0.158370
C2951	C295	0.447760	0.086290	0.102900
H1961	H196	0.448930	0.067370	0.130570
C2961	C296	0.411970	0.171390	0.096900
C2971	C297	0.373900	0.152980	0.130670
H1971	H197	0.361530	0.123670	0.141970
H1981	H198	0.507630	0.276170	0.102970
O671	O67	0.219880	0.858510	0.401150
O681	O68	0.234090	0.844630	0.310410
C2981	C298	0.244670	0.857130	0.361820
C2991	C299	0.291640	0.872630	0.380240
C3001	C300	0.321800	0.874770	0.339360
H1991	H199	0.313100	0.866400	0.300700
C3011	C301	0.365000	0.889380	0.355930
H2001	H200	0.384900	0.890100	0.328200
C3021	C302	0.379010	0.902720	0.411840
C3031	C303	0.348510	0.900460	0.453040
H2011	H201	0.357200	0.909000	0.491700
C3041	C304	0.305190	0.885570	0.436230
H2021	H202	0.285100	0.884400	0.463900
C3051	C305	0.426080	0.921360	0.430230
C3061	C306	0.445740	0.959430	0.464000
H2031	H203	0.428800	0.971800	0.475300
H2041	H204	0.435200	0.825700	0.436300
O691	O69	0.886550	0.191840	0.734480
O701	O70	0.900760	0.177960	0.643740
C3071	C307	0.911340	0.190460	0.695150
C3081	C308	0.958310	0.205960	0.713570
C3091	C309	0.988470	0.208100	0.672690
H2051	H205	0.979770	0.199730	0.634030
C3101	C310	0.031670	0.222710	0.689260
H2061	H206	0.051570	0.223430	0.661530
C3111	C311	0.045680	0.236050	0.745170
C3121	C312	0.015180	0.233790	0.786370
H2071	H207	0.023870	0.242330	0.825030
C3131	C313	0.971860	0.218900	0.769560
H2081	H208	0.951770	0.217730	0.797230
C3141	C314	0.092750	0.254690	0.763560
C3151	C315	0.112410	0.292760	0.797330
H2091	H209	0.095470	0.305130	0.808630
H2101	H210	0.101870	0.159030	0.769630
O711	O71	0.553210	0.525180	0.067820
O721	O72	0.567420	0.511300	0.977080
C3161	C316	0.578000	0.523800	0.028490
C3171	C317	0.624970	0.539300	0.046910
C3181	C318	0.655130	0.541440	0.006030
H2111	H211	0.646430	0.533070	0.967370
C3191	C319	0.698330	0.556050	0.022600
H2121	H212	0.718230	0.556770	0.994870
C3201	C320	0.712340	0.569390	0.078510
C3211	C321	0.681840	0.567130	0.119710
H2131	H213	0.690530	0.575670	0.158370
C3221	C322	0.638520	0.552240	0.102900
H2141	H214	0.618430	0.551070	0.130570
C3231	C323	0.759410	0.588030	0.096900
C3241	C324	0.779070	0.626100	0.130670
H2151	H215	0.762130	0.638470	0.141970
H2161	H216	0.768530	0.492370	0.102970
Cu11	Cu1	0.158380	0.316750	0.387020
Cu21	Cu2	0.825040	0.650080	0.720350
Cu31	Cu3	0.491710	0.983420	0.053690
Cu41	Cu4	0.683250	0.841620	0.387020
Cu51	Cu5	0.349920	0.174960	0.720350
Cu61	Cu6	0.016580	0.508290	0.053690
Cu71	Cu7	0.158380	0.841620	0.387020
Cu81	Cu8	0.825040	0.174960	0.720350
Cu91	Cu9	0.491710	0.508290	0.053690
Cu101	Cu10	0.316750	0.158380	0.612980
Cu111	Cu11	0.983420	0.491710	0.946310
Cu121	Cu12	0.650080	0.825040	0.279650
Cu131	Cu13	0.841620	0.683250	0.612980
Cu141	Cu14	0.508290	0.016580	0.946310
Cu151	Cu15	0.174960	0.349920	0.279650
Cu161	Cu16	0.841620	0.158380	0.612980
Cu171	Cu17	0.508290	0.491710	0.946310
Cu181	Cu18	0.174960	0.825040	0.279650
O731	O73	0.432500	0.567500	0.378170
C3251	C325	0.490000	0.510000	0.481900
C3261	C326	0.451190	0.548810	0.414140
C3271	C327	0.413170	0.586830	0.412000
H2171	H217	0.400600	0.599400	0.386400
O741	O74	0.099170	0.900830	0.711500
C3281	C328	0.156670	0.843330	0.815230
C3291	C329	0.117860	0.882140	0.747470
C3301	C330	0.079840	0.920160	0.745330
H2181	H218	0.067270	0.932730	0.719730
O751	O75	0.765830	0.234170	0.044840
C3311	C331	0.823330	0.176670	0.148570
C3321	C332	0.784520	0.215480	0.080810
C3331	C333	0.746500	0.253500	0.078670
H2191	H219	0.733930	0.266070	0.053070
O761	O76	0.432500	0.865000	0.378170
C3341	C334	0.490000	0.980000	0.481900
C3351	C335	0.451190	0.902380	0.414140
C3361	C336	0.413170	0.826340	0.412000
H2201	H220	0.400600	0.801200	0.386400
O771	O77	0.099170	0.198330	0.711500
C3371	C337	0.156670	0.313330	0.815230
C3381	C338	0.117860	0.235710	0.747470
C3391	C339	0.079840	0.159670	0.745330
H2211	H221	0.067270	0.134530	0.719730
O781	O78	0.765830	0.531670	0.044840
C3401	C340	0.823330	0.646670	0.148570
C3411	C341	0.784520	0.569050	0.080810
C3421	C342	0.746500	0.493010	0.078670
H2221	H222	0.733930	0.467870	0.053070
O791	O79	0.135000	0.567500	0.378170
C3431	C343	0.020000	0.510000	0.481900
C3441	C344	0.097620	0.548810	0.414140
C3451	C345	0.173660	0.586830	0.412000
H2231	H223	0.198800	0.599400	0.386400
O801	O80	0.801670	0.900830	0.711500
C3461	C346	0.686670	0.843330	0.815230
C3471	C347	0.764290	0.882140	0.747470
C3481	C348	0.840330	0.920160	0.745330
H2241	H224	0.865470	0.932730	0.719730
O811	O81	0.468330	0.234170	0.044840
C3491	C349	0.353330	0.176670	0.148570
C3501	C350	0.430950	0.215480	0.080810
C3511	C351	0.506990	0.253500	0.078670
H2251	H225	0.532130	0.266070	0.053070
O821	O82	0.567500	0.432500	0.621830
C3521	C352	0.510000	0.490000	0.518100
C3531	C353	0.548810	0.451190	0.585860
C3541	C354	0.586830	0.413170	0.588000
H2261	H226	0.599400	0.400600	0.613600
O831	O83	0.234170	0.765830	0.955160
C3551	C355	0.176670	0.823330	0.851430
C3561	C356	0.215480	0.784520	0.919190
C3571	C357	0.253500	0.746500	0.921330
H2271	H227	0.266070	0.733930	0.946930
O841	O84	0.900830	0.099170	0.288500
C3581	C358	0.843330	0.156670	0.184770
C3591	C359	0.882140	0.117860	0.252530
C3601	C360	0.920160	0.079840	0.254670
H2281	H228	0.932730	0.067270	0.280270
O851	O85	0.865000	0.432500	0.621830
C3611	C361	0.980000	0.490000	0.518100
C3621	C362	0.902380	0.451190	0.585860
C3631	C363	0.826340	0.413170	0.588000
H2291	H229	0.801200	0.400600	0.613600
O861	O86	0.531670	0.765830	0.955160
C3641	C364	0.646670	0.823330	0.851430
C3651	C365	0.569050	0.784520	0.919190
C3661	C366	0.493010	0.746500	0.921330
H2301	H230	0.467870	0.733930	0.946930
O871	O87	0.198330	0.099170	0.288500
C3671	C367	0.313330	0.156670	0.184770
C3681	C368	0.235710	0.117860	0.252530
C3691	C369	0.159670	0.079840	0.254670
H2311	H231	0.134530	0.067270	0.280270
O881	O88	0.567500	0.135000	0.621830
C3701	C370	0.510000	0.020000	0.518100
C3711	C371	0.548810	0.097620	0.585860
C3721	C372	0.586830	0.173660	0.588000
H2321	H232	0.599400	0.198800	0.613600
O891	O89	0.234170	0.468330	0.955160
C3731	C373	0.176670	0.353330	0.851430
C3741	C374	0.215480	0.430950	0.919190
C3751	C375	0.253500	0.506990	0.921330
H2331	H233	0.266070	0.532130	0.946930
O901	O90	0.900830	0.801670	0.288500
C3761	C376	0.843330	0.686670	0.184770
C3771	C377	0.882140	0.764290	0.252530
C3781	C378	0.920160	0.840330	0.254670
H2341	H234	0.932730	0.865470	0.280270
