data_UMOBEF05_clean_PM
_symmetry_space_group_name_H-M	'P1'
_cell_length_a	35.823100
_cell_length_b	35.823100
_cell_length_c	15.721300
_cell_angle_alpha	90.000000
_cell_angle_beta	90.000000
_cell_angle_gamma	120.000000
_symmetry_Int_Tables_number 1

loop_
_symmetry_equiv_pos_as_xyz
'x,y,z'

loop_
_atom_site_label
_atom_site_type_symbol
_atom_site_fract_x
_atom_site_fract_y
_atom_site_fract_z
O11	O1	0.371360	0.224200	0.590090
O21	O2	0.384470	0.230880	0.730720
C11	C1	0.390080	0.244900	0.656600
C21	C2	0.422270	0.292120	0.642700
C31	C3	0.443320	0.319600	0.708300
H11	H1	0.438700	0.308800	0.764800
C41	C4	0.471320	0.362970	0.694100
H21	H2	0.485700	0.381300	0.741100
C51	C5	0.478800	0.380040	0.614000
C61	C6	0.459350	0.351790	0.547600
H31	H3	0.465300	0.362300	0.490900
C71	C7	0.431240	0.308320	0.562000
H41	H4	0.418000	0.289500	0.515100
C81	C8	0.505650	0.427010	0.595000
C91	C9	0.487210	0.446500	0.549100
H51	H5	0.457700	0.429800	0.533700
H61	H6	0.608500	0.436100	0.573200
O31	O3	0.038030	0.557530	0.923420
O41	O4	0.051140	0.564210	0.064050
C101	C10	0.056750	0.578230	0.989930
C111	C11	0.088940	0.625450	0.976030
C121	C12	0.109990	0.652930	0.041630
H71	H7	0.105370	0.642130	0.098130
C131	C13	0.137990	0.696300	0.027430
H81	H8	0.152370	0.714630	0.074430
C141	C14	0.145470	0.713370	0.947330
C151	C15	0.126020	0.685120	0.880930
H91	H9	0.131970	0.695630	0.824230
C161	C16	0.097910	0.641650	0.895330
H101	H10	0.084670	0.622830	0.848430
C171	C17	0.172320	0.760340	0.928330
C181	C18	0.153880	0.779830	0.882430
H111	H11	0.124370	0.763130	0.867030
H121	H12	0.275170	0.769430	0.906530
O51	O5	0.704690	0.890870	0.256760
O61	O6	0.717800	0.897550	0.397390
C191	C19	0.723410	0.911570	0.323270
C201	C20	0.755600	0.958790	0.309370
C211	C21	0.776650	0.986270	0.374970
H131	H13	0.772030	0.975470	0.431470
C221	C22	0.804650	0.029640	0.360770
H141	H14	0.819030	0.047970	0.407770
C231	C23	0.812130	0.046710	0.280670
C241	C24	0.792680	0.018460	0.214270
H151	H15	0.798630	0.028970	0.157570
C251	C25	0.764570	0.974990	0.228670
H161	H16	0.751330	0.956170	0.181770
C261	C26	0.838980	0.093680	0.261670
C271	C27	0.820540	0.113170	0.215770
H171	H17	0.791030	0.096470	0.200370
H181	H18	0.941830	0.102770	0.239870
O71	O7	0.775800	0.147160	0.590090
O81	O8	0.769120	0.153590	0.730720
C281	C28	0.755100	0.145180	0.656600
C291	C29	0.707880	0.130150	0.642700
C301	C30	0.680400	0.123720	0.708300
H191	H19	0.691200	0.129900	0.764800
C311	C31	0.637030	0.108350	0.694100
H201	H20	0.618700	0.104400	0.741100
C321	C32	0.619960	0.098760	0.614000
C331	C33	0.648210	0.107560	0.547600
H211	H21	0.637700	0.103000	0.490900
C341	C34	0.691680	0.122920	0.562000
H221	H22	0.710500	0.128500	0.515100
C351	C35	0.572990	0.078640	0.595000
C361	C36	0.553500	0.040710	0.549100
H231	H23	0.570200	0.027900	0.533700
H241	H24	0.563900	0.172400	0.573200
O91	O9	0.442470	0.480490	0.923420
O101	O10	0.435790	0.486920	0.064050
C371	C37	0.421770	0.478510	0.989930
C381	C38	0.374550	0.463480	0.976030
C391	C39	0.347070	0.457050	0.041630
H251	H25	0.357870	0.463230	0.098130
C401	C40	0.303700	0.441680	0.027430
H261	H26	0.285370	0.437730	0.074430
C411	C41	0.286630	0.432090	0.947330
C421	C42	0.314880	0.440890	0.880930
H271	H27	0.304370	0.436330	0.824230
C431	C43	0.358350	0.456250	0.895330
H281	H28	0.377170	0.461830	0.848430
C441	C44	0.239660	0.411970	0.928330
C451	C45	0.220170	0.374040	0.882430
H291	H29	0.236870	0.361230	0.867030
H301	H30	0.230570	0.505730	0.906530
O111	O11	0.109130	0.813830	0.256760
O121	O12	0.102450	0.820260	0.397390
C461	C46	0.088430	0.811850	0.323270
C471	C47	0.041210	0.796820	0.309370
C481	C48	0.013730	0.790390	0.374970
H311	H31	0.024530	0.796570	0.431470
C491	C49	0.970360	0.775020	0.360770
H321	H32	0.952030	0.771070	0.407770
C501	C50	0.953290	0.765430	0.280670
C511	C51	0.981540	0.774230	0.214270
H331	H33	0.971030	0.769670	0.157570
C521	C52	0.025010	0.789590	0.228670
H341	H34	0.043830	0.795170	0.181770
C531	C53	0.906320	0.745310	0.261670
C541	C54	0.886830	0.707380	0.215770
H351	H35	0.903530	0.694570	0.200370
H361	H36	0.897230	0.839070	0.239870
O131	O13	0.852840	0.628640	0.590090
O141	O14	0.846410	0.615530	0.730720
C551	C55	0.854820	0.609920	0.656600
C561	C56	0.869850	0.577730	0.642700
C571	C57	0.876280	0.556680	0.708300
H371	H37	0.870100	0.561300	0.764800
C581	C58	0.891650	0.528680	0.694100
H381	H38	0.895600	0.514300	0.741100
C591	C59	0.901240	0.521200	0.614000
C601	C60	0.892440	0.540650	0.547600
H391	H39	0.897000	0.534700	0.490900
C611	C61	0.877080	0.568760	0.562000
H401	H40	0.871500	0.582000	0.515100
C621	C62	0.921360	0.494350	0.595000
C631	C63	0.959290	0.512790	0.549100
H411	H41	0.972100	0.542300	0.533700
H421	H42	0.827600	0.391500	0.573200
O151	O15	0.519510	0.961970	0.923420
O161	O16	0.513080	0.948860	0.064050
C641	C64	0.521490	0.943250	0.989930
C651	C65	0.536520	0.911060	0.976030
C661	C66	0.542950	0.890010	0.041630
H431	H43	0.536770	0.894630	0.098130
C671	C67	0.558320	0.862010	0.027430
H441	H44	0.562270	0.847630	0.074430
C681	C68	0.567910	0.854530	0.947330
C691	C69	0.559110	0.873980	0.880930
H451	H45	0.563670	0.868030	0.824230
C701	C70	0.543750	0.902090	0.895330
H461	H46	0.538170	0.915330	0.848430
C711	C71	0.588030	0.827680	0.928330
C721	C72	0.625960	0.846120	0.882430
H471	H47	0.638770	0.875630	0.867030
H481	H48	0.494270	0.724830	0.906530
O171	O17	0.186170	0.295310	0.256760
O181	O18	0.179740	0.282200	0.397390
C731	C73	0.188150	0.276590	0.323270
C741	C74	0.203180	0.244400	0.309370
C751	C75	0.209610	0.223350	0.374970
H491	H49	0.203430	0.227970	0.431470
C761	C76	0.224980	0.195350	0.360770
H501	H50	0.228930	0.180970	0.407770
C771	C77	0.234570	0.187870	0.280670
C781	C78	0.225770	0.207320	0.214270
H511	H51	0.230330	0.201370	0.157570
C791	C79	0.210410	0.235430	0.228670
H521	H52	0.204830	0.248670	0.181770
C801	C80	0.254690	0.161020	0.261670
C811	C81	0.292620	0.179460	0.215770
H531	H53	0.305430	0.208970	0.200370
H541	H54	0.160930	0.058170	0.239870
O191	O19	0.224200	0.371360	0.409910
O201	O20	0.230880	0.384470	0.269280
C821	C82	0.244900	0.390080	0.343400
C831	C83	0.292120	0.422270	0.357300
C841	C84	0.319600	0.443320	0.291700
H551	H55	0.308800	0.438700	0.235200
C851	C85	0.362970	0.471320	0.305900
H561	H56	0.381300	0.485700	0.258900
C861	C86	0.380040	0.478800	0.386000
C871	C87	0.351790	0.459350	0.452400
H571	H57	0.362300	0.465300	0.509100
C881	C88	0.308320	0.431240	0.438000
H581	H58	0.289500	0.418000	0.484900
C891	C89	0.427010	0.505650	0.405000
C901	C90	0.446500	0.487210	0.450900
H591	H59	0.429800	0.457700	0.466300
H601	H60	0.436100	0.608500	0.426800
O211	O21	0.890870	0.704690	0.743240
O221	O22	0.897550	0.717800	0.602610
C911	C91	0.911570	0.723410	0.676730
C921	C92	0.958790	0.755600	0.690630
C931	C93	0.986270	0.776650	0.625030
H611	H61	0.975470	0.772030	0.568530
C941	C94	0.029640	0.804650	0.639230
H621	H62	0.047970	0.819030	0.592230
C951	C95	0.046710	0.812130	0.719330
C961	C96	0.018460	0.792680	0.785730
H631	H63	0.028970	0.798630	0.842430
C971	C97	0.974990	0.764570	0.771330
H641	H64	0.956170	0.751330	0.818230
C981	C98	0.093680	0.838980	0.738330
C991	C99	0.113170	0.820540	0.784230
H651	H65	0.096470	0.791030	0.799630
H661	H66	0.102770	0.941830	0.760130
O231	O23	0.557530	0.038030	0.076580
O241	O24	0.564210	0.051140	0.935950
C1001	C100	0.578230	0.056750	0.010070
C1011	C101	0.625450	0.088940	0.023970
C1021	C102	0.652930	0.109990	0.958370
H671	H67	0.642130	0.105370	0.901870
C1031	C103	0.696300	0.137990	0.972570
H681	H68	0.714630	0.152370	0.925570
C1041	C104	0.713370	0.145470	0.052670
C1051	C105	0.685120	0.126020	0.119070
H691	H69	0.695630	0.131970	0.175770
C1061	C106	0.641650	0.097910	0.104670
H701	H70	0.622830	0.084670	0.151570
C1071	C107	0.760340	0.172320	0.071670
C1081	C108	0.779830	0.153880	0.117570
H711	H71	0.763130	0.124370	0.132970
H721	H72	0.769430	0.275170	0.093470
O251	O25	0.147160	0.775800	0.409910
O261	O26	0.153590	0.769120	0.269280
C1091	C109	0.145180	0.755100	0.343400
C1101	C110	0.130150	0.707880	0.357300
C1111	C111	0.123720	0.680400	0.291700
H731	H73	0.129900	0.691200	0.235200
C1121	C112	0.108350	0.637030	0.305900
H741	H74	0.104400	0.618700	0.258900
C1131	C113	0.098760	0.619960	0.386000
C1141	C114	0.107560	0.648210	0.452400
H751	H75	0.103000	0.637700	0.509100
C1151	C115	0.122920	0.691680	0.438000
H761	H76	0.128500	0.710500	0.484900
C1161	C116	0.078640	0.572990	0.405000
C1171	C117	0.040710	0.553500	0.450900
H771	H77	0.027900	0.570200	0.466300
H781	H78	0.172400	0.563900	0.426800
O271	O27	0.813830	0.109130	0.743240
O281	O28	0.820260	0.102450	0.602610
C1181	C118	0.811850	0.088430	0.676730
C1191	C119	0.796820	0.041210	0.690630
C1201	C120	0.790390	0.013730	0.625030
H791	H79	0.796570	0.024530	0.568530
C1211	C121	0.775020	0.970360	0.639230
H801	H80	0.771070	0.952030	0.592230
C1221	C122	0.765430	0.953290	0.719330
C1231	C123	0.774230	0.981540	0.785730
H811	H81	0.769670	0.971030	0.842430
C1241	C124	0.789590	0.025010	0.771330
H821	H82	0.795170	0.043830	0.818230
C1251	C125	0.745310	0.906320	0.738330
C1261	C126	0.707380	0.886830	0.784230
H831	H83	0.694570	0.903530	0.799630
H841	H84	0.839070	0.897230	0.760130
O291	O29	0.480490	0.442470	0.076580
O301	O30	0.486920	0.435790	0.935950
C1271	C127	0.478510	0.421770	0.010070
C1281	C128	0.463480	0.374550	0.023970
C1291	C129	0.457050	0.347070	0.958370
H851	H85	0.463230	0.357870	0.901870
C1301	C130	0.441680	0.303700	0.972570
H861	H86	0.437730	0.285370	0.925570
C1311	C131	0.432090	0.286630	0.052670
C1321	C132	0.440890	0.314880	0.119070
H871	H87	0.436330	0.304370	0.175770
C1331	C133	0.456250	0.358350	0.104670
H881	H88	0.461830	0.377170	0.151570
C1341	C134	0.411970	0.239660	0.071670
C1351	C135	0.374040	0.220170	0.117570
H891	H89	0.361230	0.236870	0.132970
H901	H90	0.505730	0.230570	0.093470
O311	O31	0.628640	0.852840	0.409910
O321	O32	0.615530	0.846410	0.269280
C1361	C136	0.609920	0.854820	0.343400
C1371	C137	0.577730	0.869850	0.357300
C1381	C138	0.556680	0.876280	0.291700
H911	H91	0.561300	0.870100	0.235200
C1391	C139	0.528680	0.891650	0.305900
H921	H92	0.514300	0.895600	0.258900
C1401	C140	0.521200	0.901240	0.386000
C1411	C141	0.540650	0.892440	0.452400
H931	H93	0.534700	0.897000	0.509100
C1421	C142	0.568760	0.877080	0.438000
H941	H94	0.582000	0.871500	0.484900
C1431	C143	0.494350	0.921360	0.405000
C1441	C144	0.512790	0.959290	0.450900
H951	H95	0.542300	0.972100	0.466300
H961	H96	0.391500	0.827600	0.426800
O331	O33	0.295310	0.186170	0.743240
O341	O34	0.282200	0.179740	0.602610
C1451	C145	0.276590	0.188150	0.676730
C1461	C146	0.244400	0.203180	0.690630
C1471	C147	0.223350	0.209610	0.625030
H971	H97	0.227970	0.203430	0.568530
C1481	C148	0.195350	0.224980	0.639230
H981	H98	0.180970	0.228930	0.592230
C1491	C149	0.187870	0.234570	0.719330
C1501	C150	0.207320	0.225770	0.785730
H991	H99	0.201370	0.230330	0.842430
C1511	C151	0.235430	0.210410	0.771330
H1001	H100	0.248670	0.204830	0.818230
C1521	C152	0.161020	0.254690	0.738330
C1531	C153	0.179460	0.292620	0.784230
H1011	H101	0.208970	0.305430	0.799630
H1021	H102	0.058170	0.160930	0.760130
O351	O35	0.961970	0.519510	0.076580
O361	O36	0.948860	0.513080	0.935950
C1541	C154	0.943250	0.521490	0.010070
C1551	C155	0.911060	0.536520	0.023970
C1561	C156	0.890010	0.542950	0.958370
H1031	H103	0.894630	0.536770	0.901870
C1571	C157	0.862010	0.558320	0.972570
H1041	H104	0.847630	0.562270	0.925570
C1581	C158	0.854530	0.567910	0.052670
C1591	C159	0.873980	0.559110	0.119070
H1051	H105	0.868030	0.563670	0.175770
C1601	C160	0.902090	0.543750	0.104670
H1061	H106	0.915330	0.538170	0.151570
C1611	C161	0.827680	0.588030	0.071670
C1621	C162	0.846120	0.625960	0.117570
H1071	H107	0.875630	0.638770	0.132970
H1081	H108	0.724830	0.494270	0.093470
O371	O37	0.628640	0.775800	0.409910
O381	O38	0.615530	0.769120	0.269280
C1631	C163	0.609920	0.755100	0.343400
C1641	C164	0.577730	0.707880	0.357300
C1651	C165	0.556680	0.680400	0.291700
H1091	H109	0.561300	0.691200	0.235200
C1661	C166	0.528680	0.637030	0.305900
H1101	H110	0.514300	0.618700	0.258900
C1671	C167	0.521200	0.619960	0.386000
C1681	C168	0.540650	0.648210	0.452400
H1111	H111	0.534700	0.637700	0.509100
C1691	C169	0.568760	0.691680	0.438000
H1121	H112	0.582000	0.710500	0.484900
C1701	C170	0.494350	0.572990	0.405000
C1711	C171	0.512790	0.553500	0.450900
H1131	H113	0.542300	0.570200	0.466300
H1141	H114	0.391500	0.563900	0.426800
O391	O39	0.295310	0.109130	0.743240
O401	O40	0.282200	0.102450	0.602610
C1721	C172	0.276590	0.088430	0.676730
C1731	C173	0.244400	0.041210	0.690630
C1741	C174	0.223350	0.013730	0.625030
H1151	H115	0.227970	0.024530	0.568530
C1751	C175	0.195350	0.970360	0.639230
H1161	H116	0.180970	0.952030	0.592230
C1761	C176	0.187870	0.953290	0.719330
C1771	C177	0.207320	0.981540	0.785730
H1171	H117	0.201370	0.971030	0.842430
C1781	C178	0.235430	0.025010	0.771330
H1181	H118	0.248670	0.043830	0.818230
C1791	C179	0.161020	0.906320	0.738330
C1801	C180	0.179460	0.886830	0.784230
H1191	H119	0.208970	0.903530	0.799630
H1201	H120	0.058170	0.897230	0.760130
O411	O41	0.961970	0.442470	0.076580
O421	O42	0.948860	0.435790	0.935950
C1811	C181	0.943250	0.421770	0.010070
C1821	C182	0.911060	0.374550	0.023970
C1831	C183	0.890010	0.347070	0.958370
H1211	H121	0.894630	0.357870	0.901870
C1841	C184	0.862010	0.303700	0.972570
H1221	H122	0.847630	0.285370	0.925570
C1851	C185	0.854530	0.286630	0.052670
C1861	C186	0.873980	0.314880	0.119070
H1231	H123	0.868030	0.304370	0.175770
C1871	C187	0.902090	0.358350	0.104670
H1241	H124	0.915330	0.377170	0.151570
C1881	C188	0.827680	0.239660	0.071670
C1891	C189	0.846120	0.220170	0.117570
H1251	H125	0.875630	0.236870	0.132970
H1261	H126	0.724830	0.230570	0.093470
O431	O43	0.224200	0.852840	0.409910
O441	O44	0.230880	0.846410	0.269280
C1901	C190	0.244900	0.854820	0.343400
C1911	C191	0.292120	0.869850	0.357300
C1921	C192	0.319600	0.876280	0.291700
H1271	H127	0.308800	0.870100	0.235200
C1931	C193	0.362970	0.891650	0.305900
H1281	H128	0.381300	0.895600	0.258900
C1941	C194	0.380040	0.901240	0.386000
C1951	C195	0.351790	0.892440	0.452400
H1291	H129	0.362300	0.897000	0.509100
C1961	C196	0.308320	0.877080	0.438000
H1301	H130	0.289500	0.871500	0.484900
C1971	C197	0.427010	0.921360	0.405000
C1981	C198	0.446500	0.959290	0.450900
H1311	H131	0.429800	0.972100	0.466300
H1321	H132	0.436100	0.827600	0.426800
O451	O45	0.890870	0.186170	0.743240
O461	O46	0.897550	0.179740	0.602610
C1991	C199	0.911570	0.188150	0.676730
C2001	C200	0.958790	0.203180	0.690630
C2011	C201	0.986270	0.209610	0.625030
H1331	H133	0.975470	0.203430	0.568530
C2021	C202	0.029640	0.224980	0.639230
H1341	H134	0.047970	0.228930	0.592230
C2031	C203	0.046710	0.234570	0.719330
C2041	C204	0.018460	0.225770	0.785730
H1351	H135	0.028970	0.230330	0.842430
C2051	C205	0.974990	0.210410	0.771330
H1361	H136	0.956170	0.204830	0.818230
C2061	C206	0.093680	0.254690	0.738330
C2071	C207	0.113170	0.292620	0.784230
H1371	H137	0.096470	0.305430	0.799630
H1381	H138	0.102770	0.160930	0.760130
O471	O47	0.557530	0.519510	0.076580
O481	O48	0.564210	0.513080	0.935950
C2081	C208	0.578230	0.521490	0.010070
C2091	C209	0.625450	0.536520	0.023970
C2101	C210	0.652930	0.542950	0.958370
H1391	H139	0.642130	0.536770	0.901870
C2111	C211	0.696300	0.558320	0.972570
H1401	H140	0.714630	0.562270	0.925570
C2121	C212	0.713370	0.567910	0.052670
C2131	C213	0.685120	0.559110	0.119070
H1411	H141	0.695630	0.563670	0.175770
C2141	C214	0.641650	0.543750	0.104670
H1421	H142	0.622830	0.538170	0.151570
C2151	C215	0.760340	0.588030	0.071670
C2161	C216	0.779830	0.625960	0.117570
H1431	H143	0.763130	0.638770	0.132970
H1441	H144	0.769430	0.494270	0.093470
O491	O49	0.147160	0.371360	0.409910
O501	O50	0.153590	0.384470	0.269280
C2171	C217	0.145180	0.390080	0.343400
C2181	C218	0.130150	0.422270	0.357300
C2191	C219	0.123720	0.443320	0.291700
H1451	H145	0.129900	0.438700	0.235200
C2201	C220	0.108350	0.471320	0.305900
H1461	H146	0.104400	0.485700	0.258900
C2211	C221	0.098760	0.478800	0.386000
C2221	C222	0.107560	0.459350	0.452400
H1471	H147	0.103000	0.465300	0.509100
C2231	C223	0.122920	0.431240	0.438000
H1481	H148	0.128500	0.418000	0.484900
C2241	C224	0.078640	0.505650	0.405000
C2251	C225	0.040710	0.487210	0.450900
H1491	H149	0.027900	0.457700	0.466300
H1501	H150	0.172400	0.608500	0.426800
O511	O51	0.813830	0.704690	0.743240
O521	O52	0.820260	0.717800	0.602610
C2261	C226	0.811850	0.723410	0.676730
C2271	C227	0.796820	0.755600	0.690630
C2281	C228	0.790390	0.776650	0.625030
H1511	H151	0.796570	0.772030	0.568530
C2291	C229	0.775020	0.804650	0.639230
H1521	H152	0.771070	0.819030	0.592230
C2301	C230	0.765430	0.812130	0.719330
C2311	C231	0.774230	0.792680	0.785730
H1531	H153	0.769670	0.798630	0.842430
C2321	C232	0.789590	0.764570	0.771330
H1541	H154	0.795170	0.751330	0.818230
C2331	C233	0.745310	0.838980	0.738330
C2341	C234	0.707380	0.820540	0.784230
H1551	H155	0.694570	0.791030	0.799630
H1561	H156	0.839070	0.941830	0.760130
O531	O53	0.480490	0.038030	0.076580
O541	O54	0.486920	0.051140	0.935950
C2351	C235	0.478510	0.056750	0.010070
C2361	C236	0.463480	0.088940	0.023970
C2371	C237	0.457050	0.109990	0.958370
H1571	H157	0.463230	0.105370	0.901870
C2381	C238	0.441680	0.137990	0.972570
H1581	H158	0.437730	0.152370	0.925570
C2391	C239	0.432090	0.145470	0.052670
C2401	C240	0.440890	0.126020	0.119070
H1591	H159	0.436330	0.131970	0.175770
C2411	C241	0.456250	0.097910	0.104670
H1601	H160	0.461830	0.084670	0.151570
C2421	C242	0.411970	0.172320	0.071670
C2431	C243	0.374040	0.153880	0.117570
H1611	H161	0.361230	0.124370	0.132970
H1621	H162	0.505730	0.275170	0.093470
O551	O55	0.775800	0.628640	0.590090
O561	O56	0.769120	0.615530	0.730720
C2441	C244	0.755100	0.609920	0.656600
C2451	C245	0.707880	0.577730	0.642700
C2461	C246	0.680400	0.556680	0.708300
H1631	H163	0.691200	0.561300	0.764800
C2471	C247	0.637030	0.528680	0.694100
H1641	H164	0.618700	0.514300	0.741100
C2481	C248	0.619960	0.521200	0.614000
C2491	C249	0.648210	0.540650	0.547600
H1651	H165	0.637700	0.534700	0.490900
C2501	C250	0.691680	0.568760	0.562000
H1661	H166	0.710500	0.582000	0.515100
C2511	C251	0.572990	0.494350	0.595000
C2521	C252	0.553500	0.512790	0.549100
H1671	H167	0.570200	0.542300	0.533700
H1681	H168	0.563900	0.391500	0.573200
O571	O57	0.442470	0.961970	0.923420
O581	O58	0.435790	0.948860	0.064050
C2531	C253	0.421770	0.943250	0.989930
C2541	C254	0.374550	0.911060	0.976030
C2551	C255	0.347070	0.890010	0.041630
H1691	H169	0.357870	0.894630	0.098130
C2561	C256	0.303700	0.862010	0.027430
H1701	H170	0.285370	0.847630	0.074430
C2571	C257	0.286630	0.854530	0.947330
C2581	C258	0.314880	0.873980	0.880930
H1711	H171	0.304370	0.868030	0.824230
C2591	C259	0.358350	0.902090	0.895330
H1721	H172	0.377170	0.915330	0.848430
C2601	C260	0.239660	0.827680	0.928330
C2611	C261	0.220170	0.846120	0.882430
H1731	H173	0.236870	0.875630	0.867030
H1741	H174	0.230570	0.724830	0.906530
O591	O59	0.109130	0.295310	0.256760
O601	O60	0.102450	0.282200	0.397390
C2621	C262	0.088430	0.276590	0.323270
C2631	C263	0.041210	0.244400	0.309370
C2641	C264	0.013730	0.223350	0.374970
H1751	H175	0.024530	0.227970	0.431470
C2651	C265	0.970360	0.195350	0.360770
H1761	H176	0.952030	0.180970	0.407770
C2661	C266	0.953290	0.187870	0.280670
C2671	C267	0.981540	0.207320	0.214270
H1771	H177	0.971030	0.201370	0.157570
C2681	C268	0.025010	0.235430	0.228670
H1781	H178	0.043830	0.248670	0.181770
C2691	C269	0.906320	0.161020	0.261670
C2701	C270	0.886830	0.179460	0.215770
H1791	H179	0.903530	0.208970	0.200370
H1801	H180	0.897230	0.058170	0.239870
O611	O61	0.852840	0.224200	0.590090
O621	O62	0.846410	0.230880	0.730720
C2711	C271	0.854820	0.244900	0.656600
C2721	C272	0.869850	0.292120	0.642700
C2731	C273	0.876280	0.319600	0.708300
H1811	H181	0.870100	0.308800	0.764800
C2741	C274	0.891650	0.362970	0.694100
H1821	H182	0.895600	0.381300	0.741100
C2751	C275	0.901240	0.380040	0.614000
C2761	C276	0.892440	0.351790	0.547600
H1831	H183	0.897000	0.362300	0.490900
C2771	C277	0.877080	0.308320	0.562000
H1841	H184	0.871500	0.289500	0.515100
C2781	C278	0.921360	0.427010	0.595000
C2791	C279	0.959290	0.446500	0.549100
H1851	H185	0.972100	0.429800	0.533700
H1861	H186	0.827600	0.436100	0.573200
O631	O63	0.519510	0.557530	0.923420
O641	O64	0.513080	0.564210	0.064050
C2801	C280	0.521490	0.578230	0.989930
C2811	C281	0.536520	0.625450	0.976030
C2821	C282	0.542950	0.652930	0.041630
H1871	H187	0.536770	0.642130	0.098130
C2831	C283	0.558320	0.696300	0.027430
H1881	H188	0.562270	0.714630	0.074430
C2841	C284	0.567910	0.713370	0.947330
C2851	C285	0.559110	0.685120	0.880930
H1891	H189	0.563670	0.695630	0.824230
C2861	C286	0.543750	0.641650	0.895330
H1901	H190	0.538170	0.622830	0.848430
C2871	C287	0.588030	0.760340	0.928330
C2881	C288	0.625960	0.779830	0.882430
H1911	H191	0.638770	0.763130	0.867030
H1921	H192	0.494270	0.769430	0.906530
O651	O65	0.186170	0.890870	0.256760
O661	O66	0.179740	0.897550	0.397390
C2891	C289	0.188150	0.911570	0.323270
C2901	C290	0.203180	0.958790	0.309370
C2911	C291	0.209610	0.986270	0.374970
H1931	H193	0.203430	0.975470	0.431470
C2921	C292	0.224980	0.029640	0.360770
H1941	H194	0.228930	0.047970	0.407770
C2931	C293	0.234570	0.046710	0.280670
C2941	C294	0.225770	0.018460	0.214270
H1951	H195	0.230330	0.028970	0.157570
C2951	C295	0.210410	0.974990	0.228670
H1961	H196	0.204830	0.956170	0.181770
C2961	C296	0.254690	0.093680	0.261670
C2971	C297	0.292620	0.113170	0.215770
H1971	H197	0.305430	0.096470	0.200370
H1981	H198	0.160930	0.102770	0.239870
O671	O67	0.371360	0.147160	0.590090
O681	O68	0.384470	0.153590	0.730720
C2981	C298	0.390080	0.145180	0.656600
C2991	C299	0.422270	0.130150	0.642700
C3001	C300	0.443320	0.123720	0.708300
H1991	H199	0.438700	0.129900	0.764800
C3011	C301	0.471320	0.108350	0.694100
H2001	H200	0.485700	0.104400	0.741100
C3021	C302	0.478800	0.098760	0.614000
C3031	C303	0.459350	0.107560	0.547600
H2011	H201	0.465300	0.103000	0.490900
C3041	C304	0.431240	0.122920	0.562000
H2021	H202	0.418000	0.128500	0.515100
C3051	C305	0.505650	0.078640	0.595000
C3061	C306	0.487210	0.040710	0.549100
H2031	H203	0.457700	0.027900	0.533700
H2041	H204	0.608500	0.172400	0.573200
O691	O69	0.038030	0.480490	0.923420
O701	O70	0.051140	0.486920	0.064050
C3071	C307	0.056750	0.478510	0.989930
C3081	C308	0.088940	0.463480	0.976030
C3091	C309	0.109990	0.457050	0.041630
H2051	H205	0.105370	0.463230	0.098130
C3101	C310	0.137990	0.441680	0.027430
H2061	H206	0.152370	0.437730	0.074430
C3111	C311	0.145470	0.432090	0.947330
C3121	C312	0.126020	0.440890	0.880930
H2071	H207	0.131970	0.436330	0.824230
C3131	C313	0.097910	0.456250	0.895330
H2081	H208	0.084670	0.461830	0.848430
C3141	C314	0.172320	0.411970	0.928330
C3151	C315	0.153880	0.374040	0.882430
H2091	H209	0.124370	0.361230	0.867030
H2101	H210	0.275170	0.505730	0.906530
O711	O71	0.704690	0.813830	0.256760
O721	O72	0.717800	0.820260	0.397390
C3161	C316	0.723410	0.811850	0.323270
C3171	C317	0.755600	0.796820	0.309370
C3181	C318	0.776650	0.790390	0.374970
H2111	H211	0.772030	0.796570	0.431470
C3191	C319	0.804650	0.775020	0.360770
H2121	H212	0.819030	0.771070	0.407770
C3201	C320	0.812130	0.765430	0.280670
C3211	C321	0.792680	0.774230	0.214270
H2131	H213	0.798630	0.769670	0.157570
C3221	C322	0.764570	0.789590	0.228670
H2141	H214	0.751330	0.795170	0.181770
C3231	C323	0.838980	0.745310	0.261670
C3241	C324	0.820540	0.707380	0.215770
H2151	H215	0.791030	0.694570	0.200370
H2161	H216	0.941830	0.839070	0.239870
Cu11	Cu1	0.340610	0.170300	0.749640
Cu21	Cu2	0.007280	0.503640	0.082970
Cu31	Cu3	0.673940	0.836970	0.416310
Cu41	Cu4	0.829700	0.170310	0.749640
Cu51	Cu5	0.496360	0.503640	0.082970
Cu61	Cu6	0.163030	0.836970	0.416310
Cu71	Cu7	0.829690	0.659390	0.749640
Cu81	Cu8	0.496360	0.992720	0.082970
Cu91	Cu9	0.163030	0.326060	0.416310
Cu101	Cu10	0.170300	0.340610	0.250360
Cu111	Cu11	0.836970	0.673940	0.583690
Cu121	Cu12	0.503640	0.007280	0.917030
Cu131	Cu13	0.170310	0.829700	0.250360
Cu141	Cu14	0.836970	0.163030	0.583690
Cu151	Cu15	0.503640	0.496360	0.917030
Cu161	Cu16	0.659390	0.829690	0.250360
Cu171	Cu17	0.326060	0.163030	0.583690
Cu181	Cu18	0.992720	0.496360	0.917030
O731	O73	0.567680	0.432320	0.664700
C3251	C325	0.510100	0.489900	0.524300
C3261	C326	0.548650	0.451350	0.620700
C3271	C327	0.586450	0.413550	0.609200
H2171	H217	0.599600	0.400400	0.643800
O741	O74	0.234350	0.765650	0.998030
C3281	C328	0.176770	0.823230	0.857630
C3291	C329	0.215320	0.784680	0.954030
C3301	C330	0.253120	0.746880	0.942530
H2181	H218	0.266270	0.733730	0.977130
O751	O75	0.901010	0.098990	0.331370
C3311	C331	0.843430	0.156570	0.190970
C3321	C332	0.881980	0.118020	0.287370
C3331	C333	0.919780	0.080220	0.275870
H2191	H219	0.932930	0.067070	0.310470
O761	O76	0.567680	0.135360	0.664700
C3341	C334	0.510100	0.020200	0.524300
C3351	C335	0.548650	0.097300	0.620700
C3361	C336	0.586450	0.172900	0.609200
H2201	H220	0.599600	0.199200	0.643800
O771	O77	0.234350	0.468690	0.998030
C3371	C337	0.176770	0.353530	0.857630
C3381	C338	0.215320	0.430630	0.954030
C3391	C339	0.253120	0.506230	0.942530
H2211	H221	0.266270	0.532530	0.977130
O781	O78	0.901010	0.802030	0.331370
C3401	C340	0.843430	0.686870	0.190970
C3411	C341	0.881980	0.763970	0.287370
C3421	C342	0.919780	0.839570	0.275870
H2221	H222	0.932930	0.865870	0.310470
O791	O79	0.864640	0.432320	0.664700
C3431	C343	0.979800	0.489900	0.524300
C3441	C344	0.902700	0.451350	0.620700
C3451	C345	0.827100	0.413550	0.609200
H2231	H223	0.800800	0.400400	0.643800
O801	O80	0.531310	0.765650	0.998030
C3461	C346	0.646470	0.823230	0.857630
C3471	C347	0.569370	0.784680	0.954030
C3481	C348	0.493770	0.746880	0.942530
H2241	H224	0.467470	0.733730	0.977130
O811	O81	0.197970	0.098990	0.331370
C3491	C349	0.313130	0.156570	0.190970
C3501	C350	0.236030	0.118020	0.287370
C3511	C351	0.160430	0.080220	0.275870
H2251	H225	0.134130	0.067070	0.310470
O821	O82	0.432320	0.567680	0.335300
C3521	C352	0.489900	0.510100	0.475700
C3531	C353	0.451350	0.548650	0.379300
C3541	C354	0.413550	0.586450	0.390800
H2261	H226	0.400400	0.599600	0.356200
O831	O83	0.098990	0.901010	0.668630
C3551	C355	0.156570	0.843430	0.809030
C3561	C356	0.118020	0.881980	0.712630
C3571	C357	0.080220	0.919780	0.724130
H2271	H227	0.067070	0.932930	0.689530
O841	O84	0.765650	0.234350	0.001970
C3581	C358	0.823230	0.176770	0.142370
C3591	C359	0.784680	0.215320	0.045970
C3601	C360	0.746880	0.253120	0.057470
H2281	H228	0.733730	0.266270	0.022870
O851	O85	0.135360	0.567680	0.335300
C3611	C361	0.020200	0.510100	0.475700
C3621	C362	0.097300	0.548650	0.379300
C3631	C363	0.172900	0.586450	0.390800
H2291	H229	0.199200	0.599600	0.356200
O861	O86	0.802030	0.901010	0.668630
C3641	C364	0.686870	0.843430	0.809030
C3651	C365	0.763970	0.881980	0.712630
C3661	C366	0.839570	0.919780	0.724130
H2301	H230	0.865870	0.932930	0.689530
O871	O87	0.468690	0.234350	0.001970
C3671	C367	0.353530	0.176770	0.142370
C3681	C368	0.430630	0.215320	0.045970
C3691	C369	0.506230	0.253120	0.057470
H2311	H231	0.532530	0.266270	0.022870
O881	O88	0.432320	0.864640	0.335300
C3701	C370	0.489900	0.979800	0.475700
C3711	C371	0.451350	0.902700	0.379300
C3721	C372	0.413550	0.827100	0.390800
H2321	H232	0.400400	0.800800	0.356200
O891	O89	0.098990	0.197970	0.668630
C3731	C373	0.156570	0.313130	0.809030
C3741	C374	0.118020	0.236030	0.712630
C3751	C375	0.080220	0.160430	0.724130
H2331	H233	0.067070	0.134130	0.689530
O901	O90	0.765650	0.531310	0.001970
C3761	C376	0.823230	0.646470	0.142370
C3771	C377	0.784680	0.569370	0.045970
C3781	C378	0.746880	0.493770	0.057470
H2341	H234	0.733730	0.467470	0.022870
