data_UMOBEF09_clean_PM
_symmetry_space_group_name_H-M	'P1'
_cell_length_a	35.796800
_cell_length_b	35.796800
_cell_length_c	15.045000
_cell_angle_alpha	90.000000
_cell_angle_beta	90.000000
_cell_angle_gamma	120.000000
_symmetry_Int_Tables_number 1

loop_
_symmetry_equiv_pos_as_xyz
'x,y,z'

loop_
_atom_site_label
_atom_site_type_symbol
_atom_site_fract_x
_atom_site_fract_y
_atom_site_fract_z
O11	O1	0.557710	0.519160	0.580000
O21	O2	0.563980	0.513570	0.432000
C11	C1	0.578400	0.521550	0.508500
C21	C2	0.625270	0.535870	0.521500
C31	C3	0.652370	0.543400	0.455300
H11	H1	0.641800	0.538400	0.397400
C41	C4	0.695600	0.558200	0.468300
H21	H2	0.713100	0.562000	0.419600
C51	C5	0.713070	0.567440	0.550100
C61	C6	0.685720	0.558400	0.622700
H31	H3	0.696700	0.562900	0.680200
C71	C7	0.641220	0.542420	0.608600
H41	H4	0.622700	0.536300	0.656600
C81	C8	0.759920	0.587420	0.569000
C91	C9	0.779940	0.626090	0.616700
H51	H5	0.763900	0.639000	0.631800
H61	H6	0.725900	0.495600	0.606300
O31	O3	0.224380	0.852490	0.913330
O41	O4	0.230650	0.846900	0.765330
C101	C10	0.245070	0.854880	0.841830
C111	C11	0.291940	0.869200	0.854830
C121	C12	0.319040	0.876730	0.788630
H71	H7	0.308470	0.871730	0.730730
C131	C13	0.362270	0.891530	0.801630
H81	H8	0.379770	0.895330	0.752930
C141	C14	0.379740	0.900770	0.883430
C151	C15	0.352390	0.891730	0.956030
H91	H9	0.363370	0.896230	0.013530
C161	C16	0.307890	0.875750	0.941930
H101	H10	0.289370	0.869630	0.989930
C171	C17	0.426590	0.920750	0.902330
C181	C18	0.446610	0.959420	0.950030
H111	H11	0.430570	0.972330	0.965130
H121	H12	0.392570	0.828930	0.939630
O51	O5	0.891040	0.185830	0.246670
O61	O6	0.897310	0.180240	0.098670
C191	C19	0.911730	0.188220	0.175170
C201	C20	0.958600	0.202540	0.188170
C211	C21	0.985700	0.210070	0.121970
H131	H13	0.975130	0.205070	0.064070
C221	C22	0.028930	0.224870	0.134970
H141	H14	0.046430	0.228670	0.086270
C231	C23	0.046400	0.234110	0.216770
C241	C24	0.019050	0.225070	0.289370
H151	H15	0.030030	0.229570	0.346870
C251	C25	0.974550	0.209090	0.275270
H161	H16	0.956030	0.202970	0.323270
C261	C26	0.093250	0.254090	0.235670
C271	C27	0.113270	0.292760	0.283370
H171	H17	0.097230	0.305670	0.298470
H181	H18	0.059230	0.162270	0.272970
O71	O7	0.480840	0.038550	0.580000
O81	O8	0.486430	0.050410	0.432000
C281	C28	0.478450	0.056850	0.508500
C291	C29	0.464130	0.089400	0.521500
C301	C30	0.456600	0.108970	0.455300
H191	H19	0.461600	0.103400	0.397400
C311	C31	0.441800	0.137400	0.468300
H201	H20	0.438000	0.151100	0.419600
C321	C32	0.432560	0.145630	0.550100
C331	C33	0.441600	0.127320	0.622700
H211	H21	0.437100	0.133800	0.680200
C341	C34	0.457580	0.098800	0.608600
H221	H22	0.463700	0.086400	0.656600
C351	C35	0.412580	0.172500	0.569000
C361	C36	0.373910	0.153850	0.616700
H231	H23	0.361000	0.124900	0.631800
H241	H24	0.504400	0.230300	0.606300
O91	O9	0.147510	0.371880	0.913330
O101	O10	0.153100	0.383740	0.765330
C371	C37	0.145120	0.390180	0.841830
C381	C38	0.130800	0.422730	0.854830
C391	C39	0.123270	0.442300	0.788630
H251	H25	0.128270	0.436730	0.730730
C401	C40	0.108470	0.470730	0.801630
H261	H26	0.104670	0.484430	0.752930
C411	C41	0.099230	0.478960	0.883430
C421	C42	0.108270	0.460650	0.956030
H271	H27	0.103770	0.467130	0.013530
C431	C43	0.124250	0.432130	0.941930
H281	H28	0.130370	0.419730	0.989930
C441	C44	0.079250	0.505830	0.902330
C451	C45	0.040580	0.487180	0.950030
H291	H29	0.027670	0.458230	0.965130
H301	H30	0.171070	0.563630	0.939630
O111	O11	0.814170	0.705220	0.246670
O121	O12	0.819760	0.717080	0.098670
C461	C46	0.811780	0.723520	0.175170
C471	C47	0.797460	0.756070	0.188170
C481	C48	0.789930	0.775640	0.121970
H311	H31	0.794930	0.770070	0.064070
C491	C49	0.775130	0.804070	0.134970
H321	H32	0.771330	0.817770	0.086270
C501	C50	0.765890	0.812300	0.216770
C511	C51	0.774930	0.793990	0.289370
H331	H33	0.770430	0.800470	0.346870
C521	C52	0.790910	0.765470	0.275270
H341	H34	0.797030	0.753070	0.323270
C531	C53	0.745910	0.839170	0.235670
C541	C54	0.707240	0.820520	0.283370
H351	H35	0.694330	0.791570	0.298470
H361	H36	0.837730	0.896970	0.272970
O131	O13	0.961450	0.442290	0.580000
O141	O14	0.949590	0.436020	0.432000
C551	C55	0.943150	0.421600	0.508500
C561	C56	0.910600	0.374730	0.521500
C571	C57	0.891030	0.347630	0.455300
H371	H37	0.896600	0.358200	0.397400
C581	C58	0.862600	0.304400	0.468300
H381	H38	0.848900	0.286900	0.419600
C591	C59	0.854370	0.286930	0.550100
C601	C60	0.872680	0.314280	0.622700
H391	H39	0.866200	0.303300	0.680200
C611	C61	0.901200	0.358780	0.608600
H401	H40	0.913600	0.377300	0.656600
C621	C62	0.827500	0.240080	0.569000
C631	C63	0.846150	0.220060	0.616700
H411	H41	0.875100	0.236100	0.631800
H421	H42	0.769700	0.274100	0.606300
O151	O15	0.628120	0.775620	0.913330
O161	O16	0.616260	0.769350	0.765330
C641	C64	0.609820	0.754930	0.841830
C651	C65	0.577270	0.708060	0.854830
C661	C66	0.557700	0.680960	0.788630
H431	H43	0.563270	0.691530	0.730730
C671	C67	0.529270	0.637730	0.801630
H441	H44	0.515570	0.620230	0.752930
C681	C68	0.521040	0.620260	0.883430
C691	C69	0.539350	0.647610	0.956030
H451	H45	0.532870	0.636630	0.013530
C701	C70	0.567870	0.692110	0.941930
H461	H46	0.580270	0.710630	0.989930
C711	C71	0.494170	0.573410	0.902330
C721	C72	0.512820	0.553390	0.950030
H471	H47	0.541770	0.569430	0.965130
H481	H48	0.436370	0.607430	0.939630
O171	O17	0.294780	0.108960	0.246670
O181	O18	0.282920	0.102690	0.098670
C731	C73	0.276480	0.088270	0.175170
C741	C74	0.243930	0.041400	0.188170
C751	C75	0.224360	0.014300	0.121970
H491	H49	0.229930	0.024870	0.064070
C761	C76	0.195930	0.971070	0.134970
H501	H50	0.182230	0.953570	0.086270
C771	C77	0.187700	0.953600	0.216770
C781	C78	0.206010	0.980950	0.289370
H511	H51	0.199530	0.969970	0.346870
C791	C79	0.234530	0.025450	0.275270
H521	H52	0.246930	0.043970	0.323270
C801	C80	0.160830	0.906750	0.235670
C811	C81	0.179480	0.886730	0.283370
H531	H53	0.208430	0.902770	0.298470
H541	H54	0.103030	0.940770	0.272970
O191	O19	0.519160	0.557710	0.420000
O201	O20	0.513570	0.563980	0.568000
C821	C82	0.521550	0.578400	0.491500
C831	C83	0.535870	0.625270	0.478500
C841	C84	0.543400	0.652370	0.544700
H551	H55	0.538400	0.641800	0.602600
C851	C85	0.558200	0.695600	0.531700
H561	H56	0.562000	0.713100	0.580400
C861	C86	0.567440	0.713070	0.449900
C871	C87	0.558400	0.685720	0.377300
H571	H57	0.562900	0.696700	0.319800
C881	C88	0.542420	0.641220	0.391400
H581	H58	0.536300	0.622700	0.343400
C891	C89	0.587420	0.759920	0.431000
C901	C90	0.626090	0.779940	0.383300
H591	H59	0.639000	0.763900	0.368200
H601	H60	0.495600	0.725900	0.393700
O211	O21	0.185830	0.891040	0.753330
O221	O22	0.180240	0.897310	0.901330
C911	C91	0.188220	0.911730	0.824830
C921	C92	0.202540	0.958600	0.811830
C931	C93	0.210070	0.985700	0.878030
H611	H61	0.205070	0.975130	0.935930
C941	C94	0.224870	0.028930	0.865030
H621	H62	0.228670	0.046430	0.913730
C951	C95	0.234110	0.046400	0.783230
C961	C96	0.225070	0.019050	0.710630
H631	H63	0.229570	0.030030	0.653130
C971	C97	0.209090	0.974550	0.724730
H641	H64	0.202970	0.956030	0.676730
C981	C98	0.254090	0.093250	0.764330
C991	C99	0.292760	0.113270	0.716630
H651	H65	0.305670	0.097230	0.701530
H661	H66	0.162270	0.059230	0.727030
O231	O23	0.852490	0.224380	0.086670
O241	O24	0.846900	0.230650	0.234670
C1001	C100	0.854880	0.245070	0.158170
C1011	C101	0.869200	0.291940	0.145170
C1021	C102	0.876730	0.319040	0.211370
H671	H67	0.871730	0.308470	0.269270
C1031	C103	0.891530	0.362270	0.198370
H681	H68	0.895330	0.379770	0.247070
C1041	C104	0.900770	0.379740	0.116570
C1051	C105	0.891730	0.352390	0.043970
H691	H69	0.896230	0.363370	0.986470
C1061	C106	0.875750	0.307890	0.058070
H701	H70	0.869630	0.289370	0.010070
C1071	C107	0.920750	0.426590	0.097670
C1081	C108	0.959420	0.446610	0.049970
H711	H71	0.972330	0.430570	0.034870
H721	H72	0.828930	0.392570	0.060370
O251	O25	0.038550	0.480840	0.420000
O261	O26	0.050410	0.486430	0.568000
C1091	C109	0.056850	0.478450	0.491500
C1101	C110	0.089400	0.464130	0.478500
C1111	C111	0.108970	0.456600	0.544700
H731	H73	0.103400	0.461600	0.602600
C1121	C112	0.137400	0.441800	0.531700
H741	H74	0.151100	0.438000	0.580400
C1131	C113	0.145630	0.432560	0.449900
C1141	C114	0.127320	0.441600	0.377300
H751	H75	0.133800	0.437100	0.319800
C1151	C115	0.098800	0.457580	0.391400
H761	H76	0.086400	0.463700	0.343400
C1161	C116	0.172500	0.412580	0.431000
C1171	C117	0.153850	0.373910	0.383300
H771	H77	0.124900	0.361000	0.368200
H781	H78	0.230300	0.504400	0.393700
O271	O27	0.705220	0.814170	0.753330
O281	O28	0.717080	0.819760	0.901330
C1181	C118	0.723520	0.811780	0.824830
C1191	C119	0.756070	0.797460	0.811830
C1201	C120	0.775640	0.789930	0.878030
H791	H79	0.770070	0.794930	0.935930
C1211	C121	0.804070	0.775130	0.865030
H801	H80	0.817770	0.771330	0.913730
C1221	C122	0.812300	0.765890	0.783230
C1231	C123	0.793990	0.774930	0.710630
H811	H81	0.800470	0.770430	0.653130
C1241	C124	0.765470	0.790910	0.724730
H821	H82	0.753070	0.797030	0.676730
C1251	C125	0.839170	0.745910	0.764330
C1261	C126	0.820520	0.707240	0.716630
H831	H83	0.791570	0.694330	0.701530
H841	H84	0.896970	0.837730	0.727030
O291	O29	0.371880	0.147510	0.086670
O301	O30	0.383740	0.153100	0.234670
C1271	C127	0.390180	0.145120	0.158170
C1281	C128	0.422730	0.130800	0.145170
C1291	C129	0.442300	0.123270	0.211370
H851	H85	0.436730	0.128270	0.269270
C1301	C130	0.470730	0.108470	0.198370
H861	H86	0.484430	0.104670	0.247070
C1311	C131	0.478960	0.099230	0.116570
C1321	C132	0.460650	0.108270	0.043970
H871	H87	0.467130	0.103770	0.986470
C1331	C133	0.432130	0.124250	0.058070
H881	H88	0.419730	0.130370	0.010070
C1341	C134	0.505830	0.079250	0.097670
C1351	C135	0.487180	0.040580	0.049970
H891	H89	0.458230	0.027670	0.034870
H901	H90	0.563630	0.171070	0.060370
O311	O31	0.442290	0.961450	0.420000
O321	O32	0.436020	0.949590	0.568000
C1361	C136	0.421600	0.943150	0.491500
C1371	C137	0.374730	0.910600	0.478500
C1381	C138	0.347630	0.891030	0.544700
H911	H91	0.358200	0.896600	0.602600
C1391	C139	0.304400	0.862600	0.531700
H921	H92	0.286900	0.848900	0.580400
C1401	C140	0.286930	0.854370	0.449900
C1411	C141	0.314280	0.872680	0.377300
H931	H93	0.303300	0.866200	0.319800
C1421	C142	0.358780	0.901200	0.391400
H941	H94	0.377300	0.913600	0.343400
C1431	C143	0.240080	0.827500	0.431000
C1441	C144	0.220060	0.846150	0.383300
H951	H95	0.236100	0.875100	0.368200
H961	H96	0.274100	0.769700	0.393700
O331	O33	0.108960	0.294780	0.753330
O341	O34	0.102690	0.282920	0.901330
C1451	C145	0.088270	0.276480	0.824830
C1461	C146	0.041400	0.243930	0.811830
C1471	C147	0.014300	0.224360	0.878030
H971	H97	0.024870	0.229930	0.935930
C1481	C148	0.971070	0.195930	0.865030
H981	H98	0.953570	0.182230	0.913730
C1491	C149	0.953600	0.187700	0.783230
C1501	C150	0.980950	0.206010	0.710630
H991	H99	0.969970	0.199530	0.653130
C1511	C151	0.025450	0.234530	0.724730
H1001	H100	0.043970	0.246930	0.676730
C1521	C152	0.906750	0.160830	0.764330
C1531	C153	0.886730	0.179480	0.716630
H1011	H101	0.902770	0.208430	0.701530
H1021	H102	0.940770	0.103030	0.727030
O351	O35	0.775620	0.628120	0.086670
O361	O36	0.769350	0.616260	0.234670
C1541	C154	0.754930	0.609820	0.158170
C1551	C155	0.708060	0.577270	0.145170
C1561	C156	0.680960	0.557700	0.211370
H1031	H103	0.691530	0.563270	0.269270
C1571	C157	0.637730	0.529270	0.198370
H1041	H104	0.620230	0.515570	0.247070
C1581	C158	0.620260	0.521040	0.116570
C1591	C159	0.647610	0.539350	0.043970
H1051	H105	0.636630	0.532870	0.986470
C1601	C160	0.692110	0.567870	0.058070
H1061	H106	0.710630	0.580270	0.010070
C1611	C161	0.573410	0.494170	0.097670
C1621	C162	0.553390	0.512820	0.049970
H1071	H107	0.569430	0.541770	0.034870
H1081	H108	0.607430	0.436370	0.060370
O371	O37	0.442290	0.480840	0.420000
O381	O38	0.436020	0.486430	0.568000
C1631	C163	0.421600	0.478450	0.491500
C1641	C164	0.374730	0.464130	0.478500
C1651	C165	0.347630	0.456600	0.544700
H1091	H109	0.358200	0.461600	0.602600
C1661	C166	0.304400	0.441800	0.531700
H1101	H110	0.286900	0.438000	0.580400
C1671	C167	0.286930	0.432560	0.449900
C1681	C168	0.314280	0.441600	0.377300
H1111	H111	0.303300	0.437100	0.319800
C1691	C169	0.358780	0.457580	0.391400
H1121	H112	0.377300	0.463700	0.343400
C1701	C170	0.240080	0.412580	0.431000
C1711	C171	0.220060	0.373910	0.383300
H1131	H113	0.236100	0.361000	0.368200
H1141	H114	0.274100	0.504400	0.393700
O391	O39	0.108960	0.814170	0.753330
O401	O40	0.102690	0.819760	0.901330
C1721	C172	0.088270	0.811780	0.824830
C1731	C173	0.041400	0.797460	0.811830
C1741	C174	0.014300	0.789930	0.878030
H1151	H115	0.024870	0.794930	0.935930
C1751	C175	0.971070	0.775130	0.865030
H1161	H116	0.953570	0.771330	0.913730
C1761	C176	0.953600	0.765890	0.783230
C1771	C177	0.980950	0.774930	0.710630
H1171	H117	0.969970	0.770430	0.653130
C1781	C178	0.025450	0.790910	0.724730
H1181	H118	0.043970	0.797030	0.676730
C1791	C179	0.906750	0.745910	0.764330
C1801	C180	0.886730	0.707240	0.716630
H1191	H119	0.902770	0.694330	0.701530
H1201	H120	0.940770	0.837730	0.727030
O411	O41	0.775620	0.147510	0.086670
O421	O42	0.769350	0.153100	0.234670
C1811	C181	0.754930	0.145120	0.158170
C1821	C182	0.708060	0.130800	0.145170
C1831	C183	0.680960	0.123270	0.211370
H1211	H121	0.691530	0.128270	0.269270
C1841	C184	0.637730	0.108470	0.198370
H1221	H122	0.620230	0.104670	0.247070
C1851	C185	0.620260	0.099230	0.116570
C1861	C186	0.647610	0.108270	0.043970
H1231	H123	0.636630	0.103770	0.986470
C1871	C187	0.692110	0.124250	0.058070
H1241	H124	0.710630	0.130370	0.010070
C1881	C188	0.573410	0.079250	0.097670
C1891	C189	0.553390	0.040580	0.049970
H1251	H125	0.569430	0.027670	0.034870
H1261	H126	0.607430	0.171070	0.060370
O431	O43	0.519160	0.961450	0.420000
O441	O44	0.513570	0.949590	0.568000
C1901	C190	0.521550	0.943150	0.491500
C1911	C191	0.535870	0.910600	0.478500
C1921	C192	0.543400	0.891030	0.544700
H1271	H127	0.538400	0.896600	0.602600
C1931	C193	0.558200	0.862600	0.531700
H1281	H128	0.562000	0.848900	0.580400
C1941	C194	0.567440	0.854370	0.449900
C1951	C195	0.558400	0.872680	0.377300
H1291	H129	0.562900	0.866200	0.319800
C1961	C196	0.542420	0.901200	0.391400
H1301	H130	0.536300	0.913600	0.343400
C1971	C197	0.587420	0.827500	0.431000
C1981	C198	0.626090	0.846150	0.383300
H1311	H131	0.639000	0.875100	0.368200
H1321	H132	0.495600	0.769700	0.393700
O451	O45	0.185830	0.294780	0.753330
O461	O46	0.180240	0.282920	0.901330
C1991	C199	0.188220	0.276480	0.824830
C2001	C200	0.202540	0.243930	0.811830
C2011	C201	0.210070	0.224360	0.878030
H1331	H133	0.205070	0.229930	0.935930
C2021	C202	0.224870	0.195930	0.865030
H1341	H134	0.228670	0.182230	0.913730
C2031	C203	0.234110	0.187700	0.783230
C2041	C204	0.225070	0.206010	0.710630
H1351	H135	0.229570	0.199530	0.653130
C2051	C205	0.209090	0.234530	0.724730
H1361	H136	0.202970	0.246930	0.676730
C2061	C206	0.254090	0.160830	0.764330
C2071	C207	0.292760	0.179480	0.716630
H1371	H137	0.305670	0.208430	0.701530
H1381	H138	0.162270	0.103030	0.727030
O471	O47	0.852490	0.628120	0.086670
O481	O48	0.846900	0.616260	0.234670
C2081	C208	0.854880	0.609820	0.158170
C2091	C209	0.869200	0.577270	0.145170
C2101	C210	0.876730	0.557700	0.211370
H1391	H139	0.871730	0.563270	0.269270
C2111	C211	0.891530	0.529270	0.198370
H1401	H140	0.895330	0.515570	0.247070
C2121	C212	0.900770	0.521040	0.116570
C2131	C213	0.891730	0.539350	0.043970
H1411	H141	0.896230	0.532870	0.986470
C2141	C214	0.875750	0.567870	0.058070
H1421	H142	0.869630	0.580270	0.010070
C2151	C215	0.920750	0.494170	0.097670
C2161	C216	0.959420	0.512820	0.049970
H1431	H143	0.972330	0.541770	0.034870
H1441	H144	0.828930	0.436370	0.060370
O491	O49	0.038550	0.557710	0.420000
O501	O50	0.050410	0.563980	0.568000
C2171	C217	0.056850	0.578400	0.491500
C2181	C218	0.089400	0.625270	0.478500
C2191	C219	0.108970	0.652370	0.544700
H1451	H145	0.103400	0.641800	0.602600
C2201	C220	0.137400	0.695600	0.531700
H1461	H146	0.151100	0.713100	0.580400
C2211	C221	0.145630	0.713070	0.449900
C2221	C222	0.127320	0.685720	0.377300
H1471	H147	0.133800	0.696700	0.319800
C2231	C223	0.098800	0.641220	0.391400
H1481	H148	0.086400	0.622700	0.343400
C2241	C224	0.172500	0.759920	0.431000
C2251	C225	0.153850	0.779940	0.383300
H1491	H149	0.124900	0.763900	0.368200
H1501	H150	0.230300	0.725900	0.393700
O511	O51	0.705220	0.891040	0.753330
O521	O52	0.717080	0.897310	0.901330
C2261	C226	0.723520	0.911730	0.824830
C2271	C227	0.756070	0.958600	0.811830
C2281	C228	0.775640	0.985700	0.878030
H1511	H151	0.770070	0.975130	0.935930
C2291	C229	0.804070	0.028930	0.865030
H1521	H152	0.817770	0.046430	0.913730
C2301	C230	0.812300	0.046400	0.783230
C2311	C231	0.793990	0.019050	0.710630
H1531	H153	0.800470	0.030030	0.653130
C2321	C232	0.765470	0.974550	0.724730
H1541	H154	0.753070	0.956030	0.676730
C2331	C233	0.839170	0.093250	0.764330
C2341	C234	0.820520	0.113270	0.716630
H1551	H155	0.791570	0.097230	0.701530
H1561	H156	0.896970	0.059230	0.727030
O531	O53	0.371880	0.224380	0.086670
O541	O54	0.383740	0.230650	0.234670
C2351	C235	0.390180	0.245070	0.158170
C2361	C236	0.422730	0.291940	0.145170
C2371	C237	0.442300	0.319040	0.211370
H1571	H157	0.436730	0.308470	0.269270
C2381	C238	0.470730	0.362270	0.198370
H1581	H158	0.484430	0.379770	0.247070
C2391	C239	0.478960	0.379740	0.116570
C2401	C240	0.460650	0.352390	0.043970
H1591	H159	0.467130	0.363370	0.986470
C2411	C241	0.432130	0.307890	0.058070
H1601	H160	0.419730	0.289370	0.010070
C2421	C242	0.505830	0.426590	0.097670
C2431	C243	0.487180	0.446610	0.049970
H1611	H161	0.458230	0.430570	0.034870
H1621	H162	0.563630	0.392570	0.060370
O551	O55	0.480840	0.442290	0.580000
O561	O56	0.486430	0.436020	0.432000
C2441	C244	0.478450	0.421600	0.508500
C2451	C245	0.464130	0.374730	0.521500
C2461	C246	0.456600	0.347630	0.455300
H1631	H163	0.461600	0.358200	0.397400
C2471	C247	0.441800	0.304400	0.468300
H1641	H164	0.438000	0.286900	0.419600
C2481	C248	0.432560	0.286930	0.550100
C2491	C249	0.441600	0.314280	0.622700
H1651	H165	0.437100	0.303300	0.680200
C2501	C250	0.457580	0.358780	0.608600
H1661	H166	0.463700	0.377300	0.656600
C2511	C251	0.412580	0.240080	0.569000
C2521	C252	0.373910	0.220060	0.616700
H1671	H167	0.361000	0.236100	0.631800
H1681	H168	0.504400	0.274100	0.606300
O571	O57	0.147510	0.775620	0.913330
O581	O58	0.153100	0.769350	0.765330
C2531	C253	0.145120	0.754930	0.841830
C2541	C254	0.130800	0.708060	0.854830
C2551	C255	0.123270	0.680960	0.788630
H1691	H169	0.128270	0.691530	0.730730
C2561	C256	0.108470	0.637730	0.801630
H1701	H170	0.104670	0.620230	0.752930
C2571	C257	0.099230	0.620260	0.883430
C2581	C258	0.108270	0.647610	0.956030
H1711	H171	0.103770	0.636630	0.013530
C2591	C259	0.124250	0.692110	0.941930
H1721	H172	0.130370	0.710630	0.989930
C2601	C260	0.079250	0.573410	0.902330
C2611	C261	0.040580	0.553390	0.950030
H1731	H173	0.027670	0.569430	0.965130
H1741	H174	0.171070	0.607430	0.939630
O591	O59	0.814170	0.108960	0.246670
O601	O60	0.819760	0.102690	0.098670
C2621	C262	0.811780	0.088270	0.175170
C2631	C263	0.797460	0.041400	0.188170
C2641	C264	0.789930	0.014300	0.121970
H1751	H175	0.794930	0.024870	0.064070
C2651	C265	0.775130	0.971070	0.134970
H1761	H176	0.771330	0.953570	0.086270
C2661	C266	0.765890	0.953600	0.216770
C2671	C267	0.774930	0.980950	0.289370
H1771	H177	0.770430	0.969970	0.346870
C2681	C268	0.790910	0.025450	0.275270
H1781	H178	0.797030	0.043970	0.323270
C2691	C269	0.745910	0.906750	0.235670
C2701	C270	0.707240	0.886730	0.283370
H1791	H179	0.694330	0.902770	0.298470
H1801	H180	0.837730	0.940770	0.272970
O611	O61	0.961450	0.519160	0.580000
O621	O62	0.949590	0.513570	0.432000
C2711	C271	0.943150	0.521550	0.508500
C2721	C272	0.910600	0.535870	0.521500
C2731	C273	0.891030	0.543400	0.455300
H1811	H181	0.896600	0.538400	0.397400
C2741	C274	0.862600	0.558200	0.468300
H1821	H182	0.848900	0.562000	0.419600
C2751	C275	0.854370	0.567440	0.550100
C2761	C276	0.872680	0.558400	0.622700
H1831	H183	0.866200	0.562900	0.680200
C2771	C277	0.901200	0.542420	0.608600
H1841	H184	0.913600	0.536300	0.656600
C2781	C278	0.827500	0.587420	0.569000
C2791	C279	0.846150	0.626090	0.616700
H1851	H185	0.875100	0.639000	0.631800
H1861	H186	0.769700	0.495600	0.606300
O631	O63	0.628120	0.852490	0.913330
O641	O64	0.616260	0.846900	0.765330
C2801	C280	0.609820	0.854880	0.841830
C2811	C281	0.577270	0.869200	0.854830
C2821	C282	0.557700	0.876730	0.788630
H1871	H187	0.563270	0.871730	0.730730
C2831	C283	0.529270	0.891530	0.801630
H1881	H188	0.515570	0.895330	0.752930
C2841	C284	0.521040	0.900770	0.883430
C2851	C285	0.539350	0.891730	0.956030
H1891	H189	0.532870	0.896230	0.013530
C2861	C286	0.567870	0.875750	0.941930
H1901	H190	0.580270	0.869630	0.989930
C2871	C287	0.494170	0.920750	0.902330
C2881	C288	0.512820	0.959420	0.950030
H1911	H191	0.541770	0.972330	0.965130
H1921	H192	0.436370	0.828930	0.939630
O651	O65	0.294780	0.185830	0.246670
O661	O66	0.282920	0.180240	0.098670
C2891	C289	0.276480	0.188220	0.175170
C2901	C290	0.243930	0.202540	0.188170
C2911	C291	0.224360	0.210070	0.121970
H1931	H193	0.229930	0.205070	0.064070
C2921	C292	0.195930	0.224870	0.134970
H1941	H194	0.182230	0.228670	0.086270
C2931	C293	0.187700	0.234110	0.216770
C2941	C294	0.206010	0.225070	0.289370
H1951	H195	0.199530	0.229570	0.346870
C2951	C295	0.234530	0.209090	0.275270
H1961	H196	0.246930	0.202970	0.323270
C2961	C296	0.160830	0.254090	0.235670
C2971	C297	0.179480	0.292760	0.283370
H1971	H197	0.208430	0.305670	0.298470
H1981	H198	0.103030	0.162270	0.272970
O671	O67	0.557710	0.038550	0.580000
O681	O68	0.563980	0.050410	0.432000
C2981	C298	0.578400	0.056850	0.508500
C2991	C299	0.625270	0.089400	0.521500
C3001	C300	0.652370	0.108970	0.455300
H1991	H199	0.641800	0.103400	0.397400
C3011	C301	0.695600	0.137400	0.468300
H2001	H200	0.713100	0.151100	0.419600
C3021	C302	0.713070	0.145630	0.550100
C3031	C303	0.685720	0.127320	0.622700
H2011	H201	0.696700	0.133800	0.680200
C3041	C304	0.641220	0.098800	0.608600
H2021	H202	0.622700	0.086400	0.656600
C3051	C305	0.759920	0.172500	0.569000
C3061	C306	0.779940	0.153850	0.616700
H2031	H203	0.763900	0.124900	0.631800
H2041	H204	0.725900	0.230300	0.606300
O691	O69	0.224380	0.371880	0.913330
O701	O70	0.230650	0.383740	0.765330
C3071	C307	0.245070	0.390180	0.841830
C3081	C308	0.291940	0.422730	0.854830
C3091	C309	0.319040	0.442300	0.788630
H2051	H205	0.308470	0.436730	0.730730
C3101	C310	0.362270	0.470730	0.801630
H2061	H206	0.379770	0.484430	0.752930
C3111	C311	0.379740	0.478960	0.883430
C3121	C312	0.352390	0.460650	0.956030
H2071	H207	0.363370	0.467130	0.013530
C3131	C313	0.307890	0.432130	0.941930
H2081	H208	0.289370	0.419730	0.989930
C3141	C314	0.426590	0.505830	0.902330
C3151	C315	0.446610	0.487180	0.950030
H2091	H209	0.430570	0.458230	0.965130
H2101	H210	0.392570	0.563630	0.939630
O711	O71	0.891040	0.705220	0.246670
O721	O72	0.897310	0.717080	0.098670
C3161	C316	0.911730	0.723520	0.175170
C3171	C317	0.958600	0.756070	0.188170
C3181	C318	0.985700	0.775640	0.121970
H2111	H211	0.975130	0.770070	0.064070
C3191	C319	0.028930	0.804070	0.134970
H2121	H212	0.046430	0.817770	0.086270
C3201	C320	0.046400	0.812300	0.216770
C3211	C321	0.019050	0.793990	0.289370
H2131	H213	0.030030	0.800470	0.346870
C3221	C322	0.974550	0.765470	0.275270
H2141	H214	0.956030	0.753070	0.323270
C3231	C323	0.093250	0.839170	0.235670
C3241	C324	0.113270	0.820520	0.283370
H2151	H215	0.097230	0.791570	0.298470
H2161	H216	0.059230	0.896970	0.272970
Cu11	Cu1	0.503280	0.496720	0.413560
Cu21	Cu2	0.169950	0.830050	0.746890
Cu31	Cu3	0.836610	0.163390	0.080230
Cu41	Cu4	0.503280	0.006560	0.413560
Cu51	Cu5	0.169950	0.339890	0.746890
Cu61	Cu6	0.836610	0.673230	0.080230
Cu71	Cu7	0.993440	0.496720	0.413560
Cu81	Cu8	0.660110	0.830050	0.746890
Cu91	Cu9	0.326770	0.163390	0.080230
Cu101	Cu10	0.496720	0.503280	0.586440
Cu111	Cu11	0.163390	0.836610	0.919770
Cu121	Cu12	0.830050	0.169950	0.253110
Cu131	Cu13	0.006560	0.503280	0.586440
Cu141	Cu14	0.673230	0.836610	0.919770
Cu151	Cu15	0.339890	0.169950	0.253110
Cu161	Cu16	0.496720	0.993440	0.586440
Cu171	Cu17	0.163390	0.326770	0.919770
Cu181	Cu18	0.830050	0.660110	0.253110
O731	O73	0.765170	0.530340	0.499400
C3251	C325	0.822950	0.645900	0.642400
C3261	C326	0.784580	0.569170	0.545100
C3271	C327	0.746650	0.493300	0.569800
H2171	H217	0.732950	0.465900	0.540000
O741	O74	0.431840	0.863670	0.832730
C3281	C328	0.489620	0.979230	0.975730
C3291	C329	0.451250	0.902500	0.878430
C3301	C330	0.413320	0.826630	0.903130
H2181	H218	0.399620	0.799230	0.873330
O751	O75	0.098500	0.197010	0.166070
C3311	C331	0.156280	0.312570	0.309070
C3321	C332	0.117920	0.235840	0.211770
C3331	C333	0.079980	0.159970	0.236470
H2191	H219	0.066280	0.132570	0.206670
O761	O76	0.469660	0.234830	0.499400
C3341	C334	0.354100	0.177050	0.642400
C3351	C335	0.430830	0.215420	0.545100
C3361	C336	0.506700	0.253350	0.569800
H2201	H220	0.534100	0.267050	0.540000
O771	O77	0.136330	0.568160	0.832730
C3371	C337	0.020770	0.510380	0.975730
C3381	C338	0.097500	0.548750	0.878430
C3391	C339	0.173370	0.586680	0.903130
H2211	H221	0.200770	0.600380	0.873330
O781	O78	0.802990	0.901500	0.166070
C3401	C340	0.687430	0.843720	0.309070
C3411	C341	0.764160	0.882080	0.211770
C3421	C342	0.840030	0.920020	0.236470
H2221	H222	0.867430	0.933720	0.206670
O791	O79	0.765170	0.234830	0.499400
C3431	C343	0.822950	0.177050	0.642400
C3441	C344	0.784580	0.215420	0.545100
C3451	C345	0.746650	0.253350	0.569800
H2231	H223	0.732950	0.267050	0.540000
O801	O80	0.431840	0.568160	0.832730
C3461	C346	0.489620	0.510380	0.975730
C3471	C347	0.451250	0.548750	0.878430
C3481	C348	0.413320	0.586680	0.903130
H2241	H224	0.399620	0.600380	0.873330
O811	O81	0.098500	0.901500	0.166070
C3491	C349	0.156280	0.843720	0.309070
C3501	C350	0.117920	0.882080	0.211770
C3511	C351	0.079980	0.920020	0.236470
H2251	H225	0.066280	0.933720	0.206670
O821	O82	0.530340	0.765170	0.500600
C3521	C352	0.645900	0.822950	0.357600
C3531	C353	0.569170	0.784580	0.454900
C3541	C354	0.493300	0.746650	0.430200
H2261	H226	0.465900	0.732950	0.460000
O831	O83	0.197010	0.098500	0.833930
C3551	C355	0.312570	0.156280	0.690930
C3561	C356	0.235840	0.117920	0.788230
C3571	C357	0.159970	0.079980	0.763530
H2271	H227	0.132570	0.066280	0.793330
O841	O84	0.863670	0.431840	0.167270
C3581	C358	0.979230	0.489620	0.024270
C3591	C359	0.902500	0.451250	0.121570
C3601	C360	0.826630	0.413320	0.096870
H2281	H228	0.799230	0.399620	0.126670
O851	O85	0.234830	0.469660	0.500600
C3611	C361	0.177050	0.354100	0.357600
C3621	C362	0.215420	0.430830	0.454900
C3631	C363	0.253350	0.506700	0.430200
H2291	H229	0.267050	0.534100	0.460000
O861	O86	0.901500	0.802990	0.833930
C3641	C364	0.843720	0.687430	0.690930
C3651	C365	0.882080	0.764160	0.788230
C3661	C366	0.920020	0.840030	0.763530
H2301	H230	0.933720	0.867430	0.793330
O871	O87	0.568160	0.136330	0.167270
C3671	C367	0.510380	0.020770	0.024270
C3681	C368	0.548750	0.097500	0.121570
C3691	C369	0.586680	0.173370	0.096870
H2311	H231	0.600380	0.200770	0.126670
O881	O88	0.234830	0.765170	0.500600
C3701	C370	0.177050	0.822950	0.357600
C3711	C371	0.215420	0.784580	0.454900
C3721	C372	0.253350	0.746650	0.430200
H2321	H232	0.267050	0.732950	0.460000
O891	O89	0.901500	0.098500	0.833930
C3731	C373	0.843720	0.156280	0.690930
C3741	C374	0.882080	0.117920	0.788230
C3751	C375	0.920020	0.079980	0.763530
H2331	H233	0.933720	0.066280	0.793330
O901	O90	0.568160	0.431840	0.167270
C3761	C376	0.510380	0.489620	0.024270
C3771	C377	0.548750	0.451250	0.121570
C3781	C378	0.586680	0.413320	0.096870
H2341	H234	0.600380	0.399620	0.126670
