data_UMOBEF03_clean_PM
_symmetry_space_group_name_H-M	'P1'
_cell_length_a	35.311600
_cell_length_b	35.311600
_cell_length_c	20.857000
_cell_angle_alpha	90.000000
_cell_angle_beta	90.000000
_cell_angle_gamma	120.000000
_symmetry_Int_Tables_number 1

loop_
_symmetry_equiv_pos_as_xyz
'x,y,z'

loop_
_atom_site_label
_atom_site_type_symbol
_atom_site_fract_x
_atom_site_fract_y
_atom_site_fract_z
O11	O1	0.635970	0.779180	0.404400
O21	O2	0.611740	0.767170	0.302900
C11	C1	0.611230	0.754800	0.359400
C21	C2	0.579680	0.708850	0.376100
C31	C3	0.553020	0.679060	0.329000
H11	H1	0.554600	0.688300	0.286800
C41	C4	0.524750	0.636570	0.344800
H21	H2	0.506400	0.617700	0.313200
C51	C5	0.522330	0.620550	0.405700
C61	C6	0.549420	0.650230	0.455000
H31	H3	0.548100	0.640600	0.496900
C71	C7	0.577920	0.694120	0.438400
H41	H4	0.595900	0.713600	0.469700
C81	C8	0.495120	0.573880	0.426500
C91	C9	0.512980	0.554250	0.462100
H51	H5	0.541800	0.571300	0.475500
H61	H6	0.436800	0.607600	0.436400
O31	O3	0.302640	0.112510	0.737730
O41	O4	0.278410	0.100500	0.636230
C101	C10	0.277900	0.088130	0.692730
C111	C11	0.246350	0.042180	0.709430
C121	C12	0.219690	0.012390	0.662330
H71	H7	0.221270	0.021630	0.620130
C131	C13	0.191420	0.969900	0.678130
H81	H8	0.173070	0.951030	0.646530
C141	C14	0.189000	0.953880	0.739030
C151	C15	0.216090	0.983560	0.788330
H91	H9	0.214770	0.973930	0.830230
C161	C16	0.244590	0.027450	0.771730
H101	H10	0.262570	0.046930	0.803030
C171	C17	0.161790	0.907210	0.759830
C181	C18	0.179650	0.887580	0.795430
H111	H11	0.208470	0.904630	0.808830
H121	H12	0.103470	0.940930	0.769730
O51	O5	0.969300	0.445850	0.071070
O61	O6	0.945070	0.433840	0.969570
C191	C19	0.944560	0.421470	0.026070
C201	C20	0.913010	0.375520	0.042770
C211	C21	0.886350	0.345730	0.995670
H131	H13	0.887930	0.354970	0.953470
C221	C22	0.858080	0.303240	0.011470
H141	H14	0.839730	0.284370	0.979870
C231	C23	0.855660	0.287220	0.072370
C241	C24	0.882750	0.316900	0.121670
H151	H15	0.881430	0.307270	0.163570
C251	C25	0.911250	0.360790	0.105070
H161	H16	0.929230	0.380270	0.136370
C261	C26	0.828450	0.240550	0.093170
C271	C27	0.846310	0.220920	0.128770
H171	H17	0.875130	0.237970	0.142170
H181	H18	0.770130	0.274270	0.103070
O71	O7	0.220820	0.856790	0.404400
O81	O8	0.232830	0.844570	0.302900
C281	C28	0.245200	0.856430	0.359400
C291	C29	0.291150	0.870830	0.376100
C301	C30	0.320940	0.873960	0.329000
H191	H19	0.311700	0.866300	0.286800
C311	C31	0.363430	0.888180	0.344800
H201	H20	0.382300	0.888700	0.313200
C321	C32	0.379450	0.901780	0.405700
C331	C33	0.349770	0.899190	0.455000
H211	H21	0.359400	0.907500	0.496900
C341	C34	0.305880	0.883800	0.438400
H221	H22	0.286400	0.882300	0.469700
C351	C35	0.426120	0.921240	0.426500
C361	C36	0.445750	0.958730	0.462100
H231	H23	0.428700	0.970500	0.475500
H241	H24	0.392400	0.829200	0.436400
O91	O9	0.887490	0.190120	0.737730
O101	O10	0.899500	0.177900	0.636230
C371	C37	0.911870	0.189760	0.692730
C381	C38	0.957820	0.204160	0.709430
C391	C39	0.987610	0.207290	0.662330
H251	H25	0.978370	0.199630	0.620130
C401	C40	0.030100	0.221510	0.678130
H261	H26	0.048970	0.222030	0.646530
C411	C41	0.046120	0.235110	0.739030
C421	C42	0.016440	0.232520	0.788330
H271	H27	0.026070	0.240830	0.830230
C431	C43	0.972550	0.217130	0.771730
H281	H28	0.953070	0.215630	0.803030
C441	C44	0.092790	0.254570	0.759830
C451	C45	0.112420	0.292060	0.795430
H291	H29	0.095370	0.303830	0.808830
H301	H30	0.059070	0.162530	0.769730
O111	O11	0.554150	0.523460	0.071070
O121	O12	0.566160	0.511240	0.969570
C461	C46	0.578530	0.523100	0.026070
C471	C47	0.624480	0.537500	0.042770
C481	C48	0.654270	0.540630	0.995670
H311	H31	0.645030	0.532970	0.953470
C491	C49	0.696760	0.554850	0.011470
H321	H32	0.715630	0.555370	0.979870
C501	C50	0.712780	0.568450	0.072370
C511	C51	0.683100	0.565860	0.121670
H331	H33	0.692730	0.574170	0.163570
C521	C52	0.639210	0.550470	0.105070
H341	H34	0.619730	0.548970	0.136370
C531	C53	0.759450	0.587910	0.093170
C541	C54	0.779080	0.625400	0.128770
H351	H35	0.762030	0.637170	0.142170
H361	H36	0.725730	0.495870	0.103070
O131	O13	0.143210	0.364030	0.404400
O141	O14	0.155430	0.388260	0.302900
C551	C55	0.143570	0.388770	0.359400
C561	C56	0.129170	0.420320	0.376100
C571	C57	0.126040	0.446980	0.329000
H371	H37	0.133700	0.445400	0.286800
C581	C58	0.111820	0.475250	0.344800
H381	H38	0.111300	0.493600	0.313200
C591	C59	0.098220	0.477670	0.405700
C601	C60	0.100810	0.450580	0.455000
H391	H39	0.092500	0.451900	0.496900
C611	C61	0.116200	0.422080	0.438400
H401	H40	0.117700	0.404100	0.469700
C621	C62	0.078760	0.504880	0.426500
C631	C63	0.041270	0.487020	0.462100
H411	H41	0.029500	0.458200	0.475500
H421	H42	0.170800	0.563200	0.436400
O151	O15	0.809880	0.697360	0.737730
O161	O16	0.822100	0.721590	0.636230
C641	C64	0.810240	0.722100	0.692730
C651	C65	0.795840	0.753650	0.709430
C661	C66	0.792710	0.780310	0.662330
H431	H43	0.800370	0.778730	0.620130
C671	C67	0.778490	0.808580	0.678130
H441	H44	0.777970	0.826930	0.646530
C681	C68	0.764890	0.811000	0.739030
C691	C69	0.767480	0.783910	0.788330
H451	H45	0.759170	0.785230	0.830230
C701	C70	0.782870	0.755410	0.771730
H461	H46	0.784370	0.737430	0.803030
C711	C71	0.745430	0.838210	0.759830
C721	C72	0.707940	0.820350	0.795430
H471	H47	0.696170	0.791530	0.808830
H481	H48	0.837470	0.896530	0.769730
O171	O17	0.476540	0.030700	0.071070
O181	O18	0.488760	0.054930	0.969570
C731	C73	0.476900	0.055440	0.026070
C741	C74	0.462500	0.086990	0.042770
C751	C75	0.459370	0.113650	0.995670
H491	H49	0.467030	0.112070	0.953470
C761	C76	0.445150	0.141920	0.011470
H501	H50	0.444630	0.160270	0.979870
C771	C77	0.431550	0.144340	0.072370
C781	C78	0.434140	0.117250	0.121670
H511	H51	0.425830	0.118570	0.163570
C791	C79	0.449530	0.088750	0.105070
H521	H52	0.451030	0.070770	0.136370
C801	C80	0.412090	0.171550	0.093170
C811	C81	0.374600	0.153690	0.128770
H531	H53	0.362830	0.124870	0.142170
H541	H54	0.504130	0.229870	0.103070
O191	O19	0.779180	0.635970	0.595600
O201	O20	0.767170	0.611740	0.697100
C821	C82	0.754800	0.611230	0.640600
C831	C83	0.708850	0.579680	0.623900
C841	C84	0.679060	0.553020	0.671000
H551	H55	0.688300	0.554600	0.713200
C851	C85	0.636570	0.524750	0.655200
H561	H56	0.617700	0.506400	0.686800
C861	C86	0.620550	0.522330	0.594300
C871	C87	0.650230	0.549420	0.545000
H571	H57	0.640600	0.548100	0.503100
C881	C88	0.694120	0.577920	0.561600
H581	H58	0.713600	0.595900	0.530300
C891	C89	0.573880	0.495120	0.573500
C901	C90	0.554250	0.512980	0.537900
H591	H59	0.571300	0.541800	0.524500
H601	H60	0.607600	0.436800	0.563600
O211	O21	0.445850	0.969300	0.928930
O221	O22	0.433840	0.945070	0.030430
C911	C91	0.421470	0.944560	0.973930
C921	C92	0.375520	0.913010	0.957230
C931	C93	0.345730	0.886350	0.004330
H611	H61	0.354970	0.887930	0.046530
C941	C94	0.303240	0.858080	0.988530
H621	H62	0.284370	0.839730	0.020130
C951	C95	0.287220	0.855660	0.927630
C961	C96	0.316900	0.882750	0.878330
H631	H63	0.307270	0.881430	0.836430
C971	C97	0.360790	0.911250	0.894930
H641	H64	0.380270	0.929230	0.863630
C981	C98	0.240550	0.828450	0.906830
C991	C99	0.220920	0.846310	0.871230
H651	H65	0.237970	0.875130	0.857830
H661	H66	0.274270	0.770130	0.896930
O231	O23	0.112510	0.302640	0.262270
O241	O24	0.100500	0.278410	0.363770
C1001	C100	0.088130	0.277900	0.307270
C1011	C101	0.042180	0.246350	0.290570
C1021	C102	0.012390	0.219690	0.337670
H671	H67	0.021630	0.221270	0.379870
C1031	C103	0.969900	0.191420	0.321870
H681	H68	0.951030	0.173070	0.353470
C1041	C104	0.953880	0.189000	0.260970
C1051	C105	0.983560	0.216090	0.211670
H691	H69	0.973930	0.214770	0.169770
C1061	C106	0.027450	0.244590	0.228270
H701	H70	0.046930	0.262570	0.196970
C1071	C107	0.907210	0.161790	0.240170
C1081	C108	0.887580	0.179650	0.204570
H711	H71	0.904630	0.208470	0.191170
H721	H72	0.940930	0.103470	0.230270
O251	O25	0.856790	0.220820	0.595600
O261	O26	0.844570	0.232830	0.697100
C1091	C109	0.856430	0.245200	0.640600
C1101	C110	0.870830	0.291150	0.623900
C1111	C111	0.873960	0.320940	0.671000
H731	H73	0.866300	0.311700	0.713200
C1121	C112	0.888180	0.363430	0.655200
H741	H74	0.888700	0.382300	0.686800
C1131	C113	0.901780	0.379450	0.594300
C1141	C114	0.899190	0.349770	0.545000
H751	H75	0.907500	0.359400	0.503100
C1151	C115	0.883800	0.305880	0.561600
H761	H76	0.882300	0.286400	0.530300
C1161	C116	0.921240	0.426120	0.573500
C1171	C117	0.958730	0.445750	0.537900
H771	H77	0.970500	0.428700	0.524500
H781	H78	0.829200	0.392400	0.563600
O271	O27	0.523460	0.554150	0.928930
O281	O28	0.511240	0.566160	0.030430
C1181	C118	0.523100	0.578530	0.973930
C1191	C119	0.537500	0.624480	0.957230
C1201	C120	0.540630	0.654270	0.004330
H791	H79	0.532970	0.645030	0.046530
C1211	C121	0.554850	0.696760	0.988530
H801	H80	0.555370	0.715630	0.020130
C1221	C122	0.568450	0.712780	0.927630
C1231	C123	0.565860	0.683100	0.878330
H811	H81	0.574170	0.692730	0.836430
C1241	C124	0.550470	0.639210	0.894930
H821	H82	0.548970	0.619730	0.863630
C1251	C125	0.587910	0.759450	0.906830
C1261	C126	0.625400	0.779080	0.871230
H831	H83	0.637170	0.762030	0.857830
H841	H84	0.495870	0.725730	0.896930
O291	O29	0.190120	0.887490	0.262270
O301	O30	0.177900	0.899500	0.363770
C1271	C127	0.189760	0.911870	0.307270
C1281	C128	0.204160	0.957820	0.290570
C1291	C129	0.207290	0.987610	0.337670
H851	H85	0.199630	0.978370	0.379870
C1301	C130	0.221510	0.030100	0.321870
H861	H86	0.222030	0.048970	0.353470
C1311	C131	0.235110	0.046120	0.260970
C1321	C132	0.232520	0.016440	0.211670
H871	H87	0.240830	0.026070	0.169770
C1331	C133	0.217130	0.972550	0.228270
H881	H88	0.215630	0.953070	0.196970
C1341	C134	0.254570	0.092790	0.240170
C1351	C135	0.292060	0.112420	0.204570
H891	H89	0.303830	0.095370	0.191170
H901	H90	0.162530	0.059070	0.230270
O311	O31	0.364030	0.143210	0.595600
O321	O32	0.388260	0.155430	0.697100
C1361	C136	0.388770	0.143570	0.640600
C1371	C137	0.420320	0.129170	0.623900
C1381	C138	0.446980	0.126040	0.671000
H911	H91	0.445400	0.133700	0.713200
C1391	C139	0.475250	0.111820	0.655200
H921	H92	0.493600	0.111300	0.686800
C1401	C140	0.477670	0.098220	0.594300
C1411	C141	0.450580	0.100810	0.545000
H931	H93	0.451900	0.092500	0.503100
C1421	C142	0.422080	0.116200	0.561600
H941	H94	0.404100	0.117700	0.530300
C1431	C143	0.504880	0.078760	0.573500
C1441	C144	0.487020	0.041270	0.537900
H951	H95	0.458200	0.029500	0.524500
H961	H96	0.563200	0.170800	0.563600
O331	O33	0.030700	0.476540	0.928930
O341	O34	0.054930	0.488760	0.030430
C1451	C145	0.055440	0.476900	0.973930
C1461	C146	0.086990	0.462500	0.957230
C1471	C147	0.113650	0.459370	0.004330
H971	H97	0.112070	0.467030	0.046530
C1481	C148	0.141920	0.445150	0.988530
H981	H98	0.160270	0.444630	0.020130
C1491	C149	0.144340	0.431550	0.927630
C1501	C150	0.117250	0.434140	0.878330
H991	H99	0.118570	0.425830	0.836430
C1511	C151	0.088750	0.449530	0.894930
H1001	H100	0.070770	0.451030	0.863630
C1521	C152	0.171550	0.412090	0.906830
C1531	C153	0.153690	0.374600	0.871230
H1011	H101	0.124870	0.362830	0.857830
H1021	H102	0.229870	0.504130	0.896930
O351	O35	0.697360	0.809880	0.262270
O361	O36	0.721590	0.822100	0.363770
C1541	C154	0.722100	0.810240	0.307270
C1551	C155	0.753650	0.795840	0.290570
C1561	C156	0.780310	0.792710	0.337670
H1031	H103	0.778730	0.800370	0.379870
C1571	C157	0.808580	0.778490	0.321870
H1041	H104	0.826930	0.777970	0.353470
C1581	C158	0.811000	0.764890	0.260970
C1591	C159	0.783910	0.767480	0.211670
H1051	H105	0.785230	0.759170	0.169770
C1601	C160	0.755410	0.782870	0.228270
H1061	H106	0.737430	0.784370	0.196970
C1611	C161	0.838210	0.745430	0.240170
C1621	C162	0.820350	0.707940	0.204570
H1071	H107	0.791530	0.696170	0.191170
H1081	H108	0.896530	0.837470	0.230270
O371	O37	0.364030	0.220820	0.595600
O381	O38	0.388260	0.232830	0.697100
C1631	C163	0.388770	0.245200	0.640600
C1641	C164	0.420320	0.291150	0.623900
C1651	C165	0.446980	0.320940	0.671000
H1091	H109	0.445400	0.311700	0.713200
C1661	C166	0.475250	0.363430	0.655200
H1101	H110	0.493600	0.382300	0.686800
C1671	C167	0.477670	0.379450	0.594300
C1681	C168	0.450580	0.349770	0.545000
H1111	H111	0.451900	0.359400	0.503100
C1691	C169	0.422080	0.305880	0.561600
H1121	H112	0.404100	0.286400	0.530300
C1701	C170	0.504880	0.426120	0.573500
C1711	C171	0.487020	0.445750	0.537900
H1131	H113	0.458200	0.428700	0.524500
H1141	H114	0.563200	0.392400	0.563600
O391	O39	0.030700	0.554150	0.928930
O401	O40	0.054930	0.566160	0.030430
C1721	C172	0.055440	0.578530	0.973930
C1731	C173	0.086990	0.624480	0.957230
C1741	C174	0.113650	0.654270	0.004330
H1151	H115	0.112070	0.645030	0.046530
C1751	C175	0.141920	0.696760	0.988530
H1161	H116	0.160270	0.715630	0.020130
C1761	C176	0.144340	0.712780	0.927630
C1771	C177	0.117250	0.683100	0.878330
H1171	H117	0.118570	0.692730	0.836430
C1781	C178	0.088750	0.639210	0.894930
H1181	H118	0.070770	0.619730	0.863630
C1791	C179	0.171550	0.759450	0.906830
C1801	C180	0.153690	0.779080	0.871230
H1191	H119	0.124870	0.762030	0.857830
H1201	H120	0.229870	0.725730	0.896930
O411	O41	0.697360	0.887490	0.262270
O421	O42	0.721590	0.899500	0.363770
C1811	C181	0.722100	0.911870	0.307270
C1821	C182	0.753650	0.957820	0.290570
C1831	C183	0.780310	0.987610	0.337670
H1211	H121	0.778730	0.978370	0.379870
C1841	C184	0.808580	0.030100	0.321870
H1221	H122	0.826930	0.048970	0.353470
C1851	C185	0.811000	0.046120	0.260970
C1861	C186	0.783910	0.016440	0.211670
H1231	H123	0.785230	0.026070	0.169770
C1871	C187	0.755410	0.972550	0.228270
H1241	H124	0.737430	0.953070	0.196970
C1881	C188	0.838210	0.092790	0.240170
C1891	C189	0.820350	0.112420	0.204570
H1251	H125	0.791530	0.095370	0.191170
H1261	H126	0.896530	0.059070	0.230270
O431	O43	0.779180	0.143210	0.595600
O441	O44	0.767170	0.155430	0.697100
C1901	C190	0.754800	0.143570	0.640600
C1911	C191	0.708850	0.129170	0.623900
C1921	C192	0.679060	0.126040	0.671000
H1271	H127	0.688300	0.133700	0.713200
C1931	C193	0.636570	0.111820	0.655200
H1281	H128	0.617700	0.111300	0.686800
C1941	C194	0.620550	0.098220	0.594300
C1951	C195	0.650230	0.100810	0.545000
H1291	H129	0.640600	0.092500	0.503100
C1961	C196	0.694120	0.116200	0.561600
H1301	H130	0.713600	0.117700	0.530300
C1971	C197	0.573880	0.078760	0.573500
C1981	C198	0.554250	0.041270	0.537900
H1311	H131	0.571300	0.029500	0.524500
H1321	H132	0.607600	0.170800	0.563600
O451	O45	0.445850	0.476540	0.928930
O461	O46	0.433840	0.488760	0.030430
C1991	C199	0.421470	0.476900	0.973930
C2001	C200	0.375520	0.462500	0.957230
C2011	C201	0.345730	0.459370	0.004330
H1331	H133	0.354970	0.467030	0.046530
C2021	C202	0.303240	0.445150	0.988530
H1341	H134	0.284370	0.444630	0.020130
C2031	C203	0.287220	0.431550	0.927630
C2041	C204	0.316900	0.434140	0.878330
H1351	H135	0.307270	0.425830	0.836430
C2051	C205	0.360790	0.449530	0.894930
H1361	H136	0.380270	0.451030	0.863630
C2061	C206	0.240550	0.412090	0.906830
C2071	C207	0.220920	0.374600	0.871230
H1371	H137	0.237970	0.362830	0.857830
H1381	H138	0.274270	0.504130	0.896930
O471	O47	0.112510	0.809880	0.262270
O481	O48	0.100500	0.822100	0.363770
C2081	C208	0.088130	0.810240	0.307270
C2091	C209	0.042180	0.795840	0.290570
C2101	C210	0.012390	0.792710	0.337670
H1391	H139	0.021630	0.800370	0.379870
C2111	C211	0.969900	0.778490	0.321870
H1401	H140	0.951030	0.777970	0.353470
C2121	C212	0.953880	0.764890	0.260970
C2131	C213	0.983560	0.767480	0.211670
H1411	H141	0.973930	0.759170	0.169770
C2141	C214	0.027450	0.782870	0.228270
H1421	H142	0.046930	0.784370	0.196970
C2151	C215	0.907210	0.745430	0.240170
C2161	C216	0.887580	0.707940	0.204570
H1431	H143	0.904630	0.696170	0.191170
H1441	H144	0.940930	0.837470	0.230270
O491	O49	0.856790	0.635970	0.595600
O501	O50	0.844570	0.611740	0.697100
C2171	C217	0.856430	0.611230	0.640600
C2181	C218	0.870830	0.579680	0.623900
C2191	C219	0.873960	0.553020	0.671000
H1451	H145	0.866300	0.554600	0.713200
C2201	C220	0.888180	0.524750	0.655200
H1461	H146	0.888700	0.506400	0.686800
C2211	C221	0.901780	0.522330	0.594300
C2221	C222	0.899190	0.549420	0.545000
H1471	H147	0.907500	0.548100	0.503100
C2231	C223	0.883800	0.577920	0.561600
H1481	H148	0.882300	0.595900	0.530300
C2241	C224	0.921240	0.495120	0.573500
C2251	C225	0.958730	0.512980	0.537900
H1491	H149	0.970500	0.541800	0.524500
H1501	H150	0.829200	0.436800	0.563600
O511	O51	0.523460	0.969300	0.928930
O521	O52	0.511240	0.945070	0.030430
C2261	C226	0.523100	0.944560	0.973930
C2271	C227	0.537500	0.913010	0.957230
C2281	C228	0.540630	0.886350	0.004330
H1511	H151	0.532970	0.887930	0.046530
C2291	C229	0.554850	0.858080	0.988530
H1521	H152	0.555370	0.839730	0.020130
C2301	C230	0.568450	0.855660	0.927630
C2311	C231	0.565860	0.882750	0.878330
H1531	H153	0.574170	0.881430	0.836430
C2321	C232	0.550470	0.911250	0.894930
H1541	H154	0.548970	0.929230	0.863630
C2331	C233	0.587910	0.828450	0.906830
C2341	C234	0.625400	0.846310	0.871230
H1551	H155	0.637170	0.875130	0.857830
H1561	H156	0.495870	0.770130	0.896930
O531	O53	0.190120	0.302640	0.262270
O541	O54	0.177900	0.278410	0.363770
C2351	C235	0.189760	0.277900	0.307270
C2361	C236	0.204160	0.246350	0.290570
C2371	C237	0.207290	0.219690	0.337670
H1571	H157	0.199630	0.221270	0.379870
C2381	C238	0.221510	0.191420	0.321870
H1581	H158	0.222030	0.173070	0.353470
C2391	C239	0.235110	0.189000	0.260970
C2401	C240	0.232520	0.216090	0.211670
H1591	H159	0.240830	0.214770	0.169770
C2411	C241	0.217130	0.244590	0.228270
H1601	H160	0.215630	0.262570	0.196970
C2421	C242	0.254570	0.161790	0.240170
C2431	C243	0.292060	0.179650	0.204570
H1611	H161	0.303830	0.208470	0.191170
H1621	H162	0.162530	0.103470	0.230270
O551	O55	0.220820	0.364030	0.404400
O561	O56	0.232830	0.388260	0.302900
C2441	C244	0.245200	0.388770	0.359400
C2451	C245	0.291150	0.420320	0.376100
C2461	C246	0.320940	0.446980	0.329000
H1631	H163	0.311700	0.445400	0.286800
C2471	C247	0.363430	0.475250	0.344800
H1641	H164	0.382300	0.493600	0.313200
C2481	C248	0.379450	0.477670	0.405700
C2491	C249	0.349770	0.450580	0.455000
H1651	H165	0.359400	0.451900	0.496900
C2501	C250	0.305880	0.422080	0.438400
H1661	H166	0.286400	0.404100	0.469700
C2511	C251	0.426120	0.504880	0.426500
C2521	C252	0.445750	0.487020	0.462100
H1671	H167	0.428700	0.458200	0.475500
H1681	H168	0.392400	0.563200	0.436400
O571	O57	0.887490	0.697360	0.737730
O581	O58	0.899500	0.721590	0.636230
C2531	C253	0.911870	0.722100	0.692730
C2541	C254	0.957820	0.753650	0.709430
C2551	C255	0.987610	0.780310	0.662330
H1691	H169	0.978370	0.778730	0.620130
C2561	C256	0.030100	0.808580	0.678130
H1701	H170	0.048970	0.826930	0.646530
C2571	C257	0.046120	0.811000	0.739030
C2581	C258	0.016440	0.783910	0.788330
H1711	H171	0.026070	0.785230	0.830230
C2591	C259	0.972550	0.755410	0.771730
H1721	H172	0.953070	0.737430	0.803030
C2601	C260	0.092790	0.838210	0.759830
C2611	C261	0.112420	0.820350	0.795430
H1731	H173	0.095370	0.791530	0.808830
H1741	H174	0.059070	0.896530	0.769730
O591	O59	0.554150	0.030700	0.071070
O601	O60	0.566160	0.054930	0.969570
C2621	C262	0.578530	0.055440	0.026070
C2631	C263	0.624480	0.086990	0.042770
C2641	C264	0.654270	0.113650	0.995670
H1751	H175	0.645030	0.112070	0.953470
C2651	C265	0.696760	0.141920	0.011470
H1761	H176	0.715630	0.160270	0.979870
C2661	C266	0.712780	0.144340	0.072370
C2671	C267	0.683100	0.117250	0.121670
H1771	H177	0.692730	0.118570	0.163570
C2681	C268	0.639210	0.088750	0.105070
H1781	H178	0.619730	0.070770	0.136370
C2691	C269	0.759450	0.171550	0.093170
C2701	C270	0.779080	0.153690	0.128770
H1791	H179	0.762030	0.124870	0.142170
H1801	H180	0.725730	0.229870	0.103070
O611	O61	0.143210	0.779180	0.404400
O621	O62	0.155430	0.767170	0.302900
C2711	C271	0.143570	0.754800	0.359400
C2721	C272	0.129170	0.708850	0.376100
C2731	C273	0.126040	0.679060	0.329000
H1811	H181	0.133700	0.688300	0.286800
C2741	C274	0.111820	0.636570	0.344800
H1821	H182	0.111300	0.617700	0.313200
C2751	C275	0.098220	0.620550	0.405700
C2761	C276	0.100810	0.650230	0.455000
H1831	H183	0.092500	0.640600	0.496900
C2771	C277	0.116200	0.694120	0.438400
H1841	H184	0.117700	0.713600	0.469700
C2781	C278	0.078760	0.573880	0.426500
C2791	C279	0.041270	0.554250	0.462100
H1851	H185	0.029500	0.571300	0.475500
H1861	H186	0.170800	0.607600	0.436400
O631	O63	0.809880	0.112510	0.737730
O641	O64	0.822100	0.100500	0.636230
C2801	C280	0.810240	0.088130	0.692730
C2811	C281	0.795840	0.042180	0.709430
C2821	C282	0.792710	0.012390	0.662330
H1871	H187	0.800370	0.021630	0.620130
C2831	C283	0.778490	0.969900	0.678130
H1881	H188	0.777970	0.951030	0.646530
C2841	C284	0.764890	0.953880	0.739030
C2851	C285	0.767480	0.983560	0.788330
H1891	H189	0.759170	0.973930	0.830230
C2861	C286	0.782870	0.027450	0.771730
H1901	H190	0.784370	0.046930	0.803030
C2871	C287	0.745430	0.907210	0.759830
C2881	C288	0.707940	0.887580	0.795430
H1911	H191	0.696170	0.904630	0.808830
H1921	H192	0.837470	0.940930	0.769730
O651	O65	0.476540	0.445850	0.071070
O661	O66	0.488760	0.433840	0.969570
C2891	C289	0.476900	0.421470	0.026070
C2901	C290	0.462500	0.375520	0.042770
C2911	C291	0.459370	0.345730	0.995670
H1931	H193	0.467030	0.354970	0.953470
C2921	C292	0.445150	0.303240	0.011470
H1941	H194	0.444630	0.284370	0.979870
C2931	C293	0.431550	0.287220	0.072370
C2941	C294	0.434140	0.316900	0.121670
H1951	H195	0.425830	0.307270	0.163570
C2951	C295	0.449530	0.360790	0.105070
H1961	H196	0.451030	0.380270	0.136370
C2961	C296	0.412090	0.240550	0.093170
C2971	C297	0.374600	0.220920	0.128770
H1971	H197	0.362830	0.237970	0.142170
H1981	H198	0.504130	0.274270	0.103070
O671	O67	0.635970	0.856790	0.404400
O681	O68	0.611740	0.844570	0.302900
C2981	C298	0.611230	0.856430	0.359400
C2991	C299	0.579680	0.870830	0.376100
C3001	C300	0.553020	0.873960	0.329000
H1991	H199	0.554600	0.866300	0.286800
C3011	C301	0.524750	0.888180	0.344800
H2001	H200	0.506400	0.888700	0.313200
C3021	C302	0.522330	0.901780	0.405700
C3031	C303	0.549420	0.899190	0.455000
H2011	H201	0.548100	0.907500	0.496900
C3041	C304	0.577920	0.883800	0.438400
H2021	H202	0.595900	0.882300	0.469700
C3051	C305	0.495120	0.921240	0.426500
C3061	C306	0.512980	0.958730	0.462100
H2031	H203	0.541800	0.970500	0.475500
H2041	H204	0.436800	0.829200	0.436400
O691	O69	0.302640	0.190120	0.737730
O701	O70	0.278410	0.177900	0.636230
C3071	C307	0.277900	0.189760	0.692730
C3081	C308	0.246350	0.204160	0.709430
C3091	C309	0.219690	0.207290	0.662330
H2051	H205	0.221270	0.199630	0.620130
C3101	C310	0.191420	0.221510	0.678130
H2061	H206	0.173070	0.222030	0.646530
C3111	C311	0.189000	0.235110	0.739030
C3121	C312	0.216090	0.232520	0.788330
H2071	H207	0.214770	0.240830	0.830230
C3131	C313	0.244590	0.217130	0.771730
H2081	H208	0.262570	0.215630	0.803030
C3141	C314	0.161790	0.254570	0.759830
C3151	C315	0.179650	0.292060	0.795430
H2091	H209	0.208470	0.303830	0.808830
H2101	H210	0.103470	0.162530	0.769730
O711	O71	0.969300	0.523460	0.071070
O721	O72	0.945070	0.511240	0.969570
C3161	C316	0.944560	0.523100	0.026070
C3171	C317	0.913010	0.537500	0.042770
C3181	C318	0.886350	0.540630	0.995670
H2111	H211	0.887930	0.532970	0.953470
C3191	C319	0.858080	0.554850	0.011470
H2121	H212	0.839730	0.555370	0.979870
C3201	C320	0.855660	0.568450	0.072370
C3211	C321	0.882750	0.565860	0.121670
H2131	H213	0.881430	0.574170	0.163570
C3221	C322	0.911250	0.550470	0.105070
H2141	H214	0.929230	0.548970	0.136370
C3231	C323	0.828450	0.587910	0.093170
C3241	C324	0.846310	0.625400	0.128770
H2151	H215	0.875130	0.637170	0.142170
H2161	H216	0.770130	0.495870	0.103070
Cu11	Cu1	0.652650	0.826320	0.273300
Cu21	Cu2	0.319320	0.159660	0.606630
Cu31	Cu3	0.985980	0.492990	0.939970
Cu41	Cu4	0.173680	0.826320	0.273300
Cu51	Cu5	0.840340	0.159660	0.606630
Cu61	Cu6	0.507010	0.492990	0.939970
Cu71	Cu7	0.173670	0.347350	0.273300
Cu81	Cu8	0.840340	0.680680	0.606630
Cu91	Cu9	0.507010	0.014020	0.939970
Cu101	Cu10	0.826320	0.652650	0.726700
Cu111	Cu11	0.492990	0.985980	0.060030
Cu121	Cu12	0.159660	0.319320	0.393370
Cu131	Cu13	0.826320	0.173680	0.726700
Cu141	Cu14	0.492990	0.507010	0.060030
Cu151	Cu15	0.159660	0.840340	0.393370
Cu161	Cu16	0.347350	0.173680	0.726700
Cu171	Cu17	0.014020	0.507010	0.060030
Cu181	Cu18	0.680680	0.840340	0.393370
O731	O73	0.432420	0.567580	0.367100
C3251	C325	0.490310	0.509690	0.479600
C3261	C326	0.451430	0.548570	0.408900
C3271	C327	0.414100	0.585900	0.409900
H2171	H217	0.400800	0.599200	0.385500
O741	O74	0.099090	0.900910	0.700430
C3281	C328	0.156980	0.843020	0.812930
C3291	C329	0.118100	0.881900	0.742230
C3301	C330	0.080770	0.919230	0.743230
H2181	H218	0.067470	0.932530	0.718830
O751	O75	0.765750	0.234250	0.033770
C3311	C331	0.823640	0.176360	0.146270
C3321	C332	0.784760	0.215240	0.075570
C3331	C333	0.747430	0.252570	0.076570
H2191	H219	0.734130	0.265870	0.052170
O761	O76	0.432420	0.864840	0.367100
C3341	C334	0.490310	0.980620	0.479600
C3351	C335	0.451430	0.902860	0.408900
C3361	C336	0.414100	0.828200	0.409900
H2201	H220	0.400800	0.801600	0.385500
O771	O77	0.099090	0.198170	0.700430
C3371	C337	0.156980	0.313950	0.812930
C3381	C338	0.118100	0.236190	0.742230
C3391	C339	0.080770	0.161530	0.743230
H2211	H221	0.067470	0.134930	0.718830
O781	O78	0.765750	0.531510	0.033770
C3401	C340	0.823640	0.647290	0.146270
C3411	C341	0.784760	0.569530	0.075570
C3421	C342	0.747430	0.494870	0.076570
H2221	H222	0.734130	0.468270	0.052170
O791	O79	0.135160	0.567580	0.367100
C3431	C343	0.019380	0.509690	0.479600
C3441	C344	0.097140	0.548570	0.408900
C3451	C345	0.171800	0.585900	0.409900
H2231	H223	0.198400	0.599200	0.385500
O801	O80	0.801830	0.900910	0.700430
C3461	C346	0.686050	0.843020	0.812930
C3471	C347	0.763810	0.881900	0.742230
C3481	C348	0.838470	0.919230	0.743230
H2241	H224	0.865070	0.932530	0.718830
O811	O81	0.468490	0.234250	0.033770
C3491	C349	0.352710	0.176360	0.146270
C3501	C350	0.430470	0.215240	0.075570
C3511	C351	0.505130	0.252570	0.076570
H2251	H225	0.531730	0.265870	0.052170
O821	O82	0.567580	0.432420	0.632900
C3521	C352	0.509690	0.490310	0.520400
C3531	C353	0.548570	0.451430	0.591100
C3541	C354	0.585900	0.414100	0.590100
H2261	H226	0.599200	0.400800	0.614500
O831	O83	0.234250	0.765750	0.966230
C3551	C355	0.176360	0.823640	0.853730
C3561	C356	0.215240	0.784760	0.924430
C3571	C357	0.252570	0.747430	0.923430
H2271	H227	0.265870	0.734130	0.947830
O841	O84	0.900910	0.099090	0.299570
C3581	C358	0.843020	0.156980	0.187070
C3591	C359	0.881900	0.118100	0.257770
C3601	C360	0.919230	0.080770	0.256770
H2281	H228	0.932530	0.067470	0.281170
O851	O85	0.864840	0.432420	0.632900
C3611	C361	0.980620	0.490310	0.520400
C3621	C362	0.902860	0.451430	0.591100
C3631	C363	0.828200	0.414100	0.590100
H2291	H229	0.801600	0.400800	0.614500
O861	O86	0.531510	0.765750	0.966230
C3641	C364	0.647290	0.823640	0.853730
C3651	C365	0.569530	0.784760	0.924430
C3661	C366	0.494870	0.747430	0.923430
H2301	H230	0.468270	0.734130	0.947830
O871	O87	0.198170	0.099090	0.299570
C3671	C367	0.313950	0.156980	0.187070
C3681	C368	0.236190	0.118100	0.257770
C3691	C369	0.161530	0.080770	0.256770
H2311	H231	0.134930	0.067470	0.281170
O881	O88	0.567580	0.135160	0.632900
C3701	C370	0.509690	0.019380	0.520400
C3711	C371	0.548570	0.097140	0.591100
C3721	C372	0.585900	0.171800	0.590100
H2321	H232	0.599200	0.198400	0.614500
O891	O89	0.234250	0.468490	0.966230
C3731	C373	0.176360	0.352710	0.853730
C3741	C374	0.215240	0.430470	0.924430
C3751	C375	0.252570	0.505130	0.923430
H2331	H233	0.265870	0.531730	0.947830
O901	O90	0.900910	0.801830	0.299570
C3761	C376	0.843020	0.686050	0.187070
C3771	C377	0.881900	0.763810	0.257770
C3781	C378	0.919230	0.838470	0.256770
H2341	H234	0.932530	0.865070	0.281170
