data_UMODEH01_clean_PM
_symmetry_space_group_name_H-M	'P1'
_cell_length_a	34.944700
_cell_length_b	34.944700
_cell_length_c	23.333000
_cell_angle_alpha	90.000000
_cell_angle_beta	90.000000
_cell_angle_gamma	120.000000
_symmetry_Int_Tables_number 1

loop_
_symmetry_equiv_pos_as_xyz
'x,y,z'

loop_
_atom_site_label
_atom_site_type_symbol
_atom_site_fract_x
_atom_site_fract_y
_atom_site_fract_z
O11	O1	0.553230	0.027710	0.566900
O21	O2	0.567400	0.056230	0.477910
C11	C1	0.578170	0.053980	0.527590
C21	C2	0.625230	0.085340	0.546350
C31	C3	0.655920	0.113610	0.504890
H11	H1	0.647300	0.113100	0.467000
C41	C4	0.698970	0.142010	0.521920
H21	H2	0.719100	0.161600	0.495300
C51	C5	0.712870	0.142100	0.577130
C61	C6	0.682360	0.114050	0.617720
H31	H3	0.691200	0.114600	0.655400
C71	C7	0.638610	0.085240	0.601870
H41	H4	0.618500	0.066000	0.628700
C81	C8	0.759810	0.170580	0.596780
C91	C9	0.779540	0.152680	0.630710
H51	H5	0.762700	0.123500	0.642800
H61	H6	0.723100	0.232000	0.604400
H71	H7	0.749100	0.295800	0.523600
O31	O3	0.219900	0.361040	0.900230
O41	O4	0.234070	0.389560	0.811240
C101	C10	0.244840	0.387310	0.860920
C111	C11	0.291900	0.418670	0.879680
C121	C12	0.322590	0.446940	0.838220
H81	H8	0.313970	0.446430	0.800330
C131	C13	0.365640	0.475340	0.855250
H91	H9	0.385770	0.494930	0.828630
C141	C14	0.379540	0.475430	0.910460
C151	C15	0.349030	0.447380	0.951050
H101	H10	0.357870	0.447930	0.988730
C161	C16	0.305280	0.418570	0.935200
H111	H11	0.285170	0.399330	0.962030
C171	C17	0.426480	0.503910	0.930110
C181	C18	0.446210	0.486010	0.964040
H121	H12	0.429370	0.456830	0.976130
H131	H13	0.389770	0.565330	0.937730
H141	H14	0.415770	0.629130	0.856930
O51	O5	0.886560	0.694380	0.233570
O61	O6	0.900730	0.722900	0.144580
C191	C19	0.911500	0.720650	0.194260
C201	C20	0.958560	0.752010	0.213020
C211	C21	0.989250	0.780280	0.171560
H151	H15	0.980630	0.779770	0.133670
C221	C22	0.032300	0.808680	0.188590
H161	H16	0.052430	0.828270	0.161970
C231	C23	0.046200	0.808770	0.243800
C241	C24	0.015690	0.780720	0.284390
H171	H17	0.024530	0.781270	0.322070
C251	C25	0.971940	0.751910	0.268540
H181	H18	0.951830	0.732670	0.295370
C261	C26	0.093140	0.837250	0.263450
C271	C27	0.112870	0.819350	0.297380
H191	H19	0.096030	0.790170	0.309470
H201	H20	0.056430	0.898670	0.271070
H211	H21	0.082430	0.962470	0.190270
O71	O7	0.972290	0.525520	0.566900
O81	O8	0.943770	0.511170	0.477910
C281	C28	0.946020	0.524190	0.527590
C291	C29	0.914660	0.539890	0.546350
C301	C30	0.886390	0.542310	0.504890
H221	H22	0.886900	0.534200	0.467000
C311	C31	0.857990	0.556960	0.521920
H231	H23	0.838400	0.557500	0.495300
C321	C32	0.857900	0.570770	0.577130
C331	C33	0.885950	0.568310	0.617720
H241	H24	0.885400	0.576600	0.655400
C341	C34	0.914760	0.553370	0.601870
H251	H25	0.934000	0.552500	0.628700
C351	C35	0.829420	0.589230	0.596780
C361	C36	0.847320	0.626860	0.630710
H261	H26	0.876500	0.639200	0.642800
H271	H27	0.768000	0.491100	0.604400
H281	H28	0.704200	0.453300	0.523600
O91	O9	0.638960	0.858850	0.900230
O101	O10	0.610440	0.844500	0.811240
C371	C37	0.612690	0.857520	0.860920
C381	C38	0.581330	0.873220	0.879680
C391	C39	0.553060	0.875640	0.838220
H291	H29	0.553570	0.867530	0.800330
C401	C40	0.524660	0.890290	0.855250
H301	H30	0.505070	0.890830	0.828630
C411	C41	0.524570	0.904100	0.910460
C421	C42	0.552620	0.901640	0.951050
H311	H31	0.552070	0.909930	0.988730
C431	C43	0.581430	0.886700	0.935200
H321	H32	0.600670	0.885830	0.962030
C441	C44	0.496090	0.922560	0.930110
C451	C45	0.513990	0.960190	0.964040
H331	H33	0.543170	0.972530	0.976130
H341	H34	0.434670	0.824430	0.937730
H351	H35	0.370870	0.786630	0.856930
O111	O11	0.305620	0.192190	0.233570
O121	O12	0.277100	0.177840	0.144580
C461	C46	0.279350	0.190860	0.194260
C471	C47	0.247990	0.206560	0.213020
C481	C48	0.219720	0.208980	0.171560
H361	H36	0.220230	0.200870	0.133670
C491	C49	0.191320	0.223630	0.188590
H371	H37	0.171730	0.224170	0.161970
C501	C50	0.191230	0.237440	0.243800
C511	C51	0.219280	0.234980	0.284390
H381	H38	0.218730	0.243270	0.322070
C521	C52	0.248090	0.220040	0.268540
H391	H39	0.267330	0.219170	0.295370
C531	C53	0.162750	0.255900	0.263450
C541	C54	0.180650	0.293530	0.297380
H401	H40	0.209830	0.305870	0.309470
H411	H41	0.101330	0.157770	0.271070
H421	H42	0.037530	0.119970	0.190270
O131	O13	0.474480	0.446770	0.566900
O141	O14	0.488830	0.432600	0.477910
C551	C55	0.475810	0.421830	0.527590
C561	C56	0.460110	0.374770	0.546350
C571	C57	0.457690	0.344080	0.504890
H431	H43	0.465800	0.352700	0.467000
C581	C58	0.443040	0.301030	0.521920
H441	H44	0.442500	0.280900	0.495300
C591	C59	0.429230	0.287130	0.577130
C601	C60	0.431690	0.317640	0.617720
H451	H45	0.423400	0.308800	0.655400
C611	C61	0.446630	0.361390	0.601870
H461	H46	0.447500	0.381500	0.628700
C621	C62	0.410770	0.240190	0.596780
C631	C63	0.373140	0.220460	0.630710
H471	H47	0.360800	0.237300	0.642800
H481	H48	0.508900	0.276900	0.604400
H491	H49	0.546700	0.250900	0.523600
O151	O15	0.141150	0.780100	0.900230
O161	O16	0.155500	0.765930	0.811240
C641	C64	0.142480	0.755160	0.860920
C651	C65	0.126780	0.708100	0.879680
C661	C66	0.124360	0.677410	0.838220
H501	H50	0.132470	0.686030	0.800330
C671	C67	0.109710	0.634360	0.855250
H511	H51	0.109170	0.614230	0.828630
C681	C68	0.095900	0.620460	0.910460
C691	C69	0.098360	0.650970	0.951050
H521	H52	0.090070	0.642130	0.988730
C701	C70	0.113300	0.694720	0.935200
H531	H53	0.114170	0.714830	0.962030
C711	C71	0.077440	0.573520	0.930110
C721	C72	0.039810	0.553790	0.964040
H541	H54	0.027470	0.570630	0.976130
H551	H55	0.175570	0.610230	0.937730
H561	H56	0.213370	0.584230	0.856930
O171	O17	0.807810	0.113440	0.233570
O181	O18	0.822160	0.099270	0.144580
C731	C73	0.809140	0.088500	0.194260
C741	C74	0.793440	0.041440	0.213020
C751	C75	0.791020	0.010750	0.171560
H571	H57	0.799130	0.019370	0.133670
C761	C76	0.776370	0.967700	0.188590
H581	H58	0.775830	0.947570	0.161970
C771	C77	0.762560	0.953800	0.243800
C781	C78	0.765020	0.984310	0.284390
H591	H59	0.756730	0.975470	0.322070
C791	C79	0.779960	0.028060	0.268540
H601	H60	0.780830	0.048170	0.295370
C801	C80	0.744100	0.906860	0.263450
C811	C81	0.706470	0.887130	0.297380
H611	H61	0.694130	0.903970	0.309470
H621	H62	0.842230	0.943570	0.271070
H631	H63	0.880030	0.917570	0.190270
O191	O19	0.027710	0.553230	0.433100
O201	O20	0.056230	0.567400	0.522090
C821	C82	0.053980	0.578170	0.472410
C831	C83	0.085340	0.625230	0.453650
C841	C84	0.113610	0.655920	0.495110
H641	H64	0.113100	0.647300	0.533000
C851	C85	0.142010	0.698970	0.478080
H651	H65	0.161600	0.719100	0.504700
C861	C86	0.142100	0.712870	0.422870
C871	C87	0.114050	0.682360	0.382280
H661	H66	0.114600	0.691200	0.344600
C881	C88	0.085240	0.638610	0.398130
H671	H67	0.066000	0.618500	0.371300
C891	C89	0.170580	0.759810	0.403220
C901	C90	0.152680	0.779540	0.369290
H681	H68	0.123500	0.762700	0.357200
H691	H69	0.232000	0.723100	0.395600
H701	H70	0.295800	0.749100	0.476400
O211	O21	0.694380	0.886560	0.766430
O221	O22	0.722900	0.900730	0.855420
C911	C91	0.720650	0.911500	0.805740
C921	C92	0.752010	0.958560	0.786980
C931	C93	0.780280	0.989250	0.828440
H711	H71	0.779770	0.980630	0.866330
C941	C94	0.808680	0.032300	0.811410
H721	H72	0.828270	0.052430	0.838030
C951	C95	0.808770	0.046200	0.756200
C961	C96	0.780720	0.015690	0.715610
H731	H73	0.781270	0.024530	0.677930
C971	C97	0.751910	0.971940	0.731460
H741	H74	0.732670	0.951830	0.704630
C981	C98	0.837250	0.093140	0.736550
C991	C99	0.819350	0.112870	0.702620
H751	H75	0.790170	0.096030	0.690530
H761	H76	0.898670	0.056430	0.728930
H771	H77	0.962470	0.082430	0.809730
O231	O23	0.361040	0.219900	0.099770
O241	O24	0.389560	0.234070	0.188760
C1001	C100	0.387310	0.244840	0.139080
C1011	C101	0.418670	0.291900	0.120320
C1021	C102	0.446940	0.322590	0.161780
H781	H78	0.446430	0.313970	0.199670
C1031	C103	0.475340	0.365640	0.144750
H791	H79	0.494930	0.385770	0.171370
C1041	C104	0.475430	0.379540	0.089540
C1051	C105	0.447380	0.349030	0.048950
H801	H80	0.447930	0.357870	0.011270
C1061	C106	0.418570	0.305280	0.064800
H811	H81	0.399330	0.285170	0.037970
C1071	C107	0.503910	0.426480	0.069890
C1081	C108	0.486010	0.446210	0.035960
H821	H82	0.456830	0.429370	0.023870
H831	H83	0.565330	0.389770	0.062270
H841	H84	0.629130	0.415770	0.143070
O251	O25	0.525520	0.972290	0.433100
O261	O26	0.511170	0.943770	0.522090
C1091	C109	0.524190	0.946020	0.472410
C1101	C110	0.539890	0.914660	0.453650
C1111	C111	0.542310	0.886390	0.495110
H851	H85	0.534200	0.886900	0.533000
C1121	C112	0.556960	0.857990	0.478080
H861	H86	0.557500	0.838400	0.504700
C1131	C113	0.570770	0.857900	0.422870
C1141	C114	0.568310	0.885950	0.382280
H871	H87	0.576600	0.885400	0.344600
C1151	C115	0.553370	0.914760	0.398130
H881	H88	0.552500	0.934000	0.371300
C1161	C116	0.589230	0.829420	0.403220
C1171	C117	0.626860	0.847320	0.369290
H891	H89	0.639200	0.876500	0.357200
H901	H90	0.491100	0.768000	0.395600
H911	H91	0.453300	0.704200	0.476400
O271	O27	0.192190	0.305620	0.766430
O281	O28	0.177840	0.277100	0.855420
C1181	C118	0.190860	0.279350	0.805740
C1191	C119	0.206560	0.247990	0.786980
C1201	C120	0.208980	0.219720	0.828440
H921	H92	0.200870	0.220230	0.866330
C1211	C121	0.223630	0.191320	0.811410
H931	H93	0.224170	0.171730	0.838030
C1221	C122	0.237440	0.191230	0.756200
C1231	C123	0.234980	0.219280	0.715610
H941	H94	0.243270	0.218730	0.677930
C1241	C124	0.220040	0.248090	0.731460
H951	H95	0.219170	0.267330	0.704630
C1251	C125	0.255900	0.162750	0.736550
C1261	C126	0.293530	0.180650	0.702620
H961	H96	0.305870	0.209830	0.690530
H971	H97	0.157770	0.101330	0.728930
H981	H98	0.119970	0.037530	0.809730
O291	O29	0.858850	0.638960	0.099770
O301	O30	0.844500	0.610440	0.188760
C1271	C127	0.857520	0.612690	0.139080
C1281	C128	0.873220	0.581330	0.120320
C1291	C129	0.875640	0.553060	0.161780
H991	H99	0.867530	0.553570	0.199670
C1301	C130	0.890290	0.524660	0.144750
H1001	H100	0.890830	0.505070	0.171370
C1311	C131	0.904100	0.524570	0.089540
C1321	C132	0.901640	0.552620	0.048950
H1011	H101	0.909930	0.552070	0.011270
C1331	C133	0.886700	0.581430	0.064800
H1021	H102	0.885830	0.600670	0.037970
C1341	C134	0.922560	0.496090	0.069890
C1351	C135	0.960190	0.513990	0.035960
H1031	H103	0.972530	0.543170	0.023870
H1041	H104	0.824430	0.434670	0.062270
H1051	H105	0.786630	0.370870	0.143070
O311	O31	0.446770	0.474480	0.433100
O321	O32	0.432600	0.488830	0.522090
C1361	C136	0.421830	0.475810	0.472410
C1371	C137	0.374770	0.460110	0.453650
C1381	C138	0.344080	0.457690	0.495110
H1061	H106	0.352700	0.465800	0.533000
C1391	C139	0.301030	0.443040	0.478080
H1071	H107	0.280900	0.442500	0.504700
C1401	C140	0.287130	0.429230	0.422870
C1411	C141	0.317640	0.431690	0.382280
H1081	H108	0.308800	0.423400	0.344600
C1421	C142	0.361390	0.446630	0.398130
H1091	H109	0.381500	0.447500	0.371300
C1431	C143	0.240190	0.410770	0.403220
C1441	C144	0.220460	0.373140	0.369290
H1101	H110	0.237300	0.360800	0.357200
H1111	H111	0.276900	0.508900	0.395600
H1121	H112	0.250900	0.546700	0.476400
O331	O33	0.113440	0.807810	0.766430
O341	O34	0.099270	0.822160	0.855420
C1451	C145	0.088500	0.809140	0.805740
C1461	C146	0.041440	0.793440	0.786980
C1471	C147	0.010750	0.791020	0.828440
H1131	H113	0.019370	0.799130	0.866330
C1481	C148	0.967700	0.776370	0.811410
H1141	H114	0.947570	0.775830	0.838030
C1491	C149	0.953800	0.762560	0.756200
C1501	C150	0.984310	0.765020	0.715610
H1151	H115	0.975470	0.756730	0.677930
C1511	C151	0.028060	0.779960	0.731460
H1161	H116	0.048170	0.780830	0.704630
C1521	C152	0.906860	0.744100	0.736550
C1531	C153	0.887130	0.706470	0.702620
H1171	H117	0.903970	0.694130	0.690530
H1181	H118	0.943570	0.842230	0.728930
H1191	H119	0.917570	0.880030	0.809730
O351	O35	0.780100	0.141150	0.099770
O361	O36	0.765930	0.155500	0.188760
C1541	C154	0.755160	0.142480	0.139080
C1551	C155	0.708100	0.126780	0.120320
C1561	C156	0.677410	0.124360	0.161780
H1201	H120	0.686030	0.132470	0.199670
C1571	C157	0.634360	0.109710	0.144750
H1211	H121	0.614230	0.109170	0.171370
C1581	C158	0.620460	0.095900	0.089540
C1591	C159	0.650970	0.098360	0.048950
H1221	H122	0.642130	0.090070	0.011270
C1601	C160	0.694720	0.113300	0.064800
H1231	H123	0.714830	0.114170	0.037970
C1611	C161	0.573520	0.077440	0.069890
C1621	C162	0.553790	0.039810	0.035960
H1241	H124	0.570630	0.027470	0.023870
H1251	H125	0.610230	0.175570	0.062270
H1261	H126	0.584230	0.213370	0.143070
O371	O37	0.446770	0.972290	0.433100
O381	O38	0.432600	0.943770	0.522090
C1631	C163	0.421830	0.946020	0.472410
C1641	C164	0.374770	0.914660	0.453650
C1651	C165	0.344080	0.886390	0.495110
H1271	H127	0.352700	0.886900	0.533000
C1661	C166	0.301030	0.857990	0.478080
H1281	H128	0.280900	0.838400	0.504700
C1671	C167	0.287130	0.857900	0.422870
C1681	C168	0.317640	0.885950	0.382280
H1291	H129	0.308800	0.885400	0.344600
C1691	C169	0.361390	0.914760	0.398130
H1301	H130	0.381500	0.934000	0.371300
C1701	C170	0.240190	0.829420	0.403220
C1711	C171	0.220460	0.847320	0.369290
H1311	H131	0.237300	0.876500	0.357200
H1321	H132	0.276900	0.768000	0.395600
H1331	H133	0.250900	0.704200	0.476400
O391	O39	0.113440	0.305620	0.766430
O401	O40	0.099270	0.277100	0.855420
C1721	C172	0.088500	0.279350	0.805740
C1731	C173	0.041440	0.247990	0.786980
C1741	C174	0.010750	0.219720	0.828440
H1341	H134	0.019370	0.220230	0.866330
C1751	C175	0.967700	0.191320	0.811410
H1351	H135	0.947570	0.171730	0.838030
C1761	C176	0.953800	0.191230	0.756200
C1771	C177	0.984310	0.219280	0.715610
H1361	H136	0.975470	0.218730	0.677930
C1781	C178	0.028060	0.248090	0.731460
H1371	H137	0.048170	0.267330	0.704630
C1791	C179	0.906860	0.162750	0.736550
C1801	C180	0.887130	0.180650	0.702620
H1381	H138	0.903970	0.209830	0.690530
H1391	H139	0.943570	0.101330	0.728930
H1401	H140	0.917570	0.037530	0.809730
O411	O41	0.780100	0.638960	0.099770
O421	O42	0.765930	0.610440	0.188760
C1811	C181	0.755160	0.612690	0.139080
C1821	C182	0.708100	0.581330	0.120320
C1831	C183	0.677410	0.553060	0.161780
H1411	H141	0.686030	0.553570	0.199670
C1841	C184	0.634360	0.524660	0.144750
H1421	H142	0.614230	0.505070	0.171370
C1851	C185	0.620460	0.524570	0.089540
C1861	C186	0.650970	0.552620	0.048950
H1431	H143	0.642130	0.552070	0.011270
C1871	C187	0.694720	0.581430	0.064800
H1441	H144	0.714830	0.600670	0.037970
C1881	C188	0.573520	0.496090	0.069890
C1891	C189	0.553790	0.513990	0.035960
H1451	H145	0.570630	0.543170	0.023870
H1461	H146	0.610230	0.434670	0.062270
H1471	H147	0.584230	0.370870	0.143070
O431	O43	0.027710	0.474480	0.433100
O441	O44	0.056230	0.488830	0.522090
C1901	C190	0.053980	0.475810	0.472410
C1911	C191	0.085340	0.460110	0.453650
C1921	C192	0.113610	0.457690	0.495110
H1481	H148	0.113100	0.465800	0.533000
C1931	C193	0.142010	0.443040	0.478080
H1491	H149	0.161600	0.442500	0.504700
C1941	C194	0.142100	0.429230	0.422870
C1951	C195	0.114050	0.431690	0.382280
H1501	H150	0.114600	0.423400	0.344600
C1961	C196	0.085240	0.446630	0.398130
H1511	H151	0.066000	0.447500	0.371300
C1971	C197	0.170580	0.410770	0.403220
C1981	C198	0.152680	0.373140	0.369290
H1521	H152	0.123500	0.360800	0.357200
H1531	H153	0.232000	0.508900	0.395600
H1541	H154	0.295800	0.546700	0.476400
O451	O45	0.694380	0.807810	0.766430
O461	O46	0.722900	0.822160	0.855420
C1991	C199	0.720650	0.809140	0.805740
C2001	C200	0.752010	0.793440	0.786980
C2011	C201	0.780280	0.791020	0.828440
H1551	H155	0.779770	0.799130	0.866330
C2021	C202	0.808680	0.776370	0.811410
H1561	H156	0.828270	0.775830	0.838030
C2031	C203	0.808770	0.762560	0.756200
C2041	C204	0.780720	0.765020	0.715610
H1571	H157	0.781270	0.756730	0.677930
C2051	C205	0.751910	0.779960	0.731460
H1581	H158	0.732670	0.780830	0.704630
C2061	C206	0.837250	0.744100	0.736550
C2071	C207	0.819350	0.706470	0.702620
H1591	H159	0.790170	0.694130	0.690530
H1601	H160	0.898670	0.842230	0.728930
H1611	H161	0.962470	0.880030	0.809730
O471	O47	0.361040	0.141150	0.099770
O481	O48	0.389560	0.155500	0.188760
C2081	C208	0.387310	0.142480	0.139080
C2091	C209	0.418670	0.126780	0.120320
C2101	C210	0.446940	0.124360	0.161780
H1621	H162	0.446430	0.132470	0.199670
C2111	C211	0.475340	0.109710	0.144750
H1631	H163	0.494930	0.109170	0.171370
C2121	C212	0.475430	0.095900	0.089540
C2131	C213	0.447380	0.098360	0.048950
H1641	H164	0.447930	0.090070	0.011270
C2141	C214	0.418570	0.113300	0.064800
H1651	H165	0.399330	0.114170	0.037970
C2151	C215	0.503910	0.077440	0.069890
C2161	C216	0.486010	0.039810	0.035960
H1661	H166	0.456830	0.027470	0.023870
H1671	H167	0.565330	0.175570	0.062270
H1681	H168	0.629130	0.213370	0.143070
O491	O49	0.525520	0.553230	0.433100
O501	O50	0.511170	0.567400	0.522090
C2171	C217	0.524190	0.578170	0.472410
C2181	C218	0.539890	0.625230	0.453650
C2191	C219	0.542310	0.655920	0.495110
H1691	H169	0.534200	0.647300	0.533000
C2201	C220	0.556960	0.698970	0.478080
H1701	H170	0.557500	0.719100	0.504700
C2211	C221	0.570770	0.712870	0.422870
C2221	C222	0.568310	0.682360	0.382280
H1711	H171	0.576600	0.691200	0.344600
C2231	C223	0.553370	0.638610	0.398130
H1721	H172	0.552500	0.618500	0.371300
C2241	C224	0.589230	0.759810	0.403220
C2251	C225	0.626860	0.779540	0.369290
H1731	H173	0.639200	0.762700	0.357200
H1741	H174	0.491100	0.723100	0.395600
H1751	H175	0.453300	0.749100	0.476400
O511	O51	0.192190	0.886560	0.766430
O521	O52	0.177840	0.900730	0.855420
C2261	C226	0.190860	0.911500	0.805740
C2271	C227	0.206560	0.958560	0.786980
C2281	C228	0.208980	0.989250	0.828440
H1761	H176	0.200870	0.980630	0.866330
C2291	C229	0.223630	0.032300	0.811410
H1771	H177	0.224170	0.052430	0.838030
C2301	C230	0.237440	0.046200	0.756200
C2311	C231	0.234980	0.015690	0.715610
H1781	H178	0.243270	0.024530	0.677930
C2321	C232	0.220040	0.971940	0.731460
H1791	H179	0.219170	0.951830	0.704630
C2331	C233	0.255900	0.093140	0.736550
C2341	C234	0.293530	0.112870	0.702620
H1801	H180	0.305870	0.096030	0.690530
H1811	H181	0.157770	0.056430	0.728930
H1821	H182	0.119970	0.082430	0.809730
O531	O53	0.858850	0.219900	0.099770
O541	O54	0.844500	0.234070	0.188760
C2351	C235	0.857520	0.244840	0.139080
C2361	C236	0.873220	0.291900	0.120320
C2371	C237	0.875640	0.322590	0.161780
H1831	H183	0.867530	0.313970	0.199670
C2381	C238	0.890290	0.365640	0.144750
H1841	H184	0.890830	0.385770	0.171370
C2391	C239	0.904100	0.379540	0.089540
C2401	C240	0.901640	0.349030	0.048950
H1851	H185	0.909930	0.357870	0.011270
C2411	C241	0.886700	0.305280	0.064800
H1861	H186	0.885830	0.285170	0.037970
C2421	C242	0.922560	0.426480	0.069890
C2431	C243	0.960190	0.446210	0.035960
H1871	H187	0.972530	0.429370	0.023870
H1881	H188	0.824430	0.389770	0.062270
H1891	H189	0.786630	0.415770	0.143070
O551	O55	0.972290	0.446770	0.566900
O561	O56	0.943770	0.432600	0.477910
C2441	C244	0.946020	0.421830	0.527590
C2451	C245	0.914660	0.374770	0.546350
C2461	C246	0.886390	0.344080	0.504890
H1901	H190	0.886900	0.352700	0.467000
C2471	C247	0.857990	0.301030	0.521920
H1911	H191	0.838400	0.280900	0.495300
C2481	C248	0.857900	0.287130	0.577130
C2491	C249	0.885950	0.317640	0.617720
H1921	H192	0.885400	0.308800	0.655400
C2501	C250	0.914760	0.361390	0.601870
H1931	H193	0.934000	0.381500	0.628700
C2511	C251	0.829420	0.240190	0.596780
C2521	C252	0.847320	0.220460	0.630710
H1941	H194	0.876500	0.237300	0.642800
H1951	H195	0.768000	0.276900	0.604400
H1961	H196	0.704200	0.250900	0.523600
O571	O57	0.638960	0.780100	0.900230
O581	O58	0.610440	0.765930	0.811240
C2531	C253	0.612690	0.755160	0.860920
C2541	C254	0.581330	0.708100	0.879680
C2551	C255	0.553060	0.677410	0.838220
H1971	H197	0.553570	0.686030	0.800330
C2561	C256	0.524660	0.634360	0.855250
H1981	H198	0.505070	0.614230	0.828630
C2571	C257	0.524570	0.620460	0.910460
C2581	C258	0.552620	0.650970	0.951050
H1991	H199	0.552070	0.642130	0.988730
C2591	C259	0.581430	0.694720	0.935200
H2001	H200	0.600670	0.714830	0.962030
C2601	C260	0.496090	0.573520	0.930110
C2611	C261	0.513990	0.553790	0.964040
H2011	H201	0.543170	0.570630	0.976130
H2021	H202	0.434670	0.610230	0.937730
H2031	H203	0.370870	0.584230	0.856930
O591	O59	0.305620	0.113440	0.233570
O601	O60	0.277100	0.099270	0.144580
C2621	C262	0.279350	0.088500	0.194260
C2631	C263	0.247990	0.041440	0.213020
C2641	C264	0.219720	0.010750	0.171560
H2041	H204	0.220230	0.019370	0.133670
C2651	C265	0.191320	0.967700	0.188590
H2051	H205	0.171730	0.947570	0.161970
C2661	C266	0.191230	0.953800	0.243800
C2671	C267	0.219280	0.984310	0.284390
H2061	H206	0.218730	0.975470	0.322070
C2681	C268	0.248090	0.028060	0.268540
H2071	H207	0.267330	0.048170	0.295370
C2691	C269	0.162750	0.906860	0.263450
C2701	C270	0.180650	0.887130	0.297380
H2081	H208	0.209830	0.903970	0.309470
H2091	H209	0.101330	0.943570	0.271070
H2101	H210	0.037530	0.917570	0.190270
O611	O61	0.474480	0.027710	0.566900
O621	O62	0.488830	0.056230	0.477910
C2711	C271	0.475810	0.053980	0.527590
C2721	C272	0.460110	0.085340	0.546350
C2731	C273	0.457690	0.113610	0.504890
H2111	H211	0.465800	0.113100	0.467000
C2741	C274	0.443040	0.142010	0.521920
H2121	H212	0.442500	0.161600	0.495300
C2751	C275	0.429230	0.142100	0.577130
C2761	C276	0.431690	0.114050	0.617720
H2131	H213	0.423400	0.114600	0.655400
C2771	C277	0.446630	0.085240	0.601870
H2141	H214	0.447500	0.066000	0.628700
C2781	C278	0.410770	0.170580	0.596780
C2791	C279	0.373140	0.152680	0.630710
H2151	H215	0.360800	0.123500	0.642800
H2161	H216	0.508900	0.232000	0.604400
H2171	H217	0.546700	0.295800	0.523600
O631	O63	0.141150	0.361040	0.900230
O641	O64	0.155500	0.389560	0.811240
C2801	C280	0.142480	0.387310	0.860920
C2811	C281	0.126780	0.418670	0.879680
C2821	C282	0.124360	0.446940	0.838220
H2181	H218	0.132470	0.446430	0.800330
C2831	C283	0.109710	0.475340	0.855250
H2191	H219	0.109170	0.494930	0.828630
C2841	C284	0.095900	0.475430	0.910460
C2851	C285	0.098360	0.447380	0.951050
H2201	H220	0.090070	0.447930	0.988730
C2861	C286	0.113300	0.418570	0.935200
H2211	H221	0.114170	0.399330	0.962030
C2871	C287	0.077440	0.503910	0.930110
C2881	C288	0.039810	0.486010	0.964040
H2221	H222	0.027470	0.456830	0.976130
H2231	H223	0.175570	0.565330	0.937730
H2241	H224	0.213370	0.629130	0.856930
O651	O65	0.807810	0.694380	0.233570
O661	O66	0.822160	0.722900	0.144580
C2891	C289	0.809140	0.720650	0.194260
C2901	C290	0.793440	0.752010	0.213020
C2911	C291	0.791020	0.780280	0.171560
H2251	H225	0.799130	0.779770	0.133670
C2921	C292	0.776370	0.808680	0.188590
H2261	H226	0.775830	0.828270	0.161970
C2931	C293	0.762560	0.808770	0.243800
C2941	C294	0.765020	0.780720	0.284390
H2271	H227	0.756730	0.781270	0.322070
C2951	C295	0.779960	0.751910	0.268540
H2281	H228	0.780830	0.732670	0.295370
C2961	C296	0.744100	0.837250	0.263450
C2971	C297	0.706470	0.819350	0.297380
H2291	H229	0.694130	0.790170	0.309470
H2301	H230	0.842230	0.898670	0.271070
H2311	H231	0.880030	0.962470	0.190270
O671	O67	0.553230	0.525520	0.566900
O681	O68	0.567400	0.511170	0.477910
C2981	C298	0.578170	0.524190	0.527590
C2991	C299	0.625230	0.539890	0.546350
C3001	C300	0.655920	0.542310	0.504890
H2321	H232	0.647300	0.534200	0.467000
C3011	C301	0.698970	0.556960	0.521920
H2331	H233	0.719100	0.557500	0.495300
C3021	C302	0.712870	0.570770	0.577130
C3031	C303	0.682360	0.568310	0.617720
H2341	H234	0.691200	0.576600	0.655400
C3041	C304	0.638610	0.553370	0.601870
H2351	H235	0.618500	0.552500	0.628700
C3051	C305	0.759810	0.589230	0.596780
C3061	C306	0.779540	0.626860	0.630710
H2361	H236	0.762700	0.639200	0.642800
H2371	H237	0.723100	0.491100	0.604400
H2381	H238	0.749100	0.453300	0.523600
O691	O69	0.219900	0.858850	0.900230
O701	O70	0.234070	0.844500	0.811240
C3071	C307	0.244840	0.857520	0.860920
C3081	C308	0.291900	0.873220	0.879680
C3091	C309	0.322590	0.875640	0.838220
H2391	H239	0.313970	0.867530	0.800330
C3101	C310	0.365640	0.890290	0.855250
H2401	H240	0.385770	0.890830	0.828630
C3111	C311	0.379540	0.904100	0.910460
C3121	C312	0.349030	0.901640	0.951050
H2411	H241	0.357870	0.909930	0.988730
C3131	C313	0.305280	0.886700	0.935200
H2421	H242	0.285170	0.885830	0.962030
C3141	C314	0.426480	0.922560	0.930110
C3151	C315	0.446210	0.960190	0.964040
H2431	H243	0.429370	0.972530	0.976130
H2441	H244	0.389770	0.824430	0.937730
H2451	H245	0.415770	0.786630	0.856930
O711	O71	0.886560	0.192190	0.233570
O721	O72	0.900730	0.177840	0.144580
C3161	C316	0.911500	0.190860	0.194260
C3171	C317	0.958560	0.206560	0.213020
C3181	C318	0.989250	0.208980	0.171560
H2461	H246	0.980630	0.200870	0.133670
C3191	C319	0.032300	0.223630	0.188590
H2471	H247	0.052430	0.224170	0.161970
C3201	C320	0.046200	0.237440	0.243800
C3211	C321	0.015690	0.234980	0.284390
H2481	H248	0.024530	0.243270	0.322070
C3221	C322	0.971940	0.220040	0.268540
H2491	H249	0.951830	0.219170	0.295370
C3231	C323	0.093140	0.255900	0.263450
C3241	C324	0.112870	0.293530	0.297380
H2501	H250	0.096030	0.305870	0.309470
H2511	H251	0.056430	0.157770	0.271070
H2521	H252	0.082430	0.119970	0.190270
Cu11	Cu1	0.508370	0.016740	0.447650
Cu21	Cu2	0.175040	0.350070	0.780980
Cu31	Cu3	0.841700	0.683410	0.114320
Cu41	Cu4	0.983260	0.491630	0.447650
Cu51	Cu5	0.649930	0.824960	0.780980
Cu61	Cu6	0.316590	0.158300	0.114320
Cu71	Cu7	0.508370	0.491630	0.447650
Cu81	Cu8	0.175040	0.824960	0.780980
Cu91	Cu9	0.841700	0.158300	0.114320
Cu101	Cu10	0.016740	0.508370	0.552350
Cu111	Cu11	0.683410	0.841700	0.885680
Cu121	Cu12	0.350070	0.175040	0.219020
Cu131	Cu13	0.491630	0.983260	0.552350
Cu141	Cu14	0.158300	0.316590	0.885680
Cu151	Cu15	0.824960	0.649930	0.219020
Cu161	Cu16	0.491630	0.508370	0.552350
Cu171	Cu17	0.158300	0.841700	0.885680
Cu181	Cu18	0.824960	0.175040	0.219020
O731	O73	0.766430	0.233570	0.544670
C3251	C325	0.823360	0.176640	0.647200
C3261	C326	0.785140	0.214860	0.580100
C3271	C327	0.745610	0.254390	0.579900
C3281	C328	0.726870	0.273130	0.547400
H2531	H253	0.714200	0.285800	0.572000
O741	O74	0.433100	0.566900	0.878000
C3291	C329	0.490030	0.509970	0.980530
C3301	C330	0.451810	0.548190	0.913430
C3311	C331	0.412280	0.587720	0.913230
C3321	C332	0.393540	0.606460	0.880730
H2541	H254	0.380870	0.619130	0.905330
O751	O75	0.099760	0.900240	0.211340
C3331	C333	0.156690	0.843310	0.313870
C3341	C334	0.118470	0.881530	0.246770
C3351	C335	0.078940	0.921060	0.246570
C3361	C336	0.060200	0.939800	0.214070
H2551	H255	0.047530	0.952470	0.238670
O761	O76	0.766430	0.532860	0.544670
C3371	C337	0.823360	0.646720	0.647200
C3381	C338	0.785140	0.570280	0.580100
C3391	C339	0.745610	0.491220	0.579900
C3401	C340	0.726870	0.453740	0.547400
H2561	H256	0.714200	0.428400	0.572000
O771	O77	0.433100	0.866190	0.878000
C3411	C341	0.490030	0.980050	0.980530
C3421	C342	0.451810	0.903610	0.913430
C3431	C343	0.412280	0.824550	0.913230
C3441	C344	0.393540	0.787070	0.880730
H2571	H257	0.380870	0.761730	0.905330
O781	O78	0.099760	0.199530	0.211340
C3451	C345	0.156690	0.313390	0.313870
C3461	C346	0.118470	0.236950	0.246770
C3471	C347	0.078940	0.157890	0.246570
C3481	C348	0.060200	0.120410	0.214070
H2581	H258	0.047530	0.095070	0.238670
O791	O79	0.467140	0.233570	0.544670
C3491	C349	0.353280	0.176640	0.647200
C3501	C350	0.429720	0.214860	0.580100
C3511	C351	0.508780	0.254390	0.579900
C3521	C352	0.546260	0.273130	0.547400
H2591	H259	0.571600	0.285800	0.572000
O801	O80	0.133810	0.566900	0.878000
C3531	C353	0.019950	0.509970	0.980530
C3541	C354	0.096390	0.548190	0.913430
C3551	C355	0.175450	0.587720	0.913230
C3561	C356	0.212930	0.606460	0.880730
H2601	H260	0.238270	0.619130	0.905330
O811	O81	0.800470	0.900240	0.211340
C3571	C357	0.686610	0.843310	0.313870
C3581	C358	0.763050	0.881530	0.246770
C3591	C359	0.842110	0.921060	0.246570
C3601	C360	0.879590	0.939800	0.214070
H2611	H261	0.904930	0.952470	0.238670
O821	O82	0.233570	0.766430	0.455330
C3611	C361	0.176640	0.823360	0.352800
C3621	C362	0.214860	0.785140	0.419900
C3631	C363	0.254390	0.745610	0.420100
C3641	C364	0.273130	0.726870	0.452600
H2621	H262	0.285800	0.714200	0.428000
O831	O83	0.900240	0.099760	0.788660
C3651	C365	0.843310	0.156690	0.686130
C3661	C366	0.881530	0.118470	0.753230
C3671	C367	0.921060	0.078940	0.753430
C3681	C368	0.939800	0.060200	0.785930
H2631	H263	0.952470	0.047530	0.761330
O841	O84	0.566900	0.433100	0.122000
C3691	C369	0.509970	0.490030	0.019470
C3701	C370	0.548190	0.451810	0.086570
C3711	C371	0.587720	0.412280	0.086770
C3721	C372	0.606460	0.393540	0.119270
H2641	H264	0.619130	0.380870	0.094670
O851	O85	0.532860	0.766430	0.455330
C3731	C373	0.646720	0.823360	0.352800
C3741	C374	0.570280	0.785140	0.419900
C3751	C375	0.491220	0.745610	0.420100
C3761	C376	0.453740	0.726870	0.452600
H2651	H265	0.428400	0.714200	0.428000
O861	O86	0.199530	0.099760	0.788660
C3771	C377	0.313390	0.156690	0.686130
C3781	C378	0.236950	0.118470	0.753230
C3791	C379	0.157890	0.078940	0.753430
C3801	C380	0.120410	0.060200	0.785930
H2661	H266	0.095070	0.047530	0.761330
O871	O87	0.866190	0.433100	0.122000
C3811	C381	0.980050	0.490030	0.019470
C3821	C382	0.903610	0.451810	0.086570
C3831	C383	0.824550	0.412280	0.086770
C3841	C384	0.787070	0.393540	0.119270
H2671	H267	0.761730	0.380870	0.094670
O881	O88	0.233570	0.467140	0.455330
C3851	C385	0.176640	0.353280	0.352800
C3861	C386	0.214860	0.429720	0.419900
C3871	C387	0.254390	0.508780	0.420100
C3881	C388	0.273130	0.546260	0.452600
H2681	H268	0.285800	0.571600	0.428000
O891	O89	0.900240	0.800470	0.788660
C3891	C389	0.843310	0.686610	0.686130
C3901	C390	0.881530	0.763050	0.753230
C3911	C391	0.921060	0.842110	0.753430
C3921	C392	0.939800	0.879590	0.785930
H2691	H269	0.952470	0.904930	0.761330
O901	O90	0.566900	0.133810	0.122000
C3931	C393	0.509970	0.019950	0.019470
C3941	C394	0.548190	0.096390	0.086570
C3951	C395	0.587720	0.175450	0.086770
C3961	C396	0.606460	0.212930	0.119270
H2701	H270	0.619130	0.238270	0.094670
