data_UMODEH17_clean_PM
_symmetry_space_group_name_H-M	'P1'
_cell_length_a	35.304000
_cell_length_b	35.304000
_cell_length_c	20.617100
_cell_angle_alpha	90.000000
_cell_angle_beta	90.000000
_cell_angle_gamma	120.000000
_symmetry_Int_Tables_number 1

loop_
_symmetry_equiv_pos_as_xyz
'x,y,z'

loop_
_atom_site_label
_atom_site_type_symbol
_atom_site_fract_x
_atom_site_fract_y
_atom_site_fract_z
O11	O1	0.636490	0.779360	0.406660
O21	O2	0.611590	0.766950	0.302910
C11	C1	0.612190	0.755640	0.361110
C21	C2	0.579900	0.708780	0.378490
C31	C3	0.552870	0.679280	0.331580
H11	H1	0.554100	0.688700	0.289100
C41	C4	0.524420	0.636530	0.347250
H21	H2	0.506100	0.617500	0.315500
C51	C5	0.522510	0.621120	0.409450
C61	C6	0.549150	0.650510	0.457300
H31	H3	0.547900	0.641200	0.499800
C71	C7	0.577800	0.694260	0.440380
H41	H4	0.595700	0.713800	0.472000
C81	C8	0.494580	0.574050	0.426930
C91	C9	0.512990	0.553850	0.463700
H51	H5	0.542300	0.570400	0.475500
H61	H6	0.433900	0.610900	0.433500
H71	H7	0.375200	0.580400	0.324000
O31	O3	0.303160	0.112690	0.739990
O41	O4	0.278260	0.100280	0.636240
C101	C10	0.278860	0.088970	0.694440
C111	C11	0.246570	0.042110	0.711820
C121	C12	0.219540	0.012610	0.664910
H81	H8	0.220770	0.022030	0.622430
C131	C13	0.191090	0.969860	0.680580
H91	H9	0.172770	0.950830	0.648830
C141	C14	0.189180	0.954450	0.742780
C151	C15	0.215820	0.983840	0.790630
H101	H10	0.214570	0.974530	0.833130
C161	C16	0.244470	0.027590	0.773710
H111	H11	0.262370	0.047130	0.805330
C171	C17	0.161250	0.907380	0.760260
C181	C18	0.179660	0.887180	0.797030
H121	H12	0.208970	0.903730	0.808830
H131	H13	0.100570	0.944230	0.766830
H141	H14	0.041870	0.913730	0.657330
O51	O5	0.969820	0.446030	0.073330
O61	O6	0.944920	0.433620	0.969580
C191	C19	0.945520	0.422310	0.027780
C201	C20	0.913230	0.375450	0.045160
C211	C21	0.886200	0.345950	0.998250
H151	H15	0.887430	0.355370	0.955770
C221	C22	0.857750	0.303200	0.013920
H161	H16	0.839430	0.284170	0.982170
C231	C23	0.855840	0.287790	0.076120
C241	C24	0.882480	0.317180	0.123970
H171	H17	0.881230	0.307870	0.166470
C251	C25	0.911130	0.360930	0.107050
H181	H18	0.929030	0.380470	0.138670
C261	C26	0.827910	0.240720	0.093600
C271	C27	0.846320	0.220520	0.130370
H191	H19	0.875630	0.237070	0.142170
H201	H20	0.767230	0.277570	0.100170
H211	H21	0.708530	0.247070	0.990670
O71	O7	0.220640	0.857130	0.406660
O81	O8	0.233050	0.844640	0.302910
C281	C28	0.244360	0.856550	0.361110
C291	C29	0.291220	0.871120	0.378490
C301	C30	0.320720	0.873590	0.331580
H221	H22	0.311300	0.865400	0.289100
C311	C31	0.363470	0.887890	0.347250
H231	H23	0.382500	0.888600	0.315500
C321	C32	0.378880	0.901390	0.409450
C331	C33	0.349490	0.898640	0.457300
H241	H24	0.358800	0.906700	0.499800
C341	C34	0.305740	0.883540	0.440380
H251	H25	0.286200	0.881900	0.472000
C351	C35	0.425950	0.920530	0.426930
C361	C36	0.446150	0.959140	0.463700
H261	H26	0.429600	0.971900	0.475500
H271	H27	0.389100	0.823000	0.433500
H281	H28	0.419600	0.794800	0.324000
O91	O9	0.887310	0.190460	0.739990
O101	O10	0.899720	0.177970	0.636240
C371	C37	0.911030	0.189880	0.694440
C381	C38	0.957890	0.204450	0.711820
C391	C39	0.987390	0.206920	0.664910
H291	H29	0.977970	0.198730	0.622430
C401	C40	0.030140	0.221220	0.680580
H301	H30	0.049170	0.221930	0.648830
C411	C41	0.045550	0.234720	0.742780
C421	C42	0.016160	0.231970	0.790630
H311	H31	0.025470	0.240030	0.833130
C431	C43	0.972410	0.216870	0.773710
H321	H32	0.952870	0.215230	0.805330
C441	C44	0.092620	0.253860	0.760260
C451	C45	0.112820	0.292470	0.797030
H331	H33	0.096270	0.305230	0.808830
H341	H34	0.055770	0.156330	0.766830
H351	H35	0.086270	0.128130	0.657330
O111	O11	0.553970	0.523800	0.073330
O121	O12	0.566380	0.511310	0.969580
C461	C46	0.577690	0.523220	0.027780
C471	C47	0.624550	0.537790	0.045160
C481	C48	0.654050	0.540260	0.998250
H361	H36	0.644630	0.532070	0.955770
C491	C49	0.696800	0.554560	0.013920
H371	H37	0.715830	0.555270	0.982170
C501	C50	0.712210	0.568060	0.076120
C511	C51	0.682820	0.565310	0.123970
H381	H38	0.692130	0.573370	0.166470
C521	C52	0.639070	0.550210	0.107050
H391	H39	0.619530	0.548570	0.138670
C531	C53	0.759280	0.587200	0.093600
C541	C54	0.779480	0.625810	0.130370
H401	H40	0.762930	0.638570	0.142170
H411	H41	0.722430	0.489670	0.100170
H421	H42	0.752930	0.461470	0.990670
O131	O13	0.142870	0.363510	0.406660
O141	O14	0.155360	0.388410	0.302910
C551	C55	0.143450	0.387810	0.361110
C561	C56	0.128880	0.420100	0.378490
C571	C57	0.126410	0.447130	0.331580
H431	H43	0.134600	0.445900	0.289100
C581	C58	0.112110	0.475580	0.347250
H441	H44	0.111400	0.493900	0.315500
C591	C59	0.098610	0.477490	0.409450
C601	C60	0.101360	0.450850	0.457300
H451	H45	0.093300	0.452100	0.499800
C611	C61	0.116460	0.422200	0.440380
H461	H46	0.118100	0.404300	0.472000
C621	C62	0.079470	0.505420	0.426930
C631	C63	0.040860	0.487010	0.463700
H471	H47	0.028100	0.457700	0.475500
H481	H48	0.177000	0.566100	0.433500
H491	H49	0.205200	0.624800	0.324000
O151	O15	0.809540	0.696840	0.739990
O161	O16	0.822030	0.721740	0.636240
C641	C64	0.810120	0.721140	0.694440
C651	C65	0.795550	0.753430	0.711820
C661	C66	0.793080	0.780460	0.664910
H501	H50	0.801270	0.779230	0.622430
C671	C67	0.778780	0.808910	0.680580
H511	H51	0.778070	0.827230	0.648830
C681	C68	0.765280	0.810820	0.742780
C691	C69	0.768030	0.784180	0.790630
H521	H52	0.759970	0.785430	0.833130
C701	C70	0.783130	0.755530	0.773710
H531	H53	0.784770	0.737630	0.805330
C711	C71	0.746140	0.838750	0.760260
C721	C72	0.707530	0.820340	0.797030
H541	H54	0.694770	0.791030	0.808830
H551	H55	0.843670	0.899430	0.766830
H561	H56	0.871870	0.958130	0.657330
O171	O17	0.476200	0.030180	0.073330
O181	O18	0.488690	0.055080	0.969580
C731	C73	0.476780	0.054480	0.027780
C741	C74	0.462210	0.086770	0.045160
C751	C75	0.459740	0.113800	0.998250
H571	H57	0.467930	0.112570	0.955770
C761	C76	0.445440	0.142250	0.013920
H581	H58	0.444730	0.160570	0.982170
C771	C77	0.431940	0.144160	0.076120
C781	C78	0.434690	0.117520	0.123970
H591	H59	0.426630	0.118770	0.166470
C791	C79	0.449790	0.088870	0.107050
H601	H60	0.451430	0.070970	0.138670
C801	C80	0.412800	0.172090	0.093600
C811	C81	0.374190	0.153680	0.130370
H611	H61	0.361430	0.124370	0.142170
H621	H62	0.510330	0.232770	0.100170
H631	H63	0.538530	0.291470	0.990670
O191	O19	0.779360	0.636490	0.593340
O201	O20	0.766950	0.611590	0.697090
C821	C82	0.755640	0.612190	0.638890
C831	C83	0.708780	0.579900	0.621510
C841	C84	0.679280	0.552870	0.668420
H641	H64	0.688700	0.554100	0.710900
C851	C85	0.636530	0.524420	0.652750
H651	H65	0.617500	0.506100	0.684500
C861	C86	0.621120	0.522510	0.590550
C871	C87	0.650510	0.549150	0.542700
H661	H66	0.641200	0.547900	0.500200
C881	C88	0.694260	0.577800	0.559620
H671	H67	0.713800	0.595700	0.528000
C891	C89	0.574050	0.494580	0.573070
C901	C90	0.553850	0.512990	0.536300
H681	H68	0.570400	0.542300	0.524500
H691	H69	0.610900	0.433900	0.566500
H701	H70	0.580400	0.375200	0.676000
O211	O21	0.446030	0.969820	0.926670
O221	O22	0.433620	0.944920	0.030420
C911	C91	0.422310	0.945520	0.972220
C921	C92	0.375450	0.913230	0.954840
C931	C93	0.345950	0.886200	0.001750
H711	H71	0.355370	0.887430	0.044230
C941	C94	0.303200	0.857750	0.986080
H721	H72	0.284170	0.839430	0.017830
C951	C95	0.287790	0.855840	0.923880
C961	C96	0.317180	0.882480	0.876030
H731	H73	0.307870	0.881230	0.833530
C971	C97	0.360930	0.911130	0.892950
H741	H74	0.380470	0.929030	0.861330
C981	C98	0.240720	0.827910	0.906400
C991	C99	0.220520	0.846320	0.869630
H751	H75	0.237070	0.875630	0.857830
H761	H76	0.277570	0.767230	0.899830
H771	H77	0.247070	0.708530	0.009330
O231	O23	0.112690	0.303160	0.260010
O241	O24	0.100280	0.278260	0.363760
C1001	C100	0.088970	0.278860	0.305560
C1011	C101	0.042110	0.246570	0.288180
C1021	C102	0.012610	0.219540	0.335090
H781	H78	0.022030	0.220770	0.377570
C1031	C103	0.969860	0.191090	0.319420
H791	H79	0.950830	0.172770	0.351170
C1041	C104	0.954450	0.189180	0.257220
C1051	C105	0.983840	0.215820	0.209370
H801	H80	0.974530	0.214570	0.166870
C1061	C106	0.027590	0.244470	0.226290
H811	H81	0.047130	0.262370	0.194670
C1071	C107	0.907380	0.161250	0.239740
C1081	C108	0.887180	0.179660	0.202970
H821	H82	0.903730	0.208970	0.191170
H831	H83	0.944230	0.100570	0.233170
H841	H84	0.913730	0.041870	0.342670
O251	O25	0.857130	0.220640	0.593340
O261	O26	0.844640	0.233050	0.697090
C1091	C109	0.856550	0.244360	0.638890
C1101	C110	0.871120	0.291220	0.621510
C1111	C111	0.873590	0.320720	0.668420
H851	H85	0.865400	0.311300	0.710900
C1121	C112	0.887890	0.363470	0.652750
H861	H86	0.888600	0.382500	0.684500
C1131	C113	0.901390	0.378880	0.590550
C1141	C114	0.898640	0.349490	0.542700
H871	H87	0.906700	0.358800	0.500200
C1151	C115	0.883540	0.305740	0.559620
H881	H88	0.881900	0.286200	0.528000
C1161	C116	0.920530	0.425950	0.573070
C1171	C117	0.959140	0.446150	0.536300
H891	H89	0.971900	0.429600	0.524500
H901	H90	0.823000	0.389100	0.566500
H911	H91	0.794800	0.419600	0.676000
O271	O27	0.523800	0.553970	0.926670
O281	O28	0.511310	0.566380	0.030420
C1181	C118	0.523220	0.577690	0.972220
C1191	C119	0.537790	0.624550	0.954840
C1201	C120	0.540260	0.654050	0.001750
H921	H92	0.532070	0.644630	0.044230
C1211	C121	0.554560	0.696800	0.986080
H931	H93	0.555270	0.715830	0.017830
C1221	C122	0.568060	0.712210	0.923880
C1231	C123	0.565310	0.682820	0.876030
H941	H94	0.573370	0.692130	0.833530
C1241	C124	0.550210	0.639070	0.892950
H951	H95	0.548570	0.619530	0.861330
C1251	C125	0.587200	0.759280	0.906400
C1261	C126	0.625810	0.779480	0.869630
H961	H96	0.638570	0.762930	0.857830
H971	H97	0.489670	0.722430	0.899830
H981	H98	0.461470	0.752930	0.009330
O291	O29	0.190460	0.887310	0.260010
O301	O30	0.177970	0.899720	0.363760
C1271	C127	0.189880	0.911030	0.305560
C1281	C128	0.204450	0.957890	0.288180
C1291	C129	0.206920	0.987390	0.335090
H991	H99	0.198730	0.977970	0.377570
C1301	C130	0.221220	0.030140	0.319420
H1001	H100	0.221930	0.049170	0.351170
C1311	C131	0.234720	0.045550	0.257220
C1321	C132	0.231970	0.016160	0.209370
H1011	H101	0.240030	0.025470	0.166870
C1331	C133	0.216870	0.972410	0.226290
H1021	H102	0.215230	0.952870	0.194670
C1341	C134	0.253860	0.092620	0.239740
C1351	C135	0.292470	0.112820	0.202970
H1031	H103	0.305230	0.096270	0.191170
H1041	H104	0.156330	0.055770	0.233170
H1051	H105	0.128130	0.086270	0.342670
O311	O31	0.363510	0.142870	0.593340
O321	O32	0.388410	0.155360	0.697090
C1361	C136	0.387810	0.143450	0.638890
C1371	C137	0.420100	0.128880	0.621510
C1381	C138	0.447130	0.126410	0.668420
H1061	H106	0.445900	0.134600	0.710900
C1391	C139	0.475580	0.112110	0.652750
H1071	H107	0.493900	0.111400	0.684500
C1401	C140	0.477490	0.098610	0.590550
C1411	C141	0.450850	0.101360	0.542700
H1081	H108	0.452100	0.093300	0.500200
C1421	C142	0.422200	0.116460	0.559620
H1091	H109	0.404300	0.118100	0.528000
C1431	C143	0.505420	0.079470	0.573070
C1441	C144	0.487010	0.040860	0.536300
H1101	H110	0.457700	0.028100	0.524500
H1111	H111	0.566100	0.177000	0.566500
H1121	H112	0.624800	0.205200	0.676000
O331	O33	0.030180	0.476200	0.926670
O341	O34	0.055080	0.488690	0.030420
C1451	C145	0.054480	0.476780	0.972220
C1461	C146	0.086770	0.462210	0.954840
C1471	C147	0.113800	0.459740	0.001750
H1131	H113	0.112570	0.467930	0.044230
C1481	C148	0.142250	0.445440	0.986080
H1141	H114	0.160570	0.444730	0.017830
C1491	C149	0.144160	0.431940	0.923880
C1501	C150	0.117520	0.434690	0.876030
H1151	H115	0.118770	0.426630	0.833530
C1511	C151	0.088870	0.449790	0.892950
H1161	H116	0.070970	0.451430	0.861330
C1521	C152	0.172090	0.412800	0.906400
C1531	C153	0.153680	0.374190	0.869630
H1171	H117	0.124370	0.361430	0.857830
H1181	H118	0.232770	0.510330	0.899830
H1191	H119	0.291470	0.538530	0.009330
O351	O35	0.696840	0.809540	0.260010
O361	O36	0.721740	0.822030	0.363760
C1541	C154	0.721140	0.810120	0.305560
C1551	C155	0.753430	0.795550	0.288180
C1561	C156	0.780460	0.793080	0.335090
H1201	H120	0.779230	0.801270	0.377570
C1571	C157	0.808910	0.778780	0.319420
H1211	H121	0.827230	0.778070	0.351170
C1581	C158	0.810820	0.765280	0.257220
C1591	C159	0.784180	0.768030	0.209370
H1221	H122	0.785430	0.759970	0.166870
C1601	C160	0.755530	0.783130	0.226290
H1231	H123	0.737630	0.784770	0.194670
C1611	C161	0.838750	0.746140	0.239740
C1621	C162	0.820340	0.707530	0.202970
H1241	H124	0.791030	0.694770	0.191170
H1251	H125	0.899430	0.843670	0.233170
H1261	H126	0.958130	0.871870	0.342670
O371	O37	0.363510	0.220640	0.593340
O381	O38	0.388410	0.233050	0.697090
C1631	C163	0.387810	0.244360	0.638890
C1641	C164	0.420100	0.291220	0.621510
C1651	C165	0.447130	0.320720	0.668420
H1271	H127	0.445900	0.311300	0.710900
C1661	C166	0.475580	0.363470	0.652750
H1281	H128	0.493900	0.382500	0.684500
C1671	C167	0.477490	0.378880	0.590550
C1681	C168	0.450850	0.349490	0.542700
H1291	H129	0.452100	0.358800	0.500200
C1691	C169	0.422200	0.305740	0.559620
H1301	H130	0.404300	0.286200	0.528000
C1701	C170	0.505420	0.425950	0.573070
C1711	C171	0.487010	0.446150	0.536300
H1311	H131	0.457700	0.429600	0.524500
H1321	H132	0.566100	0.389100	0.566500
H1331	H133	0.624800	0.419600	0.676000
O391	O39	0.030180	0.553970	0.926670
O401	O40	0.055080	0.566380	0.030420
C1721	C172	0.054480	0.577690	0.972220
C1731	C173	0.086770	0.624550	0.954840
C1741	C174	0.113800	0.654050	0.001750
H1341	H134	0.112570	0.644630	0.044230
C1751	C175	0.142250	0.696800	0.986080
H1351	H135	0.160570	0.715830	0.017830
C1761	C176	0.144160	0.712210	0.923880
C1771	C177	0.117520	0.682820	0.876030
H1361	H136	0.118770	0.692130	0.833530
C1781	C178	0.088870	0.639070	0.892950
H1371	H137	0.070970	0.619530	0.861330
C1791	C179	0.172090	0.759280	0.906400
C1801	C180	0.153680	0.779480	0.869630
H1381	H138	0.124370	0.762930	0.857830
H1391	H139	0.232770	0.722430	0.899830
H1401	H140	0.291470	0.752930	0.009330
O411	O41	0.696840	0.887310	0.260010
O421	O42	0.721740	0.899720	0.363760
C1811	C181	0.721140	0.911030	0.305560
C1821	C182	0.753430	0.957890	0.288180
C1831	C183	0.780460	0.987390	0.335090
H1411	H141	0.779230	0.977970	0.377570
C1841	C184	0.808910	0.030140	0.319420
H1421	H142	0.827230	0.049170	0.351170
C1851	C185	0.810820	0.045550	0.257220
C1861	C186	0.784180	0.016160	0.209370
H1431	H143	0.785430	0.025470	0.166870
C1871	C187	0.755530	0.972410	0.226290
H1441	H144	0.737630	0.952870	0.194670
C1881	C188	0.838750	0.092620	0.239740
C1891	C189	0.820340	0.112820	0.202970
H1451	H145	0.791030	0.096270	0.191170
H1461	H146	0.899430	0.055770	0.233170
H1471	H147	0.958130	0.086270	0.342670
O431	O43	0.779360	0.142870	0.593340
O441	O44	0.766950	0.155360	0.697090
C1901	C190	0.755640	0.143450	0.638890
C1911	C191	0.708780	0.128880	0.621510
C1921	C192	0.679280	0.126410	0.668420
H1481	H148	0.688700	0.134600	0.710900
C1931	C193	0.636530	0.112110	0.652750
H1491	H149	0.617500	0.111400	0.684500
C1941	C194	0.621120	0.098610	0.590550
C1951	C195	0.650510	0.101360	0.542700
H1501	H150	0.641200	0.093300	0.500200
C1961	C196	0.694260	0.116460	0.559620
H1511	H151	0.713800	0.118100	0.528000
C1971	C197	0.574050	0.079470	0.573070
C1981	C198	0.553850	0.040860	0.536300
H1521	H152	0.570400	0.028100	0.524500
H1531	H153	0.610900	0.177000	0.566500
H1541	H154	0.580400	0.205200	0.676000
O451	O45	0.446030	0.476200	0.926670
O461	O46	0.433620	0.488690	0.030420
C1991	C199	0.422310	0.476780	0.972220
C2001	C200	0.375450	0.462210	0.954840
C2011	C201	0.345950	0.459740	0.001750
H1551	H155	0.355370	0.467930	0.044230
C2021	C202	0.303200	0.445440	0.986080
H1561	H156	0.284170	0.444730	0.017830
C2031	C203	0.287790	0.431940	0.923880
C2041	C204	0.317180	0.434690	0.876030
H1571	H157	0.307870	0.426630	0.833530
C2051	C205	0.360930	0.449790	0.892950
H1581	H158	0.380470	0.451430	0.861330
C2061	C206	0.240720	0.412800	0.906400
C2071	C207	0.220520	0.374190	0.869630
H1591	H159	0.237070	0.361430	0.857830
H1601	H160	0.277570	0.510330	0.899830
H1611	H161	0.247070	0.538530	0.009330
O471	O47	0.112690	0.809540	0.260010
O481	O48	0.100280	0.822030	0.363760
C2081	C208	0.088970	0.810120	0.305560
C2091	C209	0.042110	0.795550	0.288180
C2101	C210	0.012610	0.793080	0.335090
H1621	H162	0.022030	0.801270	0.377570
C2111	C211	0.969860	0.778780	0.319420
H1631	H163	0.950830	0.778070	0.351170
C2121	C212	0.954450	0.765280	0.257220
C2131	C213	0.983840	0.768030	0.209370
H1641	H164	0.974530	0.759970	0.166870
C2141	C214	0.027590	0.783130	0.226290
H1651	H165	0.047130	0.784770	0.194670
C2151	C215	0.907380	0.746140	0.239740
C2161	C216	0.887180	0.707530	0.202970
H1661	H166	0.903730	0.694770	0.191170
H1671	H167	0.944230	0.843670	0.233170
H1681	H168	0.913730	0.871870	0.342670
O491	O49	0.857130	0.636490	0.593340
O501	O50	0.844640	0.611590	0.697090
C2171	C217	0.856550	0.612190	0.638890
C2181	C218	0.871120	0.579900	0.621510
C2191	C219	0.873590	0.552870	0.668420
H1691	H169	0.865400	0.554100	0.710900
C2201	C220	0.887890	0.524420	0.652750
H1701	H170	0.888600	0.506100	0.684500
C2211	C221	0.901390	0.522510	0.590550
C2221	C222	0.898640	0.549150	0.542700
H1711	H171	0.906700	0.547900	0.500200
C2231	C223	0.883540	0.577800	0.559620
H1721	H172	0.881900	0.595700	0.528000
C2241	C224	0.920530	0.494580	0.573070
C2251	C225	0.959140	0.512990	0.536300
H1731	H173	0.971900	0.542300	0.524500
H1741	H174	0.823000	0.433900	0.566500
H1751	H175	0.794800	0.375200	0.676000
O511	O51	0.523800	0.969820	0.926670
O521	O52	0.511310	0.944920	0.030420
C2261	C226	0.523220	0.945520	0.972220
C2271	C227	0.537790	0.913230	0.954840
C2281	C228	0.540260	0.886200	0.001750
H1761	H176	0.532070	0.887430	0.044230
C2291	C229	0.554560	0.857750	0.986080
H1771	H177	0.555270	0.839430	0.017830
C2301	C230	0.568060	0.855840	0.923880
C2311	C231	0.565310	0.882480	0.876030
H1781	H178	0.573370	0.881230	0.833530
C2321	C232	0.550210	0.911130	0.892950
H1791	H179	0.548570	0.929030	0.861330
C2331	C233	0.587200	0.827910	0.906400
C2341	C234	0.625810	0.846320	0.869630
H1801	H180	0.638570	0.875630	0.857830
H1811	H181	0.489670	0.767230	0.899830
H1821	H182	0.461470	0.708530	0.009330
O531	O53	0.190460	0.303160	0.260010
O541	O54	0.177970	0.278260	0.363760
C2351	C235	0.189880	0.278860	0.305560
C2361	C236	0.204450	0.246570	0.288180
C2371	C237	0.206920	0.219540	0.335090
H1831	H183	0.198730	0.220770	0.377570
C2381	C238	0.221220	0.191090	0.319420
H1841	H184	0.221930	0.172770	0.351170
C2391	C239	0.234720	0.189180	0.257220
C2401	C240	0.231970	0.215820	0.209370
H1851	H185	0.240030	0.214570	0.166870
C2411	C241	0.216870	0.244470	0.226290
H1861	H186	0.215230	0.262370	0.194670
C2421	C242	0.253860	0.161250	0.239740
C2431	C243	0.292470	0.179660	0.202970
H1871	H187	0.305230	0.208970	0.191170
H1881	H188	0.156330	0.100570	0.233170
H1891	H189	0.128130	0.041870	0.342670
O551	O55	0.220640	0.363510	0.406660
O561	O56	0.233050	0.388410	0.302910
C2441	C244	0.244360	0.387810	0.361110
C2451	C245	0.291220	0.420100	0.378490
C2461	C246	0.320720	0.447130	0.331580
H1901	H190	0.311300	0.445900	0.289100
C2471	C247	0.363470	0.475580	0.347250
H1911	H191	0.382500	0.493900	0.315500
C2481	C248	0.378880	0.477490	0.409450
C2491	C249	0.349490	0.450850	0.457300
H1921	H192	0.358800	0.452100	0.499800
C2501	C250	0.305740	0.422200	0.440380
H1931	H193	0.286200	0.404300	0.472000
C2511	C251	0.425950	0.505420	0.426930
C2521	C252	0.446150	0.487010	0.463700
H1941	H194	0.429600	0.457700	0.475500
H1951	H195	0.389100	0.566100	0.433500
H1961	H196	0.419600	0.624800	0.324000
O571	O57	0.887310	0.696840	0.739990
O581	O58	0.899720	0.721740	0.636240
C2531	C253	0.911030	0.721140	0.694440
C2541	C254	0.957890	0.753430	0.711820
C2551	C255	0.987390	0.780460	0.664910
H1971	H197	0.977970	0.779230	0.622430
C2561	C256	0.030140	0.808910	0.680580
H1981	H198	0.049170	0.827230	0.648830
C2571	C257	0.045550	0.810820	0.742780
C2581	C258	0.016160	0.784180	0.790630
H1991	H199	0.025470	0.785430	0.833130
C2591	C259	0.972410	0.755530	0.773710
H2001	H200	0.952870	0.737630	0.805330
C2601	C260	0.092620	0.838750	0.760260
C2611	C261	0.112820	0.820340	0.797030
H2011	H201	0.096270	0.791030	0.808830
H2021	H202	0.055770	0.899430	0.766830
H2031	H203	0.086270	0.958130	0.657330
O591	O59	0.553970	0.030180	0.073330
O601	O60	0.566380	0.055080	0.969580
C2621	C262	0.577690	0.054480	0.027780
C2631	C263	0.624550	0.086770	0.045160
C2641	C264	0.654050	0.113800	0.998250
H2041	H204	0.644630	0.112570	0.955770
C2651	C265	0.696800	0.142250	0.013920
H2051	H205	0.715830	0.160570	0.982170
C2661	C266	0.712210	0.144160	0.076120
C2671	C267	0.682820	0.117520	0.123970
H2061	H206	0.692130	0.118770	0.166470
C2681	C268	0.639070	0.088870	0.107050
H2071	H207	0.619530	0.070970	0.138670
C2691	C269	0.759280	0.172090	0.093600
C2701	C270	0.779480	0.153680	0.130370
H2081	H208	0.762930	0.124370	0.142170
H2091	H209	0.722430	0.232770	0.100170
H2101	H210	0.752930	0.291470	0.990670
O611	O61	0.142870	0.779360	0.406660
O621	O62	0.155360	0.766950	0.302910
C2711	C271	0.143450	0.755640	0.361110
C2721	C272	0.128880	0.708780	0.378490
C2731	C273	0.126410	0.679280	0.331580
H2111	H211	0.134600	0.688700	0.289100
C2741	C274	0.112110	0.636530	0.347250
H2121	H212	0.111400	0.617500	0.315500
C2751	C275	0.098610	0.621120	0.409450
C2761	C276	0.101360	0.650510	0.457300
H2131	H213	0.093300	0.641200	0.499800
C2771	C277	0.116460	0.694260	0.440380
H2141	H214	0.118100	0.713800	0.472000
C2781	C278	0.079470	0.574050	0.426930
C2791	C279	0.040860	0.553850	0.463700
H2151	H215	0.028100	0.570400	0.475500
H2161	H216	0.177000	0.610900	0.433500
H2171	H217	0.205200	0.580400	0.324000
O631	O63	0.809540	0.112690	0.739990
O641	O64	0.822030	0.100280	0.636240
C2801	C280	0.810120	0.088970	0.694440
C2811	C281	0.795550	0.042110	0.711820
C2821	C282	0.793080	0.012610	0.664910
H2181	H218	0.801270	0.022030	0.622430
C2831	C283	0.778780	0.969860	0.680580
H2191	H219	0.778070	0.950830	0.648830
C2841	C284	0.765280	0.954450	0.742780
C2851	C285	0.768030	0.983840	0.790630
H2201	H220	0.759970	0.974530	0.833130
C2861	C286	0.783130	0.027590	0.773710
H2211	H221	0.784770	0.047130	0.805330
C2871	C287	0.746140	0.907380	0.760260
C2881	C288	0.707530	0.887180	0.797030
H2221	H222	0.694770	0.903730	0.808830
H2231	H223	0.843670	0.944230	0.766830
H2241	H224	0.871870	0.913730	0.657330
O651	O65	0.476200	0.446030	0.073330
O661	O66	0.488690	0.433620	0.969580
C2891	C289	0.476780	0.422310	0.027780
C2901	C290	0.462210	0.375450	0.045160
C2911	C291	0.459740	0.345950	0.998250
H2251	H225	0.467930	0.355370	0.955770
C2921	C292	0.445440	0.303200	0.013920
H2261	H226	0.444730	0.284170	0.982170
C2931	C293	0.431940	0.287790	0.076120
C2941	C294	0.434690	0.317180	0.123970
H2271	H227	0.426630	0.307870	0.166470
C2951	C295	0.449790	0.360930	0.107050
H2281	H228	0.451430	0.380470	0.138670
C2961	C296	0.412800	0.240720	0.093600
C2971	C297	0.374190	0.220520	0.130370
H2291	H229	0.361430	0.237070	0.142170
H2301	H230	0.510330	0.277570	0.100170
H2311	H231	0.538530	0.247070	0.990670
O671	O67	0.636490	0.857130	0.406660
O681	O68	0.611590	0.844640	0.302910
C2981	C298	0.612190	0.856550	0.361110
C2991	C299	0.579900	0.871120	0.378490
C3001	C300	0.552870	0.873590	0.331580
H2321	H232	0.554100	0.865400	0.289100
C3011	C301	0.524420	0.887890	0.347250
H2331	H233	0.506100	0.888600	0.315500
C3021	C302	0.522510	0.901390	0.409450
C3031	C303	0.549150	0.898640	0.457300
H2341	H234	0.547900	0.906700	0.499800
C3041	C304	0.577800	0.883540	0.440380
H2351	H235	0.595700	0.881900	0.472000
C3051	C305	0.494580	0.920530	0.426930
C3061	C306	0.512990	0.959140	0.463700
H2361	H236	0.542300	0.971900	0.475500
H2371	H237	0.433900	0.823000	0.433500
H2381	H238	0.375200	0.794800	0.324000
O691	O69	0.303160	0.190460	0.739990
O701	O70	0.278260	0.177970	0.636240
C3071	C307	0.278860	0.189880	0.694440
C3081	C308	0.246570	0.204450	0.711820
C3091	C309	0.219540	0.206920	0.664910
H2391	H239	0.220770	0.198730	0.622430
C3101	C310	0.191090	0.221220	0.680580
H2401	H240	0.172770	0.221930	0.648830
C3111	C311	0.189180	0.234720	0.742780
C3121	C312	0.215820	0.231970	0.790630
H2411	H241	0.214570	0.240030	0.833130
C3131	C313	0.244470	0.216870	0.773710
H2421	H242	0.262370	0.215230	0.805330
C3141	C314	0.161250	0.253860	0.760260
C3151	C315	0.179660	0.292470	0.797030
H2431	H243	0.208970	0.305230	0.808830
H2441	H244	0.100570	0.156330	0.766830
H2451	H245	0.041870	0.128130	0.657330
O711	O71	0.969820	0.523800	0.073330
O721	O72	0.944920	0.511310	0.969580
C3161	C316	0.945520	0.523220	0.027780
C3171	C317	0.913230	0.537790	0.045160
C3181	C318	0.886200	0.540260	0.998250
H2461	H246	0.887430	0.532070	0.955770
C3191	C319	0.857750	0.554560	0.013920
H2471	H247	0.839430	0.555270	0.982170
C3201	C320	0.855840	0.568060	0.076120
C3211	C321	0.882480	0.565310	0.123970
H2481	H248	0.881230	0.573370	0.166470
C3221	C322	0.911130	0.550210	0.107050
H2491	H249	0.929030	0.548570	0.138670
C3231	C323	0.827910	0.587200	0.093600
C3241	C324	0.846320	0.625810	0.130370
H2501	H250	0.875630	0.638570	0.142170
H2511	H251	0.767230	0.489670	0.100170
H2521	H252	0.708530	0.461470	0.990670
Cu11	Cu1	0.680890	0.840450	0.392850
Cu21	Cu2	0.347560	0.173780	0.726180
Cu31	Cu3	0.014220	0.507110	0.059520
Cu41	Cu4	0.159550	0.840450	0.392850
Cu51	Cu5	0.826220	0.173780	0.726180
Cu61	Cu6	0.492890	0.507110	0.059520
Cu71	Cu7	0.159550	0.319110	0.392850
Cu81	Cu8	0.826220	0.652440	0.726180
Cu91	Cu9	0.492890	0.985780	0.059520
Cu101	Cu10	0.840450	0.680890	0.607150
Cu111	Cu11	0.507110	0.014220	0.940480
Cu121	Cu12	0.173780	0.347560	0.273820
Cu131	Cu13	0.840450	0.159550	0.607150
Cu141	Cu14	0.507110	0.492890	0.940480
Cu151	Cu15	0.173780	0.826220	0.273820
Cu161	Cu16	0.319110	0.159550	0.607150
Cu171	Cu17	0.985780	0.492890	0.940480
Cu181	Cu18	0.652440	0.826220	0.273820
O731	O73	0.432330	0.567670	0.370200
C3251	C325	0.489640	0.510360	0.483400
C3261	C326	0.450800	0.549200	0.409100
C3271	C327	0.412740	0.587260	0.406500
C3281	C328	0.395440	0.604560	0.350300
H2531	H253	0.381000	0.619000	0.368400
O741	O74	0.099000	0.901000	0.703530
C3291	C329	0.156310	0.843690	0.816730
C3301	C330	0.117470	0.882530	0.742430
C3311	C331	0.079410	0.920590	0.739830
C3321	C332	0.062110	0.937890	0.683630
H2541	H254	0.047670	0.952330	0.701730
O751	O75	0.765660	0.234340	0.036870
C3331	C333	0.822970	0.177030	0.150070
C3341	C334	0.784130	0.215870	0.075770
C3351	C335	0.746070	0.253930	0.073170
C3361	C336	0.728770	0.271230	0.016970
H2551	H255	0.714330	0.285670	0.035070
O761	O76	0.432330	0.864660	0.370200
C3371	C337	0.489640	0.979280	0.483400
C3381	C338	0.450800	0.901600	0.409100
C3391	C339	0.412740	0.825480	0.406500
C3401	C340	0.395440	0.790880	0.350300
H2561	H256	0.381000	0.762000	0.368400
O771	O77	0.099000	0.197990	0.703530
C3411	C341	0.156310	0.312610	0.816730
C3421	C342	0.117470	0.234930	0.742430
C3431	C343	0.079410	0.158810	0.739830
C3441	C344	0.062110	0.124210	0.683630
H2571	H257	0.047670	0.095330	0.701730
O781	O78	0.765660	0.531330	0.036870
C3451	C345	0.822970	0.645950	0.150070
C3461	C346	0.784130	0.568270	0.075770
C3471	C347	0.746070	0.492150	0.073170
C3481	C348	0.728770	0.457550	0.016970
H2581	H258	0.714330	0.428670	0.035070
O791	O79	0.135340	0.567670	0.370200
C3491	C349	0.020720	0.510360	0.483400
C3501	C350	0.098400	0.549200	0.409100
C3511	C351	0.174520	0.587260	0.406500
C3521	C352	0.209120	0.604560	0.350300
H2591	H259	0.238000	0.619000	0.368400
O801	O80	0.802010	0.901000	0.703530
C3531	C353	0.687390	0.843690	0.816730
C3541	C354	0.765070	0.882530	0.742430
C3551	C355	0.841190	0.920590	0.739830
C3561	C356	0.875790	0.937890	0.683630
H2601	H260	0.904670	0.952330	0.701730
O811	O81	0.468670	0.234340	0.036870
C3571	C357	0.354050	0.177030	0.150070
C3581	C358	0.431730	0.215870	0.075770
C3591	C359	0.507850	0.253930	0.073170
C3601	C360	0.542450	0.271230	0.016970
H2611	H261	0.571330	0.285670	0.035070
O821	O82	0.567670	0.432330	0.629800
C3611	C361	0.510360	0.489640	0.516600
C3621	C362	0.549200	0.450800	0.590900
C3631	C363	0.587260	0.412740	0.593500
C3641	C364	0.604560	0.395440	0.649700
H2621	H262	0.619000	0.381000	0.631600
O831	O83	0.234340	0.765660	0.963130
C3651	C365	0.177030	0.822970	0.849930
C3661	C366	0.215870	0.784130	0.924230
C3671	C367	0.253930	0.746070	0.926830
C3681	C368	0.271230	0.728770	0.983030
H2631	H263	0.285670	0.714330	0.964930
O841	O84	0.901000	0.099000	0.296470
C3691	C369	0.843690	0.156310	0.183270
C3701	C370	0.882530	0.117470	0.257570
C3711	C371	0.920590	0.079410	0.260170
C3721	C372	0.937890	0.062110	0.316370
H2641	H264	0.952330	0.047670	0.298270
O851	O85	0.864660	0.432330	0.629800
C3731	C373	0.979280	0.489640	0.516600
C3741	C374	0.901600	0.450800	0.590900
C3751	C375	0.825480	0.412740	0.593500
C3761	C376	0.790880	0.395440	0.649700
H2651	H265	0.762000	0.381000	0.631600
O861	O86	0.531330	0.765660	0.963130
C3771	C377	0.645950	0.822970	0.849930
C3781	C378	0.568270	0.784130	0.924230
C3791	C379	0.492150	0.746070	0.926830
C3801	C380	0.457550	0.728770	0.983030
H2661	H266	0.428670	0.714330	0.964930
O871	O87	0.197990	0.099000	0.296470
C3811	C381	0.312610	0.156310	0.183270
C3821	C382	0.234930	0.117470	0.257570
C3831	C383	0.158810	0.079410	0.260170
C3841	C384	0.124210	0.062110	0.316370
H2671	H267	0.095330	0.047670	0.298270
O881	O88	0.567670	0.135340	0.629800
C3851	C385	0.510360	0.020720	0.516600
C3861	C386	0.549200	0.098400	0.590900
C3871	C387	0.587260	0.174520	0.593500
C3881	C388	0.604560	0.209120	0.649700
H2681	H268	0.619000	0.238000	0.631600
O891	O89	0.234340	0.468670	0.963130
C3891	C389	0.177030	0.354050	0.849930
C3901	C390	0.215870	0.431730	0.924230
C3911	C391	0.253930	0.507850	0.926830
C3921	C392	0.271230	0.542450	0.983030
H2691	H269	0.285670	0.571330	0.964930
O901	O90	0.901000	0.802010	0.296470
C3931	C393	0.843690	0.687390	0.183270
C3941	C394	0.882530	0.765070	0.257570
C3951	C395	0.920590	0.841190	0.260170
C3961	C396	0.937890	0.875790	0.316370
H2701	H270	0.952330	0.904670	0.298270
