data_UMODEH11_clean_PM
_symmetry_space_group_name_H-M	'P1'
_cell_length_a	35.837300
_cell_length_b	35.837300
_cell_length_c	15.134300
_cell_angle_alpha	90.000000
_cell_angle_beta	90.000000
_cell_angle_gamma	120.000000
_symmetry_Int_Tables_number 1

loop_
_symmetry_equiv_pos_as_xyz
'x,y,z'

loop_
_atom_site_label
_atom_site_type_symbol
_atom_site_fract_x
_atom_site_fract_y
_atom_site_fract_z
O11	O1	0.557620	0.038400	0.580200
O21	O2	0.564010	0.050790	0.433300
C11	C1	0.578420	0.056970	0.508700
C21	C2	0.625060	0.089070	0.523400
C31	C3	0.651830	0.110300	0.456800
H11	H1	0.641200	0.106000	0.399400
C41	C4	0.695410	0.138800	0.472200
H21	H2	0.712900	0.153700	0.424500
C51	C5	0.712950	0.145510	0.551900
C61	C6	0.685210	0.125800	0.622700
H31	H3	0.696200	0.131300	0.679800
C71	C7	0.641730	0.098200	0.609900
H41	H4	0.623500	0.085800	0.658100
C81	C8	0.759940	0.172670	0.570000
C91	C9	0.779820	0.154210	0.617700
H51	H5	0.763600	0.125300	0.633600
H61	H6	0.770800	0.272900	0.599100
H71	H7	0.745200	0.298500	0.482400
O31	O3	0.224290	0.371730	0.913530
O41	O4	0.230680	0.384120	0.766630
C101	C10	0.245090	0.390300	0.842030
C111	C11	0.291730	0.422400	0.856730
C121	C12	0.318500	0.443630	0.790130
H81	H8	0.307870	0.439330	0.732730
C131	C13	0.362080	0.472130	0.805530
H91	H9	0.379570	0.487030	0.757830
C141	C14	0.379620	0.478840	0.885230
C151	C15	0.351880	0.459130	0.956030
H101	H10	0.362870	0.464630	0.013130
C161	C16	0.308400	0.431530	0.943230
H111	H11	0.290170	0.419130	0.991430
C171	C17	0.426610	0.506000	0.903330
C181	C18	0.446490	0.487540	0.951030
H121	H12	0.430270	0.458630	0.966930
H131	H13	0.437470	0.606230	0.932430
H141	H14	0.411870	0.631830	0.815730
O51	O5	0.890950	0.705070	0.246870
O61	O6	0.897340	0.717460	0.099970
C191	C19	0.911750	0.723640	0.175370
C201	C20	0.958390	0.755740	0.190070
C211	C21	0.985160	0.776970	0.123470
H151	H15	0.974530	0.772670	0.066070
C221	C22	0.028740	0.805470	0.138870
H161	H16	0.046230	0.820370	0.091170
C231	C23	0.046280	0.812180	0.218570
C241	C24	0.018540	0.792470	0.289370
H171	H17	0.029530	0.797970	0.346470
C251	C25	0.975060	0.764870	0.276570
H181	H18	0.956830	0.752470	0.324770
C261	C26	0.093270	0.839340	0.236670
C271	C27	0.113150	0.820880	0.284370
H191	H19	0.096930	0.791970	0.300270
H201	H20	0.104130	0.939570	0.265770
H211	H21	0.078530	0.965170	0.149070
O71	O7	0.961600	0.519220	0.580200
O81	O8	0.949210	0.513220	0.433300
C281	C28	0.943030	0.521450	0.508700
C291	C29	0.910930	0.535990	0.523400
C301	C30	0.889700	0.541530	0.456800
H221	H22	0.894000	0.535200	0.399400
C311	C31	0.861200	0.556610	0.472200
H231	H23	0.846300	0.559200	0.424500
C321	C32	0.854490	0.567440	0.551900
C331	C33	0.874200	0.559410	0.622700
H241	H24	0.868700	0.564900	0.679800
C341	C34	0.901800	0.543530	0.609900
H251	H25	0.914200	0.537700	0.658100
C351	C35	0.827330	0.587270	0.570000
C361	C36	0.845790	0.625610	0.617700
H261	H26	0.874700	0.638300	0.633600
H271	H27	0.727100	0.497900	0.599100
H281	H28	0.701500	0.446700	0.482400
O91	O9	0.628270	0.852550	0.913530
O101	O10	0.615880	0.846550	0.766630
C371	C37	0.609700	0.854780	0.842030
C381	C38	0.577600	0.869320	0.856730
C391	C39	0.556370	0.874860	0.790130
H291	H29	0.560670	0.868530	0.732730
C401	C40	0.527870	0.889940	0.805530
H301	H30	0.512970	0.892530	0.757830
C411	C41	0.521160	0.900770	0.885230
C421	C42	0.540870	0.892740	0.956030
H311	H31	0.535370	0.898230	0.013130
C431	C43	0.568470	0.876860	0.943230
H321	H32	0.580870	0.871030	0.991430
C441	C44	0.494000	0.920600	0.903330
C451	C45	0.512460	0.958940	0.951030
H331	H33	0.541370	0.971630	0.966930
H341	H34	0.393770	0.831230	0.932430
H351	H35	0.368170	0.780030	0.815730
O111	O11	0.294930	0.185890	0.246870
O121	O12	0.282540	0.179890	0.099970
C461	C46	0.276360	0.188120	0.175370
C471	C47	0.244260	0.202660	0.190070
C481	C48	0.223030	0.208200	0.123470
H361	H36	0.227330	0.201870	0.066070
C491	C49	0.194530	0.223280	0.138870
H371	H37	0.179630	0.225870	0.091170
C501	C50	0.187820	0.234110	0.218570
C511	C51	0.207530	0.226080	0.289370
H381	H38	0.202030	0.231570	0.346470
C521	C52	0.235130	0.210200	0.276570
H391	H39	0.247530	0.204370	0.324770
C531	C53	0.160660	0.253940	0.236670
C541	C54	0.179120	0.292280	0.284370
H401	H40	0.208030	0.304970	0.300270
H411	H41	0.060430	0.164570	0.265770
H421	H42	0.034830	0.113370	0.149070
O131	O13	0.480780	0.442380	0.580200
O141	O14	0.486780	0.435990	0.433300
C551	C55	0.478550	0.421580	0.508700
C561	C56	0.464010	0.374940	0.523400
C571	C57	0.458470	0.348170	0.456800
H431	H43	0.464800	0.358800	0.399400
C581	C58	0.443390	0.304590	0.472200
H441	H44	0.440800	0.287100	0.424500
C591	C59	0.432560	0.287050	0.551900
C601	C60	0.440590	0.314790	0.622700
H451	H45	0.435100	0.303800	0.679800
C611	C61	0.456470	0.358270	0.609900
H461	H46	0.462300	0.376500	0.658100
C621	C62	0.412730	0.240060	0.570000
C631	C63	0.374390	0.220180	0.617700
H471	H47	0.361700	0.236400	0.633600
H481	H48	0.502100	0.229200	0.599100
H491	H49	0.553300	0.254800	0.482400
O151	O15	0.147450	0.775710	0.913530
O161	O16	0.153450	0.769320	0.766630
C641	C64	0.145220	0.754910	0.842030
C651	C65	0.130680	0.708270	0.856730
C661	C66	0.125140	0.681500	0.790130
H501	H50	0.131470	0.692130	0.732730
C671	C67	0.110060	0.637920	0.805530
H511	H51	0.107470	0.620430	0.757830
C681	C68	0.099230	0.620380	0.885230
C691	C69	0.107260	0.648120	0.956030
H521	H52	0.101770	0.637130	0.013130
C701	C70	0.123140	0.691600	0.943230
H531	H53	0.128970	0.709830	0.991430
C711	C71	0.079400	0.573390	0.903330
C721	C72	0.041060	0.553510	0.951030
H541	H54	0.028370	0.569730	0.966930
H551	H55	0.168770	0.562530	0.932430
H561	H56	0.219970	0.588130	0.815730
O171	O17	0.814110	0.109050	0.246870
O181	O18	0.820110	0.102660	0.099970
C731	C73	0.811880	0.088250	0.175370
C741	C74	0.797340	0.041610	0.190070
C751	C75	0.791800	0.014840	0.123470
H571	H57	0.798130	0.025470	0.066070
C761	C76	0.776720	0.971260	0.138870
H581	H58	0.774130	0.953770	0.091170
C771	C77	0.765890	0.953720	0.218570
C781	C78	0.773920	0.981460	0.289370
H591	H59	0.768430	0.970470	0.346470
C791	C79	0.789800	0.024940	0.276570
H601	H60	0.795630	0.043170	0.324770
C801	C80	0.746060	0.906730	0.236670
C811	C81	0.707720	0.886850	0.284370
H611	H61	0.695030	0.903070	0.300270
H621	H62	0.835430	0.895870	0.265770
H631	H63	0.886630	0.921470	0.149070
O191	O19	0.038400	0.557620	0.419800
O201	O20	0.050790	0.564010	0.566700
C821	C82	0.056970	0.578420	0.491300
C831	C83	0.089070	0.625060	0.476600
C841	C84	0.110300	0.651830	0.543200
H641	H64	0.106000	0.641200	0.600600
C851	C85	0.138800	0.695410	0.527800
H651	H65	0.153700	0.712900	0.575500
C861	C86	0.145510	0.712950	0.448100
C871	C87	0.125800	0.685210	0.377300
H661	H66	0.131300	0.696200	0.320200
C881	C88	0.098200	0.641730	0.390100
H671	H67	0.085800	0.623500	0.341900
C891	C89	0.172670	0.759940	0.430000
C901	C90	0.154210	0.779820	0.382300
H681	H68	0.125300	0.763600	0.366400
H691	H69	0.272900	0.770800	0.400900
H701	H70	0.298500	0.745200	0.517600
O211	O21	0.705070	0.890950	0.753130
O221	O22	0.717460	0.897340	0.900030
C911	C91	0.723640	0.911750	0.824630
C921	C92	0.755740	0.958390	0.809930
C931	C93	0.776970	0.985160	0.876530
H711	H71	0.772670	0.974530	0.933930
C941	C94	0.805470	0.028740	0.861130
H721	H72	0.820370	0.046230	0.908830
C951	C95	0.812180	0.046280	0.781430
C961	C96	0.792470	0.018540	0.710630
H731	H73	0.797970	0.029530	0.653530
C971	C97	0.764870	0.975060	0.723430
H741	H74	0.752470	0.956830	0.675230
C981	C98	0.839340	0.093270	0.763330
C991	C99	0.820880	0.113150	0.715630
H751	H75	0.791970	0.096930	0.699730
H761	H76	0.939570	0.104130	0.734230
H771	H77	0.965170	0.078530	0.850930
O231	O23	0.371730	0.224290	0.086470
O241	O24	0.384120	0.230680	0.233370
C1001	C100	0.390300	0.245090	0.157970
C1011	C101	0.422400	0.291730	0.143270
C1021	C102	0.443630	0.318500	0.209870
H781	H78	0.439330	0.307870	0.267270
C1031	C103	0.472130	0.362080	0.194470
H791	H79	0.487030	0.379570	0.242170
C1041	C104	0.478840	0.379620	0.114770
C1051	C105	0.459130	0.351880	0.043970
H801	H80	0.464630	0.362870	0.986870
C1061	C106	0.431530	0.308400	0.056770
H811	H81	0.419130	0.290170	0.008570
C1071	C107	0.506000	0.426610	0.096670
C1081	C108	0.487540	0.446490	0.048970
H821	H82	0.458630	0.430270	0.033070
H831	H83	0.606230	0.437470	0.067570
H841	H84	0.631830	0.411870	0.184270
O251	O25	0.519220	0.961600	0.419800
O261	O26	0.513220	0.949210	0.566700
C1091	C109	0.521450	0.943030	0.491300
C1101	C110	0.535990	0.910930	0.476600
C1111	C111	0.541530	0.889700	0.543200
H851	H85	0.535200	0.894000	0.600600
C1121	C112	0.556610	0.861200	0.527800
H861	H86	0.559200	0.846300	0.575500
C1131	C113	0.567440	0.854490	0.448100
C1141	C114	0.559410	0.874200	0.377300
H871	H87	0.564900	0.868700	0.320200
C1151	C115	0.543530	0.901800	0.390100
H881	H88	0.537700	0.914200	0.341900
C1161	C116	0.587270	0.827330	0.430000
C1171	C117	0.625610	0.845790	0.382300
H891	H89	0.638300	0.874700	0.366400
H901	H90	0.497900	0.727100	0.400900
H911	H91	0.446700	0.701500	0.517600
O271	O27	0.185890	0.294930	0.753130
O281	O28	0.179890	0.282540	0.900030
C1181	C118	0.188120	0.276360	0.824630
C1191	C119	0.202660	0.244260	0.809930
C1201	C120	0.208200	0.223030	0.876530
H921	H92	0.201870	0.227330	0.933930
C1211	C121	0.223280	0.194530	0.861130
H931	H93	0.225870	0.179630	0.908830
C1221	C122	0.234110	0.187820	0.781430
C1231	C123	0.226080	0.207530	0.710630
H941	H94	0.231570	0.202030	0.653530
C1241	C124	0.210200	0.235130	0.723430
H951	H95	0.204370	0.247530	0.675230
C1251	C125	0.253940	0.160660	0.763330
C1261	C126	0.292280	0.179120	0.715630
H961	H96	0.304970	0.208030	0.699730
H971	H97	0.164570	0.060430	0.734230
H981	H98	0.113370	0.034830	0.850930
O291	O29	0.852550	0.628270	0.086470
O301	O30	0.846550	0.615880	0.233370
C1271	C127	0.854780	0.609700	0.157970
C1281	C128	0.869320	0.577600	0.143270
C1291	C129	0.874860	0.556370	0.209870
H991	H99	0.868530	0.560670	0.267270
C1301	C130	0.889940	0.527870	0.194470
H1001	H100	0.892530	0.512970	0.242170
C1311	C131	0.900770	0.521160	0.114770
C1321	C132	0.892740	0.540870	0.043970
H1011	H101	0.898230	0.535370	0.986870
C1331	C133	0.876860	0.568470	0.056770
H1021	H102	0.871030	0.580870	0.008570
C1341	C134	0.920600	0.494000	0.096670
C1351	C135	0.958940	0.512460	0.048970
H1031	H103	0.971630	0.541370	0.033070
H1041	H104	0.831230	0.393770	0.067570
H1051	H105	0.780030	0.368170	0.184270
O311	O31	0.442380	0.480780	0.419800
O321	O32	0.435990	0.486780	0.566700
C1361	C136	0.421580	0.478550	0.491300
C1371	C137	0.374940	0.464010	0.476600
C1381	C138	0.348170	0.458470	0.543200
H1061	H106	0.358800	0.464800	0.600600
C1391	C139	0.304590	0.443390	0.527800
H1071	H107	0.287100	0.440800	0.575500
C1401	C140	0.287050	0.432560	0.448100
C1411	C141	0.314790	0.440590	0.377300
H1081	H108	0.303800	0.435100	0.320200
C1421	C142	0.358270	0.456470	0.390100
H1091	H109	0.376500	0.462300	0.341900
C1431	C143	0.240060	0.412730	0.430000
C1441	C144	0.220180	0.374390	0.382300
H1101	H110	0.236400	0.361700	0.366400
H1111	H111	0.229200	0.502100	0.400900
H1121	H112	0.254800	0.553300	0.517600
O331	O33	0.109050	0.814110	0.753130
O341	O34	0.102660	0.820110	0.900030
C1451	C145	0.088250	0.811880	0.824630
C1461	C146	0.041610	0.797340	0.809930
C1471	C147	0.014840	0.791800	0.876530
H1131	H113	0.025470	0.798130	0.933930
C1481	C148	0.971260	0.776720	0.861130
H1141	H114	0.953770	0.774130	0.908830
C1491	C149	0.953720	0.765890	0.781430
C1501	C150	0.981460	0.773920	0.710630
H1151	H115	0.970470	0.768430	0.653530
C1511	C151	0.024940	0.789800	0.723430
H1161	H116	0.043170	0.795630	0.675230
C1521	C152	0.906730	0.746060	0.763330
C1531	C153	0.886850	0.707720	0.715630
H1171	H117	0.903070	0.695030	0.699730
H1181	H118	0.895870	0.835430	0.734230
H1191	H119	0.921470	0.886630	0.850930
O351	O35	0.775710	0.147450	0.086470
O361	O36	0.769320	0.153450	0.233370
C1541	C154	0.754910	0.145220	0.157970
C1551	C155	0.708270	0.130680	0.143270
C1561	C156	0.681500	0.125140	0.209870
H1201	H120	0.692130	0.131470	0.267270
C1571	C157	0.637920	0.110060	0.194470
H1211	H121	0.620430	0.107470	0.242170
C1581	C158	0.620380	0.099230	0.114770
C1591	C159	0.648120	0.107260	0.043970
H1221	H122	0.637130	0.101770	0.986870
C1601	C160	0.691600	0.123140	0.056770
H1231	H123	0.709830	0.128970	0.008570
C1611	C161	0.573390	0.079400	0.096670
C1621	C162	0.553510	0.041060	0.048970
H1241	H124	0.569730	0.028370	0.033070
H1251	H125	0.562530	0.168770	0.067570
H1261	H126	0.588130	0.219970	0.184270
O371	O37	0.442380	0.961600	0.419800
O381	O38	0.435990	0.949210	0.566700
C1631	C163	0.421580	0.943030	0.491300
C1641	C164	0.374940	0.910930	0.476600
C1651	C165	0.348170	0.889700	0.543200
H1271	H127	0.358800	0.894000	0.600600
C1661	C166	0.304590	0.861200	0.527800
H1281	H128	0.287100	0.846300	0.575500
C1671	C167	0.287050	0.854490	0.448100
C1681	C168	0.314790	0.874200	0.377300
H1291	H129	0.303800	0.868700	0.320200
C1691	C169	0.358270	0.901800	0.390100
H1301	H130	0.376500	0.914200	0.341900
C1701	C170	0.240060	0.827330	0.430000
C1711	C171	0.220180	0.845790	0.382300
H1311	H131	0.236400	0.874700	0.366400
H1321	H132	0.229200	0.727100	0.400900
H1331	H133	0.254800	0.701500	0.517600
O391	O39	0.109050	0.294930	0.753130
O401	O40	0.102660	0.282540	0.900030
C1721	C172	0.088250	0.276360	0.824630
C1731	C173	0.041610	0.244260	0.809930
C1741	C174	0.014840	0.223030	0.876530
H1341	H134	0.025470	0.227330	0.933930
C1751	C175	0.971260	0.194530	0.861130
H1351	H135	0.953770	0.179630	0.908830
C1761	C176	0.953720	0.187820	0.781430
C1771	C177	0.981460	0.207530	0.710630
H1361	H136	0.970470	0.202030	0.653530
C1781	C178	0.024940	0.235130	0.723430
H1371	H137	0.043170	0.247530	0.675230
C1791	C179	0.906730	0.160660	0.763330
C1801	C180	0.886850	0.179120	0.715630
H1381	H138	0.903070	0.208030	0.699730
H1391	H139	0.895870	0.060430	0.734230
H1401	H140	0.921470	0.034830	0.850930
O411	O41	0.775710	0.628270	0.086470
O421	O42	0.769320	0.615880	0.233370
C1811	C181	0.754910	0.609700	0.157970
C1821	C182	0.708270	0.577600	0.143270
C1831	C183	0.681500	0.556370	0.209870
H1411	H141	0.692130	0.560670	0.267270
C1841	C184	0.637920	0.527870	0.194470
H1421	H142	0.620430	0.512970	0.242170
C1851	C185	0.620380	0.521160	0.114770
C1861	C186	0.648120	0.540870	0.043970
H1431	H143	0.637130	0.535370	0.986870
C1871	C187	0.691600	0.568470	0.056770
H1441	H144	0.709830	0.580870	0.008570
C1881	C188	0.573390	0.494000	0.096670
C1891	C189	0.553510	0.512460	0.048970
H1451	H145	0.569730	0.541370	0.033070
H1461	H146	0.562530	0.393770	0.067570
H1471	H147	0.588130	0.368170	0.184270
O431	O43	0.038400	0.480780	0.419800
O441	O44	0.050790	0.486780	0.566700
C1901	C190	0.056970	0.478550	0.491300
C1911	C191	0.089070	0.464010	0.476600
C1921	C192	0.110300	0.458470	0.543200
H1481	H148	0.106000	0.464800	0.600600
C1931	C193	0.138800	0.443390	0.527800
H1491	H149	0.153700	0.440800	0.575500
C1941	C194	0.145510	0.432560	0.448100
C1951	C195	0.125800	0.440590	0.377300
H1501	H150	0.131300	0.435100	0.320200
C1961	C196	0.098200	0.456470	0.390100
H1511	H151	0.085800	0.462300	0.341900
C1971	C197	0.172670	0.412730	0.430000
C1981	C198	0.154210	0.374390	0.382300
H1521	H152	0.125300	0.361700	0.366400
H1531	H153	0.272900	0.502100	0.400900
H1541	H154	0.298500	0.553300	0.517600
O451	O45	0.705070	0.814110	0.753130
O461	O46	0.717460	0.820110	0.900030
C1991	C199	0.723640	0.811880	0.824630
C2001	C200	0.755740	0.797340	0.809930
C2011	C201	0.776970	0.791800	0.876530
H1551	H155	0.772670	0.798130	0.933930
C2021	C202	0.805470	0.776720	0.861130
H1561	H156	0.820370	0.774130	0.908830
C2031	C203	0.812180	0.765890	0.781430
C2041	C204	0.792470	0.773920	0.710630
H1571	H157	0.797970	0.768430	0.653530
C2051	C205	0.764870	0.789800	0.723430
H1581	H158	0.752470	0.795630	0.675230
C2061	C206	0.839340	0.746060	0.763330
C2071	C207	0.820880	0.707720	0.715630
H1591	H159	0.791970	0.695030	0.699730
H1601	H160	0.939570	0.835430	0.734230
H1611	H161	0.965170	0.886630	0.850930
O471	O47	0.371730	0.147450	0.086470
O481	O48	0.384120	0.153450	0.233370
C2081	C208	0.390300	0.145220	0.157970
C2091	C209	0.422400	0.130680	0.143270
C2101	C210	0.443630	0.125140	0.209870
H1621	H162	0.439330	0.131470	0.267270
C2111	C211	0.472130	0.110060	0.194470
H1631	H163	0.487030	0.107470	0.242170
C2121	C212	0.478840	0.099230	0.114770
C2131	C213	0.459130	0.107260	0.043970
H1641	H164	0.464630	0.101770	0.986870
C2141	C214	0.431530	0.123140	0.056770
H1651	H165	0.419130	0.128970	0.008570
C2151	C215	0.506000	0.079400	0.096670
C2161	C216	0.487540	0.041060	0.048970
H1661	H166	0.458630	0.028370	0.033070
H1671	H167	0.606230	0.168770	0.067570
H1681	H168	0.631830	0.219970	0.184270
O491	O49	0.519220	0.557620	0.419800
O501	O50	0.513220	0.564010	0.566700
C2171	C217	0.521450	0.578420	0.491300
C2181	C218	0.535990	0.625060	0.476600
C2191	C219	0.541530	0.651830	0.543200
H1691	H169	0.535200	0.641200	0.600600
C2201	C220	0.556610	0.695410	0.527800
H1701	H170	0.559200	0.712900	0.575500
C2211	C221	0.567440	0.712950	0.448100
C2221	C222	0.559410	0.685210	0.377300
H1711	H171	0.564900	0.696200	0.320200
C2231	C223	0.543530	0.641730	0.390100
H1721	H172	0.537700	0.623500	0.341900
C2241	C224	0.587270	0.759940	0.430000
C2251	C225	0.625610	0.779820	0.382300
H1731	H173	0.638300	0.763600	0.366400
H1741	H174	0.497900	0.770800	0.400900
H1751	H175	0.446700	0.745200	0.517600
O511	O51	0.185890	0.890950	0.753130
O521	O52	0.179890	0.897340	0.900030
C2261	C226	0.188120	0.911750	0.824630
C2271	C227	0.202660	0.958390	0.809930
C2281	C228	0.208200	0.985160	0.876530
H1761	H176	0.201870	0.974530	0.933930
C2291	C229	0.223280	0.028740	0.861130
H1771	H177	0.225870	0.046230	0.908830
C2301	C230	0.234110	0.046280	0.781430
C2311	C231	0.226080	0.018540	0.710630
H1781	H178	0.231570	0.029530	0.653530
C2321	C232	0.210200	0.975060	0.723430
H1791	H179	0.204370	0.956830	0.675230
C2331	C233	0.253940	0.093270	0.763330
C2341	C234	0.292280	0.113150	0.715630
H1801	H180	0.304970	0.096930	0.699730
H1811	H181	0.164570	0.104130	0.734230
H1821	H182	0.113370	0.078530	0.850930
O531	O53	0.852550	0.224290	0.086470
O541	O54	0.846550	0.230680	0.233370
C2351	C235	0.854780	0.245090	0.157970
C2361	C236	0.869320	0.291730	0.143270
C2371	C237	0.874860	0.318500	0.209870
H1831	H183	0.868530	0.307870	0.267270
C2381	C238	0.889940	0.362080	0.194470
H1841	H184	0.892530	0.379570	0.242170
C2391	C239	0.900770	0.379620	0.114770
C2401	C240	0.892740	0.351880	0.043970
H1851	H185	0.898230	0.362870	0.986870
C2411	C241	0.876860	0.308400	0.056770
H1861	H186	0.871030	0.290170	0.008570
C2421	C242	0.920600	0.426610	0.096670
C2431	C243	0.958940	0.446490	0.048970
H1871	H187	0.971630	0.430270	0.033070
H1881	H188	0.831230	0.437470	0.067570
H1891	H189	0.780030	0.411870	0.184270
O551	O55	0.961600	0.442380	0.580200
O561	O56	0.949210	0.435990	0.433300
C2441	C244	0.943030	0.421580	0.508700
C2451	C245	0.910930	0.374940	0.523400
C2461	C246	0.889700	0.348170	0.456800
H1901	H190	0.894000	0.358800	0.399400
C2471	C247	0.861200	0.304590	0.472200
H1911	H191	0.846300	0.287100	0.424500
C2481	C248	0.854490	0.287050	0.551900
C2491	C249	0.874200	0.314790	0.622700
H1921	H192	0.868700	0.303800	0.679800
C2501	C250	0.901800	0.358270	0.609900
H1931	H193	0.914200	0.376500	0.658100
C2511	C251	0.827330	0.240060	0.570000
C2521	C252	0.845790	0.220180	0.617700
H1941	H194	0.874700	0.236400	0.633600
H1951	H195	0.727100	0.229200	0.599100
H1961	H196	0.701500	0.254800	0.482400
O571	O57	0.628270	0.775710	0.913530
O581	O58	0.615880	0.769320	0.766630
C2531	C253	0.609700	0.754910	0.842030
C2541	C254	0.577600	0.708270	0.856730
C2551	C255	0.556370	0.681500	0.790130
H1971	H197	0.560670	0.692130	0.732730
C2561	C256	0.527870	0.637920	0.805530
H1981	H198	0.512970	0.620430	0.757830
C2571	C257	0.521160	0.620380	0.885230
C2581	C258	0.540870	0.648120	0.956030
H1991	H199	0.535370	0.637130	0.013130
C2591	C259	0.568470	0.691600	0.943230
H2001	H200	0.580870	0.709830	0.991430
C2601	C260	0.494000	0.573390	0.903330
C2611	C261	0.512460	0.553510	0.951030
H2011	H201	0.541370	0.569730	0.966930
H2021	H202	0.393770	0.562530	0.932430
H2031	H203	0.368170	0.588130	0.815730
O591	O59	0.294930	0.109050	0.246870
O601	O60	0.282540	0.102660	0.099970
C2621	C262	0.276360	0.088250	0.175370
C2631	C263	0.244260	0.041610	0.190070
C2641	C264	0.223030	0.014840	0.123470
H2041	H204	0.227330	0.025470	0.066070
C2651	C265	0.194530	0.971260	0.138870
H2051	H205	0.179630	0.953770	0.091170
C2661	C266	0.187820	0.953720	0.218570
C2671	C267	0.207530	0.981460	0.289370
H2061	H206	0.202030	0.970470	0.346470
C2681	C268	0.235130	0.024940	0.276570
H2071	H207	0.247530	0.043170	0.324770
C2691	C269	0.160660	0.906730	0.236670
C2701	C270	0.179120	0.886850	0.284370
H2081	H208	0.208030	0.903070	0.300270
H2091	H209	0.060430	0.895870	0.265770
H2101	H210	0.034830	0.921470	0.149070
O611	O61	0.480780	0.038400	0.580200
O621	O62	0.486780	0.050790	0.433300
C2711	C271	0.478550	0.056970	0.508700
C2721	C272	0.464010	0.089070	0.523400
C2731	C273	0.458470	0.110300	0.456800
H2111	H211	0.464800	0.106000	0.399400
C2741	C274	0.443390	0.138800	0.472200
H2121	H212	0.440800	0.153700	0.424500
C2751	C275	0.432560	0.145510	0.551900
C2761	C276	0.440590	0.125800	0.622700
H2131	H213	0.435100	0.131300	0.679800
C2771	C277	0.456470	0.098200	0.609900
H2141	H214	0.462300	0.085800	0.658100
C2781	C278	0.412730	0.172670	0.570000
C2791	C279	0.374390	0.154210	0.617700
H2151	H215	0.361700	0.125300	0.633600
H2161	H216	0.502100	0.272900	0.599100
H2171	H217	0.553300	0.298500	0.482400
O631	O63	0.147450	0.371730	0.913530
O641	O64	0.153450	0.384120	0.766630
C2801	C280	0.145220	0.390300	0.842030
C2811	C281	0.130680	0.422400	0.856730
C2821	C282	0.125140	0.443630	0.790130
H2181	H218	0.131470	0.439330	0.732730
C2831	C283	0.110060	0.472130	0.805530
H2191	H219	0.107470	0.487030	0.757830
C2841	C284	0.099230	0.478840	0.885230
C2851	C285	0.107260	0.459130	0.956030
H2201	H220	0.101770	0.464630	0.013130
C2861	C286	0.123140	0.431530	0.943230
H2211	H221	0.128970	0.419130	0.991430
C2871	C287	0.079400	0.506000	0.903330
C2881	C288	0.041060	0.487540	0.951030
H2221	H222	0.028370	0.458630	0.966930
H2231	H223	0.168770	0.606230	0.932430
H2241	H224	0.219970	0.631830	0.815730
O651	O65	0.814110	0.705070	0.246870
O661	O66	0.820110	0.717460	0.099970
C2891	C289	0.811880	0.723640	0.175370
C2901	C290	0.797340	0.755740	0.190070
C2911	C291	0.791800	0.776970	0.123470
H2251	H225	0.798130	0.772670	0.066070
C2921	C292	0.776720	0.805470	0.138870
H2261	H226	0.774130	0.820370	0.091170
C2931	C293	0.765890	0.812180	0.218570
C2941	C294	0.773920	0.792470	0.289370
H2271	H227	0.768430	0.797970	0.346470
C2951	C295	0.789800	0.764870	0.276570
H2281	H228	0.795630	0.752470	0.324770
C2961	C296	0.746060	0.839340	0.236670
C2971	C297	0.707720	0.820880	0.284370
H2291	H229	0.695030	0.791970	0.300270
H2301	H230	0.835430	0.939570	0.265770
H2311	H231	0.886630	0.965170	0.149070
O671	O67	0.557620	0.519220	0.580200
O681	O68	0.564010	0.513220	0.433300
C2981	C298	0.578420	0.521450	0.508700
C2991	C299	0.625060	0.535990	0.523400
C3001	C300	0.651830	0.541530	0.456800
H2321	H232	0.641200	0.535200	0.399400
C3011	C301	0.695410	0.556610	0.472200
H2331	H233	0.712900	0.559200	0.424500
C3021	C302	0.712950	0.567440	0.551900
C3031	C303	0.685210	0.559410	0.622700
H2341	H234	0.696200	0.564900	0.679800
C3041	C304	0.641730	0.543530	0.609900
H2351	H235	0.623500	0.537700	0.658100
C3051	C305	0.759940	0.587270	0.570000
C3061	C306	0.779820	0.625610	0.617700
H2361	H236	0.763600	0.638300	0.633600
H2371	H237	0.770800	0.497900	0.599100
H2381	H238	0.745200	0.446700	0.482400
O691	O69	0.224290	0.852550	0.913530
O701	O70	0.230680	0.846550	0.766630
C3071	C307	0.245090	0.854780	0.842030
C3081	C308	0.291730	0.869320	0.856730
C3091	C309	0.318500	0.874860	0.790130
H2391	H239	0.307870	0.868530	0.732730
C3101	C310	0.362080	0.889940	0.805530
H2401	H240	0.379570	0.892530	0.757830
C3111	C311	0.379620	0.900770	0.885230
C3121	C312	0.351880	0.892740	0.956030
H2411	H241	0.362870	0.898230	0.013130
C3131	C313	0.308400	0.876860	0.943230
H2421	H242	0.290170	0.871030	0.991430
C3141	C314	0.426610	0.920600	0.903330
C3151	C315	0.446490	0.958940	0.951030
H2431	H243	0.430270	0.971630	0.966930
H2441	H244	0.437470	0.831230	0.932430
H2451	H245	0.411870	0.780030	0.815730
O711	O71	0.890950	0.185890	0.246870
O721	O72	0.897340	0.179890	0.099970
C3161	C316	0.911750	0.188120	0.175370
C3171	C317	0.958390	0.202660	0.190070
C3181	C318	0.985160	0.208200	0.123470
H2461	H246	0.974530	0.201870	0.066070
C3191	C319	0.028740	0.223280	0.138870
H2471	H247	0.046230	0.225870	0.091170
C3201	C320	0.046280	0.234110	0.218570
C3211	C321	0.018540	0.226080	0.289370
H2481	H248	0.029530	0.231570	0.346470
C3221	C322	0.975060	0.210200	0.276570
H2491	H249	0.956830	0.204370	0.324770
C3231	C323	0.093270	0.253940	0.236670
C3241	C324	0.113150	0.292280	0.284370
H2501	H250	0.096930	0.304970	0.300270
H2511	H251	0.104130	0.164570	0.265770
H2521	H252	0.078530	0.113370	0.149070
Cu11	Cu1	0.503310	0.006620	0.414050
Cu21	Cu2	0.169980	0.339950	0.747380
Cu31	Cu3	0.836640	0.673290	0.080720
Cu41	Cu4	0.993380	0.496690	0.414050
Cu51	Cu5	0.660050	0.830020	0.747380
Cu61	Cu6	0.326710	0.163360	0.080720
Cu71	Cu7	0.503310	0.496690	0.414050
Cu81	Cu8	0.169980	0.830020	0.747380
Cu91	Cu9	0.836640	0.163360	0.080720
Cu101	Cu10	0.006620	0.503310	0.585950
Cu111	Cu11	0.673290	0.836640	0.919280
Cu121	Cu12	0.339950	0.169980	0.252620
Cu131	Cu13	0.496690	0.993380	0.585950
Cu141	Cu14	0.163360	0.326710	0.919280
Cu151	Cu15	0.830020	0.660050	0.252620
Cu161	Cu16	0.496690	0.503310	0.585950
Cu171	Cu17	0.163360	0.836640	0.919280
Cu181	Cu18	0.830020	0.169980	0.252620
O731	O73	0.765350	0.234650	0.496900
C3251	C325	0.822880	0.177120	0.642600
C3261	C326	0.784290	0.215710	0.544800
C3271	C327	0.747600	0.252400	0.561700
C3281	C328	0.724900	0.275100	0.518400
H2531	H253	0.714100	0.285900	0.563700
O741	O74	0.432020	0.567980	0.830230
C3291	C329	0.489550	0.510450	0.975930
C3301	C330	0.450960	0.549040	0.878130
C3311	C331	0.414270	0.585730	0.895030
C3321	C332	0.391570	0.608430	0.851730
H2541	H254	0.380770	0.619230	0.897030
O751	O75	0.098680	0.901320	0.163570
C3331	C333	0.156210	0.843790	0.309270
C3341	C334	0.117620	0.882380	0.211470
C3351	C335	0.080930	0.919070	0.228370
C3361	C336	0.058230	0.941770	0.185070
H2551	H255	0.047430	0.952570	0.230370
O761	O76	0.765350	0.530700	0.496900
C3371	C337	0.822880	0.645760	0.642600
C3381	C338	0.784290	0.568580	0.544800
C3391	C339	0.747600	0.495200	0.561700
C3401	C340	0.724900	0.449800	0.518400
H2561	H256	0.714100	0.428200	0.563700
O771	O77	0.432020	0.864030	0.830230
C3411	C341	0.489550	0.979090	0.975930
C3421	C342	0.450960	0.901910	0.878130
C3431	C343	0.414270	0.828530	0.895030
C3441	C344	0.391570	0.783130	0.851730
H2571	H257	0.380770	0.761530	0.897030
O781	O78	0.098680	0.197370	0.163570
C3451	C345	0.156210	0.312430	0.309270
C3461	C346	0.117620	0.235250	0.211470
C3471	C347	0.080930	0.161870	0.228370
C3481	C348	0.058230	0.116470	0.185070
H2581	H258	0.047430	0.094870	0.230370
O791	O79	0.469300	0.234650	0.496900
C3491	C349	0.354240	0.177120	0.642600
C3501	C350	0.431420	0.215710	0.544800
C3511	C351	0.504800	0.252400	0.561700
C3521	C352	0.550200	0.275100	0.518400
H2591	H259	0.571800	0.285900	0.563700
O801	O80	0.135970	0.567980	0.830230
C3531	C353	0.020910	0.510450	0.975930
C3541	C354	0.098090	0.549040	0.878130
C3551	C355	0.171470	0.585730	0.895030
C3561	C356	0.216870	0.608430	0.851730
H2601	H260	0.238470	0.619230	0.897030
O811	O81	0.802630	0.901320	0.163570
C3571	C357	0.687570	0.843790	0.309270
C3581	C358	0.764750	0.882380	0.211470
C3591	C359	0.838130	0.919070	0.228370
C3601	C360	0.883530	0.941770	0.185070
H2611	H261	0.905130	0.952570	0.230370
O821	O82	0.234650	0.765350	0.503100
C3611	C361	0.177120	0.822880	0.357400
C3621	C362	0.215710	0.784290	0.455200
C3631	C363	0.252400	0.747600	0.438300
C3641	C364	0.275100	0.724900	0.481600
H2621	H262	0.285900	0.714100	0.436300
O831	O83	0.901320	0.098680	0.836430
C3651	C365	0.843790	0.156210	0.690730
C3661	C366	0.882380	0.117620	0.788530
C3671	C367	0.919070	0.080930	0.771630
C3681	C368	0.941770	0.058230	0.814930
H2631	H263	0.952570	0.047430	0.769630
O841	O84	0.567980	0.432020	0.169770
C3691	C369	0.510450	0.489550	0.024070
C3701	C370	0.549040	0.450960	0.121870
C3711	C371	0.585730	0.414270	0.104970
C3721	C372	0.608430	0.391570	0.148270
H2641	H264	0.619230	0.380770	0.102970
O851	O85	0.530700	0.765350	0.503100
C3731	C373	0.645760	0.822880	0.357400
C3741	C374	0.568580	0.784290	0.455200
C3751	C375	0.495200	0.747600	0.438300
C3761	C376	0.449800	0.724900	0.481600
H2651	H265	0.428200	0.714100	0.436300
O861	O86	0.197370	0.098680	0.836430
C3771	C377	0.312430	0.156210	0.690730
C3781	C378	0.235250	0.117620	0.788530
C3791	C379	0.161870	0.080930	0.771630
C3801	C380	0.116470	0.058230	0.814930
H2661	H266	0.094870	0.047430	0.769630
O871	O87	0.864030	0.432020	0.169770
C3811	C381	0.979090	0.489550	0.024070
C3821	C382	0.901910	0.450960	0.121870
C3831	C383	0.828530	0.414270	0.104970
C3841	C384	0.783130	0.391570	0.148270
H2671	H267	0.761530	0.380770	0.102970
O881	O88	0.234650	0.469300	0.503100
C3851	C385	0.177120	0.354240	0.357400
C3861	C386	0.215710	0.431420	0.455200
C3871	C387	0.252400	0.504800	0.438300
C3881	C388	0.275100	0.550200	0.481600
H2681	H268	0.285900	0.571800	0.436300
O891	O89	0.901320	0.802630	0.836430
C3891	C389	0.843790	0.687570	0.690730
C3901	C390	0.882380	0.764750	0.788530
C3911	C391	0.919070	0.838130	0.771630
C3921	C392	0.941770	0.883530	0.814930
H2691	H269	0.952570	0.905130	0.769630
O901	O90	0.567980	0.135970	0.169770
C3931	C393	0.510450	0.020910	0.024070
C3941	C394	0.549040	0.098090	0.121870
C3951	C395	0.585730	0.171470	0.104970
C3961	C396	0.608430	0.216870	0.148270
H2701	H270	0.619230	0.238470	0.102970
