data_UMODEH18_clean_PM
_symmetry_space_group_name_H-M	'P1'
_cell_length_a	35.131400
_cell_length_b	35.131400
_cell_length_c	22.411600
_cell_angle_alpha	90.000000
_cell_angle_beta	90.000000
_cell_angle_gamma	120.000000
_symmetry_Int_Tables_number 1

loop_
_symmetry_equiv_pos_as_xyz
'x,y,z'

loop_
_atom_site_label
_atom_site_type_symbol
_atom_site_fract_x
_atom_site_fract_y
_atom_site_fract_z
O11	O1	0.362510	0.220250	0.098190
O21	O2	0.388550	0.233510	0.192430
C11	C1	0.387810	0.244630	0.139680
C21	C2	0.418600	0.292030	0.122970
C31	C3	0.445980	0.322110	0.165240
H11	H1	0.445700	0.312700	0.204100
C41	C4	0.473360	0.365360	0.151100
H21	H2	0.490700	0.384900	0.180700
C51	C5	0.475600	0.380490	0.093400
C61	C6	0.448580	0.349700	0.048500
H31	H3	0.449900	0.358500	0.009100
C71	C7	0.420360	0.306410	0.065100
H41	H4	0.402100	0.286500	0.036500
C81	C8	0.503370	0.427610	0.074510
C91	C9	0.486150	0.446670	0.038800
H51	H5	0.457100	0.429600	0.026600
H61	H6	0.609400	0.435500	0.074200
H71	H7	0.580300	0.375100	0.169800
O31	O3	0.029180	0.553580	0.431520
O41	O4	0.055220	0.566840	0.525760
C101	C10	0.054480	0.577960	0.473010
C111	C11	0.085270	0.625360	0.456300
C121	C12	0.112650	0.655440	0.498570
H81	H8	0.112370	0.646030	0.537430
C131	C13	0.140030	0.698690	0.484430
H91	H9	0.157370	0.718230	0.514030
C141	C14	0.142270	0.713820	0.426730
C151	C15	0.115250	0.683030	0.381830
H101	H10	0.116570	0.691830	0.342430
C161	C16	0.087030	0.639740	0.398430
H111	H11	0.068770	0.619830	0.369830
C171	C17	0.170040	0.760940	0.407840
C181	C18	0.152820	0.780000	0.372130
H121	H12	0.123770	0.762930	0.359930
H131	H13	0.276070	0.768830	0.407530
H141	H14	0.246970	0.708430	0.503130
O51	O5	0.695840	0.886920	0.764860
O61	O6	0.721880	0.900180	0.859100
C191	C19	0.721140	0.911300	0.806350
C201	C20	0.751930	0.958700	0.789640
C211	C21	0.779310	0.988780	0.831910
H151	H15	0.779030	0.979370	0.870770
C221	C22	0.806690	0.032030	0.817770
H161	H16	0.824030	0.051570	0.847370
C231	C23	0.808930	0.047160	0.760070
C241	C24	0.781910	0.016370	0.715170
H171	H17	0.783230	0.025170	0.675770
C251	C25	0.753690	0.973080	0.731770
H181	H18	0.735430	0.953170	0.703170
C261	C26	0.836700	0.094280	0.741180
C271	C27	0.819480	0.113340	0.705470
H191	H19	0.790430	0.096270	0.693270
H201	H20	0.942730	0.102170	0.740870
H211	H21	0.913630	0.041770	0.836470
O71	O7	0.779750	0.142260	0.098190
O81	O8	0.766490	0.155040	0.192430
C281	C28	0.755370	0.143180	0.139680
C291	C29	0.707970	0.126570	0.122970
C301	C30	0.677890	0.123870	0.165240
H221	H22	0.687300	0.133000	0.204100
C311	C31	0.634640	0.108000	0.151100
H231	H23	0.615100	0.105800	0.180700
C321	C32	0.619510	0.095110	0.093400
C331	C33	0.650300	0.098880	0.048500
H241	H24	0.641500	0.091400	0.009100
C341	C34	0.693590	0.113950	0.065100
H251	H25	0.713500	0.115600	0.036500
C351	C35	0.572390	0.075760	0.074510
C361	C36	0.553330	0.039480	0.038800
H261	H26	0.570400	0.027500	0.026600
H271	H27	0.564500	0.173900	0.074200
H281	H28	0.624900	0.205200	0.169800
O91	O9	0.446420	0.475590	0.431520
O101	O10	0.433160	0.488370	0.525760
C371	C37	0.422040	0.476510	0.473010
C381	C38	0.374640	0.459900	0.456300
C391	C39	0.344560	0.457200	0.498570
H291	H29	0.353970	0.466330	0.537430
C401	C40	0.301310	0.441330	0.484430
H301	H30	0.281770	0.439130	0.514030
C411	C41	0.286180	0.428440	0.426730
C421	C42	0.316970	0.432210	0.381830
H311	H31	0.308170	0.424730	0.342430
C431	C43	0.360260	0.447280	0.398430
H321	H32	0.380170	0.448930	0.369830
C441	C44	0.239060	0.409090	0.407840
C451	C45	0.220000	0.372810	0.372130
H331	H33	0.237070	0.360830	0.359930
H341	H34	0.231170	0.507230	0.407530
H351	H35	0.291570	0.538530	0.503130
O111	O11	0.113080	0.808930	0.764860
O121	O12	0.099820	0.821710	0.859100
C461	C46	0.088700	0.809850	0.806350
C471	C47	0.041300	0.793240	0.789640
C481	C48	0.011220	0.790540	0.831910
H361	H36	0.020630	0.799670	0.870770
C491	C49	0.967970	0.774670	0.817770
H371	H37	0.948430	0.772470	0.847370
C501	C50	0.952840	0.761780	0.760070
C511	C51	0.983630	0.765550	0.715170
H381	H38	0.974830	0.758070	0.675770
C521	C52	0.026920	0.780620	0.731770
H391	H39	0.046830	0.782270	0.703170
C531	C53	0.905720	0.742430	0.741180
C541	C54	0.886660	0.706150	0.705470
H401	H40	0.903730	0.694170	0.693270
H411	H41	0.897830	0.840570	0.740870
H421	H42	0.958230	0.871870	0.836470
O131	O13	0.857740	0.637490	0.098190
O141	O14	0.844960	0.611450	0.192430
C551	C55	0.856820	0.612190	0.139680
C561	C56	0.873430	0.581400	0.122970
C571	C57	0.876130	0.554020	0.165240
H431	H43	0.867000	0.554300	0.204100
C581	C58	0.892000	0.526640	0.151100
H441	H44	0.894200	0.509300	0.180700
C591	C59	0.904890	0.524400	0.093400
C601	C60	0.901120	0.551420	0.048500
H451	H45	0.908600	0.550100	0.009100
C611	C61	0.886050	0.579640	0.065100
H461	H46	0.884400	0.597900	0.036500
C621	C62	0.924240	0.496630	0.074510
C631	C63	0.960520	0.513850	0.038800
H471	H47	0.972500	0.542900	0.026600
H481	H48	0.826100	0.390600	0.074200
H491	H49	0.794800	0.419700	0.169800
O151	O15	0.524410	0.970820	0.431520
O161	O16	0.511630	0.944780	0.525760
C641	C64	0.523490	0.945520	0.473010
C651	C65	0.540100	0.914730	0.456300
C661	C66	0.542800	0.887350	0.498570
H501	H50	0.533670	0.887630	0.537430
C671	C67	0.558670	0.859970	0.484430
H511	H51	0.560870	0.842630	0.514030
C681	C68	0.571560	0.857730	0.426730
C691	C69	0.567790	0.884750	0.381830
H521	H52	0.575270	0.883430	0.342430
C701	C70	0.552720	0.912970	0.398430
H531	H53	0.551070	0.931230	0.369830
C711	C71	0.590910	0.829960	0.407840
C721	C72	0.627190	0.847180	0.372130
H541	H54	0.639170	0.876230	0.359930
H551	H55	0.492770	0.723930	0.407530
H561	H56	0.461470	0.753030	0.503130
O171	O17	0.191070	0.304160	0.764860
O181	O18	0.178290	0.278120	0.859100
C731	C73	0.190150	0.278860	0.806350
C741	C74	0.206760	0.248070	0.789640
C751	C75	0.209460	0.220690	0.831910
H571	H57	0.200330	0.220970	0.870770
C761	C76	0.225330	0.193310	0.817770
H581	H58	0.227530	0.175970	0.847370
C771	C77	0.238220	0.191070	0.760070
C781	C78	0.234450	0.218090	0.715170
H591	H59	0.241930	0.216770	0.675770
C791	C79	0.219380	0.246310	0.731770
H601	H60	0.217730	0.264570	0.703170
C801	C80	0.257570	0.163300	0.741180
C811	C81	0.293850	0.180520	0.705470
H611	H61	0.305830	0.209570	0.693270
H621	H62	0.159430	0.057270	0.740870
H631	H63	0.128130	0.086370	0.836470
O191	O19	0.220250	0.362510	0.901810
O201	O20	0.233510	0.388550	0.807570
C821	C82	0.244630	0.387810	0.860320
C831	C83	0.292030	0.418600	0.877030
C841	C84	0.322110	0.445980	0.834760
H641	H64	0.312700	0.445700	0.795900
C851	C85	0.365360	0.473360	0.848900
H651	H65	0.384900	0.490700	0.819300
C861	C86	0.380490	0.475600	0.906600
C871	C87	0.349700	0.448580	0.951500
H661	H66	0.358500	0.449900	0.990900
C881	C88	0.306410	0.420360	0.934900
H671	H67	0.286500	0.402100	0.963500
C891	C89	0.427610	0.503370	0.925490
C901	C90	0.446670	0.486150	0.961200
H681	H68	0.429600	0.457100	0.973400
H691	H69	0.435500	0.609400	0.925800
H701	H70	0.375100	0.580300	0.830200
O211	O21	0.886920	0.695840	0.235140
O221	O22	0.900180	0.721880	0.140900
C911	C91	0.911300	0.721140	0.193650
C921	C92	0.958700	0.751930	0.210360
C931	C93	0.988780	0.779310	0.168090
H711	H71	0.979370	0.779030	0.129230
C941	C94	0.032030	0.806690	0.182230
H721	H72	0.051570	0.824030	0.152630
C951	C95	0.047160	0.808930	0.239930
C961	C96	0.016370	0.781910	0.284830
H731	H73	0.025170	0.783230	0.324230
C971	C97	0.973080	0.753690	0.268230
H741	H74	0.953170	0.735430	0.296830
C981	C98	0.094280	0.836700	0.258820
C991	C99	0.113340	0.819480	0.294530
H751	H75	0.096270	0.790430	0.306730
H761	H76	0.102170	0.942730	0.259130
H771	H77	0.041770	0.913630	0.163530
O231	O23	0.553580	0.029180	0.568480
O241	O24	0.566840	0.055220	0.474240
C1001	C100	0.577960	0.054480	0.526990
C1011	C101	0.625360	0.085270	0.543700
C1021	C102	0.655440	0.112650	0.501430
H781	H78	0.646030	0.112370	0.462570
C1031	C103	0.698690	0.140030	0.515570
H791	H79	0.718230	0.157370	0.485970
C1041	C104	0.713820	0.142270	0.573270
C1051	C105	0.683030	0.115250	0.618170
H801	H80	0.691830	0.116570	0.657570
C1061	C106	0.639740	0.087030	0.601570
H811	H81	0.619830	0.068770	0.630170
C1071	C107	0.760940	0.170040	0.592160
C1081	C108	0.780000	0.152820	0.627870
H821	H82	0.762930	0.123770	0.640070
H831	H83	0.768830	0.276070	0.592470
H841	H84	0.708430	0.246970	0.496870
O251	O25	0.142260	0.779750	0.901810
O261	O26	0.155040	0.766490	0.807570
C1091	C109	0.143180	0.755370	0.860320
C1101	C110	0.126570	0.707970	0.877030
C1111	C111	0.123870	0.677890	0.834760
H851	H85	0.133000	0.687300	0.795900
C1121	C112	0.108000	0.634640	0.848900
H861	H86	0.105800	0.615100	0.819300
C1131	C113	0.095110	0.619510	0.906600
C1141	C114	0.098880	0.650300	0.951500
H871	H87	0.091400	0.641500	0.990900
C1151	C115	0.113950	0.693590	0.934900
H881	H88	0.115600	0.713500	0.963500
C1161	C116	0.075760	0.572390	0.925490
C1171	C117	0.039480	0.553330	0.961200
H891	H89	0.027500	0.570400	0.973400
H901	H90	0.173900	0.564500	0.925800
H911	H91	0.205200	0.624900	0.830200
O271	O27	0.808930	0.113080	0.235140
O281	O28	0.821710	0.099820	0.140900
C1181	C118	0.809850	0.088700	0.193650
C1191	C119	0.793240	0.041300	0.210360
C1201	C120	0.790540	0.011220	0.168090
H921	H92	0.799670	0.020630	0.129230
C1211	C121	0.774670	0.967970	0.182230
H931	H93	0.772470	0.948430	0.152630
C1221	C122	0.761780	0.952840	0.239930
C1231	C123	0.765550	0.983630	0.284830
H941	H94	0.758070	0.974830	0.324230
C1241	C124	0.780620	0.026920	0.268230
H951	H95	0.782270	0.046830	0.296830
C1251	C125	0.742430	0.905720	0.258820
C1261	C126	0.706150	0.886660	0.294530
H961	H96	0.694170	0.903730	0.306730
H971	H97	0.840570	0.897830	0.259130
H981	H98	0.871870	0.958230	0.163530
O291	O29	0.475590	0.446420	0.568480
O301	O30	0.488370	0.433160	0.474240
C1271	C127	0.476510	0.422040	0.526990
C1281	C128	0.459900	0.374640	0.543700
C1291	C129	0.457200	0.344560	0.501430
H991	H99	0.466330	0.353970	0.462570
C1301	C130	0.441330	0.301310	0.515570
H1001	H100	0.439130	0.281770	0.485970
C1311	C131	0.428440	0.286180	0.573270
C1321	C132	0.432210	0.316970	0.618170
H1011	H101	0.424730	0.308170	0.657570
C1331	C133	0.447280	0.360260	0.601570
H1021	H102	0.448930	0.380170	0.630170
C1341	C134	0.409090	0.239060	0.592160
C1351	C135	0.372810	0.220000	0.627870
H1031	H103	0.360830	0.237070	0.640070
H1041	H104	0.507230	0.231170	0.592470
H1051	H105	0.538530	0.291570	0.496870
O311	O31	0.637490	0.857740	0.901810
O321	O32	0.611450	0.844960	0.807570
C1361	C136	0.612190	0.856820	0.860320
C1371	C137	0.581400	0.873430	0.877030
C1381	C138	0.554020	0.876130	0.834760
H1061	H106	0.554300	0.867000	0.795900
C1391	C139	0.526640	0.892000	0.848900
H1071	H107	0.509300	0.894200	0.819300
C1401	C140	0.524400	0.904890	0.906600
C1411	C141	0.551420	0.901120	0.951500
H1081	H108	0.550100	0.908600	0.990900
C1421	C142	0.579640	0.886050	0.934900
H1091	H109	0.597900	0.884400	0.963500
C1431	C143	0.496630	0.924240	0.925490
C1441	C144	0.513850	0.960520	0.961200
H1101	H110	0.542900	0.972500	0.973400
H1111	H111	0.390600	0.826100	0.925800
H1121	H112	0.419700	0.794800	0.830200
O331	O33	0.304160	0.191070	0.235140
O341	O34	0.278120	0.178290	0.140900
C1451	C145	0.278860	0.190150	0.193650
C1461	C146	0.248070	0.206760	0.210360
C1471	C147	0.220690	0.209460	0.168090
H1131	H113	0.220970	0.200330	0.129230
C1481	C148	0.193310	0.225330	0.182230
H1141	H114	0.175970	0.227530	0.152630
C1491	C149	0.191070	0.238220	0.239930
C1501	C150	0.218090	0.234450	0.284830
H1151	H115	0.216770	0.241930	0.324230
C1511	C151	0.246310	0.219380	0.268230
H1161	H116	0.264570	0.217730	0.296830
C1521	C152	0.163300	0.257570	0.258820
C1531	C153	0.180520	0.293850	0.294530
H1171	H117	0.209570	0.305830	0.306730
H1181	H118	0.057270	0.159430	0.259130
H1191	H119	0.086370	0.128130	0.163530
O351	O35	0.970820	0.524410	0.568480
O361	O36	0.944780	0.511630	0.474240
C1541	C154	0.945520	0.523490	0.526990
C1551	C155	0.914730	0.540100	0.543700
C1561	C156	0.887350	0.542800	0.501430
H1201	H120	0.887630	0.533670	0.462570
C1571	C157	0.859970	0.558670	0.515570
H1211	H121	0.842630	0.560870	0.485970
C1581	C158	0.857730	0.571560	0.573270
C1591	C159	0.884750	0.567790	0.618170
H1221	H122	0.883430	0.575270	0.657570
C1601	C160	0.912970	0.552720	0.601570
H1231	H123	0.931230	0.551070	0.630170
C1611	C161	0.829960	0.590910	0.592160
C1621	C162	0.847180	0.627190	0.627870
H1241	H124	0.876230	0.639170	0.640070
H1251	H125	0.723930	0.492770	0.592470
H1261	H126	0.753030	0.461470	0.496870
O371	O37	0.637490	0.779750	0.901810
O381	O38	0.611450	0.766490	0.807570
C1631	C163	0.612190	0.755370	0.860320
C1641	C164	0.581400	0.707970	0.877030
C1651	C165	0.554020	0.677890	0.834760
H1271	H127	0.554300	0.687300	0.795900
C1661	C166	0.526640	0.634640	0.848900
H1281	H128	0.509300	0.615100	0.819300
C1671	C167	0.524400	0.619510	0.906600
C1681	C168	0.551420	0.650300	0.951500
H1291	H129	0.550100	0.641500	0.990900
C1691	C169	0.579640	0.693590	0.934900
H1301	H130	0.597900	0.713500	0.963500
C1701	C170	0.496630	0.572390	0.925490
C1711	C171	0.513850	0.553330	0.961200
H1311	H131	0.542900	0.570400	0.973400
H1321	H132	0.390600	0.564500	0.925800
H1331	H133	0.419700	0.624900	0.830200
O391	O39	0.304160	0.113080	0.235140
O401	O40	0.278120	0.099820	0.140900
C1721	C172	0.278860	0.088700	0.193650
C1731	C173	0.248070	0.041300	0.210360
C1741	C174	0.220690	0.011220	0.168090
H1341	H134	0.220970	0.020630	0.129230
C1751	C175	0.193310	0.967970	0.182230
H1351	H135	0.175970	0.948430	0.152630
C1761	C176	0.191070	0.952840	0.239930
C1771	C177	0.218090	0.983630	0.284830
H1361	H136	0.216770	0.974830	0.324230
C1781	C178	0.246310	0.026920	0.268230
H1371	H137	0.264570	0.046830	0.296830
C1791	C179	0.163300	0.905720	0.258820
C1801	C180	0.180520	0.886660	0.294530
H1381	H138	0.209570	0.903730	0.306730
H1391	H139	0.057270	0.897830	0.259130
H1401	H140	0.086370	0.958230	0.163530
O411	O41	0.970820	0.446420	0.568480
O421	O42	0.944780	0.433160	0.474240
C1811	C181	0.945520	0.422040	0.526990
C1821	C182	0.914730	0.374640	0.543700
C1831	C183	0.887350	0.344560	0.501430
H1411	H141	0.887630	0.353970	0.462570
C1841	C184	0.859970	0.301310	0.515570
H1421	H142	0.842630	0.281770	0.485970
C1851	C185	0.857730	0.286180	0.573270
C1861	C186	0.884750	0.316970	0.618170
H1431	H143	0.883430	0.308170	0.657570
C1871	C187	0.912970	0.360260	0.601570
H1441	H144	0.931230	0.380170	0.630170
C1881	C188	0.829960	0.239060	0.592160
C1891	C189	0.847180	0.220000	0.627870
H1451	H145	0.876230	0.237070	0.640070
H1461	H146	0.723930	0.231170	0.592470
H1471	H147	0.753030	0.291570	0.496870
O431	O43	0.220250	0.857740	0.901810
O441	O44	0.233510	0.844960	0.807570
C1901	C190	0.244630	0.856820	0.860320
C1911	C191	0.292030	0.873430	0.877030
C1921	C192	0.322110	0.876130	0.834760
H1481	H148	0.312700	0.867000	0.795900
C1931	C193	0.365360	0.892000	0.848900
H1491	H149	0.384900	0.894200	0.819300
C1941	C194	0.380490	0.904890	0.906600
C1951	C195	0.349700	0.901120	0.951500
H1501	H150	0.358500	0.908600	0.990900
C1961	C196	0.306410	0.886050	0.934900
H1511	H151	0.286500	0.884400	0.963500
C1971	C197	0.427610	0.924240	0.925490
C1981	C198	0.446670	0.960520	0.961200
H1521	H152	0.429600	0.972500	0.973400
H1531	H153	0.435500	0.826100	0.925800
H1541	H154	0.375100	0.794800	0.830200
O451	O45	0.886920	0.191070	0.235140
O461	O46	0.900180	0.178290	0.140900
C1991	C199	0.911300	0.190150	0.193650
C2001	C200	0.958700	0.206760	0.210360
C2011	C201	0.988780	0.209460	0.168090
H1551	H155	0.979370	0.200330	0.129230
C2021	C202	0.032030	0.225330	0.182230
H1561	H156	0.051570	0.227530	0.152630
C2031	C203	0.047160	0.238220	0.239930
C2041	C204	0.016370	0.234450	0.284830
H1571	H157	0.025170	0.241930	0.324230
C2051	C205	0.973080	0.219380	0.268230
H1581	H158	0.953170	0.217730	0.296830
C2061	C206	0.094280	0.257570	0.258820
C2071	C207	0.113340	0.293850	0.294530
H1591	H159	0.096270	0.305830	0.306730
H1601	H160	0.102170	0.159430	0.259130
H1611	H161	0.041770	0.128130	0.163530
O471	O47	0.553580	0.524410	0.568480
O481	O48	0.566840	0.511630	0.474240
C2081	C208	0.577960	0.523490	0.526990
C2091	C209	0.625360	0.540100	0.543700
C2101	C210	0.655440	0.542800	0.501430
H1621	H162	0.646030	0.533670	0.462570
C2111	C211	0.698690	0.558670	0.515570
H1631	H163	0.718230	0.560870	0.485970
C2121	C212	0.713820	0.571560	0.573270
C2131	C213	0.683030	0.567790	0.618170
H1641	H164	0.691830	0.575270	0.657570
C2141	C214	0.639740	0.552720	0.601570
H1651	H165	0.619830	0.551070	0.630170
C2151	C215	0.760940	0.590910	0.592160
C2161	C216	0.780000	0.627190	0.627870
H1661	H166	0.762930	0.639170	0.640070
H1671	H167	0.768830	0.492770	0.592470
H1681	H168	0.708430	0.461470	0.496870
O491	O49	0.142260	0.362510	0.901810
O501	O50	0.155040	0.388550	0.807570
C2171	C217	0.143180	0.387810	0.860320
C2181	C218	0.126570	0.418600	0.877030
C2191	C219	0.123870	0.445980	0.834760
H1691	H169	0.133000	0.445700	0.795900
C2201	C220	0.108000	0.473360	0.848900
H1701	H170	0.105800	0.490700	0.819300
C2211	C221	0.095110	0.475600	0.906600
C2221	C222	0.098880	0.448580	0.951500
H1711	H171	0.091400	0.449900	0.990900
C2231	C223	0.113950	0.420360	0.934900
H1721	H172	0.115600	0.402100	0.963500
C2241	C224	0.075760	0.503370	0.925490
C2251	C225	0.039480	0.486150	0.961200
H1731	H173	0.027500	0.457100	0.973400
H1741	H174	0.173900	0.609400	0.925800
H1751	H175	0.205200	0.580300	0.830200
O511	O51	0.808930	0.695840	0.235140
O521	O52	0.821710	0.721880	0.140900
C2261	C226	0.809850	0.721140	0.193650
C2271	C227	0.793240	0.751930	0.210360
C2281	C228	0.790540	0.779310	0.168090
H1761	H176	0.799670	0.779030	0.129230
C2291	C229	0.774670	0.806690	0.182230
H1771	H177	0.772470	0.824030	0.152630
C2301	C230	0.761780	0.808930	0.239930
C2311	C231	0.765550	0.781910	0.284830
H1781	H178	0.758070	0.783230	0.324230
C2321	C232	0.780620	0.753690	0.268230
H1791	H179	0.782270	0.735430	0.296830
C2331	C233	0.742430	0.836700	0.258820
C2341	C234	0.706150	0.819480	0.294530
H1801	H180	0.694170	0.790430	0.306730
H1811	H181	0.840570	0.942730	0.259130
H1821	H182	0.871870	0.913630	0.163530
O531	O53	0.475590	0.029180	0.568480
O541	O54	0.488370	0.055220	0.474240
C2351	C235	0.476510	0.054480	0.526990
C2361	C236	0.459900	0.085270	0.543700
C2371	C237	0.457200	0.112650	0.501430
H1831	H183	0.466330	0.112370	0.462570
C2381	C238	0.441330	0.140030	0.515570
H1841	H184	0.439130	0.157370	0.485970
C2391	C239	0.428440	0.142270	0.573270
C2401	C240	0.432210	0.115250	0.618170
H1851	H185	0.424730	0.116570	0.657570
C2411	C241	0.447280	0.087030	0.601570
H1861	H186	0.448930	0.068770	0.630170
C2421	C242	0.409090	0.170040	0.592160
C2431	C243	0.372810	0.152820	0.627870
H1871	H187	0.360830	0.123770	0.640070
H1881	H188	0.507230	0.276070	0.592470
H1891	H189	0.538530	0.246970	0.496870
O551	O55	0.779750	0.637490	0.098190
O561	O56	0.766490	0.611450	0.192430
C2441	C244	0.755370	0.612190	0.139680
C2451	C245	0.707970	0.581400	0.122970
C2461	C246	0.677890	0.554020	0.165240
H1901	H190	0.687300	0.554300	0.204100
C2471	C247	0.634640	0.526640	0.151100
H1911	H191	0.615100	0.509300	0.180700
C2481	C248	0.619510	0.524400	0.093400
C2491	C249	0.650300	0.551420	0.048500
H1921	H192	0.641500	0.550100	0.009100
C2501	C250	0.693590	0.579640	0.065100
H1931	H193	0.713500	0.597900	0.036500
C2511	C251	0.572390	0.496630	0.074510
C2521	C252	0.553330	0.513850	0.038800
H1941	H194	0.570400	0.542900	0.026600
H1951	H195	0.564500	0.390600	0.074200
H1961	H196	0.624900	0.419700	0.169800
O571	O57	0.446420	0.970820	0.431520
O581	O58	0.433160	0.944780	0.525760
C2531	C253	0.422040	0.945520	0.473010
C2541	C254	0.374640	0.914730	0.456300
C2551	C255	0.344560	0.887350	0.498570
H1971	H197	0.353970	0.887630	0.537430
C2561	C256	0.301310	0.859970	0.484430
H1981	H198	0.281770	0.842630	0.514030
C2571	C257	0.286180	0.857730	0.426730
C2581	C258	0.316970	0.884750	0.381830
H1991	H199	0.308170	0.883430	0.342430
C2591	C259	0.360260	0.912970	0.398430
H2001	H200	0.380170	0.931230	0.369830
C2601	C260	0.239060	0.829960	0.407840
C2611	C261	0.220000	0.847180	0.372130
H2011	H201	0.237070	0.876230	0.359930
H2021	H202	0.231170	0.723930	0.407530
H2031	H203	0.291570	0.753030	0.503130
O591	O59	0.113080	0.304160	0.764860
O601	O60	0.099820	0.278120	0.859100
C2621	C262	0.088700	0.278860	0.806350
C2631	C263	0.041300	0.248070	0.789640
C2641	C264	0.011220	0.220690	0.831910
H2041	H204	0.020630	0.220970	0.870770
C2651	C265	0.967970	0.193310	0.817770
H2051	H205	0.948430	0.175970	0.847370
C2661	C266	0.952840	0.191070	0.760070
C2671	C267	0.983630	0.218090	0.715170
H2061	H206	0.974830	0.216770	0.675770
C2681	C268	0.026920	0.246310	0.731770
H2071	H207	0.046830	0.264570	0.703170
C2691	C269	0.905720	0.163300	0.741180
C2701	C270	0.886660	0.180520	0.705470
H2081	H208	0.903730	0.209570	0.693270
H2091	H209	0.897830	0.057270	0.740870
H2101	H210	0.958230	0.086370	0.836470
O611	O61	0.857740	0.220250	0.098190
O621	O62	0.844960	0.233510	0.192430
C2711	C271	0.856820	0.244630	0.139680
C2721	C272	0.873430	0.292030	0.122970
C2731	C273	0.876130	0.322110	0.165240
H2111	H211	0.867000	0.312700	0.204100
C2741	C274	0.892000	0.365360	0.151100
H2121	H212	0.894200	0.384900	0.180700
C2751	C275	0.904890	0.380490	0.093400
C2761	C276	0.901120	0.349700	0.048500
H2131	H213	0.908600	0.358500	0.009100
C2771	C277	0.886050	0.306410	0.065100
H2141	H214	0.884400	0.286500	0.036500
C2781	C278	0.924240	0.427610	0.074510
C2791	C279	0.960520	0.446670	0.038800
H2151	H215	0.972500	0.429600	0.026600
H2161	H216	0.826100	0.435500	0.074200
H2171	H217	0.794800	0.375100	0.169800
O631	O63	0.524410	0.553580	0.431520
O641	O64	0.511630	0.566840	0.525760
C2801	C280	0.523490	0.577960	0.473010
C2811	C281	0.540100	0.625360	0.456300
C2821	C282	0.542800	0.655440	0.498570
H2181	H218	0.533670	0.646030	0.537430
C2831	C283	0.558670	0.698690	0.484430
H2191	H219	0.560870	0.718230	0.514030
C2841	C284	0.571560	0.713820	0.426730
C2851	C285	0.567790	0.683030	0.381830
H2201	H220	0.575270	0.691830	0.342430
C2861	C286	0.552720	0.639740	0.398430
H2211	H221	0.551070	0.619830	0.369830
C2871	C287	0.590910	0.760940	0.407840
C2881	C288	0.627190	0.780000	0.372130
H2221	H222	0.639170	0.762930	0.359930
H2231	H223	0.492770	0.768830	0.407530
H2241	H224	0.461470	0.708430	0.503130
O651	O65	0.191070	0.886920	0.764860
O661	O66	0.178290	0.900180	0.859100
C2891	C289	0.190150	0.911300	0.806350
C2901	C290	0.206760	0.958700	0.789640
C2911	C291	0.209460	0.988780	0.831910
H2251	H225	0.200330	0.979370	0.870770
C2921	C292	0.225330	0.032030	0.817770
H2261	H226	0.227530	0.051570	0.847370
C2931	C293	0.238220	0.047160	0.760070
C2941	C294	0.234450	0.016370	0.715170
H2271	H227	0.241930	0.025170	0.675770
C2951	C295	0.219380	0.973080	0.731770
H2281	H228	0.217730	0.953170	0.703170
C2961	C296	0.257570	0.094280	0.741180
C2971	C297	0.293850	0.113340	0.705470
H2291	H229	0.305830	0.096270	0.693270
H2301	H230	0.159430	0.102170	0.740870
H2311	H231	0.128130	0.041770	0.836470
O671	O67	0.362510	0.142260	0.098190
O681	O68	0.388550	0.155040	0.192430
C2981	C298	0.387810	0.143180	0.139680
C2991	C299	0.418600	0.126570	0.122970
C3001	C300	0.445980	0.123870	0.165240
H2321	H232	0.445700	0.133000	0.204100
C3011	C301	0.473360	0.108000	0.151100
H2331	H233	0.490700	0.105800	0.180700
C3021	C302	0.475600	0.095110	0.093400
C3031	C303	0.448580	0.098880	0.048500
H2341	H234	0.449900	0.091400	0.009100
C3041	C304	0.420360	0.113950	0.065100
H2351	H235	0.402100	0.115600	0.036500
C3051	C305	0.503370	0.075760	0.074510
C3061	C306	0.486150	0.039480	0.038800
H2361	H236	0.457100	0.027500	0.026600
H2371	H237	0.609400	0.173900	0.074200
H2381	H238	0.580300	0.205200	0.169800
O691	O69	0.029180	0.475590	0.431520
O701	O70	0.055220	0.488370	0.525760
C3071	C307	0.054480	0.476510	0.473010
C3081	C308	0.085270	0.459900	0.456300
C3091	C309	0.112650	0.457200	0.498570
H2391	H239	0.112370	0.466330	0.537430
C3101	C310	0.140030	0.441330	0.484430
H2401	H240	0.157370	0.439130	0.514030
C3111	C311	0.142270	0.428440	0.426730
C3121	C312	0.115250	0.432210	0.381830
H2411	H241	0.116570	0.424730	0.342430
C3131	C313	0.087030	0.447280	0.398430
H2421	H242	0.068770	0.448930	0.369830
C3141	C314	0.170040	0.409090	0.407840
C3151	C315	0.152820	0.372810	0.372130
H2431	H243	0.123770	0.360830	0.359930
H2441	H244	0.276070	0.507230	0.407530
H2451	H245	0.246970	0.538530	0.503130
O711	O71	0.695840	0.808930	0.764860
O721	O72	0.721880	0.821710	0.859100
C3161	C316	0.721140	0.809850	0.806350
C3171	C317	0.751930	0.793240	0.789640
C3181	C318	0.779310	0.790540	0.831910
H2461	H246	0.779030	0.799670	0.870770
C3191	C319	0.806690	0.774670	0.817770
H2471	H247	0.824030	0.772470	0.847370
C3201	C320	0.808930	0.761780	0.760070
C3211	C321	0.781910	0.765550	0.715170
H2481	H248	0.783230	0.758070	0.675770
C3221	C322	0.753690	0.780620	0.731770
H2491	H249	0.735430	0.782270	0.703170
C3231	C323	0.836700	0.742430	0.741180
C3241	C324	0.819480	0.706150	0.705470
H2501	H250	0.790430	0.694170	0.693270
H2511	H251	0.942730	0.840570	0.740870
H2521	H252	0.913630	0.871870	0.836470
Cu11	Cu1	0.318160	0.159080	0.112610
Cu21	Cu2	0.984830	0.492410	0.445940
Cu31	Cu3	0.651490	0.825750	0.779280
Cu41	Cu4	0.840920	0.159080	0.112610
Cu51	Cu5	0.507590	0.492410	0.445940
Cu61	Cu6	0.174250	0.825750	0.779280
Cu71	Cu7	0.840920	0.681840	0.112610
Cu81	Cu8	0.507590	0.015170	0.445940
Cu91	Cu9	0.174250	0.348510	0.779280
Cu101	Cu10	0.159080	0.318160	0.887390
Cu111	Cu11	0.825750	0.651490	0.220720
Cu121	Cu12	0.492410	0.984830	0.554060
Cu131	Cu13	0.159080	0.840920	0.887390
Cu141	Cu14	0.825750	0.174250	0.220720
Cu151	Cu15	0.492410	0.507590	0.554060
Cu161	Cu16	0.681840	0.840920	0.887390
Cu171	Cu17	0.348510	0.174250	0.220720
Cu181	Cu18	0.015170	0.507590	0.554060
O731	O73	0.564960	0.435040	0.132600
C3251	C325	0.509600	0.490400	0.019400
C3261	C326	0.547120	0.452880	0.094700
C3271	C327	0.585890	0.414110	0.099300
C3281	C328	0.603850	0.396150	0.145400
H2531	H253	0.617900	0.382100	0.125800
O741	O74	0.231630	0.768370	0.465930
C3291	C329	0.176270	0.823730	0.352730
C3301	C330	0.213790	0.786210	0.428030
C3311	C331	0.252560	0.747440	0.432630
C3321	C332	0.270520	0.729480	0.478730
H2541	H254	0.284570	0.715430	0.459130
O751	O75	0.898290	0.101710	0.799270
C3331	C333	0.842930	0.157070	0.686070
C3341	C334	0.880450	0.119550	0.761370
C3351	C335	0.919220	0.080780	0.765970
C3361	C336	0.937180	0.062820	0.812070
H2551	H255	0.951230	0.048770	0.792470
O761	O76	0.564960	0.129920	0.132600
C3371	C337	0.509600	0.019200	0.019400
C3381	C338	0.547120	0.094240	0.094700
C3391	C339	0.585890	0.171780	0.099300
C3401	C340	0.603850	0.207700	0.145400
H2561	H256	0.617900	0.235800	0.125800
O771	O77	0.231630	0.463250	0.465930
C3411	C341	0.176270	0.352530	0.352730
C3421	C342	0.213790	0.427570	0.428030
C3431	C343	0.252560	0.505110	0.432630
C3441	C344	0.270520	0.541030	0.478730
H2571	H257	0.284570	0.569130	0.459130
O781	O78	0.898290	0.796590	0.799270
C3451	C345	0.842930	0.685870	0.686070
C3461	C346	0.880450	0.760910	0.761370
C3471	C347	0.919220	0.838450	0.765970
C3481	C348	0.937180	0.874370	0.812070
H2581	H258	0.951230	0.902470	0.792470
O791	O79	0.870080	0.435040	0.132600
C3491	C349	0.980800	0.490400	0.019400
C3501	C350	0.905760	0.452880	0.094700
C3511	C351	0.828220	0.414110	0.099300
C3521	C352	0.792300	0.396150	0.145400
H2591	H259	0.764200	0.382100	0.125800
O801	O80	0.536750	0.768370	0.465930
C3531	C353	0.647470	0.823730	0.352730
C3541	C354	0.572430	0.786210	0.428030
C3551	C355	0.494890	0.747440	0.432630
C3561	C356	0.458970	0.729480	0.478730
H2601	H260	0.430870	0.715430	0.459130
O811	O81	0.203410	0.101710	0.799270
C3571	C357	0.314130	0.157070	0.686070
C3581	C358	0.239090	0.119550	0.761370
C3591	C359	0.161550	0.080780	0.765970
C3601	C360	0.125630	0.062820	0.812070
H2611	H261	0.097530	0.048770	0.792470
O821	O82	0.435040	0.564960	0.867400
C3611	C361	0.490400	0.509600	0.980600
C3621	C362	0.452880	0.547120	0.905300
C3631	C363	0.414110	0.585890	0.900700
C3641	C364	0.396150	0.603850	0.854600
H2621	H262	0.382100	0.617900	0.874200
O831	O83	0.101710	0.898290	0.200730
C3651	C365	0.157070	0.842930	0.313930
C3661	C366	0.119550	0.880450	0.238630
C3671	C367	0.080780	0.919220	0.234030
C3681	C368	0.062820	0.937180	0.187930
H2631	H263	0.048770	0.951230	0.207530
O841	O84	0.768370	0.231630	0.534070
C3691	C369	0.823730	0.176270	0.647270
C3701	C370	0.786210	0.213790	0.571970
C3711	C371	0.747440	0.252560	0.567370
C3721	C372	0.729480	0.270520	0.521270
H2641	H264	0.715430	0.284570	0.540870
O851	O85	0.129920	0.564960	0.867400
C3731	C373	0.019200	0.509600	0.980600
C3741	C374	0.094240	0.547120	0.905300
C3751	C375	0.171780	0.585890	0.900700
C3761	C376	0.207700	0.603850	0.854600
H2651	H265	0.235800	0.617900	0.874200
O861	O86	0.796590	0.898290	0.200730
C3771	C377	0.685870	0.842930	0.313930
C3781	C378	0.760910	0.880450	0.238630
C3791	C379	0.838450	0.919220	0.234030
C3801	C380	0.874370	0.937180	0.187930
H2661	H266	0.902470	0.951230	0.207530
O871	O87	0.463250	0.231630	0.534070
C3811	C381	0.352530	0.176270	0.647270
C3821	C382	0.427570	0.213790	0.571970
C3831	C383	0.505110	0.252560	0.567370
C3841	C384	0.541030	0.270520	0.521270
H2671	H267	0.569130	0.284570	0.540870
O881	O88	0.435040	0.870080	0.867400
C3851	C385	0.490400	0.980800	0.980600
C3861	C386	0.452880	0.905760	0.905300
C3871	C387	0.414110	0.828220	0.900700
C3881	C388	0.396150	0.792300	0.854600
H2681	H268	0.382100	0.764200	0.874200
O891	O89	0.101710	0.203410	0.200730
C3891	C389	0.157070	0.314130	0.313930
C3901	C390	0.119550	0.239090	0.238630
C3911	C391	0.080780	0.161550	0.234030
C3921	C392	0.062820	0.125630	0.187930
H2691	H269	0.048770	0.097530	0.207530
O901	O90	0.768370	0.536750	0.534070
C3931	C393	0.823730	0.647470	0.647270
C3941	C394	0.786210	0.572430	0.571970
C3951	C395	0.747440	0.494890	0.567370
C3961	C396	0.729480	0.458970	0.521270
H2701	H270	0.715430	0.430870	0.540870
