data_UMODEH10_clean_PM
_symmetry_space_group_name_H-M	'P1'
_cell_length_a	35.827300
_cell_length_b	35.827300
_cell_length_c	15.387000
_cell_angle_alpha	90.000000
_cell_angle_beta	90.000000
_cell_angle_gamma	120.000000
_symmetry_Int_Tables_number 1

loop_
_symmetry_equiv_pos_as_xyz
'x,y,z'

loop_
_atom_site_label
_atom_site_type_symbol
_atom_site_fract_x
_atom_site_fract_y
_atom_site_fract_z
O11	O1	0.557650	0.038180	0.578430
O21	O2	0.564110	0.050750	0.434040
C11	C1	0.578550	0.056920	0.509500
C21	C2	0.625250	0.088980	0.523000
C31	C3	0.652560	0.109980	0.455600
H11	H1	0.641900	0.105000	0.399100
C41	C4	0.695880	0.138540	0.470000
H21	H2	0.713600	0.153300	0.423300
C51	C5	0.713140	0.145470	0.552100
C61	C6	0.685150	0.125700	0.621300
H31	H3	0.695900	0.131100	0.677700
C71	C7	0.641900	0.098290	0.607900
H41	H4	0.623600	0.085900	0.655200
C81	C8	0.760170	0.172500	0.569500
C91	C9	0.779970	0.154170	0.617100
H51	H5	0.763600	0.125400	0.633400
H61	H6	0.769600	0.274200	0.595500
H71	H7	0.746200	0.297500	0.474700
O31	O3	0.224320	0.371510	0.911760
O41	O4	0.230780	0.384080	0.767370
C101	C10	0.245220	0.390250	0.842830
C111	C11	0.291920	0.422310	0.856330
C121	C12	0.319230	0.443310	0.788930
H81	H8	0.308570	0.438330	0.732430
C131	C13	0.362550	0.471870	0.803330
H91	H9	0.380270	0.486630	0.756630
C141	C14	0.379810	0.478800	0.885430
C151	C15	0.351820	0.459030	0.954630
H101	H10	0.362570	0.464430	0.011030
C161	C16	0.308570	0.431620	0.941230
H111	H11	0.290270	0.419230	0.988530
C171	C17	0.426840	0.505830	0.902830
C181	C18	0.446640	0.487500	0.950430
H121	H12	0.430270	0.458730	0.966730
H131	H13	0.436270	0.607530	0.928830
H141	H14	0.412870	0.630830	0.808030
O51	O5	0.890980	0.704850	0.245100
O61	O6	0.897440	0.717420	0.100710
C191	C19	0.911880	0.723590	0.176170
C201	C20	0.958580	0.755650	0.189670
C211	C21	0.985890	0.776650	0.122270
H151	H15	0.975230	0.771670	0.065770
C221	C22	0.029210	0.805210	0.136670
H161	H16	0.046930	0.819970	0.089970
C231	C23	0.046470	0.812140	0.218770
C241	C24	0.018480	0.792370	0.287970
H171	H17	0.029230	0.797770	0.344370
C251	C25	0.975230	0.764960	0.274570
H181	H18	0.956930	0.752570	0.321870
C261	C26	0.093500	0.839170	0.236170
C271	C27	0.113300	0.820840	0.283770
H191	H19	0.096930	0.792070	0.300070
H201	H20	0.102930	0.940870	0.262170
H211	H21	0.079530	0.964170	0.141370
O71	O7	0.961820	0.519470	0.578430
O81	O8	0.949250	0.513360	0.434040
C281	C28	0.943080	0.521630	0.509500
C291	C29	0.911020	0.536270	0.523000
C301	C30	0.890020	0.542580	0.455600
H221	H22	0.895000	0.536900	0.399100
C311	C31	0.861460	0.557340	0.470000
H231	H23	0.846700	0.560300	0.423300
C321	C32	0.854530	0.567670	0.552100
C331	C33	0.874300	0.559450	0.621300
H241	H24	0.868900	0.564800	0.677700
C341	C34	0.901710	0.543610	0.607900
H251	H25	0.914100	0.537700	0.655200
C351	C35	0.827500	0.587670	0.569500
C361	C36	0.845830	0.625800	0.617100
H261	H26	0.874600	0.638200	0.633400
H271	H27	0.725800	0.495400	0.595500
H281	H28	0.702500	0.448700	0.474700
O91	O9	0.628490	0.852800	0.911760
O101	O10	0.615920	0.846690	0.767370
C371	C37	0.609750	0.854960	0.842830
C381	C38	0.577690	0.869600	0.856330
C391	C39	0.556690	0.875910	0.788930
H291	H29	0.561670	0.870230	0.732430
C401	C40	0.528130	0.890670	0.803330
H301	H30	0.513370	0.893630	0.756630
C411	C41	0.521200	0.901000	0.885430
C421	C42	0.540970	0.892780	0.954630
H311	H31	0.535570	0.898130	0.011030
C431	C43	0.568380	0.876940	0.941230
H321	H32	0.580770	0.871030	0.988530
C441	C44	0.494170	0.921000	0.902830
C451	C45	0.512500	0.959130	0.950430
H331	H33	0.541270	0.971530	0.966730
H341	H34	0.392470	0.828730	0.928830
H351	H35	0.369170	0.782030	0.808030
O111	O11	0.295150	0.186140	0.245100
O121	O12	0.282580	0.180030	0.100710
C461	C46	0.276410	0.188300	0.176170
C471	C47	0.244350	0.202940	0.189670
C481	C48	0.223350	0.209250	0.122270
H361	H36	0.228330	0.203570	0.065770
C491	C49	0.194790	0.224010	0.136670
H371	H37	0.180030	0.226970	0.089970
C501	C50	0.187860	0.234340	0.218770
C511	C51	0.207630	0.226120	0.287970
H381	H38	0.202230	0.231470	0.344370
C521	C52	0.235040	0.210280	0.274570
H391	H39	0.247430	0.204370	0.321870
C531	C53	0.160830	0.254340	0.236170
C541	C54	0.179160	0.292470	0.283770
H401	H40	0.207930	0.304870	0.300070
H411	H41	0.059130	0.162070	0.262170
H421	H42	0.035830	0.115370	0.141370
O131	O13	0.480530	0.442350	0.578430
O141	O14	0.486640	0.435890	0.434040
C551	C55	0.478370	0.421450	0.509500
C561	C56	0.463730	0.374750	0.523000
C571	C57	0.457420	0.347440	0.455600
H431	H43	0.463100	0.358100	0.399100
C581	C58	0.442660	0.304120	0.470000
H441	H44	0.439700	0.286400	0.423300
C591	C59	0.432330	0.286860	0.552100
C601	C60	0.440550	0.314850	0.621300
H451	H45	0.435200	0.304100	0.677700
C611	C61	0.456390	0.358100	0.607900
H461	H46	0.462300	0.376400	0.655200
C621	C62	0.412330	0.239830	0.569500
C631	C63	0.374200	0.220030	0.617100
H471	H47	0.361800	0.236400	0.633400
H481	H48	0.504600	0.230400	0.595500
H491	H49	0.551300	0.253800	0.474700
O151	O15	0.147200	0.775680	0.911760
O161	O16	0.153310	0.769220	0.767370
C641	C64	0.145040	0.754780	0.842830
C651	C65	0.130400	0.708080	0.856330
C661	C66	0.124090	0.680770	0.788930
H501	H50	0.129770	0.691430	0.732430
C671	C67	0.109330	0.637450	0.803330
H511	H51	0.106370	0.619730	0.756630
C681	C68	0.099000	0.620190	0.885430
C691	C69	0.107220	0.648180	0.954630
H521	H52	0.101870	0.637430	0.011030
C701	C70	0.123060	0.691430	0.941230
H531	H53	0.128970	0.709730	0.988530
C711	C71	0.079000	0.573160	0.902830
C721	C72	0.040870	0.553360	0.950430
H541	H54	0.028470	0.569730	0.966730
H551	H55	0.171270	0.563730	0.928830
H561	H56	0.217970	0.587130	0.808030
O171	O17	0.813860	0.109020	0.245100
O181	O18	0.819970	0.102560	0.100710
C731	C73	0.811700	0.088120	0.176170
C741	C74	0.797060	0.041420	0.189670
C751	C75	0.790750	0.014110	0.122270
H571	H57	0.796430	0.024770	0.065770
C761	C76	0.775990	0.970790	0.136670
H581	H58	0.773030	0.953070	0.089970
C771	C77	0.765660	0.953530	0.218770
C781	C78	0.773880	0.981520	0.287970
H591	H59	0.768530	0.970770	0.344370
C791	C79	0.789720	0.024770	0.274570
H601	H60	0.795630	0.043070	0.321870
C801	C80	0.745660	0.906500	0.236170
C811	C81	0.707530	0.886700	0.283770
H611	H61	0.695130	0.903070	0.300070
H621	H62	0.837930	0.897070	0.262170
H631	H63	0.884630	0.920470	0.141370
O191	O19	0.038180	0.557650	0.421570
O201	O20	0.050750	0.564110	0.565960
C821	C82	0.056920	0.578550	0.490500
C831	C83	0.088980	0.625250	0.477000
C841	C84	0.109980	0.652560	0.544400
H641	H64	0.105000	0.641900	0.600900
C851	C85	0.138540	0.695880	0.530000
H651	H65	0.153300	0.713600	0.576700
C861	C86	0.145470	0.713140	0.447900
C871	C87	0.125700	0.685150	0.378700
H661	H66	0.131100	0.695900	0.322300
C881	C88	0.098290	0.641900	0.392100
H671	H67	0.085900	0.623600	0.344800
C891	C89	0.172500	0.760170	0.430500
C901	C90	0.154170	0.779970	0.382900
H681	H68	0.125400	0.763600	0.366600
H691	H69	0.274200	0.769600	0.404500
H701	H70	0.297500	0.746200	0.525300
O211	O21	0.704850	0.890980	0.754900
O221	O22	0.717420	0.897440	0.899290
C911	C91	0.723590	0.911880	0.823830
C921	C92	0.755650	0.958580	0.810330
C931	C93	0.776650	0.985890	0.877730
H711	H71	0.771670	0.975230	0.934230
C941	C94	0.805210	0.029210	0.863330
H721	H72	0.819970	0.046930	0.910030
C951	C95	0.812140	0.046470	0.781230
C961	C96	0.792370	0.018480	0.712030
H731	H73	0.797770	0.029230	0.655630
C971	C97	0.764960	0.975230	0.725430
H741	H74	0.752570	0.956930	0.678130
C981	C98	0.839170	0.093500	0.763830
C991	C99	0.820840	0.113300	0.716230
H751	H75	0.792070	0.096930	0.699930
H761	H76	0.940870	0.102930	0.737830
H771	H77	0.964170	0.079530	0.858630
O231	O23	0.371510	0.224320	0.088240
O241	O24	0.384080	0.230780	0.232630
C1001	C100	0.390250	0.245220	0.157170
C1011	C101	0.422310	0.291920	0.143670
C1021	C102	0.443310	0.319230	0.211070
H781	H78	0.438330	0.308570	0.267570
C1031	C103	0.471870	0.362550	0.196670
H791	H79	0.486630	0.380270	0.243370
C1041	C104	0.478800	0.379810	0.114570
C1051	C105	0.459030	0.351820	0.045370
H801	H80	0.464430	0.362570	0.988970
C1061	C106	0.431620	0.308570	0.058770
H811	H81	0.419230	0.290270	0.011470
C1071	C107	0.505830	0.426840	0.097170
C1081	C108	0.487500	0.446640	0.049570
H821	H82	0.458730	0.430270	0.033270
H831	H83	0.607530	0.436270	0.071170
H841	H84	0.630830	0.412870	0.191970
O251	O25	0.519470	0.961820	0.421570
O261	O26	0.513360	0.949250	0.565960
C1091	C109	0.521630	0.943080	0.490500
C1101	C110	0.536270	0.911020	0.477000
C1111	C111	0.542580	0.890020	0.544400
H851	H85	0.536900	0.895000	0.600900
C1121	C112	0.557340	0.861460	0.530000
H861	H86	0.560300	0.846700	0.576700
C1131	C113	0.567670	0.854530	0.447900
C1141	C114	0.559450	0.874300	0.378700
H871	H87	0.564800	0.868900	0.322300
C1151	C115	0.543610	0.901710	0.392100
H881	H88	0.537700	0.914100	0.344800
C1161	C116	0.587670	0.827500	0.430500
C1171	C117	0.625800	0.845830	0.382900
H891	H89	0.638200	0.874600	0.366600
H901	H90	0.495400	0.725800	0.404500
H911	H91	0.448700	0.702500	0.525300
O271	O27	0.186140	0.295150	0.754900
O281	O28	0.180030	0.282580	0.899290
C1181	C118	0.188300	0.276410	0.823830
C1191	C119	0.202940	0.244350	0.810330
C1201	C120	0.209250	0.223350	0.877730
H921	H92	0.203570	0.228330	0.934230
C1211	C121	0.224010	0.194790	0.863330
H931	H93	0.226970	0.180030	0.910030
C1221	C122	0.234340	0.187860	0.781230
C1231	C123	0.226120	0.207630	0.712030
H941	H94	0.231470	0.202230	0.655630
C1241	C124	0.210280	0.235040	0.725430
H951	H95	0.204370	0.247430	0.678130
C1251	C125	0.254340	0.160830	0.763830
C1261	C126	0.292470	0.179160	0.716230
H961	H96	0.304870	0.207930	0.699930
H971	H97	0.162070	0.059130	0.737830
H981	H98	0.115370	0.035830	0.858630
O291	O29	0.852800	0.628490	0.088240
O301	O30	0.846690	0.615920	0.232630
C1271	C127	0.854960	0.609750	0.157170
C1281	C128	0.869600	0.577690	0.143670
C1291	C129	0.875910	0.556690	0.211070
H991	H99	0.870230	0.561670	0.267570
C1301	C130	0.890670	0.528130	0.196670
H1001	H100	0.893630	0.513370	0.243370
C1311	C131	0.901000	0.521200	0.114570
C1321	C132	0.892780	0.540970	0.045370
H1011	H101	0.898130	0.535570	0.988970
C1331	C133	0.876940	0.568380	0.058770
H1021	H102	0.871030	0.580770	0.011470
C1341	C134	0.921000	0.494170	0.097170
C1351	C135	0.959130	0.512500	0.049570
H1031	H103	0.971530	0.541270	0.033270
H1041	H104	0.828730	0.392470	0.071170
H1051	H105	0.782030	0.369170	0.191970
O311	O31	0.442350	0.480530	0.421570
O321	O32	0.435890	0.486640	0.565960
C1361	C136	0.421450	0.478370	0.490500
C1371	C137	0.374750	0.463730	0.477000
C1381	C138	0.347440	0.457420	0.544400
H1061	H106	0.358100	0.463100	0.600900
C1391	C139	0.304120	0.442660	0.530000
H1071	H107	0.286400	0.439700	0.576700
C1401	C140	0.286860	0.432330	0.447900
C1411	C141	0.314850	0.440550	0.378700
H1081	H108	0.304100	0.435200	0.322300
C1421	C142	0.358100	0.456390	0.392100
H1091	H109	0.376400	0.462300	0.344800
C1431	C143	0.239830	0.412330	0.430500
C1441	C144	0.220030	0.374200	0.382900
H1101	H110	0.236400	0.361800	0.366600
H1111	H111	0.230400	0.504600	0.404500
H1121	H112	0.253800	0.551300	0.525300
O331	O33	0.109020	0.813860	0.754900
O341	O34	0.102560	0.819970	0.899290
C1451	C145	0.088120	0.811700	0.823830
C1461	C146	0.041420	0.797060	0.810330
C1471	C147	0.014110	0.790750	0.877730
H1131	H113	0.024770	0.796430	0.934230
C1481	C148	0.970790	0.775990	0.863330
H1141	H114	0.953070	0.773030	0.910030
C1491	C149	0.953530	0.765660	0.781230
C1501	C150	0.981520	0.773880	0.712030
H1151	H115	0.970770	0.768530	0.655630
C1511	C151	0.024770	0.789720	0.725430
H1161	H116	0.043070	0.795630	0.678130
C1521	C152	0.906500	0.745660	0.763830
C1531	C153	0.886700	0.707530	0.716230
H1171	H117	0.903070	0.695130	0.699930
H1181	H118	0.897070	0.837930	0.737830
H1191	H119	0.920470	0.884630	0.858630
O351	O35	0.775680	0.147200	0.088240
O361	O36	0.769220	0.153310	0.232630
C1541	C154	0.754780	0.145040	0.157170
C1551	C155	0.708080	0.130400	0.143670
C1561	C156	0.680770	0.124090	0.211070
H1201	H120	0.691430	0.129770	0.267570
C1571	C157	0.637450	0.109330	0.196670
H1211	H121	0.619730	0.106370	0.243370
C1581	C158	0.620190	0.099000	0.114570
C1591	C159	0.648180	0.107220	0.045370
H1221	H122	0.637430	0.101870	0.988970
C1601	C160	0.691430	0.123060	0.058770
H1231	H123	0.709730	0.128970	0.011470
C1611	C161	0.573160	0.079000	0.097170
C1621	C162	0.553360	0.040870	0.049570
H1241	H124	0.569730	0.028470	0.033270
H1251	H125	0.563730	0.171270	0.071170
H1261	H126	0.587130	0.217970	0.191970
O371	O37	0.442350	0.961820	0.421570
O381	O38	0.435890	0.949250	0.565960
C1631	C163	0.421450	0.943080	0.490500
C1641	C164	0.374750	0.911020	0.477000
C1651	C165	0.347440	0.890020	0.544400
H1271	H127	0.358100	0.895000	0.600900
C1661	C166	0.304120	0.861460	0.530000
H1281	H128	0.286400	0.846700	0.576700
C1671	C167	0.286860	0.854530	0.447900
C1681	C168	0.314850	0.874300	0.378700
H1291	H129	0.304100	0.868900	0.322300
C1691	C169	0.358100	0.901710	0.392100
H1301	H130	0.376400	0.914100	0.344800
C1701	C170	0.239830	0.827500	0.430500
C1711	C171	0.220030	0.845830	0.382900
H1311	H131	0.236400	0.874600	0.366600
H1321	H132	0.230400	0.725800	0.404500
H1331	H133	0.253800	0.702500	0.525300
O391	O39	0.109020	0.295150	0.754900
O401	O40	0.102560	0.282580	0.899290
C1721	C172	0.088120	0.276410	0.823830
C1731	C173	0.041420	0.244350	0.810330
C1741	C174	0.014110	0.223350	0.877730
H1341	H134	0.024770	0.228330	0.934230
C1751	C175	0.970790	0.194790	0.863330
H1351	H135	0.953070	0.180030	0.910030
C1761	C176	0.953530	0.187860	0.781230
C1771	C177	0.981520	0.207630	0.712030
H1361	H136	0.970770	0.202230	0.655630
C1781	C178	0.024770	0.235040	0.725430
H1371	H137	0.043070	0.247430	0.678130
C1791	C179	0.906500	0.160830	0.763830
C1801	C180	0.886700	0.179160	0.716230
H1381	H138	0.903070	0.207930	0.699930
H1391	H139	0.897070	0.059130	0.737830
H1401	H140	0.920470	0.035830	0.858630
O411	O41	0.775680	0.628490	0.088240
O421	O42	0.769220	0.615920	0.232630
C1811	C181	0.754780	0.609750	0.157170
C1821	C182	0.708080	0.577690	0.143670
C1831	C183	0.680770	0.556690	0.211070
H1411	H141	0.691430	0.561670	0.267570
C1841	C184	0.637450	0.528130	0.196670
H1421	H142	0.619730	0.513370	0.243370
C1851	C185	0.620190	0.521200	0.114570
C1861	C186	0.648180	0.540970	0.045370
H1431	H143	0.637430	0.535570	0.988970
C1871	C187	0.691430	0.568380	0.058770
H1441	H144	0.709730	0.580770	0.011470
C1881	C188	0.573160	0.494170	0.097170
C1891	C189	0.553360	0.512500	0.049570
H1451	H145	0.569730	0.541270	0.033270
H1461	H146	0.563730	0.392470	0.071170
H1471	H147	0.587130	0.369170	0.191970
O431	O43	0.038180	0.480530	0.421570
O441	O44	0.050750	0.486640	0.565960
C1901	C190	0.056920	0.478370	0.490500
C1911	C191	0.088980	0.463730	0.477000
C1921	C192	0.109980	0.457420	0.544400
H1481	H148	0.105000	0.463100	0.600900
C1931	C193	0.138540	0.442660	0.530000
H1491	H149	0.153300	0.439700	0.576700
C1941	C194	0.145470	0.432330	0.447900
C1951	C195	0.125700	0.440550	0.378700
H1501	H150	0.131100	0.435200	0.322300
C1961	C196	0.098290	0.456390	0.392100
H1511	H151	0.085900	0.462300	0.344800
C1971	C197	0.172500	0.412330	0.430500
C1981	C198	0.154170	0.374200	0.382900
H1521	H152	0.125400	0.361800	0.366600
H1531	H153	0.274200	0.504600	0.404500
H1541	H154	0.297500	0.551300	0.525300
O451	O45	0.704850	0.813860	0.754900
O461	O46	0.717420	0.819970	0.899290
C1991	C199	0.723590	0.811700	0.823830
C2001	C200	0.755650	0.797060	0.810330
C2011	C201	0.776650	0.790750	0.877730
H1551	H155	0.771670	0.796430	0.934230
C2021	C202	0.805210	0.775990	0.863330
H1561	H156	0.819970	0.773030	0.910030
C2031	C203	0.812140	0.765660	0.781230
C2041	C204	0.792370	0.773880	0.712030
H1571	H157	0.797770	0.768530	0.655630
C2051	C205	0.764960	0.789720	0.725430
H1581	H158	0.752570	0.795630	0.678130
C2061	C206	0.839170	0.745660	0.763830
C2071	C207	0.820840	0.707530	0.716230
H1591	H159	0.792070	0.695130	0.699930
H1601	H160	0.940870	0.837930	0.737830
H1611	H161	0.964170	0.884630	0.858630
O471	O47	0.371510	0.147200	0.088240
O481	O48	0.384080	0.153310	0.232630
C2081	C208	0.390250	0.145040	0.157170
C2091	C209	0.422310	0.130400	0.143670
C2101	C210	0.443310	0.124090	0.211070
H1621	H162	0.438330	0.129770	0.267570
C2111	C211	0.471870	0.109330	0.196670
H1631	H163	0.486630	0.106370	0.243370
C2121	C212	0.478800	0.099000	0.114570
C2131	C213	0.459030	0.107220	0.045370
H1641	H164	0.464430	0.101870	0.988970
C2141	C214	0.431620	0.123060	0.058770
H1651	H165	0.419230	0.128970	0.011470
C2151	C215	0.505830	0.079000	0.097170
C2161	C216	0.487500	0.040870	0.049570
H1661	H166	0.458730	0.028470	0.033270
H1671	H167	0.607530	0.171270	0.071170
H1681	H168	0.630830	0.217970	0.191970
O491	O49	0.519470	0.557650	0.421570
O501	O50	0.513360	0.564110	0.565960
C2171	C217	0.521630	0.578550	0.490500
C2181	C218	0.536270	0.625250	0.477000
C2191	C219	0.542580	0.652560	0.544400
H1691	H169	0.536900	0.641900	0.600900
C2201	C220	0.557340	0.695880	0.530000
H1701	H170	0.560300	0.713600	0.576700
C2211	C221	0.567670	0.713140	0.447900
C2221	C222	0.559450	0.685150	0.378700
H1711	H171	0.564800	0.695900	0.322300
C2231	C223	0.543610	0.641900	0.392100
H1721	H172	0.537700	0.623600	0.344800
C2241	C224	0.587670	0.760170	0.430500
C2251	C225	0.625800	0.779970	0.382900
H1731	H173	0.638200	0.763600	0.366600
H1741	H174	0.495400	0.769600	0.404500
H1751	H175	0.448700	0.746200	0.525300
O511	O51	0.186140	0.890980	0.754900
O521	O52	0.180030	0.897440	0.899290
C2261	C226	0.188300	0.911880	0.823830
C2271	C227	0.202940	0.958580	0.810330
C2281	C228	0.209250	0.985890	0.877730
H1761	H176	0.203570	0.975230	0.934230
C2291	C229	0.224010	0.029210	0.863330
H1771	H177	0.226970	0.046930	0.910030
C2301	C230	0.234340	0.046470	0.781230
C2311	C231	0.226120	0.018480	0.712030
H1781	H178	0.231470	0.029230	0.655630
C2321	C232	0.210280	0.975230	0.725430
H1791	H179	0.204370	0.956930	0.678130
C2331	C233	0.254340	0.093500	0.763830
C2341	C234	0.292470	0.113300	0.716230
H1801	H180	0.304870	0.096930	0.699930
H1811	H181	0.162070	0.102930	0.737830
H1821	H182	0.115370	0.079530	0.858630
O531	O53	0.852800	0.224320	0.088240
O541	O54	0.846690	0.230780	0.232630
C2351	C235	0.854960	0.245220	0.157170
C2361	C236	0.869600	0.291920	0.143670
C2371	C237	0.875910	0.319230	0.211070
H1831	H183	0.870230	0.308570	0.267570
C2381	C238	0.890670	0.362550	0.196670
H1841	H184	0.893630	0.380270	0.243370
C2391	C239	0.901000	0.379810	0.114570
C2401	C240	0.892780	0.351820	0.045370
H1851	H185	0.898130	0.362570	0.988970
C2411	C241	0.876940	0.308570	0.058770
H1861	H186	0.871030	0.290270	0.011470
C2421	C242	0.921000	0.426840	0.097170
C2431	C243	0.959130	0.446640	0.049570
H1871	H187	0.971530	0.430270	0.033270
H1881	H188	0.828730	0.436270	0.071170
H1891	H189	0.782030	0.412870	0.191970
O551	O55	0.961820	0.442350	0.578430
O561	O56	0.949250	0.435890	0.434040
C2441	C244	0.943080	0.421450	0.509500
C2451	C245	0.911020	0.374750	0.523000
C2461	C246	0.890020	0.347440	0.455600
H1901	H190	0.895000	0.358100	0.399100
C2471	C247	0.861460	0.304120	0.470000
H1911	H191	0.846700	0.286400	0.423300
C2481	C248	0.854530	0.286860	0.552100
C2491	C249	0.874300	0.314850	0.621300
H1921	H192	0.868900	0.304100	0.677700
C2501	C250	0.901710	0.358100	0.607900
H1931	H193	0.914100	0.376400	0.655200
C2511	C251	0.827500	0.239830	0.569500
C2521	C252	0.845830	0.220030	0.617100
H1941	H194	0.874600	0.236400	0.633400
H1951	H195	0.725800	0.230400	0.595500
H1961	H196	0.702500	0.253800	0.474700
O571	O57	0.628490	0.775680	0.911760
O581	O58	0.615920	0.769220	0.767370
C2531	C253	0.609750	0.754780	0.842830
C2541	C254	0.577690	0.708080	0.856330
C2551	C255	0.556690	0.680770	0.788930
H1971	H197	0.561670	0.691430	0.732430
C2561	C256	0.528130	0.637450	0.803330
H1981	H198	0.513370	0.619730	0.756630
C2571	C257	0.521200	0.620190	0.885430
C2581	C258	0.540970	0.648180	0.954630
H1991	H199	0.535570	0.637430	0.011030
C2591	C259	0.568380	0.691430	0.941230
H2001	H200	0.580770	0.709730	0.988530
C2601	C260	0.494170	0.573160	0.902830
C2611	C261	0.512500	0.553360	0.950430
H2011	H201	0.541270	0.569730	0.966730
H2021	H202	0.392470	0.563730	0.928830
H2031	H203	0.369170	0.587130	0.808030
O591	O59	0.295150	0.109020	0.245100
O601	O60	0.282580	0.102560	0.100710
C2621	C262	0.276410	0.088120	0.176170
C2631	C263	0.244350	0.041420	0.189670
C2641	C264	0.223350	0.014110	0.122270
H2041	H204	0.228330	0.024770	0.065770
C2651	C265	0.194790	0.970790	0.136670
H2051	H205	0.180030	0.953070	0.089970
C2661	C266	0.187860	0.953530	0.218770
C2671	C267	0.207630	0.981520	0.287970
H2061	H206	0.202230	0.970770	0.344370
C2681	C268	0.235040	0.024770	0.274570
H2071	H207	0.247430	0.043070	0.321870
C2691	C269	0.160830	0.906500	0.236170
C2701	C270	0.179160	0.886700	0.283770
H2081	H208	0.207930	0.903070	0.300070
H2091	H209	0.059130	0.897070	0.262170
H2101	H210	0.035830	0.920470	0.141370
O611	O61	0.480530	0.038180	0.578430
O621	O62	0.486640	0.050750	0.434040
C2711	C271	0.478370	0.056920	0.509500
C2721	C272	0.463730	0.088980	0.523000
C2731	C273	0.457420	0.109980	0.455600
H2111	H211	0.463100	0.105000	0.399100
C2741	C274	0.442660	0.138540	0.470000
H2121	H212	0.439700	0.153300	0.423300
C2751	C275	0.432330	0.145470	0.552100
C2761	C276	0.440550	0.125700	0.621300
H2131	H213	0.435200	0.131100	0.677700
C2771	C277	0.456390	0.098290	0.607900
H2141	H214	0.462300	0.085900	0.655200
C2781	C278	0.412330	0.172500	0.569500
C2791	C279	0.374200	0.154170	0.617100
H2151	H215	0.361800	0.125400	0.633400
H2161	H216	0.504600	0.274200	0.595500
H2171	H217	0.551300	0.297500	0.474700
O631	O63	0.147200	0.371510	0.911760
O641	O64	0.153310	0.384080	0.767370
C2801	C280	0.145040	0.390250	0.842830
C2811	C281	0.130400	0.422310	0.856330
C2821	C282	0.124090	0.443310	0.788930
H2181	H218	0.129770	0.438330	0.732430
C2831	C283	0.109330	0.471870	0.803330
H2191	H219	0.106370	0.486630	0.756630
C2841	C284	0.099000	0.478800	0.885430
C2851	C285	0.107220	0.459030	0.954630
H2201	H220	0.101870	0.464430	0.011030
C2861	C286	0.123060	0.431620	0.941230
H2211	H221	0.128970	0.419230	0.988530
C2871	C287	0.079000	0.505830	0.902830
C2881	C288	0.040870	0.487500	0.950430
H2221	H222	0.028470	0.458730	0.966730
H2231	H223	0.171270	0.607530	0.928830
H2241	H224	0.217970	0.630830	0.808030
O651	O65	0.813860	0.704850	0.245100
O661	O66	0.819970	0.717420	0.100710
C2891	C289	0.811700	0.723590	0.176170
C2901	C290	0.797060	0.755650	0.189670
C2911	C291	0.790750	0.776650	0.122270
H2251	H225	0.796430	0.771670	0.065770
C2921	C292	0.775990	0.805210	0.136670
H2261	H226	0.773030	0.819970	0.089970
C2931	C293	0.765660	0.812140	0.218770
C2941	C294	0.773880	0.792370	0.287970
H2271	H227	0.768530	0.797770	0.344370
C2951	C295	0.789720	0.764960	0.274570
H2281	H228	0.795630	0.752570	0.321870
C2961	C296	0.745660	0.839170	0.236170
C2971	C297	0.707530	0.820840	0.283770
H2291	H229	0.695130	0.792070	0.300070
H2301	H230	0.837930	0.940870	0.262170
H2311	H231	0.884630	0.964170	0.141370
O671	O67	0.557650	0.519470	0.578430
O681	O68	0.564110	0.513360	0.434040
C2981	C298	0.578550	0.521630	0.509500
C2991	C299	0.625250	0.536270	0.523000
C3001	C300	0.652560	0.542580	0.455600
H2321	H232	0.641900	0.536900	0.399100
C3011	C301	0.695880	0.557340	0.470000
H2331	H233	0.713600	0.560300	0.423300
C3021	C302	0.713140	0.567670	0.552100
C3031	C303	0.685150	0.559450	0.621300
H2341	H234	0.695900	0.564800	0.677700
C3041	C304	0.641900	0.543610	0.607900
H2351	H235	0.623600	0.537700	0.655200
C3051	C305	0.760170	0.587670	0.569500
C3061	C306	0.779970	0.625800	0.617100
H2361	H236	0.763600	0.638200	0.633400
H2371	H237	0.769600	0.495400	0.595500
H2381	H238	0.746200	0.448700	0.474700
O691	O69	0.224320	0.852800	0.911760
O701	O70	0.230780	0.846690	0.767370
C3071	C307	0.245220	0.854960	0.842830
C3081	C308	0.291920	0.869600	0.856330
C3091	C309	0.319230	0.875910	0.788930
H2391	H239	0.308570	0.870230	0.732430
C3101	C310	0.362550	0.890670	0.803330
H2401	H240	0.380270	0.893630	0.756630
C3111	C311	0.379810	0.901000	0.885430
C3121	C312	0.351820	0.892780	0.954630
H2411	H241	0.362570	0.898130	0.011030
C3131	C313	0.308570	0.876940	0.941230
H2421	H242	0.290270	0.871030	0.988530
C3141	C314	0.426840	0.921000	0.902830
C3151	C315	0.446640	0.959130	0.950430
H2431	H243	0.430270	0.971530	0.966730
H2441	H244	0.436270	0.828730	0.928830
H2451	H245	0.412870	0.782030	0.808030
O711	O71	0.890980	0.186140	0.245100
O721	O72	0.897440	0.180030	0.100710
C3161	C316	0.911880	0.188300	0.176170
C3171	C317	0.958580	0.202940	0.189670
C3181	C318	0.985890	0.209250	0.122270
H2461	H246	0.975230	0.203570	0.065770
C3191	C319	0.029210	0.224010	0.136670
H2471	H247	0.046930	0.226970	0.089970
C3201	C320	0.046470	0.234340	0.218770
C3211	C321	0.018480	0.226120	0.287970
H2481	H248	0.029230	0.231470	0.344370
C3221	C322	0.975230	0.210280	0.274570
H2491	H249	0.956930	0.204370	0.321870
C3231	C323	0.093500	0.254340	0.236170
C3241	C324	0.113300	0.292470	0.283770
H2501	H250	0.096930	0.304870	0.300070
H2511	H251	0.102930	0.162070	0.262170
H2521	H252	0.079530	0.115370	0.141370
Cu11	Cu1	0.503420	0.006840	0.415130
Cu21	Cu2	0.170090	0.340170	0.748460
Cu31	Cu3	0.836750	0.673510	0.081800
Cu41	Cu4	0.993160	0.496580	0.415130
Cu51	Cu5	0.659830	0.829910	0.748460
Cu61	Cu6	0.326490	0.163250	0.081800
Cu71	Cu7	0.503420	0.496580	0.415130
Cu81	Cu8	0.170090	0.829910	0.748460
Cu91	Cu9	0.836750	0.163250	0.081800
Cu101	Cu10	0.006840	0.503420	0.584870
Cu111	Cu11	0.673510	0.836750	0.918200
Cu121	Cu12	0.340170	0.170090	0.251540
Cu131	Cu13	0.496580	0.993160	0.584870
Cu141	Cu14	0.163250	0.326490	0.918200
Cu151	Cu15	0.829910	0.659830	0.251540
Cu161	Cu16	0.496580	0.503420	0.584870
Cu171	Cu17	0.163250	0.836750	0.918200
Cu181	Cu18	0.829910	0.170090	0.251540
O731	O73	0.765480	0.234520	0.498800
C3251	C325	0.823010	0.176990	0.641200
C3261	C326	0.784590	0.215410	0.544500
C3271	C327	0.746900	0.253100	0.558500
C3281	C328	0.725300	0.274700	0.510500
H2531	H253	0.713800	0.286200	0.552000
O741	O74	0.432150	0.567850	0.832130
C3291	C329	0.489680	0.510320	0.974530
C3301	C330	0.451260	0.548740	0.877830
C3311	C331	0.413570	0.586430	0.891830
C3321	C332	0.391970	0.608030	0.843830
H2541	H254	0.380470	0.619530	0.885330
O751	O75	0.098810	0.901190	0.165470
C3331	C333	0.156340	0.843660	0.307870
C3341	C334	0.117920	0.882080	0.211170
C3351	C335	0.080230	0.919770	0.225170
C3361	C336	0.058630	0.941370	0.177170
H2551	H255	0.047130	0.952870	0.218670
O761	O76	0.765480	0.530960	0.498800
C3371	C337	0.823010	0.646020	0.641200
C3381	C338	0.784590	0.569180	0.544500
C3391	C339	0.746900	0.493800	0.558500
C3401	C340	0.725300	0.450600	0.510500
H2561	H256	0.713800	0.427600	0.552000
O771	O77	0.432150	0.864290	0.832130
C3411	C341	0.489680	0.979350	0.974530
C3421	C342	0.451260	0.902510	0.877830
C3431	C343	0.413570	0.827130	0.891830
C3441	C344	0.391970	0.783930	0.843830
H2571	H257	0.380470	0.760930	0.885330
O781	O78	0.098810	0.197630	0.165470
C3451	C345	0.156340	0.312690	0.307870
C3461	C346	0.117920	0.235850	0.211170
C3471	C347	0.080230	0.160470	0.225170
C3481	C348	0.058630	0.117270	0.177170
H2581	H258	0.047130	0.094270	0.218670
O791	O79	0.469040	0.234520	0.498800
C3491	C349	0.353980	0.176990	0.641200
C3501	C350	0.430820	0.215410	0.544500
C3511	C351	0.506200	0.253100	0.558500
C3521	C352	0.549400	0.274700	0.510500
H2591	H259	0.572400	0.286200	0.552000
O801	O80	0.135710	0.567850	0.832130
C3531	C353	0.020650	0.510320	0.974530
C3541	C354	0.097490	0.548740	0.877830
C3551	C355	0.172870	0.586430	0.891830
C3561	C356	0.216070	0.608030	0.843830
H2601	H260	0.239070	0.619530	0.885330
O811	O81	0.802370	0.901190	0.165470
C3571	C357	0.687310	0.843660	0.307870
C3581	C358	0.764150	0.882080	0.211170
C3591	C359	0.839530	0.919770	0.225170
C3601	C360	0.882730	0.941370	0.177170
H2611	H261	0.905730	0.952870	0.218670
O821	O82	0.234520	0.765480	0.501200
C3611	C361	0.176990	0.823010	0.358800
C3621	C362	0.215410	0.784590	0.455500
C3631	C363	0.253100	0.746900	0.441500
C3641	C364	0.274700	0.725300	0.489500
H2621	H262	0.286200	0.713800	0.448000
O831	O83	0.901190	0.098810	0.834530
C3651	C365	0.843660	0.156340	0.692130
C3661	C366	0.882080	0.117920	0.788830
C3671	C367	0.919770	0.080230	0.774830
C3681	C368	0.941370	0.058630	0.822830
H2631	H263	0.952870	0.047130	0.781330
O841	O84	0.567850	0.432150	0.167870
C3691	C369	0.510320	0.489680	0.025470
C3701	C370	0.548740	0.451260	0.122170
C3711	C371	0.586430	0.413570	0.108170
C3721	C372	0.608030	0.391970	0.156170
H2641	H264	0.619530	0.380470	0.114670
O851	O85	0.530960	0.765480	0.501200
C3731	C373	0.646020	0.823010	0.358800
C3741	C374	0.569180	0.784590	0.455500
C3751	C375	0.493800	0.746900	0.441500
C3761	C376	0.450600	0.725300	0.489500
H2651	H265	0.427600	0.713800	0.448000
O861	O86	0.197630	0.098810	0.834530
C3771	C377	0.312690	0.156340	0.692130
C3781	C378	0.235850	0.117920	0.788830
C3791	C379	0.160470	0.080230	0.774830
C3801	C380	0.117270	0.058630	0.822830
H2661	H266	0.094270	0.047130	0.781330
O871	O87	0.864290	0.432150	0.167870
C3811	C381	0.979350	0.489680	0.025470
C3821	C382	0.902510	0.451260	0.122170
C3831	C383	0.827130	0.413570	0.108170
C3841	C384	0.783930	0.391970	0.156170
H2671	H267	0.760930	0.380470	0.114670
O881	O88	0.234520	0.469040	0.501200
C3851	C385	0.176990	0.353980	0.358800
C3861	C386	0.215410	0.430820	0.455500
C3871	C387	0.253100	0.506200	0.441500
C3881	C388	0.274700	0.549400	0.489500
H2681	H268	0.286200	0.572400	0.448000
O891	O89	0.901190	0.802370	0.834530
C3891	C389	0.843660	0.687310	0.692130
C3901	C390	0.882080	0.764150	0.788830
C3911	C391	0.919770	0.839530	0.774830
C3921	C392	0.941370	0.882730	0.822830
H2691	H269	0.952870	0.905730	0.781330
O901	O90	0.567850	0.135710	0.167870
C3931	C393	0.510320	0.020650	0.025470
C3941	C394	0.548740	0.097490	0.122170
C3951	C395	0.586430	0.172870	0.108170
C3961	C396	0.608030	0.216070	0.156170
H2701	H270	0.619530	0.239070	0.114670
