data_UMODEH07_clean_PM
_symmetry_space_group_name_H-M	'P1'
_cell_length_a	35.296500
_cell_length_b	35.296500
_cell_length_c	20.992600
_cell_angle_alpha	90.000000
_cell_angle_beta	90.000000
_cell_angle_gamma	120.000000
_symmetry_Int_Tables_number 1

loop_
_symmetry_equiv_pos_as_xyz
'x,y,z'

loop_
_atom_site_label
_atom_site_type_symbol
_atom_site_fract_x
_atom_site_fract_y
_atom_site_fract_z
O11	O1	0.302440	0.190240	0.236660
O21	O2	0.278090	0.178270	0.135400
C11	C1	0.278220	0.190020	0.192030
C21	C2	0.246810	0.205460	0.208690
C31	C3	0.220160	0.208160	0.161980
H11	H1	0.221100	0.199500	0.120400
C41	C4	0.192120	0.223860	0.177760
H21	H2	0.174400	0.225600	0.146400
C51	C5	0.190210	0.236830	0.238800
C61	C6	0.216620	0.233540	0.285180
H31	H3	0.215400	0.241800	0.326900
C71	C7	0.244800	0.218080	0.269760
H41	H4	0.262400	0.216300	0.301200
C81	C8	0.162490	0.256290	0.256630
C91	C9	0.180180	0.293240	0.294020
H51	H5	0.209200	0.305400	0.306900
H61	H6	0.057400	0.159300	0.260900
H71	H7	0.039800	0.124000	0.160200
O31	O3	0.969110	0.523570	0.569990
O41	O4	0.944760	0.511600	0.468730
C101	C10	0.944890	0.523350	0.525360
C111	C11	0.913480	0.538790	0.542020
C121	C12	0.886830	0.541490	0.495310
H81	H8	0.887770	0.532830	0.453730
C131	C13	0.858790	0.557190	0.511090
H91	H9	0.841070	0.558930	0.479730
C141	C14	0.856880	0.570160	0.572130
C151	C15	0.883290	0.566870	0.618510
H101	H10	0.882070	0.575130	0.660230
C161	C16	0.911470	0.551410	0.603090
H111	H11	0.929070	0.549630	0.634530
C171	C17	0.829160	0.589620	0.589960
C181	C18	0.846850	0.626570	0.627350
H121	H12	0.875870	0.638730	0.640230
H131	H13	0.724070	0.492630	0.594230
H141	H14	0.706470	0.457330	0.493530
O51	O5	0.635770	0.856910	0.903330
O61	O6	0.611420	0.844940	0.802070
C191	C19	0.611550	0.856690	0.858700
C201	C20	0.580140	0.872130	0.875360
C211	C21	0.553490	0.874830	0.828650
H151	H15	0.554430	0.866170	0.787070
C221	C22	0.525450	0.890530	0.844430
H161	H16	0.507730	0.892270	0.813070
C231	C23	0.523540	0.903500	0.905470
C241	C24	0.549950	0.900210	0.951850
H171	H17	0.548730	0.908470	0.993570
C251	C25	0.578130	0.884750	0.936430
H181	H18	0.595730	0.882970	0.967870
C261	C26	0.495820	0.922960	0.923300
C271	C27	0.513510	0.959910	0.960690
H191	H19	0.542530	0.972070	0.973570
H201	H20	0.390730	0.825970	0.927570
H211	H21	0.373130	0.790670	0.826870
O71	O7	0.809760	0.112200	0.236660
O81	O8	0.821730	0.099820	0.135400
C281	C28	0.809980	0.088200	0.192030
C291	C29	0.794540	0.041350	0.208690
C301	C30	0.791840	0.012000	0.161980
H221	H22	0.800500	0.021600	0.120400
C311	C31	0.776140	0.968260	0.177760
H231	H23	0.774400	0.948800	0.146400
C321	C32	0.763170	0.953380	0.238800
C331	C33	0.766460	0.983080	0.285180
H241	H24	0.758200	0.973600	0.326900
C341	C34	0.781920	0.026720	0.269760
H251	H25	0.783700	0.046100	0.301200
C351	C35	0.743710	0.906200	0.256630
C361	C36	0.706760	0.886940	0.294020
H261	H26	0.694600	0.903800	0.306900
H271	H27	0.840700	0.898100	0.260900
H281	H28	0.876000	0.915800	0.160200
O91	O9	0.476430	0.445530	0.569990
O101	O10	0.488400	0.433150	0.468730
C371	C37	0.476650	0.421530	0.525360
C381	C38	0.461210	0.374680	0.542020
C391	C39	0.458510	0.345330	0.495310
H291	H29	0.467170	0.354930	0.453730
C401	C40	0.442810	0.301590	0.511090
H301	H30	0.441070	0.282130	0.479730
C411	C41	0.429840	0.286710	0.572130
C421	C42	0.433130	0.316410	0.618510
H311	H31	0.424870	0.306930	0.660230
C431	C43	0.448590	0.360050	0.603090
H321	H32	0.450370	0.379430	0.634530
C441	C44	0.410380	0.239530	0.589960
C451	C45	0.373430	0.220270	0.627350
H331	H33	0.361270	0.237130	0.640230
H341	H34	0.507370	0.231430	0.594230
H351	H35	0.542670	0.249130	0.493530
O111	O11	0.143090	0.778870	0.903330
O121	O12	0.155060	0.766490	0.802070
C461	C46	0.143310	0.754870	0.858700
C471	C47	0.127870	0.708020	0.875360
C481	C48	0.125170	0.678670	0.828650
H361	H36	0.133830	0.688270	0.787070
C491	C49	0.109470	0.634930	0.844430
H371	H37	0.107730	0.615470	0.813070
C501	C50	0.096500	0.620050	0.905470
C511	C51	0.099790	0.649750	0.951850
H381	H38	0.091530	0.640270	0.993570
C521	C52	0.115250	0.693390	0.936430
H391	H39	0.117030	0.712770	0.967870
C531	C53	0.077040	0.572870	0.923300
C541	C54	0.040090	0.553610	0.960690
H401	H40	0.027930	0.570470	0.973570
H411	H41	0.174030	0.564770	0.927570
H421	H42	0.209330	0.582470	0.826870
O131	O13	0.887800	0.697560	0.236660
O141	O14	0.900180	0.721910	0.135400
C551	C55	0.911800	0.721780	0.192030
C561	C56	0.958650	0.753190	0.208690
C571	C57	0.988000	0.779840	0.161980
H431	H43	0.978400	0.778900	0.120400
C581	C58	0.031740	0.807880	0.177760
H441	H44	0.051200	0.825600	0.146400
C591	C59	0.046620	0.809790	0.238800
C601	C60	0.016920	0.783380	0.285180
H451	H45	0.026400	0.784600	0.326900
C611	C61	0.973280	0.755200	0.269760
H461	H46	0.953900	0.737600	0.301200
C621	C62	0.093800	0.837510	0.256630
C631	C63	0.113060	0.819820	0.294020
H471	H47	0.096200	0.790800	0.306900
H481	H48	0.101900	0.942600	0.260900
H491	H49	0.084200	0.960200	0.160200
O151	O15	0.554470	0.030890	0.569990
O161	O16	0.566850	0.055240	0.468730
C641	C64	0.578470	0.055110	0.525360
C651	C65	0.625320	0.086520	0.542020
C661	C66	0.654670	0.113170	0.495310
H501	H50	0.645070	0.112230	0.453730
C671	C67	0.698410	0.141210	0.511090
H511	H51	0.717870	0.158930	0.479730
C681	C68	0.713290	0.143120	0.572130
C691	C69	0.683590	0.116710	0.618510
H521	H52	0.693070	0.117930	0.660230
C701	C70	0.639950	0.088530	0.603090
H531	H53	0.620570	0.070930	0.634530
C711	C71	0.760470	0.170840	0.589960
C721	C72	0.779730	0.153150	0.627350
H541	H54	0.762870	0.124130	0.640230
H551	H55	0.768570	0.275930	0.594230
H561	H56	0.750870	0.293530	0.493530
O171	O17	0.221130	0.364230	0.903330
O181	O18	0.233510	0.388580	0.802070
C731	C73	0.245130	0.388450	0.858700
C741	C74	0.291980	0.419860	0.875360
C751	C75	0.321330	0.446510	0.828650
H571	H57	0.311730	0.445570	0.787070
C761	C76	0.365070	0.474550	0.844430
H581	H58	0.384530	0.492270	0.813070
C771	C77	0.379950	0.476460	0.905470
C781	C78	0.350250	0.450050	0.951850
H591	H59	0.359730	0.451270	0.993570
C791	C79	0.306610	0.421870	0.936430
H601	H60	0.287230	0.404270	0.967870
C801	C80	0.427130	0.504180	0.923300
C811	C81	0.446390	0.486490	0.960690
H611	H61	0.429530	0.457470	0.973570
H621	H62	0.435230	0.609270	0.927570
H631	H63	0.417530	0.626870	0.826870
O191	O19	0.190240	0.302440	0.763340
O201	O20	0.178270	0.278090	0.864600
C821	C82	0.190020	0.278220	0.807970
C831	C83	0.205460	0.246810	0.791310
C841	C84	0.208160	0.220160	0.838020
H641	H64	0.199500	0.221100	0.879600
C851	C85	0.223860	0.192120	0.822240
H651	H65	0.225600	0.174400	0.853600
C861	C86	0.236830	0.190210	0.761200
C871	C87	0.233540	0.216620	0.714820
H661	H66	0.241800	0.215400	0.673100
C881	C88	0.218080	0.244800	0.730240
H671	H67	0.216300	0.262400	0.698800
C891	C89	0.256290	0.162490	0.743370
C901	C90	0.293240	0.180180	0.705980
H681	H68	0.305400	0.209200	0.693100
H691	H69	0.159300	0.057400	0.739100
H701	H70	0.124000	0.039800	0.839800
O211	O21	0.856910	0.635770	0.096670
O221	O22	0.844940	0.611420	0.197930
C911	C91	0.856690	0.611550	0.141300
C921	C92	0.872130	0.580140	0.124640
C931	C93	0.874830	0.553490	0.171350
H711	H71	0.866170	0.554430	0.212930
C941	C94	0.890530	0.525450	0.155570
H721	H72	0.892270	0.507730	0.186930
C951	C95	0.903500	0.523540	0.094530
C961	C96	0.900210	0.549950	0.048150
H731	H73	0.908470	0.548730	0.006430
C971	C97	0.884750	0.578130	0.063570
H741	H74	0.882970	0.595730	0.032130
C981	C98	0.922960	0.495820	0.076700
C991	C99	0.959910	0.513510	0.039310
H751	H75	0.972070	0.542530	0.026430
H761	H76	0.825970	0.390730	0.072430
H771	H77	0.790670	0.373130	0.173130
O231	O23	0.523570	0.969110	0.430010
O241	O24	0.511600	0.944760	0.531270
C1001	C100	0.523350	0.944890	0.474640
C1011	C101	0.538790	0.913480	0.457980
C1021	C102	0.541490	0.886830	0.504690
H781	H78	0.532830	0.887770	0.546270
C1031	C103	0.557190	0.858790	0.488910
H791	H79	0.558930	0.841070	0.520270
C1041	C104	0.570160	0.856880	0.427870
C1051	C105	0.566870	0.883290	0.381490
H801	H80	0.575130	0.882070	0.339770
C1061	C106	0.551410	0.911470	0.396910
H811	H81	0.549630	0.929070	0.365470
C1071	C107	0.589620	0.829160	0.410040
C1081	C108	0.626570	0.846850	0.372650
H821	H82	0.638730	0.875870	0.359770
H831	H83	0.492630	0.724070	0.405770
H841	H84	0.457330	0.706470	0.506470
O251	O25	0.112200	0.809760	0.763340
O261	O26	0.099820	0.821730	0.864600
C1091	C109	0.088200	0.809980	0.807970
C1101	C110	0.041350	0.794540	0.791310
C1111	C111	0.012000	0.791840	0.838020
H851	H85	0.021600	0.800500	0.879600
C1121	C112	0.968260	0.776140	0.822240
H861	H86	0.948800	0.774400	0.853600
C1131	C113	0.953380	0.763170	0.761200
C1141	C114	0.983080	0.766460	0.714820
H871	H87	0.973600	0.758200	0.673100
C1151	C115	0.026720	0.781920	0.730240
H881	H88	0.046100	0.783700	0.698800
C1161	C116	0.906200	0.743710	0.743370
C1171	C117	0.886940	0.706760	0.705980
H891	H89	0.903800	0.694600	0.693100
H901	H90	0.898100	0.840700	0.739100
H911	H91	0.915800	0.876000	0.839800
O271	O27	0.778870	0.143090	0.096670
O281	O28	0.766490	0.155060	0.197930
C1181	C118	0.754870	0.143310	0.141300
C1191	C119	0.708020	0.127870	0.124640
C1201	C120	0.678670	0.125170	0.171350
H921	H92	0.688270	0.133830	0.212930
C1211	C121	0.634930	0.109470	0.155570
H931	H93	0.615470	0.107730	0.186930
C1221	C122	0.620050	0.096500	0.094530
C1231	C123	0.649750	0.099790	0.048150
H941	H94	0.640270	0.091530	0.006430
C1241	C124	0.693390	0.115250	0.063570
H951	H95	0.712770	0.117030	0.032130
C1251	C125	0.572870	0.077040	0.076700
C1261	C126	0.553610	0.040090	0.039310
H961	H96	0.570470	0.027930	0.026430
H971	H97	0.564770	0.174030	0.072430
H981	H98	0.582470	0.209330	0.173130
O291	O29	0.445530	0.476430	0.430010
O301	O30	0.433150	0.488400	0.531270
C1271	C127	0.421530	0.476650	0.474640
C1281	C128	0.374680	0.461210	0.457980
C1291	C129	0.345330	0.458510	0.504690
H991	H99	0.354930	0.467170	0.546270
C1301	C130	0.301590	0.442810	0.488910
H1001	H100	0.282130	0.441070	0.520270
C1311	C131	0.286710	0.429840	0.427870
C1321	C132	0.316410	0.433130	0.381490
H1011	H101	0.306930	0.424870	0.339770
C1331	C133	0.360050	0.448590	0.396910
H1021	H102	0.379430	0.450370	0.365470
C1341	C134	0.239530	0.410380	0.410040
C1351	C135	0.220270	0.373430	0.372650
H1031	H103	0.237130	0.361270	0.359770
H1041	H104	0.231430	0.507370	0.405770
H1051	H105	0.249130	0.542670	0.506470
O311	O31	0.697560	0.887800	0.763340
O321	O32	0.721910	0.900180	0.864600
C1361	C136	0.721780	0.911800	0.807970
C1371	C137	0.753190	0.958650	0.791310
C1381	C138	0.779840	0.988000	0.838020
H1061	H106	0.778900	0.978400	0.879600
C1391	C139	0.807880	0.031740	0.822240
H1071	H107	0.825600	0.051200	0.853600
C1401	C140	0.809790	0.046620	0.761200
C1411	C141	0.783380	0.016920	0.714820
H1081	H108	0.784600	0.026400	0.673100
C1421	C142	0.755200	0.973280	0.730240
H1091	H109	0.737600	0.953900	0.698800
C1431	C143	0.837510	0.093800	0.743370
C1441	C144	0.819820	0.113060	0.705980
H1101	H110	0.790800	0.096200	0.693100
H1111	H111	0.942600	0.101900	0.739100
H1121	H112	0.960200	0.084200	0.839800
O331	O33	0.364230	0.221130	0.096670
O341	O34	0.388580	0.233510	0.197930
C1451	C145	0.388450	0.245130	0.141300
C1461	C146	0.419860	0.291980	0.124640
C1471	C147	0.446510	0.321330	0.171350
H1131	H113	0.445570	0.311730	0.212930
C1481	C148	0.474550	0.365070	0.155570
H1141	H114	0.492270	0.384530	0.186930
C1491	C149	0.476460	0.379950	0.094530
C1501	C150	0.450050	0.350250	0.048150
H1151	H115	0.451270	0.359730	0.006430
C1511	C151	0.421870	0.306610	0.063570
H1161	H116	0.404270	0.287230	0.032130
C1521	C152	0.504180	0.427130	0.076700
C1531	C153	0.486490	0.446390	0.039310
H1171	H117	0.457470	0.429530	0.026430
H1181	H118	0.609270	0.435230	0.072430
H1191	H119	0.626870	0.417530	0.173130
O351	O35	0.030890	0.554470	0.430010
O361	O36	0.055240	0.566850	0.531270
C1541	C154	0.055110	0.578470	0.474640
C1551	C155	0.086520	0.625320	0.457980
C1561	C156	0.113170	0.654670	0.504690
H1201	H120	0.112230	0.645070	0.546270
C1571	C157	0.141210	0.698410	0.488910
H1211	H121	0.158930	0.717870	0.520270
C1581	C158	0.143120	0.713290	0.427870
C1591	C159	0.116710	0.683590	0.381490
H1221	H122	0.117930	0.693070	0.339770
C1601	C160	0.088530	0.639950	0.396910
H1231	H123	0.070930	0.620570	0.365470
C1611	C161	0.170840	0.760470	0.410040
C1621	C162	0.153150	0.779730	0.372650
H1241	H124	0.124130	0.762870	0.359770
H1251	H125	0.275930	0.768570	0.405770
H1261	H126	0.293530	0.750870	0.506470
O371	O37	0.697560	0.809760	0.763340
O381	O38	0.721910	0.821730	0.864600
C1631	C163	0.721780	0.809980	0.807970
C1641	C164	0.753190	0.794540	0.791310
C1651	C165	0.779840	0.791840	0.838020
H1271	H127	0.778900	0.800500	0.879600
C1661	C166	0.807880	0.776140	0.822240
H1281	H128	0.825600	0.774400	0.853600
C1671	C167	0.809790	0.763170	0.761200
C1681	C168	0.783380	0.766460	0.714820
H1291	H129	0.784600	0.758200	0.673100
C1691	C169	0.755200	0.781920	0.730240
H1301	H130	0.737600	0.783700	0.698800
C1701	C170	0.837510	0.743710	0.743370
C1711	C171	0.819820	0.706760	0.705980
H1311	H131	0.790800	0.694600	0.693100
H1321	H132	0.942600	0.840700	0.739100
H1331	H133	0.960200	0.876000	0.839800
O391	O39	0.364230	0.143090	0.096670
O401	O40	0.388580	0.155060	0.197930
C1721	C172	0.388450	0.143310	0.141300
C1731	C173	0.419860	0.127870	0.124640
C1741	C174	0.446510	0.125170	0.171350
H1341	H134	0.445570	0.133830	0.212930
C1751	C175	0.474550	0.109470	0.155570
H1351	H135	0.492270	0.107730	0.186930
C1761	C176	0.476460	0.096500	0.094530
C1771	C177	0.450050	0.099790	0.048150
H1361	H136	0.451270	0.091530	0.006430
C1781	C178	0.421870	0.115250	0.063570
H1371	H137	0.404270	0.117030	0.032130
C1791	C179	0.504180	0.077040	0.076700
C1801	C180	0.486490	0.040090	0.039310
H1381	H138	0.457470	0.027930	0.026430
H1391	H139	0.609270	0.174030	0.072430
H1401	H140	0.626870	0.209330	0.173130
O411	O41	0.030890	0.476430	0.430010
O421	O42	0.055240	0.488400	0.531270
C1811	C181	0.055110	0.476650	0.474640
C1821	C182	0.086520	0.461210	0.457980
C1831	C183	0.113170	0.458510	0.504690
H1411	H141	0.112230	0.467170	0.546270
C1841	C184	0.141210	0.442810	0.488910
H1421	H142	0.158930	0.441070	0.520270
C1851	C185	0.143120	0.429840	0.427870
C1861	C186	0.116710	0.433130	0.381490
H1431	H143	0.117930	0.424870	0.339770
C1871	C187	0.088530	0.448590	0.396910
H1441	H144	0.070930	0.450370	0.365470
C1881	C188	0.170840	0.410380	0.410040
C1891	C189	0.153150	0.373430	0.372650
H1451	H145	0.124130	0.361270	0.359770
H1461	H146	0.275930	0.507370	0.405770
H1471	H147	0.293530	0.542670	0.506470
O431	O43	0.190240	0.887800	0.763340
O441	O44	0.178270	0.900180	0.864600
C1901	C190	0.190020	0.911800	0.807970
C1911	C191	0.205460	0.958650	0.791310
C1921	C192	0.208160	0.988000	0.838020
H1481	H148	0.199500	0.978400	0.879600
C1931	C193	0.223860	0.031740	0.822240
H1491	H149	0.225600	0.051200	0.853600
C1941	C194	0.236830	0.046620	0.761200
C1951	C195	0.233540	0.016920	0.714820
H1501	H150	0.241800	0.026400	0.673100
C1961	C196	0.218080	0.973280	0.730240
H1511	H151	0.216300	0.953900	0.698800
C1971	C197	0.256290	0.093800	0.743370
C1981	C198	0.293240	0.113060	0.705980
H1521	H152	0.305400	0.096200	0.693100
H1531	H153	0.159300	0.101900	0.739100
H1541	H154	0.124000	0.084200	0.839800
O451	O45	0.856910	0.221130	0.096670
O461	O46	0.844940	0.233510	0.197930
C1991	C199	0.856690	0.245130	0.141300
C2001	C200	0.872130	0.291980	0.124640
C2011	C201	0.874830	0.321330	0.171350
H1551	H155	0.866170	0.311730	0.212930
C2021	C202	0.890530	0.365070	0.155570
H1561	H156	0.892270	0.384530	0.186930
C2031	C203	0.903500	0.379950	0.094530
C2041	C204	0.900210	0.350250	0.048150
H1571	H157	0.908470	0.359730	0.006430
C2051	C205	0.884750	0.306610	0.063570
H1581	H158	0.882970	0.287230	0.032130
C2061	C206	0.922960	0.427130	0.076700
C2071	C207	0.959910	0.446390	0.039310
H1591	H159	0.972070	0.429530	0.026430
H1601	H160	0.825970	0.435230	0.072430
H1611	H161	0.790670	0.417530	0.173130
O471	O47	0.523570	0.554470	0.430010
O481	O48	0.511600	0.566850	0.531270
C2081	C208	0.523350	0.578470	0.474640
C2091	C209	0.538790	0.625320	0.457980
C2101	C210	0.541490	0.654670	0.504690
H1621	H162	0.532830	0.645070	0.546270
C2111	C211	0.557190	0.698410	0.488910
H1631	H163	0.558930	0.717870	0.520270
C2121	C212	0.570160	0.713290	0.427870
C2131	C213	0.566870	0.683590	0.381490
H1641	H164	0.575130	0.693070	0.339770
C2141	C214	0.551410	0.639950	0.396910
H1651	H165	0.549630	0.620570	0.365470
C2151	C215	0.589620	0.760470	0.410040
C2161	C216	0.626570	0.779730	0.372650
H1661	H166	0.638730	0.762870	0.359770
H1671	H167	0.492630	0.768570	0.405770
H1681	H168	0.457330	0.750870	0.506470
O491	O49	0.112200	0.302440	0.763340
O501	O50	0.099820	0.278090	0.864600
C2171	C217	0.088200	0.278220	0.807970
C2181	C218	0.041350	0.246810	0.791310
C2191	C219	0.012000	0.220160	0.838020
H1691	H169	0.021600	0.221100	0.879600
C2201	C220	0.968260	0.192120	0.822240
H1701	H170	0.948800	0.174400	0.853600
C2211	C221	0.953380	0.190210	0.761200
C2221	C222	0.983080	0.216620	0.714820
H1711	H171	0.973600	0.215400	0.673100
C2231	C223	0.026720	0.244800	0.730240
H1721	H172	0.046100	0.262400	0.698800
C2241	C224	0.906200	0.162490	0.743370
C2251	C225	0.886940	0.180180	0.705980
H1731	H173	0.903800	0.209200	0.693100
H1741	H174	0.898100	0.057400	0.739100
H1751	H175	0.915800	0.039800	0.839800
O511	O51	0.778870	0.635770	0.096670
O521	O52	0.766490	0.611420	0.197930
C2261	C226	0.754870	0.611550	0.141300
C2271	C227	0.708020	0.580140	0.124640
C2281	C228	0.678670	0.553490	0.171350
H1761	H176	0.688270	0.554430	0.212930
C2291	C229	0.634930	0.525450	0.155570
H1771	H177	0.615470	0.507730	0.186930
C2301	C230	0.620050	0.523540	0.094530
C2311	C231	0.649750	0.549950	0.048150
H1781	H178	0.640270	0.548730	0.006430
C2321	C232	0.693390	0.578130	0.063570
H1791	H179	0.712770	0.595730	0.032130
C2331	C233	0.572870	0.495820	0.076700
C2341	C234	0.553610	0.513510	0.039310
H1801	H180	0.570470	0.542530	0.026430
H1811	H181	0.564770	0.390730	0.072430
H1821	H182	0.582470	0.373130	0.173130
O531	O53	0.445530	0.969110	0.430010
O541	O54	0.433150	0.944760	0.531270
C2351	C235	0.421530	0.944890	0.474640
C2361	C236	0.374680	0.913480	0.457980
C2371	C237	0.345330	0.886830	0.504690
H1831	H183	0.354930	0.887770	0.546270
C2381	C238	0.301590	0.858790	0.488910
H1841	H184	0.282130	0.841070	0.520270
C2391	C239	0.286710	0.856880	0.427870
C2401	C240	0.316410	0.883290	0.381490
H1851	H185	0.306930	0.882070	0.339770
C2411	C241	0.360050	0.911470	0.396910
H1861	H186	0.379430	0.929070	0.365470
C2421	C242	0.239530	0.829160	0.410040
C2431	C243	0.220270	0.846850	0.372650
H1871	H187	0.237130	0.875870	0.359770
H1881	H188	0.231430	0.724070	0.405770
H1891	H189	0.249130	0.706470	0.506470
O551	O55	0.809760	0.697560	0.236660
O561	O56	0.821730	0.721910	0.135400
C2441	C244	0.809980	0.721780	0.192030
C2451	C245	0.794540	0.753190	0.208690
C2461	C246	0.791840	0.779840	0.161980
H1901	H190	0.800500	0.778900	0.120400
C2471	C247	0.776140	0.807880	0.177760
H1911	H191	0.774400	0.825600	0.146400
C2481	C248	0.763170	0.809790	0.238800
C2491	C249	0.766460	0.783380	0.285180
H1921	H192	0.758200	0.784600	0.326900
C2501	C250	0.781920	0.755200	0.269760
H1931	H193	0.783700	0.737600	0.301200
C2511	C251	0.743710	0.837510	0.256630
C2521	C252	0.706760	0.819820	0.294020
H1941	H194	0.694600	0.790800	0.306900
H1951	H195	0.840700	0.942600	0.260900
H1961	H196	0.876000	0.960200	0.160200
O571	O57	0.476430	0.030890	0.569990
O581	O58	0.488400	0.055240	0.468730
C2531	C253	0.476650	0.055110	0.525360
C2541	C254	0.461210	0.086520	0.542020
C2551	C255	0.458510	0.113170	0.495310
H1971	H197	0.467170	0.112230	0.453730
C2561	C256	0.442810	0.141210	0.511090
H1981	H198	0.441070	0.158930	0.479730
C2571	C257	0.429840	0.143120	0.572130
C2581	C258	0.433130	0.116710	0.618510
H1991	H199	0.424870	0.117930	0.660230
C2591	C259	0.448590	0.088530	0.603090
H2001	H200	0.450370	0.070930	0.634530
C2601	C260	0.410380	0.170840	0.589960
C2611	C261	0.373430	0.153150	0.627350
H2011	H201	0.361270	0.124130	0.640230
H2021	H202	0.507370	0.275930	0.594230
H2031	H203	0.542670	0.293530	0.493530
O591	O59	0.143090	0.364230	0.903330
O601	O60	0.155060	0.388580	0.802070
C2621	C262	0.143310	0.388450	0.858700
C2631	C263	0.127870	0.419860	0.875360
C2641	C264	0.125170	0.446510	0.828650
H2041	H204	0.133830	0.445570	0.787070
C2651	C265	0.109470	0.474550	0.844430
H2051	H205	0.107730	0.492270	0.813070
C2661	C266	0.096500	0.476460	0.905470
C2671	C267	0.099790	0.450050	0.951850
H2061	H206	0.091530	0.451270	0.993570
C2681	C268	0.115250	0.421870	0.936430
H2071	H207	0.117030	0.404270	0.967870
C2691	C269	0.077040	0.504180	0.923300
C2701	C270	0.040090	0.486490	0.960690
H2081	H208	0.027930	0.457470	0.973570
H2091	H209	0.174030	0.609270	0.927570
H2101	H210	0.209330	0.626870	0.826870
O611	O61	0.887800	0.190240	0.236660
O621	O62	0.900180	0.178270	0.135400
C2711	C271	0.911800	0.190020	0.192030
C2721	C272	0.958650	0.205460	0.208690
C2731	C273	0.988000	0.208160	0.161980
H2111	H211	0.978400	0.199500	0.120400
C2741	C274	0.031740	0.223860	0.177760
H2121	H212	0.051200	0.225600	0.146400
C2751	C275	0.046620	0.236830	0.238800
C2761	C276	0.016920	0.233540	0.285180
H2131	H213	0.026400	0.241800	0.326900
C2771	C277	0.973280	0.218080	0.269760
H2141	H214	0.953900	0.216300	0.301200
C2781	C278	0.093800	0.256290	0.256630
C2791	C279	0.113060	0.293240	0.294020
H2151	H215	0.096200	0.305400	0.306900
H2161	H216	0.101900	0.159300	0.260900
H2171	H217	0.084200	0.124000	0.160200
O631	O63	0.554470	0.523570	0.569990
O641	O64	0.566850	0.511600	0.468730
C2801	C280	0.578470	0.523350	0.525360
C2811	C281	0.625320	0.538790	0.542020
C2821	C282	0.654670	0.541490	0.495310
H2181	H218	0.645070	0.532830	0.453730
C2831	C283	0.698410	0.557190	0.511090
H2191	H219	0.717870	0.558930	0.479730
C2841	C284	0.713290	0.570160	0.572130
C2851	C285	0.683590	0.566870	0.618510
H2201	H220	0.693070	0.575130	0.660230
C2861	C286	0.639950	0.551410	0.603090
H2211	H221	0.620570	0.549630	0.634530
C2871	C287	0.760470	0.589620	0.589960
C2881	C288	0.779730	0.626570	0.627350
H2221	H222	0.762870	0.638730	0.640230
H2231	H223	0.768570	0.492630	0.594230
H2241	H224	0.750870	0.457330	0.493530
O651	O65	0.221130	0.856910	0.903330
O661	O66	0.233510	0.844940	0.802070
C2891	C289	0.245130	0.856690	0.858700
C2901	C290	0.291980	0.872130	0.875360
C2911	C291	0.321330	0.874830	0.828650
H2251	H225	0.311730	0.866170	0.787070
C2921	C292	0.365070	0.890530	0.844430
H2261	H226	0.384530	0.892270	0.813070
C2931	C293	0.379950	0.903500	0.905470
C2941	C294	0.350250	0.900210	0.951850
H2271	H227	0.359730	0.908470	0.993570
C2951	C295	0.306610	0.884750	0.936430
H2281	H228	0.287230	0.882970	0.967870
C2961	C296	0.427130	0.922960	0.923300
C2971	C297	0.446390	0.959910	0.960690
H2291	H229	0.429530	0.972070	0.973570
H2301	H230	0.435230	0.825970	0.927570
H2311	H231	0.417530	0.790670	0.826870
O671	O67	0.302440	0.112200	0.236660
O681	O68	0.278090	0.099820	0.135400
C2981	C298	0.278220	0.088200	0.192030
C2991	C299	0.246810	0.041350	0.208690
C3001	C300	0.220160	0.012000	0.161980
H2321	H232	0.221100	0.021600	0.120400
C3011	C301	0.192120	0.968260	0.177760
H2331	H233	0.174400	0.948800	0.146400
C3021	C302	0.190210	0.953380	0.238800
C3031	C303	0.216620	0.983080	0.285180
H2341	H234	0.215400	0.973600	0.326900
C3041	C304	0.244800	0.026720	0.269760
H2351	H235	0.262400	0.046100	0.301200
C3051	C305	0.162490	0.906200	0.256630
C3061	C306	0.180180	0.886940	0.294020
H2361	H236	0.209200	0.903800	0.306900
H2371	H237	0.057400	0.898100	0.260900
H2381	H238	0.039800	0.915800	0.160200
O691	O69	0.969110	0.445530	0.569990
O701	O70	0.944760	0.433150	0.468730
C3071	C307	0.944890	0.421530	0.525360
C3081	C308	0.913480	0.374680	0.542020
C3091	C309	0.886830	0.345330	0.495310
H2391	H239	0.887770	0.354930	0.453730
C3101	C310	0.858790	0.301590	0.511090
H2401	H240	0.841070	0.282130	0.479730
C3111	C311	0.856880	0.286710	0.572130
C3121	C312	0.883290	0.316410	0.618510
H2411	H241	0.882070	0.306930	0.660230
C3131	C313	0.911470	0.360050	0.603090
H2421	H242	0.929070	0.379430	0.634530
C3141	C314	0.829160	0.239530	0.589960
C3151	C315	0.846850	0.220270	0.627350
H2431	H243	0.875870	0.237130	0.640230
H2441	H244	0.724070	0.231430	0.594230
H2451	H245	0.706470	0.249130	0.493530
O711	O71	0.635770	0.778870	0.903330
O721	O72	0.611420	0.766490	0.802070
C3161	C316	0.611550	0.754870	0.858700
C3171	C317	0.580140	0.708020	0.875360
C3181	C318	0.553490	0.678670	0.828650
H2461	H246	0.554430	0.688270	0.787070
C3191	C319	0.525450	0.634930	0.844430
H2471	H247	0.507730	0.615470	0.813070
C3201	C320	0.523540	0.620050	0.905470
C3211	C321	0.549950	0.649750	0.951850
H2481	H248	0.548730	0.640270	0.993570
C3221	C322	0.578130	0.693390	0.936430
H2491	H249	0.595730	0.712770	0.967870
C3231	C323	0.495820	0.572870	0.923300
C3241	C324	0.513510	0.553610	0.960690
H2501	H250	0.542530	0.570470	0.973570
H2511	H251	0.390730	0.564770	0.927570
H2521	H252	0.373130	0.582470	0.826870
Cu11	Cu1	0.319310	0.159650	0.107280
Cu21	Cu2	0.985980	0.492990	0.440610
Cu31	Cu3	0.652640	0.826320	0.773950
Cu41	Cu4	0.840340	0.159660	0.107280
Cu51	Cu5	0.507010	0.492990	0.440610
Cu61	Cu6	0.173680	0.826320	0.773950
Cu71	Cu7	0.840340	0.680690	0.107280
Cu81	Cu8	0.507010	0.014020	0.440610
Cu91	Cu9	0.173680	0.347360	0.773950
Cu101	Cu10	0.159660	0.319310	0.892720
Cu111	Cu11	0.826320	0.652640	0.226050
Cu121	Cu12	0.492990	0.985980	0.559390
Cu131	Cu13	0.159660	0.840340	0.892720
Cu141	Cu14	0.826320	0.173680	0.226050
Cu151	Cu15	0.492990	0.507010	0.559390
Cu161	Cu16	0.680690	0.840340	0.892720
Cu171	Cu17	0.347360	0.173680	0.226050
Cu181	Cu18	0.014020	0.507010	0.559390
O731	O73	0.100290	0.200570	0.199530
C3251	C325	0.156680	0.313360	0.313600
C3261	C326	0.118660	0.237320	0.237810
C3271	C327	0.080440	0.160870	0.233900
C3281	C328	0.061200	0.122400	0.186500
H2531	H253	0.047650	0.095300	0.209600
O741	O74	0.766950	0.533900	0.532860
C3291	C329	0.823350	0.646690	0.646930
C3301	C330	0.785330	0.570650	0.571140
C3311	C331	0.747100	0.494200	0.567230
C3321	C332	0.727870	0.455730	0.519830
H2541	H254	0.714320	0.428630	0.542930
O751	O75	0.433620	0.867240	0.866200
C3331	C333	0.490010	0.980030	0.980270
C3341	C334	0.451990	0.903990	0.904480
C3351	C335	0.413770	0.827540	0.900570
C3361	C336	0.394530	0.789070	0.853170
H2551	H255	0.380980	0.761970	0.876270
O761	O76	0.799430	0.899710	0.199530
C3371	C337	0.686640	0.843320	0.313600
C3381	C338	0.762680	0.881340	0.237810
C3391	C339	0.839130	0.919570	0.233900
C3401	C340	0.877600	0.938800	0.186500
H2561	H256	0.904700	0.952350	0.209600
O771	O77	0.466100	0.233050	0.532860
C3411	C341	0.353310	0.176650	0.646930
C3421	C342	0.429350	0.214670	0.571140
C3431	C343	0.505800	0.252900	0.567230
C3441	C344	0.544270	0.272130	0.519830
H2571	H257	0.571370	0.285680	0.542930
O781	O78	0.132760	0.566380	0.866200
C3451	C345	0.019970	0.509990	0.980270
C3461	C346	0.096010	0.548010	0.904480
C3471	C347	0.172460	0.586230	0.900570
C3481	C348	0.210930	0.605470	0.853170
H2581	H258	0.238030	0.619020	0.876270
O791	O79	0.100290	0.899710	0.199530
C3491	C349	0.156680	0.843320	0.313600
C3501	C350	0.118660	0.881340	0.237810
C3511	C351	0.080440	0.919560	0.233900
C3521	C352	0.061200	0.938800	0.186500
H2591	H259	0.047650	0.952350	0.209600
O801	O80	0.766950	0.233050	0.532860
C3531	C353	0.823350	0.176650	0.646930
C3541	C354	0.785330	0.214670	0.571140
C3551	C355	0.747100	0.252900	0.567230
C3561	C356	0.727870	0.272130	0.519830
H2601	H260	0.714320	0.285680	0.542930
O811	O81	0.433620	0.566380	0.866200
C3571	C357	0.490010	0.509990	0.980270
C3581	C358	0.451990	0.548010	0.904480
C3591	C359	0.413770	0.586230	0.900570
C3601	C360	0.394530	0.605470	0.853170
H2611	H261	0.380980	0.619020	0.876270
O821	O82	0.200570	0.100290	0.800470
C3611	C361	0.313360	0.156680	0.686400
C3621	C362	0.237320	0.118660	0.762190
C3631	C363	0.160870	0.080440	0.766100
C3641	C364	0.122400	0.061200	0.813500
H2621	H262	0.095300	0.047650	0.790400
O831	O83	0.867240	0.433620	0.133800
C3651	C365	0.980030	0.490010	0.019730
C3661	C366	0.903990	0.451990	0.095520
C3671	C367	0.827540	0.413770	0.099430
C3681	C368	0.789070	0.394530	0.146830
H2631	H263	0.761970	0.380980	0.123730
O841	O84	0.533900	0.766950	0.467140
C3691	C369	0.646690	0.823350	0.353070
C3701	C370	0.570650	0.785330	0.428860
C3711	C371	0.494200	0.747100	0.432770
C3721	C372	0.455730	0.727870	0.480170
H2641	H264	0.428630	0.714320	0.457070
O851	O85	0.899710	0.799430	0.800470
C3731	C373	0.843320	0.686640	0.686400
C3741	C374	0.881340	0.762680	0.762190
C3751	C375	0.919560	0.839130	0.766100
C3761	C376	0.938800	0.877600	0.813500
H2651	H265	0.952350	0.904700	0.790400
O861	O86	0.566380	0.132760	0.133800
C3771	C377	0.509990	0.019970	0.019730
C3781	C378	0.548010	0.096010	0.095520
C3791	C379	0.586230	0.172460	0.099430
C3801	C380	0.605470	0.210930	0.146830
H2661	H266	0.619020	0.238030	0.123730
O871	O87	0.233050	0.466100	0.467140
C3811	C381	0.176650	0.353310	0.353070
C3821	C382	0.214670	0.429350	0.428860
C3831	C383	0.252900	0.505800	0.432770
C3841	C384	0.272130	0.544270	0.480170
H2671	H267	0.285680	0.571370	0.457070
O881	O88	0.899710	0.100290	0.800470
C3851	C385	0.843320	0.156680	0.686400
C3861	C386	0.881340	0.118660	0.762190
C3871	C387	0.919560	0.080440	0.766100
C3881	C388	0.938800	0.061200	0.813500
H2681	H268	0.952350	0.047650	0.790400
O891	O89	0.566380	0.433620	0.133800
C3891	C389	0.509990	0.490010	0.019730
C3901	C390	0.548010	0.451990	0.095520
C3911	C391	0.586230	0.413770	0.099430
C3921	C392	0.605470	0.394530	0.146830
H2691	H269	0.619020	0.380980	0.123730
O901	O90	0.233050	0.766950	0.467140
C3931	C393	0.176650	0.823350	0.353070
C3941	C394	0.214670	0.785330	0.428860
C3951	C395	0.252900	0.747100	0.432770
C3961	C396	0.272130	0.727870	0.480170
H2701	H270	0.285680	0.714320	0.457070
