data_UMODEH16_clean_PM
_symmetry_space_group_name_H-M	'P1'
_cell_length_a	34.608400
_cell_length_b	34.608400
_cell_length_c	25.718100
_cell_angle_alpha	90.000000
_cell_angle_beta	90.000000
_cell_angle_gamma	120.000000
_symmetry_Int_Tables_number 1

loop_
_symmetry_equiv_pos_as_xyz
'x,y,z'

loop_
_atom_site_label
_atom_site_type_symbol
_atom_site_fract_x
_atom_site_fract_y
_atom_site_fract_z
O11	O1	0.641490	0.780840	0.397240
O21	O2	0.609390	0.764360	0.318320
C11	C1	0.613700	0.754940	0.363790
C21	C2	0.583200	0.707900	0.381730
C31	C3	0.554560	0.676160	0.346540
H11	H1	0.554000	0.684300	0.311400
C41	C4	0.526740	0.632500	0.362510
H21	H2	0.507600	0.610900	0.337900
C51	C5	0.526410	0.619780	0.414130
C61	C6	0.555480	0.651960	0.448160
H31	H3	0.556200	0.644200	0.483400
C71	C7	0.583750	0.695620	0.432010
H41	H4	0.603600	0.717100	0.456200
C81	C8	0.497720	0.572730	0.431590
C91	C9	0.514960	0.553850	0.464210
H51	H5	0.545000	0.571400	0.475400
H61	H6	0.435900	0.610700	0.431200
H71	H7	0.375600	0.578200	0.345900
O31	O3	0.308160	0.114170	0.730570
O41	O4	0.276060	0.097690	0.651650
C101	C10	0.280370	0.088270	0.697120
C111	C11	0.249870	0.041230	0.715060
C121	C12	0.221230	0.009490	0.679870
H81	H8	0.220670	0.017630	0.644730
C131	C13	0.193410	0.965830	0.695840
H91	H9	0.174270	0.944230	0.671230
C141	C14	0.193080	0.953110	0.747460
C151	C15	0.222150	0.985290	0.781490
H101	H10	0.222870	0.977530	0.816730
C161	C16	0.250420	0.028950	0.765340
H111	H11	0.270270	0.050430	0.789530
C171	C17	0.164390	0.906060	0.764920
C181	C18	0.181630	0.887180	0.797540
H121	H12	0.211670	0.904730	0.808730
H131	H13	0.102570	0.944030	0.764530
H141	H14	0.042270	0.911530	0.679230
O51	O5	0.974820	0.447510	0.063910
O61	O6	0.942720	0.431030	0.984990
C191	C19	0.947030	0.421610	0.030460
C201	C20	0.916530	0.374570	0.048400
C211	C21	0.887890	0.342830	0.013210
H151	H15	0.887330	0.350970	0.978070
C221	C22	0.860070	0.299170	0.029180
H161	H16	0.840930	0.277570	0.004570
C231	C23	0.859740	0.286450	0.080800
C241	C24	0.888810	0.318630	0.114830
H171	H17	0.889530	0.310870	0.150070
C251	C25	0.917080	0.362290	0.098680
H181	H18	0.936930	0.383770	0.122870
C261	C26	0.831050	0.239400	0.098260
C271	C27	0.848290	0.220520	0.130880
H191	H19	0.878330	0.238070	0.142070
H201	H20	0.769230	0.277370	0.097870
H211	H21	0.708930	0.244870	0.012570
O71	O7	0.219160	0.860650	0.397240
O81	O8	0.235640	0.845030	0.318320
C281	C28	0.245060	0.858760	0.363790
C291	C29	0.292100	0.875300	0.381730
C301	C30	0.323840	0.878400	0.346540
H221	H22	0.315700	0.869700	0.311400
C311	C31	0.367500	0.894240	0.362510
H231	H23	0.389100	0.896700	0.337900
C321	C32	0.380220	0.906630	0.414130
C331	C33	0.348040	0.903520	0.448160
H241	H24	0.355800	0.912000	0.483400
C341	C34	0.304380	0.888130	0.432010
H251	H25	0.282900	0.886500	0.456200
C351	C35	0.427270	0.924990	0.431590
C361	C36	0.446150	0.961110	0.464210
H261	H26	0.428600	0.973600	0.475400
H271	H27	0.389300	0.825200	0.431200
H281	H28	0.421800	0.797400	0.345900
O91	O9	0.885830	0.193980	0.730570
O101	O10	0.902310	0.178360	0.651650
C371	C37	0.911730	0.192090	0.697120
C381	C38	0.958770	0.208630	0.715060
C391	C39	0.990510	0.211730	0.679870
H291	H29	0.982370	0.203030	0.644730
C401	C40	0.034170	0.227570	0.695840
H301	H30	0.055770	0.230030	0.671230
C411	C41	0.046890	0.239960	0.747460
C421	C42	0.014710	0.236850	0.781490
H311	H31	0.022470	0.245330	0.816730
C431	C43	0.971050	0.221460	0.765340
H321	H32	0.949570	0.219830	0.789530
C441	C44	0.093940	0.258320	0.764920
C451	C45	0.112820	0.294440	0.797540
H331	H33	0.095270	0.306930	0.808730
H341	H34	0.055970	0.158530	0.764530
H351	H35	0.088470	0.130730	0.679230
O111	O11	0.552490	0.527320	0.063910
O121	O12	0.568970	0.511700	0.984990
C461	C46	0.578390	0.525430	0.030460
C471	C47	0.625430	0.541970	0.048400
C481	C48	0.657170	0.545070	0.013210
H361	H36	0.649030	0.536370	0.978070
C491	C49	0.700830	0.560910	0.029180
H371	H37	0.722430	0.563370	0.004570
C501	C50	0.713550	0.573300	0.080800
C511	C51	0.681370	0.570190	0.114830
H381	H38	0.689130	0.578670	0.150070
C521	C52	0.637710	0.554800	0.098680
H391	H39	0.616230	0.553170	0.122870
C531	C53	0.760600	0.591660	0.098260
C541	C54	0.779480	0.627780	0.130880
H401	H40	0.761930	0.640270	0.142070
H411	H41	0.722630	0.491870	0.097870
H421	H42	0.755130	0.464070	0.012570
O131	O13	0.139350	0.358510	0.397240
O141	O14	0.154970	0.390610	0.318320
C551	C55	0.141240	0.386300	0.363790
C561	C56	0.124700	0.416800	0.381730
C571	C57	0.121600	0.445440	0.346540
H431	H43	0.130300	0.446000	0.311400
C581	C58	0.105760	0.473260	0.362510
H441	H44	0.103300	0.492400	0.337900
C591	C59	0.093370	0.473590	0.414130
C601	C60	0.096480	0.444520	0.448160
H451	H45	0.088000	0.443800	0.483400
C611	C61	0.111870	0.416250	0.432010
H461	H46	0.113500	0.396400	0.456200
C621	C62	0.075010	0.502280	0.431590
C631	C63	0.038890	0.485040	0.464210
H471	H47	0.026400	0.455000	0.475400
H481	H48	0.174800	0.564100	0.431200
H491	H49	0.202600	0.624400	0.345900
O151	O15	0.806020	0.691840	0.730570
O161	O16	0.821640	0.723940	0.651650
C641	C64	0.807910	0.719630	0.697120
C651	C65	0.791370	0.750130	0.715060
C661	C66	0.788270	0.778770	0.679870
H501	H50	0.796970	0.779330	0.644730
C671	C67	0.772430	0.806590	0.695840
H511	H51	0.769970	0.825730	0.671230
C681	C68	0.760040	0.806920	0.747460
C691	C69	0.763150	0.777850	0.781490
H521	H52	0.754670	0.777130	0.816730
C701	C70	0.778540	0.749580	0.765340
H531	H53	0.780170	0.729730	0.789530
C711	C71	0.741680	0.835610	0.764920
C721	C72	0.705560	0.818370	0.797540
H541	H54	0.693070	0.788330	0.808730
H551	H55	0.841470	0.897430	0.764530
H561	H56	0.869270	0.957730	0.679230
O171	O17	0.472680	0.025180	0.063910
O181	O18	0.488300	0.057280	0.984990
C731	C73	0.474570	0.052970	0.030460
C741	C74	0.458030	0.083470	0.048400
C751	C75	0.454930	0.112110	0.013210
H571	H57	0.463630	0.112670	0.978070
C761	C76	0.439090	0.139930	0.029180
H581	H58	0.436630	0.159070	0.004570
C771	C77	0.426700	0.140260	0.080800
C781	C78	0.429810	0.111190	0.114830
H591	H59	0.421330	0.110470	0.150070
C791	C79	0.445200	0.082920	0.098680
H601	H60	0.446830	0.063070	0.122870
C801	C80	0.408340	0.168950	0.098260
C811	C81	0.372220	0.151710	0.130880
H611	H61	0.359730	0.121670	0.142070
H621	H62	0.508130	0.230770	0.097870
H631	H63	0.535930	0.291070	0.012570
O191	O19	0.780840	0.641490	0.602760
O201	O20	0.764360	0.609390	0.681680
C821	C82	0.754940	0.613700	0.636210
C831	C83	0.707900	0.583200	0.618270
C841	C84	0.676160	0.554560	0.653460
H641	H64	0.684300	0.554000	0.688600
C851	C85	0.632500	0.526740	0.637490
H651	H65	0.610900	0.507600	0.662100
C861	C86	0.619780	0.526410	0.585870
C871	C87	0.651960	0.555480	0.551840
H661	H66	0.644200	0.556200	0.516600
C881	C88	0.695620	0.583750	0.567990
H671	H67	0.717100	0.603600	0.543800
C891	C89	0.572730	0.497720	0.568410
C901	C90	0.553850	0.514960	0.535790
H681	H68	0.571400	0.545000	0.524600
H691	H69	0.610700	0.435900	0.568800
H701	H70	0.578200	0.375600	0.654100
O211	O21	0.447510	0.974820	0.936090
O221	O22	0.431030	0.942720	0.015010
C911	C91	0.421610	0.947030	0.969540
C921	C92	0.374570	0.916530	0.951600
C931	C93	0.342830	0.887890	0.986790
H711	H71	0.350970	0.887330	0.021930
C941	C94	0.299170	0.860070	0.970820
H721	H72	0.277570	0.840930	0.995430
C951	C95	0.286450	0.859740	0.919200
C961	C96	0.318630	0.888810	0.885170
H731	H73	0.310870	0.889530	0.849930
C971	C97	0.362290	0.917080	0.901320
H741	H74	0.383770	0.936930	0.877130
C981	C98	0.239400	0.831050	0.901740
C991	C99	0.220520	0.848290	0.869120
H751	H75	0.238070	0.878330	0.857930
H761	H76	0.277370	0.769230	0.902130
H771	H77	0.244870	0.708930	0.987430
O231	O23	0.114170	0.308160	0.269430
O241	O24	0.097690	0.276060	0.348350
C1001	C100	0.088270	0.280370	0.302880
C1011	C101	0.041230	0.249870	0.284940
C1021	C102	0.009490	0.221230	0.320130
H781	H78	0.017630	0.220670	0.355270
C1031	C103	0.965830	0.193410	0.304160
H791	H79	0.944230	0.174270	0.328770
C1041	C104	0.953110	0.193080	0.252540
C1051	C105	0.985290	0.222150	0.218510
H801	H80	0.977530	0.222870	0.183270
C1061	C106	0.028950	0.250420	0.234660
H811	H81	0.050430	0.270270	0.210470
C1071	C107	0.906060	0.164390	0.235080
C1081	C108	0.887180	0.181630	0.202460
H821	H82	0.904730	0.211670	0.191270
H831	H83	0.944030	0.102570	0.235470
H841	H84	0.911530	0.042270	0.320770
O251	O25	0.860650	0.219160	0.602760
O261	O26	0.845030	0.235640	0.681680
C1091	C109	0.858760	0.245060	0.636210
C1101	C110	0.875300	0.292100	0.618270
C1111	C111	0.878400	0.323840	0.653460
H851	H85	0.869700	0.315700	0.688600
C1121	C112	0.894240	0.367500	0.637490
H861	H86	0.896700	0.389100	0.662100
C1131	C113	0.906630	0.380220	0.585870
C1141	C114	0.903520	0.348040	0.551840
H871	H87	0.912000	0.355800	0.516600
C1151	C115	0.888130	0.304380	0.567990
H881	H88	0.886500	0.282900	0.543800
C1161	C116	0.924990	0.427270	0.568410
C1171	C117	0.961110	0.446150	0.535790
H891	H89	0.973600	0.428600	0.524600
H901	H90	0.825200	0.389300	0.568800
H911	H91	0.797400	0.421800	0.654100
O271	O27	0.527320	0.552490	0.936090
O281	O28	0.511700	0.568970	0.015010
C1181	C118	0.525430	0.578390	0.969540
C1191	C119	0.541970	0.625430	0.951600
C1201	C120	0.545070	0.657170	0.986790
H921	H92	0.536370	0.649030	0.021930
C1211	C121	0.560910	0.700830	0.970820
H931	H93	0.563370	0.722430	0.995430
C1221	C122	0.573300	0.713550	0.919200
C1231	C123	0.570190	0.681370	0.885170
H941	H94	0.578670	0.689130	0.849930
C1241	C124	0.554800	0.637710	0.901320
H951	H95	0.553170	0.616230	0.877130
C1251	C125	0.591660	0.760600	0.901740
C1261	C126	0.627780	0.779480	0.869120
H961	H96	0.640270	0.761930	0.857930
H971	H97	0.491870	0.722630	0.902130
H981	H98	0.464070	0.755130	0.987430
O291	O29	0.193980	0.885830	0.269430
O301	O30	0.178360	0.902310	0.348350
C1271	C127	0.192090	0.911730	0.302880
C1281	C128	0.208630	0.958770	0.284940
C1291	C129	0.211730	0.990510	0.320130
H991	H99	0.203030	0.982370	0.355270
C1301	C130	0.227570	0.034170	0.304160
H1001	H100	0.230030	0.055770	0.328770
C1311	C131	0.239960	0.046890	0.252540
C1321	C132	0.236850	0.014710	0.218510
H1011	H101	0.245330	0.022470	0.183270
C1331	C133	0.221460	0.971050	0.234660
H1021	H102	0.219830	0.949570	0.210470
C1341	C134	0.258320	0.093940	0.235080
C1351	C135	0.294440	0.112820	0.202460
H1031	H103	0.306930	0.095270	0.191270
H1041	H104	0.158530	0.055970	0.235470
H1051	H105	0.130730	0.088470	0.320770
O311	O31	0.358510	0.139350	0.602760
O321	O32	0.390610	0.154970	0.681680
C1361	C136	0.386300	0.141240	0.636210
C1371	C137	0.416800	0.124700	0.618270
C1381	C138	0.445440	0.121600	0.653460
H1061	H106	0.446000	0.130300	0.688600
C1391	C139	0.473260	0.105760	0.637490
H1071	H107	0.492400	0.103300	0.662100
C1401	C140	0.473590	0.093370	0.585870
C1411	C141	0.444520	0.096480	0.551840
H1081	H108	0.443800	0.088000	0.516600
C1421	C142	0.416250	0.111870	0.567990
H1091	H109	0.396400	0.113500	0.543800
C1431	C143	0.502280	0.075010	0.568410
C1441	C144	0.485040	0.038890	0.535790
H1101	H110	0.455000	0.026400	0.524600
H1111	H111	0.564100	0.174800	0.568800
H1121	H112	0.624400	0.202600	0.654100
O331	O33	0.025180	0.472680	0.936090
O341	O34	0.057280	0.488300	0.015010
C1451	C145	0.052970	0.474570	0.969540
C1461	C146	0.083470	0.458030	0.951600
C1471	C147	0.112110	0.454930	0.986790
H1131	H113	0.112670	0.463630	0.021930
C1481	C148	0.139930	0.439090	0.970820
H1141	H114	0.159070	0.436630	0.995430
C1491	C149	0.140260	0.426700	0.919200
C1501	C150	0.111190	0.429810	0.885170
H1151	H115	0.110470	0.421330	0.849930
C1511	C151	0.082920	0.445200	0.901320
H1161	H116	0.063070	0.446830	0.877130
C1521	C152	0.168950	0.408340	0.901740
C1531	C153	0.151710	0.372220	0.869120
H1171	H117	0.121670	0.359730	0.857930
H1181	H118	0.230770	0.508130	0.902130
H1191	H119	0.291070	0.535930	0.987430
O351	O35	0.691840	0.806020	0.269430
O361	O36	0.723940	0.821640	0.348350
C1541	C154	0.719630	0.807910	0.302880
C1551	C155	0.750130	0.791370	0.284940
C1561	C156	0.778770	0.788270	0.320130
H1201	H120	0.779330	0.796970	0.355270
C1571	C157	0.806590	0.772430	0.304160
H1211	H121	0.825730	0.769970	0.328770
C1581	C158	0.806920	0.760040	0.252540
C1591	C159	0.777850	0.763150	0.218510
H1221	H122	0.777130	0.754670	0.183270
C1601	C160	0.749580	0.778540	0.234660
H1231	H123	0.729730	0.780170	0.210470
C1611	C161	0.835610	0.741680	0.235080
C1621	C162	0.818370	0.705560	0.202460
H1241	H124	0.788330	0.693070	0.191270
H1251	H125	0.897430	0.841470	0.235470
H1261	H126	0.957730	0.869270	0.320770
O371	O37	0.358510	0.219160	0.602760
O381	O38	0.390610	0.235640	0.681680
C1631	C163	0.386300	0.245060	0.636210
C1641	C164	0.416800	0.292100	0.618270
C1651	C165	0.445440	0.323840	0.653460
H1271	H127	0.446000	0.315700	0.688600
C1661	C166	0.473260	0.367500	0.637490
H1281	H128	0.492400	0.389100	0.662100
C1671	C167	0.473590	0.380220	0.585870
C1681	C168	0.444520	0.348040	0.551840
H1291	H129	0.443800	0.355800	0.516600
C1691	C169	0.416250	0.304380	0.567990
H1301	H130	0.396400	0.282900	0.543800
C1701	C170	0.502280	0.427270	0.568410
C1711	C171	0.485040	0.446150	0.535790
H1311	H131	0.455000	0.428600	0.524600
H1321	H132	0.564100	0.389300	0.568800
H1331	H133	0.624400	0.421800	0.654100
O391	O39	0.025180	0.552490	0.936090
O401	O40	0.057280	0.568970	0.015010
C1721	C172	0.052970	0.578390	0.969540
C1731	C173	0.083470	0.625430	0.951600
C1741	C174	0.112110	0.657170	0.986790
H1341	H134	0.112670	0.649030	0.021930
C1751	C175	0.139930	0.700830	0.970820
H1351	H135	0.159070	0.722430	0.995430
C1761	C176	0.140260	0.713550	0.919200
C1771	C177	0.111190	0.681370	0.885170
H1361	H136	0.110470	0.689130	0.849930
C1781	C178	0.082920	0.637710	0.901320
H1371	H137	0.063070	0.616230	0.877130
C1791	C179	0.168950	0.760600	0.901740
C1801	C180	0.151710	0.779480	0.869120
H1381	H138	0.121670	0.761930	0.857930
H1391	H139	0.230770	0.722630	0.902130
H1401	H140	0.291070	0.755130	0.987430
O411	O41	0.691840	0.885830	0.269430
O421	O42	0.723940	0.902310	0.348350
C1811	C181	0.719630	0.911730	0.302880
C1821	C182	0.750130	0.958770	0.284940
C1831	C183	0.778770	0.990510	0.320130
H1411	H141	0.779330	0.982370	0.355270
C1841	C184	0.806590	0.034170	0.304160
H1421	H142	0.825730	0.055770	0.328770
C1851	C185	0.806920	0.046890	0.252540
C1861	C186	0.777850	0.014710	0.218510
H1431	H143	0.777130	0.022470	0.183270
C1871	C187	0.749580	0.971050	0.234660
H1441	H144	0.729730	0.949570	0.210470
C1881	C188	0.835610	0.093940	0.235080
C1891	C189	0.818370	0.112820	0.202460
H1451	H145	0.788330	0.095270	0.191270
H1461	H146	0.897430	0.055970	0.235470
H1471	H147	0.957730	0.088470	0.320770
O431	O43	0.780840	0.139350	0.602760
O441	O44	0.764360	0.154970	0.681680
C1901	C190	0.754940	0.141240	0.636210
C1911	C191	0.707900	0.124700	0.618270
C1921	C192	0.676160	0.121600	0.653460
H1481	H148	0.684300	0.130300	0.688600
C1931	C193	0.632500	0.105760	0.637490
H1491	H149	0.610900	0.103300	0.662100
C1941	C194	0.619780	0.093370	0.585870
C1951	C195	0.651960	0.096480	0.551840
H1501	H150	0.644200	0.088000	0.516600
C1961	C196	0.695620	0.111870	0.567990
H1511	H151	0.717100	0.113500	0.543800
C1971	C197	0.572730	0.075010	0.568410
C1981	C198	0.553850	0.038890	0.535790
H1521	H152	0.571400	0.026400	0.524600
H1531	H153	0.610700	0.174800	0.568800
H1541	H154	0.578200	0.202600	0.654100
O451	O45	0.447510	0.472680	0.936090
O461	O46	0.431030	0.488300	0.015010
C1991	C199	0.421610	0.474570	0.969540
C2001	C200	0.374570	0.458030	0.951600
C2011	C201	0.342830	0.454930	0.986790
H1551	H155	0.350970	0.463630	0.021930
C2021	C202	0.299170	0.439090	0.970820
H1561	H156	0.277570	0.436630	0.995430
C2031	C203	0.286450	0.426700	0.919200
C2041	C204	0.318630	0.429810	0.885170
H1571	H157	0.310870	0.421330	0.849930
C2051	C205	0.362290	0.445200	0.901320
H1581	H158	0.383770	0.446830	0.877130
C2061	C206	0.239400	0.408340	0.901740
C2071	C207	0.220520	0.372220	0.869120
H1591	H159	0.238070	0.359730	0.857930
H1601	H160	0.277370	0.508130	0.902130
H1611	H161	0.244870	0.535930	0.987430
O471	O47	0.114170	0.806020	0.269430
O481	O48	0.097690	0.821640	0.348350
C2081	C208	0.088270	0.807910	0.302880
C2091	C209	0.041230	0.791370	0.284940
C2101	C210	0.009490	0.788270	0.320130
H1621	H162	0.017630	0.796970	0.355270
C2111	C211	0.965830	0.772430	0.304160
H1631	H163	0.944230	0.769970	0.328770
C2121	C212	0.953110	0.760040	0.252540
C2131	C213	0.985290	0.763150	0.218510
H1641	H164	0.977530	0.754670	0.183270
C2141	C214	0.028950	0.778540	0.234660
H1651	H165	0.050430	0.780170	0.210470
C2151	C215	0.906060	0.741680	0.235080
C2161	C216	0.887180	0.705560	0.202460
H1661	H166	0.904730	0.693070	0.191270
H1671	H167	0.944030	0.841470	0.235470
H1681	H168	0.911530	0.869270	0.320770
O491	O49	0.860650	0.641490	0.602760
O501	O50	0.845030	0.609390	0.681680
C2171	C217	0.858760	0.613700	0.636210
C2181	C218	0.875300	0.583200	0.618270
C2191	C219	0.878400	0.554560	0.653460
H1691	H169	0.869700	0.554000	0.688600
C2201	C220	0.894240	0.526740	0.637490
H1701	H170	0.896700	0.507600	0.662100
C2211	C221	0.906630	0.526410	0.585870
C2221	C222	0.903520	0.555480	0.551840
H1711	H171	0.912000	0.556200	0.516600
C2231	C223	0.888130	0.583750	0.567990
H1721	H172	0.886500	0.603600	0.543800
C2241	C224	0.924990	0.497720	0.568410
C2251	C225	0.961110	0.514960	0.535790
H1731	H173	0.973600	0.545000	0.524600
H1741	H174	0.825200	0.435900	0.568800
H1751	H175	0.797400	0.375600	0.654100
O511	O51	0.527320	0.974820	0.936090
O521	O52	0.511700	0.942720	0.015010
C2261	C226	0.525430	0.947030	0.969540
C2271	C227	0.541970	0.916530	0.951600
C2281	C228	0.545070	0.887890	0.986790
H1761	H176	0.536370	0.887330	0.021930
C2291	C229	0.560910	0.860070	0.970820
H1771	H177	0.563370	0.840930	0.995430
C2301	C230	0.573300	0.859740	0.919200
C2311	C231	0.570190	0.888810	0.885170
H1781	H178	0.578670	0.889530	0.849930
C2321	C232	0.554800	0.917080	0.901320
H1791	H179	0.553170	0.936930	0.877130
C2331	C233	0.591660	0.831050	0.901740
C2341	C234	0.627780	0.848290	0.869120
H1801	H180	0.640270	0.878330	0.857930
H1811	H181	0.491870	0.769230	0.902130
H1821	H182	0.464070	0.708930	0.987430
O531	O53	0.193980	0.308160	0.269430
O541	O54	0.178360	0.276060	0.348350
C2351	C235	0.192090	0.280370	0.302880
C2361	C236	0.208630	0.249870	0.284940
C2371	C237	0.211730	0.221230	0.320130
H1831	H183	0.203030	0.220670	0.355270
C2381	C238	0.227570	0.193410	0.304160
H1841	H184	0.230030	0.174270	0.328770
C2391	C239	0.239960	0.193080	0.252540
C2401	C240	0.236850	0.222150	0.218510
H1851	H185	0.245330	0.222870	0.183270
C2411	C241	0.221460	0.250420	0.234660
H1861	H186	0.219830	0.270270	0.210470
C2421	C242	0.258320	0.164390	0.235080
C2431	C243	0.294440	0.181630	0.202460
H1871	H187	0.306930	0.211670	0.191270
H1881	H188	0.158530	0.102570	0.235470
H1891	H189	0.130730	0.042270	0.320770
O551	O55	0.219160	0.358510	0.397240
O561	O56	0.235640	0.390610	0.318320
C2441	C244	0.245060	0.386300	0.363790
C2451	C245	0.292100	0.416800	0.381730
C2461	C246	0.323840	0.445440	0.346540
H1901	H190	0.315700	0.446000	0.311400
C2471	C247	0.367500	0.473260	0.362510
H1911	H191	0.389100	0.492400	0.337900
C2481	C248	0.380220	0.473590	0.414130
C2491	C249	0.348040	0.444520	0.448160
H1921	H192	0.355800	0.443800	0.483400
C2501	C250	0.304380	0.416250	0.432010
H1931	H193	0.282900	0.396400	0.456200
C2511	C251	0.427270	0.502280	0.431590
C2521	C252	0.446150	0.485040	0.464210
H1941	H194	0.428600	0.455000	0.475400
H1951	H195	0.389300	0.564100	0.431200
H1961	H196	0.421800	0.624400	0.345900
O571	O57	0.885830	0.691840	0.730570
O581	O58	0.902310	0.723940	0.651650
C2531	C253	0.911730	0.719630	0.697120
C2541	C254	0.958770	0.750130	0.715060
C2551	C255	0.990510	0.778770	0.679870
H1971	H197	0.982370	0.779330	0.644730
C2561	C256	0.034170	0.806590	0.695840
H1981	H198	0.055770	0.825730	0.671230
C2571	C257	0.046890	0.806920	0.747460
C2581	C258	0.014710	0.777850	0.781490
H1991	H199	0.022470	0.777130	0.816730
C2591	C259	0.971050	0.749580	0.765340
H2001	H200	0.949570	0.729730	0.789530
C2601	C260	0.093940	0.835610	0.764920
C2611	C261	0.112820	0.818370	0.797540
H2011	H201	0.095270	0.788330	0.808730
H2021	H202	0.055970	0.897430	0.764530
H2031	H203	0.088470	0.957730	0.679230
O591	O59	0.552490	0.025180	0.063910
O601	O60	0.568970	0.057280	0.984990
C2621	C262	0.578390	0.052970	0.030460
C2631	C263	0.625430	0.083470	0.048400
C2641	C264	0.657170	0.112110	0.013210
H2041	H204	0.649030	0.112670	0.978070
C2651	C265	0.700830	0.139930	0.029180
H2051	H205	0.722430	0.159070	0.004570
C2661	C266	0.713550	0.140260	0.080800
C2671	C267	0.681370	0.111190	0.114830
H2061	H206	0.689130	0.110470	0.150070
C2681	C268	0.637710	0.082920	0.098680
H2071	H207	0.616230	0.063070	0.122870
C2691	C269	0.760600	0.168950	0.098260
C2701	C270	0.779480	0.151710	0.130880
H2081	H208	0.761930	0.121670	0.142070
H2091	H209	0.722630	0.230770	0.097870
H2101	H210	0.755130	0.291070	0.012570
O611	O61	0.139350	0.780840	0.397240
O621	O62	0.154970	0.764360	0.318320
C2711	C271	0.141240	0.754940	0.363790
C2721	C272	0.124700	0.707900	0.381730
C2731	C273	0.121600	0.676160	0.346540
H2111	H211	0.130300	0.684300	0.311400
C2741	C274	0.105760	0.632500	0.362510
H2121	H212	0.103300	0.610900	0.337900
C2751	C275	0.093370	0.619780	0.414130
C2761	C276	0.096480	0.651960	0.448160
H2131	H213	0.088000	0.644200	0.483400
C2771	C277	0.111870	0.695620	0.432010
H2141	H214	0.113500	0.717100	0.456200
C2781	C278	0.075010	0.572730	0.431590
C2791	C279	0.038890	0.553850	0.464210
H2151	H215	0.026400	0.571400	0.475400
H2161	H216	0.174800	0.610700	0.431200
H2171	H217	0.202600	0.578200	0.345900
O631	O63	0.806020	0.114170	0.730570
O641	O64	0.821640	0.097690	0.651650
C2801	C280	0.807910	0.088270	0.697120
C2811	C281	0.791370	0.041230	0.715060
C2821	C282	0.788270	0.009490	0.679870
H2181	H218	0.796970	0.017630	0.644730
C2831	C283	0.772430	0.965830	0.695840
H2191	H219	0.769970	0.944230	0.671230
C2841	C284	0.760040	0.953110	0.747460
C2851	C285	0.763150	0.985290	0.781490
H2201	H220	0.754670	0.977530	0.816730
C2861	C286	0.778540	0.028950	0.765340
H2211	H221	0.780170	0.050430	0.789530
C2871	C287	0.741680	0.906060	0.764920
C2881	C288	0.705560	0.887180	0.797540
H2221	H222	0.693070	0.904730	0.808730
H2231	H223	0.841470	0.944030	0.764530
H2241	H224	0.869270	0.911530	0.679230
O651	O65	0.472680	0.447510	0.063910
O661	O66	0.488300	0.431030	0.984990
C2891	C289	0.474570	0.421610	0.030460
C2901	C290	0.458030	0.374570	0.048400
C2911	C291	0.454930	0.342830	0.013210
H2251	H225	0.463630	0.350970	0.978070
C2921	C292	0.439090	0.299170	0.029180
H2261	H226	0.436630	0.277570	0.004570
C2931	C293	0.426700	0.286450	0.080800
C2941	C294	0.429810	0.318630	0.114830
H2271	H227	0.421330	0.310870	0.150070
C2951	C295	0.445200	0.362290	0.098680
H2281	H228	0.446830	0.383770	0.122870
C2961	C296	0.408340	0.239400	0.098260
C2971	C297	0.372220	0.220520	0.130880
H2291	H229	0.359730	0.238070	0.142070
H2301	H230	0.508130	0.277370	0.097870
H2311	H231	0.535930	0.244870	0.012570
O671	O67	0.641490	0.860650	0.397240
O681	O68	0.609390	0.845030	0.318320
C2981	C298	0.613700	0.858760	0.363790
C2991	C299	0.583200	0.875300	0.381730
C3001	C300	0.554560	0.878400	0.346540
H2321	H232	0.554000	0.869700	0.311400
C3011	C301	0.526740	0.894240	0.362510
H2331	H233	0.507600	0.896700	0.337900
C3021	C302	0.526410	0.906630	0.414130
C3031	C303	0.555480	0.903520	0.448160
H2341	H234	0.556200	0.912000	0.483400
C3041	C304	0.583750	0.888130	0.432010
H2351	H235	0.603600	0.886500	0.456200
C3051	C305	0.497720	0.924990	0.431590
C3061	C306	0.514960	0.961110	0.464210
H2361	H236	0.545000	0.973600	0.475400
H2371	H237	0.435900	0.825200	0.431200
H2381	H238	0.375600	0.797400	0.345900
O691	O69	0.308160	0.193980	0.730570
O701	O70	0.276060	0.178360	0.651650
C3071	C307	0.280370	0.192090	0.697120
C3081	C308	0.249870	0.208630	0.715060
C3091	C309	0.221230	0.211730	0.679870
H2391	H239	0.220670	0.203030	0.644730
C3101	C310	0.193410	0.227570	0.695840
H2401	H240	0.174270	0.230030	0.671230
C3111	C311	0.193080	0.239960	0.747460
C3121	C312	0.222150	0.236850	0.781490
H2411	H241	0.222870	0.245330	0.816730
C3131	C313	0.250420	0.221460	0.765340
H2421	H242	0.270270	0.219830	0.789530
C3141	C314	0.164390	0.258320	0.764920
C3151	C315	0.181630	0.294440	0.797540
H2431	H243	0.211670	0.306930	0.808730
H2441	H244	0.102570	0.158530	0.764530
H2451	H245	0.042270	0.130730	0.679230
O711	O71	0.974820	0.527320	0.063910
O721	O72	0.942720	0.511700	0.984990
C3161	C316	0.947030	0.525430	0.030460
C3171	C317	0.916530	0.541970	0.048400
C3181	C318	0.887890	0.545070	0.013210
H2461	H246	0.887330	0.536370	0.978070
C3191	C319	0.860070	0.560910	0.029180
H2471	H247	0.840930	0.563370	0.004570
C3201	C320	0.859740	0.573300	0.080800
C3211	C321	0.888810	0.570190	0.114830
H2481	H248	0.889530	0.578670	0.150070
C3221	C322	0.917080	0.554800	0.098680
H2491	H249	0.936930	0.553170	0.122870
C3231	C323	0.831050	0.591660	0.098260
C3241	C324	0.848290	0.627780	0.130880
H2501	H250	0.878330	0.640270	0.142070
H2511	H251	0.769230	0.491870	0.097870
H2521	H252	0.708930	0.464070	0.012570
Cu11	Cu1	0.647360	0.823680	0.287500
Cu21	Cu2	0.314030	0.157010	0.620830
Cu31	Cu3	0.980690	0.490350	0.954170
Cu41	Cu4	0.176320	0.823680	0.287500
Cu51	Cu5	0.842990	0.157010	0.620830
Cu61	Cu6	0.509650	0.490350	0.954170
Cu71	Cu7	0.176320	0.352640	0.287500
Cu81	Cu8	0.842990	0.685970	0.620830
Cu91	Cu9	0.509650	0.019310	0.954170
Cu101	Cu10	0.823680	0.647360	0.712500
Cu111	Cu11	0.490350	0.980690	0.045830
Cu121	Cu12	0.157010	0.314030	0.379170
Cu131	Cu13	0.823680	0.176320	0.712500
Cu141	Cu14	0.490350	0.509650	0.045830
Cu151	Cu15	0.157010	0.842990	0.379170
Cu161	Cu16	0.352640	0.176320	0.712500
Cu171	Cu17	0.019310	0.509650	0.045830
Cu181	Cu18	0.685970	0.842990	0.379170
O731	O73	0.434770	0.565230	0.382190
C3251	C325	0.490210	0.509790	0.481720
C3261	C326	0.453040	0.546960	0.415760
C3271	C327	0.414020	0.585980	0.409100
C3281	C328	0.396920	0.603080	0.367500
H2531	H253	0.382000	0.618000	0.383200
O741	O74	0.101440	0.898560	0.715520
C3291	C329	0.156880	0.843120	0.815050
C3301	C330	0.119710	0.880290	0.749090
C3311	C331	0.080690	0.919310	0.742430
C3321	C332	0.063590	0.936410	0.700830
H2541	H254	0.048670	0.951330	0.716530
O751	O75	0.768100	0.231900	0.048860
C3331	C333	0.823540	0.176460	0.148390
C3341	C334	0.786370	0.213630	0.082430
C3351	C335	0.747350	0.252650	0.075770
C3361	C336	0.730250	0.269750	0.034170
H2551	H255	0.715330	0.284670	0.049870
O761	O76	0.434770	0.869540	0.382190
C3371	C337	0.490210	0.980420	0.481720
C3381	C338	0.453040	0.906080	0.415760
C3391	C339	0.414020	0.828040	0.409100
C3401	C340	0.396920	0.793840	0.367500
H2561	H256	0.382000	0.764000	0.383200
O771	O77	0.101440	0.202870	0.715520
C3411	C341	0.156880	0.313750	0.815050
C3421	C342	0.119710	0.239410	0.749090
C3431	C343	0.080690	0.161370	0.742430
C3441	C344	0.063590	0.127170	0.700830
H2571	H257	0.048670	0.097330	0.716530
O781	O78	0.768100	0.536210	0.048860
C3451	C345	0.823540	0.647090	0.148390
C3461	C346	0.786370	0.572750	0.082430
C3471	C347	0.747350	0.494710	0.075770
C3481	C348	0.730250	0.460510	0.034170
H2581	H258	0.715330	0.430670	0.049870
O791	O79	0.130460	0.565230	0.382190
C3491	C349	0.019580	0.509790	0.481720
C3501	C350	0.093920	0.546960	0.415760
C3511	C351	0.171960	0.585980	0.409100
C3521	C352	0.206160	0.603080	0.367500
H2591	H259	0.236000	0.618000	0.383200
O801	O80	0.797130	0.898560	0.715520
C3531	C353	0.686250	0.843120	0.815050
C3541	C354	0.760590	0.880290	0.749090
C3551	C355	0.838630	0.919310	0.742430
C3561	C356	0.872830	0.936410	0.700830
H2601	H260	0.902670	0.951330	0.716530
O811	O81	0.463790	0.231900	0.048860
C3571	C357	0.352910	0.176460	0.148390
C3581	C358	0.427250	0.213630	0.082430
C3591	C359	0.505290	0.252650	0.075770
C3601	C360	0.539490	0.269750	0.034170
H2611	H261	0.569330	0.284670	0.049870
O821	O82	0.565230	0.434770	0.617810
C3611	C361	0.509790	0.490210	0.518280
C3621	C362	0.546960	0.453040	0.584240
C3631	C363	0.585980	0.414020	0.590900
C3641	C364	0.603080	0.396920	0.632500
H2621	H262	0.618000	0.382000	0.616800
O831	O83	0.231900	0.768100	0.951140
C3651	C365	0.176460	0.823540	0.851610
C3661	C366	0.213630	0.786370	0.917570
C3671	C367	0.252650	0.747350	0.924230
C3681	C368	0.269750	0.730250	0.965830
H2631	H263	0.284670	0.715330	0.950130
O841	O84	0.898560	0.101440	0.284480
C3691	C369	0.843120	0.156880	0.184950
C3701	C370	0.880290	0.119710	0.250910
C3711	C371	0.919310	0.080690	0.257570
C3721	C372	0.936410	0.063590	0.299170
H2641	H264	0.951330	0.048670	0.283470
O851	O85	0.869540	0.434770	0.617810
C3731	C373	0.980420	0.490210	0.518280
C3741	C374	0.906080	0.453040	0.584240
C3751	C375	0.828040	0.414020	0.590900
C3761	C376	0.793840	0.396920	0.632500
H2651	H265	0.764000	0.382000	0.616800
O861	O86	0.536210	0.768100	0.951140
C3771	C377	0.647090	0.823540	0.851610
C3781	C378	0.572750	0.786370	0.917570
C3791	C379	0.494710	0.747350	0.924230
C3801	C380	0.460510	0.730250	0.965830
H2661	H266	0.430670	0.715330	0.950130
O871	O87	0.202870	0.101440	0.284480
C3811	C381	0.313750	0.156880	0.184950
C3821	C382	0.239410	0.119710	0.250910
C3831	C383	0.161370	0.080690	0.257570
C3841	C384	0.127170	0.063590	0.299170
H2671	H267	0.097330	0.048670	0.283470
O881	O88	0.565230	0.130460	0.617810
C3851	C385	0.509790	0.019580	0.518280
C3861	C386	0.546960	0.093920	0.584240
C3871	C387	0.585980	0.171960	0.590900
C3881	C388	0.603080	0.206160	0.632500
H2681	H268	0.618000	0.236000	0.616800
O891	O89	0.231900	0.463790	0.951140
C3891	C389	0.176460	0.352910	0.851610
C3901	C390	0.213630	0.427250	0.917570
C3911	C391	0.252650	0.505290	0.924230
C3921	C392	0.269750	0.539490	0.965830
H2691	H269	0.284670	0.569330	0.950130
O901	O90	0.898560	0.797130	0.284480
C3931	C393	0.843120	0.686250	0.184950
C3941	C394	0.880290	0.760590	0.250910
C3951	C395	0.919310	0.838630	0.257570
C3961	C396	0.936410	0.872830	0.299170
H2701	H270	0.951330	0.902670	0.283470
