data_UMODEH_clean_PM
_symmetry_space_group_name_H-M	'P1'
_cell_length_a	35.065900
_cell_length_b	35.065900
_cell_length_c	22.266000
_cell_angle_alpha	90.000000
_cell_angle_beta	90.000000
_cell_angle_gamma	120.000000
_symmetry_Int_Tables_number 1

loop_
_symmetry_equiv_pos_as_xyz
'x,y,z'

loop_
_atom_site_label
_atom_site_type_symbol
_atom_site_fract_x
_atom_site_fract_y
_atom_site_fract_z
O11	O1	0.525240	0.553540	0.432710
O21	O2	0.510860	0.567090	0.522770
C11	C1	0.523540	0.577610	0.472000
C21	C2	0.539010	0.625200	0.453760
C31	C3	0.541290	0.655200	0.495450
H11	H1	0.532100	0.646000	0.535600
C41	C4	0.556960	0.698800	0.479400
H21	H2	0.558700	0.719100	0.509000
C51	C5	0.569630	0.712800	0.423000
C61	C6	0.567400	0.682390	0.380700
H31	H3	0.576100	0.691400	0.340400
C71	C7	0.552400	0.638570	0.397300
H41	H4	0.551700	0.618300	0.368400
C81	C8	0.588590	0.759690	0.403300
C91	C9	0.626080	0.779390	0.368900
H51	H5	0.638300	0.762100	0.355400
H61	H6	0.489500	0.767600	0.392800
H71	H7	0.454900	0.704600	0.481900
O31	O3	0.191910	0.886870	0.766040
O41	O4	0.177530	0.900420	0.856100
C101	C10	0.190210	0.910940	0.805330
C111	C11	0.205680	0.958530	0.787090
C121	C12	0.207960	0.988530	0.828780
H81	H8	0.198770	0.979330	0.868930
C131	C13	0.223630	0.032130	0.812730
H91	H9	0.225370	0.052430	0.842330
C141	C14	0.236300	0.046130	0.756330
C151	C15	0.234070	0.015720	0.714030
H101	H10	0.242770	0.024730	0.673730
C161	C16	0.219070	0.971900	0.730630
H111	H11	0.218370	0.951630	0.701730
C171	C17	0.255260	0.093020	0.736630
C181	C18	0.292750	0.112720	0.702230
H121	H12	0.304970	0.095430	0.688730
H131	H13	0.156170	0.100930	0.726130
H141	H14	0.121570	0.037930	0.815230
O51	O5	0.858570	0.220210	0.099380
O61	O6	0.844190	0.233760	0.189440
C191	C19	0.856870	0.244280	0.138670
C201	C20	0.872340	0.291870	0.120430
C211	C21	0.874620	0.321870	0.162120
H151	H15	0.865430	0.312670	0.202270
C221	C22	0.890290	0.365470	0.146070
H161	H16	0.892030	0.385770	0.175670
C231	C23	0.902960	0.379470	0.089670
C241	C24	0.900730	0.349060	0.047370
H171	H17	0.909430	0.358070	0.007070
C251	C25	0.885730	0.305240	0.063970
H181	H18	0.885030	0.284970	0.035070
C261	C26	0.921920	0.426360	0.069970
C271	C27	0.959410	0.446060	0.035570
H191	H19	0.971630	0.428770	0.022070
H201	H20	0.822830	0.434270	0.059470
H211	H21	0.788230	0.371270	0.148570
O71	O7	0.446460	0.971700	0.432710
O81	O8	0.432910	0.943770	0.522770
C281	C28	0.422390	0.945930	0.472000
C291	C29	0.374800	0.913810	0.453760
C301	C30	0.344800	0.886090	0.495450
H221	H22	0.354000	0.886100	0.535600
C311	C31	0.301200	0.858160	0.479400
H231	H23	0.280900	0.839600	0.509000
C321	C32	0.287200	0.856830	0.423000
C331	C33	0.317610	0.885010	0.380700
H241	H24	0.308600	0.884700	0.340400
C341	C34	0.361430	0.913830	0.397300
H251	H25	0.381700	0.933400	0.368400
C351	C35	0.240310	0.828900	0.403300
C361	C36	0.220610	0.846690	0.368900
H261	H26	0.237900	0.876200	0.355400
H271	H27	0.232400	0.721900	0.392800
H281	H28	0.295400	0.750300	0.481900
O91	O9	0.113130	0.305030	0.766040
O101	O10	0.099580	0.277100	0.856100
C371	C37	0.089060	0.279260	0.805330
C381	C38	0.041470	0.247140	0.787090
C391	C39	0.011470	0.219420	0.828780
H291	H29	0.020670	0.219430	0.868930
C401	C40	0.967870	0.191490	0.812730
H301	H30	0.947570	0.172930	0.842330
C411	C41	0.953870	0.190160	0.756330
C421	C42	0.984280	0.218340	0.714030
H311	H31	0.975270	0.218030	0.673730
C431	C43	0.028100	0.247160	0.730630
H321	H32	0.048370	0.266730	0.701730
C441	C44	0.906980	0.162230	0.736630
C451	C45	0.887280	0.180020	0.702230
H331	H33	0.904570	0.209530	0.688730
H341	H34	0.899070	0.055230	0.726130
H351	H35	0.962070	0.083630	0.815230
O111	O11	0.779790	0.638370	0.099380
O121	O12	0.766240	0.610440	0.189440
C461	C46	0.755720	0.612600	0.138670
C471	C47	0.708130	0.580480	0.120430
C481	C48	0.678130	0.552760	0.162120
H361	H36	0.687330	0.552770	0.202270
C491	C49	0.634530	0.524830	0.146070
H371	H37	0.614230	0.506270	0.175670
C501	C50	0.620530	0.523500	0.089670
C511	C51	0.650940	0.551680	0.047370
H381	H38	0.641930	0.551370	0.007070
C521	C52	0.694760	0.580500	0.063970
H391	H39	0.715030	0.600070	0.035070
C531	C53	0.573640	0.495570	0.069970
C541	C54	0.553940	0.513360	0.035570
H401	H40	0.571230	0.542870	0.022070
H411	H41	0.565730	0.388570	0.059470
H421	H42	0.628730	0.416970	0.148570
O131	O13	0.028300	0.474760	0.432710
O141	O14	0.056230	0.489140	0.522770
C551	C55	0.054070	0.476460	0.472000
C561	C56	0.086190	0.460990	0.453760
C571	C57	0.113910	0.458710	0.495450
H431	H43	0.113900	0.467900	0.535600
C581	C58	0.141840	0.443040	0.479400
H441	H44	0.160400	0.441300	0.509000
C591	C59	0.143170	0.430370	0.423000
C601	C60	0.114990	0.432600	0.380700
H451	H45	0.115300	0.423900	0.340400
C611	C61	0.086170	0.447600	0.397300
H461	H46	0.066600	0.448300	0.368400
C621	C62	0.171100	0.411410	0.403300
C631	C63	0.153310	0.373920	0.368900
H471	H47	0.123800	0.361700	0.355400
H481	H48	0.278100	0.510500	0.392800
H491	H49	0.249700	0.545100	0.481900
O151	O15	0.694970	0.808090	0.766040
O161	O16	0.722900	0.822470	0.856100
C641	C64	0.720740	0.809790	0.805330
C651	C65	0.752860	0.794320	0.787090
C661	C66	0.780580	0.792040	0.828780
H501	H50	0.780570	0.801230	0.868930
C671	C67	0.808510	0.776370	0.812730
H511	H51	0.827070	0.774630	0.842330
C681	C68	0.809840	0.763700	0.756330
C691	C69	0.781660	0.765930	0.714030
H521	H52	0.781970	0.757230	0.673730
C701	C70	0.752840	0.780930	0.730630
H531	H53	0.733270	0.781630	0.701730
C711	C71	0.837770	0.744740	0.736630
C721	C72	0.819980	0.707250	0.702230
H541	H54	0.790470	0.695030	0.688730
H551	H55	0.944770	0.843830	0.726130
H561	H56	0.916370	0.878430	0.815230
O171	O17	0.361630	0.141430	0.099380
O181	O18	0.389560	0.155810	0.189440
C731	C73	0.387400	0.143130	0.138670
C741	C74	0.419520	0.127660	0.120430
C751	C75	0.447240	0.125380	0.162120
H571	H57	0.447230	0.134570	0.202270
C761	C76	0.475170	0.109710	0.146070
H581	H58	0.493730	0.107970	0.175670
C771	C77	0.476500	0.097040	0.089670
C781	C78	0.448320	0.099270	0.047370
H591	H59	0.448630	0.090570	0.007070
C791	C79	0.419500	0.114270	0.063970
H601	H60	0.399930	0.114970	0.035070
C801	C80	0.504430	0.078080	0.069970
C811	C81	0.486640	0.040590	0.035570
H611	H61	0.457130	0.028370	0.022070
H621	H62	0.611430	0.177170	0.059470
H631	H63	0.583030	0.211770	0.148570
O191	O19	0.553540	0.525240	0.567290
O201	O20	0.567090	0.510860	0.477230
C821	C82	0.577610	0.523540	0.528000
C831	C83	0.625200	0.539010	0.546240
C841	C84	0.655200	0.541290	0.504550
H641	H64	0.646000	0.532100	0.464400
C851	C85	0.698800	0.556960	0.520600
H651	H65	0.719100	0.558700	0.491000
C861	C86	0.712800	0.569630	0.577000
C871	C87	0.682390	0.567400	0.619300
H661	H66	0.691400	0.576100	0.659600
C881	C88	0.638570	0.552400	0.602700
H671	H67	0.618300	0.551700	0.631600
C891	C89	0.759690	0.588590	0.596700
C901	C90	0.779390	0.626080	0.631100
H681	H68	0.762100	0.638300	0.644600
H691	H69	0.767600	0.489500	0.607200
H701	H70	0.704600	0.454900	0.518100
O211	O21	0.220210	0.858570	0.900620
O221	O22	0.233760	0.844190	0.810560
C911	C91	0.244280	0.856870	0.861330
C921	C92	0.291870	0.872340	0.879570
C931	C93	0.321870	0.874620	0.837880
H711	H71	0.312670	0.865430	0.797730
C941	C94	0.365470	0.890290	0.853930
H721	H72	0.385770	0.892030	0.824330
C951	C95	0.379470	0.902960	0.910330
C961	C96	0.349060	0.900730	0.952630
H731	H73	0.358070	0.909430	0.992930
C971	C97	0.305240	0.885730	0.936030
H741	H74	0.284970	0.885030	0.964930
C981	C98	0.426360	0.921920	0.930030
C991	C99	0.446060	0.959410	0.964430
H751	H75	0.428770	0.971630	0.977930
H761	H76	0.434270	0.822830	0.940530
H771	H77	0.371270	0.788230	0.851430
O231	O23	0.886870	0.191910	0.233960
O241	O24	0.900420	0.177530	0.143900
C1001	C100	0.910940	0.190210	0.194670
C1011	C101	0.958530	0.205680	0.212910
C1021	C102	0.988530	0.207960	0.171220
H781	H78	0.979330	0.198770	0.131070
C1031	C103	0.032130	0.223630	0.187270
H791	H79	0.052430	0.225370	0.157670
C1041	C104	0.046130	0.236300	0.243670
C1051	C105	0.015720	0.234070	0.285970
H801	H80	0.024730	0.242770	0.326270
C1061	C106	0.971900	0.219070	0.269370
H811	H81	0.951630	0.218370	0.298270
C1071	C107	0.093020	0.255260	0.263370
C1081	C108	0.112720	0.292750	0.297770
H821	H82	0.095430	0.304970	0.311270
H831	H83	0.100930	0.156170	0.273870
H841	H84	0.037930	0.121570	0.184770
O251	O25	0.971700	0.446460	0.567290
O261	O26	0.943770	0.432910	0.477230
C1091	C109	0.945930	0.422390	0.528000
C1101	C110	0.913810	0.374800	0.546240
C1111	C111	0.886090	0.344800	0.504550
H851	H85	0.886100	0.354000	0.464400
C1121	C112	0.858160	0.301200	0.520600
H861	H86	0.839600	0.280900	0.491000
C1131	C113	0.856830	0.287200	0.577000
C1141	C114	0.885010	0.317610	0.619300
H871	H87	0.884700	0.308600	0.659600
C1151	C115	0.913830	0.361430	0.602700
H881	H88	0.933400	0.381700	0.631600
C1161	C116	0.828900	0.240310	0.596700
C1171	C117	0.846690	0.220610	0.631100
H891	H89	0.876200	0.237900	0.644600
H901	H90	0.721900	0.232400	0.607200
H911	H91	0.750300	0.295400	0.518100
O271	O27	0.638370	0.779790	0.900620
O281	O28	0.610440	0.766240	0.810560
C1181	C118	0.612600	0.755720	0.861330
C1191	C119	0.580480	0.708130	0.879570
C1201	C120	0.552760	0.678130	0.837880
H921	H92	0.552770	0.687330	0.797730
C1211	C121	0.524830	0.634530	0.853930
H931	H93	0.506270	0.614230	0.824330
C1221	C122	0.523500	0.620530	0.910330
C1231	C123	0.551680	0.650940	0.952630
H941	H94	0.551370	0.641930	0.992930
C1241	C124	0.580500	0.694760	0.936030
H951	H95	0.600070	0.715030	0.964930
C1251	C125	0.495570	0.573640	0.930030
C1261	C126	0.513360	0.553940	0.964430
H961	H96	0.542870	0.571230	0.977930
H971	H97	0.388570	0.565730	0.940530
H981	H98	0.416970	0.628730	0.851430
O291	O29	0.305030	0.113130	0.233960
O301	O30	0.277100	0.099580	0.143900
C1271	C127	0.279260	0.089060	0.194670
C1281	C128	0.247140	0.041470	0.212910
C1291	C129	0.219420	0.011470	0.171220
H991	H99	0.219430	0.020670	0.131070
C1301	C130	0.191490	0.967870	0.187270
H1001	H100	0.172930	0.947570	0.157670
C1311	C131	0.190160	0.953870	0.243670
C1321	C132	0.218340	0.984280	0.285970
H1011	H101	0.218030	0.975270	0.326270
C1331	C133	0.247160	0.028100	0.269370
H1021	H102	0.266730	0.048370	0.298270
C1341	C134	0.162230	0.906980	0.263370
C1351	C135	0.180020	0.887280	0.297770
H1031	H103	0.209530	0.904570	0.311270
H1041	H104	0.055230	0.899070	0.273870
H1051	H105	0.083630	0.962070	0.184770
O311	O31	0.474760	0.028300	0.567290
O321	O32	0.489140	0.056230	0.477230
C1361	C136	0.476460	0.054070	0.528000
C1371	C137	0.460990	0.086190	0.546240
C1381	C138	0.458710	0.113910	0.504550
H1061	H106	0.467900	0.113900	0.464400
C1391	C139	0.443040	0.141840	0.520600
H1071	H107	0.441300	0.160400	0.491000
C1401	C140	0.430370	0.143170	0.577000
C1411	C141	0.432600	0.114990	0.619300
H1081	H108	0.423900	0.115300	0.659600
C1421	C142	0.447600	0.086170	0.602700
H1091	H109	0.448300	0.066600	0.631600
C1431	C143	0.411410	0.171100	0.596700
C1441	C144	0.373920	0.153310	0.631100
H1101	H110	0.361700	0.123800	0.644600
H1111	H111	0.510500	0.278100	0.607200
H1121	H112	0.545100	0.249700	0.518100
O331	O33	0.141430	0.361630	0.900620
O341	O34	0.155810	0.389560	0.810560
C1451	C145	0.143130	0.387400	0.861330
C1461	C146	0.127660	0.419520	0.879570
C1471	C147	0.125380	0.447240	0.837880
H1131	H113	0.134570	0.447230	0.797730
C1481	C148	0.109710	0.475170	0.853930
H1141	H114	0.107970	0.493730	0.824330
C1491	C149	0.097040	0.476500	0.910330
C1501	C150	0.099270	0.448320	0.952630
H1151	H115	0.090570	0.448630	0.992930
C1511	C151	0.114270	0.419500	0.936030
H1161	H116	0.114970	0.399930	0.964930
C1521	C152	0.078080	0.504430	0.930030
C1531	C153	0.040590	0.486640	0.964430
H1171	H117	0.028370	0.457130	0.977930
H1181	H118	0.177170	0.611430	0.940530
H1191	H119	0.211770	0.583030	0.851430
O351	O35	0.808090	0.694970	0.233960
O361	O36	0.822470	0.722900	0.143900
C1541	C154	0.809790	0.720740	0.194670
C1551	C155	0.794320	0.752860	0.212910
C1561	C156	0.792040	0.780580	0.171220
H1201	H120	0.801230	0.780570	0.131070
C1571	C157	0.776370	0.808510	0.187270
H1211	H121	0.774630	0.827070	0.157670
C1581	C158	0.763700	0.809840	0.243670
C1591	C159	0.765930	0.781660	0.285970
H1221	H122	0.757230	0.781970	0.326270
C1601	C160	0.780930	0.752840	0.269370
H1231	H123	0.781630	0.733270	0.298270
C1611	C161	0.744740	0.837770	0.263370
C1621	C162	0.707250	0.819980	0.297770
H1241	H124	0.695030	0.790470	0.311270
H1251	H125	0.843830	0.944770	0.273870
H1261	H126	0.878430	0.916370	0.184770
O371	O37	0.474760	0.446460	0.567290
O381	O38	0.489140	0.432910	0.477230
C1631	C163	0.476460	0.422390	0.528000
C1641	C164	0.460990	0.374800	0.546240
C1651	C165	0.458710	0.344800	0.504550
H1271	H127	0.467900	0.354000	0.464400
C1661	C166	0.443040	0.301200	0.520600
H1281	H128	0.441300	0.280900	0.491000
C1671	C167	0.430370	0.287200	0.577000
C1681	C168	0.432600	0.317610	0.619300
H1291	H129	0.423900	0.308600	0.659600
C1691	C169	0.447600	0.361430	0.602700
H1301	H130	0.448300	0.381700	0.631600
C1701	C170	0.411410	0.240310	0.596700
C1711	C171	0.373920	0.220610	0.631100
H1311	H131	0.361700	0.237900	0.644600
H1321	H132	0.510500	0.232400	0.607200
H1331	H133	0.545100	0.295400	0.518100
O391	O39	0.141430	0.779790	0.900620
O401	O40	0.155810	0.766240	0.810560
C1721	C172	0.143130	0.755720	0.861330
C1731	C173	0.127660	0.708130	0.879570
C1741	C174	0.125380	0.678130	0.837880
H1341	H134	0.134570	0.687330	0.797730
C1751	C175	0.109710	0.634530	0.853930
H1351	H135	0.107970	0.614230	0.824330
C1761	C176	0.097040	0.620530	0.910330
C1771	C177	0.099270	0.650940	0.952630
H1361	H136	0.090570	0.641930	0.992930
C1781	C178	0.114270	0.694760	0.936030
H1371	H137	0.114970	0.715030	0.964930
C1791	C179	0.078080	0.573640	0.930030
C1801	C180	0.040590	0.553940	0.964430
H1381	H138	0.028370	0.571230	0.977930
H1391	H139	0.177170	0.565730	0.940530
H1401	H140	0.211770	0.628730	0.851430
O411	O41	0.808090	0.113130	0.233960
O421	O42	0.822470	0.099580	0.143900
C1811	C181	0.809790	0.089060	0.194670
C1821	C182	0.794320	0.041470	0.212910
C1831	C183	0.792040	0.011470	0.171220
H1411	H141	0.801230	0.020670	0.131070
C1841	C184	0.776370	0.967870	0.187270
H1421	H142	0.774630	0.947570	0.157670
C1851	C185	0.763700	0.953870	0.243670
C1861	C186	0.765930	0.984280	0.285970
H1431	H143	0.757230	0.975270	0.326270
C1871	C187	0.780930	0.028100	0.269370
H1441	H144	0.781630	0.048370	0.298270
C1881	C188	0.744740	0.906980	0.263370
C1891	C189	0.707250	0.887280	0.297770
H1451	H145	0.695030	0.904570	0.311270
H1461	H146	0.843830	0.899070	0.273870
H1471	H147	0.878430	0.962070	0.184770
O431	O43	0.553540	0.028300	0.567290
O441	O44	0.567090	0.056230	0.477230
C1901	C190	0.577610	0.054070	0.528000
C1911	C191	0.625200	0.086190	0.546240
C1921	C192	0.655200	0.113910	0.504550
H1481	H148	0.646000	0.113900	0.464400
C1931	C193	0.698800	0.141840	0.520600
H1491	H149	0.719100	0.160400	0.491000
C1941	C194	0.712800	0.143170	0.577000
C1951	C195	0.682390	0.114990	0.619300
H1501	H150	0.691400	0.115300	0.659600
C1961	C196	0.638570	0.086170	0.602700
H1511	H151	0.618300	0.066600	0.631600
C1971	C197	0.759690	0.171100	0.596700
C1981	C198	0.779390	0.153310	0.631100
H1521	H152	0.762100	0.123800	0.644600
H1531	H153	0.767600	0.278100	0.607200
H1541	H154	0.704600	0.249700	0.518100
O451	O45	0.220210	0.361630	0.900620
O461	O46	0.233760	0.389560	0.810560
C1991	C199	0.244280	0.387400	0.861330
C2001	C200	0.291870	0.419520	0.879570
C2011	C201	0.321870	0.447240	0.837880
H1551	H155	0.312670	0.447230	0.797730
C2021	C202	0.365470	0.475170	0.853930
H1561	H156	0.385770	0.493730	0.824330
C2031	C203	0.379470	0.476500	0.910330
C2041	C204	0.349060	0.448320	0.952630
H1571	H157	0.358070	0.448630	0.992930
C2051	C205	0.305240	0.419500	0.936030
H1581	H158	0.284970	0.399930	0.964930
C2061	C206	0.426360	0.504430	0.930030
C2071	C207	0.446060	0.486640	0.964430
H1591	H159	0.428770	0.457130	0.977930
H1601	H160	0.434270	0.611430	0.940530
H1611	H161	0.371270	0.583030	0.851430
O471	O47	0.886870	0.694970	0.233960
O481	O48	0.900420	0.722900	0.143900
C2081	C208	0.910940	0.720740	0.194670
C2091	C209	0.958530	0.752860	0.212910
C2101	C210	0.988530	0.780580	0.171220
H1621	H162	0.979330	0.780570	0.131070
C2111	C211	0.032130	0.808510	0.187270
H1631	H163	0.052430	0.827070	0.157670
C2121	C212	0.046130	0.809840	0.243670
C2131	C213	0.015720	0.781660	0.285970
H1641	H164	0.024730	0.781970	0.326270
C2141	C214	0.971900	0.752840	0.269370
H1651	H165	0.951630	0.733270	0.298270
C2151	C215	0.093020	0.837770	0.263370
C2161	C216	0.112720	0.819980	0.297770
H1661	H166	0.095430	0.790470	0.311270
H1671	H167	0.100930	0.944770	0.273870
H1681	H168	0.037930	0.916370	0.184770
O491	O49	0.971700	0.525240	0.567290
O501	O50	0.943770	0.510860	0.477230
C2171	C217	0.945930	0.523540	0.528000
C2181	C218	0.913810	0.539010	0.546240
C2191	C219	0.886090	0.541290	0.504550
H1691	H169	0.886100	0.532100	0.464400
C2201	C220	0.858160	0.556960	0.520600
H1701	H170	0.839600	0.558700	0.491000
C2211	C221	0.856830	0.569630	0.577000
C2221	C222	0.885010	0.567400	0.619300
H1711	H171	0.884700	0.576100	0.659600
C2231	C223	0.913830	0.552400	0.602700
H1721	H172	0.933400	0.551700	0.631600
C2241	C224	0.828900	0.588590	0.596700
C2251	C225	0.846690	0.626080	0.631100
H1731	H173	0.876200	0.638300	0.644600
H1741	H174	0.721900	0.489500	0.607200
H1751	H175	0.750300	0.454900	0.518100
O511	O51	0.638370	0.858570	0.900620
O521	O52	0.610440	0.844190	0.810560
C2261	C226	0.612600	0.856870	0.861330
C2271	C227	0.580480	0.872340	0.879570
C2281	C228	0.552760	0.874620	0.837880
H1761	H176	0.552770	0.865430	0.797730
C2291	C229	0.524830	0.890290	0.853930
H1771	H177	0.506270	0.892030	0.824330
C2301	C230	0.523500	0.902960	0.910330
C2311	C231	0.551680	0.900730	0.952630
H1781	H178	0.551370	0.909430	0.992930
C2321	C232	0.580500	0.885730	0.936030
H1791	H179	0.600070	0.885030	0.964930
C2331	C233	0.495570	0.921920	0.930030
C2341	C234	0.513360	0.959410	0.964430
H1801	H180	0.542870	0.971630	0.977930
H1811	H181	0.388570	0.822830	0.940530
H1821	H182	0.416970	0.788230	0.851430
O531	O53	0.305030	0.191910	0.233960
O541	O54	0.277100	0.177530	0.143900
C2351	C235	0.279260	0.190210	0.194670
C2361	C236	0.247140	0.205680	0.212910
C2371	C237	0.219420	0.207960	0.171220
H1831	H183	0.219430	0.198770	0.131070
C2381	C238	0.191490	0.223630	0.187270
H1841	H184	0.172930	0.225370	0.157670
C2391	C239	0.190160	0.236300	0.243670
C2401	C240	0.218340	0.234070	0.285970
H1851	H185	0.218030	0.242770	0.326270
C2411	C241	0.247160	0.219070	0.269370
H1861	H186	0.266730	0.218370	0.298270
C2421	C242	0.162230	0.255260	0.263370
C2431	C243	0.180020	0.292750	0.297770
H1871	H187	0.209530	0.304970	0.311270
H1881	H188	0.055230	0.156170	0.273870
H1891	H189	0.083630	0.121570	0.184770
O551	O55	0.446460	0.474760	0.432710
O561	O56	0.432910	0.489140	0.522770
C2441	C244	0.422390	0.476460	0.472000
C2451	C245	0.374800	0.460990	0.453760
C2461	C246	0.344800	0.458710	0.495450
H1901	H190	0.354000	0.467900	0.535600
C2471	C247	0.301200	0.443040	0.479400
H1911	H191	0.280900	0.441300	0.509000
C2481	C248	0.287200	0.430370	0.423000
C2491	C249	0.317610	0.432600	0.380700
H1921	H192	0.308600	0.423900	0.340400
C2501	C250	0.361430	0.447600	0.397300
H1931	H193	0.381700	0.448300	0.368400
C2511	C251	0.240310	0.411410	0.403300
C2521	C252	0.220610	0.373920	0.368900
H1941	H194	0.237900	0.361700	0.355400
H1951	H195	0.232400	0.510500	0.392800
H1961	H196	0.295400	0.545100	0.481900
O571	O57	0.113130	0.808090	0.766040
O581	O58	0.099580	0.822470	0.856100
C2531	C253	0.089060	0.809790	0.805330
C2541	C254	0.041470	0.794320	0.787090
C2551	C255	0.011470	0.792040	0.828780
H1971	H197	0.020670	0.801230	0.868930
C2561	C256	0.967870	0.776370	0.812730
H1981	H198	0.947570	0.774630	0.842330
C2571	C257	0.953870	0.763700	0.756330
C2581	C258	0.984280	0.765930	0.714030
H1991	H199	0.975270	0.757230	0.673730
C2591	C259	0.028100	0.780930	0.730630
H2001	H200	0.048370	0.781630	0.701730
C2601	C260	0.906980	0.744740	0.736630
C2611	C261	0.887280	0.707250	0.702230
H2011	H201	0.904570	0.695030	0.688730
H2021	H202	0.899070	0.843830	0.726130
H2031	H203	0.962070	0.878430	0.815230
O591	O59	0.779790	0.141430	0.099380
O601	O60	0.766240	0.155810	0.189440
C2621	C262	0.755720	0.143130	0.138670
C2631	C263	0.708130	0.127660	0.120430
C2641	C264	0.678130	0.125380	0.162120
H2041	H204	0.687330	0.134570	0.202270
C2651	C265	0.634530	0.109710	0.146070
H2051	H205	0.614230	0.107970	0.175670
C2661	C266	0.620530	0.097040	0.089670
C2671	C267	0.650940	0.099270	0.047370
H2061	H206	0.641930	0.090570	0.007070
C2681	C268	0.694760	0.114270	0.063970
H2071	H207	0.715030	0.114970	0.035070
C2691	C269	0.573640	0.078080	0.069970
C2701	C270	0.553940	0.040590	0.035570
H2081	H208	0.571230	0.028370	0.022070
H2091	H209	0.565730	0.177170	0.059470
H2101	H210	0.628730	0.211770	0.148570
O611	O61	0.028300	0.553540	0.432710
O621	O62	0.056230	0.567090	0.522770
C2711	C271	0.054070	0.577610	0.472000
C2721	C272	0.086190	0.625200	0.453760
C2731	C273	0.113910	0.655200	0.495450
H2111	H211	0.113900	0.646000	0.535600
C2741	C274	0.141840	0.698800	0.479400
H2121	H212	0.160400	0.719100	0.509000
C2751	C275	0.143170	0.712800	0.423000
C2761	C276	0.114990	0.682390	0.380700
H2131	H213	0.115300	0.691400	0.340400
C2771	C277	0.086170	0.638570	0.397300
H2141	H214	0.066600	0.618300	0.368400
C2781	C278	0.171100	0.759690	0.403300
C2791	C279	0.153310	0.779390	0.368900
H2151	H215	0.123800	0.762100	0.355400
H2161	H216	0.278100	0.767600	0.392800
H2171	H217	0.249700	0.704600	0.481900
O631	O63	0.694970	0.886870	0.766040
O641	O64	0.722900	0.900420	0.856100
C2801	C280	0.720740	0.910940	0.805330
C2811	C281	0.752860	0.958530	0.787090
C2821	C282	0.780580	0.988530	0.828780
H2181	H218	0.780570	0.979330	0.868930
C2831	C283	0.808510	0.032130	0.812730
H2191	H219	0.827070	0.052430	0.842330
C2841	C284	0.809840	0.046130	0.756330
C2851	C285	0.781660	0.015720	0.714030
H2201	H220	0.781970	0.024730	0.673730
C2861	C286	0.752840	0.971900	0.730630
H2211	H221	0.733270	0.951630	0.701730
C2871	C287	0.837770	0.093020	0.736630
C2881	C288	0.819980	0.112720	0.702230
H2221	H222	0.790470	0.095430	0.688730
H2231	H223	0.944770	0.100930	0.726130
H2241	H224	0.916370	0.037930	0.815230
O651	O65	0.361630	0.220210	0.099380
O661	O66	0.389560	0.233760	0.189440
C2891	C289	0.387400	0.244280	0.138670
C2901	C290	0.419520	0.291870	0.120430
C2911	C291	0.447240	0.321870	0.162120
H2251	H225	0.447230	0.312670	0.202270
C2921	C292	0.475170	0.365470	0.146070
H2261	H226	0.493730	0.385770	0.175670
C2931	C293	0.476500	0.379470	0.089670
C2941	C294	0.448320	0.349060	0.047370
H2271	H227	0.448630	0.358070	0.007070
C2951	C295	0.419500	0.305240	0.063970
H2281	H228	0.399930	0.284970	0.035070
C2961	C296	0.504430	0.426360	0.069970
C2971	C297	0.486640	0.446060	0.035570
H2291	H229	0.457130	0.428770	0.022070
H2301	H230	0.611430	0.434270	0.059470
H2311	H231	0.583030	0.371270	0.148570
O671	O67	0.525240	0.971700	0.432710
O681	O68	0.510860	0.943770	0.522770
C2981	C298	0.523540	0.945930	0.472000
C2991	C299	0.539010	0.913810	0.453760
C3001	C300	0.541290	0.886090	0.495450
H2321	H232	0.532100	0.886100	0.535600
C3011	C301	0.556960	0.858160	0.479400
H2331	H233	0.558700	0.839600	0.509000
C3021	C302	0.569630	0.856830	0.423000
C3031	C303	0.567400	0.885010	0.380700
H2341	H234	0.576100	0.884700	0.340400
C3041	C304	0.552400	0.913830	0.397300
H2351	H235	0.551700	0.933400	0.368400
C3051	C305	0.588590	0.828900	0.403300
C3061	C306	0.626080	0.846690	0.368900
H2361	H236	0.638300	0.876200	0.355400
H2371	H237	0.489500	0.721900	0.392800
H2381	H238	0.454900	0.750300	0.481900
O691	O69	0.191910	0.305030	0.766040
O701	O70	0.177530	0.277100	0.856100
C3071	C307	0.190210	0.279260	0.805330
C3081	C308	0.205680	0.247140	0.787090
C3091	C309	0.207960	0.219420	0.828780
H2391	H239	0.198770	0.219430	0.868930
C3101	C310	0.223630	0.191490	0.812730
H2401	H240	0.225370	0.172930	0.842330
C3111	C311	0.236300	0.190160	0.756330
C3121	C312	0.234070	0.218340	0.714030
H2411	H241	0.242770	0.218030	0.673730
C3131	C313	0.219070	0.247160	0.730630
H2421	H242	0.218370	0.266730	0.701730
C3141	C314	0.255260	0.162230	0.736630
C3151	C315	0.292750	0.180020	0.702230
H2431	H243	0.304970	0.209530	0.688730
H2441	H244	0.156170	0.055230	0.726130
H2451	H245	0.121570	0.083630	0.815230
O711	O71	0.858570	0.638370	0.099380
O721	O72	0.844190	0.610440	0.189440
C3161	C316	0.856870	0.612600	0.138670
C3171	C317	0.872340	0.580480	0.120430
C3181	C318	0.874620	0.552760	0.162120
H2461	H246	0.865430	0.552770	0.202270
C3191	C319	0.890290	0.524830	0.146070
H2471	H247	0.892030	0.506270	0.175670
C3201	C320	0.902960	0.523500	0.089670
C3211	C321	0.900730	0.551680	0.047370
H2481	H248	0.909430	0.551370	0.007070
C3221	C322	0.885730	0.580500	0.063970
H2491	H249	0.885030	0.600070	0.035070
C3231	C323	0.921920	0.495570	0.069970
C3241	C324	0.959410	0.513360	0.035570
H2501	H250	0.971630	0.542870	0.022070
H2511	H251	0.822830	0.388570	0.059470
H2521	H252	0.788230	0.416970	0.148570
Cu11	Cu1	0.491960	0.508040	0.553470
Cu21	Cu2	0.158630	0.841370	0.886800
Cu31	Cu3	0.825290	0.174710	0.220140
Cu41	Cu4	0.491960	0.983920	0.553470
Cu51	Cu5	0.158630	0.317250	0.886800
Cu61	Cu6	0.825290	0.650590	0.220140
Cu71	Cu7	0.016080	0.508040	0.553470
Cu81	Cu8	0.682750	0.841370	0.886800
Cu91	Cu9	0.349410	0.174710	0.220140
Cu101	Cu10	0.508040	0.491960	0.446530
Cu111	Cu11	0.174710	0.825290	0.779860
Cu121	Cu12	0.841370	0.158630	0.113200
Cu131	Cu13	0.983920	0.491960	0.446530
Cu141	Cu14	0.650590	0.825290	0.779860
Cu151	Cu15	0.317250	0.158630	0.113200
Cu161	Cu16	0.508040	0.016080	0.446530
Cu171	Cu17	0.174710	0.349410	0.779860
Cu181	Cu18	0.841370	0.682750	0.113200
O731	O73	0.531670	0.765840	0.455200
C3251	C325	0.646650	0.823330	0.353200
C3261	C326	0.569220	0.784610	0.421400
C3271	C327	0.490300	0.745150	0.418800
C3281	C328	0.454200	0.727100	0.456500
H2531	H253	0.427200	0.713600	0.432400
O741	O74	0.198340	0.099170	0.788530
C3291	C329	0.313320	0.156660	0.686530
C3301	C330	0.235890	0.117940	0.754730
C3311	C331	0.156970	0.078480	0.752130
C3321	C332	0.120870	0.060430	0.789830
H2541	H254	0.093870	0.046930	0.765730
O751	O75	0.865000	0.432500	0.121870
C3331	C333	0.979980	0.489990	0.019870
C3341	C334	0.902550	0.451280	0.088070
C3351	C335	0.823630	0.411820	0.085470
C3361	C336	0.787530	0.393770	0.123170
H2551	H255	0.760530	0.380270	0.099070
O761	O76	0.234160	0.765840	0.455200
C3371	C337	0.176670	0.823330	0.353200
C3381	C338	0.215390	0.784610	0.421400
C3391	C339	0.254850	0.745150	0.418800
C3401	C340	0.272900	0.727100	0.456500
H2561	H256	0.286400	0.713600	0.432400
O771	O77	0.900830	0.099170	0.788530
C3411	C341	0.843340	0.156660	0.686530
C3421	C342	0.882060	0.117940	0.754730
C3431	C343	0.921520	0.078480	0.752130
C3441	C344	0.939570	0.060430	0.789830
H2571	H257	0.953070	0.046930	0.765730
O781	O78	0.567500	0.432500	0.121870
C3451	C345	0.510010	0.489990	0.019870
C3461	C346	0.548720	0.451280	0.088070
C3471	C347	0.588180	0.411820	0.085470
C3481	C348	0.606230	0.393770	0.123170
H2581	H258	0.619730	0.380270	0.099070
O791	O79	0.234160	0.468330	0.455200
C3491	C349	0.176670	0.353350	0.353200
C3501	C350	0.215390	0.430780	0.421400
C3511	C351	0.254850	0.509700	0.418800
C3521	C352	0.272900	0.545800	0.456500
H2591	H259	0.286400	0.572800	0.432400
O801	O80	0.900830	0.801660	0.788530
C3531	C353	0.843340	0.686680	0.686530
C3541	C354	0.882060	0.764110	0.754730
C3551	C355	0.921520	0.843030	0.752130
C3561	C356	0.939570	0.879130	0.789830
H2601	H260	0.953070	0.906130	0.765730
O811	O81	0.567500	0.135000	0.121870
C3571	C357	0.510010	0.020020	0.019870
C3581	C358	0.548720	0.097450	0.088070
C3591	C359	0.588180	0.176370	0.085470
C3601	C360	0.606230	0.212470	0.123170
H2611	H261	0.619730	0.239470	0.099070
O821	O82	0.765840	0.531670	0.544800
C3611	C361	0.823330	0.646650	0.646800
C3621	C362	0.784610	0.569220	0.578600
C3631	C363	0.745150	0.490300	0.581200
C3641	C364	0.727100	0.454200	0.543500
H2621	H262	0.713600	0.427200	0.567600
O831	O83	0.432500	0.865000	0.878130
C3651	C365	0.489990	0.979980	0.980130
C3661	C366	0.451280	0.902550	0.911930
C3671	C367	0.411820	0.823630	0.914530
C3681	C368	0.393770	0.787530	0.876830
H2631	H263	0.380270	0.760530	0.900930
O841	O84	0.099170	0.198340	0.211470
C3691	C369	0.156660	0.313320	0.313470
C3701	C370	0.117940	0.235890	0.245270
C3711	C371	0.078480	0.156970	0.247870
C3721	C372	0.060430	0.120870	0.210170
H2641	H264	0.046930	0.093870	0.234270
O851	O85	0.765840	0.234160	0.544800
C3731	C373	0.823330	0.176670	0.646800
C3741	C374	0.784610	0.215390	0.578600
C3751	C375	0.745150	0.254850	0.581200
C3761	C376	0.727100	0.272900	0.543500
H2651	H265	0.713600	0.286400	0.567600
O861	O86	0.432500	0.567500	0.878130
C3771	C377	0.489990	0.510010	0.980130
C3781	C378	0.451280	0.548720	0.911930
C3791	C379	0.411820	0.588180	0.914530
C3801	C380	0.393770	0.606230	0.876830
H2661	H266	0.380270	0.619730	0.900930
O871	O87	0.099170	0.900830	0.211470
C3811	C381	0.156660	0.843340	0.313470
C3821	C382	0.117940	0.882060	0.245270
C3831	C383	0.078480	0.921520	0.247870
C3841	C384	0.060430	0.939570	0.210170
H2671	H267	0.046930	0.953070	0.234270
O881	O88	0.468330	0.234160	0.544800
C3851	C385	0.353350	0.176670	0.646800
C3861	C386	0.430780	0.215390	0.578600
C3871	C387	0.509700	0.254850	0.581200
C3881	C388	0.545800	0.272900	0.543500
H2681	H268	0.572800	0.286400	0.567600
O891	O89	0.135000	0.567500	0.878130
C3891	C389	0.020020	0.510010	0.980130
C3901	C390	0.097450	0.548720	0.911930
C3911	C391	0.176370	0.588180	0.914530
C3921	C392	0.212470	0.606230	0.876830
H2691	H269	0.239470	0.619730	0.900930
O901	O90	0.801660	0.900830	0.211470
C3931	C393	0.686680	0.843340	0.313470
C3941	C394	0.764110	0.882060	0.245270
C3951	C395	0.843030	0.921520	0.247870
C3961	C396	0.879130	0.939570	0.210170
H2701	H270	0.906130	0.953070	0.234270
