data_UMODEH22_clean_PM
_symmetry_space_group_name_H-M	'P1'
_cell_length_a	35.279500
_cell_length_b	35.279500
_cell_length_c	21.025000
_cell_angle_alpha	90.000000
_cell_angle_beta	90.000000
_cell_angle_gamma	120.000000
_symmetry_Int_Tables_number 1

loop_
_symmetry_equiv_pos_as_xyz
'x,y,z'

loop_
_atom_site_label
_atom_site_type_symbol
_atom_site_fract_x
_atom_site_fract_y
_atom_site_fract_z
O11	O1	0.524430	0.553760	0.428490
O21	O2	0.511160	0.566880	0.528940
C11	C1	0.523040	0.577810	0.472270
C21	C2	0.538060	0.624790	0.453390
C31	C3	0.538210	0.653830	0.498490
H11	H1	0.528700	0.644300	0.540700
C41	C4	0.552580	0.697170	0.480870
H21	H2	0.552200	0.716900	0.511300
C51	C5	0.567160	0.711610	0.420470
C61	C6	0.566710	0.682240	0.375950
H31	H3	0.576400	0.691800	0.333800
C71	C7	0.552110	0.638940	0.392730
H41	H4	0.551900	0.619100	0.362000
C81	C8	0.586270	0.758680	0.402010
C91	C9	0.625090	0.778950	0.367930
H51	H5	0.638100	0.762000	0.356300
H61	H6	0.488000	0.721300	0.389600
H71	H7	0.451700	0.748500	0.488100
O31	O3	0.191100	0.887090	0.761820
O41	O4	0.177830	0.900210	0.862270
C101	C10	0.189710	0.911140	0.805600
C111	C11	0.204730	0.958120	0.786720
C121	C12	0.204880	0.987160	0.831820
H81	H8	0.195370	0.977630	0.874030
C131	C13	0.219250	0.030500	0.814200
H91	H9	0.218870	0.050230	0.844630
C141	C14	0.233830	0.044940	0.753800
C151	C15	0.233380	0.015570	0.709280
H101	H10	0.243070	0.025130	0.667130
C161	C16	0.218780	0.972270	0.726060
H111	H11	0.218570	0.952430	0.695330
C171	C17	0.252940	0.092010	0.735340
C181	C18	0.291760	0.112280	0.701260
H121	H12	0.304770	0.095330	0.689630
H131	H13	0.154670	0.054630	0.722930
H141	H14	0.118370	0.081830	0.821430
O51	O5	0.857760	0.220430	0.095160
O61	O6	0.844490	0.233550	0.195610
C191	C19	0.856370	0.244480	0.138940
C201	C20	0.871390	0.291460	0.120060
C211	C21	0.871540	0.320500	0.165160
H151	H15	0.862030	0.310970	0.207370
C221	C22	0.885910	0.363840	0.147540
H161	H16	0.885530	0.383570	0.177970
C231	C23	0.900490	0.378280	0.087140
C241	C24	0.900040	0.348910	0.042620
H171	H17	0.909730	0.358470	0.000470
C251	C25	0.885440	0.305610	0.059400
H181	H18	0.885230	0.285770	0.028670
C261	C26	0.919600	0.425350	0.068680
C271	C27	0.958420	0.445620	0.034600
H191	H19	0.971430	0.428670	0.022970
H201	H20	0.821330	0.387970	0.056270
H211	H21	0.785030	0.415170	0.154770
O71	O7	0.446240	0.970670	0.428490
O81	O8	0.433120	0.944280	0.528940
C281	C28	0.422190	0.945230	0.472270
C291	C29	0.375210	0.913270	0.453390
C301	C30	0.346170	0.884380	0.498490
H221	H22	0.355700	0.884400	0.540700
C311	C31	0.302830	0.855410	0.480870
H231	H23	0.283100	0.835300	0.511300
C321	C32	0.288390	0.855550	0.420470
C331	C33	0.317760	0.884470	0.375950
H241	H24	0.308200	0.884600	0.333800
C341	C34	0.361060	0.913170	0.392730
H251	H25	0.380900	0.932800	0.362000
C351	C35	0.241320	0.827590	0.402010
C361	C36	0.221050	0.846140	0.367930
H261	H26	0.238000	0.876100	0.356300
H271	H27	0.278700	0.766700	0.389600
H281	H28	0.251500	0.703200	0.488100
O91	O9	0.112910	0.304000	0.761820
O101	O10	0.099790	0.277610	0.862270
C371	C37	0.088860	0.278560	0.805600
C381	C38	0.041880	0.246600	0.786720
C391	C39	0.012840	0.217710	0.831820
H291	H29	0.022370	0.217730	0.874030
C401	C40	0.969500	0.188740	0.814200
H301	H30	0.949770	0.168630	0.844630
C411	C41	0.955060	0.188880	0.753800
C421	C42	0.984430	0.217800	0.709280
H311	H31	0.974870	0.217930	0.667130
C431	C43	0.027730	0.246500	0.726060
H321	H32	0.047570	0.266130	0.695330
C441	C44	0.907990	0.160920	0.735340
C451	C45	0.887720	0.179470	0.701260
H331	H33	0.904670	0.209430	0.689630
H341	H34	0.945370	0.100030	0.722930
H351	H35	0.918170	0.036530	0.821430
O111	O11	0.779570	0.637340	0.095160
O121	O12	0.766450	0.610950	0.195610
C461	C46	0.755520	0.611900	0.138940
C471	C47	0.708540	0.579940	0.120060
C481	C48	0.679500	0.551050	0.165160
H361	H36	0.689030	0.551070	0.207370
C491	C49	0.636160	0.522080	0.147540
H371	H37	0.616430	0.501970	0.177970
C501	C50	0.621720	0.522220	0.087140
C511	C51	0.651090	0.551140	0.042620
H381	H38	0.641530	0.551270	0.000470
C521	C52	0.694390	0.579840	0.059400
H391	H39	0.714230	0.599470	0.028670
C531	C53	0.574650	0.494260	0.068680
C541	C54	0.554380	0.512810	0.034600
H401	H40	0.571330	0.542770	0.022970
H411	H41	0.612030	0.433370	0.056270
H421	H42	0.584830	0.369870	0.154770
O131	O13	0.029330	0.475570	0.428490
O141	O14	0.055720	0.488840	0.528940
C551	C55	0.054770	0.476960	0.472270
C561	C56	0.086730	0.461940	0.453390
C571	C57	0.115620	0.461790	0.498490
H431	H43	0.115600	0.471300	0.540700
C581	C58	0.144590	0.447420	0.480870
H441	H44	0.164700	0.447800	0.511300
C591	C59	0.144450	0.432840	0.420470
C601	C60	0.115530	0.433290	0.375950
H451	H45	0.115400	0.423600	0.333800
C611	C61	0.086830	0.447890	0.392730
H461	H46	0.067200	0.448100	0.362000
C621	C62	0.172410	0.413730	0.402010
C631	C63	0.153860	0.374910	0.367930
H471	H47	0.123900	0.361900	0.356300
H481	H48	0.233300	0.512000	0.389600
H491	H49	0.296800	0.548300	0.488100
O151	O15	0.696000	0.808900	0.761820
O161	O16	0.722390	0.822170	0.862270
C641	C64	0.721440	0.810290	0.805600
C651	C65	0.753400	0.795270	0.786720
C661	C66	0.782290	0.795120	0.831820
H501	H50	0.782270	0.804630	0.874030
C671	C67	0.811260	0.780750	0.814200
H511	H51	0.831370	0.781130	0.844630
C681	C68	0.811120	0.766170	0.753800
C691	C69	0.782200	0.766620	0.709280
H521	H52	0.782070	0.756930	0.667130
C701	C70	0.753500	0.781220	0.726060
H531	H53	0.733870	0.781430	0.695330
C711	C71	0.839080	0.747060	0.735340
C721	C72	0.820530	0.708240	0.701260
H541	H54	0.790570	0.695230	0.689630
H551	H55	0.899970	0.845330	0.722930
H561	H56	0.963470	0.881630	0.821430
O171	O17	0.362660	0.142240	0.095160
O181	O18	0.389050	0.155510	0.195610
C731	C73	0.388100	0.143630	0.138940
C741	C74	0.420060	0.128610	0.120060
C751	C75	0.448950	0.128460	0.165160
H571	H57	0.448930	0.137970	0.207370
C761	C76	0.477920	0.114090	0.147540
H581	H58	0.498030	0.114470	0.177970
C771	C77	0.477780	0.099510	0.087140
C781	C78	0.448860	0.099960	0.042620
H591	H59	0.448730	0.090270	0.000470
C791	C79	0.420160	0.114560	0.059400
H601	H60	0.400530	0.114770	0.028670
C801	C80	0.505740	0.080400	0.068680
C811	C81	0.487190	0.041580	0.034600
H611	H61	0.457230	0.028570	0.022970
H621	H62	0.566630	0.178670	0.056270
H631	H63	0.630130	0.214970	0.154770
O191	O19	0.553760	0.524430	0.571510
O201	O20	0.566880	0.511160	0.471060
C821	C82	0.577810	0.523040	0.527730
C831	C83	0.624790	0.538060	0.546610
C841	C84	0.653830	0.538210	0.501510
H641	H64	0.644300	0.528700	0.459300
C851	C85	0.697170	0.552580	0.519130
H651	H65	0.716900	0.552200	0.488700
C861	C86	0.711610	0.567160	0.579530
C871	C87	0.682240	0.566710	0.624050
H661	H66	0.691800	0.576400	0.666200
C881	C88	0.638940	0.552110	0.607270
H671	H67	0.619100	0.551900	0.638000
C891	C89	0.758680	0.586270	0.597990
C901	C90	0.778950	0.625090	0.632070
H681	H68	0.762000	0.638100	0.643700
H691	H69	0.721300	0.488000	0.610400
H701	H70	0.748500	0.451700	0.511900
O211	O21	0.220430	0.857760	0.904840
O221	O22	0.233550	0.844490	0.804390
C911	C91	0.244480	0.856370	0.861060
C921	C92	0.291460	0.871390	0.879940
C931	C93	0.320500	0.871540	0.834840
H711	H71	0.310970	0.862030	0.792630
C941	C94	0.363840	0.885910	0.852460
H721	H72	0.383570	0.885530	0.822030
C951	C95	0.378280	0.900490	0.912860
C961	C96	0.348910	0.900040	0.957380
H731	H73	0.358470	0.909730	0.999530
C971	C97	0.305610	0.885440	0.940600
H741	H74	0.285770	0.885230	0.971330
C981	C98	0.425350	0.919600	0.931320
C991	C99	0.445620	0.958420	0.965400
H751	H75	0.428670	0.971430	0.977030
H761	H76	0.387970	0.821330	0.943730
H771	H77	0.415170	0.785030	0.845230
O231	O23	0.887090	0.191100	0.238180
O241	O24	0.900210	0.177830	0.137730
C1001	C100	0.911140	0.189710	0.194400
C1011	C101	0.958120	0.204730	0.213280
C1021	C102	0.987160	0.204880	0.168180
H781	H78	0.977630	0.195370	0.125970
C1031	C103	0.030500	0.219250	0.185800
H791	H79	0.050230	0.218870	0.155370
C1041	C104	0.044940	0.233830	0.246200
C1051	C105	0.015570	0.233380	0.290720
H801	H80	0.025130	0.243070	0.332870
C1061	C106	0.972270	0.218780	0.273940
H811	H81	0.952430	0.218570	0.304670
C1071	C107	0.092010	0.252940	0.264660
C1081	C108	0.112280	0.291760	0.298740
H821	H82	0.095330	0.304770	0.310370
H831	H83	0.054630	0.154670	0.277070
H841	H84	0.081830	0.118370	0.178570
O251	O25	0.970670	0.446240	0.571510
O261	O26	0.944280	0.433120	0.471060
C1091	C109	0.945230	0.422190	0.527730
C1101	C110	0.913270	0.375210	0.546610
C1111	C111	0.884380	0.346170	0.501510
H851	H85	0.884400	0.355700	0.459300
C1121	C112	0.855410	0.302830	0.519130
H861	H86	0.835300	0.283100	0.488700
C1131	C113	0.855550	0.288390	0.579530
C1141	C114	0.884470	0.317760	0.624050
H871	H87	0.884600	0.308200	0.666200
C1151	C115	0.913170	0.361060	0.607270
H881	H88	0.932800	0.380900	0.638000
C1161	C116	0.827590	0.241320	0.597990
C1171	C117	0.846140	0.221050	0.632070
H891	H89	0.876100	0.238000	0.643700
H901	H90	0.766700	0.278700	0.610400
H911	H91	0.703200	0.251500	0.511900
O271	O27	0.637340	0.779570	0.904840
O281	O28	0.610950	0.766450	0.804390
C1181	C118	0.611900	0.755520	0.861060
C1191	C119	0.579940	0.708540	0.879940
C1201	C120	0.551050	0.679500	0.834840
H921	H92	0.551070	0.689030	0.792630
C1211	C121	0.522080	0.636160	0.852460
H931	H93	0.501970	0.616430	0.822030
C1221	C122	0.522220	0.621720	0.912860
C1231	C123	0.551140	0.651090	0.957380
H941	H94	0.551270	0.641530	0.999530
C1241	C124	0.579840	0.694390	0.940600
H951	H95	0.599470	0.714230	0.971330
C1251	C125	0.494260	0.574650	0.931320
C1261	C126	0.512810	0.554380	0.965400
H961	H96	0.542770	0.571330	0.977030
H971	H97	0.433370	0.612030	0.943730
H981	H98	0.369870	0.584830	0.845230
O291	O29	0.304000	0.112910	0.238180
O301	O30	0.277610	0.099790	0.137730
C1271	C127	0.278560	0.088860	0.194400
C1281	C128	0.246600	0.041880	0.213280
C1291	C129	0.217710	0.012840	0.168180
H991	H99	0.217730	0.022370	0.125970
C1301	C130	0.188740	0.969500	0.185800
H1001	H100	0.168630	0.949770	0.155370
C1311	C131	0.188880	0.955060	0.246200
C1321	C132	0.217800	0.984430	0.290720
H1011	H101	0.217930	0.974870	0.332870
C1331	C133	0.246500	0.027730	0.273940
H1021	H102	0.266130	0.047570	0.304670
C1341	C134	0.160920	0.907990	0.264660
C1351	C135	0.179470	0.887720	0.298740
H1031	H103	0.209430	0.904670	0.310370
H1041	H104	0.100030	0.945370	0.277070
H1051	H105	0.036530	0.918170	0.178570
O311	O31	0.475570	0.029330	0.571510
O321	O32	0.488840	0.055720	0.471060
C1361	C136	0.476960	0.054770	0.527730
C1371	C137	0.461940	0.086730	0.546610
C1381	C138	0.461790	0.115620	0.501510
H1061	H106	0.471300	0.115600	0.459300
C1391	C139	0.447420	0.144590	0.519130
H1071	H107	0.447800	0.164700	0.488700
C1401	C140	0.432840	0.144450	0.579530
C1411	C141	0.433290	0.115530	0.624050
H1081	H108	0.423600	0.115400	0.666200
C1421	C142	0.447890	0.086830	0.607270
H1091	H109	0.448100	0.067200	0.638000
C1431	C143	0.413730	0.172410	0.597990
C1441	C144	0.374910	0.153860	0.632070
H1101	H110	0.361900	0.123900	0.643700
H1111	H111	0.512000	0.233300	0.610400
H1121	H112	0.548300	0.296800	0.511900
O331	O33	0.142240	0.362660	0.904840
O341	O34	0.155510	0.389050	0.804390
C1451	C145	0.143630	0.388100	0.861060
C1461	C146	0.128610	0.420060	0.879940
C1471	C147	0.128460	0.448950	0.834840
H1131	H113	0.137970	0.448930	0.792630
C1481	C148	0.114090	0.477920	0.852460
H1141	H114	0.114470	0.498030	0.822030
C1491	C149	0.099510	0.477780	0.912860
C1501	C150	0.099960	0.448860	0.957380
H1151	H115	0.090270	0.448730	0.999530
C1511	C151	0.114560	0.420160	0.940600
H1161	H116	0.114770	0.400530	0.971330
C1521	C152	0.080400	0.505740	0.931320
C1531	C153	0.041580	0.487190	0.965400
H1171	H117	0.028570	0.457230	0.977030
H1181	H118	0.178670	0.566630	0.943730
H1191	H119	0.214970	0.630130	0.845230
O351	O35	0.808900	0.696000	0.238180
O361	O36	0.822170	0.722390	0.137730
C1541	C154	0.810290	0.721440	0.194400
C1551	C155	0.795270	0.753400	0.213280
C1561	C156	0.795120	0.782290	0.168180
H1201	H120	0.804630	0.782270	0.125970
C1571	C157	0.780750	0.811260	0.185800
H1211	H121	0.781130	0.831370	0.155370
C1581	C158	0.766170	0.811120	0.246200
C1591	C159	0.766620	0.782200	0.290720
H1221	H122	0.756930	0.782070	0.332870
C1601	C160	0.781220	0.753500	0.273940
H1231	H123	0.781430	0.733870	0.304670
C1611	C161	0.747060	0.839080	0.264660
C1621	C162	0.708240	0.820530	0.298740
H1241	H124	0.695230	0.790570	0.310370
H1251	H125	0.845330	0.899970	0.277070
H1261	H126	0.881630	0.963470	0.178570
O371	O37	0.475570	0.446240	0.571510
O381	O38	0.488840	0.433120	0.471060
C1631	C163	0.476960	0.422190	0.527730
C1641	C164	0.461940	0.375210	0.546610
C1651	C165	0.461790	0.346170	0.501510
H1271	H127	0.471300	0.355700	0.459300
C1661	C166	0.447420	0.302830	0.519130
H1281	H128	0.447800	0.283100	0.488700
C1671	C167	0.432840	0.288390	0.579530
C1681	C168	0.433290	0.317760	0.624050
H1291	H129	0.423600	0.308200	0.666200
C1691	C169	0.447890	0.361060	0.607270
H1301	H130	0.448100	0.380900	0.638000
C1701	C170	0.413730	0.241320	0.597990
C1711	C171	0.374910	0.221050	0.632070
H1311	H131	0.361900	0.238000	0.643700
H1321	H132	0.512000	0.278700	0.610400
H1331	H133	0.548300	0.251500	0.511900
O391	O39	0.142240	0.779570	0.904840
O401	O40	0.155510	0.766450	0.804390
C1721	C172	0.143630	0.755520	0.861060
C1731	C173	0.128610	0.708540	0.879940
C1741	C174	0.128460	0.679500	0.834840
H1341	H134	0.137970	0.689030	0.792630
C1751	C175	0.114090	0.636160	0.852460
H1351	H135	0.114470	0.616430	0.822030
C1761	C176	0.099510	0.621720	0.912860
C1771	C177	0.099960	0.651090	0.957380
H1361	H136	0.090270	0.641530	0.999530
C1781	C178	0.114560	0.694390	0.940600
H1371	H137	0.114770	0.714230	0.971330
C1791	C179	0.080400	0.574650	0.931320
C1801	C180	0.041580	0.554380	0.965400
H1381	H138	0.028570	0.571330	0.977030
H1391	H139	0.178670	0.612030	0.943730
H1401	H140	0.214970	0.584830	0.845230
O411	O41	0.808900	0.112910	0.238180
O421	O42	0.822170	0.099790	0.137730
C1811	C181	0.810290	0.088860	0.194400
C1821	C182	0.795270	0.041880	0.213280
C1831	C183	0.795120	0.012840	0.168180
H1411	H141	0.804630	0.022370	0.125970
C1841	C184	0.780750	0.969500	0.185800
H1421	H142	0.781130	0.949770	0.155370
C1851	C185	0.766170	0.955060	0.246200
C1861	C186	0.766620	0.984430	0.290720
H1431	H143	0.756930	0.974870	0.332870
C1871	C187	0.781220	0.027730	0.273940
H1441	H144	0.781430	0.047570	0.304670
C1881	C188	0.747060	0.907990	0.264660
C1891	C189	0.708240	0.887720	0.298740
H1451	H145	0.695230	0.904670	0.310370
H1461	H146	0.845330	0.945370	0.277070
H1471	H147	0.881630	0.918170	0.178570
O431	O43	0.553760	0.029330	0.571510
O441	O44	0.566880	0.055720	0.471060
C1901	C190	0.577810	0.054770	0.527730
C1911	C191	0.624790	0.086730	0.546610
C1921	C192	0.653830	0.115620	0.501510
H1481	H148	0.644300	0.115600	0.459300
C1931	C193	0.697170	0.144590	0.519130
H1491	H149	0.716900	0.164700	0.488700
C1941	C194	0.711610	0.144450	0.579530
C1951	C195	0.682240	0.115530	0.624050
H1501	H150	0.691800	0.115400	0.666200
C1961	C196	0.638940	0.086830	0.607270
H1511	H151	0.619100	0.067200	0.638000
C1971	C197	0.758680	0.172410	0.597990
C1981	C198	0.778950	0.153860	0.632070
H1521	H152	0.762000	0.123900	0.643700
H1531	H153	0.721300	0.233300	0.610400
H1541	H154	0.748500	0.296800	0.511900
O451	O45	0.220430	0.362660	0.904840
O461	O46	0.233550	0.389050	0.804390
C1991	C199	0.244480	0.388100	0.861060
C2001	C200	0.291460	0.420060	0.879940
C2011	C201	0.320500	0.448950	0.834840
H1551	H155	0.310970	0.448930	0.792630
C2021	C202	0.363840	0.477920	0.852460
H1561	H156	0.383570	0.498030	0.822030
C2031	C203	0.378280	0.477780	0.912860
C2041	C204	0.348910	0.448860	0.957380
H1571	H157	0.358470	0.448730	0.999530
C2051	C205	0.305610	0.420160	0.940600
H1581	H158	0.285770	0.400530	0.971330
C2061	C206	0.425350	0.505740	0.931320
C2071	C207	0.445620	0.487190	0.965400
H1591	H159	0.428670	0.457230	0.977030
H1601	H160	0.387970	0.566630	0.943730
H1611	H161	0.415170	0.630130	0.845230
O471	O47	0.887090	0.696000	0.238180
O481	O48	0.900210	0.722390	0.137730
C2081	C208	0.911140	0.721440	0.194400
C2091	C209	0.958120	0.753400	0.213280
C2101	C210	0.987160	0.782290	0.168180
H1621	H162	0.977630	0.782270	0.125970
C2111	C211	0.030500	0.811260	0.185800
H1631	H163	0.050230	0.831370	0.155370
C2121	C212	0.044940	0.811120	0.246200
C2131	C213	0.015570	0.782200	0.290720
H1641	H164	0.025130	0.782070	0.332870
C2141	C214	0.972270	0.753500	0.273940
H1651	H165	0.952430	0.733870	0.304670
C2151	C215	0.092010	0.839080	0.264660
C2161	C216	0.112280	0.820530	0.298740
H1661	H166	0.095330	0.790570	0.310370
H1671	H167	0.054630	0.899970	0.277070
H1681	H168	0.081830	0.963470	0.178570
O491	O49	0.970670	0.524430	0.571510
O501	O50	0.944280	0.511160	0.471060
C2171	C217	0.945230	0.523040	0.527730
C2181	C218	0.913270	0.538060	0.546610
C2191	C219	0.884380	0.538210	0.501510
H1691	H169	0.884400	0.528700	0.459300
C2201	C220	0.855410	0.552580	0.519130
H1701	H170	0.835300	0.552200	0.488700
C2211	C221	0.855550	0.567160	0.579530
C2221	C222	0.884470	0.566710	0.624050
H1711	H171	0.884600	0.576400	0.666200
C2231	C223	0.913170	0.552110	0.607270
H1721	H172	0.932800	0.551900	0.638000
C2241	C224	0.827590	0.586270	0.597990
C2251	C225	0.846140	0.625090	0.632070
H1731	H173	0.876100	0.638100	0.643700
H1741	H174	0.766700	0.488000	0.610400
H1751	H175	0.703200	0.451700	0.511900
O511	O51	0.637340	0.857760	0.904840
O521	O52	0.610950	0.844490	0.804390
C2261	C226	0.611900	0.856370	0.861060
C2271	C227	0.579940	0.871390	0.879940
C2281	C228	0.551050	0.871540	0.834840
H1761	H176	0.551070	0.862030	0.792630
C2291	C229	0.522080	0.885910	0.852460
H1771	H177	0.501970	0.885530	0.822030
C2301	C230	0.522220	0.900490	0.912860
C2311	C231	0.551140	0.900040	0.957380
H1781	H178	0.551270	0.909730	0.999530
C2321	C232	0.579840	0.885440	0.940600
H1791	H179	0.599470	0.885230	0.971330
C2331	C233	0.494260	0.919600	0.931320
C2341	C234	0.512810	0.958420	0.965400
H1801	H180	0.542770	0.971430	0.977030
H1811	H181	0.433370	0.821330	0.943730
H1821	H182	0.369870	0.785030	0.845230
O531	O53	0.304000	0.191100	0.238180
O541	O54	0.277610	0.177830	0.137730
C2351	C235	0.278560	0.189710	0.194400
C2361	C236	0.246600	0.204730	0.213280
C2371	C237	0.217710	0.204880	0.168180
H1831	H183	0.217730	0.195370	0.125970
C2381	C238	0.188740	0.219250	0.185800
H1841	H184	0.168630	0.218870	0.155370
C2391	C239	0.188880	0.233830	0.246200
C2401	C240	0.217800	0.233380	0.290720
H1851	H185	0.217930	0.243070	0.332870
C2411	C241	0.246500	0.218780	0.273940
H1861	H186	0.266130	0.218570	0.304670
C2421	C242	0.160920	0.252940	0.264660
C2431	C243	0.179470	0.291760	0.298740
H1871	H187	0.209430	0.304770	0.310370
H1881	H188	0.100030	0.154670	0.277070
H1891	H189	0.036530	0.118370	0.178570
O551	O55	0.446240	0.475570	0.428490
O561	O56	0.433120	0.488840	0.528940
C2441	C244	0.422190	0.476960	0.472270
C2451	C245	0.375210	0.461940	0.453390
C2461	C246	0.346170	0.461790	0.498490
H1901	H190	0.355700	0.471300	0.540700
C2471	C247	0.302830	0.447420	0.480870
H1911	H191	0.283100	0.447800	0.511300
C2481	C248	0.288390	0.432840	0.420470
C2491	C249	0.317760	0.433290	0.375950
H1921	H192	0.308200	0.423600	0.333800
C2501	C250	0.361060	0.447890	0.392730
H1931	H193	0.380900	0.448100	0.362000
C2511	C251	0.241320	0.413730	0.402010
C2521	C252	0.221050	0.374910	0.367930
H1941	H194	0.238000	0.361900	0.356300
H1951	H195	0.278700	0.512000	0.389600
H1961	H196	0.251500	0.548300	0.488100
O571	O57	0.112910	0.808900	0.761820
O581	O58	0.099790	0.822170	0.862270
C2531	C253	0.088860	0.810290	0.805600
C2541	C254	0.041880	0.795270	0.786720
C2551	C255	0.012840	0.795120	0.831820
H1971	H197	0.022370	0.804630	0.874030
C2561	C256	0.969500	0.780750	0.814200
H1981	H198	0.949770	0.781130	0.844630
C2571	C257	0.955060	0.766170	0.753800
C2581	C258	0.984430	0.766620	0.709280
H1991	H199	0.974870	0.756930	0.667130
C2591	C259	0.027730	0.781220	0.726060
H2001	H200	0.047570	0.781430	0.695330
C2601	C260	0.907990	0.747060	0.735340
C2611	C261	0.887720	0.708240	0.701260
H2011	H201	0.904670	0.695230	0.689630
H2021	H202	0.945370	0.845330	0.722930
H2031	H203	0.918170	0.881630	0.821430
O591	O59	0.779570	0.142240	0.095160
O601	O60	0.766450	0.155510	0.195610
C2621	C262	0.755520	0.143630	0.138940
C2631	C263	0.708540	0.128610	0.120060
C2641	C264	0.679500	0.128460	0.165160
H2041	H204	0.689030	0.137970	0.207370
C2651	C265	0.636160	0.114090	0.147540
H2051	H205	0.616430	0.114470	0.177970
C2661	C266	0.621720	0.099510	0.087140
C2671	C267	0.651090	0.099960	0.042620
H2061	H206	0.641530	0.090270	0.000470
C2681	C268	0.694390	0.114560	0.059400
H2071	H207	0.714230	0.114770	0.028670
C2691	C269	0.574650	0.080400	0.068680
C2701	C270	0.554380	0.041580	0.034600
H2081	H208	0.571330	0.028570	0.022970
H2091	H209	0.612030	0.178670	0.056270
H2101	H210	0.584830	0.214970	0.154770
O611	O61	0.029330	0.553760	0.428490
O621	O62	0.055720	0.566880	0.528940
C2711	C271	0.054770	0.577810	0.472270
C2721	C272	0.086730	0.624790	0.453390
C2731	C273	0.115620	0.653830	0.498490
H2111	H211	0.115600	0.644300	0.540700
C2741	C274	0.144590	0.697170	0.480870
H2121	H212	0.164700	0.716900	0.511300
C2751	C275	0.144450	0.711610	0.420470
C2761	C276	0.115530	0.682240	0.375950
H2131	H213	0.115400	0.691800	0.333800
C2771	C277	0.086830	0.638940	0.392730
H2141	H214	0.067200	0.619100	0.362000
C2781	C278	0.172410	0.758680	0.402010
C2791	C279	0.153860	0.778950	0.367930
H2151	H215	0.123900	0.762000	0.356300
H2161	H216	0.233300	0.721300	0.389600
H2171	H217	0.296800	0.748500	0.488100
O631	O63	0.696000	0.887090	0.761820
O641	O64	0.722390	0.900210	0.862270
C2801	C280	0.721440	0.911140	0.805600
C2811	C281	0.753400	0.958120	0.786720
C2821	C282	0.782290	0.987160	0.831820
H2181	H218	0.782270	0.977630	0.874030
C2831	C283	0.811260	0.030500	0.814200
H2191	H219	0.831370	0.050230	0.844630
C2841	C284	0.811120	0.044940	0.753800
C2851	C285	0.782200	0.015570	0.709280
H2201	H220	0.782070	0.025130	0.667130
C2861	C286	0.753500	0.972270	0.726060
H2211	H221	0.733870	0.952430	0.695330
C2871	C287	0.839080	0.092010	0.735340
C2881	C288	0.820530	0.112280	0.701260
H2221	H222	0.790570	0.095330	0.689630
H2231	H223	0.899970	0.054630	0.722930
H2241	H224	0.963470	0.081830	0.821430
O651	O65	0.362660	0.220430	0.095160
O661	O66	0.389050	0.233550	0.195610
C2891	C289	0.388100	0.244480	0.138940
C2901	C290	0.420060	0.291460	0.120060
C2911	C291	0.448950	0.320500	0.165160
H2251	H225	0.448930	0.310970	0.207370
C2921	C292	0.477920	0.363840	0.147540
H2261	H226	0.498030	0.383570	0.177970
C2931	C293	0.477780	0.378280	0.087140
C2941	C294	0.448860	0.348910	0.042620
H2271	H227	0.448730	0.358470	0.000470
C2951	C295	0.420160	0.305610	0.059400
H2281	H228	0.400530	0.285770	0.028670
C2961	C296	0.505740	0.425350	0.068680
C2971	C297	0.487190	0.445620	0.034600
H2291	H229	0.457230	0.428670	0.022970
H2301	H230	0.566630	0.387970	0.056270
H2311	H231	0.630130	0.415170	0.154770
O671	O67	0.524430	0.970670	0.428490
O681	O68	0.511160	0.944280	0.528940
C2981	C298	0.523040	0.945230	0.472270
C2991	C299	0.538060	0.913270	0.453390
C3001	C300	0.538210	0.884380	0.498490
H2321	H232	0.528700	0.884400	0.540700
C3011	C301	0.552580	0.855410	0.480870
H2331	H233	0.552200	0.835300	0.511300
C3021	C302	0.567160	0.855550	0.420470
C3031	C303	0.566710	0.884470	0.375950
H2341	H234	0.576400	0.884600	0.333800
C3041	C304	0.552110	0.913170	0.392730
H2351	H235	0.551900	0.932800	0.362000
C3051	C305	0.586270	0.827590	0.402010
C3061	C306	0.625090	0.846140	0.367930
H2361	H236	0.638100	0.876100	0.356300
H2371	H237	0.488000	0.766700	0.389600
H2381	H238	0.451700	0.703200	0.488100
O691	O69	0.191100	0.304000	0.761820
O701	O70	0.177830	0.277610	0.862270
C3071	C307	0.189710	0.278560	0.805600
C3081	C308	0.204730	0.246600	0.786720
C3091	C309	0.204880	0.217710	0.831820
H2391	H239	0.195370	0.217730	0.874030
C3101	C310	0.219250	0.188740	0.814200
H2401	H240	0.218870	0.168630	0.844630
C3111	C311	0.233830	0.188880	0.753800
C3121	C312	0.233380	0.217800	0.709280
H2411	H241	0.243070	0.217930	0.667130
C3131	C313	0.218780	0.246500	0.726060
H2421	H242	0.218570	0.266130	0.695330
C3141	C314	0.252940	0.160920	0.735340
C3151	C315	0.291760	0.179470	0.701260
H2431	H243	0.304770	0.209430	0.689630
H2441	H244	0.154670	0.100030	0.722930
H2451	H245	0.118370	0.036530	0.821430
O711	O71	0.857760	0.637340	0.095160
O721	O72	0.844490	0.610950	0.195610
C3161	C316	0.856370	0.611900	0.138940
C3171	C317	0.871390	0.579940	0.120060
C3181	C318	0.871540	0.551050	0.165160
H2461	H246	0.862030	0.551070	0.207370
C3191	C319	0.885910	0.522080	0.147540
H2471	H247	0.885530	0.501970	0.177970
C3201	C320	0.900490	0.522220	0.087140
C3211	C321	0.900040	0.551140	0.042620
H2481	H248	0.909730	0.551270	0.000470
C3221	C322	0.885440	0.579840	0.059400
H2491	H249	0.885230	0.599470	0.028670
C3231	C323	0.919600	0.494260	0.068680
C3241	C324	0.958420	0.512810	0.034600
H2501	H250	0.971430	0.542770	0.022970
H2511	H251	0.821330	0.433370	0.056270
H2521	H252	0.785030	0.369870	0.154770
Cu11	Cu1	0.507640	0.492360	0.441820
Cu21	Cu2	0.174310	0.825690	0.775150
Cu31	Cu3	0.840970	0.159030	0.108490
Cu41	Cu4	0.507640	0.015280	0.441820
Cu51	Cu5	0.174310	0.348610	0.775150
Cu61	Cu6	0.840970	0.681950	0.108490
Cu71	Cu7	0.984720	0.492360	0.441820
Cu81	Cu8	0.651390	0.825690	0.775150
Cu91	Cu9	0.318050	0.159030	0.108490
Cu101	Cu10	0.492360	0.507640	0.558180
Cu111	Cu11	0.159030	0.840970	0.891510
Cu121	Cu12	0.825690	0.174310	0.224850
Cu131	Cu13	0.015280	0.507640	0.558180
Cu141	Cu14	0.681950	0.840970	0.891510
Cu151	Cu15	0.348610	0.174310	0.224850
Cu161	Cu16	0.492360	0.984720	0.558180
Cu171	Cu17	0.159030	0.318050	0.891510
Cu181	Cu18	0.825690	0.651390	0.224850
O731	O73	0.527680	0.763840	0.453650
C3251	C325	0.646280	0.823140	0.349500
C3261	C326	0.566710	0.783360	0.418400
C3271	C327	0.488950	0.744480	0.417100
C3281	C328	0.450700	0.725350	0.461200
H2531	H253	0.423500	0.711750	0.436400
O741	O74	0.194350	0.097170	0.786980
C3291	C329	0.312950	0.156470	0.682830
C3301	C330	0.233380	0.116690	0.751730
C3311	C331	0.155620	0.077810	0.750430
C3321	C332	0.117370	0.058680	0.794530
H2541	H254	0.090170	0.045080	0.769730
O751	O75	0.861010	0.430510	0.120320
C3331	C333	0.979610	0.489810	0.016170
C3341	C334	0.900040	0.450020	0.085070
C3351	C335	0.822280	0.411140	0.083770
C3361	C336	0.784030	0.392020	0.127870
H2551	H255	0.756830	0.378420	0.103070
O761	O76	0.236160	0.763840	0.453650
C3371	C337	0.176860	0.823140	0.349500
C3381	C338	0.216640	0.783360	0.418400
C3391	C339	0.255520	0.744470	0.417100
C3401	C340	0.274650	0.725350	0.461200
H2561	H256	0.288250	0.711750	0.436400
O771	O77	0.902830	0.097170	0.786980
C3411	C341	0.843530	0.156470	0.682830
C3421	C342	0.883310	0.116690	0.751730
C3431	C343	0.922190	0.077810	0.750430
C3441	C344	0.941320	0.058680	0.794530
H2571	H257	0.954920	0.045080	0.769730
O781	O78	0.569490	0.430510	0.120320
C3451	C345	0.510190	0.489810	0.016170
C3461	C346	0.549980	0.450020	0.085070
C3471	C347	0.588860	0.411140	0.083770
C3481	C348	0.607980	0.392020	0.127870
H2581	H258	0.621580	0.378420	0.103070
O791	O79	0.236160	0.472320	0.453650
C3491	C349	0.176860	0.353720	0.349500
C3501	C350	0.216640	0.433290	0.418400
C3511	C351	0.255530	0.511050	0.417100
C3521	C352	0.274650	0.549300	0.461200
H2591	H259	0.288250	0.576500	0.436400
O801	O80	0.902830	0.805650	0.786980
C3531	C353	0.843530	0.687050	0.682830
C3541	C354	0.883310	0.766620	0.751730
C3551	C355	0.922190	0.844380	0.750430
C3561	C356	0.941320	0.882630	0.794530
H2601	H260	0.954920	0.909830	0.769730
O811	O81	0.569490	0.138990	0.120320
C3571	C357	0.510190	0.020390	0.016170
C3581	C358	0.549980	0.099960	0.085070
C3591	C359	0.588860	0.177720	0.083770
C3601	C360	0.607980	0.215970	0.127870
H2611	H261	0.621580	0.243170	0.103070
O821	O82	0.763840	0.527680	0.546350
C3611	C361	0.823140	0.646280	0.650500
C3621	C362	0.783360	0.566710	0.581600
C3631	C363	0.744470	0.488950	0.582900
C3641	C364	0.725350	0.450700	0.538800
H2621	H262	0.711750	0.423500	0.563600
O831	O83	0.430510	0.861010	0.879680
C3651	C365	0.489810	0.979610	0.983830
C3661	C366	0.450020	0.900040	0.914930
C3671	C367	0.411140	0.822280	0.916230
C3681	C368	0.392020	0.784030	0.872130
H2631	H263	0.378420	0.756830	0.896930
O841	O84	0.097170	0.194350	0.213020
C3691	C369	0.156470	0.312950	0.317170
C3701	C370	0.116690	0.233380	0.248270
C3711	C371	0.077810	0.155620	0.249570
C3721	C372	0.058680	0.117370	0.205470
H2641	H264	0.045080	0.090170	0.230270
O851	O85	0.763840	0.236160	0.546350
C3731	C373	0.823140	0.176860	0.650500
C3741	C374	0.783360	0.216640	0.581600
C3751	C375	0.744470	0.255530	0.582900
C3761	C376	0.725350	0.274650	0.538800
H2651	H265	0.711750	0.288250	0.563600
O861	O86	0.430510	0.569490	0.879680
C3771	C377	0.489810	0.510190	0.983830
C3781	C378	0.450020	0.549980	0.914930
C3791	C379	0.411140	0.588860	0.916230
C3801	C380	0.392020	0.607980	0.872130
H2661	H266	0.378420	0.621580	0.896930
O871	O87	0.097170	0.902830	0.213020
C3811	C381	0.156470	0.843530	0.317170
C3821	C382	0.116690	0.883310	0.248270
C3831	C383	0.077810	0.922190	0.249570
C3841	C384	0.058680	0.941320	0.205470
H2671	H267	0.045080	0.954920	0.230270
O881	O88	0.472320	0.236160	0.546350
C3851	C385	0.353720	0.176860	0.650500
C3861	C386	0.433290	0.216640	0.581600
C3871	C387	0.511050	0.255520	0.582900
C3881	C388	0.549300	0.274650	0.538800
H2681	H268	0.576500	0.288250	0.563600
O891	O89	0.138990	0.569490	0.879680
C3891	C389	0.020390	0.510190	0.983830
C3901	C390	0.099960	0.549980	0.914930
C3911	C391	0.177720	0.588860	0.916230
C3921	C392	0.215970	0.607980	0.872130
H2691	H269	0.243170	0.621580	0.896930
O901	O90	0.805650	0.902830	0.213020
C3931	C393	0.687050	0.843530	0.317170
C3941	C394	0.766620	0.883310	0.248270
C3951	C395	0.844380	0.922190	0.249570
C3961	C396	0.882630	0.941320	0.205470
H2701	H270	0.909830	0.954920	0.230270
