data_UMODEH06_clean_PM
_symmetry_space_group_name_H-M	'P1'
_cell_length_a	35.266800
_cell_length_b	35.266800
_cell_length_c	21.137400
_cell_angle_alpha	90.000000
_cell_angle_beta	90.000000
_cell_angle_gamma	120.000000
_symmetry_Int_Tables_number 1

loop_
_symmetry_equiv_pos_as_xyz
'x,y,z'

loop_
_atom_site_label
_atom_site_type_symbol
_atom_site_fract_x
_atom_site_fract_y
_atom_site_fract_z
O11	O1	0.363940	0.221100	0.596760
O21	O2	0.388650	0.233530	0.697200
C11	C1	0.388390	0.245070	0.641180
C21	C2	0.419800	0.291910	0.624260
C31	C3	0.446670	0.321420	0.670780
H11	H1	0.445800	0.311900	0.712100
C41	C4	0.474570	0.364970	0.654720
H21	H2	0.492400	0.384400	0.685700
C51	C5	0.476420	0.379930	0.594310
C61	C6	0.449830	0.350120	0.547640
H31	H3	0.451100	0.359400	0.506100
C71	C7	0.421500	0.306550	0.563700
H41	H4	0.403500	0.287100	0.532800
C81	C8	0.504060	0.426900	0.575940
C91	C9	0.486460	0.446450	0.539090
H51	H5	0.457400	0.429800	0.526500
H61	H6	0.609800	0.434700	0.570300
H71	H7	0.627800	0.416600	0.668200
O31	O3	0.030610	0.554430	0.930090
O41	O4	0.055320	0.566860	0.030530
C101	C10	0.055060	0.578400	0.974510
C111	C11	0.086470	0.625240	0.957590
C121	C12	0.113340	0.654750	0.004110
H81	H8	0.112470	0.645230	0.045430
C131	C13	0.141240	0.698300	0.988050
H91	H9	0.159070	0.717730	0.019030
C141	C14	0.143090	0.713260	0.927640
C151	C15	0.116500	0.683450	0.880970
H101	H10	0.117770	0.692730	0.839430
C161	C16	0.088170	0.639880	0.897030
H111	H11	0.070170	0.620430	0.866130
C171	C17	0.170730	0.760230	0.909270
C181	C18	0.153130	0.779780	0.872420
H121	H12	0.124070	0.763130	0.859830
H131	H13	0.276470	0.768030	0.903630
H141	H14	0.294470	0.749930	0.001530
O51	O5	0.697270	0.887770	0.263430
O61	O6	0.721980	0.900200	0.363870
C191	C19	0.721720	0.911740	0.307850
C201	C20	0.753130	0.958580	0.290930
C211	C21	0.780000	0.988090	0.337450
H151	H15	0.779130	0.978570	0.378770
C221	C22	0.807900	0.031640	0.321390
H161	H16	0.825730	0.051070	0.352370
C231	C23	0.809750	0.046600	0.260980
C241	C24	0.783160	0.016790	0.214310
H171	H17	0.784430	0.026070	0.172770
C251	C25	0.754830	0.973220	0.230370
H181	H18	0.736830	0.953770	0.199470
C261	C26	0.837390	0.093570	0.242610
C271	C27	0.819790	0.113120	0.205760
H191	H19	0.790730	0.096470	0.193170
H201	H20	0.943130	0.101370	0.236970
H211	H21	0.961130	0.083270	0.334870
O71	O7	0.778900	0.142840	0.596760
O81	O8	0.766470	0.155120	0.697200
C281	C28	0.754930	0.143320	0.641180
C291	C29	0.708090	0.127890	0.624260
C301	C30	0.678580	0.125250	0.670780
H221	H22	0.688100	0.133900	0.712100
C311	C31	0.635030	0.109600	0.654720
H231	H23	0.615600	0.108000	0.685700
C321	C32	0.620070	0.096490	0.594310
C331	C33	0.649880	0.099710	0.547640
H241	H24	0.640600	0.091700	0.506100
C341	C34	0.693450	0.114950	0.563700
H251	H25	0.712900	0.116400	0.532800
C351	C35	0.573100	0.077160	0.575940
C361	C36	0.553550	0.040010	0.539090
H261	H26	0.570200	0.027600	0.526500
H271	H27	0.565300	0.175100	0.570300
H281	H28	0.583400	0.211200	0.668200
O91	O9	0.445570	0.476170	0.930090
O101	O10	0.433140	0.488450	0.030530
C371	C37	0.421600	0.476650	0.974510
C381	C38	0.374760	0.461220	0.957590
C391	C39	0.345250	0.458580	0.004110
H291	H29	0.354770	0.467230	0.045430
C401	C40	0.301700	0.442930	0.988050
H301	H30	0.282270	0.441330	0.019030
C411	C41	0.286740	0.429820	0.927640
C421	C42	0.316550	0.433040	0.880970
H311	H31	0.307270	0.425030	0.839430
C431	C43	0.360120	0.448280	0.897030
H321	H32	0.379570	0.449730	0.866130
C441	C44	0.239770	0.410490	0.909270
C451	C45	0.220220	0.373340	0.872420
H331	H33	0.236870	0.360930	0.859830
H341	H34	0.231970	0.508430	0.903630
H351	H35	0.250070	0.544530	0.001530
O111	O11	0.112230	0.809510	0.263430
O121	O12	0.099800	0.821790	0.363870
C461	C46	0.088260	0.809990	0.307850
C471	C47	0.041420	0.794560	0.290930
C481	C48	0.011910	0.791920	0.337450
H361	H36	0.021430	0.800570	0.378770
C491	C49	0.968360	0.776270	0.321390
H371	H37	0.948930	0.774670	0.352370
C501	C50	0.953400	0.763160	0.260980
C511	C51	0.983210	0.766380	0.214310
H381	H38	0.973930	0.758370	0.172770
C521	C52	0.026780	0.781620	0.230370
H391	H39	0.046230	0.783070	0.199470
C531	C53	0.906430	0.743830	0.242610
C541	C54	0.886880	0.706680	0.205760
H401	H40	0.903530	0.694270	0.193170
H411	H41	0.898630	0.841770	0.236970
H421	H42	0.916730	0.877870	0.334870
O131	O13	0.857160	0.636060	0.596760
O141	O14	0.844880	0.611350	0.697200
C551	C55	0.856680	0.611610	0.641180
C561	C56	0.872110	0.580200	0.624260
C571	C57	0.874750	0.553330	0.670780
H431	H43	0.866100	0.554200	0.712100
C581	C58	0.890400	0.525430	0.654720
H441	H44	0.892000	0.507600	0.685700
C591	C59	0.903510	0.523580	0.594310
C601	C60	0.900290	0.550170	0.547640
H451	H45	0.908300	0.548900	0.506100
C611	C61	0.885050	0.578500	0.563700
H461	H46	0.883600	0.596500	0.532800
C621	C62	0.922840	0.495940	0.575940
C631	C63	0.959990	0.513540	0.539090
H471	H47	0.972400	0.542600	0.526500
H481	H48	0.824900	0.390200	0.570300
H491	H49	0.788800	0.372200	0.668200
O151	O15	0.523830	0.969390	0.930090
O161	O16	0.511550	0.944680	0.030530
C641	C64	0.523350	0.944940	0.974510
C651	C65	0.538780	0.913530	0.957590
C661	C66	0.541420	0.886660	0.004110
H501	H50	0.532770	0.887530	0.045430
C671	C67	0.557070	0.858760	0.988050
H511	H51	0.558670	0.840930	0.019030
C681	C68	0.570180	0.856910	0.927640
C691	C69	0.566960	0.883500	0.880970
H521	H52	0.574970	0.882230	0.839430
C701	C70	0.551720	0.911830	0.897030
H531	H53	0.550270	0.929830	0.866130
C711	C71	0.589510	0.829270	0.909270
C721	C72	0.626660	0.846870	0.872420
H541	H54	0.639070	0.875930	0.859830
H551	H55	0.491570	0.723530	0.903630
H561	H56	0.455470	0.705530	0.001530
O171	O17	0.190490	0.302730	0.263430
O181	O18	0.178210	0.278020	0.363870
C731	C73	0.190010	0.278280	0.307850
C741	C74	0.205440	0.246870	0.290930
C751	C75	0.208080	0.220000	0.337450
H571	H57	0.199430	0.220870	0.378770
C761	C76	0.223730	0.192100	0.321390
H581	H58	0.225330	0.174270	0.352370
C771	C77	0.236840	0.190250	0.260980
C781	C78	0.233620	0.216840	0.214310
H591	H59	0.241630	0.215570	0.172770
C791	C79	0.218380	0.245170	0.230370
H601	H60	0.216930	0.263170	0.199470
C801	C80	0.256170	0.162610	0.242610
C811	C81	0.293320	0.180210	0.205760
H611	H61	0.305730	0.209270	0.193170
H621	H62	0.158230	0.056870	0.236970
H631	H63	0.122130	0.038870	0.334870
O191	O19	0.221100	0.363940	0.403240
O201	O20	0.233530	0.388650	0.302800
C821	C82	0.245070	0.388390	0.358820
C831	C83	0.291910	0.419800	0.375740
C841	C84	0.321420	0.446670	0.329220
H641	H64	0.311900	0.445800	0.287900
C851	C85	0.364970	0.474570	0.345280
H651	H65	0.384400	0.492400	0.314300
C861	C86	0.379930	0.476420	0.405690
C871	C87	0.350120	0.449830	0.452360
H661	H66	0.359400	0.451100	0.493900
C881	C88	0.306550	0.421500	0.436300
H671	H67	0.287100	0.403500	0.467200
C891	C89	0.426900	0.504060	0.424060
C901	C90	0.446450	0.486460	0.460910
H681	H68	0.429800	0.457400	0.473500
H691	H69	0.434700	0.609800	0.429700
H701	H70	0.416600	0.627800	0.331800
O211	O21	0.887770	0.697270	0.736570
O221	O22	0.900200	0.721980	0.636130
C911	C91	0.911740	0.721720	0.692150
C921	C92	0.958580	0.753130	0.709070
C931	C93	0.988090	0.780000	0.662550
H711	H71	0.978570	0.779130	0.621230
C941	C94	0.031640	0.807900	0.678610
H721	H72	0.051070	0.825730	0.647630
C951	C95	0.046600	0.809750	0.739020
C961	C96	0.016790	0.783160	0.785690
H731	H73	0.026070	0.784430	0.827230
C971	C97	0.973220	0.754830	0.769630
H741	H74	0.953770	0.736830	0.800530
C981	C98	0.093570	0.837390	0.757390
C991	C99	0.113120	0.819790	0.794240
H751	H75	0.096470	0.790730	0.806830
H761	H76	0.101370	0.943130	0.763030
H771	H77	0.083270	0.961130	0.665130
O231	O23	0.554430	0.030610	0.069910
O241	O24	0.566860	0.055320	0.969470
C1001	C100	0.578400	0.055060	0.025490
C1011	C101	0.625240	0.086470	0.042410
C1021	C102	0.654750	0.113340	0.995890
H781	H78	0.645230	0.112470	0.954570
C1031	C103	0.698300	0.141240	0.011950
H791	H79	0.717730	0.159070	0.980970
C1041	C104	0.713260	0.143090	0.072360
C1051	C105	0.683450	0.116500	0.119030
H801	H80	0.692730	0.117770	0.160570
C1061	C106	0.639880	0.088170	0.102970
H811	H81	0.620430	0.070170	0.133870
C1071	C107	0.760230	0.170730	0.090730
C1081	C108	0.779780	0.153130	0.127580
H821	H82	0.763130	0.124070	0.140170
H831	H83	0.768030	0.276470	0.096370
H841	H84	0.749930	0.294470	0.998470
O251	O25	0.142840	0.778900	0.403240
O261	O26	0.155120	0.766470	0.302800
C1091	C109	0.143320	0.754930	0.358820
C1101	C110	0.127890	0.708090	0.375740
C1111	C111	0.125250	0.678580	0.329220
H851	H85	0.133900	0.688100	0.287900
C1121	C112	0.109600	0.635030	0.345280
H861	H86	0.108000	0.615600	0.314300
C1131	C113	0.096490	0.620070	0.405690
C1141	C114	0.099710	0.649880	0.452360
H871	H87	0.091700	0.640600	0.493900
C1151	C115	0.114950	0.693450	0.436300
H881	H88	0.116400	0.712900	0.467200
C1161	C116	0.077160	0.573100	0.424060
C1171	C117	0.040010	0.553550	0.460910
H891	H89	0.027600	0.570200	0.473500
H901	H90	0.175100	0.565300	0.429700
H911	H91	0.211200	0.583400	0.331800
O271	O27	0.809510	0.112230	0.736570
O281	O28	0.821790	0.099800	0.636130
C1181	C118	0.809990	0.088260	0.692150
C1191	C119	0.794560	0.041420	0.709070
C1201	C120	0.791920	0.011910	0.662550
H921	H92	0.800570	0.021430	0.621230
C1211	C121	0.776270	0.968360	0.678610
H931	H93	0.774670	0.948930	0.647630
C1221	C122	0.763160	0.953400	0.739020
C1231	C123	0.766380	0.983210	0.785690
H941	H94	0.758370	0.973930	0.827230
C1241	C124	0.781620	0.026780	0.769630
H951	H95	0.783070	0.046230	0.800530
C1251	C125	0.743830	0.906430	0.757390
C1261	C126	0.706680	0.886880	0.794240
H961	H96	0.694270	0.903530	0.806830
H971	H97	0.841770	0.898630	0.763030
H981	H98	0.877870	0.916730	0.665130
O291	O29	0.476170	0.445570	0.069910
O301	O30	0.488450	0.433140	0.969470
C1271	C127	0.476650	0.421600	0.025490
C1281	C128	0.461220	0.374760	0.042410
C1291	C129	0.458580	0.345250	0.995890
H991	H99	0.467230	0.354770	0.954570
C1301	C130	0.442930	0.301700	0.011950
H1001	H100	0.441330	0.282270	0.980970
C1311	C131	0.429820	0.286740	0.072360
C1321	C132	0.433040	0.316550	0.119030
H1011	H101	0.425030	0.307270	0.160570
C1331	C133	0.448280	0.360120	0.102970
H1021	H102	0.449730	0.379570	0.133870
C1341	C134	0.410490	0.239770	0.090730
C1351	C135	0.373340	0.220220	0.127580
H1031	H103	0.360930	0.236870	0.140170
H1041	H104	0.508430	0.231970	0.096370
H1051	H105	0.544530	0.250070	0.998470
O311	O31	0.636060	0.857160	0.403240
O321	O32	0.611350	0.844880	0.302800
C1361	C136	0.611610	0.856680	0.358820
C1371	C137	0.580200	0.872110	0.375740
C1381	C138	0.553330	0.874750	0.329220
H1061	H106	0.554200	0.866100	0.287900
C1391	C139	0.525430	0.890400	0.345280
H1071	H107	0.507600	0.892000	0.314300
C1401	C140	0.523580	0.903510	0.405690
C1411	C141	0.550170	0.900290	0.452360
H1081	H108	0.548900	0.908300	0.493900
C1421	C142	0.578500	0.885050	0.436300
H1091	H109	0.596500	0.883600	0.467200
C1431	C143	0.495940	0.922840	0.424060
C1441	C144	0.513540	0.959990	0.460910
H1101	H110	0.542600	0.972400	0.473500
H1111	H111	0.390200	0.824900	0.429700
H1121	H112	0.372200	0.788800	0.331800
O331	O33	0.302730	0.190490	0.736570
O341	O34	0.278020	0.178210	0.636130
C1451	C145	0.278280	0.190010	0.692150
C1461	C146	0.246870	0.205440	0.709070
C1471	C147	0.220000	0.208080	0.662550
H1131	H113	0.220870	0.199430	0.621230
C1481	C148	0.192100	0.223730	0.678610
H1141	H114	0.174270	0.225330	0.647630
C1491	C149	0.190250	0.236840	0.739020
C1501	C150	0.216840	0.233620	0.785690
H1151	H115	0.215570	0.241630	0.827230
C1511	C151	0.245170	0.218380	0.769630
H1161	H116	0.263170	0.216930	0.800530
C1521	C152	0.162610	0.256170	0.757390
C1531	C153	0.180210	0.293320	0.794240
H1171	H117	0.209270	0.305730	0.806830
H1181	H118	0.056870	0.158230	0.763030
H1191	H119	0.038870	0.122130	0.665130
O351	O35	0.969390	0.523830	0.069910
O361	O36	0.944680	0.511550	0.969470
C1541	C154	0.944940	0.523350	0.025490
C1551	C155	0.913530	0.538780	0.042410
C1561	C156	0.886660	0.541420	0.995890
H1201	H120	0.887530	0.532770	0.954570
C1571	C157	0.858760	0.557070	0.011950
H1211	H121	0.840930	0.558670	0.980970
C1581	C158	0.856910	0.570180	0.072360
C1591	C159	0.883500	0.566960	0.119030
H1221	H122	0.882230	0.574970	0.160570
C1601	C160	0.911830	0.551720	0.102970
H1231	H123	0.929830	0.550270	0.133870
C1611	C161	0.829270	0.589510	0.090730
C1621	C162	0.846870	0.626660	0.127580
H1241	H124	0.875930	0.639070	0.140170
H1251	H125	0.723530	0.491570	0.096370
H1261	H126	0.705530	0.455470	0.998470
O371	O37	0.636060	0.778900	0.403240
O381	O38	0.611350	0.766470	0.302800
C1631	C163	0.611610	0.754930	0.358820
C1641	C164	0.580200	0.708090	0.375740
C1651	C165	0.553330	0.678580	0.329220
H1271	H127	0.554200	0.688100	0.287900
C1661	C166	0.525430	0.635030	0.345280
H1281	H128	0.507600	0.615600	0.314300
C1671	C167	0.523580	0.620070	0.405690
C1681	C168	0.550170	0.649880	0.452360
H1291	H129	0.548900	0.640600	0.493900
C1691	C169	0.578500	0.693450	0.436300
H1301	H130	0.596500	0.712900	0.467200
C1701	C170	0.495940	0.573100	0.424060
C1711	C171	0.513540	0.553550	0.460910
H1311	H131	0.542600	0.570200	0.473500
H1321	H132	0.390200	0.565300	0.429700
H1331	H133	0.372200	0.583400	0.331800
O391	O39	0.302730	0.112230	0.736570
O401	O40	0.278020	0.099800	0.636130
C1721	C172	0.278280	0.088260	0.692150
C1731	C173	0.246870	0.041420	0.709070
C1741	C174	0.220000	0.011910	0.662550
H1341	H134	0.220870	0.021430	0.621230
C1751	C175	0.192100	0.968360	0.678610
H1351	H135	0.174270	0.948930	0.647630
C1761	C176	0.190250	0.953400	0.739020
C1771	C177	0.216840	0.983210	0.785690
H1361	H136	0.215570	0.973930	0.827230
C1781	C178	0.245170	0.026780	0.769630
H1371	H137	0.263170	0.046230	0.800530
C1791	C179	0.162610	0.906430	0.757390
C1801	C180	0.180210	0.886880	0.794240
H1381	H138	0.209270	0.903530	0.806830
H1391	H139	0.056870	0.898630	0.763030
H1401	H140	0.038870	0.916730	0.665130
O411	O41	0.969390	0.445570	0.069910
O421	O42	0.944680	0.433140	0.969470
C1811	C181	0.944940	0.421600	0.025490
C1821	C182	0.913530	0.374760	0.042410
C1831	C183	0.886660	0.345250	0.995890
H1411	H141	0.887530	0.354770	0.954570
C1841	C184	0.858760	0.301700	0.011950
H1421	H142	0.840930	0.282270	0.980970
C1851	C185	0.856910	0.286740	0.072360
C1861	C186	0.883500	0.316550	0.119030
H1431	H143	0.882230	0.307270	0.160570
C1871	C187	0.911830	0.360120	0.102970
H1441	H144	0.929830	0.379570	0.133870
C1881	C188	0.829270	0.239770	0.090730
C1891	C189	0.846870	0.220220	0.127580
H1451	H145	0.875930	0.236870	0.140170
H1461	H146	0.723530	0.231970	0.096370
H1471	H147	0.705530	0.250070	0.998470
O431	O43	0.221100	0.857160	0.403240
O441	O44	0.233530	0.844880	0.302800
C1901	C190	0.245070	0.856680	0.358820
C1911	C191	0.291910	0.872110	0.375740
C1921	C192	0.321420	0.874750	0.329220
H1481	H148	0.311900	0.866100	0.287900
C1931	C193	0.364970	0.890400	0.345280
H1491	H149	0.384400	0.892000	0.314300
C1941	C194	0.379930	0.903510	0.405690
C1951	C195	0.350120	0.900290	0.452360
H1501	H150	0.359400	0.908300	0.493900
C1961	C196	0.306550	0.885050	0.436300
H1511	H151	0.287100	0.883600	0.467200
C1971	C197	0.426900	0.922840	0.424060
C1981	C198	0.446450	0.959990	0.460910
H1521	H152	0.429800	0.972400	0.473500
H1531	H153	0.434700	0.824900	0.429700
H1541	H154	0.416600	0.788800	0.331800
O451	O45	0.887770	0.190490	0.736570
O461	O46	0.900200	0.178210	0.636130
C1991	C199	0.911740	0.190010	0.692150
C2001	C200	0.958580	0.205440	0.709070
C2011	C201	0.988090	0.208080	0.662550
H1551	H155	0.978570	0.199430	0.621230
C2021	C202	0.031640	0.223730	0.678610
H1561	H156	0.051070	0.225330	0.647630
C2031	C203	0.046600	0.236840	0.739020
C2041	C204	0.016790	0.233620	0.785690
H1571	H157	0.026070	0.241630	0.827230
C2051	C205	0.973220	0.218380	0.769630
H1581	H158	0.953770	0.216930	0.800530
C2061	C206	0.093570	0.256170	0.757390
C2071	C207	0.113120	0.293320	0.794240
H1591	H159	0.096470	0.305730	0.806830
H1601	H160	0.101370	0.158230	0.763030
H1611	H161	0.083270	0.122130	0.665130
O471	O47	0.554430	0.523830	0.069910
O481	O48	0.566860	0.511550	0.969470
C2081	C208	0.578400	0.523350	0.025490
C2091	C209	0.625240	0.538780	0.042410
C2101	C210	0.654750	0.541420	0.995890
H1621	H162	0.645230	0.532770	0.954570
C2111	C211	0.698300	0.557070	0.011950
H1631	H163	0.717730	0.558670	0.980970
C2121	C212	0.713260	0.570180	0.072360
C2131	C213	0.683450	0.566960	0.119030
H1641	H164	0.692730	0.574970	0.160570
C2141	C214	0.639880	0.551720	0.102970
H1651	H165	0.620430	0.550270	0.133870
C2151	C215	0.760230	0.589510	0.090730
C2161	C216	0.779780	0.626660	0.127580
H1661	H166	0.763130	0.639070	0.140170
H1671	H167	0.768030	0.491570	0.096370
H1681	H168	0.749930	0.455470	0.998470
O491	O49	0.142840	0.363940	0.403240
O501	O50	0.155120	0.388650	0.302800
C2171	C217	0.143320	0.388390	0.358820
C2181	C218	0.127890	0.419800	0.375740
C2191	C219	0.125250	0.446670	0.329220
H1691	H169	0.133900	0.445800	0.287900
C2201	C220	0.109600	0.474570	0.345280
H1701	H170	0.108000	0.492400	0.314300
C2211	C221	0.096490	0.476420	0.405690
C2221	C222	0.099710	0.449830	0.452360
H1711	H171	0.091700	0.451100	0.493900
C2231	C223	0.114950	0.421500	0.436300
H1721	H172	0.116400	0.403500	0.467200
C2241	C224	0.077160	0.504060	0.424060
C2251	C225	0.040010	0.486460	0.460910
H1731	H173	0.027600	0.457400	0.473500
H1741	H174	0.175100	0.609800	0.429700
H1751	H175	0.211200	0.627800	0.331800
O511	O51	0.809510	0.697270	0.736570
O521	O52	0.821790	0.721980	0.636130
C2261	C226	0.809990	0.721720	0.692150
C2271	C227	0.794560	0.753130	0.709070
C2281	C228	0.791920	0.780000	0.662550
H1761	H176	0.800570	0.779130	0.621230
C2291	C229	0.776270	0.807900	0.678610
H1771	H177	0.774670	0.825730	0.647630
C2301	C230	0.763160	0.809750	0.739020
C2311	C231	0.766380	0.783160	0.785690
H1781	H178	0.758370	0.784430	0.827230
C2321	C232	0.781620	0.754830	0.769630
H1791	H179	0.783070	0.736830	0.800530
C2331	C233	0.743830	0.837390	0.757390
C2341	C234	0.706680	0.819790	0.794240
H1801	H180	0.694270	0.790730	0.806830
H1811	H181	0.841770	0.943130	0.763030
H1821	H182	0.877870	0.961130	0.665130
O531	O53	0.476170	0.030610	0.069910
O541	O54	0.488450	0.055320	0.969470
C2351	C235	0.476650	0.055060	0.025490
C2361	C236	0.461220	0.086470	0.042410
C2371	C237	0.458580	0.113340	0.995890
H1831	H183	0.467230	0.112470	0.954570
C2381	C238	0.442930	0.141240	0.011950
H1841	H184	0.441330	0.159070	0.980970
C2391	C239	0.429820	0.143090	0.072360
C2401	C240	0.433040	0.116500	0.119030
H1851	H185	0.425030	0.117770	0.160570
C2411	C241	0.448280	0.088170	0.102970
H1861	H186	0.449730	0.070170	0.133870
C2421	C242	0.410490	0.170730	0.090730
C2431	C243	0.373340	0.153130	0.127580
H1871	H187	0.360930	0.124070	0.140170
H1881	H188	0.508430	0.276470	0.096370
H1891	H189	0.544530	0.294470	0.998470
O551	O55	0.778900	0.636060	0.596760
O561	O56	0.766470	0.611350	0.697200
C2441	C244	0.754930	0.611610	0.641180
C2451	C245	0.708090	0.580200	0.624260
C2461	C246	0.678580	0.553330	0.670780
H1901	H190	0.688100	0.554200	0.712100
C2471	C247	0.635030	0.525430	0.654720
H1911	H191	0.615600	0.507600	0.685700
C2481	C248	0.620070	0.523580	0.594310
C2491	C249	0.649880	0.550170	0.547640
H1921	H192	0.640600	0.548900	0.506100
C2501	C250	0.693450	0.578500	0.563700
H1931	H193	0.712900	0.596500	0.532800
C2511	C251	0.573100	0.495940	0.575940
C2521	C252	0.553550	0.513540	0.539090
H1941	H194	0.570200	0.542600	0.526500
H1951	H195	0.565300	0.390200	0.570300
H1961	H196	0.583400	0.372200	0.668200
O571	O57	0.445570	0.969390	0.930090
O581	O58	0.433140	0.944680	0.030530
C2531	C253	0.421600	0.944940	0.974510
C2541	C254	0.374760	0.913530	0.957590
C2551	C255	0.345250	0.886660	0.004110
H1971	H197	0.354770	0.887530	0.045430
C2561	C256	0.301700	0.858760	0.988050
H1981	H198	0.282270	0.840930	0.019030
C2571	C257	0.286740	0.856910	0.927640
C2581	C258	0.316550	0.883500	0.880970
H1991	H199	0.307270	0.882230	0.839430
C2591	C259	0.360120	0.911830	0.897030
H2001	H200	0.379570	0.929830	0.866130
C2601	C260	0.239770	0.829270	0.909270
C2611	C261	0.220220	0.846870	0.872420
H2011	H201	0.236870	0.875930	0.859830
H2021	H202	0.231970	0.723530	0.903630
H2031	H203	0.250070	0.705530	0.001530
O591	O59	0.112230	0.302730	0.263430
O601	O60	0.099800	0.278020	0.363870
C2621	C262	0.088260	0.278280	0.307850
C2631	C263	0.041420	0.246870	0.290930
C2641	C264	0.011910	0.220000	0.337450
H2041	H204	0.021430	0.220870	0.378770
C2651	C265	0.968360	0.192100	0.321390
H2051	H205	0.948930	0.174270	0.352370
C2661	C266	0.953400	0.190250	0.260980
C2671	C267	0.983210	0.216840	0.214310
H2061	H206	0.973930	0.215570	0.172770
C2681	C268	0.026780	0.245170	0.230370
H2071	H207	0.046230	0.263170	0.199470
C2691	C269	0.906430	0.162610	0.242610
C2701	C270	0.886880	0.180210	0.205760
H2081	H208	0.903530	0.209270	0.193170
H2091	H209	0.898630	0.056870	0.236970
H2101	H210	0.916730	0.038870	0.334870
O611	O61	0.857160	0.221100	0.596760
O621	O62	0.844880	0.233530	0.697200
C2711	C271	0.856680	0.245070	0.641180
C2721	C272	0.872110	0.291910	0.624260
C2731	C273	0.874750	0.321420	0.670780
H2111	H211	0.866100	0.311900	0.712100
C2741	C274	0.890400	0.364970	0.654720
H2121	H212	0.892000	0.384400	0.685700
C2751	C275	0.903510	0.379930	0.594310
C2761	C276	0.900290	0.350120	0.547640
H2131	H213	0.908300	0.359400	0.506100
C2771	C277	0.885050	0.306550	0.563700
H2141	H214	0.883600	0.287100	0.532800
C2781	C278	0.922840	0.426900	0.575940
C2791	C279	0.959990	0.446450	0.539090
H2151	H215	0.972400	0.429800	0.526500
H2161	H216	0.824900	0.434700	0.570300
H2171	H217	0.788800	0.416600	0.668200
O631	O63	0.523830	0.554430	0.930090
O641	O64	0.511550	0.566860	0.030530
C2801	C280	0.523350	0.578400	0.974510
C2811	C281	0.538780	0.625240	0.957590
C2821	C282	0.541420	0.654750	0.004110
H2181	H218	0.532770	0.645230	0.045430
C2831	C283	0.557070	0.698300	0.988050
H2191	H219	0.558670	0.717730	0.019030
C2841	C284	0.570180	0.713260	0.927640
C2851	C285	0.566960	0.683450	0.880970
H2201	H220	0.574970	0.692730	0.839430
C2861	C286	0.551720	0.639880	0.897030
H2211	H221	0.550270	0.620430	0.866130
C2871	C287	0.589510	0.760230	0.909270
C2881	C288	0.626660	0.779780	0.872420
H2221	H222	0.639070	0.763130	0.859830
H2231	H223	0.491570	0.768030	0.903630
H2241	H224	0.455470	0.749930	0.001530
O651	O65	0.190490	0.887770	0.263430
O661	O66	0.178210	0.900200	0.363870
C2891	C289	0.190010	0.911740	0.307850
C2901	C290	0.205440	0.958580	0.290930
C2911	C291	0.208080	0.988090	0.337450
H2251	H225	0.199430	0.978570	0.378770
C2921	C292	0.223730	0.031640	0.321390
H2261	H226	0.225330	0.051070	0.352370
C2931	C293	0.236840	0.046600	0.260980
C2941	C294	0.233620	0.016790	0.214310
H2271	H227	0.241630	0.026070	0.172770
C2951	C295	0.218380	0.973220	0.230370
H2281	H228	0.216930	0.953770	0.199470
C2961	C296	0.256170	0.093570	0.242610
C2971	C297	0.293320	0.113120	0.205760
H2291	H229	0.305730	0.096470	0.193170
H2301	H230	0.158230	0.101370	0.236970
H2311	H231	0.122130	0.083270	0.334870
O671	O67	0.363940	0.142840	0.596760
O681	O68	0.388650	0.155120	0.697200
C2981	C298	0.388390	0.143320	0.641180
C2991	C299	0.419800	0.127890	0.624260
C3001	C300	0.446670	0.125250	0.670780
H2321	H232	0.445800	0.133900	0.712100
C3011	C301	0.474570	0.109600	0.654720
H2331	H233	0.492400	0.108000	0.685700
C3021	C302	0.476420	0.096490	0.594310
C3031	C303	0.449830	0.099710	0.547640
H2341	H234	0.451100	0.091700	0.506100
C3041	C304	0.421500	0.114950	0.563700
H2351	H235	0.403500	0.116400	0.532800
C3051	C305	0.504060	0.077160	0.575940
C3061	C306	0.486460	0.040010	0.539090
H2361	H236	0.457400	0.027600	0.526500
H2371	H237	0.609800	0.175100	0.570300
H2381	H238	0.627800	0.211200	0.668200
O691	O69	0.030610	0.476170	0.930090
O701	O70	0.055320	0.488450	0.030530
C3071	C307	0.055060	0.476650	0.974510
C3081	C308	0.086470	0.461220	0.957590
C3091	C309	0.113340	0.458580	0.004110
H2391	H239	0.112470	0.467230	0.045430
C3101	C310	0.141240	0.442930	0.988050
H2401	H240	0.159070	0.441330	0.019030
C3111	C311	0.143090	0.429820	0.927640
C3121	C312	0.116500	0.433040	0.880970
H2411	H241	0.117770	0.425030	0.839430
C3131	C313	0.088170	0.448280	0.897030
H2421	H242	0.070170	0.449730	0.866130
C3141	C314	0.170730	0.410490	0.909270
C3151	C315	0.153130	0.373340	0.872420
H2431	H243	0.124070	0.360930	0.859830
H2441	H244	0.276470	0.508430	0.903630
H2451	H245	0.294470	0.544530	0.001530
O711	O71	0.697270	0.809510	0.263430
O721	O72	0.721980	0.821790	0.363870
C3161	C316	0.721720	0.809990	0.307850
C3171	C317	0.753130	0.794560	0.290930
C3181	C318	0.780000	0.791920	0.337450
H2461	H246	0.779130	0.800570	0.378770
C3191	C319	0.807900	0.776270	0.321390
H2471	H247	0.825730	0.774670	0.352370
C3201	C320	0.809750	0.763160	0.260980
C3211	C321	0.783160	0.766380	0.214310
H2481	H248	0.784430	0.758370	0.172770
C3221	C322	0.754830	0.781620	0.230370
H2491	H249	0.736830	0.783070	0.199470
C3231	C323	0.837390	0.743830	0.242610
C3241	C324	0.819790	0.706680	0.205760
H2501	H250	0.790730	0.694270	0.193170
H2511	H251	0.943130	0.841770	0.236970
H2521	H252	0.961130	0.877870	0.334870
Cu11	Cu1	0.319140	0.159570	0.607700
Cu21	Cu2	0.985810	0.492900	0.941030
Cu31	Cu3	0.652470	0.826240	0.274370
Cu41	Cu4	0.840430	0.159570	0.607700
Cu51	Cu5	0.507100	0.492900	0.941030
Cu61	Cu6	0.173760	0.826240	0.274370
Cu71	Cu7	0.840430	0.680860	0.607700
Cu81	Cu8	0.507100	0.014190	0.941030
Cu91	Cu9	0.173760	0.347530	0.274370
Cu101	Cu10	0.159570	0.319140	0.392300
Cu111	Cu11	0.826240	0.652470	0.725630
Cu121	Cu12	0.492900	0.985810	0.058970
Cu131	Cu13	0.159570	0.840430	0.392300
Cu141	Cu14	0.826240	0.173760	0.725630
Cu151	Cu15	0.492900	0.507100	0.058970
Cu161	Cu16	0.680860	0.840430	0.392300
Cu171	Cu17	0.347530	0.173760	0.725630
Cu181	Cu18	0.014190	0.507100	0.058970
O731	O73	0.566340	0.433660	0.633140
C3251	C325	0.510050	0.489950	0.519700
C3261	C326	0.548010	0.451990	0.595400
C3271	C327	0.586910	0.413090	0.597200
C3281	C328	0.606150	0.393850	0.642000
H2531	H253	0.619500	0.380500	0.618100
O741	O74	0.233010	0.766990	0.966470
C3291	C329	0.176720	0.823280	0.853030
C3301	C330	0.214680	0.785320	0.928730
C3311	C331	0.253580	0.746420	0.930530
C3321	C332	0.272820	0.727180	0.975330
H2541	H254	0.286170	0.713830	0.951430
O751	O75	0.899670	0.100330	0.299810
C3331	C333	0.843380	0.156620	0.186370
C3341	C334	0.881340	0.118660	0.262070
C3351	C335	0.920240	0.079760	0.263870
C3361	C336	0.939480	0.060520	0.308670
H2551	H255	0.952830	0.047170	0.284770
O761	O76	0.566340	0.132680	0.633140
C3371	C337	0.510050	0.020100	0.519700
C3381	C338	0.548010	0.096020	0.595400
C3391	C339	0.586910	0.173820	0.597200
C3401	C340	0.606150	0.212300	0.642000
H2561	H256	0.619500	0.239000	0.618100
O771	O77	0.233010	0.466010	0.966470
C3411	C341	0.176720	0.353430	0.853030
C3421	C342	0.214680	0.429350	0.928730
C3431	C343	0.253580	0.507150	0.930530
C3441	C344	0.272820	0.545630	0.975330
H2571	H257	0.286170	0.572330	0.951430
O781	O78	0.899670	0.799350	0.299810
C3451	C345	0.843380	0.686770	0.186370
C3461	C346	0.881340	0.762690	0.262070
C3471	C347	0.920240	0.840490	0.263870
C3481	C348	0.939480	0.878970	0.308670
H2581	H258	0.952830	0.905670	0.284770
O791	O79	0.867320	0.433660	0.633140
C3491	C349	0.979900	0.489950	0.519700
C3501	C350	0.903980	0.451990	0.595400
C3511	C351	0.826180	0.413090	0.597200
C3521	C352	0.787700	0.393850	0.642000
H2591	H259	0.761000	0.380500	0.618100
O801	O80	0.533990	0.766990	0.966470
C3531	C353	0.646570	0.823280	0.853030
C3541	C354	0.570650	0.785320	0.928730
C3551	C355	0.492850	0.746420	0.930530
C3561	C356	0.454370	0.727180	0.975330
H2601	H260	0.427670	0.713830	0.951430
O811	O81	0.200650	0.100330	0.299810
C3571	C357	0.313230	0.156620	0.186370
C3581	C358	0.237310	0.118660	0.262070
C3591	C359	0.159510	0.079760	0.263870
C3601	C360	0.121030	0.060520	0.308670
H2611	H261	0.094330	0.047170	0.284770
O821	O82	0.433660	0.566340	0.366860
C3611	C361	0.489950	0.510050	0.480300
C3621	C362	0.451990	0.548010	0.404600
C3631	C363	0.413090	0.586910	0.402800
C3641	C364	0.393850	0.606150	0.358000
H2621	H262	0.380500	0.619500	0.381900
O831	O83	0.100330	0.899670	0.700190
C3651	C365	0.156620	0.843380	0.813630
C3661	C366	0.118660	0.881340	0.737930
C3671	C367	0.079760	0.920240	0.736130
C3681	C368	0.060520	0.939480	0.691330
H2631	H263	0.047170	0.952830	0.715230
O841	O84	0.766990	0.233010	0.033530
C3691	C369	0.823280	0.176720	0.146970
C3701	C370	0.785320	0.214680	0.071270
C3711	C371	0.746420	0.253580	0.069470
C3721	C372	0.727180	0.272820	0.024670
H2641	H264	0.713830	0.286170	0.048570
O851	O85	0.132680	0.566340	0.366860
C3731	C373	0.020100	0.510050	0.480300
C3741	C374	0.096020	0.548010	0.404600
C3751	C375	0.173820	0.586910	0.402800
C3761	C376	0.212300	0.606150	0.358000
H2651	H265	0.239000	0.619500	0.381900
O861	O86	0.799350	0.899670	0.700190
C3771	C377	0.686770	0.843380	0.813630
C3781	C378	0.762690	0.881340	0.737930
C3791	C379	0.840490	0.920240	0.736130
C3801	C380	0.878970	0.939480	0.691330
H2661	H266	0.905670	0.952830	0.715230
O871	O87	0.466010	0.233010	0.033530
C3811	C381	0.353430	0.176720	0.146970
C3821	C382	0.429350	0.214680	0.071270
C3831	C383	0.507150	0.253580	0.069470
C3841	C384	0.545630	0.272820	0.024670
H2671	H267	0.572330	0.286170	0.048570
O881	O88	0.433660	0.867320	0.366860
C3851	C385	0.489950	0.979900	0.480300
C3861	C386	0.451990	0.903980	0.404600
C3871	C387	0.413090	0.826180	0.402800
C3881	C388	0.393850	0.787700	0.358000
H2681	H268	0.380500	0.761000	0.381900
O891	O89	0.100330	0.200650	0.700190
C3891	C389	0.156620	0.313230	0.813630
C3901	C390	0.118660	0.237310	0.737930
C3911	C391	0.079760	0.159510	0.736130
C3921	C392	0.060520	0.121030	0.691330
H2691	H269	0.047170	0.094330	0.715230
O901	O90	0.766990	0.533990	0.033530
C3931	C393	0.823280	0.646570	0.146970
C3941	C394	0.785320	0.570650	0.071270
C3951	C395	0.746420	0.492850	0.069470
C3961	C396	0.727180	0.454370	0.024670
H2701	H270	0.713830	0.427670	0.048570
