data_UMODEH24_clean_PM
_symmetry_space_group_name_H-M	'P1'
_cell_length_a	35.151100
_cell_length_b	35.151100
_cell_length_c	22.189100
_cell_angle_alpha	90.000000
_cell_angle_beta	90.000000
_cell_angle_gamma	120.000000
_symmetry_Int_Tables_number 1

loop_
_symmetry_equiv_pos_as_xyz
'x,y,z'

loop_
_atom_site_label
_atom_site_type_symbol
_atom_site_fract_x
_atom_site_fract_y
_atom_site_fract_z
O11	O1	0.525150	0.553660	0.431370
O21	O2	0.511240	0.567190	0.525330
C11	C1	0.523850	0.578270	0.471880
C21	C2	0.539010	0.624850	0.454040
C31	C3	0.539600	0.654580	0.495600
H11	H1	0.530000	0.645400	0.534800
C41	C4	0.554300	0.697610	0.479610
H21	H2	0.554400	0.717100	0.508100
C51	C5	0.569060	0.712400	0.421150
C61	C6	0.567970	0.682460	0.380000
H31	H3	0.577300	0.691400	0.340700
C71	C7	0.553170	0.639210	0.396280
H41	H4	0.552800	0.619600	0.367800
C81	C8	0.587940	0.759210	0.404240
C91	C9	0.626010	0.779240	0.370000
H51	H5	0.638900	0.762700	0.358900
H61	H6	0.489200	0.722200	0.395900
H71	H7	0.457300	0.750900	0.490600
O31	O3	0.191820	0.886990	0.764700
O41	O4	0.177910	0.900520	0.858660
C101	C10	0.190520	0.911600	0.805210
C111	C11	0.205680	0.958180	0.787370
C121	C12	0.206270	0.987910	0.828930
H81	H8	0.196670	0.978730	0.868130
C131	C13	0.220970	0.030940	0.812940
H91	H9	0.221070	0.050430	0.841430
C141	C14	0.235730	0.045730	0.754480
C151	C15	0.234640	0.015790	0.713330
H101	H10	0.243970	0.024730	0.674030
C161	C16	0.219840	0.972540	0.729610
H111	H11	0.219470	0.952930	0.701130
C171	C17	0.254610	0.092540	0.737570
C181	C18	0.292680	0.112570	0.703330
H121	H12	0.305570	0.096030	0.692230
H131	H13	0.155870	0.055530	0.729230
H141	H14	0.123970	0.084230	0.823930
O51	O5	0.858480	0.220330	0.098040
O61	O6	0.844570	0.233860	0.192000
C191	C19	0.857180	0.244940	0.138550
C201	C20	0.872340	0.291520	0.120710
C211	C21	0.872930	0.321250	0.162270
H151	H15	0.863330	0.312070	0.201470
C221	C22	0.887630	0.364280	0.146280
H161	H16	0.887730	0.383770	0.174770
C231	C23	0.902390	0.379070	0.087820
C241	C24	0.901300	0.349130	0.046670
H171	H17	0.910630	0.358070	0.007370
C251	C25	0.886500	0.305880	0.062950
H181	H18	0.886130	0.286270	0.034470
C261	C26	0.921270	0.425880	0.070910
C271	C27	0.959340	0.445910	0.036670
H191	H19	0.972230	0.429370	0.025570
H201	H20	0.822530	0.388870	0.062570
H211	H21	0.790630	0.417570	0.157270
O71	O7	0.446340	0.971490	0.431370
O81	O8	0.432810	0.944050	0.525330
C281	C28	0.421730	0.945580	0.471880
C291	C29	0.375150	0.914160	0.454040
C301	C30	0.345420	0.885020	0.495600
H221	H22	0.354600	0.884600	0.534800
C311	C31	0.302390	0.856690	0.479610
H231	H23	0.282900	0.837300	0.508100
C321	C32	0.287600	0.856660	0.421150
C331	C33	0.317540	0.885510	0.380000
H241	H24	0.308600	0.885900	0.340700
C341	C34	0.360790	0.913960	0.396280
H251	H25	0.380400	0.933200	0.367800
C351	C35	0.240790	0.828730	0.404240
C361	C36	0.220760	0.846770	0.370000
H261	H26	0.237300	0.876200	0.358900
H271	H27	0.277800	0.767000	0.395900
H281	H28	0.249100	0.706400	0.490600
O91	O9	0.113010	0.304820	0.764700
O101	O10	0.099480	0.277380	0.858660
C371	C37	0.088400	0.278910	0.805210
C381	C38	0.041820	0.247490	0.787370
C391	C39	0.012090	0.218350	0.828930
H291	H29	0.021270	0.217930	0.868130
C401	C40	0.969060	0.190020	0.812940
H301	H30	0.949570	0.170630	0.841430
C411	C41	0.954270	0.189990	0.754480
C421	C42	0.984210	0.218840	0.713330
H311	H31	0.975270	0.219230	0.674030
C431	C43	0.027460	0.247290	0.729610
H321	H32	0.047070	0.266530	0.701130
C441	C44	0.907460	0.162060	0.737570
C451	C45	0.887430	0.180100	0.703330
H331	H33	0.903970	0.209530	0.692230
H341	H34	0.944470	0.100330	0.729230
H351	H35	0.915770	0.039730	0.823930
O111	O11	0.779670	0.638160	0.098040
O121	O12	0.766140	0.610720	0.192000
C461	C46	0.755060	0.612250	0.138550
C471	C47	0.708480	0.580830	0.120710
C481	C48	0.678750	0.551690	0.162270
H361	H36	0.687930	0.551270	0.201470
C491	C49	0.635720	0.523360	0.146280
H371	H37	0.616230	0.503970	0.174770
C501	C50	0.620930	0.523330	0.087820
C511	C51	0.650870	0.552180	0.046670
H381	H38	0.641930	0.552570	0.007370
C521	C52	0.694120	0.580630	0.062950
H391	H39	0.713730	0.599870	0.034470
C531	C53	0.574120	0.495400	0.070910
C541	C54	0.554090	0.513440	0.036670
H401	H40	0.570630	0.542870	0.025570
H411	H41	0.611130	0.433670	0.062570
H421	H42	0.582430	0.373070	0.157270
O131	O13	0.028510	0.474850	0.431370
O141	O14	0.055950	0.488760	0.525330
C551	C55	0.054420	0.476150	0.471880
C561	C56	0.085840	0.460990	0.454040
C571	C57	0.114980	0.460400	0.495600
H431	H43	0.115400	0.470000	0.534800
C581	C58	0.143310	0.445700	0.479610
H441	H44	0.162700	0.445600	0.508100
C591	C59	0.143340	0.430940	0.421150
C601	C60	0.114490	0.432030	0.380000
H451	H45	0.114100	0.422700	0.340700
C611	C61	0.086040	0.446830	0.396280
H461	H46	0.066800	0.447200	0.367800
C621	C62	0.171270	0.412060	0.404240
C631	C63	0.153230	0.373990	0.370000
H471	H47	0.123800	0.361100	0.358900
H481	H48	0.233000	0.510800	0.395900
H491	H49	0.293600	0.542700	0.490600
O151	O15	0.695180	0.808180	0.764700
O161	O16	0.722620	0.822090	0.858660
C641	C64	0.721090	0.809480	0.805210
C651	C65	0.752510	0.794320	0.787370
C661	C66	0.781650	0.793730	0.828930
H501	H50	0.782070	0.803330	0.868130
C671	C67	0.809980	0.779030	0.812940
H511	H51	0.829370	0.778930	0.841430
C681	C68	0.810010	0.764270	0.754480
C691	C69	0.781160	0.765360	0.713330
H521	H52	0.780770	0.756030	0.674030
C701	C70	0.752710	0.780160	0.729610
H531	H53	0.733470	0.780530	0.701130
C711	C71	0.837940	0.745390	0.737570
C721	C72	0.819900	0.707320	0.703330
H541	H54	0.790470	0.694430	0.692230
H551	H55	0.899670	0.844130	0.729230
H561	H56	0.960270	0.876030	0.823930
O171	O17	0.361840	0.141520	0.098040
O181	O18	0.389280	0.155430	0.192000
C731	C73	0.387750	0.142820	0.138550
C741	C74	0.419170	0.127660	0.120710
C751	C75	0.448310	0.127070	0.162270
H571	H57	0.448730	0.136670	0.201470
C761	C76	0.476640	0.112370	0.146280
H581	H58	0.496030	0.112270	0.174770
C771	C77	0.476670	0.097610	0.087820
C781	C78	0.447820	0.098700	0.046670
H591	H59	0.447430	0.089370	0.007370
C791	C79	0.419370	0.113500	0.062950
H601	H60	0.400130	0.113870	0.034470
C801	C80	0.504600	0.078730	0.070910
C811	C81	0.486560	0.040660	0.036670
H611	H61	0.457130	0.027770	0.025570
H621	H62	0.566330	0.177470	0.062570
H631	H63	0.626930	0.209370	0.157270
O191	O19	0.553660	0.525150	0.568630
O201	O20	0.567190	0.511240	0.474670
C821	C82	0.578270	0.523850	0.528120
C831	C83	0.624850	0.539010	0.545960
C841	C84	0.654580	0.539600	0.504400
H641	H64	0.645400	0.530000	0.465200
C851	C85	0.697610	0.554300	0.520390
H651	H65	0.717100	0.554400	0.491900
C861	C86	0.712400	0.569060	0.578850
C871	C87	0.682460	0.567970	0.620000
H661	H66	0.691400	0.577300	0.659300
C881	C88	0.639210	0.553170	0.603720
H671	H67	0.619600	0.552800	0.632200
C891	C89	0.759210	0.587940	0.595760
C901	C90	0.779240	0.626010	0.630000
H681	H68	0.762700	0.638900	0.641100
H691	H69	0.722200	0.489200	0.604100
H701	H70	0.750900	0.457300	0.509400
O211	O21	0.220330	0.858480	0.901960
O221	O22	0.233860	0.844570	0.808000
C911	C91	0.244940	0.857180	0.861450
C921	C92	0.291520	0.872340	0.879290
C931	C93	0.321250	0.872930	0.837730
H711	H71	0.312070	0.863330	0.798530
C941	C94	0.364280	0.887630	0.853720
H721	H72	0.383770	0.887730	0.825230
C951	C95	0.379070	0.902390	0.912180
C961	C96	0.349130	0.901300	0.953330
H731	H73	0.358070	0.910630	0.992630
C971	C97	0.305880	0.886500	0.937050
H741	H74	0.286270	0.886130	0.965530
C981	C98	0.425880	0.921270	0.929090
C991	C99	0.445910	0.959340	0.963330
H751	H75	0.429370	0.972230	0.974430
H761	H76	0.388870	0.822530	0.937430
H771	H77	0.417570	0.790630	0.842730
O231	O23	0.886990	0.191820	0.235300
O241	O24	0.900520	0.177910	0.141340
C1001	C100	0.911600	0.190520	0.194790
C1011	C101	0.958180	0.205680	0.212630
C1021	C102	0.987910	0.206270	0.171070
H781	H78	0.978730	0.196670	0.131870
C1031	C103	0.030940	0.220970	0.187060
H791	H79	0.050430	0.221070	0.158570
C1041	C104	0.045730	0.235730	0.245520
C1051	C105	0.015790	0.234640	0.286670
H801	H80	0.024730	0.243970	0.325970
C1061	C106	0.972540	0.219840	0.270390
H811	H81	0.952930	0.219470	0.298870
C1071	C107	0.092540	0.254610	0.262430
C1081	C108	0.112570	0.292680	0.296670
H821	H82	0.096030	0.305570	0.307770
H831	H83	0.055530	0.155870	0.270770
H841	H84	0.084230	0.123970	0.176070
O251	O25	0.971490	0.446340	0.568630
O261	O26	0.944050	0.432810	0.474670
C1091	C109	0.945580	0.421730	0.528120
C1101	C110	0.914160	0.375150	0.545960
C1111	C111	0.885020	0.345420	0.504400
H851	H85	0.884600	0.354600	0.465200
C1121	C112	0.856690	0.302390	0.520390
H861	H86	0.837300	0.282900	0.491900
C1131	C113	0.856660	0.287600	0.578850
C1141	C114	0.885510	0.317540	0.620000
H871	H87	0.885900	0.308600	0.659300
C1151	C115	0.913960	0.360790	0.603720
H881	H88	0.933200	0.380400	0.632200
C1161	C116	0.828730	0.240790	0.595760
C1171	C117	0.846770	0.220760	0.630000
H891	H89	0.876200	0.237300	0.641100
H901	H90	0.767000	0.277800	0.604100
H911	H91	0.706400	0.249100	0.509400
O271	O27	0.638160	0.779670	0.901960
O281	O28	0.610720	0.766140	0.808000
C1181	C118	0.612250	0.755060	0.861450
C1191	C119	0.580830	0.708480	0.879290
C1201	C120	0.551690	0.678750	0.837730
H921	H92	0.551270	0.687930	0.798530
C1211	C121	0.523360	0.635720	0.853720
H931	H93	0.503970	0.616230	0.825230
C1221	C122	0.523330	0.620930	0.912180
C1231	C123	0.552180	0.650870	0.953330
H941	H94	0.552570	0.641930	0.992630
C1241	C124	0.580630	0.694120	0.937050
H951	H95	0.599870	0.713730	0.965530
C1251	C125	0.495400	0.574120	0.929090
C1261	C126	0.513440	0.554090	0.963330
H961	H96	0.542870	0.570630	0.974430
H971	H97	0.433670	0.611130	0.937430
H981	H98	0.373070	0.582430	0.842730
O291	O29	0.304820	0.113010	0.235300
O301	O30	0.277380	0.099480	0.141340
C1271	C127	0.278910	0.088400	0.194790
C1281	C128	0.247490	0.041820	0.212630
C1291	C129	0.218350	0.012090	0.171070
H991	H99	0.217930	0.021270	0.131870
C1301	C130	0.190020	0.969060	0.187060
H1001	H100	0.170630	0.949570	0.158570
C1311	C131	0.189990	0.954270	0.245520
C1321	C132	0.218840	0.984210	0.286670
H1011	H101	0.219230	0.975270	0.325970
C1331	C133	0.247290	0.027460	0.270390
H1021	H102	0.266530	0.047070	0.298870
C1341	C134	0.162060	0.907460	0.262430
C1351	C135	0.180100	0.887430	0.296670
H1031	H103	0.209530	0.903970	0.307770
H1041	H104	0.100330	0.944470	0.270770
H1051	H105	0.039730	0.915770	0.176070
O311	O31	0.474850	0.028510	0.568630
O321	O32	0.488760	0.055950	0.474670
C1361	C136	0.476150	0.054420	0.528120
C1371	C137	0.460990	0.085840	0.545960
C1381	C138	0.460400	0.114980	0.504400
H1061	H106	0.470000	0.115400	0.465200
C1391	C139	0.445700	0.143310	0.520390
H1071	H107	0.445600	0.162700	0.491900
C1401	C140	0.430940	0.143340	0.578850
C1411	C141	0.432030	0.114490	0.620000
H1081	H108	0.422700	0.114100	0.659300
C1421	C142	0.446830	0.086040	0.603720
H1091	H109	0.447200	0.066800	0.632200
C1431	C143	0.412060	0.171270	0.595760
C1441	C144	0.373990	0.153230	0.630000
H1101	H110	0.361100	0.123800	0.641100
H1111	H111	0.510800	0.233000	0.604100
H1121	H112	0.542700	0.293600	0.509400
O331	O33	0.141520	0.361840	0.901960
O341	O34	0.155430	0.389280	0.808000
C1451	C145	0.142820	0.387750	0.861450
C1461	C146	0.127660	0.419170	0.879290
C1471	C147	0.127070	0.448310	0.837730
H1131	H113	0.136670	0.448730	0.798530
C1481	C148	0.112370	0.476640	0.853720
H1141	H114	0.112270	0.496030	0.825230
C1491	C149	0.097610	0.476670	0.912180
C1501	C150	0.098700	0.447820	0.953330
H1151	H115	0.089370	0.447430	0.992630
C1511	C151	0.113500	0.419370	0.937050
H1161	H116	0.113870	0.400130	0.965530
C1521	C152	0.078730	0.504600	0.929090
C1531	C153	0.040660	0.486560	0.963330
H1171	H117	0.027770	0.457130	0.974430
H1181	H118	0.177470	0.566330	0.937430
H1191	H119	0.209370	0.626930	0.842730
O351	O35	0.808180	0.695180	0.235300
O361	O36	0.822090	0.722620	0.141340
C1541	C154	0.809480	0.721090	0.194790
C1551	C155	0.794320	0.752510	0.212630
C1561	C156	0.793730	0.781650	0.171070
H1201	H120	0.803330	0.782070	0.131870
C1571	C157	0.779030	0.809980	0.187060
H1211	H121	0.778930	0.829370	0.158570
C1581	C158	0.764270	0.810010	0.245520
C1591	C159	0.765360	0.781160	0.286670
H1221	H122	0.756030	0.780770	0.325970
C1601	C160	0.780160	0.752710	0.270390
H1231	H123	0.780530	0.733470	0.298870
C1611	C161	0.745390	0.837940	0.262430
C1621	C162	0.707320	0.819900	0.296670
H1241	H124	0.694430	0.790470	0.307770
H1251	H125	0.844130	0.899670	0.270770
H1261	H126	0.876030	0.960270	0.176070
O371	O37	0.474850	0.446340	0.568630
O381	O38	0.488760	0.432810	0.474670
C1631	C163	0.476150	0.421730	0.528120
C1641	C164	0.460990	0.375150	0.545960
C1651	C165	0.460400	0.345420	0.504400
H1271	H127	0.470000	0.354600	0.465200
C1661	C166	0.445700	0.302390	0.520390
H1281	H128	0.445600	0.282900	0.491900
C1671	C167	0.430940	0.287600	0.578850
C1681	C168	0.432030	0.317540	0.620000
H1291	H129	0.422700	0.308600	0.659300
C1691	C169	0.446830	0.360790	0.603720
H1301	H130	0.447200	0.380400	0.632200
C1701	C170	0.412060	0.240790	0.595760
C1711	C171	0.373990	0.220760	0.630000
H1311	H131	0.361100	0.237300	0.641100
H1321	H132	0.510800	0.277800	0.604100
H1331	H133	0.542700	0.249100	0.509400
O391	O39	0.141520	0.779670	0.901960
O401	O40	0.155430	0.766140	0.808000
C1721	C172	0.142820	0.755060	0.861450
C1731	C173	0.127660	0.708480	0.879290
C1741	C174	0.127070	0.678750	0.837730
H1341	H134	0.136670	0.687930	0.798530
C1751	C175	0.112370	0.635720	0.853720
H1351	H135	0.112270	0.616230	0.825230
C1761	C176	0.097610	0.620930	0.912180
C1771	C177	0.098700	0.650870	0.953330
H1361	H136	0.089370	0.641930	0.992630
C1781	C178	0.113500	0.694120	0.937050
H1371	H137	0.113870	0.713730	0.965530
C1791	C179	0.078730	0.574120	0.929090
C1801	C180	0.040660	0.554090	0.963330
H1381	H138	0.027770	0.570630	0.974430
H1391	H139	0.177470	0.611130	0.937430
H1401	H140	0.209370	0.582430	0.842730
O411	O41	0.808180	0.113010	0.235300
O421	O42	0.822090	0.099480	0.141340
C1811	C181	0.809480	0.088400	0.194790
C1821	C182	0.794320	0.041820	0.212630
C1831	C183	0.793730	0.012090	0.171070
H1411	H141	0.803330	0.021270	0.131870
C1841	C184	0.779030	0.969060	0.187060
H1421	H142	0.778930	0.949570	0.158570
C1851	C185	0.764270	0.954270	0.245520
C1861	C186	0.765360	0.984210	0.286670
H1431	H143	0.756030	0.975270	0.325970
C1871	C187	0.780160	0.027460	0.270390
H1441	H144	0.780530	0.047070	0.298870
C1881	C188	0.745390	0.907460	0.262430
C1891	C189	0.707320	0.887430	0.296670
H1451	H145	0.694430	0.903970	0.307770
H1461	H146	0.844130	0.944470	0.270770
H1471	H147	0.876030	0.915770	0.176070
O431	O43	0.553660	0.028510	0.568630
O441	O44	0.567190	0.055950	0.474670
C1901	C190	0.578270	0.054420	0.528120
C1911	C191	0.624850	0.085840	0.545960
C1921	C192	0.654580	0.114980	0.504400
H1481	H148	0.645400	0.115400	0.465200
C1931	C193	0.697610	0.143310	0.520390
H1491	H149	0.717100	0.162700	0.491900
C1941	C194	0.712400	0.143340	0.578850
C1951	C195	0.682460	0.114490	0.620000
H1501	H150	0.691400	0.114100	0.659300
C1961	C196	0.639210	0.086040	0.603720
H1511	H151	0.619600	0.066800	0.632200
C1971	C197	0.759210	0.171270	0.595760
C1981	C198	0.779240	0.153230	0.630000
H1521	H152	0.762700	0.123800	0.641100
H1531	H153	0.722200	0.233000	0.604100
H1541	H154	0.750900	0.293600	0.509400
O451	O45	0.220330	0.361840	0.901960
O461	O46	0.233860	0.389280	0.808000
C1991	C199	0.244940	0.387750	0.861450
C2001	C200	0.291520	0.419170	0.879290
C2011	C201	0.321250	0.448310	0.837730
H1551	H155	0.312070	0.448730	0.798530
C2021	C202	0.364280	0.476640	0.853720
H1561	H156	0.383770	0.496030	0.825230
C2031	C203	0.379070	0.476670	0.912180
C2041	C204	0.349130	0.447820	0.953330
H1571	H157	0.358070	0.447430	0.992630
C2051	C205	0.305880	0.419370	0.937050
H1581	H158	0.286270	0.400130	0.965530
C2061	C206	0.425880	0.504600	0.929090
C2071	C207	0.445910	0.486560	0.963330
H1591	H159	0.429370	0.457130	0.974430
H1601	H160	0.388870	0.566330	0.937430
H1611	H161	0.417570	0.626930	0.842730
O471	O47	0.886990	0.695180	0.235300
O481	O48	0.900520	0.722620	0.141340
C2081	C208	0.911600	0.721090	0.194790
C2091	C209	0.958180	0.752510	0.212630
C2101	C210	0.987910	0.781650	0.171070
H1621	H162	0.978730	0.782070	0.131870
C2111	C211	0.030940	0.809980	0.187060
H1631	H163	0.050430	0.829370	0.158570
C2121	C212	0.045730	0.810010	0.245520
C2131	C213	0.015790	0.781160	0.286670
H1641	H164	0.024730	0.780770	0.325970
C2141	C214	0.972540	0.752710	0.270390
H1651	H165	0.952930	0.733470	0.298870
C2151	C215	0.092540	0.837940	0.262430
C2161	C216	0.112570	0.819900	0.296670
H1661	H166	0.096030	0.790470	0.307770
H1671	H167	0.055530	0.899670	0.270770
H1681	H168	0.084230	0.960270	0.176070
O491	O49	0.971490	0.525150	0.568630
O501	O50	0.944050	0.511240	0.474670
C2171	C217	0.945580	0.523850	0.528120
C2181	C218	0.914160	0.539010	0.545960
C2191	C219	0.885020	0.539600	0.504400
H1691	H169	0.884600	0.530000	0.465200
C2201	C220	0.856690	0.554300	0.520390
H1701	H170	0.837300	0.554400	0.491900
C2211	C221	0.856660	0.569060	0.578850
C2221	C222	0.885510	0.567970	0.620000
H1711	H171	0.885900	0.577300	0.659300
C2231	C223	0.913960	0.553170	0.603720
H1721	H172	0.933200	0.552800	0.632200
C2241	C224	0.828730	0.587940	0.595760
C2251	C225	0.846770	0.626010	0.630000
H1731	H173	0.876200	0.638900	0.641100
H1741	H174	0.767000	0.489200	0.604100
H1751	H175	0.706400	0.457300	0.509400
O511	O51	0.638160	0.858480	0.901960
O521	O52	0.610720	0.844570	0.808000
C2261	C226	0.612250	0.857180	0.861450
C2271	C227	0.580830	0.872340	0.879290
C2281	C228	0.551690	0.872930	0.837730
H1761	H176	0.551270	0.863330	0.798530
C2291	C229	0.523360	0.887630	0.853720
H1771	H177	0.503970	0.887730	0.825230
C2301	C230	0.523330	0.902390	0.912180
C2311	C231	0.552180	0.901300	0.953330
H1781	H178	0.552570	0.910630	0.992630
C2321	C232	0.580630	0.886500	0.937050
H1791	H179	0.599870	0.886130	0.965530
C2331	C233	0.495400	0.921270	0.929090
C2341	C234	0.513440	0.959340	0.963330
H1801	H180	0.542870	0.972230	0.974430
H1811	H181	0.433670	0.822530	0.937430
H1821	H182	0.373070	0.790630	0.842730
O531	O53	0.304820	0.191820	0.235300
O541	O54	0.277380	0.177910	0.141340
C2351	C235	0.278910	0.190520	0.194790
C2361	C236	0.247490	0.205680	0.212630
C2371	C237	0.218350	0.206270	0.171070
H1831	H183	0.217930	0.196670	0.131870
C2381	C238	0.190020	0.220970	0.187060
H1841	H184	0.170630	0.221070	0.158570
C2391	C239	0.189990	0.235730	0.245520
C2401	C240	0.218840	0.234640	0.286670
H1851	H185	0.219230	0.243970	0.325970
C2411	C241	0.247290	0.219840	0.270390
H1861	H186	0.266530	0.219470	0.298870
C2421	C242	0.162060	0.254610	0.262430
C2431	C243	0.180100	0.292680	0.296670
H1871	H187	0.209530	0.305570	0.307770
H1881	H188	0.100330	0.155870	0.270770
H1891	H189	0.039730	0.123970	0.176070
O551	O55	0.446340	0.474850	0.431370
O561	O56	0.432810	0.488760	0.525330
C2441	C244	0.421730	0.476150	0.471880
C2451	C245	0.375150	0.460990	0.454040
C2461	C246	0.345420	0.460400	0.495600
H1901	H190	0.354600	0.470000	0.534800
C2471	C247	0.302390	0.445700	0.479610
H1911	H191	0.282900	0.445600	0.508100
C2481	C248	0.287600	0.430940	0.421150
C2491	C249	0.317540	0.432030	0.380000
H1921	H192	0.308600	0.422700	0.340700
C2501	C250	0.360790	0.446830	0.396280
H1931	H193	0.380400	0.447200	0.367800
C2511	C251	0.240790	0.412060	0.404240
C2521	C252	0.220760	0.373990	0.370000
H1941	H194	0.237300	0.361100	0.358900
H1951	H195	0.277800	0.510800	0.395900
H1961	H196	0.249100	0.542700	0.490600
O571	O57	0.113010	0.808180	0.764700
O581	O58	0.099480	0.822090	0.858660
C2531	C253	0.088400	0.809480	0.805210
C2541	C254	0.041820	0.794320	0.787370
C2551	C255	0.012090	0.793730	0.828930
H1971	H197	0.021270	0.803330	0.868130
C2561	C256	0.969060	0.779030	0.812940
H1981	H198	0.949570	0.778930	0.841430
C2571	C257	0.954270	0.764270	0.754480
C2581	C258	0.984210	0.765360	0.713330
H1991	H199	0.975270	0.756030	0.674030
C2591	C259	0.027460	0.780160	0.729610
H2001	H200	0.047070	0.780530	0.701130
C2601	C260	0.907460	0.745390	0.737570
C2611	C261	0.887430	0.707320	0.703330
H2011	H201	0.903970	0.694430	0.692230
H2021	H202	0.944470	0.844130	0.729230
H2031	H203	0.915770	0.876030	0.823930
O591	O59	0.779670	0.141520	0.098040
O601	O60	0.766140	0.155430	0.192000
C2621	C262	0.755060	0.142820	0.138550
C2631	C263	0.708480	0.127660	0.120710
C2641	C264	0.678750	0.127070	0.162270
H2041	H204	0.687930	0.136670	0.201470
C2651	C265	0.635720	0.112370	0.146280
H2051	H205	0.616230	0.112270	0.174770
C2661	C266	0.620930	0.097610	0.087820
C2671	C267	0.650870	0.098700	0.046670
H2061	H206	0.641930	0.089370	0.007370
C2681	C268	0.694120	0.113500	0.062950
H2071	H207	0.713730	0.113870	0.034470
C2691	C269	0.574120	0.078730	0.070910
C2701	C270	0.554090	0.040660	0.036670
H2081	H208	0.570630	0.027770	0.025570
H2091	H209	0.611130	0.177470	0.062570
H2101	H210	0.582430	0.209370	0.157270
O611	O61	0.028510	0.553660	0.431370
O621	O62	0.055950	0.567190	0.525330
C2711	C271	0.054420	0.578270	0.471880
C2721	C272	0.085840	0.624850	0.454040
C2731	C273	0.114980	0.654580	0.495600
H2111	H211	0.115400	0.645400	0.534800
C2741	C274	0.143310	0.697610	0.479610
H2121	H212	0.162700	0.717100	0.508100
C2751	C275	0.143340	0.712400	0.421150
C2761	C276	0.114490	0.682460	0.380000
H2131	H213	0.114100	0.691400	0.340700
C2771	C277	0.086040	0.639210	0.396280
H2141	H214	0.066800	0.619600	0.367800
C2781	C278	0.171270	0.759210	0.404240
C2791	C279	0.153230	0.779240	0.370000
H2151	H215	0.123800	0.762700	0.358900
H2161	H216	0.233000	0.722200	0.395900
H2171	H217	0.293600	0.750900	0.490600
O631	O63	0.695180	0.886990	0.764700
O641	O64	0.722620	0.900520	0.858660
C2801	C280	0.721090	0.911600	0.805210
C2811	C281	0.752510	0.958180	0.787370
C2821	C282	0.781650	0.987910	0.828930
H2181	H218	0.782070	0.978730	0.868130
C2831	C283	0.809980	0.030940	0.812940
H2191	H219	0.829370	0.050430	0.841430
C2841	C284	0.810010	0.045730	0.754480
C2851	C285	0.781160	0.015790	0.713330
H2201	H220	0.780770	0.024730	0.674030
C2861	C286	0.752710	0.972540	0.729610
H2211	H221	0.733470	0.952930	0.701130
C2871	C287	0.837940	0.092540	0.737570
C2881	C288	0.819900	0.112570	0.703330
H2221	H222	0.790470	0.096030	0.692230
H2231	H223	0.899670	0.055530	0.729230
H2241	H224	0.960270	0.084230	0.823930
O651	O65	0.361840	0.220330	0.098040
O661	O66	0.389280	0.233860	0.192000
C2891	C289	0.387750	0.244940	0.138550
C2901	C290	0.419170	0.291520	0.120710
C2911	C291	0.448310	0.321250	0.162270
H2251	H225	0.448730	0.312070	0.201470
C2921	C292	0.476640	0.364280	0.146280
H2261	H226	0.496030	0.383770	0.174770
C2931	C293	0.476670	0.379070	0.087820
C2941	C294	0.447820	0.349130	0.046670
H2271	H227	0.447430	0.358070	0.007370
C2951	C295	0.419370	0.305880	0.062950
H2281	H228	0.400130	0.286270	0.034470
C2961	C296	0.504600	0.425880	0.070910
C2971	C297	0.486560	0.445910	0.036670
H2291	H229	0.457130	0.429370	0.025570
H2301	H230	0.566330	0.388870	0.062570
H2311	H231	0.626930	0.417570	0.157270
O671	O67	0.525150	0.971490	0.431370
O681	O68	0.511240	0.944050	0.525330
C2981	C298	0.523850	0.945580	0.471880
C2991	C299	0.539010	0.914160	0.454040
C3001	C300	0.539600	0.885020	0.495600
H2321	H232	0.530000	0.884600	0.534800
C3011	C301	0.554300	0.856690	0.479610
H2331	H233	0.554400	0.837300	0.508100
C3021	C302	0.569060	0.856660	0.421150
C3031	C303	0.567970	0.885510	0.380000
H2341	H234	0.577300	0.885900	0.340700
C3041	C304	0.553170	0.913960	0.396280
H2351	H235	0.552800	0.933200	0.367800
C3051	C305	0.587940	0.828730	0.404240
C3061	C306	0.626010	0.846770	0.370000
H2361	H236	0.638900	0.876200	0.358900
H2371	H237	0.489200	0.767000	0.395900
H2381	H238	0.457300	0.706400	0.490600
O691	O69	0.191820	0.304820	0.764700
O701	O70	0.177910	0.277380	0.858660
C3071	C307	0.190520	0.278910	0.805210
C3081	C308	0.205680	0.247490	0.787370
C3091	C309	0.206270	0.218350	0.828930
H2391	H239	0.196670	0.217930	0.868130
C3101	C310	0.220970	0.190020	0.812940
H2401	H240	0.221070	0.170630	0.841430
C3111	C311	0.235730	0.189990	0.754480
C3121	C312	0.234640	0.218840	0.713330
H2411	H241	0.243970	0.219230	0.674030
C3131	C313	0.219840	0.247290	0.729610
H2421	H242	0.219470	0.266530	0.701130
C3141	C314	0.254610	0.162060	0.737570
C3151	C315	0.292680	0.180100	0.703330
H2431	H243	0.305570	0.209530	0.692230
H2441	H244	0.155870	0.100330	0.729230
H2451	H245	0.123970	0.039730	0.823930
O711	O71	0.858480	0.638160	0.098040
O721	O72	0.844570	0.610720	0.192000
C3161	C316	0.857180	0.612250	0.138550
C3171	C317	0.872340	0.580830	0.120710
C3181	C318	0.872930	0.551690	0.162270
H2461	H246	0.863330	0.551270	0.201470
C3191	C319	0.887630	0.523360	0.146280
H2471	H247	0.887730	0.503970	0.174770
C3201	C320	0.902390	0.523330	0.087820
C3211	C321	0.901300	0.552180	0.046670
H2481	H248	0.910630	0.552570	0.007370
C3221	C322	0.886500	0.580630	0.062950
H2491	H249	0.886130	0.599870	0.034470
C3231	C323	0.921270	0.495400	0.070910
C3241	C324	0.959340	0.513440	0.036670
H2501	H250	0.972230	0.542870	0.025570
H2511	H251	0.822530	0.433670	0.062570
H2521	H252	0.790630	0.373070	0.157270
Cu11	Cu1	0.507960	0.492040	0.444920
Cu21	Cu2	0.174630	0.825370	0.778250
Cu31	Cu3	0.841290	0.158710	0.111590
Cu41	Cu4	0.507960	0.015920	0.444920
Cu51	Cu5	0.174630	0.349250	0.778250
Cu61	Cu6	0.841290	0.682590	0.111590
Cu71	Cu7	0.984080	0.492040	0.444920
Cu81	Cu8	0.650750	0.825370	0.778250
Cu91	Cu9	0.317410	0.158710	0.111590
Cu101	Cu10	0.492040	0.507960	0.555080
Cu111	Cu11	0.158710	0.841290	0.888410
Cu121	Cu12	0.825370	0.174630	0.221750
Cu131	Cu13	0.015920	0.507960	0.555080
Cu141	Cu14	0.682590	0.841290	0.888410
Cu151	Cu15	0.349250	0.174630	0.221750
Cu161	Cu16	0.492040	0.984080	0.555080
Cu171	Cu17	0.158710	0.317410	0.888410
Cu181	Cu18	0.825370	0.650750	0.221750
O731	O73	0.530300	0.765150	0.455070
C3251	C325	0.646050	0.823020	0.351360
C3261	C326	0.569040	0.784520	0.420420
C3271	C327	0.490820	0.745410	0.421300
C3281	C328	0.455070	0.727530	0.465800
H2531	H253	0.427300	0.713650	0.445200
O741	O74	0.196970	0.098480	0.788400
C3291	C329	0.312720	0.156360	0.684690
C3301	C330	0.235710	0.117850	0.753750
C3311	C331	0.157490	0.078740	0.754630
C3321	C332	0.121740	0.060870	0.799130
H2541	H254	0.093970	0.046980	0.778530
O751	O75	0.863630	0.431820	0.121740
C3331	C333	0.979380	0.489690	0.018030
C3341	C334	0.902370	0.451190	0.087090
C3351	C335	0.824150	0.412080	0.087970
C3361	C336	0.788400	0.394200	0.132470
H2551	H255	0.760630	0.380320	0.111870
O761	O76	0.234850	0.765150	0.455070
C3371	C337	0.176980	0.823020	0.351360
C3381	C338	0.215480	0.784520	0.420420
C3391	C339	0.254590	0.745410	0.421300
C3401	C340	0.272470	0.727530	0.465800
H2561	H256	0.286350	0.713650	0.445200
O771	O77	0.901520	0.098480	0.788400
C3411	C341	0.843640	0.156360	0.684690
C3421	C342	0.882150	0.117850	0.753750
C3431	C343	0.921260	0.078740	0.754630
C3441	C344	0.939130	0.060870	0.799130
H2571	H257	0.953020	0.046980	0.778530
O781	O78	0.568180	0.431820	0.121740
C3451	C345	0.510310	0.489690	0.018030
C3461	C346	0.548810	0.451190	0.087090
C3471	C347	0.587920	0.412080	0.087970
C3481	C348	0.605800	0.394200	0.132470
H2581	H258	0.619680	0.380320	0.111870
O791	O79	0.234850	0.469700	0.455070
C3491	C349	0.176980	0.353950	0.351360
C3501	C350	0.215480	0.430960	0.420420
C3511	C351	0.254590	0.509180	0.421300
C3521	C352	0.272470	0.544930	0.465800
H2591	H259	0.286350	0.572700	0.445200
O801	O80	0.901520	0.803030	0.788400
C3531	C353	0.843640	0.687280	0.684690
C3541	C354	0.882150	0.764290	0.753750
C3551	C355	0.921260	0.842510	0.754630
C3561	C356	0.939130	0.878260	0.799130
H2601	H260	0.953020	0.906030	0.778530
O811	O81	0.568180	0.136370	0.121740
C3571	C357	0.510310	0.020620	0.018030
C3581	C358	0.548810	0.097630	0.087090
C3591	C359	0.587920	0.175850	0.087970
C3601	C360	0.605800	0.211600	0.132470
H2611	H261	0.619680	0.239370	0.111870
O821	O82	0.765150	0.530300	0.544930
C3611	C361	0.823020	0.646050	0.648640
C3621	C362	0.784520	0.569040	0.579580
C3631	C363	0.745410	0.490820	0.578700
C3641	C364	0.727530	0.455070	0.534200
H2621	H262	0.713650	0.427300	0.554800
O831	O83	0.431820	0.863630	0.878260
C3651	C365	0.489690	0.979380	0.981970
C3661	C366	0.451190	0.902370	0.912910
C3671	C367	0.412080	0.824150	0.912030
C3681	C368	0.394200	0.788400	0.867530
H2631	H263	0.380320	0.760630	0.888130
O841	O84	0.098480	0.196970	0.211600
C3691	C369	0.156360	0.312720	0.315310
C3701	C370	0.117850	0.235710	0.246250
C3711	C371	0.078740	0.157490	0.245370
C3721	C372	0.060870	0.121740	0.200870
H2641	H264	0.046980	0.093970	0.221470
O851	O85	0.765150	0.234850	0.544930
C3731	C373	0.823020	0.176980	0.648640
C3741	C374	0.784520	0.215480	0.579580
C3751	C375	0.745410	0.254590	0.578700
C3761	C376	0.727530	0.272470	0.534200
H2651	H265	0.713650	0.286350	0.554800
O861	O86	0.431820	0.568180	0.878260
C3771	C377	0.489690	0.510310	0.981970
C3781	C378	0.451190	0.548810	0.912910
C3791	C379	0.412080	0.587920	0.912030
C3801	C380	0.394200	0.605800	0.867530
H2661	H266	0.380320	0.619680	0.888130
O871	O87	0.098480	0.901520	0.211600
C3811	C381	0.156360	0.843640	0.315310
C3821	C382	0.117850	0.882150	0.246250
C3831	C383	0.078740	0.921260	0.245370
C3841	C384	0.060870	0.939130	0.200870
H2671	H267	0.046980	0.953020	0.221470
O881	O88	0.469700	0.234850	0.544930
C3851	C385	0.353950	0.176980	0.648640
C3861	C386	0.430960	0.215480	0.579580
C3871	C387	0.509180	0.254590	0.578700
C3881	C388	0.544930	0.272470	0.534200
H2681	H268	0.572700	0.286350	0.554800
O891	O89	0.136370	0.568180	0.878260
C3891	C389	0.020620	0.510310	0.981970
C3901	C390	0.097630	0.548810	0.912910
C3911	C391	0.175850	0.587920	0.912030
C3921	C392	0.211600	0.605800	0.867530
H2691	H269	0.239370	0.619680	0.888130
O901	O90	0.803030	0.901520	0.211600
C3931	C393	0.687280	0.843640	0.315310
C3941	C394	0.764290	0.882150	0.246250
C3951	C395	0.842510	0.921260	0.245370
C3961	C396	0.878260	0.939130	0.200870
H2701	H270	0.906030	0.953020	0.221470
