data_UMODEH14_clean_PM
_symmetry_space_group_name_H-M	'P1'
_cell_length_a	35.139700
_cell_length_b	35.139700
_cell_length_c	21.879000
_cell_angle_alpha	90.000000
_cell_angle_beta	90.000000
_cell_angle_gamma	120.000000
_symmetry_Int_Tables_number 1

loop_
_symmetry_equiv_pos_as_xyz
'x,y,z'

loop_
_atom_site_label
_atom_site_type_symbol
_atom_site_fract_x
_atom_site_fract_y
_atom_site_fract_z
O11	O1	0.637510	0.779950	0.403320
O21	O2	0.610970	0.766360	0.307590
C11	C1	0.612690	0.755500	0.360850
C21	C2	0.580580	0.708240	0.379200
C31	C3	0.552950	0.678840	0.335140
H11	H1	0.553400	0.687900	0.295100
C41	C4	0.524550	0.635460	0.352400
H21	H2	0.505700	0.615900	0.323100
C51	C5	0.523160	0.620650	0.409400
C61	C6	0.550360	0.650530	0.454700
H31	H3	0.549200	0.641500	0.494900
C71	C7	0.579450	0.694630	0.437200
H41	H4	0.598100	0.714600	0.466300
C81	C8	0.495360	0.573610	0.428600
C91	C9	0.513290	0.554000	0.463600
H51	H5	0.542400	0.570900	0.475900
H61	H6	0.375800	0.579500	0.333200
H71	H7	0.433000	0.612400	0.441700
O31	O3	0.304180	0.113280	0.736650
O41	O4	0.277640	0.099690	0.640920
C101	C10	0.279360	0.088830	0.694180
C111	C11	0.247250	0.041570	0.712530
C121	C12	0.219620	0.012170	0.668470
H81	H8	0.220070	0.021230	0.628430
C131	C13	0.191220	0.968790	0.685730
H91	H9	0.172370	0.949230	0.656430
C141	C14	0.189830	0.953980	0.742730
C151	C15	0.217030	0.983860	0.788030
H101	H10	0.215870	0.974830	0.828230
C161	C16	0.246120	0.027960	0.770530
H111	H11	0.264770	0.047930	0.799630
C171	C17	0.162030	0.906940	0.761930
C181	C18	0.179960	0.887330	0.796930
H121	H12	0.209070	0.904230	0.809230
H131	H13	0.042470	0.912830	0.666530
H141	H14	0.099670	0.945730	0.775030
O51	O5	0.970840	0.446620	0.069990
O61	O6	0.944300	0.433030	0.974260
C191	C19	0.946020	0.422170	0.027520
C201	C20	0.913910	0.374910	0.045870
C211	C21	0.886280	0.345510	0.001810
H151	H15	0.886730	0.354570	0.961770
C221	C22	0.857880	0.302130	0.019070
H161	H16	0.839030	0.282570	0.989770
C231	C23	0.856490	0.287320	0.076070
C241	C24	0.883690	0.317200	0.121370
H171	H17	0.882530	0.308170	0.161570
C251	C25	0.912780	0.361300	0.103870
H181	H18	0.931430	0.381270	0.132970
C261	C26	0.828690	0.240280	0.095270
C271	C27	0.846620	0.220670	0.130270
H191	H19	0.875730	0.237570	0.142570
H201	H20	0.709130	0.246170	0.999870
H211	H21	0.766330	0.279070	0.108370
O71	O7	0.220050	0.857560	0.403320
O81	O8	0.233640	0.844610	0.307590
C281	C28	0.244500	0.857190	0.360850
C291	C29	0.291760	0.872340	0.379200
C301	C30	0.321160	0.874110	0.335140
H221	H22	0.312100	0.865500	0.295100
C311	C31	0.364540	0.889090	0.352400
H231	H23	0.384100	0.889800	0.323100
C321	C32	0.379350	0.902510	0.409400
C331	C33	0.349470	0.899830	0.454700
H241	H24	0.358500	0.907700	0.494900
C341	C34	0.305370	0.884820	0.437200
H251	H25	0.285400	0.883500	0.466300
C351	C35	0.426390	0.921750	0.428600
C361	C36	0.446000	0.959290	0.463600
H261	H26	0.429100	0.971500	0.475900
H271	H27	0.420500	0.796300	0.333200
H281	H28	0.387600	0.820600	0.441700
O91	O9	0.886720	0.190890	0.736650
O101	O10	0.900310	0.177940	0.640920
C371	C37	0.911170	0.190520	0.694180
C381	C38	0.958430	0.205670	0.712530
C391	C39	0.987830	0.207440	0.668470
H291	H29	0.978770	0.198830	0.628430
C401	C40	0.031210	0.222420	0.685730
H301	H30	0.050770	0.223130	0.656430
C411	C41	0.046020	0.235840	0.742730
C421	C42	0.016140	0.233160	0.788030
H311	H31	0.025170	0.241030	0.828230
C431	C43	0.972040	0.218150	0.770530
H321	H32	0.952070	0.216830	0.799630
C441	C44	0.093060	0.255080	0.761930
C451	C45	0.112670	0.292620	0.796930
H331	H33	0.095770	0.304830	0.809230
H341	H34	0.087170	0.129630	0.666530
H351	H35	0.054270	0.153930	0.775030
O111	O11	0.553380	0.524230	0.069990
O121	O12	0.566970	0.511280	0.974260
C461	C46	0.577830	0.523860	0.027520
C471	C47	0.625090	0.539010	0.045870
C481	C48	0.654490	0.540780	0.001810
H361	H36	0.645430	0.532170	0.961770
C491	C49	0.697870	0.555760	0.019070
H371	H37	0.717430	0.556470	0.989770
C501	C50	0.712680	0.569180	0.076070
C511	C51	0.682800	0.566500	0.121370
H381	H38	0.691830	0.574370	0.161570
C521	C52	0.638700	0.551490	0.103870
H391	H39	0.618730	0.550170	0.132970
C531	C53	0.759720	0.588420	0.095270
C541	C54	0.779330	0.625960	0.130270
H401	H40	0.762430	0.638170	0.142570
H411	H41	0.753830	0.462970	0.999870
H421	H42	0.720930	0.487270	0.108370
O131	O13	0.142440	0.362490	0.403320
O141	O14	0.155390	0.389030	0.307590
C551	C55	0.142810	0.387310	0.360850
C561	C56	0.127660	0.419420	0.379200
C571	C57	0.125890	0.447050	0.335140
H431	H43	0.134500	0.446600	0.295100
C581	C58	0.110910	0.475450	0.352400
H441	H44	0.110200	0.494300	0.323100
C591	C59	0.097490	0.476840	0.409400
C601	C60	0.100170	0.449640	0.454700
H451	H45	0.092300	0.450800	0.494900
C611	C61	0.115180	0.420550	0.437200
H461	H46	0.116500	0.401900	0.466300
C621	C62	0.078250	0.504640	0.428600
C631	C63	0.040710	0.486710	0.463600
H471	H47	0.028500	0.457600	0.475900
H481	H48	0.203700	0.624200	0.333200
H491	H49	0.179400	0.567000	0.441700
O151	O15	0.809110	0.695820	0.736650
O161	O16	0.822060	0.722360	0.640920
C641	C64	0.809480	0.720640	0.694180
C651	C65	0.794330	0.752750	0.712530
C661	C66	0.792560	0.780380	0.668470
H501	H50	0.801170	0.779930	0.628430
C671	C67	0.777580	0.808780	0.685730
H511	H51	0.776870	0.827630	0.656430
C681	C68	0.764160	0.810170	0.742730
C691	C69	0.766840	0.782970	0.788030
H521	H52	0.758970	0.784130	0.828230
C701	C70	0.781850	0.753880	0.770530
H531	H53	0.783170	0.735230	0.799630
C711	C71	0.744920	0.837970	0.761930
C721	C72	0.707380	0.820040	0.796930
H541	H54	0.695170	0.790930	0.809230
H551	H55	0.870370	0.957530	0.666530
H561	H56	0.846070	0.900330	0.775030
O171	O17	0.475770	0.029160	0.069990
O181	O18	0.488720	0.055700	0.974260
C731	C73	0.476140	0.053980	0.027520
C741	C74	0.460990	0.086090	0.045870
C751	C75	0.459220	0.113720	0.001810
H571	H57	0.467830	0.113270	0.961770
C761	C76	0.444240	0.142120	0.019070
H581	H58	0.443530	0.160970	0.989770
C771	C77	0.430820	0.143510	0.076070
C781	C78	0.433500	0.116310	0.121370
H591	H59	0.425630	0.117470	0.161570
C791	C79	0.448510	0.087220	0.103870
H601	H60	0.449830	0.068570	0.132970
C801	C80	0.411580	0.171310	0.095270
C811	C81	0.374040	0.153380	0.130270
H611	H61	0.361830	0.124270	0.142570
H621	H62	0.537030	0.290870	0.999870
H631	H63	0.512730	0.233670	0.108370
O191	O19	0.779950	0.637510	0.596680
O201	O20	0.766360	0.610970	0.692410
C821	C82	0.755500	0.612690	0.639150
C831	C83	0.708240	0.580580	0.620800
C841	C84	0.678840	0.552950	0.664860
H641	H64	0.687900	0.553400	0.704900
C851	C85	0.635460	0.524550	0.647600
H651	H65	0.615900	0.505700	0.676900
C861	C86	0.620650	0.523160	0.590600
C871	C87	0.650530	0.550360	0.545300
H661	H66	0.641500	0.549200	0.505100
C881	C88	0.694630	0.579450	0.562800
H671	H67	0.714600	0.598100	0.533700
C891	C89	0.573610	0.495360	0.571400
C901	C90	0.554000	0.513290	0.536400
H681	H68	0.570900	0.542400	0.524100
H691	H69	0.579500	0.375800	0.666800
H701	H70	0.612400	0.433000	0.558300
O211	O21	0.446620	0.970840	0.930010
O221	O22	0.433030	0.944300	0.025740
C911	C91	0.422170	0.946020	0.972480
C921	C92	0.374910	0.913910	0.954130
C931	C93	0.345510	0.886280	0.998190
H711	H71	0.354570	0.886730	0.038230
C941	C94	0.302130	0.857880	0.980930
H721	H72	0.282570	0.839030	0.010230
C951	C95	0.287320	0.856490	0.923930
C961	C96	0.317200	0.883690	0.878630
H731	H73	0.308170	0.882530	0.838430
C971	C97	0.361300	0.912780	0.896130
H741	H74	0.381270	0.931430	0.867030
C981	C98	0.240280	0.828690	0.904730
C991	C99	0.220670	0.846620	0.869730
H751	H75	0.237570	0.875730	0.857430
H761	H76	0.246170	0.709130	0.000130
H771	H77	0.279070	0.766330	0.891630
O231	O23	0.113280	0.304180	0.263350
O241	O24	0.099690	0.277640	0.359080
C1001	C100	0.088830	0.279360	0.305820
C1011	C101	0.041570	0.247250	0.287470
C1021	C102	0.012170	0.219620	0.331530
H781	H78	0.021230	0.220070	0.371570
C1031	C103	0.968790	0.191220	0.314270
H791	H79	0.949230	0.172370	0.343570
C1041	C104	0.953980	0.189830	0.257270
C1051	C105	0.983860	0.217030	0.211970
H801	H80	0.974830	0.215870	0.171770
C1061	C106	0.027960	0.246120	0.229470
H811	H81	0.047930	0.264770	0.200370
C1071	C107	0.906940	0.162030	0.238070
C1081	C108	0.887330	0.179960	0.203070
H821	H82	0.904230	0.209070	0.190770
H831	H83	0.912830	0.042470	0.333470
H841	H84	0.945730	0.099670	0.224970
O251	O25	0.857560	0.220050	0.596680
O261	O26	0.844610	0.233640	0.692410
C1091	C109	0.857190	0.244500	0.639150
C1101	C110	0.872340	0.291760	0.620800
C1111	C111	0.874110	0.321160	0.664860
H851	H85	0.865500	0.312100	0.704900
C1121	C112	0.889090	0.364540	0.647600
H861	H86	0.889800	0.384100	0.676900
C1131	C113	0.902510	0.379350	0.590600
C1141	C114	0.899830	0.349470	0.545300
H871	H87	0.907700	0.358500	0.505100
C1151	C115	0.884820	0.305370	0.562800
H881	H88	0.883500	0.285400	0.533700
C1161	C116	0.921750	0.426390	0.571400
C1171	C117	0.959290	0.446000	0.536400
H891	H89	0.971500	0.429100	0.524100
H901	H90	0.796300	0.420500	0.666800
H911	H91	0.820600	0.387600	0.558300
O271	O27	0.524230	0.553380	0.930010
O281	O28	0.511280	0.566970	0.025740
C1181	C118	0.523860	0.577830	0.972480
C1191	C119	0.539010	0.625090	0.954130
C1201	C120	0.540780	0.654490	0.998190
H921	H92	0.532170	0.645430	0.038230
C1211	C121	0.555760	0.697870	0.980930
H931	H93	0.556470	0.717430	0.010230
C1221	C122	0.569180	0.712680	0.923930
C1231	C123	0.566500	0.682800	0.878630
H941	H94	0.574370	0.691830	0.838430
C1241	C124	0.551490	0.638700	0.896130
H951	H95	0.550170	0.618730	0.867030
C1251	C125	0.588420	0.759720	0.904730
C1261	C126	0.625960	0.779330	0.869730
H961	H96	0.638170	0.762430	0.857430
H971	H97	0.462970	0.753830	0.000130
H981	H98	0.487270	0.720930	0.891630
O291	O29	0.190890	0.886720	0.263350
O301	O30	0.177940	0.900310	0.359080
C1271	C127	0.190520	0.911170	0.305820
C1281	C128	0.205670	0.958430	0.287470
C1291	C129	0.207440	0.987830	0.331530
H991	H99	0.198830	0.978770	0.371570
C1301	C130	0.222420	0.031210	0.314270
H1001	H100	0.223130	0.050770	0.343570
C1311	C131	0.235840	0.046020	0.257270
C1321	C132	0.233160	0.016140	0.211970
H1011	H101	0.241030	0.025170	0.171770
C1331	C133	0.218150	0.972040	0.229470
H1021	H102	0.216830	0.952070	0.200370
C1341	C134	0.255080	0.093060	0.238070
C1351	C135	0.292620	0.112670	0.203070
H1031	H103	0.304830	0.095770	0.190770
H1041	H104	0.129630	0.087170	0.333470
H1051	H105	0.153930	0.054270	0.224970
O311	O31	0.362490	0.142440	0.596680
O321	O32	0.389030	0.155390	0.692410
C1361	C136	0.387310	0.142810	0.639150
C1371	C137	0.419420	0.127660	0.620800
C1381	C138	0.447050	0.125890	0.664860
H1061	H106	0.446600	0.134500	0.704900
C1391	C139	0.475450	0.110910	0.647600
H1071	H107	0.494300	0.110200	0.676900
C1401	C140	0.476840	0.097490	0.590600
C1411	C141	0.449640	0.100170	0.545300
H1081	H108	0.450800	0.092300	0.505100
C1421	C142	0.420550	0.115180	0.562800
H1091	H109	0.401900	0.116500	0.533700
C1431	C143	0.504640	0.078250	0.571400
C1441	C144	0.486710	0.040710	0.536400
H1101	H110	0.457600	0.028500	0.524100
H1111	H111	0.624200	0.203700	0.666800
H1121	H112	0.567000	0.179400	0.558300
O331	O33	0.029160	0.475770	0.930010
O341	O34	0.055700	0.488720	0.025740
C1451	C145	0.053980	0.476140	0.972480
C1461	C146	0.086090	0.460990	0.954130
C1471	C147	0.113720	0.459220	0.998190
H1131	H113	0.113270	0.467830	0.038230
C1481	C148	0.142120	0.444240	0.980930
H1141	H114	0.160970	0.443530	0.010230
C1491	C149	0.143510	0.430820	0.923930
C1501	C150	0.116310	0.433500	0.878630
H1151	H115	0.117470	0.425630	0.838430
C1511	C151	0.087220	0.448510	0.896130
H1161	H116	0.068570	0.449830	0.867030
C1521	C152	0.171310	0.411580	0.904730
C1531	C153	0.153380	0.374040	0.869730
H1171	H117	0.124270	0.361830	0.857430
H1181	H118	0.290870	0.537030	0.000130
H1191	H119	0.233670	0.512730	0.891630
O351	O35	0.695820	0.809110	0.263350
O361	O36	0.722360	0.822060	0.359080
C1541	C154	0.720640	0.809480	0.305820
C1551	C155	0.752750	0.794330	0.287470
C1561	C156	0.780380	0.792560	0.331530
H1201	H120	0.779930	0.801170	0.371570
C1571	C157	0.808780	0.777580	0.314270
H1211	H121	0.827630	0.776870	0.343570
C1581	C158	0.810170	0.764160	0.257270
C1591	C159	0.782970	0.766840	0.211970
H1221	H122	0.784130	0.758970	0.171770
C1601	C160	0.753880	0.781850	0.229470
H1231	H123	0.735230	0.783170	0.200370
C1611	C161	0.837970	0.744920	0.238070
C1621	C162	0.820040	0.707380	0.203070
H1241	H124	0.790930	0.695170	0.190770
H1251	H125	0.957530	0.870370	0.333470
H1261	H126	0.900330	0.846070	0.224970
O371	O37	0.362490	0.220050	0.596680
O381	O38	0.389030	0.233640	0.692410
C1631	C163	0.387310	0.244500	0.639150
C1641	C164	0.419420	0.291760	0.620800
C1651	C165	0.447050	0.321160	0.664860
H1271	H127	0.446600	0.312100	0.704900
C1661	C166	0.475450	0.364540	0.647600
H1281	H128	0.494300	0.384100	0.676900
C1671	C167	0.476840	0.379350	0.590600
C1681	C168	0.449640	0.349470	0.545300
H1291	H129	0.450800	0.358500	0.505100
C1691	C169	0.420550	0.305370	0.562800
H1301	H130	0.401900	0.285400	0.533700
C1701	C170	0.504640	0.426390	0.571400
C1711	C171	0.486710	0.446000	0.536400
H1311	H131	0.457600	0.429100	0.524100
H1321	H132	0.624200	0.420500	0.666800
H1331	H133	0.567000	0.387600	0.558300
O391	O39	0.029160	0.553380	0.930010
O401	O40	0.055700	0.566970	0.025740
C1721	C172	0.053980	0.577830	0.972480
C1731	C173	0.086090	0.625090	0.954130
C1741	C174	0.113720	0.654490	0.998190
H1341	H134	0.113270	0.645430	0.038230
C1751	C175	0.142120	0.697870	0.980930
H1351	H135	0.160970	0.717430	0.010230
C1761	C176	0.143510	0.712680	0.923930
C1771	C177	0.116310	0.682800	0.878630
H1361	H136	0.117470	0.691830	0.838430
C1781	C178	0.087220	0.638700	0.896130
H1371	H137	0.068570	0.618730	0.867030
C1791	C179	0.171310	0.759720	0.904730
C1801	C180	0.153380	0.779330	0.869730
H1381	H138	0.124270	0.762430	0.857430
H1391	H139	0.290870	0.753830	0.000130
H1401	H140	0.233670	0.720930	0.891630
O411	O41	0.695820	0.886720	0.263350
O421	O42	0.722360	0.900310	0.359080
C1811	C181	0.720640	0.911170	0.305820
C1821	C182	0.752750	0.958430	0.287470
C1831	C183	0.780380	0.987830	0.331530
H1411	H141	0.779930	0.978770	0.371570
C1841	C184	0.808780	0.031210	0.314270
H1421	H142	0.827630	0.050770	0.343570
C1851	C185	0.810170	0.046020	0.257270
C1861	C186	0.782970	0.016140	0.211970
H1431	H143	0.784130	0.025170	0.171770
C1871	C187	0.753880	0.972040	0.229470
H1441	H144	0.735230	0.952070	0.200370
C1881	C188	0.837970	0.093060	0.238070
C1891	C189	0.820040	0.112670	0.203070
H1451	H145	0.790930	0.095770	0.190770
H1461	H146	0.957530	0.087170	0.333470
H1471	H147	0.900330	0.054270	0.224970
O431	O43	0.779950	0.142440	0.596680
O441	O44	0.766360	0.155390	0.692410
C1901	C190	0.755500	0.142810	0.639150
C1911	C191	0.708240	0.127660	0.620800
C1921	C192	0.678840	0.125890	0.664860
H1481	H148	0.687900	0.134500	0.704900
C1931	C193	0.635460	0.110910	0.647600
H1491	H149	0.615900	0.110200	0.676900
C1941	C194	0.620650	0.097490	0.590600
C1951	C195	0.650530	0.100170	0.545300
H1501	H150	0.641500	0.092300	0.505100
C1961	C196	0.694630	0.115180	0.562800
H1511	H151	0.714600	0.116500	0.533700
C1971	C197	0.573610	0.078250	0.571400
C1981	C198	0.554000	0.040710	0.536400
H1521	H152	0.570900	0.028500	0.524100
H1531	H153	0.579500	0.203700	0.666800
H1541	H154	0.612400	0.179400	0.558300
O451	O45	0.446620	0.475770	0.930010
O461	O46	0.433030	0.488720	0.025740
C1991	C199	0.422170	0.476140	0.972480
C2001	C200	0.374910	0.460990	0.954130
C2011	C201	0.345510	0.459220	0.998190
H1551	H155	0.354570	0.467830	0.038230
C2021	C202	0.302130	0.444240	0.980930
H1561	H156	0.282570	0.443530	0.010230
C2031	C203	0.287320	0.430820	0.923930
C2041	C204	0.317200	0.433500	0.878630
H1571	H157	0.308170	0.425630	0.838430
C2051	C205	0.361300	0.448510	0.896130
H1581	H158	0.381270	0.449830	0.867030
C2061	C206	0.240280	0.411580	0.904730
C2071	C207	0.220670	0.374040	0.869730
H1591	H159	0.237570	0.361830	0.857430
H1601	H160	0.246170	0.537030	0.000130
H1611	H161	0.279070	0.512730	0.891630
O471	O47	0.113280	0.809110	0.263350
O481	O48	0.099690	0.822060	0.359080
C2081	C208	0.088830	0.809480	0.305820
C2091	C209	0.041570	0.794330	0.287470
C2101	C210	0.012170	0.792560	0.331530
H1621	H162	0.021230	0.801170	0.371570
C2111	C211	0.968790	0.777580	0.314270
H1631	H163	0.949230	0.776870	0.343570
C2121	C212	0.953980	0.764160	0.257270
C2131	C213	0.983860	0.766840	0.211970
H1641	H164	0.974830	0.758970	0.171770
C2141	C214	0.027960	0.781850	0.229470
H1651	H165	0.047930	0.783170	0.200370
C2151	C215	0.906940	0.744920	0.238070
C2161	C216	0.887330	0.707380	0.203070
H1661	H166	0.904230	0.695170	0.190770
H1671	H167	0.912830	0.870370	0.333470
H1681	H168	0.945730	0.846070	0.224970
O491	O49	0.857560	0.637510	0.596680
O501	O50	0.844610	0.610970	0.692410
C2171	C217	0.857190	0.612690	0.639150
C2181	C218	0.872340	0.580580	0.620800
C2191	C219	0.874110	0.552950	0.664860
H1691	H169	0.865500	0.553400	0.704900
C2201	C220	0.889090	0.524550	0.647600
H1701	H170	0.889800	0.505700	0.676900
C2211	C221	0.902510	0.523160	0.590600
C2221	C222	0.899830	0.550360	0.545300
H1711	H171	0.907700	0.549200	0.505100
C2231	C223	0.884820	0.579450	0.562800
H1721	H172	0.883500	0.598100	0.533700
C2241	C224	0.921750	0.495360	0.571400
C2251	C225	0.959290	0.513290	0.536400
H1731	H173	0.971500	0.542400	0.524100
H1741	H174	0.796300	0.375800	0.666800
H1751	H175	0.820600	0.433000	0.558300
O511	O51	0.524230	0.970840	0.930010
O521	O52	0.511280	0.944300	0.025740
C2261	C226	0.523860	0.946020	0.972480
C2271	C227	0.539010	0.913910	0.954130
C2281	C228	0.540780	0.886280	0.998190
H1761	H176	0.532170	0.886730	0.038230
C2291	C229	0.555760	0.857880	0.980930
H1771	H177	0.556470	0.839030	0.010230
C2301	C230	0.569180	0.856490	0.923930
C2311	C231	0.566500	0.883690	0.878630
H1781	H178	0.574370	0.882530	0.838430
C2321	C232	0.551490	0.912780	0.896130
H1791	H179	0.550170	0.931430	0.867030
C2331	C233	0.588420	0.828690	0.904730
C2341	C234	0.625960	0.846620	0.869730
H1801	H180	0.638170	0.875730	0.857430
H1811	H181	0.462970	0.709130	0.000130
H1821	H182	0.487270	0.766330	0.891630
O531	O53	0.190890	0.304180	0.263350
O541	O54	0.177940	0.277640	0.359080
C2351	C235	0.190520	0.279360	0.305820
C2361	C236	0.205670	0.247250	0.287470
C2371	C237	0.207440	0.219620	0.331530
H1831	H183	0.198830	0.220070	0.371570
C2381	C238	0.222420	0.191220	0.314270
H1841	H184	0.223130	0.172370	0.343570
C2391	C239	0.235840	0.189830	0.257270
C2401	C240	0.233160	0.217030	0.211970
H1851	H185	0.241030	0.215870	0.171770
C2411	C241	0.218150	0.246120	0.229470
H1861	H186	0.216830	0.264770	0.200370
C2421	C242	0.255080	0.162030	0.238070
C2431	C243	0.292620	0.179960	0.203070
H1871	H187	0.304830	0.209070	0.190770
H1881	H188	0.129630	0.042470	0.333470
H1891	H189	0.153930	0.099670	0.224970
O551	O55	0.220050	0.362490	0.403320
O561	O56	0.233640	0.389030	0.307590
C2441	C244	0.244500	0.387310	0.360850
C2451	C245	0.291760	0.419420	0.379200
C2461	C246	0.321160	0.447050	0.335140
H1901	H190	0.312100	0.446600	0.295100
C2471	C247	0.364540	0.475450	0.352400
H1911	H191	0.384100	0.494300	0.323100
C2481	C248	0.379350	0.476840	0.409400
C2491	C249	0.349470	0.449640	0.454700
H1921	H192	0.358500	0.450800	0.494900
C2501	C250	0.305370	0.420550	0.437200
H1931	H193	0.285400	0.401900	0.466300
C2511	C251	0.426390	0.504640	0.428600
C2521	C252	0.446000	0.486710	0.463600
H1941	H194	0.429100	0.457600	0.475900
H1951	H195	0.420500	0.624200	0.333200
H1961	H196	0.387600	0.567000	0.441700
O571	O57	0.886720	0.695820	0.736650
O581	O58	0.900310	0.722360	0.640920
C2531	C253	0.911170	0.720640	0.694180
C2541	C254	0.958430	0.752750	0.712530
C2551	C255	0.987830	0.780380	0.668470
H1971	H197	0.978770	0.779930	0.628430
C2561	C256	0.031210	0.808780	0.685730
H1981	H198	0.050770	0.827630	0.656430
C2571	C257	0.046020	0.810170	0.742730
C2581	C258	0.016140	0.782970	0.788030
H1991	H199	0.025170	0.784130	0.828230
C2591	C259	0.972040	0.753880	0.770530
H2001	H200	0.952070	0.735230	0.799630
C2601	C260	0.093060	0.837970	0.761930
C2611	C261	0.112670	0.820040	0.796930
H2011	H201	0.095770	0.790930	0.809230
H2021	H202	0.087170	0.957530	0.666530
H2031	H203	0.054270	0.900330	0.775030
O591	O59	0.553380	0.029160	0.069990
O601	O60	0.566970	0.055700	0.974260
C2621	C262	0.577830	0.053980	0.027520
C2631	C263	0.625090	0.086090	0.045870
C2641	C264	0.654490	0.113720	0.001810
H2041	H204	0.645430	0.113270	0.961770
C2651	C265	0.697870	0.142120	0.019070
H2051	H205	0.717430	0.160970	0.989770
C2661	C266	0.712680	0.143510	0.076070
C2671	C267	0.682800	0.116310	0.121370
H2061	H206	0.691830	0.117470	0.161570
C2681	C268	0.638700	0.087220	0.103870
H2071	H207	0.618730	0.068570	0.132970
C2691	C269	0.759720	0.171310	0.095270
C2701	C270	0.779330	0.153380	0.130270
H2081	H208	0.762430	0.124270	0.142570
H2091	H209	0.753830	0.290870	0.999870
H2101	H210	0.720930	0.233670	0.108370
O611	O61	0.142440	0.779950	0.403320
O621	O62	0.155390	0.766360	0.307590
C2711	C271	0.142810	0.755500	0.360850
C2721	C272	0.127660	0.708240	0.379200
C2731	C273	0.125890	0.678840	0.335140
H2111	H211	0.134500	0.687900	0.295100
C2741	C274	0.110910	0.635460	0.352400
H2121	H212	0.110200	0.615900	0.323100
C2751	C275	0.097490	0.620650	0.409400
C2761	C276	0.100170	0.650530	0.454700
H2131	H213	0.092300	0.641500	0.494900
C2771	C277	0.115180	0.694630	0.437200
H2141	H214	0.116500	0.714600	0.466300
C2781	C278	0.078250	0.573610	0.428600
C2791	C279	0.040710	0.554000	0.463600
H2151	H215	0.028500	0.570900	0.475900
H2161	H216	0.203700	0.579500	0.333200
H2171	H217	0.179400	0.612400	0.441700
O631	O63	0.809110	0.113280	0.736650
O641	O64	0.822060	0.099690	0.640920
C2801	C280	0.809480	0.088830	0.694180
C2811	C281	0.794330	0.041570	0.712530
C2821	C282	0.792560	0.012170	0.668470
H2181	H218	0.801170	0.021230	0.628430
C2831	C283	0.777580	0.968790	0.685730
H2191	H219	0.776870	0.949230	0.656430
C2841	C284	0.764160	0.953980	0.742730
C2851	C285	0.766840	0.983860	0.788030
H2201	H220	0.758970	0.974830	0.828230
C2861	C286	0.781850	0.027960	0.770530
H2211	H221	0.783170	0.047930	0.799630
C2871	C287	0.744920	0.906940	0.761930
C2881	C288	0.707380	0.887330	0.796930
H2221	H222	0.695170	0.904230	0.809230
H2231	H223	0.870370	0.912830	0.666530
H2241	H224	0.846070	0.945730	0.775030
O651	O65	0.475770	0.446620	0.069990
O661	O66	0.488720	0.433030	0.974260
C2891	C289	0.476140	0.422170	0.027520
C2901	C290	0.460990	0.374910	0.045870
C2911	C291	0.459220	0.345510	0.001810
H2251	H225	0.467830	0.354570	0.961770
C2921	C292	0.444240	0.302130	0.019070
H2261	H226	0.443530	0.282570	0.989770
C2931	C293	0.430820	0.287320	0.076070
C2941	C294	0.433500	0.317200	0.121370
H2271	H227	0.425630	0.308170	0.161570
C2951	C295	0.448510	0.361300	0.103870
H2281	H228	0.449830	0.381270	0.132970
C2961	C296	0.411580	0.240280	0.095270
C2971	C297	0.374040	0.220670	0.130270
H2291	H229	0.361830	0.237570	0.142570
H2301	H230	0.537030	0.246170	0.999870
H2311	H231	0.512730	0.279070	0.108370
O671	O67	0.637510	0.857560	0.403320
O681	O68	0.610970	0.844610	0.307590
C2981	C298	0.612690	0.857190	0.360850
C2991	C299	0.580580	0.872340	0.379200
C3001	C300	0.552950	0.874110	0.335140
H2321	H232	0.553400	0.865500	0.295100
C3011	C301	0.524550	0.889090	0.352400
H2331	H233	0.505700	0.889800	0.323100
C3021	C302	0.523160	0.902510	0.409400
C3031	C303	0.550360	0.899830	0.454700
H2341	H234	0.549200	0.907700	0.494900
C3041	C304	0.579450	0.884820	0.437200
H2351	H235	0.598100	0.883500	0.466300
C3051	C305	0.495360	0.921750	0.428600
C3061	C306	0.513290	0.959290	0.463600
H2361	H236	0.542400	0.971500	0.475900
H2371	H237	0.375800	0.796300	0.333200
H2381	H238	0.433000	0.820600	0.441700
O691	O69	0.304180	0.190890	0.736650
O701	O70	0.277640	0.177940	0.640920
C3071	C307	0.279360	0.190520	0.694180
C3081	C308	0.247250	0.205670	0.712530
C3091	C309	0.219620	0.207440	0.668470
H2391	H239	0.220070	0.198830	0.628430
C3101	C310	0.191220	0.222420	0.685730
H2401	H240	0.172370	0.223130	0.656430
C3111	C311	0.189830	0.235840	0.742730
C3121	C312	0.217030	0.233160	0.788030
H2411	H241	0.215870	0.241030	0.828230
C3131	C313	0.246120	0.218150	0.770530
H2421	H242	0.264770	0.216830	0.799630
C3141	C314	0.162030	0.255080	0.761930
C3151	C315	0.179960	0.292620	0.796930
H2431	H243	0.209070	0.304830	0.809230
H2441	H244	0.042470	0.129630	0.666530
H2451	H245	0.099670	0.153930	0.775030
O711	O71	0.970840	0.524230	0.069990
O721	O72	0.944300	0.511280	0.974260
C3161	C316	0.946020	0.523860	0.027520
C3171	C317	0.913910	0.539010	0.045870
C3181	C318	0.886280	0.540780	0.001810
H2461	H246	0.886730	0.532170	0.961770
C3191	C319	0.857880	0.555760	0.019070
H2471	H247	0.839030	0.556470	0.989770
C3201	C320	0.856490	0.569180	0.076070
C3211	C321	0.883690	0.566500	0.121370
H2481	H248	0.882530	0.574370	0.161570
C3221	C322	0.912780	0.551490	0.103870
H2491	H249	0.931430	0.550170	0.132970
C3231	C323	0.828690	0.588420	0.095270
C3241	C324	0.846620	0.625960	0.130270
H2501	H250	0.875730	0.638170	0.142570
H2511	H251	0.709130	0.462970	0.999870
H2521	H252	0.766330	0.487270	0.108370
Cu11	Cu1	0.682230	0.841110	0.389630
Cu21	Cu2	0.348900	0.174450	0.722960
Cu31	Cu3	0.015560	0.507780	0.056300
Cu41	Cu4	0.158890	0.841110	0.389630
Cu51	Cu5	0.825550	0.174450	0.722960
Cu61	Cu6	0.492220	0.507780	0.056300
Cu71	Cu7	0.158890	0.317770	0.389630
Cu81	Cu8	0.825550	0.651100	0.722960
Cu91	Cu9	0.492220	0.984440	0.056300
Cu101	Cu10	0.841110	0.682230	0.610370
Cu111	Cu11	0.507780	0.015560	0.943700
Cu121	Cu12	0.174450	0.348900	0.277040
Cu131	Cu13	0.841110	0.158890	0.610370
Cu141	Cu14	0.507780	0.492220	0.943700
Cu151	Cu15	0.174450	0.825550	0.277040
Cu161	Cu16	0.317770	0.158890	0.610370
Cu171	Cu17	0.984440	0.492220	0.943700
Cu181	Cu18	0.651100	0.825550	0.277040
O731	O73	0.432570	0.567430	0.375300
C3251	C325	0.489920	0.510080	0.481600
C3261	C326	0.451350	0.548650	0.410800
C3271	C327	0.395420	0.604580	0.357300
H2531	H253	0.380400	0.619600	0.370800
C3281	C328	0.411670	0.588330	0.416800
O741	O74	0.099240	0.900760	0.708630
C3291	C329	0.156590	0.843410	0.814930
C3301	C330	0.118020	0.881980	0.744130
C3311	C331	0.062090	0.937910	0.690630
H2541	H254	0.047070	0.952930	0.704130
C3321	C332	0.078340	0.921660	0.750130
O751	O75	0.765900	0.234100	0.041970
C3331	C333	0.823250	0.176750	0.148270
C3341	C334	0.784680	0.215320	0.077470
C3351	C335	0.728750	0.271250	0.023970
H2551	H255	0.713730	0.286270	0.037470
C3361	C336	0.745000	0.255000	0.083470
O761	O76	0.432570	0.865140	0.375300
C3371	C337	0.489920	0.979840	0.481600
C3381	C338	0.451350	0.902700	0.410800
C3391	C339	0.395420	0.790840	0.357300
H2561	H256	0.380400	0.760800	0.370800
C3401	C340	0.411670	0.823340	0.416800
O771	O77	0.099240	0.198470	0.708630
C3411	C341	0.156590	0.313170	0.814930
C3421	C342	0.118020	0.236030	0.744130
C3431	C343	0.062090	0.124170	0.690630
H2571	H257	0.047070	0.094130	0.704130
C3441	C344	0.078340	0.156670	0.750130
O781	O78	0.765900	0.531810	0.041970
C3451	C345	0.823250	0.646510	0.148270
C3461	C346	0.784680	0.569370	0.077470
C3471	C347	0.728750	0.457510	0.023970
H2581	H258	0.713730	0.427470	0.037470
C3481	C348	0.745000	0.490010	0.083470
O791	O79	0.134860	0.567430	0.375300
C3491	C349	0.020160	0.510080	0.481600
C3501	C350	0.097300	0.548650	0.410800
C3511	C351	0.209160	0.604580	0.357300
H2591	H259	0.239200	0.619600	0.370800
C3521	C352	0.176660	0.588330	0.416800
O801	O80	0.801530	0.900760	0.708630
C3531	C353	0.686830	0.843410	0.814930
C3541	C354	0.763970	0.881980	0.744130
C3551	C355	0.875830	0.937910	0.690630
H2601	H260	0.905870	0.952930	0.704130
C3561	C356	0.843330	0.921660	0.750130
O811	O81	0.468190	0.234100	0.041970
C3571	C357	0.353490	0.176750	0.148270
C3581	C358	0.430630	0.215320	0.077470
C3591	C359	0.542490	0.271250	0.023970
H2611	H261	0.572530	0.286270	0.037470
C3601	C360	0.509990	0.255000	0.083470
O821	O82	0.567430	0.432570	0.624700
C3611	C361	0.510080	0.489920	0.518400
C3621	C362	0.548650	0.451350	0.589200
C3631	C363	0.604580	0.395420	0.642700
H2621	H262	0.619600	0.380400	0.629200
C3641	C364	0.588330	0.411670	0.583200
O831	O83	0.234100	0.765900	0.958030
C3651	C365	0.176750	0.823250	0.851730
C3661	C366	0.215320	0.784680	0.922530
C3671	C367	0.271250	0.728750	0.976030
H2631	H263	0.286270	0.713730	0.962530
C3681	C368	0.255000	0.745000	0.916530
O841	O84	0.900760	0.099240	0.291370
C3691	C369	0.843410	0.156590	0.185070
C3701	C370	0.881980	0.118020	0.255870
C3711	C371	0.937910	0.062090	0.309370
H2641	H264	0.952930	0.047070	0.295870
C3721	C372	0.921660	0.078340	0.249870
O851	O85	0.865140	0.432570	0.624700
C3731	C373	0.979840	0.489920	0.518400
C3741	C374	0.902700	0.451350	0.589200
C3751	C375	0.790840	0.395420	0.642700
H2651	H265	0.760800	0.380400	0.629200
C3761	C376	0.823340	0.411670	0.583200
O861	O86	0.531810	0.765900	0.958030
C3771	C377	0.646510	0.823250	0.851730
C3781	C378	0.569370	0.784680	0.922530
C3791	C379	0.457510	0.728750	0.976030
H2661	H266	0.427470	0.713730	0.962530
C3801	C380	0.490010	0.745000	0.916530
O871	O87	0.198470	0.099240	0.291370
C3811	C381	0.313170	0.156590	0.185070
C3821	C382	0.236030	0.118020	0.255870
C3831	C383	0.124170	0.062090	0.309370
H2671	H267	0.094130	0.047070	0.295870
C3841	C384	0.156670	0.078340	0.249870
O881	O88	0.567430	0.134860	0.624700
C3851	C385	0.510080	0.020160	0.518400
C3861	C386	0.548650	0.097300	0.589200
C3871	C387	0.604580	0.209160	0.642700
H2681	H268	0.619600	0.239200	0.629200
C3881	C388	0.588330	0.176660	0.583200
O891	O89	0.234100	0.468190	0.958030
C3891	C389	0.176750	0.353490	0.851730
C3901	C390	0.215320	0.430630	0.922530
C3911	C391	0.271250	0.542490	0.976030
H2691	H269	0.286270	0.572530	0.962530
C3921	C392	0.255000	0.509990	0.916530
O901	O90	0.900760	0.801530	0.291370
C3931	C393	0.843410	0.686830	0.185070
C3941	C394	0.881980	0.763970	0.255870
C3951	C395	0.937910	0.875830	0.309370
H2701	H270	0.952930	0.905870	0.295870
C3961	C396	0.921660	0.843330	0.249870
