data_UMODEH21_clean_PM
_symmetry_space_group_name_H-M	'P1'
_cell_length_a	35.340300
_cell_length_b	35.340300
_cell_length_c	20.291000
_cell_angle_alpha	90.000000
_cell_angle_beta	90.000000
_cell_angle_gamma	120.000000
_symmetry_Int_Tables_number 1

loop_
_symmetry_equiv_pos_as_xyz
'x,y,z'

loop_
_atom_site_label
_atom_site_type_symbol
_atom_site_fract_x
_atom_site_fract_y
_atom_site_fract_z
O11	O1	0.780130	0.637810	0.591780
O21	O2	0.766720	0.611290	0.697520
C11	C1	0.756030	0.612390	0.638080
C21	C2	0.709210	0.579630	0.617830
C31	C3	0.680470	0.550040	0.666190
H11	H1	0.690300	0.549900	0.709700
C41	C4	0.637180	0.521090	0.647600
H21	H2	0.617600	0.500800	0.678900
C51	C5	0.622240	0.521430	0.584300
C61	C6	0.651330	0.550690	0.535840
H31	H3	0.641800	0.550800	0.492100
C71	C7	0.694330	0.579150	0.555140
H41	H4	0.714200	0.599000	0.523600
C81	C8	0.575190	0.493690	0.567400
C91	C9	0.554680	0.512180	0.532930
H51	H5	0.571500	0.542000	0.520500
H61	H6	0.613500	0.432200	0.543900
H71	H7	0.586200	0.368500	0.653000
O31	O3	0.446800	0.971140	0.925110
O41	O4	0.433390	0.944620	0.030850
C101	C10	0.422700	0.945720	0.971410
C111	C11	0.375880	0.912960	0.951160
C121	C12	0.347140	0.883370	0.999520
H81	H8	0.356970	0.883230	0.043030
C131	C13	0.303850	0.854420	0.980930
H91	H9	0.284270	0.834130	0.012230
C141	C14	0.288910	0.854760	0.917630
C151	C15	0.318000	0.884020	0.869170
H101	H10	0.308470	0.884130	0.825430
C161	C16	0.361000	0.912480	0.888470
H111	H11	0.380870	0.932330	0.856930
C171	C17	0.241860	0.827020	0.900730
C181	C18	0.221350	0.845510	0.866260
H121	H12	0.238170	0.875330	0.853830
H131	H13	0.280170	0.765530	0.877230
H141	H14	0.252870	0.701830	0.986330
O51	O5	0.113460	0.304480	0.258450
O61	O6	0.100050	0.277960	0.364190
C191	C19	0.089360	0.279060	0.304750
C201	C20	0.042540	0.246300	0.284500
C211	C21	0.013800	0.216710	0.332860
H151	H15	0.023630	0.216570	0.376370
C221	C22	0.970510	0.187760	0.314270
H161	H16	0.950930	0.167470	0.345570
C231	C23	0.955570	0.188100	0.250970
C241	C24	0.984660	0.217360	0.202510
H171	H17	0.975130	0.217470	0.158770
C251	C25	0.027660	0.245820	0.221810
H181	H18	0.047530	0.265670	0.190270
C261	C26	0.908520	0.160360	0.234070
C271	C27	0.888010	0.178850	0.199600
H191	H19	0.904830	0.208670	0.187170
H201	H20	0.946830	0.098870	0.210570
H211	H21	0.919530	0.035170	0.319670
O71	O7	0.362190	0.142320	0.591780
O81	O8	0.388710	0.155430	0.697520
C281	C28	0.387610	0.143640	0.638080
C291	C29	0.420370	0.129580	0.617830
C301	C30	0.449960	0.130430	0.666190
H221	H22	0.450100	0.140400	0.709700
C311	C31	0.478910	0.116090	0.647600
H231	H23	0.499200	0.116800	0.678900
C321	C32	0.478570	0.100810	0.584300
C331	C33	0.449310	0.100640	0.535840
H241	H24	0.449200	0.091000	0.492100
C341	C34	0.420850	0.115180	0.555140
H251	H25	0.401000	0.115200	0.523600
C351	C35	0.506310	0.081500	0.567400
C361	C36	0.487820	0.042500	0.532930
H261	H26	0.458000	0.029500	0.520500
H271	H27	0.567800	0.181300	0.543900
H281	H28	0.631500	0.217700	0.653000
O91	O9	0.028860	0.475650	0.925110
O101	O10	0.055380	0.488760	0.030850
C371	C37	0.054280	0.476970	0.971410
C381	C38	0.087040	0.462910	0.951160
C391	C39	0.116630	0.463760	0.999520
H291	H29	0.116770	0.473730	0.043030
C401	C40	0.145580	0.449420	0.980930
H301	H30	0.165870	0.450130	0.012230
C411	C41	0.145240	0.434140	0.917630
C421	C42	0.115980	0.433970	0.869170
H311	H31	0.115870	0.424330	0.825430
C431	C43	0.087520	0.448510	0.888470
H321	H32	0.067670	0.448530	0.856930
C441	C44	0.172980	0.414830	0.900730
C451	C45	0.154490	0.375830	0.866260
H331	H33	0.124670	0.362830	0.853830
H341	H34	0.234470	0.514630	0.877230
H351	H35	0.298170	0.551030	0.986330
O111	O11	0.695520	0.808990	0.258450
O121	O12	0.722040	0.822100	0.364190
C461	C46	0.720940	0.810310	0.304750
C471	C47	0.753700	0.796250	0.284500
C481	C48	0.783290	0.797100	0.332860
H361	H36	0.783430	0.807070	0.376370
C491	C49	0.812240	0.782760	0.314270
H371	H37	0.832530	0.783470	0.345570
C501	C50	0.811900	0.767480	0.250970
C511	C51	0.782640	0.767310	0.202510
H381	H38	0.782530	0.757670	0.158770
C521	C52	0.754180	0.781850	0.221810
H391	H39	0.734330	0.781870	0.190270
C531	C53	0.839640	0.748170	0.234070
C541	C54	0.821150	0.709170	0.199600
H401	H40	0.791330	0.696170	0.187170
H411	H41	0.901130	0.847970	0.210570
H421	H42	0.964830	0.884370	0.319670
O131	O13	0.857680	0.219870	0.591780
O141	O14	0.844570	0.233280	0.697520
C551	C55	0.856360	0.243970	0.638080
C561	C56	0.870420	0.290790	0.617830
C571	C57	0.869570	0.319530	0.666190
H431	H43	0.859600	0.309700	0.709700
C581	C58	0.883910	0.362820	0.647600
H441	H44	0.883200	0.382400	0.678900
C591	C59	0.899190	0.377760	0.584300
C601	C60	0.899360	0.348670	0.535840
H451	H45	0.909000	0.358200	0.492100
C611	C61	0.884820	0.305670	0.555140
H461	H46	0.884800	0.285800	0.523600
C621	C62	0.918500	0.424810	0.567400
C631	C63	0.957500	0.445320	0.532930
H471	H47	0.970500	0.428500	0.520500
H481	H48	0.818700	0.386500	0.543900
H491	H49	0.782300	0.413800	0.653000
O151	O15	0.524350	0.553200	0.925110
O161	O16	0.511240	0.566610	0.030850
C641	C64	0.523030	0.577300	0.971410
C651	C65	0.537090	0.624120	0.951160
C661	C66	0.536240	0.652860	0.999520
H501	H50	0.526270	0.643030	0.043030
C671	C67	0.550580	0.696150	0.980930
H511	H51	0.549870	0.715730	0.012230
C681	C68	0.565860	0.711090	0.917630
C691	C69	0.566030	0.682000	0.869170
H521	H52	0.575670	0.691530	0.825430
C701	C70	0.551490	0.639000	0.888470
H531	H53	0.551470	0.619130	0.856930
C711	C71	0.585170	0.758140	0.900730
C721	C72	0.624170	0.778650	0.866260
H541	H54	0.637170	0.761830	0.853830
H551	H55	0.485370	0.719830	0.877230
H561	H56	0.448970	0.747130	0.986330
O171	O17	0.191010	0.886540	0.258450
O181	O18	0.177900	0.899950	0.364190
C731	C73	0.189690	0.910640	0.304750
C741	C74	0.203750	0.957460	0.284500
C751	C75	0.202900	0.986200	0.332860
H571	H57	0.192930	0.976370	0.376370
C761	C76	0.217240	0.029490	0.314270
H581	H58	0.216530	0.049070	0.345570
C771	C77	0.232520	0.044430	0.250970
C781	C78	0.232690	0.015340	0.202510
H591	H59	0.242330	0.024870	0.158770
C791	C79	0.218150	0.972340	0.221810
H601	H60	0.218130	0.952470	0.190270
C801	C80	0.251830	0.091480	0.234070
C811	C81	0.290830	0.111990	0.199600
H611	H61	0.303830	0.095170	0.187170
H621	H62	0.152030	0.053170	0.210570
H631	H63	0.115630	0.080470	0.319670
O191	O19	0.637810	0.780130	0.408220
O201	O20	0.611290	0.766720	0.302480
C821	C82	0.612390	0.756030	0.361920
C831	C83	0.579630	0.709210	0.382170
C841	C84	0.550040	0.680470	0.333810
H641	H64	0.549900	0.690300	0.290300
C851	C85	0.521090	0.637180	0.352400
H651	H65	0.500800	0.617600	0.321100
C861	C86	0.521430	0.622240	0.415700
C871	C87	0.550690	0.651330	0.464160
H661	H66	0.550800	0.641800	0.507900
C881	C88	0.579150	0.694330	0.444860
H671	H67	0.599000	0.714200	0.476400
C891	C89	0.493690	0.575190	0.432600
C901	C90	0.512180	0.554680	0.467070
H681	H68	0.542000	0.571500	0.479500
H691	H69	0.432200	0.613500	0.456100
H701	H70	0.368500	0.586200	0.347000
O211	O21	0.304480	0.113460	0.741550
O221	O22	0.277960	0.100050	0.635810
C911	C91	0.279060	0.089360	0.695250
C921	C92	0.246300	0.042540	0.715500
C931	C93	0.216710	0.013800	0.667140
H711	H71	0.216570	0.023630	0.623630
C941	C94	0.187760	0.970510	0.685730
H721	H72	0.167470	0.950930	0.654430
C951	C95	0.188100	0.955570	0.749030
C961	C96	0.217360	0.984660	0.797490
H731	H73	0.217470	0.975130	0.841230
C971	C97	0.245820	0.027660	0.778190
H741	H74	0.265670	0.047530	0.809730
C981	C98	0.160360	0.908520	0.765930
C991	C99	0.178850	0.888010	0.800400
H751	H75	0.208670	0.904830	0.812830
H761	H76	0.098870	0.946830	0.789430
H771	H77	0.035170	0.919530	0.680330
O231	O23	0.971140	0.446800	0.074890
O241	O24	0.944620	0.433390	0.969150
C1001	C100	0.945720	0.422700	0.028590
C1011	C101	0.912960	0.375880	0.048840
C1021	C102	0.883370	0.347140	0.000480
H781	H78	0.883230	0.356970	0.956970
C1031	C103	0.854420	0.303850	0.019070
H791	H79	0.834130	0.284270	0.987770
C1041	C104	0.854760	0.288910	0.082370
C1051	C105	0.884020	0.318000	0.130830
H801	H80	0.884130	0.308470	0.174570
C1061	C106	0.912480	0.361000	0.111530
H811	H81	0.932330	0.380870	0.143070
C1071	C107	0.827020	0.241860	0.099270
C1081	C108	0.845510	0.221350	0.133740
H821	H82	0.875330	0.238170	0.146170
H831	H83	0.765530	0.280170	0.122770
H841	H84	0.701830	0.252870	0.013670
O251	O25	0.142320	0.362190	0.408220
O261	O26	0.155430	0.388710	0.302480
C1091	C109	0.143640	0.387610	0.361920
C1101	C110	0.129580	0.420370	0.382170
C1111	C111	0.130430	0.449960	0.333810
H851	H85	0.140400	0.450100	0.290300
C1121	C112	0.116090	0.478910	0.352400
H861	H86	0.116800	0.499200	0.321100
C1131	C113	0.100810	0.478570	0.415700
C1141	C114	0.100640	0.449310	0.464160
H871	H87	0.091000	0.449200	0.507900
C1151	C115	0.115180	0.420850	0.444860
H881	H88	0.115200	0.401000	0.476400
C1161	C116	0.081500	0.506310	0.432600
C1171	C117	0.042500	0.487820	0.467070
H891	H89	0.029500	0.458000	0.479500
H901	H90	0.181300	0.567800	0.456100
H911	H91	0.217700	0.631500	0.347000
O271	O27	0.808990	0.695520	0.741550
O281	O28	0.822100	0.722040	0.635810
C1181	C118	0.810310	0.720940	0.695250
C1191	C119	0.796250	0.753700	0.715500
C1201	C120	0.797100	0.783290	0.667140
H921	H92	0.807070	0.783430	0.623630
C1211	C121	0.782760	0.812240	0.685730
H931	H93	0.783470	0.832530	0.654430
C1221	C122	0.767480	0.811900	0.749030
C1231	C123	0.767310	0.782640	0.797490
H941	H94	0.757670	0.782530	0.841230
C1241	C124	0.781850	0.754180	0.778190
H951	H95	0.781870	0.734330	0.809730
C1251	C125	0.748170	0.839640	0.765930
C1261	C126	0.709170	0.821150	0.800400
H961	H96	0.696170	0.791330	0.812830
H971	H97	0.847970	0.901130	0.789430
H981	H98	0.884370	0.964830	0.680330
O291	O29	0.475650	0.028860	0.074890
O301	O30	0.488760	0.055380	0.969150
C1271	C127	0.476970	0.054280	0.028590
C1281	C128	0.462910	0.087040	0.048840
C1291	C129	0.463760	0.116630	0.000480
H991	H99	0.473730	0.116770	0.956970
C1301	C130	0.449420	0.145580	0.019070
H1001	H100	0.450130	0.165870	0.987770
C1311	C131	0.434140	0.145240	0.082370
C1321	C132	0.433970	0.115980	0.130830
H1011	H101	0.424330	0.115870	0.174570
C1331	C133	0.448510	0.087520	0.111530
H1021	H102	0.448530	0.067670	0.143070
C1341	C134	0.414830	0.172980	0.099270
C1351	C135	0.375830	0.154490	0.133740
H1031	H103	0.362830	0.124670	0.146170
H1041	H104	0.514630	0.234470	0.122770
H1051	H105	0.551030	0.298170	0.013670
O311	O31	0.219870	0.857680	0.408220
O321	O32	0.233280	0.844570	0.302480
C1361	C136	0.243970	0.856360	0.361920
C1371	C137	0.290790	0.870420	0.382170
C1381	C138	0.319530	0.869570	0.333810
H1061	H106	0.309700	0.859600	0.290300
C1391	C139	0.362820	0.883910	0.352400
H1071	H107	0.382400	0.883200	0.321100
C1401	C140	0.377760	0.899190	0.415700
C1411	C141	0.348670	0.899360	0.464160
H1081	H108	0.358200	0.909000	0.507900
C1421	C142	0.305670	0.884820	0.444860
H1091	H109	0.285800	0.884800	0.476400
C1431	C143	0.424810	0.918500	0.432600
C1441	C144	0.445320	0.957500	0.467070
H1101	H110	0.428500	0.970500	0.479500
H1111	H111	0.386500	0.818700	0.456100
H1121	H112	0.413800	0.782300	0.347000
O331	O33	0.886540	0.191010	0.741550
O341	O34	0.899950	0.177900	0.635810
C1451	C145	0.910640	0.189690	0.695250
C1461	C146	0.957460	0.203750	0.715500
C1471	C147	0.986200	0.202900	0.667140
H1131	H113	0.976370	0.192930	0.623630
C1481	C148	0.029490	0.217240	0.685730
H1141	H114	0.049070	0.216530	0.654430
C1491	C149	0.044430	0.232520	0.749030
C1501	C150	0.015340	0.232690	0.797490
H1151	H115	0.024870	0.242330	0.841230
C1511	C151	0.972340	0.218150	0.778190
H1161	H116	0.952470	0.218130	0.809730
C1521	C152	0.091480	0.251830	0.765930
C1531	C153	0.111990	0.290830	0.800400
H1171	H117	0.095170	0.303830	0.812830
H1181	H118	0.053170	0.152030	0.789430
H1191	H119	0.080470	0.115630	0.680330
O351	O35	0.553200	0.524350	0.074890
O361	O36	0.566610	0.511240	0.969150
C1541	C154	0.577300	0.523030	0.028590
C1551	C155	0.624120	0.537090	0.048840
C1561	C156	0.652860	0.536240	0.000480
H1201	H120	0.643030	0.526270	0.956970
C1571	C157	0.696150	0.550580	0.019070
H1211	H121	0.715730	0.549870	0.987770
C1581	C158	0.711090	0.565860	0.082370
C1591	C159	0.682000	0.566030	0.130830
H1221	H122	0.691530	0.575670	0.174570
C1601	C160	0.639000	0.551490	0.111530
H1231	H123	0.619130	0.551470	0.143070
C1611	C161	0.758140	0.585170	0.099270
C1621	C162	0.778650	0.624170	0.133740
H1241	H124	0.761830	0.637170	0.146170
H1251	H125	0.719830	0.485370	0.122770
H1261	H126	0.747130	0.448970	0.013670
O371	O37	0.219870	0.362190	0.408220
O381	O38	0.233280	0.388710	0.302480
C1631	C163	0.243970	0.387610	0.361920
C1641	C164	0.290790	0.420370	0.382170
C1651	C165	0.319530	0.449960	0.333810
H1271	H127	0.309700	0.450100	0.290300
C1661	C166	0.362820	0.478910	0.352400
H1281	H128	0.382400	0.499200	0.321100
C1671	C167	0.377760	0.478570	0.415700
C1681	C168	0.348670	0.449310	0.464160
H1291	H129	0.358200	0.449200	0.507900
C1691	C169	0.305670	0.420850	0.444860
H1301	H130	0.285800	0.401000	0.476400
C1701	C170	0.424810	0.506310	0.432600
C1711	C171	0.445320	0.487820	0.467070
H1311	H131	0.428500	0.458000	0.479500
H1321	H132	0.386500	0.567800	0.456100
H1331	H133	0.413800	0.631500	0.347000
O391	O39	0.886540	0.695520	0.741550
O401	O40	0.899950	0.722040	0.635810
C1721	C172	0.910640	0.720940	0.695250
C1731	C173	0.957460	0.753700	0.715500
C1741	C174	0.986200	0.783290	0.667140
H1341	H134	0.976370	0.783430	0.623630
C1751	C175	0.029490	0.812240	0.685730
H1351	H135	0.049070	0.832530	0.654430
C1761	C176	0.044430	0.811900	0.749030
C1771	C177	0.015340	0.782640	0.797490
H1361	H136	0.024870	0.782530	0.841230
C1781	C178	0.972340	0.754180	0.778190
H1371	H137	0.952470	0.734330	0.809730
C1791	C179	0.091480	0.839640	0.765930
C1801	C180	0.111990	0.821150	0.800400
H1381	H138	0.095170	0.791330	0.812830
H1391	H139	0.053170	0.901130	0.789430
H1401	H140	0.080470	0.964830	0.680330
O411	O41	0.553200	0.028860	0.074890
O421	O42	0.566610	0.055380	0.969150
C1811	C181	0.577300	0.054280	0.028590
C1821	C182	0.624120	0.087040	0.048840
C1831	C183	0.652860	0.116630	0.000480
H1411	H141	0.643030	0.116770	0.956970
C1841	C184	0.696150	0.145580	0.019070
H1421	H142	0.715730	0.165870	0.987770
C1851	C185	0.711090	0.145240	0.082370
C1861	C186	0.682000	0.115980	0.130830
H1431	H143	0.691530	0.115870	0.174570
C1871	C187	0.639000	0.087520	0.111530
H1441	H144	0.619130	0.067670	0.143070
C1881	C188	0.758140	0.172980	0.099270
C1891	C189	0.778650	0.154490	0.133740
H1451	H145	0.761830	0.124670	0.146170
H1461	H146	0.719830	0.234470	0.122770
H1471	H147	0.747130	0.298170	0.013670
O431	O43	0.637810	0.857680	0.408220
O441	O44	0.611290	0.844570	0.302480
C1901	C190	0.612390	0.856360	0.361920
C1911	C191	0.579630	0.870420	0.382170
C1921	C192	0.550040	0.869570	0.333810
H1481	H148	0.549900	0.859600	0.290300
C1931	C193	0.521090	0.883910	0.352400
H1491	H149	0.500800	0.883200	0.321100
C1941	C194	0.521430	0.899190	0.415700
C1951	C195	0.550690	0.899360	0.464160
H1501	H150	0.550800	0.909000	0.507900
C1961	C196	0.579150	0.884820	0.444860
H1511	H151	0.599000	0.884800	0.476400
C1971	C197	0.493690	0.918500	0.432600
C1981	C198	0.512180	0.957500	0.467070
H1521	H152	0.542000	0.970500	0.479500
H1531	H153	0.432200	0.818700	0.456100
H1541	H154	0.368500	0.782300	0.347000
O451	O45	0.304480	0.191010	0.741550
O461	O46	0.277960	0.177900	0.635810
C1991	C199	0.279060	0.189690	0.695250
C2001	C200	0.246300	0.203750	0.715500
C2011	C201	0.216710	0.202900	0.667140
H1551	H155	0.216570	0.192930	0.623630
C2021	C202	0.187760	0.217240	0.685730
H1561	H156	0.167470	0.216530	0.654430
C2031	C203	0.188100	0.232520	0.749030
C2041	C204	0.217360	0.232690	0.797490
H1571	H157	0.217470	0.242330	0.841230
C2051	C205	0.245820	0.218150	0.778190
H1581	H158	0.265670	0.218130	0.809730
C2061	C206	0.160360	0.251830	0.765930
C2071	C207	0.178850	0.290830	0.800400
H1591	H159	0.208670	0.303830	0.812830
H1601	H160	0.098870	0.152030	0.789430
H1611	H161	0.035170	0.115630	0.680330
O471	O47	0.971140	0.524350	0.074890
O481	O48	0.944620	0.511240	0.969150
C2081	C208	0.945720	0.523030	0.028590
C2091	C209	0.912960	0.537090	0.048840
C2101	C210	0.883370	0.536240	0.000480
H1621	H162	0.883230	0.526270	0.956970
C2111	C211	0.854420	0.550580	0.019070
H1631	H163	0.834130	0.549870	0.987770
C2121	C212	0.854760	0.565860	0.082370
C2131	C213	0.884020	0.566030	0.130830
H1641	H164	0.884130	0.575670	0.174570
C2141	C214	0.912480	0.551490	0.111530
H1651	H165	0.932330	0.551470	0.143070
C2151	C215	0.827020	0.585170	0.099270
C2161	C216	0.845510	0.624170	0.133740
H1661	H166	0.875330	0.637170	0.146170
H1671	H167	0.765530	0.485370	0.122770
H1681	H168	0.701830	0.448970	0.013670
O491	O49	0.142320	0.780130	0.408220
O501	O50	0.155430	0.766720	0.302480
C2171	C217	0.143640	0.756030	0.361920
C2181	C218	0.129580	0.709210	0.382170
C2191	C219	0.130430	0.680470	0.333810
H1691	H169	0.140400	0.690300	0.290300
C2201	C220	0.116090	0.637180	0.352400
H1701	H170	0.116800	0.617600	0.321100
C2211	C221	0.100810	0.622240	0.415700
C2221	C222	0.100640	0.651330	0.464160
H1711	H171	0.091000	0.641800	0.507900
C2231	C223	0.115180	0.694330	0.444860
H1721	H172	0.115200	0.714200	0.476400
C2241	C224	0.081500	0.575190	0.432600
C2251	C225	0.042500	0.554680	0.467070
H1731	H173	0.029500	0.571500	0.479500
H1741	H174	0.181300	0.613500	0.456100
H1751	H175	0.217700	0.586200	0.347000
O511	O51	0.808990	0.113460	0.741550
O521	O52	0.822100	0.100050	0.635810
C2261	C226	0.810310	0.089360	0.695250
C2271	C227	0.796250	0.042540	0.715500
C2281	C228	0.797100	0.013800	0.667140
H1761	H176	0.807070	0.023630	0.623630
C2291	C229	0.782760	0.970510	0.685730
H1771	H177	0.783470	0.950930	0.654430
C2301	C230	0.767480	0.955570	0.749030
C2311	C231	0.767310	0.984660	0.797490
H1781	H178	0.757670	0.975130	0.841230
C2321	C232	0.781850	0.027660	0.778190
H1791	H179	0.781870	0.047530	0.809730
C2331	C233	0.748170	0.908520	0.765930
C2341	C234	0.709170	0.888010	0.800400
H1801	H180	0.696170	0.904830	0.812830
H1811	H181	0.847970	0.946830	0.789430
H1821	H182	0.884370	0.919530	0.680330
O531	O53	0.475650	0.446800	0.074890
O541	O54	0.488760	0.433390	0.969150
C2351	C235	0.476970	0.422700	0.028590
C2361	C236	0.462910	0.375880	0.048840
C2371	C237	0.463760	0.347140	0.000480
H1831	H183	0.473730	0.356970	0.956970
C2381	C238	0.449420	0.303850	0.019070
H1841	H184	0.450130	0.284270	0.987770
C2391	C239	0.434140	0.288910	0.082370
C2401	C240	0.433970	0.318000	0.130830
H1851	H185	0.424330	0.308470	0.174570
C2411	C241	0.448510	0.361000	0.111530
H1861	H186	0.448530	0.380870	0.143070
C2421	C242	0.414830	0.241860	0.099270
C2431	C243	0.375830	0.221350	0.133740
H1871	H187	0.362830	0.238170	0.146170
H1881	H188	0.514630	0.280170	0.122770
H1891	H189	0.551030	0.252870	0.013670
O551	O55	0.362190	0.219870	0.591780
O561	O56	0.388710	0.233280	0.697520
C2441	C244	0.387610	0.243970	0.638080
C2451	C245	0.420370	0.290790	0.617830
C2461	C246	0.449960	0.319530	0.666190
H1901	H190	0.450100	0.309700	0.709700
C2471	C247	0.478910	0.362820	0.647600
H1911	H191	0.499200	0.382400	0.678900
C2481	C248	0.478570	0.377760	0.584300
C2491	C249	0.449310	0.348670	0.535840
H1921	H192	0.449200	0.358200	0.492100
C2501	C250	0.420850	0.305670	0.555140
H1931	H193	0.401000	0.285800	0.523600
C2511	C251	0.506310	0.424810	0.567400
C2521	C252	0.487820	0.445320	0.532930
H1941	H194	0.458000	0.428500	0.520500
H1951	H195	0.567800	0.386500	0.543900
H1961	H196	0.631500	0.413800	0.653000
O571	O57	0.028860	0.553200	0.925110
O581	O58	0.055380	0.566610	0.030850
C2531	C253	0.054280	0.577300	0.971410
C2541	C254	0.087040	0.624120	0.951160
C2551	C255	0.116630	0.652860	0.999520
H1971	H197	0.116770	0.643030	0.043030
C2561	C256	0.145580	0.696150	0.980930
H1981	H198	0.165870	0.715730	0.012230
C2571	C257	0.145240	0.711090	0.917630
C2581	C258	0.115980	0.682000	0.869170
H1991	H199	0.115870	0.691530	0.825430
C2591	C259	0.087520	0.639000	0.888470
H2001	H200	0.067670	0.619130	0.856930
C2601	C260	0.172980	0.758140	0.900730
C2611	C261	0.154490	0.778650	0.866260
H2011	H201	0.124670	0.761830	0.853830
H2021	H202	0.234470	0.719830	0.877230
H2031	H203	0.298170	0.747130	0.986330
O591	O59	0.695520	0.886540	0.258450
O601	O60	0.722040	0.899950	0.364190
C2621	C262	0.720940	0.910640	0.304750
C2631	C263	0.753700	0.957460	0.284500
C2641	C264	0.783290	0.986200	0.332860
H2041	H204	0.783430	0.976370	0.376370
C2651	C265	0.812240	0.029490	0.314270
H2051	H205	0.832530	0.049070	0.345570
C2661	C266	0.811900	0.044430	0.250970
C2671	C267	0.782640	0.015340	0.202510
H2061	H206	0.782530	0.024870	0.158770
C2681	C268	0.754180	0.972340	0.221810
H2071	H207	0.734330	0.952470	0.190270
C2691	C269	0.839640	0.091480	0.234070
C2701	C270	0.821150	0.111990	0.199600
H2081	H208	0.791330	0.095170	0.187170
H2091	H209	0.901130	0.053170	0.210570
H2101	H210	0.964830	0.080470	0.319670
O611	O61	0.857680	0.637810	0.591780
O621	O62	0.844570	0.611290	0.697520
C2711	C271	0.856360	0.612390	0.638080
C2721	C272	0.870420	0.579630	0.617830
C2731	C273	0.869570	0.550040	0.666190
H2111	H211	0.859600	0.549900	0.709700
C2741	C274	0.883910	0.521090	0.647600
H2121	H212	0.883200	0.500800	0.678900
C2751	C275	0.899190	0.521430	0.584300
C2761	C276	0.899360	0.550690	0.535840
H2131	H213	0.909000	0.550800	0.492100
C2771	C277	0.884820	0.579150	0.555140
H2141	H214	0.884800	0.599000	0.523600
C2781	C278	0.918500	0.493690	0.567400
C2791	C279	0.957500	0.512180	0.532930
H2151	H215	0.970500	0.542000	0.520500
H2161	H216	0.818700	0.432200	0.543900
H2171	H217	0.782300	0.368500	0.653000
O631	O63	0.524350	0.971140	0.925110
O641	O64	0.511240	0.944620	0.030850
C2801	C280	0.523030	0.945720	0.971410
C2811	C281	0.537090	0.912960	0.951160
C2821	C282	0.536240	0.883370	0.999520
H2181	H218	0.526270	0.883230	0.043030
C2831	C283	0.550580	0.854420	0.980930
H2191	H219	0.549870	0.834130	0.012230
C2841	C284	0.565860	0.854760	0.917630
C2851	C285	0.566030	0.884020	0.869170
H2201	H220	0.575670	0.884130	0.825430
C2861	C286	0.551490	0.912480	0.888470
H2211	H221	0.551470	0.932330	0.856930
C2871	C287	0.585170	0.827020	0.900730
C2881	C288	0.624170	0.845510	0.866260
H2221	H222	0.637170	0.875330	0.853830
H2231	H223	0.485370	0.765530	0.877230
H2241	H224	0.448970	0.701830	0.986330
O651	O65	0.191010	0.304480	0.258450
O661	O66	0.177900	0.277960	0.364190
C2891	C289	0.189690	0.279060	0.304750
C2901	C290	0.203750	0.246300	0.284500
C2911	C291	0.202900	0.216710	0.332860
H2251	H225	0.192930	0.216570	0.376370
C2921	C292	0.217240	0.187760	0.314270
H2261	H226	0.216530	0.167470	0.345570
C2931	C293	0.232520	0.188100	0.250970
C2941	C294	0.232690	0.217360	0.202510
H2271	H227	0.242330	0.217470	0.158770
C2951	C295	0.218150	0.245820	0.221810
H2281	H228	0.218130	0.265670	0.190270
C2961	C296	0.251830	0.160360	0.234070
C2971	C297	0.290830	0.178850	0.199600
H2291	H229	0.303830	0.208670	0.187170
H2301	H230	0.152030	0.098870	0.210570
H2311	H231	0.115630	0.035170	0.319670
O671	O67	0.780130	0.142320	0.591780
O681	O68	0.766720	0.155430	0.697520
C2981	C298	0.756030	0.143640	0.638080
C2991	C299	0.709210	0.129580	0.617830
C3001	C300	0.680470	0.130430	0.666190
H2321	H232	0.690300	0.140400	0.709700
C3011	C301	0.637180	0.116090	0.647600
H2331	H233	0.617600	0.116800	0.678900
C3021	C302	0.622240	0.100810	0.584300
C3031	C303	0.651330	0.100640	0.535840
H2341	H234	0.641800	0.091000	0.492100
C3041	C304	0.694330	0.115180	0.555140
H2351	H235	0.714200	0.115200	0.523600
C3051	C305	0.575190	0.081500	0.567400
C3061	C306	0.554680	0.042500	0.532930
H2361	H236	0.571500	0.029500	0.520500
H2371	H237	0.613500	0.181300	0.543900
H2381	H238	0.586200	0.217700	0.653000
O691	O69	0.446800	0.475650	0.925110
O701	O70	0.433390	0.488760	0.030850
C3071	C307	0.422700	0.476970	0.971410
C3081	C308	0.375880	0.462910	0.951160
C3091	C309	0.347140	0.463760	0.999520
H2391	H239	0.356970	0.473730	0.043030
C3101	C310	0.303850	0.449420	0.980930
H2401	H240	0.284270	0.450130	0.012230
C3111	C311	0.288910	0.434140	0.917630
C3121	C312	0.318000	0.433970	0.869170
H2411	H241	0.308470	0.424330	0.825430
C3131	C313	0.361000	0.448510	0.888470
H2421	H242	0.380870	0.448530	0.856930
C3141	C314	0.241860	0.414830	0.900730
C3151	C315	0.221350	0.375830	0.866260
H2431	H243	0.238170	0.362830	0.853830
H2441	H244	0.280170	0.514630	0.877230
H2451	H245	0.252870	0.551030	0.986330
O711	O71	0.113460	0.808990	0.258450
O721	O72	0.100050	0.822100	0.364190
C3161	C316	0.089360	0.810310	0.304750
C3171	C317	0.042540	0.796250	0.284500
C3181	C318	0.013800	0.797100	0.332860
H2461	H246	0.023630	0.807070	0.376370
C3191	C319	0.970510	0.782760	0.314270
H2471	H247	0.950930	0.783470	0.345570
C3201	C320	0.955570	0.767480	0.250970
C3211	C321	0.984660	0.767310	0.202510
H2481	H248	0.975130	0.757670	0.158770
C3221	C322	0.027660	0.781850	0.221810
H2491	H249	0.047530	0.781870	0.190270
C3231	C323	0.908520	0.748170	0.234070
C3241	C324	0.888010	0.709170	0.199600
H2501	H250	0.904830	0.696170	0.187170
H2511	H251	0.946830	0.847970	0.210570
H2521	H252	0.919530	0.884370	0.319670
Cu11	Cu1	0.840860	0.681730	0.606380
Cu21	Cu2	0.507530	0.015060	0.939710
Cu31	Cu3	0.174200	0.348400	0.273050
Cu41	Cu4	0.318270	0.159140	0.606380
Cu51	Cu5	0.984940	0.492470	0.939710
Cu61	Cu6	0.651600	0.825800	0.273050
Cu71	Cu7	0.840860	0.159140	0.606380
Cu81	Cu8	0.507530	0.492470	0.939710
Cu91	Cu9	0.174200	0.825800	0.273050
Cu101	Cu10	0.681730	0.840860	0.393620
Cu111	Cu11	0.348400	0.174200	0.726950
Cu121	Cu12	0.015060	0.507530	0.060290
Cu131	Cu13	0.159140	0.318270	0.393620
Cu141	Cu14	0.825800	0.651600	0.726950
Cu151	Cu15	0.492470	0.984940	0.060290
Cu161	Cu16	0.159140	0.840870	0.393620
Cu171	Cu17	0.825800	0.174200	0.726950
Cu181	Cu18	0.492470	0.507530	0.060290
O731	O73	0.570920	0.429080	0.617000
C3251	C325	0.510730	0.489270	0.515500
C3261	C326	0.550660	0.449340	0.583900
C3271	C327	0.590310	0.409690	0.572100
C3281	C328	0.609940	0.390060	0.625300
H2531	H253	0.624000	0.376000	0.602100
O741	O74	0.237590	0.762410	0.950330
C3291	C329	0.177400	0.822600	0.848830
C3301	C330	0.217330	0.782670	0.917230
C3311	C331	0.256980	0.743020	0.905430
C3321	C332	0.276610	0.723390	0.958630
H2541	H254	0.290670	0.709330	0.935430
O751	O75	0.904250	0.095750	0.283670
C3331	C333	0.844060	0.155940	0.182170
C3341	C334	0.883990	0.116010	0.250570
C3351	C335	0.923640	0.076360	0.238770
C3361	C336	0.943270	0.056730	0.291970
H2551	H255	0.957330	0.042670	0.268770
O761	O76	0.570920	0.141840	0.617000
C3371	C337	0.510730	0.021460	0.515500
C3381	C338	0.550660	0.101320	0.583900
C3391	C339	0.590310	0.180620	0.572100
C3401	C340	0.609940	0.219880	0.625300
H2561	H256	0.624000	0.248000	0.602100
O771	O77	0.237590	0.475170	0.950330
C3411	C341	0.177400	0.354790	0.848830
C3421	C342	0.217330	0.434650	0.917230
C3431	C343	0.256980	0.513950	0.905430
C3441	C344	0.276610	0.553210	0.958630
H2571	H257	0.290670	0.581330	0.935430
O781	O78	0.904250	0.808510	0.283670
C3451	C345	0.844060	0.688130	0.182170
C3461	C346	0.883990	0.767990	0.250570
C3471	C347	0.923640	0.847290	0.238770
C3481	C348	0.943270	0.886550	0.291970
H2581	H258	0.957330	0.914670	0.268770
O791	O79	0.858160	0.429080	0.617000
C3491	C349	0.978540	0.489270	0.515500
C3501	C350	0.898680	0.449340	0.583900
C3511	C351	0.819380	0.409690	0.572100
C3521	C352	0.780120	0.390060	0.625300
H2591	H259	0.752000	0.376000	0.602100
O801	O80	0.524830	0.762410	0.950330
C3531	C353	0.645210	0.822600	0.848830
C3541	C354	0.565350	0.782670	0.917230
C3551	C355	0.486050	0.743020	0.905430
C3561	C356	0.446790	0.723390	0.958630
H2601	H260	0.418670	0.709330	0.935430
O811	O81	0.191490	0.095750	0.283670
C3571	C357	0.311870	0.155940	0.182170
C3581	C358	0.232010	0.116010	0.250570
C3591	C359	0.152710	0.076360	0.238770
C3601	C360	0.113450	0.056730	0.291970
H2611	H261	0.085330	0.042670	0.268770
O821	O82	0.429080	0.570920	0.383000
C3611	C361	0.489270	0.510730	0.484500
C3621	C362	0.449340	0.550660	0.416100
C3631	C363	0.409690	0.590310	0.427900
C3641	C364	0.390060	0.609940	0.374700
H2621	H262	0.376000	0.624000	0.397900
O831	O83	0.095750	0.904250	0.716330
C3651	C365	0.155940	0.844060	0.817830
C3661	C366	0.116010	0.883990	0.749430
C3671	C367	0.076360	0.923640	0.761230
C3681	C368	0.056730	0.943270	0.708030
H2631	H263	0.042670	0.957330	0.731230
O841	O84	0.762410	0.237590	0.049670
C3691	C369	0.822600	0.177400	0.151170
C3701	C370	0.782670	0.217330	0.082770
C3711	C371	0.743020	0.256980	0.094570
C3721	C372	0.723390	0.276610	0.041370
H2641	H264	0.709330	0.290670	0.064570
O851	O85	0.141840	0.570920	0.383000
C3731	C373	0.021460	0.510730	0.484500
C3741	C374	0.101320	0.550660	0.416100
C3751	C375	0.180620	0.590310	0.427900
C3761	C376	0.219880	0.609940	0.374700
H2651	H265	0.248000	0.624000	0.397900
O861	O86	0.808510	0.904250	0.716330
C3771	C377	0.688130	0.844060	0.817830
C3781	C378	0.767990	0.883990	0.749430
C3791	C379	0.847290	0.923640	0.761230
C3801	C380	0.886550	0.943270	0.708030
H2661	H266	0.914670	0.957330	0.731230
O871	O87	0.475170	0.237590	0.049670
C3811	C381	0.354790	0.177400	0.151170
C3821	C382	0.434650	0.217330	0.082770
C3831	C383	0.513950	0.256980	0.094570
C3841	C384	0.553210	0.276610	0.041370
H2671	H267	0.581330	0.290670	0.064570
O881	O88	0.429080	0.858160	0.383000
C3851	C385	0.489270	0.978540	0.484500
C3861	C386	0.449340	0.898680	0.416100
C3871	C387	0.409690	0.819380	0.427900
C3881	C388	0.390060	0.780120	0.374700
H2681	H268	0.376000	0.752000	0.397900
O891	O89	0.095750	0.191490	0.716330
C3891	C389	0.155940	0.311870	0.817830
C3901	C390	0.116010	0.232010	0.749430
C3911	C391	0.076360	0.152710	0.761230
C3921	C392	0.056730	0.113450	0.708030
H2691	H269	0.042670	0.085330	0.731230
O901	O90	0.762410	0.524830	0.049670
C3931	C393	0.822600	0.645210	0.151170
C3941	C394	0.782670	0.565350	0.082770
C3951	C395	0.743020	0.486050	0.094570
C3961	C396	0.723390	0.446790	0.041370
H2701	H270	0.709330	0.418670	0.064570
