data_UMODEH23_clean_PM
_symmetry_space_group_name_H-M	'P1'
_cell_length_a	35.167700
_cell_length_b	35.167700
_cell_length_c	22.034600
_cell_angle_alpha	90.000000
_cell_angle_beta	90.000000
_cell_angle_gamma	120.000000
_symmetry_Int_Tables_number 1

loop_
_symmetry_equiv_pos_as_xyz
'x,y,z'

loop_
_atom_site_label
_atom_site_type_symbol
_atom_site_fract_x
_atom_site_fract_y
_atom_site_fract_z
O11	O1	0.524790	0.553680	0.430790
O21	O2	0.511330	0.567290	0.525540
C11	C1	0.523920	0.578250	0.472620
C21	C2	0.538840	0.624930	0.453860
C31	C3	0.540070	0.654540	0.496440
H11	H1	0.531000	0.645300	0.537000
C41	C4	0.554500	0.697720	0.479810
H21	H2	0.554500	0.717600	0.509100
C51	C5	0.568890	0.712400	0.421430
C61	C6	0.567630	0.682470	0.379180
H31	H3	0.576900	0.691700	0.338700
C71	C7	0.552880	0.639070	0.395810
H41	H4	0.552500	0.619000	0.366600
C81	C8	0.588010	0.759390	0.404280
C91	C9	0.625820	0.779220	0.369880
H51	H5	0.638700	0.762200	0.357900
H61	H6	0.489600	0.721900	0.393700
H71	H7	0.456800	0.751100	0.487900
O31	O3	0.191460	0.887010	0.764120
O41	O4	0.178000	0.900620	0.858870
C101	C10	0.190590	0.911580	0.805950
C111	C11	0.205510	0.958260	0.787190
C121	C12	0.206740	0.987870	0.829770
H81	H8	0.197670	0.978630	0.870330
C131	C13	0.221170	0.031050	0.813140
H91	H9	0.221170	0.050930	0.842430
C141	C14	0.235560	0.045730	0.754760
C151	C15	0.234300	0.015800	0.712510
H101	H10	0.243570	0.025030	0.672030
C161	C16	0.219550	0.972400	0.729140
H111	H11	0.219170	0.952330	0.699930
C171	C17	0.254680	0.092720	0.737610
C181	C18	0.292490	0.112550	0.703210
H121	H12	0.305370	0.095530	0.691230
H131	H13	0.156270	0.055230	0.727030
H141	H14	0.123470	0.084430	0.821230
O51	O5	0.858120	0.220350	0.097460
O61	O6	0.844660	0.233960	0.192210
C191	C19	0.857250	0.244920	0.139290
C201	C20	0.872170	0.291600	0.120530
C211	C21	0.873400	0.321210	0.163110
H151	H15	0.864330	0.311970	0.203670
C221	C22	0.887830	0.364390	0.146480
H161	H16	0.887830	0.384270	0.175770
C231	C23	0.902220	0.379070	0.088100
C241	C24	0.900960	0.349140	0.045850
H171	H17	0.910230	0.358370	0.005370
C251	C25	0.886210	0.305740	0.062480
H181	H18	0.885830	0.285670	0.033270
C261	C26	0.921340	0.426060	0.070950
C271	C27	0.959150	0.445890	0.036550
H191	H19	0.972030	0.428870	0.024570
H201	H20	0.822930	0.388570	0.060370
H211	H21	0.790130	0.417770	0.154570
O71	O7	0.446320	0.971110	0.430790
O81	O8	0.432710	0.944040	0.525540
C281	C28	0.421750	0.945670	0.472620
C291	C29	0.375070	0.913910	0.453860
C301	C30	0.345460	0.885530	0.496440
H221	H22	0.354700	0.885700	0.537000
C311	C31	0.302280	0.856780	0.479810
H231	H23	0.282400	0.836900	0.509100
C321	C32	0.287600	0.856490	0.421430
C331	C33	0.317530	0.885160	0.379180
H241	H24	0.308300	0.885200	0.338700
C341	C34	0.360930	0.913810	0.395810
H251	H25	0.381000	0.933500	0.366600
C351	C35	0.240610	0.828620	0.404280
C361	C36	0.220780	0.846600	0.369880
H261	H26	0.237800	0.876500	0.357900
H271	H27	0.278100	0.767700	0.393700
H281	H28	0.248900	0.705700	0.487900
O91	O9	0.112990	0.304440	0.764120
O101	O10	0.099380	0.277370	0.858870
C371	C37	0.088420	0.279000	0.805950
C381	C38	0.041740	0.247240	0.787190
C391	C39	0.012130	0.218860	0.829770
H291	H29	0.021370	0.219030	0.870330
C401	C40	0.968950	0.190110	0.813140
H301	H30	0.949070	0.170230	0.842430
C411	C41	0.954270	0.189820	0.754760
C421	C42	0.984200	0.218490	0.712510
H311	H31	0.974970	0.218530	0.672030
C431	C43	0.027600	0.247140	0.729140
H321	H32	0.047670	0.266830	0.699930
C441	C44	0.907280	0.161950	0.737610
C451	C45	0.887450	0.179930	0.703210
H331	H33	0.904470	0.209830	0.691230
H341	H34	0.944770	0.101030	0.727030
H351	H35	0.915570	0.039030	0.821230
O111	O11	0.779650	0.637780	0.097460
O121	O12	0.766040	0.610710	0.192210
C461	C46	0.755080	0.612340	0.139290
C471	C47	0.708400	0.580580	0.120530
C481	C48	0.678790	0.552200	0.163110
H361	H36	0.688030	0.552370	0.203670
C491	C49	0.635610	0.523450	0.146480
H371	H37	0.615730	0.503570	0.175770
C501	C50	0.620930	0.523160	0.088100
C511	C51	0.650860	0.551830	0.045850
H381	H38	0.641630	0.551870	0.005370
C521	C52	0.694260	0.580480	0.062480
H391	H39	0.714330	0.600170	0.033270
C531	C53	0.573940	0.495290	0.070950
C541	C54	0.554110	0.513270	0.036550
H401	H40	0.571130	0.543170	0.024570
H411	H41	0.611430	0.434370	0.060370
H421	H42	0.582230	0.372370	0.154570
O131	O13	0.028890	0.475210	0.430790
O141	O14	0.055960	0.488670	0.525540
C551	C55	0.054330	0.476080	0.472620
C561	C56	0.086090	0.461160	0.453860
C571	C57	0.114470	0.459930	0.496440
H431	H43	0.114300	0.469000	0.537000
C581	C58	0.143220	0.445500	0.479810
H441	H44	0.163100	0.445500	0.509100
C591	C59	0.143510	0.431110	0.421430
C601	C60	0.114840	0.432370	0.379180
H451	H45	0.114800	0.423100	0.338700
C611	C61	0.086190	0.447120	0.395810
H461	H46	0.066500	0.447500	0.366600
C621	C62	0.171380	0.411990	0.404280
C631	C63	0.153400	0.374180	0.369880
H471	H47	0.123500	0.361300	0.357900
H481	H48	0.232300	0.510400	0.393700
H491	H49	0.294300	0.543200	0.487900
O151	O15	0.695560	0.808540	0.764120
O161	O16	0.722630	0.822000	0.858870
C641	C64	0.721000	0.809410	0.805950
C651	C65	0.752760	0.794490	0.787190
C661	C66	0.781140	0.793260	0.829770
H501	H50	0.780970	0.802330	0.870330
C671	C67	0.809890	0.778830	0.813140
H511	H51	0.829770	0.778830	0.842430
C681	C68	0.810180	0.764440	0.754760
C691	C69	0.781510	0.765700	0.712510
H521	H52	0.781470	0.756430	0.672030
C701	C70	0.752860	0.780450	0.729140
H531	H53	0.733170	0.780830	0.699930
C711	C71	0.838050	0.745320	0.737610
C721	C72	0.820070	0.707510	0.703210
H541	H54	0.790170	0.694630	0.691230
H551	H55	0.898970	0.843730	0.727030
H561	H56	0.960970	0.876530	0.821230
O171	O17	0.362220	0.141880	0.097460
O181	O18	0.389290	0.155340	0.192210
C731	C73	0.387660	0.142750	0.139290
C741	C74	0.419420	0.127830	0.120530
C751	C75	0.447800	0.126600	0.163110
H571	H57	0.447630	0.135670	0.203670
C761	C76	0.476550	0.112170	0.146480
H581	H58	0.496430	0.112170	0.175770
C771	C77	0.476840	0.097780	0.088100
C781	C78	0.448170	0.099040	0.045850
H591	H59	0.448130	0.089770	0.005370
C791	C79	0.419520	0.113790	0.062480
H601	H60	0.399830	0.114170	0.033270
C801	C80	0.504710	0.078660	0.070950
C811	C81	0.486730	0.040850	0.036550
H611	H61	0.456830	0.027970	0.024570
H621	H62	0.565630	0.177070	0.060370
H631	H63	0.627630	0.209870	0.154570
O191	O19	0.553680	0.524790	0.569210
O201	O20	0.567290	0.511330	0.474460
C821	C82	0.578250	0.523920	0.527380
C831	C83	0.624930	0.538840	0.546140
C841	C84	0.654540	0.540070	0.503560
H641	H64	0.645300	0.531000	0.463000
C851	C85	0.697720	0.554500	0.520190
H651	H65	0.717600	0.554500	0.490900
C861	C86	0.712400	0.568890	0.578570
C871	C87	0.682470	0.567630	0.620820
H661	H66	0.691700	0.576900	0.661300
C881	C88	0.639070	0.552880	0.604190
H671	H67	0.619000	0.552500	0.633400
C891	C89	0.759390	0.588010	0.595720
C901	C90	0.779220	0.625820	0.630120
H681	H68	0.762200	0.638700	0.642100
H691	H69	0.721900	0.489600	0.606300
H701	H70	0.751100	0.456800	0.512100
O211	O21	0.220350	0.858120	0.902540
O221	O22	0.233960	0.844660	0.807790
C911	C91	0.244920	0.857250	0.860710
C921	C92	0.291600	0.872170	0.879470
C931	C93	0.321210	0.873400	0.836890
H711	H71	0.311970	0.864330	0.796330
C941	C94	0.364390	0.887830	0.853520
H721	H72	0.384270	0.887830	0.824230
C951	C95	0.379070	0.902220	0.911900
C961	C96	0.349140	0.900960	0.954150
H731	H73	0.358370	0.910230	0.994630
C971	C97	0.305740	0.886210	0.937520
H741	H74	0.285670	0.885830	0.966730
C981	C98	0.426060	0.921340	0.929050
C991	C99	0.445890	0.959150	0.963450
H751	H75	0.428870	0.972030	0.975430
H761	H76	0.388570	0.822930	0.939630
H771	H77	0.417770	0.790130	0.845430
O231	O23	0.887010	0.191460	0.235880
O241	O24	0.900620	0.178000	0.141130
C1001	C100	0.911580	0.190590	0.194050
C1011	C101	0.958260	0.205510	0.212810
C1021	C102	0.987870	0.206740	0.170230
H781	H78	0.978630	0.197670	0.129670
C1031	C103	0.031050	0.221170	0.186860
H791	H79	0.050930	0.221170	0.157570
C1041	C104	0.045730	0.235560	0.245240
C1051	C105	0.015800	0.234300	0.287490
H801	H80	0.025030	0.243570	0.327970
C1061	C106	0.972400	0.219550	0.270860
H811	H81	0.952330	0.219170	0.300070
C1071	C107	0.092720	0.254680	0.262390
C1081	C108	0.112550	0.292490	0.296790
H821	H82	0.095530	0.305370	0.308770
H831	H83	0.055230	0.156270	0.272970
H841	H84	0.084430	0.123470	0.178770
O251	O25	0.971110	0.446320	0.569210
O261	O26	0.944040	0.432710	0.474460
C1091	C109	0.945670	0.421750	0.527380
C1101	C110	0.913910	0.375070	0.546140
C1111	C111	0.885530	0.345460	0.503560
H851	H85	0.885700	0.354700	0.463000
C1121	C112	0.856780	0.302280	0.520190
H861	H86	0.836900	0.282400	0.490900
C1131	C113	0.856490	0.287600	0.578570
C1141	C114	0.885160	0.317530	0.620820
H871	H87	0.885200	0.308300	0.661300
C1151	C115	0.913810	0.360930	0.604190
H881	H88	0.933500	0.381000	0.633400
C1161	C116	0.828620	0.240610	0.595720
C1171	C117	0.846600	0.220780	0.630120
H891	H89	0.876500	0.237800	0.642100
H901	H90	0.767700	0.278100	0.606300
H911	H91	0.705700	0.248900	0.512100
O271	O27	0.637780	0.779650	0.902540
O281	O28	0.610710	0.766040	0.807790
C1181	C118	0.612340	0.755080	0.860710
C1191	C119	0.580580	0.708400	0.879470
C1201	C120	0.552200	0.678790	0.836890
H921	H92	0.552370	0.688030	0.796330
C1211	C121	0.523450	0.635610	0.853520
H931	H93	0.503570	0.615730	0.824230
C1221	C122	0.523160	0.620930	0.911900
C1231	C123	0.551830	0.650860	0.954150
H941	H94	0.551870	0.641630	0.994630
C1241	C124	0.580480	0.694260	0.937520
H951	H95	0.600170	0.714330	0.966730
C1251	C125	0.495290	0.573940	0.929050
C1261	C126	0.513270	0.554110	0.963450
H961	H96	0.543170	0.571130	0.975430
H971	H97	0.434370	0.611430	0.939630
H981	H98	0.372370	0.582230	0.845430
O291	O29	0.304440	0.112990	0.235880
O301	O30	0.277370	0.099380	0.141130
C1271	C127	0.279000	0.088420	0.194050
C1281	C128	0.247240	0.041740	0.212810
C1291	C129	0.218860	0.012130	0.170230
H991	H99	0.219030	0.021370	0.129670
C1301	C130	0.190110	0.968950	0.186860
H1001	H100	0.170230	0.949070	0.157570
C1311	C131	0.189820	0.954270	0.245240
C1321	C132	0.218490	0.984200	0.287490
H1011	H101	0.218530	0.974970	0.327970
C1331	C133	0.247140	0.027600	0.270860
H1021	H102	0.266830	0.047670	0.300070
C1341	C134	0.161950	0.907280	0.262390
C1351	C135	0.179930	0.887450	0.296790
H1031	H103	0.209830	0.904470	0.308770
H1041	H104	0.101030	0.944770	0.272970
H1051	H105	0.039030	0.915570	0.178770
O311	O31	0.475210	0.028890	0.569210
O321	O32	0.488670	0.055960	0.474460
C1361	C136	0.476080	0.054330	0.527380
C1371	C137	0.461160	0.086090	0.546140
C1381	C138	0.459930	0.114470	0.503560
H1061	H106	0.469000	0.114300	0.463000
C1391	C139	0.445500	0.143220	0.520190
H1071	H107	0.445500	0.163100	0.490900
C1401	C140	0.431110	0.143510	0.578570
C1411	C141	0.432370	0.114840	0.620820
H1081	H108	0.423100	0.114800	0.661300
C1421	C142	0.447120	0.086190	0.604190
H1091	H109	0.447500	0.066500	0.633400
C1431	C143	0.411990	0.171380	0.595720
C1441	C144	0.374180	0.153400	0.630120
H1101	H110	0.361300	0.123500	0.642100
H1111	H111	0.510400	0.232300	0.606300
H1121	H112	0.543200	0.294300	0.512100
O331	O33	0.141880	0.362220	0.902540
O341	O34	0.155340	0.389290	0.807790
C1451	C145	0.142750	0.387660	0.860710
C1461	C146	0.127830	0.419420	0.879470
C1471	C147	0.126600	0.447800	0.836890
H1131	H113	0.135670	0.447630	0.796330
C1481	C148	0.112170	0.476550	0.853520
H1141	H114	0.112170	0.496430	0.824230
C1491	C149	0.097780	0.476840	0.911900
C1501	C150	0.099040	0.448170	0.954150
H1151	H115	0.089770	0.448130	0.994630
C1511	C151	0.113790	0.419520	0.937520
H1161	H116	0.114170	0.399830	0.966730
C1521	C152	0.078660	0.504710	0.929050
C1531	C153	0.040850	0.486730	0.963450
H1171	H117	0.027970	0.456830	0.975430
H1181	H118	0.177070	0.565630	0.939630
H1191	H119	0.209870	0.627630	0.845430
O351	O35	0.808540	0.695560	0.235880
O361	O36	0.822000	0.722630	0.141130
C1541	C154	0.809410	0.721000	0.194050
C1551	C155	0.794490	0.752760	0.212810
C1561	C156	0.793260	0.781140	0.170230
H1201	H120	0.802330	0.780970	0.129670
C1571	C157	0.778830	0.809890	0.186860
H1211	H121	0.778830	0.829770	0.157570
C1581	C158	0.764440	0.810180	0.245240
C1591	C159	0.765700	0.781510	0.287490
H1221	H122	0.756430	0.781470	0.327970
C1601	C160	0.780450	0.752860	0.270860
H1231	H123	0.780830	0.733170	0.300070
C1611	C161	0.745320	0.838050	0.262390
C1621	C162	0.707510	0.820070	0.296790
H1241	H124	0.694630	0.790170	0.308770
H1251	H125	0.843730	0.898970	0.272970
H1261	H126	0.876530	0.960970	0.178770
O371	O37	0.475210	0.446320	0.569210
O381	O38	0.488670	0.432710	0.474460
C1631	C163	0.476080	0.421750	0.527380
C1641	C164	0.461160	0.375070	0.546140
C1651	C165	0.459930	0.345460	0.503560
H1271	H127	0.469000	0.354700	0.463000
C1661	C166	0.445500	0.302280	0.520190
H1281	H128	0.445500	0.282400	0.490900
C1671	C167	0.431110	0.287600	0.578570
C1681	C168	0.432370	0.317530	0.620820
H1291	H129	0.423100	0.308300	0.661300
C1691	C169	0.447120	0.360930	0.604190
H1301	H130	0.447500	0.381000	0.633400
C1701	C170	0.411990	0.240610	0.595720
C1711	C171	0.374180	0.220780	0.630120
H1311	H131	0.361300	0.237800	0.642100
H1321	H132	0.510400	0.278100	0.606300
H1331	H133	0.543200	0.248900	0.512100
O391	O39	0.141880	0.779650	0.902540
O401	O40	0.155340	0.766040	0.807790
C1721	C172	0.142750	0.755080	0.860710
C1731	C173	0.127830	0.708400	0.879470
C1741	C174	0.126600	0.678790	0.836890
H1341	H134	0.135670	0.688030	0.796330
C1751	C175	0.112170	0.635610	0.853520
H1351	H135	0.112170	0.615730	0.824230
C1761	C176	0.097780	0.620930	0.911900
C1771	C177	0.099040	0.650860	0.954150
H1361	H136	0.089770	0.641630	0.994630
C1781	C178	0.113790	0.694260	0.937520
H1371	H137	0.114170	0.714330	0.966730
C1791	C179	0.078660	0.573940	0.929050
C1801	C180	0.040850	0.554110	0.963450
H1381	H138	0.027970	0.571130	0.975430
H1391	H139	0.177070	0.611430	0.939630
H1401	H140	0.209870	0.582230	0.845430
O411	O41	0.808540	0.112990	0.235880
O421	O42	0.822000	0.099380	0.141130
C1811	C181	0.809410	0.088420	0.194050
C1821	C182	0.794490	0.041740	0.212810
C1831	C183	0.793260	0.012130	0.170230
H1411	H141	0.802330	0.021370	0.129670
C1841	C184	0.778830	0.968950	0.186860
H1421	H142	0.778830	0.949070	0.157570
C1851	C185	0.764440	0.954270	0.245240
C1861	C186	0.765700	0.984200	0.287490
H1431	H143	0.756430	0.974970	0.327970
C1871	C187	0.780450	0.027600	0.270860
H1441	H144	0.780830	0.047670	0.300070
C1881	C188	0.745320	0.907280	0.262390
C1891	C189	0.707510	0.887450	0.296790
H1451	H145	0.694630	0.904470	0.308770
H1461	H146	0.843730	0.944770	0.272970
H1471	H147	0.876530	0.915570	0.178770
O431	O43	0.553680	0.028890	0.569210
O441	O44	0.567290	0.055960	0.474460
C1901	C190	0.578250	0.054330	0.527380
C1911	C191	0.624930	0.086090	0.546140
C1921	C192	0.654540	0.114470	0.503560
H1481	H148	0.645300	0.114300	0.463000
C1931	C193	0.697720	0.143220	0.520190
H1491	H149	0.717600	0.163100	0.490900
C1941	C194	0.712400	0.143510	0.578570
C1951	C195	0.682470	0.114840	0.620820
H1501	H150	0.691700	0.114800	0.661300
C1961	C196	0.639070	0.086190	0.604190
H1511	H151	0.619000	0.066500	0.633400
C1971	C197	0.759390	0.171380	0.595720
C1981	C198	0.779220	0.153400	0.630120
H1521	H152	0.762200	0.123500	0.642100
H1531	H153	0.721900	0.232300	0.606300
H1541	H154	0.751100	0.294300	0.512100
O451	O45	0.220350	0.362220	0.902540
O461	O46	0.233960	0.389290	0.807790
C1991	C199	0.244920	0.387660	0.860710
C2001	C200	0.291600	0.419420	0.879470
C2011	C201	0.321210	0.447800	0.836890
H1551	H155	0.311970	0.447630	0.796330
C2021	C202	0.364390	0.476550	0.853520
H1561	H156	0.384270	0.496430	0.824230
C2031	C203	0.379070	0.476840	0.911900
C2041	C204	0.349140	0.448170	0.954150
H1571	H157	0.358370	0.448130	0.994630
C2051	C205	0.305740	0.419520	0.937520
H1581	H158	0.285670	0.399830	0.966730
C2061	C206	0.426060	0.504710	0.929050
C2071	C207	0.445890	0.486730	0.963450
H1591	H159	0.428870	0.456830	0.975430
H1601	H160	0.388570	0.565630	0.939630
H1611	H161	0.417770	0.627630	0.845430
O471	O47	0.887010	0.695560	0.235880
O481	O48	0.900620	0.722630	0.141130
C2081	C208	0.911580	0.721000	0.194050
C2091	C209	0.958260	0.752760	0.212810
C2101	C210	0.987870	0.781140	0.170230
H1621	H162	0.978630	0.780970	0.129670
C2111	C211	0.031050	0.809890	0.186860
H1631	H163	0.050930	0.829770	0.157570
C2121	C212	0.045730	0.810180	0.245240
C2131	C213	0.015800	0.781510	0.287490
H1641	H164	0.025030	0.781470	0.327970
C2141	C214	0.972400	0.752860	0.270860
H1651	H165	0.952330	0.733170	0.300070
C2151	C215	0.092720	0.838050	0.262390
C2161	C216	0.112550	0.820070	0.296790
H1661	H166	0.095530	0.790170	0.308770
H1671	H167	0.055230	0.898970	0.272970
H1681	H168	0.084430	0.960970	0.178770
O491	O49	0.971110	0.524790	0.569210
O501	O50	0.944040	0.511330	0.474460
C2171	C217	0.945670	0.523920	0.527380
C2181	C218	0.913910	0.538840	0.546140
C2191	C219	0.885530	0.540070	0.503560
H1691	H169	0.885700	0.531000	0.463000
C2201	C220	0.856780	0.554500	0.520190
H1701	H170	0.836900	0.554500	0.490900
C2211	C221	0.856490	0.568890	0.578570
C2221	C222	0.885160	0.567630	0.620820
H1711	H171	0.885200	0.576900	0.661300
C2231	C223	0.913810	0.552880	0.604190
H1721	H172	0.933500	0.552500	0.633400
C2241	C224	0.828620	0.588010	0.595720
C2251	C225	0.846600	0.625820	0.630120
H1731	H173	0.876500	0.638700	0.642100
H1741	H174	0.767700	0.489600	0.606300
H1751	H175	0.705700	0.456800	0.512100
O511	O51	0.637780	0.858120	0.902540
O521	O52	0.610710	0.844660	0.807790
C2261	C226	0.612340	0.857250	0.860710
C2271	C227	0.580580	0.872170	0.879470
C2281	C228	0.552200	0.873400	0.836890
H1761	H176	0.552370	0.864330	0.796330
C2291	C229	0.523450	0.887830	0.853520
H1771	H177	0.503570	0.887830	0.824230
C2301	C230	0.523160	0.902220	0.911900
C2311	C231	0.551830	0.900960	0.954150
H1781	H178	0.551870	0.910230	0.994630
C2321	C232	0.580480	0.886210	0.937520
H1791	H179	0.600170	0.885830	0.966730
C2331	C233	0.495290	0.921340	0.929050
C2341	C234	0.513270	0.959150	0.963450
H1801	H180	0.543170	0.972030	0.975430
H1811	H181	0.434370	0.822930	0.939630
H1821	H182	0.372370	0.790130	0.845430
O531	O53	0.304440	0.191460	0.235880
O541	O54	0.277370	0.178000	0.141130
C2351	C235	0.279000	0.190590	0.194050
C2361	C236	0.247240	0.205510	0.212810
C2371	C237	0.218860	0.206740	0.170230
H1831	H183	0.219030	0.197670	0.129670
C2381	C238	0.190110	0.221170	0.186860
H1841	H184	0.170230	0.221170	0.157570
C2391	C239	0.189820	0.235560	0.245240
C2401	C240	0.218490	0.234300	0.287490
H1851	H185	0.218530	0.243570	0.327970
C2411	C241	0.247140	0.219550	0.270860
H1861	H186	0.266830	0.219170	0.300070
C2421	C242	0.161950	0.254680	0.262390
C2431	C243	0.179930	0.292490	0.296790
H1871	H187	0.209830	0.305370	0.308770
H1881	H188	0.101030	0.156270	0.272970
H1891	H189	0.039030	0.123470	0.178770
O551	O55	0.446320	0.475210	0.430790
O561	O56	0.432710	0.488670	0.525540
C2441	C244	0.421750	0.476080	0.472620
C2451	C245	0.375070	0.461160	0.453860
C2461	C246	0.345460	0.459930	0.496440
H1901	H190	0.354700	0.469000	0.537000
C2471	C247	0.302280	0.445500	0.479810
H1911	H191	0.282400	0.445500	0.509100
C2481	C248	0.287600	0.431110	0.421430
C2491	C249	0.317530	0.432370	0.379180
H1921	H192	0.308300	0.423100	0.338700
C2501	C250	0.360930	0.447120	0.395810
H1931	H193	0.381000	0.447500	0.366600
C2511	C251	0.240610	0.411990	0.404280
C2521	C252	0.220780	0.374180	0.369880
H1941	H194	0.237800	0.361300	0.357900
H1951	H195	0.278100	0.510400	0.393700
H1961	H196	0.248900	0.543200	0.487900
O571	O57	0.112990	0.808540	0.764120
O581	O58	0.099380	0.822000	0.858870
C2531	C253	0.088420	0.809410	0.805950
C2541	C254	0.041740	0.794490	0.787190
C2551	C255	0.012130	0.793260	0.829770
H1971	H197	0.021370	0.802330	0.870330
C2561	C256	0.968950	0.778830	0.813140
H1981	H198	0.949070	0.778830	0.842430
C2571	C257	0.954270	0.764440	0.754760
C2581	C258	0.984200	0.765700	0.712510
H1991	H199	0.974970	0.756430	0.672030
C2591	C259	0.027600	0.780450	0.729140
H2001	H200	0.047670	0.780830	0.699930
C2601	C260	0.907280	0.745320	0.737610
C2611	C261	0.887450	0.707510	0.703210
H2011	H201	0.904470	0.694630	0.691230
H2021	H202	0.944770	0.843730	0.727030
H2031	H203	0.915570	0.876530	0.821230
O591	O59	0.779650	0.141880	0.097460
O601	O60	0.766040	0.155340	0.192210
C2621	C262	0.755080	0.142750	0.139290
C2631	C263	0.708400	0.127830	0.120530
C2641	C264	0.678790	0.126600	0.163110
H2041	H204	0.688030	0.135670	0.203670
C2651	C265	0.635610	0.112170	0.146480
H2051	H205	0.615730	0.112170	0.175770
C2661	C266	0.620930	0.097780	0.088100
C2671	C267	0.650860	0.099040	0.045850
H2061	H206	0.641630	0.089770	0.005370
C2681	C268	0.694260	0.113790	0.062480
H2071	H207	0.714330	0.114170	0.033270
C2691	C269	0.573940	0.078660	0.070950
C2701	C270	0.554110	0.040850	0.036550
H2081	H208	0.571130	0.027970	0.024570
H2091	H209	0.611430	0.177070	0.060370
H2101	H210	0.582230	0.209870	0.154570
O611	O61	0.028890	0.553680	0.430790
O621	O62	0.055960	0.567290	0.525540
C2711	C271	0.054330	0.578250	0.472620
C2721	C272	0.086090	0.624930	0.453860
C2731	C273	0.114470	0.654540	0.496440
H2111	H211	0.114300	0.645300	0.537000
C2741	C274	0.143220	0.697720	0.479810
H2121	H212	0.163100	0.717600	0.509100
C2751	C275	0.143510	0.712400	0.421430
C2761	C276	0.114840	0.682470	0.379180
H2131	H213	0.114800	0.691700	0.338700
C2771	C277	0.086190	0.639070	0.395810
H2141	H214	0.066500	0.619000	0.366600
C2781	C278	0.171380	0.759390	0.404280
C2791	C279	0.153400	0.779220	0.369880
H2151	H215	0.123500	0.762200	0.357900
H2161	H216	0.232300	0.721900	0.393700
H2171	H217	0.294300	0.751100	0.487900
O631	O63	0.695560	0.887010	0.764120
O641	O64	0.722630	0.900620	0.858870
C2801	C280	0.721000	0.911580	0.805950
C2811	C281	0.752760	0.958260	0.787190
C2821	C282	0.781140	0.987870	0.829770
H2181	H218	0.780970	0.978630	0.870330
C2831	C283	0.809890	0.031050	0.813140
H2191	H219	0.829770	0.050930	0.842430
C2841	C284	0.810180	0.045730	0.754760
C2851	C285	0.781510	0.015800	0.712510
H2201	H220	0.781470	0.025030	0.672030
C2861	C286	0.752860	0.972400	0.729140
H2211	H221	0.733170	0.952330	0.699930
C2871	C287	0.838050	0.092720	0.737610
C2881	C288	0.820070	0.112550	0.703210
H2221	H222	0.790170	0.095530	0.691230
H2231	H223	0.898970	0.055230	0.727030
H2241	H224	0.960970	0.084430	0.821230
O651	O65	0.362220	0.220350	0.097460
O661	O66	0.389290	0.233960	0.192210
C2891	C289	0.387660	0.244920	0.139290
C2901	C290	0.419420	0.291600	0.120530
C2911	C291	0.447800	0.321210	0.163110
H2251	H225	0.447630	0.311970	0.203670
C2921	C292	0.476550	0.364390	0.146480
H2261	H226	0.496430	0.384270	0.175770
C2931	C293	0.476840	0.379070	0.088100
C2941	C294	0.448170	0.349140	0.045850
H2271	H227	0.448130	0.358370	0.005370
C2951	C295	0.419520	0.305740	0.062480
H2281	H228	0.399830	0.285670	0.033270
C2961	C296	0.504710	0.426060	0.070950
C2971	C297	0.486730	0.445890	0.036550
H2291	H229	0.456830	0.428870	0.024570
H2301	H230	0.565630	0.388570	0.060370
H2311	H231	0.627630	0.417770	0.154570
O671	O67	0.524790	0.971110	0.430790
O681	O68	0.511330	0.944040	0.525540
C2981	C298	0.523920	0.945670	0.472620
C2991	C299	0.538840	0.913910	0.453860
C3001	C300	0.540070	0.885530	0.496440
H2321	H232	0.531000	0.885700	0.537000
C3011	C301	0.554500	0.856780	0.479810
H2331	H233	0.554500	0.836900	0.509100
C3021	C302	0.568890	0.856490	0.421430
C3031	C303	0.567630	0.885160	0.379180
H2341	H234	0.576900	0.885200	0.338700
C3041	C304	0.552880	0.913810	0.395810
H2351	H235	0.552500	0.933500	0.366600
C3051	C305	0.588010	0.828620	0.404280
C3061	C306	0.625820	0.846600	0.369880
H2361	H236	0.638700	0.876500	0.357900
H2371	H237	0.489600	0.767700	0.393700
H2381	H238	0.456800	0.705700	0.487900
O691	O69	0.191460	0.304440	0.764120
O701	O70	0.178000	0.277370	0.858870
C3071	C307	0.190590	0.279000	0.805950
C3081	C308	0.205510	0.247240	0.787190
C3091	C309	0.206740	0.218860	0.829770
H2391	H239	0.197670	0.219030	0.870330
C3101	C310	0.221170	0.190110	0.813140
H2401	H240	0.221170	0.170230	0.842430
C3111	C311	0.235560	0.189820	0.754760
C3121	C312	0.234300	0.218490	0.712510
H2411	H241	0.243570	0.218530	0.672030
C3131	C313	0.219550	0.247140	0.729140
H2421	H242	0.219170	0.266830	0.699930
C3141	C314	0.254680	0.161950	0.737610
C3151	C315	0.292490	0.179930	0.703210
H2431	H243	0.305370	0.209830	0.691230
H2441	H244	0.156270	0.101030	0.727030
H2451	H245	0.123470	0.039030	0.821230
O711	O71	0.858120	0.637780	0.097460
O721	O72	0.844660	0.610710	0.192210
C3161	C316	0.857250	0.612340	0.139290
C3171	C317	0.872170	0.580580	0.120530
C3181	C318	0.873400	0.552200	0.163110
H2461	H246	0.864330	0.552370	0.203670
C3191	C319	0.887830	0.523450	0.146480
H2471	H247	0.887830	0.503570	0.175770
C3201	C320	0.902220	0.523160	0.088100
C3211	C321	0.900960	0.551830	0.045850
H2481	H248	0.910230	0.551870	0.005370
C3221	C322	0.886210	0.580480	0.062480
H2491	H249	0.885830	0.600170	0.033270
C3231	C323	0.921340	0.495290	0.070950
C3241	C324	0.959150	0.513270	0.036550
H2501	H250	0.972030	0.543170	0.024570
H2511	H251	0.822930	0.434370	0.060370
H2521	H252	0.790130	0.372370	0.154570
Cu11	Cu1	0.507870	0.492130	0.444510
Cu21	Cu2	0.174540	0.825460	0.777840
Cu31	Cu3	0.841200	0.158800	0.111180
Cu41	Cu4	0.507870	0.015740	0.444510
Cu51	Cu5	0.174540	0.349070	0.777840
Cu61	Cu6	0.841200	0.682410	0.111180
Cu71	Cu7	0.984260	0.492130	0.444510
Cu81	Cu8	0.650930	0.825460	0.777840
Cu91	Cu9	0.317590	0.158800	0.111180
Cu101	Cu10	0.492130	0.507870	0.555490
Cu111	Cu11	0.158800	0.841200	0.888820
Cu121	Cu12	0.825460	0.174540	0.222160
Cu131	Cu13	0.015740	0.507870	0.555490
Cu141	Cu14	0.682410	0.841200	0.888820
Cu151	Cu15	0.349070	0.174540	0.222160
Cu161	Cu16	0.492130	0.984260	0.555490
Cu171	Cu17	0.158800	0.317590	0.888820
Cu181	Cu18	0.825460	0.650930	0.222160
O731	O73	0.530000	0.765000	0.455220
C3251	C325	0.646040	0.823020	0.351880
C3261	C326	0.568450	0.784230	0.420800
C3271	C327	0.490810	0.745410	0.419900
C3281	C328	0.455000	0.727500	0.462300
H2531	H253	0.427100	0.713550	0.440200
O741	O74	0.196670	0.098330	0.788550
C3291	C329	0.312710	0.156350	0.685210
C3301	C330	0.235120	0.117560	0.754130
C3311	C331	0.157480	0.078740	0.753230
C3321	C332	0.121670	0.060830	0.795630
H2541	H254	0.093770	0.046880	0.773530
O751	O75	0.863330	0.431670	0.121890
C3331	C333	0.979370	0.489690	0.018550
C3341	C334	0.901780	0.450890	0.087470
C3351	C335	0.824140	0.412070	0.086570
C3361	C336	0.788330	0.394170	0.128970
H2551	H255	0.760430	0.380220	0.106870
O761	O76	0.235000	0.765000	0.455220
C3371	C337	0.176980	0.823020	0.351880
C3381	C338	0.215770	0.784230	0.420800
C3391	C339	0.254590	0.745410	0.419900
C3401	C340	0.272500	0.727500	0.462300
H2561	H256	0.286450	0.713550	0.440200
O771	O77	0.901670	0.098330	0.788550
C3411	C341	0.843650	0.156350	0.685210
C3421	C342	0.882440	0.117560	0.754130
C3431	C343	0.921260	0.078740	0.753230
C3441	C344	0.939170	0.060830	0.795630
H2571	H257	0.953120	0.046880	0.773530
O781	O78	0.568330	0.431670	0.121890
C3451	C345	0.510310	0.489690	0.018550
C3461	C346	0.549110	0.450890	0.087470
C3471	C347	0.587930	0.412070	0.086570
C3481	C348	0.605830	0.394170	0.128970
H2581	H258	0.619780	0.380220	0.106870
O791	O79	0.235000	0.470000	0.455220
C3491	C349	0.176980	0.353960	0.351880
C3501	C350	0.215770	0.431550	0.420800
C3511	C351	0.254590	0.509190	0.419900
C3521	C352	0.272500	0.545000	0.462300
H2591	H259	0.286450	0.572900	0.440200
O801	O80	0.901670	0.803330	0.788550
C3531	C353	0.843650	0.687290	0.685210
C3541	C354	0.882440	0.764880	0.754130
C3551	C355	0.921260	0.842520	0.753230
C3561	C356	0.939170	0.878330	0.795630
H2601	H260	0.953120	0.906230	0.773530
O811	O81	0.568330	0.136670	0.121890
C3571	C357	0.510310	0.020630	0.018550
C3581	C358	0.549110	0.098220	0.087470
C3591	C359	0.587930	0.175860	0.086570
C3601	C360	0.605830	0.211670	0.128970
H2611	H261	0.619780	0.239570	0.106870
O821	O82	0.765000	0.530000	0.544780
C3611	C361	0.823020	0.646040	0.648120
C3621	C362	0.784230	0.568450	0.579200
C3631	C363	0.745410	0.490810	0.580100
C3641	C364	0.727500	0.455000	0.537700
H2621	H262	0.713550	0.427100	0.559800
O831	O83	0.431670	0.863330	0.878110
C3651	C365	0.489690	0.979370	0.981450
C3661	C366	0.450890	0.901780	0.912530
C3671	C367	0.412070	0.824140	0.913430
C3681	C368	0.394170	0.788330	0.871030
H2631	H263	0.380220	0.760430	0.893130
O841	O84	0.098330	0.196670	0.211450
C3691	C369	0.156350	0.312710	0.314790
C3701	C370	0.117560	0.235120	0.245870
C3711	C371	0.078740	0.157480	0.246770
C3721	C372	0.060830	0.121670	0.204370
H2641	H264	0.046880	0.093770	0.226470
O851	O85	0.765000	0.235000	0.544780
C3731	C373	0.823020	0.176980	0.648120
C3741	C374	0.784230	0.215770	0.579200
C3751	C375	0.745410	0.254590	0.580100
C3761	C376	0.727500	0.272500	0.537700
H2651	H265	0.713550	0.286450	0.559800
O861	O86	0.431670	0.568330	0.878110
C3771	C377	0.489690	0.510310	0.981450
C3781	C378	0.450890	0.549110	0.912530
C3791	C379	0.412070	0.587930	0.913430
C3801	C380	0.394170	0.605830	0.871030
H2661	H266	0.380220	0.619780	0.893130
O871	O87	0.098330	0.901670	0.211450
C3811	C381	0.156350	0.843650	0.314790
C3821	C382	0.117560	0.882440	0.245870
C3831	C383	0.078740	0.921260	0.246770
C3841	C384	0.060830	0.939170	0.204370
H2671	H267	0.046880	0.953120	0.226470
O881	O88	0.470000	0.235000	0.544780
C3851	C385	0.353960	0.176980	0.648120
C3861	C386	0.431550	0.215770	0.579200
C3871	C387	0.509190	0.254590	0.580100
C3881	C388	0.545000	0.272500	0.537700
H2681	H268	0.572900	0.286450	0.559800
O891	O89	0.136670	0.568330	0.878110
C3891	C389	0.020630	0.510310	0.981450
C3901	C390	0.098220	0.549110	0.912530
C3911	C391	0.175860	0.587930	0.913430
C3921	C392	0.211670	0.605830	0.871030
H2691	H269	0.239570	0.619780	0.893130
O901	O90	0.803330	0.901670	0.211450
C3931	C393	0.687290	0.843650	0.314790
C3941	C394	0.764880	0.882440	0.245870
C3951	C395	0.842520	0.921260	0.246770
C3961	C396	0.878330	0.939170	0.204370
H2701	H270	0.906230	0.953120	0.226470
