data_UMODEH20_clean_PM
_symmetry_space_group_name_H-M	'P1'
_cell_length_a	35.339400
_cell_length_b	35.339400
_cell_length_c	20.070000
_cell_angle_alpha	90.000000
_cell_angle_beta	90.000000
_cell_angle_gamma	120.000000
_symmetry_Int_Tables_number 1

loop_
_symmetry_equiv_pos_as_xyz
'x,y,z'

loop_
_atom_site_label
_atom_site_type_symbol
_atom_site_fract_x
_atom_site_fract_y
_atom_site_fract_z
O11	O1	0.637510	0.779800	0.408790
O21	O2	0.610950	0.766620	0.302770
C11	C1	0.612150	0.755880	0.362650
C21	C2	0.579240	0.709370	0.383200
C31	C3	0.549880	0.680660	0.333400
H11	H1	0.550600	0.690300	0.289000
C41	C4	0.520340	0.638040	0.352660
H21	H2	0.498900	0.619100	0.321700
C51	C5	0.521160	0.622390	0.415500
C61	C6	0.550260	0.651320	0.464950
H31	H3	0.550100	0.641600	0.509100
C71	C7	0.578990	0.694530	0.446020
H41	H4	0.599000	0.714200	0.478000
C81	C8	0.493420	0.575660	0.433400
C91	C9	0.512490	0.555200	0.466900
H51	H5	0.542600	0.571700	0.478100
H61	H6	0.432100	0.613700	0.458000
H71	H7	0.368200	0.586500	0.346100
O31	O3	0.304180	0.113130	0.742120
O41	O4	0.277620	0.099950	0.636100
C101	C10	0.278820	0.089210	0.695980
C111	C11	0.245910	0.042700	0.716530
C121	C12	0.216550	0.013990	0.666730
H81	H8	0.217270	0.023630	0.622330
C131	C13	0.187010	0.971370	0.685990
H91	H9	0.165570	0.952430	0.655030
C141	C14	0.187830	0.955720	0.748830
C151	C15	0.216930	0.984650	0.798280
H101	H10	0.216770	0.974930	0.842430
C161	C16	0.245660	0.027860	0.779350
H111	H11	0.265670	0.047530	0.811330
C171	C17	0.160090	0.908990	0.766730
C181	C18	0.179160	0.888530	0.800230
H121	H12	0.209270	0.905030	0.811430
H131	H13	0.098770	0.947030	0.791330
H141	H14	0.034870	0.919830	0.679430
O51	O5	0.970840	0.446470	0.075460
O61	O6	0.944280	0.433290	0.969440
C191	C19	0.945480	0.422550	0.029320
C201	C20	0.912570	0.376040	0.049870
C211	C21	0.883210	0.347330	0.000070
H151	H15	0.883930	0.356970	0.955670
C221	C22	0.853670	0.304710	0.019330
H161	H16	0.832230	0.285770	0.988370
C231	C23	0.854490	0.289060	0.082170
C241	C24	0.883590	0.317990	0.131620
H171	H17	0.883430	0.308270	0.175770
C251	C25	0.912320	0.361200	0.112690
H181	H18	0.932330	0.380870	0.144670
C261	C26	0.826750	0.242330	0.100070
C271	C27	0.845820	0.221870	0.133570
H191	H19	0.875930	0.238370	0.144770
H201	H20	0.765430	0.280370	0.124670
H211	H21	0.701530	0.253170	0.012770
O71	O7	0.220200	0.857710	0.408790
O81	O8	0.233380	0.844330	0.302770
C281	C28	0.244120	0.856270	0.362650
C291	C29	0.290630	0.869870	0.383200
C301	C30	0.319340	0.869220	0.333400
H221	H22	0.309700	0.860300	0.289000
C311	C31	0.361960	0.882300	0.352660
H231	H23	0.380900	0.879800	0.321700
C321	C32	0.377610	0.898770	0.415500
C331	C33	0.348680	0.898940	0.464950
H241	H24	0.358400	0.908500	0.509100
C341	C34	0.305470	0.884460	0.446020
H251	H25	0.285800	0.884800	0.478000
C351	C35	0.424340	0.917760	0.433400
C361	C36	0.444800	0.957290	0.466900
H261	H26	0.428300	0.970900	0.478100
H271	H27	0.386300	0.818400	0.458000
H281	H28	0.413500	0.781700	0.346100
O91	O9	0.886870	0.191040	0.742120
O101	O10	0.900050	0.177660	0.636100
C371	C37	0.910790	0.189600	0.695980
C381	C38	0.957300	0.203200	0.716530
C391	C39	0.986010	0.202550	0.666730
H291	H29	0.976370	0.193630	0.622330
C401	C40	0.028630	0.215630	0.685990
H301	H30	0.047570	0.213130	0.655030
C411	C41	0.044280	0.232100	0.748830
C421	C42	0.015350	0.232270	0.798280
H311	H31	0.025070	0.241830	0.842430
C431	C43	0.972140	0.217790	0.779350
H321	H32	0.952470	0.218130	0.811330
C441	C44	0.091010	0.251090	0.766730
C451	C45	0.111470	0.290620	0.800230
H331	H33	0.094970	0.304230	0.811430
H341	H34	0.052970	0.151730	0.791330
H351	H35	0.080170	0.115030	0.679430
O111	O11	0.553530	0.524380	0.075460
O121	O12	0.566710	0.511000	0.969440
C461	C46	0.577450	0.522940	0.029320
C471	C47	0.623960	0.536540	0.049870
C481	C48	0.652670	0.535890	0.000070
H361	H36	0.643030	0.526970	0.955670
C491	C49	0.695290	0.548970	0.019330
H371	H37	0.714230	0.546470	0.988370
C501	C50	0.710940	0.565440	0.082170
C511	C51	0.682010	0.565610	0.131620
H381	H38	0.691730	0.575170	0.175770
C521	C52	0.638800	0.551130	0.112690
H391	H39	0.619130	0.551470	0.144670
C531	C53	0.757670	0.584430	0.100070
C541	C54	0.778130	0.623960	0.133570
H401	H40	0.761630	0.637570	0.144770
H411	H41	0.719630	0.485070	0.124670
H421	H42	0.746830	0.448370	0.012770
O131	O13	0.142290	0.362490	0.408790
O141	O14	0.155670	0.389050	0.302770
C551	C55	0.143730	0.387850	0.362650
C561	C56	0.130130	0.420760	0.383200
C571	C57	0.130780	0.450120	0.333400
H431	H43	0.139700	0.449400	0.289000
C581	C58	0.117700	0.479660	0.352660
H441	H44	0.120200	0.501100	0.321700
C591	C59	0.101230	0.478840	0.415500
C601	C60	0.101060	0.449740	0.464950
H451	H45	0.091500	0.449900	0.509100
C611	C61	0.115540	0.421010	0.446020
H461	H46	0.115200	0.401000	0.478000
C621	C62	0.082240	0.506580	0.433400
C631	C63	0.042710	0.487510	0.466900
H471	H47	0.029100	0.457400	0.478100
H481	H48	0.181600	0.567900	0.458000
H491	H49	0.218300	0.631800	0.346100
O151	O15	0.808960	0.695820	0.742120
O161	O16	0.822340	0.722380	0.636100
C641	C64	0.810400	0.721180	0.695980
C651	C65	0.796800	0.754090	0.716530
C661	C66	0.797450	0.783450	0.666730
H501	H50	0.806370	0.782730	0.622330
C671	C67	0.784370	0.812990	0.685990
H511	H51	0.786870	0.834430	0.655030
C681	C68	0.767900	0.812170	0.748830
C691	C69	0.767730	0.783070	0.798280
H521	H52	0.758170	0.783230	0.842430
C701	C70	0.782210	0.754340	0.779350
H531	H53	0.781870	0.734330	0.811330
C711	C71	0.748910	0.839910	0.766730
C721	C72	0.709380	0.820840	0.800230
H541	H54	0.695770	0.790730	0.811430
H551	H55	0.848270	0.901230	0.791330
H561	H56	0.884970	0.965130	0.679430
O171	O17	0.475620	0.029160	0.075460
O181	O18	0.489000	0.055720	0.969440
C731	C73	0.477060	0.054520	0.029320
C741	C74	0.463460	0.087430	0.049870
C751	C75	0.464110	0.116790	0.000070
H571	H57	0.473030	0.116070	0.955670
C761	C76	0.451030	0.146330	0.019330
H581	H58	0.453530	0.167770	0.988370
C771	C77	0.434560	0.145510	0.082170
C781	C78	0.434390	0.116410	0.131620
H591	H59	0.424830	0.116570	0.175770
C791	C79	0.448870	0.087680	0.112690
H601	H60	0.448530	0.067670	0.144670
C801	C80	0.415570	0.173250	0.100070
C811	C81	0.376040	0.154180	0.133570
H611	H61	0.362430	0.124070	0.144770
H621	H62	0.514930	0.234570	0.124670
H631	H63	0.551630	0.298470	0.012770
O191	O19	0.779800	0.637510	0.591210
O201	O20	0.766620	0.610950	0.697230
C821	C82	0.755880	0.612150	0.637350
C831	C83	0.709370	0.579240	0.616800
C841	C84	0.680660	0.549880	0.666600
H641	H64	0.690300	0.550600	0.711000
C851	C85	0.638040	0.520340	0.647340
H651	H65	0.619100	0.498900	0.678300
C861	C86	0.622390	0.521160	0.584500
C871	C87	0.651320	0.550260	0.535050
H661	H66	0.641600	0.550100	0.490900
C881	C88	0.694530	0.578990	0.553980
H671	H67	0.714200	0.599000	0.522000
C891	C89	0.575660	0.493420	0.566600
C901	C90	0.555200	0.512490	0.533100
H681	H68	0.571700	0.542600	0.521900
H691	H69	0.613700	0.432100	0.542000
H701	H70	0.586500	0.368200	0.653900
O211	O21	0.446470	0.970840	0.924540
O221	O22	0.433290	0.944280	0.030560
C911	C91	0.422550	0.945480	0.970680
C921	C92	0.376040	0.912570	0.950130
C931	C93	0.347330	0.883210	0.999930
H711	H71	0.356970	0.883930	0.044330
C941	C94	0.304710	0.853670	0.980670
H721	H72	0.285770	0.832230	0.011630
C951	C95	0.289060	0.854490	0.917830
C961	C96	0.317990	0.883590	0.868380
H731	H73	0.308270	0.883430	0.824230
C971	C97	0.361200	0.912320	0.887310
H741	H74	0.380870	0.932330	0.855330
C981	C98	0.242330	0.826750	0.899930
C991	C99	0.221870	0.845820	0.866430
H751	H75	0.238370	0.875930	0.855230
H761	H76	0.280370	0.765430	0.875330
H771	H77	0.253170	0.701530	0.987230
O231	O23	0.113130	0.304180	0.257880
O241	O24	0.099950	0.277620	0.363900
C1001	C100	0.089210	0.278820	0.304020
C1011	C101	0.042700	0.245910	0.283470
C1021	C102	0.013990	0.216550	0.333270
H781	H78	0.023630	0.217270	0.377670
C1031	C103	0.971370	0.187010	0.314010
H791	H79	0.952430	0.165570	0.344970
C1041	C104	0.955720	0.187830	0.251170
C1051	C105	0.984650	0.216930	0.201720
H801	H80	0.974930	0.216770	0.157570
C1061	C106	0.027860	0.245660	0.220650
H811	H81	0.047530	0.265670	0.188670
C1071	C107	0.908990	0.160090	0.233270
C1081	C108	0.888530	0.179160	0.199770
H821	H82	0.905030	0.209270	0.188570
H831	H83	0.947030	0.098770	0.208670
H841	H84	0.919830	0.034870	0.320570
O251	O25	0.857710	0.220200	0.591210
O261	O26	0.844330	0.233380	0.697230
C1091	C109	0.856270	0.244120	0.637350
C1101	C110	0.869870	0.290630	0.616800
C1111	C111	0.869220	0.319340	0.666600
H851	H85	0.860300	0.309700	0.711000
C1121	C112	0.882300	0.361960	0.647340
H861	H86	0.879800	0.380900	0.678300
C1131	C113	0.898770	0.377610	0.584500
C1141	C114	0.898940	0.348680	0.535050
H871	H87	0.908500	0.358400	0.490900
C1151	C115	0.884460	0.305470	0.553980
H881	H88	0.884800	0.285800	0.522000
C1161	C116	0.917760	0.424340	0.566600
C1171	C117	0.957290	0.444800	0.533100
H891	H89	0.970900	0.428300	0.521900
H901	H90	0.818400	0.386300	0.542000
H911	H91	0.781700	0.413500	0.653900
O271	O27	0.524380	0.553530	0.924540
O281	O28	0.511000	0.566710	0.030560
C1181	C118	0.522940	0.577450	0.970680
C1191	C119	0.536540	0.623960	0.950130
C1201	C120	0.535890	0.652670	0.999930
H921	H92	0.526970	0.643030	0.044330
C1211	C121	0.548970	0.695290	0.980670
H931	H93	0.546470	0.714230	0.011630
C1221	C122	0.565440	0.710940	0.917830
C1231	C123	0.565610	0.682010	0.868380
H941	H94	0.575170	0.691730	0.824230
C1241	C124	0.551130	0.638800	0.887310
H951	H95	0.551470	0.619130	0.855330
C1251	C125	0.584430	0.757670	0.899930
C1261	C126	0.623960	0.778130	0.866430
H961	H96	0.637570	0.761630	0.855230
H971	H97	0.485070	0.719630	0.875330
H981	H98	0.448370	0.746830	0.987230
O291	O29	0.191040	0.886870	0.257880
O301	O30	0.177660	0.900050	0.363900
C1271	C127	0.189600	0.910790	0.304020
C1281	C128	0.203200	0.957300	0.283470
C1291	C129	0.202550	0.986010	0.333270
H991	H99	0.193630	0.976370	0.377670
C1301	C130	0.215630	0.028630	0.314010
H1001	H100	0.213130	0.047570	0.344970
C1311	C131	0.232100	0.044280	0.251170
C1321	C132	0.232270	0.015350	0.201720
H1011	H101	0.241830	0.025070	0.157570
C1331	C133	0.217790	0.972140	0.220650
H1021	H102	0.218130	0.952470	0.188670
C1341	C134	0.251090	0.091010	0.233270
C1351	C135	0.290620	0.111470	0.199770
H1031	H103	0.304230	0.094970	0.188570
H1041	H104	0.151730	0.052970	0.208670
H1051	H105	0.115030	0.080170	0.320570
O311	O31	0.362490	0.142290	0.591210
O321	O32	0.389050	0.155670	0.697230
C1361	C136	0.387850	0.143730	0.637350
C1371	C137	0.420760	0.130130	0.616800
C1381	C138	0.450120	0.130780	0.666600
H1061	H106	0.449400	0.139700	0.711000
C1391	C139	0.479660	0.117700	0.647340
H1071	H107	0.501100	0.120200	0.678300
C1401	C140	0.478840	0.101230	0.584500
C1411	C141	0.449740	0.101060	0.535050
H1081	H108	0.449900	0.091500	0.490900
C1421	C142	0.421010	0.115540	0.553980
H1091	H109	0.401000	0.115200	0.522000
C1431	C143	0.506580	0.082240	0.566600
C1441	C144	0.487510	0.042710	0.533100
H1101	H110	0.457400	0.029100	0.521900
H1111	H111	0.567900	0.181600	0.542000
H1121	H112	0.631800	0.218300	0.653900
O331	O33	0.029160	0.475620	0.924540
O341	O34	0.055720	0.489000	0.030560
C1451	C145	0.054520	0.477060	0.970680
C1461	C146	0.087430	0.463460	0.950130
C1471	C147	0.116790	0.464110	0.999930
H1131	H113	0.116070	0.473030	0.044330
C1481	C148	0.146330	0.451030	0.980670
H1141	H114	0.167770	0.453530	0.011630
C1491	C149	0.145510	0.434560	0.917830
C1501	C150	0.116410	0.434390	0.868380
H1151	H115	0.116570	0.424830	0.824230
C1511	C151	0.087680	0.448870	0.887310
H1161	H116	0.067670	0.448530	0.855330
C1521	C152	0.173250	0.415570	0.899930
C1531	C153	0.154180	0.376040	0.866430
H1171	H117	0.124070	0.362430	0.855230
H1181	H118	0.234570	0.514930	0.875330
H1191	H119	0.298470	0.551630	0.987230
O351	O35	0.695820	0.808960	0.257880
O361	O36	0.722380	0.822340	0.363900
C1541	C154	0.721180	0.810400	0.304020
C1551	C155	0.754090	0.796800	0.283470
C1561	C156	0.783450	0.797450	0.333270
H1201	H120	0.782730	0.806370	0.377670
C1571	C157	0.812990	0.784370	0.314010
H1211	H121	0.834430	0.786870	0.344970
C1581	C158	0.812170	0.767900	0.251170
C1591	C159	0.783070	0.767730	0.201720
H1221	H122	0.783230	0.758170	0.157570
C1601	C160	0.754340	0.782210	0.220650
H1231	H123	0.734330	0.781870	0.188670
C1611	C161	0.839910	0.748910	0.233270
C1621	C162	0.820840	0.709380	0.199770
H1241	H124	0.790730	0.695770	0.188570
H1251	H125	0.901230	0.848270	0.208670
H1261	H126	0.965130	0.884970	0.320570
O371	O37	0.362490	0.220200	0.591210
O381	O38	0.389050	0.233380	0.697230
C1631	C163	0.387850	0.244120	0.637350
C1641	C164	0.420760	0.290630	0.616800
C1651	C165	0.450120	0.319340	0.666600
H1271	H127	0.449400	0.309700	0.711000
C1661	C166	0.479660	0.361960	0.647340
H1281	H128	0.501100	0.380900	0.678300
C1671	C167	0.478840	0.377610	0.584500
C1681	C168	0.449740	0.348680	0.535050
H1291	H129	0.449900	0.358400	0.490900
C1691	C169	0.421010	0.305470	0.553980
H1301	H130	0.401000	0.285800	0.522000
C1701	C170	0.506580	0.424340	0.566600
C1711	C171	0.487510	0.444800	0.533100
H1311	H131	0.457400	0.428300	0.521900
H1321	H132	0.567900	0.386300	0.542000
H1331	H133	0.631800	0.413500	0.653900
O391	O39	0.029160	0.553530	0.924540
O401	O40	0.055720	0.566710	0.030560
C1721	C172	0.054520	0.577450	0.970680
C1731	C173	0.087430	0.623960	0.950130
C1741	C174	0.116790	0.652670	0.999930
H1341	H134	0.116070	0.643030	0.044330
C1751	C175	0.146330	0.695290	0.980670
H1351	H135	0.167770	0.714230	0.011630
C1761	C176	0.145510	0.710940	0.917830
C1771	C177	0.116410	0.682010	0.868380
H1361	H136	0.116570	0.691730	0.824230
C1781	C178	0.087680	0.638800	0.887310
H1371	H137	0.067670	0.619130	0.855330
C1791	C179	0.173250	0.757670	0.899930
C1801	C180	0.154180	0.778130	0.866430
H1381	H138	0.124070	0.761630	0.855230
H1391	H139	0.234570	0.719630	0.875330
H1401	H140	0.298470	0.746830	0.987230
O411	O41	0.695820	0.886870	0.257880
O421	O42	0.722380	0.900050	0.363900
C1811	C181	0.721180	0.910790	0.304020
C1821	C182	0.754090	0.957300	0.283470
C1831	C183	0.783450	0.986010	0.333270
H1411	H141	0.782730	0.976370	0.377670
C1841	C184	0.812990	0.028630	0.314010
H1421	H142	0.834430	0.047570	0.344970
C1851	C185	0.812170	0.044280	0.251170
C1861	C186	0.783070	0.015350	0.201720
H1431	H143	0.783230	0.025070	0.157570
C1871	C187	0.754340	0.972140	0.220650
H1441	H144	0.734330	0.952470	0.188670
C1881	C188	0.839910	0.091010	0.233270
C1891	C189	0.820840	0.111470	0.199770
H1451	H145	0.790730	0.094970	0.188570
H1461	H146	0.901230	0.052970	0.208670
H1471	H147	0.965130	0.080170	0.320570
O431	O43	0.779800	0.142290	0.591210
O441	O44	0.766620	0.155670	0.697230
C1901	C190	0.755880	0.143730	0.637350
C1911	C191	0.709370	0.130130	0.616800
C1921	C192	0.680660	0.130780	0.666600
H1481	H148	0.690300	0.139700	0.711000
C1931	C193	0.638040	0.117700	0.647340
H1491	H149	0.619100	0.120200	0.678300
C1941	C194	0.622390	0.101230	0.584500
C1951	C195	0.651320	0.101060	0.535050
H1501	H150	0.641600	0.091500	0.490900
C1961	C196	0.694530	0.115540	0.553980
H1511	H151	0.714200	0.115200	0.522000
C1971	C197	0.575660	0.082240	0.566600
C1981	C198	0.555200	0.042710	0.533100
H1521	H152	0.571700	0.029100	0.521900
H1531	H153	0.613700	0.181600	0.542000
H1541	H154	0.586500	0.218300	0.653900
O451	O45	0.446470	0.475620	0.924540
O461	O46	0.433290	0.489000	0.030560
C1991	C199	0.422550	0.477060	0.970680
C2001	C200	0.376040	0.463460	0.950130
C2011	C201	0.347330	0.464110	0.999930
H1551	H155	0.356970	0.473030	0.044330
C2021	C202	0.304710	0.451030	0.980670
H1561	H156	0.285770	0.453530	0.011630
C2031	C203	0.289060	0.434560	0.917830
C2041	C204	0.317990	0.434390	0.868380
H1571	H157	0.308270	0.424830	0.824230
C2051	C205	0.361200	0.448870	0.887310
H1581	H158	0.380870	0.448530	0.855330
C2061	C206	0.242330	0.415570	0.899930
C2071	C207	0.221870	0.376040	0.866430
H1591	H159	0.238370	0.362430	0.855230
H1601	H160	0.280370	0.514930	0.875330
H1611	H161	0.253170	0.551630	0.987230
O471	O47	0.113130	0.808960	0.257880
O481	O48	0.099950	0.822340	0.363900
C2081	C208	0.089210	0.810400	0.304020
C2091	C209	0.042700	0.796800	0.283470
C2101	C210	0.013990	0.797450	0.333270
H1621	H162	0.023630	0.806370	0.377670
C2111	C211	0.971370	0.784370	0.314010
H1631	H163	0.952430	0.786870	0.344970
C2121	C212	0.955720	0.767900	0.251170
C2131	C213	0.984650	0.767730	0.201720
H1641	H164	0.974930	0.758170	0.157570
C2141	C214	0.027860	0.782210	0.220650
H1651	H165	0.047530	0.781870	0.188670
C2151	C215	0.908990	0.748910	0.233270
C2161	C216	0.888530	0.709380	0.199770
H1661	H166	0.905030	0.695770	0.188570
H1671	H167	0.947030	0.848270	0.208670
H1681	H168	0.919830	0.884970	0.320570
O491	O49	0.857710	0.637510	0.591210
O501	O50	0.844330	0.610950	0.697230
C2171	C217	0.856270	0.612150	0.637350
C2181	C218	0.869870	0.579240	0.616800
C2191	C219	0.869220	0.549880	0.666600
H1691	H169	0.860300	0.550600	0.711000
C2201	C220	0.882300	0.520340	0.647340
H1701	H170	0.879800	0.498900	0.678300
C2211	C221	0.898770	0.521160	0.584500
C2221	C222	0.898940	0.550260	0.535050
H1711	H171	0.908500	0.550100	0.490900
C2231	C223	0.884460	0.578990	0.553980
H1721	H172	0.884800	0.599000	0.522000
C2241	C224	0.917760	0.493420	0.566600
C2251	C225	0.957290	0.512490	0.533100
H1731	H173	0.970900	0.542600	0.521900
H1741	H174	0.818400	0.432100	0.542000
H1751	H175	0.781700	0.368200	0.653900
O511	O51	0.524380	0.970840	0.924540
O521	O52	0.511000	0.944280	0.030560
C2261	C226	0.522940	0.945480	0.970680
C2271	C227	0.536540	0.912570	0.950130
C2281	C228	0.535890	0.883210	0.999930
H1761	H176	0.526970	0.883930	0.044330
C2291	C229	0.548970	0.853670	0.980670
H1771	H177	0.546470	0.832230	0.011630
C2301	C230	0.565440	0.854490	0.917830
C2311	C231	0.565610	0.883590	0.868380
H1781	H178	0.575170	0.883430	0.824230
C2321	C232	0.551130	0.912320	0.887310
H1791	H179	0.551470	0.932330	0.855330
C2331	C233	0.584430	0.826750	0.899930
C2341	C234	0.623960	0.845820	0.866430
H1801	H180	0.637570	0.875930	0.855230
H1811	H181	0.485070	0.765430	0.875330
H1821	H182	0.448370	0.701530	0.987230
O531	O53	0.191040	0.304180	0.257880
O541	O54	0.177660	0.277620	0.363900
C2351	C235	0.189600	0.278820	0.304020
C2361	C236	0.203200	0.245910	0.283470
C2371	C237	0.202550	0.216550	0.333270
H1831	H183	0.193630	0.217270	0.377670
C2381	C238	0.215630	0.187010	0.314010
H1841	H184	0.213130	0.165570	0.344970
C2391	C239	0.232100	0.187830	0.251170
C2401	C240	0.232270	0.216930	0.201720
H1851	H185	0.241830	0.216770	0.157570
C2411	C241	0.217790	0.245660	0.220650
H1861	H186	0.218130	0.265670	0.188670
C2421	C242	0.251090	0.160090	0.233270
C2431	C243	0.290620	0.179160	0.199770
H1871	H187	0.304230	0.209270	0.188570
H1881	H188	0.151730	0.098770	0.208670
H1891	H189	0.115030	0.034870	0.320570
O551	O55	0.220200	0.362490	0.408790
O561	O56	0.233380	0.389050	0.302770
C2441	C244	0.244120	0.387850	0.362650
C2451	C245	0.290630	0.420760	0.383200
C2461	C246	0.319340	0.450120	0.333400
H1901	H190	0.309700	0.449400	0.289000
C2471	C247	0.361960	0.479660	0.352660
H1911	H191	0.380900	0.501100	0.321700
C2481	C248	0.377610	0.478840	0.415500
C2491	C249	0.348680	0.449740	0.464950
H1921	H192	0.358400	0.449900	0.509100
C2501	C250	0.305470	0.421010	0.446020
H1931	H193	0.285800	0.401000	0.478000
C2511	C251	0.424340	0.506580	0.433400
C2521	C252	0.444800	0.487510	0.466900
H1941	H194	0.428300	0.457400	0.478100
H1951	H195	0.386300	0.567900	0.458000
H1961	H196	0.413500	0.631800	0.346100
O571	O57	0.886870	0.695820	0.742120
O581	O58	0.900050	0.722380	0.636100
C2531	C253	0.910790	0.721180	0.695980
C2541	C254	0.957300	0.754090	0.716530
C2551	C255	0.986010	0.783450	0.666730
H1971	H197	0.976370	0.782730	0.622330
C2561	C256	0.028630	0.812990	0.685990
H1981	H198	0.047570	0.834430	0.655030
C2571	C257	0.044280	0.812170	0.748830
C2581	C258	0.015350	0.783070	0.798280
H1991	H199	0.025070	0.783230	0.842430
C2591	C259	0.972140	0.754340	0.779350
H2001	H200	0.952470	0.734330	0.811330
C2601	C260	0.091010	0.839910	0.766730
C2611	C261	0.111470	0.820840	0.800230
H2011	H201	0.094970	0.790730	0.811430
H2021	H202	0.052970	0.901230	0.791330
H2031	H203	0.080170	0.965130	0.679430
O591	O59	0.553530	0.029160	0.075460
O601	O60	0.566710	0.055720	0.969440
C2621	C262	0.577450	0.054520	0.029320
C2631	C263	0.623960	0.087430	0.049870
C2641	C264	0.652670	0.116790	0.000070
H2041	H204	0.643030	0.116070	0.955670
C2651	C265	0.695290	0.146330	0.019330
H2051	H205	0.714230	0.167770	0.988370
C2661	C266	0.710940	0.145510	0.082170
C2671	C267	0.682010	0.116410	0.131620
H2061	H206	0.691730	0.116570	0.175770
C2681	C268	0.638800	0.087680	0.112690
H2071	H207	0.619130	0.067670	0.144670
C2691	C269	0.757670	0.173250	0.100070
C2701	C270	0.778130	0.154180	0.133570
H2081	H208	0.761630	0.124070	0.144770
H2091	H209	0.719630	0.234570	0.124670
H2101	H210	0.746830	0.298470	0.012770
O611	O61	0.142290	0.779800	0.408790
O621	O62	0.155670	0.766620	0.302770
C2711	C271	0.143730	0.755880	0.362650
C2721	C272	0.130130	0.709370	0.383200
C2731	C273	0.130780	0.680660	0.333400
H2111	H211	0.139700	0.690300	0.289000
C2741	C274	0.117700	0.638040	0.352660
H2121	H212	0.120200	0.619100	0.321700
C2751	C275	0.101230	0.622390	0.415500
C2761	C276	0.101060	0.651320	0.464950
H2131	H213	0.091500	0.641600	0.509100
C2771	C277	0.115540	0.694530	0.446020
H2141	H214	0.115200	0.714200	0.478000
C2781	C278	0.082240	0.575660	0.433400
C2791	C279	0.042710	0.555200	0.466900
H2151	H215	0.029100	0.571700	0.478100
H2161	H216	0.181600	0.613700	0.458000
H2171	H217	0.218300	0.586500	0.346100
O631	O63	0.808960	0.113130	0.742120
O641	O64	0.822340	0.099950	0.636100
C2801	C280	0.810400	0.089210	0.695980
C2811	C281	0.796800	0.042700	0.716530
C2821	C282	0.797450	0.013990	0.666730
H2181	H218	0.806370	0.023630	0.622330
C2831	C283	0.784370	0.971370	0.685990
H2191	H219	0.786870	0.952430	0.655030
C2841	C284	0.767900	0.955720	0.748830
C2851	C285	0.767730	0.984650	0.798280
H2201	H220	0.758170	0.974930	0.842430
C2861	C286	0.782210	0.027860	0.779350
H2211	H221	0.781870	0.047530	0.811330
C2871	C287	0.748910	0.908990	0.766730
C2881	C288	0.709380	0.888530	0.800230
H2221	H222	0.695770	0.905030	0.811430
H2231	H223	0.848270	0.947030	0.791330
H2241	H224	0.884970	0.919830	0.679430
O651	O65	0.475620	0.446470	0.075460
O661	O66	0.489000	0.433290	0.969440
C2891	C289	0.477060	0.422550	0.029320
C2901	C290	0.463460	0.376040	0.049870
C2911	C291	0.464110	0.347330	0.000070
H2251	H225	0.473030	0.356970	0.955670
C2921	C292	0.451030	0.304710	0.019330
H2261	H226	0.453530	0.285770	0.988370
C2931	C293	0.434560	0.289060	0.082170
C2941	C294	0.434390	0.317990	0.131620
H2271	H227	0.424830	0.308270	0.175770
C2951	C295	0.448870	0.361200	0.112690
H2281	H228	0.448530	0.380870	0.144670
C2961	C296	0.415570	0.242330	0.100070
C2971	C297	0.376040	0.221870	0.133570
H2291	H229	0.362430	0.238370	0.144770
H2301	H230	0.514930	0.280370	0.124670
H2311	H231	0.551630	0.253170	0.012770
O671	O67	0.637510	0.857710	0.408790
O681	O68	0.610950	0.844330	0.302770
C2981	C298	0.612150	0.856270	0.362650
C2991	C299	0.579240	0.869870	0.383200
C3001	C300	0.549880	0.869220	0.333400
H2321	H232	0.550600	0.860300	0.289000
C3011	C301	0.520340	0.882300	0.352660
H2331	H233	0.498900	0.879800	0.321700
C3021	C302	0.521160	0.898770	0.415500
C3031	C303	0.550260	0.898940	0.464950
H2341	H234	0.550100	0.908500	0.509100
C3041	C304	0.578990	0.884460	0.446020
H2351	H235	0.599000	0.884800	0.478000
C3051	C305	0.493420	0.917760	0.433400
C3061	C306	0.512490	0.957290	0.466900
H2361	H236	0.542600	0.970900	0.478100
H2371	H237	0.432100	0.818400	0.458000
H2381	H238	0.368200	0.781700	0.346100
O691	O69	0.304180	0.191040	0.742120
O701	O70	0.277620	0.177660	0.636100
C3071	C307	0.278820	0.189600	0.695980
C3081	C308	0.245910	0.203200	0.716530
C3091	C309	0.216550	0.202550	0.666730
H2391	H239	0.217270	0.193630	0.622330
C3101	C310	0.187010	0.215630	0.685990
H2401	H240	0.165570	0.213130	0.655030
C3111	C311	0.187830	0.232100	0.748830
C3121	C312	0.216930	0.232270	0.798280
H2411	H241	0.216770	0.241830	0.842430
C3131	C313	0.245660	0.217790	0.779350
H2421	H242	0.265670	0.218130	0.811330
C3141	C314	0.160090	0.251090	0.766730
C3151	C315	0.179160	0.290620	0.800230
H2431	H243	0.209270	0.304230	0.811430
H2441	H244	0.098770	0.151730	0.791330
H2451	H245	0.034870	0.115030	0.679430
O711	O71	0.970840	0.524380	0.075460
O721	O72	0.944280	0.511000	0.969440
C3161	C316	0.945480	0.522940	0.029320
C3171	C317	0.912570	0.536540	0.049870
C3181	C318	0.883210	0.535890	0.000070
H2461	H246	0.883930	0.526970	0.955670
C3191	C319	0.853670	0.548970	0.019330
H2471	H247	0.832230	0.546470	0.988370
C3201	C320	0.854490	0.565440	0.082170
C3211	C321	0.883590	0.565610	0.131620
H2481	H248	0.883430	0.575170	0.175770
C3221	C322	0.912320	0.551130	0.112690
H2491	H249	0.932330	0.551470	0.144670
C3231	C323	0.826750	0.584430	0.100070
C3241	C324	0.845820	0.623960	0.133570
H2501	H250	0.875930	0.637570	0.144770
H2511	H251	0.765430	0.485070	0.124670
H2521	H252	0.701530	0.448370	0.012770
Cu11	Cu1	0.681700	0.840850	0.394270
Cu21	Cu2	0.348370	0.174180	0.727600
Cu31	Cu3	0.015030	0.507520	0.060940
Cu41	Cu4	0.159150	0.840850	0.394270
Cu51	Cu5	0.825820	0.174180	0.727600
Cu61	Cu6	0.492480	0.507520	0.060940
Cu71	Cu7	0.159150	0.318300	0.394270
Cu81	Cu8	0.825820	0.651630	0.727600
Cu91	Cu9	0.492480	0.984970	0.060940
Cu101	Cu10	0.840850	0.681700	0.605730
Cu111	Cu11	0.507520	0.015030	0.939060
Cu121	Cu12	0.174180	0.348370	0.272400
Cu131	Cu13	0.840850	0.159150	0.605730
Cu141	Cu14	0.507520	0.492480	0.939060
Cu151	Cu15	0.174180	0.825820	0.272400
Cu161	Cu16	0.318300	0.159150	0.605730
Cu171	Cu17	0.984970	0.492480	0.939060
Cu181	Cu18	0.651630	0.825820	0.272400
O731	O73	0.428540	0.571460	0.383300
C3251	C325	0.488930	0.511070	0.484900
C3261	C326	0.449410	0.550590	0.415800
C3271	C327	0.409560	0.590440	0.429600
C3281	C328	0.389700	0.610300	0.374100
H2531	H253	0.375600	0.624400	0.397000
O741	O74	0.095210	0.904790	0.716630
C3291	C329	0.155600	0.844400	0.818230
C3301	C330	0.116080	0.883920	0.749130
C3311	C331	0.076230	0.923770	0.762930
C3321	C332	0.056370	0.943630	0.707430
H2541	H254	0.042270	0.957730	0.730330
O751	O75	0.761870	0.238130	0.049970
C3331	C333	0.822260	0.177740	0.151570
C3341	C334	0.782740	0.217260	0.082470
C3351	C335	0.742890	0.257110	0.096270
C3361	C336	0.723030	0.276970	0.040770
H2551	H255	0.708930	0.291070	0.063670
O761	O76	0.428540	0.857080	0.383300
C3371	C337	0.488930	0.977860	0.484900
C3381	C338	0.449410	0.898820	0.415800
C3391	C339	0.409560	0.819120	0.429600
C3401	C340	0.389700	0.779400	0.374100
H2561	H256	0.375600	0.751200	0.397000
O771	O77	0.095210	0.190410	0.716630
C3411	C341	0.155600	0.311190	0.818230
C3421	C342	0.116080	0.232150	0.749130
C3431	C343	0.076230	0.152450	0.762930
C3441	C344	0.056370	0.112730	0.707430
H2571	H257	0.042270	0.084530	0.730330
O781	O78	0.761870	0.523750	0.049970
C3451	C345	0.822260	0.644530	0.151570
C3461	C346	0.782740	0.565490	0.082470
C3471	C347	0.742890	0.485790	0.096270
C3481	C348	0.723030	0.446070	0.040770
H2581	H258	0.708930	0.417870	0.063670
O791	O79	0.142920	0.571460	0.383300
C3491	C349	0.022140	0.511070	0.484900
C3501	C350	0.101180	0.550590	0.415800
C3511	C351	0.180880	0.590440	0.429600
C3521	C352	0.220600	0.610300	0.374100
H2591	H259	0.248800	0.624400	0.397000
O801	O80	0.809590	0.904790	0.716630
C3531	C353	0.688810	0.844400	0.818230
C3541	C354	0.767850	0.883920	0.749130
C3551	C355	0.847550	0.923770	0.762930
C3561	C356	0.887270	0.943630	0.707430
H2601	H260	0.915470	0.957730	0.730330
O811	O81	0.476250	0.238130	0.049970
C3571	C357	0.355470	0.177740	0.151570
C3581	C358	0.434510	0.217260	0.082470
C3591	C359	0.514210	0.257110	0.096270
C3601	C360	0.553930	0.276970	0.040770
H2611	H261	0.582130	0.291070	0.063670
O821	O82	0.571460	0.428540	0.616700
C3611	C361	0.511070	0.488930	0.515100
C3621	C362	0.550590	0.449410	0.584200
C3631	C363	0.590440	0.409560	0.570400
C3641	C364	0.610300	0.389700	0.625900
H2621	H262	0.624400	0.375600	0.603000
O831	O83	0.238130	0.761870	0.950030
C3651	C365	0.177740	0.822260	0.848430
C3661	C366	0.217260	0.782740	0.917530
C3671	C367	0.257110	0.742890	0.903730
C3681	C368	0.276970	0.723030	0.959230
H2631	H263	0.291070	0.708930	0.936330
O841	O84	0.904790	0.095210	0.283370
C3691	C369	0.844400	0.155600	0.181770
C3701	C370	0.883920	0.116080	0.250870
C3711	C371	0.923770	0.076230	0.237070
C3721	C372	0.943630	0.056370	0.292570
H2641	H264	0.957730	0.042270	0.269670
O851	O85	0.857080	0.428540	0.616700
C3731	C373	0.977860	0.488930	0.515100
C3741	C374	0.898820	0.449410	0.584200
C3751	C375	0.819120	0.409560	0.570400
C3761	C376	0.779400	0.389700	0.625900
H2651	H265	0.751200	0.375600	0.603000
O861	O86	0.523750	0.761870	0.950030
C3771	C377	0.644530	0.822260	0.848430
C3781	C378	0.565490	0.782740	0.917530
C3791	C379	0.485790	0.742890	0.903730
C3801	C380	0.446070	0.723030	0.959230
H2661	H266	0.417870	0.708930	0.936330
O871	O87	0.190410	0.095210	0.283370
C3811	C381	0.311190	0.155600	0.181770
C3821	C382	0.232150	0.116080	0.250870
C3831	C383	0.152450	0.076230	0.237070
C3841	C384	0.112730	0.056370	0.292570
H2671	H267	0.084530	0.042270	0.269670
O881	O88	0.571460	0.142920	0.616700
C3851	C385	0.511070	0.022140	0.515100
C3861	C386	0.550590	0.101180	0.584200
C3871	C387	0.590440	0.180880	0.570400
C3881	C388	0.610300	0.220600	0.625900
H2681	H268	0.624400	0.248800	0.603000
O891	O89	0.238130	0.476250	0.950030
C3891	C389	0.177740	0.355470	0.848430
C3901	C390	0.217260	0.434510	0.917530
C3911	C391	0.257110	0.514210	0.903730
C3921	C392	0.276970	0.553930	0.959230
H2691	H269	0.291070	0.582130	0.936330
O901	O90	0.904790	0.809590	0.283370
C3931	C393	0.844400	0.688810	0.181770
C3941	C394	0.883920	0.767850	0.250870
C3951	C395	0.923770	0.847550	0.237070
C3961	C396	0.943630	0.887270	0.292570
H2701	H270	0.957730	0.915470	0.269670
