data_UMODEH08_clean_PM
_symmetry_space_group_name_H-M	'P1'
_cell_length_a	35.712800
_cell_length_b	35.712800
_cell_length_c	17.661700
_cell_angle_alpha	90.000000
_cell_angle_beta	90.000000
_cell_angle_gamma	120.000000
_symmetry_Int_Tables_number 1

loop_
_symmetry_equiv_pos_as_xyz
'x,y,z'

loop_
_atom_site_label
_atom_site_type_symbol
_atom_site_fract_x
_atom_site_fract_y
_atom_site_fract_z
O11	O1	0.778420	0.144670	0.085270
O21	O2	0.767770	0.154900	0.207100
C11	C1	0.755680	0.145100	0.140000
C21	C2	0.709490	0.131930	0.121700
C31	C3	0.681170	0.128840	0.178300
H11	H1	0.691100	0.136300	0.227800
C41	C4	0.637860	0.114570	0.161600
H21	H2	0.619300	0.113300	0.199800
C51	C5	0.622530	0.102580	0.090100
C61	C6	0.650570	0.105680	0.034000
H31	H3	0.640600	0.097900	0.984600
C71	C7	0.693970	0.120460	0.050800
H41	H4	0.712600	0.122400	0.012100
C81	C8	0.575250	0.082650	0.072400
C91	C9	0.554860	0.043040	0.036700
H51	H5	0.571000	0.029900	0.024800
H61	H6	0.566000	0.175000	0.047200
H71	H7	0.598400	0.240700	0.108400
O31	O3	0.445090	0.478000	0.418600
O41	O4	0.434440	0.488230	0.540430
C101	C10	0.422350	0.478430	0.473330
C111	C11	0.376160	0.465260	0.455030
C121	C12	0.347840	0.462170	0.511630
H81	H8	0.357770	0.469630	0.561130
C131	C13	0.304530	0.447900	0.494930
H91	H9	0.285970	0.446630	0.533130
C141	C14	0.289200	0.435910	0.423430
C151	C15	0.317240	0.439010	0.367330
H101	H10	0.307270	0.431230	0.317930
C161	C16	0.360640	0.453790	0.384130
H111	H11	0.379270	0.455730	0.345430
C171	C17	0.241920	0.415980	0.405730
C181	C18	0.221530	0.376370	0.370030
H121	H12	0.237670	0.363230	0.358130
H131	H13	0.232670	0.508330	0.380530
H141	H14	0.265070	0.574030	0.441730
O51	O5	0.111750	0.811340	0.751940
O61	O6	0.101100	0.821570	0.873770
C191	C19	0.089010	0.811770	0.806670
C201	C20	0.042820	0.798600	0.788370
C211	C21	0.014500	0.795510	0.844970
H151	H15	0.024430	0.802970	0.894470
C221	C22	0.971190	0.781240	0.828270
H161	H16	0.952630	0.779970	0.866470
C231	C23	0.955860	0.769250	0.756770
C241	C24	0.983900	0.772350	0.700670
H171	H17	0.973930	0.764570	0.651270
C251	C25	0.027300	0.787130	0.717470
H181	H18	0.045930	0.789070	0.678770
C261	C26	0.908580	0.749320	0.739070
C271	C27	0.888190	0.709710	0.703370
H191	H19	0.904330	0.696570	0.691470
H201	H20	0.899330	0.841670	0.713870
H211	H21	0.931730	0.907370	0.775070
O71	O7	0.855330	0.633750	0.085270
O81	O8	0.845100	0.612870	0.207100
C281	C28	0.854900	0.610580	0.140000
C291	C29	0.868070	0.577560	0.121700
C301	C30	0.871160	0.552330	0.178300
H221	H22	0.863700	0.554800	0.227800
C311	C31	0.885430	0.523290	0.161600
H231	H23	0.886700	0.506000	0.199800
C321	C32	0.897420	0.519950	0.090100
C331	C33	0.894320	0.544890	0.034000
H241	H24	0.902100	0.542700	0.984600
C341	C34	0.879540	0.573510	0.050800
H251	H25	0.877600	0.590200	0.012100
C351	C35	0.917350	0.492600	0.072400
C361	C36	0.956960	0.511820	0.036700
H261	H26	0.970100	0.541100	0.024800
H271	H27	0.825000	0.391000	0.047200
H281	H28	0.759300	0.357700	0.108400
O91	O9	0.522000	0.967080	0.418600
O101	O10	0.511770	0.946200	0.540430
C371	C37	0.521570	0.943910	0.473330
C381	C38	0.534740	0.910890	0.455030
C391	C39	0.537830	0.885660	0.511630
H291	H29	0.530370	0.888130	0.561130
C401	C40	0.552100	0.856620	0.494930
H301	H30	0.553370	0.839330	0.533130
C411	C41	0.564090	0.853280	0.423430
C421	C42	0.560990	0.878220	0.367330
H311	H31	0.568770	0.876030	0.317930
C431	C43	0.546210	0.906840	0.384130
H321	H32	0.544270	0.923530	0.345430
C441	C44	0.584020	0.825930	0.405730
C451	C45	0.623630	0.845150	0.370030
H331	H33	0.636770	0.874430	0.358130
H341	H34	0.491670	0.724330	0.380530
H351	H35	0.425970	0.691030	0.441730
O111	O11	0.188660	0.300420	0.751940
O121	O12	0.178430	0.279540	0.873770
C461	C46	0.188230	0.277250	0.806670
C471	C47	0.201400	0.244230	0.788370
C481	C48	0.204490	0.219000	0.844970
H361	H36	0.197030	0.221470	0.894470
C491	C49	0.218760	0.189960	0.828270
H371	H37	0.220030	0.172670	0.866470
C501	C50	0.230750	0.186620	0.756770
C511	C51	0.227650	0.211560	0.700670
H381	H38	0.235430	0.209370	0.651270
C521	C52	0.212870	0.240180	0.717470
H391	H39	0.210930	0.256870	0.678770
C531	C53	0.250680	0.159270	0.739070
C541	C54	0.290290	0.178490	0.703370
H401	H40	0.303430	0.207770	0.691470
H411	H41	0.158330	0.057670	0.713870
H421	H42	0.092630	0.024370	0.775070
O131	O13	0.366250	0.221580	0.085270
O141	O14	0.387130	0.232230	0.207100
C551	C55	0.389420	0.244320	0.140000
C561	C56	0.422440	0.290510	0.121700
C571	C57	0.447670	0.318830	0.178300
H431	H43	0.445200	0.308900	0.227800
C581	C58	0.476710	0.362140	0.161600
H441	H44	0.494000	0.380700	0.199800
C591	C59	0.480050	0.377470	0.090100
C601	C60	0.455110	0.349430	0.034000
H451	H45	0.457300	0.359400	0.984600
C611	C61	0.426490	0.306030	0.050800
H461	H46	0.409800	0.287400	0.012100
C621	C62	0.507400	0.424750	0.072400
C631	C63	0.488180	0.445140	0.036700
H471	H47	0.458900	0.429000	0.024800
H481	H48	0.609000	0.434000	0.047200
H491	H49	0.642300	0.401600	0.108400
O151	O15	0.032920	0.554910	0.418600
O161	O16	0.053800	0.565560	0.540430
C641	C64	0.056090	0.577650	0.473330
C651	C65	0.089110	0.623840	0.455030
C661	C66	0.114340	0.652160	0.511630
H501	H50	0.111870	0.642230	0.561130
C671	C67	0.143380	0.695470	0.494930
H511	H51	0.160670	0.714030	0.533130
C681	C68	0.146720	0.710800	0.423430
C691	C69	0.121780	0.682760	0.367330
H521	H52	0.123970	0.692730	0.317930
C701	C70	0.093160	0.639360	0.384130
H531	H53	0.076470	0.620730	0.345430
C711	C71	0.174070	0.758080	0.405730
C721	C72	0.154850	0.778470	0.370030
H541	H54	0.125570	0.762330	0.358130
H551	H55	0.275670	0.767330	0.380530
H561	H56	0.308970	0.734930	0.441730
O171	O17	0.699580	0.888250	0.751940
O181	O18	0.720460	0.898900	0.873770
C731	C73	0.722750	0.910990	0.806670
C741	C74	0.755770	0.957180	0.788370
C751	C75	0.781000	0.985500	0.844970
H571	H57	0.778530	0.975570	0.894470
C761	C76	0.810040	0.028810	0.828270
H581	H58	0.827330	0.047370	0.866470
C771	C77	0.813380	0.044140	0.756770
C781	C78	0.788440	0.016100	0.700670
H591	H59	0.790630	0.026070	0.651270
C791	C79	0.759820	0.972700	0.717470
H601	H60	0.743130	0.954070	0.678770
C801	C80	0.840730	0.091420	0.739070
C811	C81	0.821510	0.111810	0.703370
H611	H61	0.792230	0.095670	0.691470
H621	H62	0.942330	0.100670	0.713870
H631	H63	0.975630	0.068270	0.775070
O191	O19	0.144670	0.778420	0.914730
O201	O20	0.154900	0.767770	0.792900
C821	C82	0.145100	0.755680	0.860000
C831	C83	0.131930	0.709490	0.878300
C841	C84	0.128840	0.681170	0.821700
H641	H64	0.136300	0.691100	0.772200
C851	C85	0.114570	0.637860	0.838400
H651	H65	0.113300	0.619300	0.800200
C861	C86	0.102580	0.622530	0.909900
C871	C87	0.105680	0.650570	0.966000
H661	H66	0.097900	0.640600	0.015400
C881	C88	0.120460	0.693970	0.949200
H671	H67	0.122400	0.712600	0.987900
C891	C89	0.082650	0.575250	0.927600
C901	C90	0.043040	0.554860	0.963300
H681	H68	0.029900	0.571000	0.975200
H691	H69	0.175000	0.566000	0.952800
H701	H70	0.240700	0.598400	0.891600
O211	O21	0.811340	0.111750	0.248060
O221	O22	0.821570	0.101100	0.126230
C911	C91	0.811770	0.089010	0.193330
C921	C92	0.798600	0.042820	0.211630
C931	C93	0.795510	0.014500	0.155030
H711	H71	0.802970	0.024430	0.105530
C941	C94	0.781240	0.971190	0.171730
H721	H72	0.779970	0.952630	0.133530
C951	C95	0.769250	0.955860	0.243230
C961	C96	0.772350	0.983900	0.299330
H731	H73	0.764570	0.973930	0.348730
C971	C97	0.787130	0.027300	0.282530
H741	H74	0.789070	0.045930	0.321230
C981	C98	0.749320	0.908580	0.260930
C991	C99	0.709710	0.888190	0.296630
H751	H75	0.696570	0.904330	0.308530
H761	H76	0.841670	0.899330	0.286130
H771	H77	0.907370	0.931730	0.224930
O231	O23	0.478000	0.445090	0.581400
O241	O24	0.488230	0.434440	0.459570
C1001	C100	0.478430	0.422350	0.526670
C1011	C101	0.465260	0.376160	0.544970
C1021	C102	0.462170	0.347840	0.488370
H781	H78	0.469630	0.357770	0.438870
C1031	C103	0.447900	0.304530	0.505070
H791	H79	0.446630	0.285970	0.466870
C1041	C104	0.435910	0.289200	0.576570
C1051	C105	0.439010	0.317240	0.632670
H801	H80	0.431230	0.307270	0.682070
C1061	C106	0.453790	0.360640	0.615870
H811	H81	0.455730	0.379270	0.654570
C1071	C107	0.415980	0.241920	0.594270
C1081	C108	0.376370	0.221530	0.629970
H821	H82	0.363230	0.237670	0.641870
H831	H83	0.508330	0.232670	0.619470
H841	H84	0.574030	0.265070	0.558270
O251	O25	0.633750	0.855330	0.914730
O261	O26	0.612870	0.845100	0.792900
C1091	C109	0.610580	0.854900	0.860000
C1101	C110	0.577560	0.868070	0.878300
C1111	C111	0.552330	0.871160	0.821700
H851	H85	0.554800	0.863700	0.772200
C1121	C112	0.523290	0.885430	0.838400
H861	H86	0.506000	0.886700	0.800200
C1131	C113	0.519950	0.897420	0.909900
C1141	C114	0.544890	0.894320	0.966000
H871	H87	0.542700	0.902100	0.015400
C1151	C115	0.573510	0.879540	0.949200
H881	H88	0.590200	0.877600	0.987900
C1161	C116	0.492600	0.917350	0.927600
C1171	C117	0.511820	0.956960	0.963300
H891	H89	0.541100	0.970100	0.975200
H901	H90	0.391000	0.825000	0.952800
H911	H91	0.357700	0.759300	0.891600
O271	O27	0.300420	0.188660	0.248060
O281	O28	0.279540	0.178430	0.126230
C1181	C118	0.277250	0.188230	0.193330
C1191	C119	0.244230	0.201400	0.211630
C1201	C120	0.219000	0.204490	0.155030
H921	H92	0.221470	0.197030	0.105530
C1211	C121	0.189960	0.218760	0.171730
H931	H93	0.172670	0.220030	0.133530
C1221	C122	0.186620	0.230750	0.243230
C1231	C123	0.211560	0.227650	0.299330
H941	H94	0.209370	0.235430	0.348730
C1241	C124	0.240180	0.212870	0.282530
H951	H95	0.256870	0.210930	0.321230
C1251	C125	0.159270	0.250680	0.260930
C1261	C126	0.178490	0.290290	0.296630
H961	H96	0.207770	0.303430	0.308530
H971	H97	0.057670	0.158330	0.286130
H981	H98	0.024370	0.092630	0.224930
O291	O29	0.967080	0.522000	0.581400
O301	O30	0.946200	0.511770	0.459570
C1271	C127	0.943910	0.521570	0.526670
C1281	C128	0.910890	0.534740	0.544970
C1291	C129	0.885660	0.537830	0.488370
H991	H99	0.888130	0.530370	0.438870
C1301	C130	0.856620	0.552100	0.505070
H1001	H100	0.839330	0.553370	0.466870
C1311	C131	0.853280	0.564090	0.576570
C1321	C132	0.878220	0.560990	0.632670
H1011	H101	0.876030	0.568770	0.682070
C1331	C133	0.906840	0.546210	0.615870
H1021	H102	0.923530	0.544270	0.654570
C1341	C134	0.825930	0.584020	0.594270
C1351	C135	0.845150	0.623630	0.629970
H1031	H103	0.874430	0.636770	0.641870
H1041	H104	0.724330	0.491670	0.619470
H1051	H105	0.691030	0.425970	0.558270
O311	O31	0.221580	0.366250	0.914730
O321	O32	0.232230	0.387130	0.792900
C1361	C136	0.244320	0.389420	0.860000
C1371	C137	0.290510	0.422440	0.878300
C1381	C138	0.318830	0.447670	0.821700
H1061	H106	0.308900	0.445200	0.772200
C1391	C139	0.362140	0.476710	0.838400
H1071	H107	0.380700	0.494000	0.800200
C1401	C140	0.377470	0.480050	0.909900
C1411	C141	0.349430	0.455110	0.966000
H1081	H108	0.359400	0.457300	0.015400
C1421	C142	0.306030	0.426490	0.949200
H1091	H109	0.287400	0.409800	0.987900
C1431	C143	0.424750	0.507400	0.927600
C1441	C144	0.445140	0.488180	0.963300
H1101	H110	0.429000	0.458900	0.975200
H1111	H111	0.434000	0.609000	0.952800
H1121	H112	0.401600	0.642300	0.891600
O331	O33	0.888250	0.699580	0.248060
O341	O34	0.898900	0.720460	0.126230
C1451	C145	0.910990	0.722750	0.193330
C1461	C146	0.957180	0.755770	0.211630
C1471	C147	0.985500	0.781000	0.155030
H1131	H113	0.975570	0.778530	0.105530
C1481	C148	0.028810	0.810040	0.171730
H1141	H114	0.047370	0.827330	0.133530
C1491	C149	0.044140	0.813380	0.243230
C1501	C150	0.016100	0.788440	0.299330
H1151	H115	0.026070	0.790630	0.348730
C1511	C151	0.972700	0.759820	0.282530
H1161	H116	0.954070	0.743130	0.321230
C1521	C152	0.091420	0.840730	0.260930
C1531	C153	0.111810	0.821510	0.296630
H1171	H117	0.095670	0.792230	0.308530
H1181	H118	0.100670	0.942330	0.286130
H1191	H119	0.068270	0.975630	0.224930
O351	O35	0.554910	0.032920	0.581400
O361	O36	0.565560	0.053800	0.459570
C1541	C154	0.577650	0.056090	0.526670
C1551	C155	0.623840	0.089110	0.544970
C1561	C156	0.652160	0.114340	0.488370
H1201	H120	0.642230	0.111870	0.438870
C1571	C157	0.695470	0.143380	0.505070
H1211	H121	0.714030	0.160670	0.466870
C1581	C158	0.710800	0.146720	0.576570
C1591	C159	0.682760	0.121780	0.632670
H1221	H122	0.692730	0.123970	0.682070
C1601	C160	0.639360	0.093160	0.615870
H1231	H123	0.620730	0.076470	0.654570
C1611	C161	0.758080	0.174070	0.594270
C1621	C162	0.778470	0.154850	0.629970
H1241	H124	0.762330	0.125570	0.641870
H1251	H125	0.767330	0.275670	0.619470
H1261	H126	0.734930	0.308970	0.558270
O371	O37	0.221580	0.855330	0.914730
O381	O38	0.232230	0.845100	0.792900
C1631	C163	0.244320	0.854900	0.860000
C1641	C164	0.290510	0.868070	0.878300
C1651	C165	0.318830	0.871160	0.821700
H1271	H127	0.308900	0.863700	0.772200
C1661	C166	0.362140	0.885430	0.838400
H1281	H128	0.380700	0.886700	0.800200
C1671	C167	0.377470	0.897420	0.909900
C1681	C168	0.349430	0.894320	0.966000
H1291	H129	0.359400	0.902100	0.015400
C1691	C169	0.306030	0.879540	0.949200
H1301	H130	0.287400	0.877600	0.987900
C1701	C170	0.424750	0.917350	0.927600
C1711	C171	0.445140	0.956960	0.963300
H1311	H131	0.429000	0.970100	0.975200
H1321	H132	0.434000	0.825000	0.952800
H1331	H133	0.401600	0.759300	0.891600
O391	O39	0.888250	0.188660	0.248060
O401	O40	0.898900	0.178430	0.126230
C1721	C172	0.910990	0.188230	0.193330
C1731	C173	0.957180	0.201400	0.211630
C1741	C174	0.985500	0.204490	0.155030
H1341	H134	0.975570	0.197030	0.105530
C1751	C175	0.028810	0.218760	0.171730
H1351	H135	0.047370	0.220030	0.133530
C1761	C176	0.044140	0.230750	0.243230
C1771	C177	0.016100	0.227650	0.299330
H1361	H136	0.026070	0.235430	0.348730
C1781	C178	0.972700	0.212870	0.282530
H1371	H137	0.954070	0.210930	0.321230
C1791	C179	0.091420	0.250680	0.260930
C1801	C180	0.111810	0.290290	0.296630
H1381	H138	0.095670	0.303430	0.308530
H1391	H139	0.100670	0.158330	0.286130
H1401	H140	0.068270	0.092630	0.224930
O411	O41	0.554910	0.522000	0.581400
O421	O42	0.565560	0.511770	0.459570
C1811	C181	0.577650	0.521570	0.526670
C1821	C182	0.623840	0.534740	0.544970
C1831	C183	0.652160	0.537830	0.488370
H1411	H141	0.642230	0.530370	0.438870
C1841	C184	0.695470	0.552100	0.505070
H1421	H142	0.714030	0.553370	0.466870
C1851	C185	0.710800	0.564090	0.576570
C1861	C186	0.682760	0.560990	0.632670
H1431	H143	0.692730	0.568770	0.682070
C1871	C187	0.639360	0.546210	0.615870
H1441	H144	0.620730	0.544270	0.654570
C1881	C188	0.758080	0.584020	0.594270
C1891	C189	0.778470	0.623630	0.629970
H1451	H145	0.762330	0.636770	0.641870
H1461	H146	0.767330	0.491670	0.619470
H1471	H147	0.734930	0.425970	0.558270
O431	O43	0.144670	0.366250	0.914730
O441	O44	0.154900	0.387130	0.792900
C1901	C190	0.145100	0.389420	0.860000
C1911	C191	0.131930	0.422440	0.878300
C1921	C192	0.128840	0.447670	0.821700
H1481	H148	0.136300	0.445200	0.772200
C1931	C193	0.114570	0.476710	0.838400
H1491	H149	0.113300	0.494000	0.800200
C1941	C194	0.102580	0.480050	0.909900
C1951	C195	0.105680	0.455110	0.966000
H1501	H150	0.097900	0.457300	0.015400
C1961	C196	0.120460	0.426490	0.949200
H1511	H151	0.122400	0.409800	0.987900
C1971	C197	0.082650	0.507400	0.927600
C1981	C198	0.043040	0.488180	0.963300
H1521	H152	0.029900	0.458900	0.975200
H1531	H153	0.175000	0.609000	0.952800
H1541	H154	0.240700	0.642300	0.891600
O451	O45	0.811340	0.699580	0.248060
O461	O46	0.821570	0.720460	0.126230
C1991	C199	0.811770	0.722750	0.193330
C2001	C200	0.798600	0.755770	0.211630
C2011	C201	0.795510	0.781000	0.155030
H1551	H155	0.802970	0.778530	0.105530
C2021	C202	0.781240	0.810040	0.171730
H1561	H156	0.779970	0.827330	0.133530
C2031	C203	0.769250	0.813380	0.243230
C2041	C204	0.772350	0.788440	0.299330
H1571	H157	0.764570	0.790630	0.348730
C2051	C205	0.787130	0.759820	0.282530
H1581	H158	0.789070	0.743130	0.321230
C2061	C206	0.749320	0.840730	0.260930
C2071	C207	0.709710	0.821510	0.296630
H1591	H159	0.696570	0.792230	0.308530
H1601	H160	0.841670	0.942330	0.286130
H1611	H161	0.907370	0.975630	0.224930
O471	O47	0.478000	0.032920	0.581400
O481	O48	0.488230	0.053800	0.459570
C2081	C208	0.478430	0.056090	0.526670
C2091	C209	0.465260	0.089110	0.544970
C2101	C210	0.462170	0.114340	0.488370
H1621	H162	0.469630	0.111870	0.438870
C2111	C211	0.447900	0.143380	0.505070
H1631	H163	0.446630	0.160670	0.466870
C2121	C212	0.435910	0.146720	0.576570
C2131	C213	0.439010	0.121780	0.632670
H1641	H164	0.431230	0.123970	0.682070
C2141	C214	0.453790	0.093160	0.615870
H1651	H165	0.455730	0.076470	0.654570
C2151	C215	0.415980	0.174070	0.594270
C2161	C216	0.376370	0.154850	0.629970
H1661	H166	0.363230	0.125570	0.641870
H1671	H167	0.508330	0.275670	0.619470
H1681	H168	0.574030	0.308970	0.558270
O491	O49	0.633750	0.778420	0.914730
O501	O50	0.612870	0.767770	0.792900
C2171	C217	0.610580	0.755680	0.860000
C2181	C218	0.577560	0.709490	0.878300
C2191	C219	0.552330	0.681170	0.821700
H1691	H169	0.554800	0.691100	0.772200
C2201	C220	0.523290	0.637860	0.838400
H1701	H170	0.506000	0.619300	0.800200
C2211	C221	0.519950	0.622530	0.909900
C2221	C222	0.544890	0.650570	0.966000
H1711	H171	0.542700	0.640600	0.015400
C2231	C223	0.573510	0.693970	0.949200
H1721	H172	0.590200	0.712600	0.987900
C2241	C224	0.492600	0.575250	0.927600
C2251	C225	0.511820	0.554860	0.963300
H1731	H173	0.541100	0.571000	0.975200
H1741	H174	0.391000	0.566000	0.952800
H1751	H175	0.357700	0.598400	0.891600
O511	O51	0.300420	0.111750	0.248060
O521	O52	0.279540	0.101100	0.126230
C2261	C226	0.277250	0.089010	0.193330
C2271	C227	0.244230	0.042820	0.211630
C2281	C228	0.219000	0.014500	0.155030
H1761	H176	0.221470	0.024430	0.105530
C2291	C229	0.189960	0.971190	0.171730
H1771	H177	0.172670	0.952630	0.133530
C2301	C230	0.186620	0.955860	0.243230
C2311	C231	0.211560	0.983900	0.299330
H1781	H178	0.209370	0.973930	0.348730
C2321	C232	0.240180	0.027300	0.282530
H1791	H179	0.256870	0.045930	0.321230
C2331	C233	0.159270	0.908580	0.260930
C2341	C234	0.178490	0.888190	0.296630
H1801	H180	0.207770	0.904330	0.308530
H1811	H181	0.057670	0.899330	0.286130
H1821	H182	0.024370	0.931730	0.224930
O531	O53	0.967080	0.445090	0.581400
O541	O54	0.946200	0.434440	0.459570
C2351	C235	0.943910	0.422350	0.526670
C2361	C236	0.910890	0.376160	0.544970
C2371	C237	0.885660	0.347840	0.488370
H1831	H183	0.888130	0.357770	0.438870
C2381	C238	0.856620	0.304530	0.505070
H1841	H184	0.839330	0.285970	0.466870
C2391	C239	0.853280	0.289200	0.576570
C2401	C240	0.878220	0.317240	0.632670
H1851	H185	0.876030	0.307270	0.682070
C2411	C241	0.906840	0.360640	0.615870
H1861	H186	0.923530	0.379270	0.654570
C2421	C242	0.825930	0.241920	0.594270
C2431	C243	0.845150	0.221530	0.629970
H1871	H187	0.874430	0.237670	0.641870
H1881	H188	0.724330	0.232670	0.619470
H1891	H189	0.691030	0.265070	0.558270
O551	O55	0.855330	0.221580	0.085270
O561	O56	0.845100	0.232230	0.207100
C2441	C244	0.854900	0.244320	0.140000
C2451	C245	0.868070	0.290510	0.121700
C2461	C246	0.871160	0.318830	0.178300
H1901	H190	0.863700	0.308900	0.227800
C2471	C247	0.885430	0.362140	0.161600
H1911	H191	0.886700	0.380700	0.199800
C2481	C248	0.897420	0.377470	0.090100
C2491	C249	0.894320	0.349430	0.034000
H1921	H192	0.902100	0.359400	0.984600
C2501	C250	0.879540	0.306030	0.050800
H1931	H193	0.877600	0.287400	0.012100
C2511	C251	0.917350	0.424750	0.072400
C2521	C252	0.956960	0.445140	0.036700
H1941	H194	0.970100	0.429000	0.024800
H1951	H195	0.825000	0.434000	0.047200
H1961	H196	0.759300	0.401600	0.108400
O571	O57	0.522000	0.554910	0.418600
O581	O58	0.511770	0.565560	0.540430
C2531	C253	0.521570	0.577650	0.473330
C2541	C254	0.534740	0.623840	0.455030
C2551	C255	0.537830	0.652160	0.511630
H1971	H197	0.530370	0.642230	0.561130
C2561	C256	0.552100	0.695470	0.494930
H1981	H198	0.553370	0.714030	0.533130
C2571	C257	0.564090	0.710800	0.423430
C2581	C258	0.560990	0.682760	0.367330
H1991	H199	0.568770	0.692730	0.317930
C2591	C259	0.546210	0.639360	0.384130
H2001	H200	0.544270	0.620730	0.345430
C2601	C260	0.584020	0.758080	0.405730
C2611	C261	0.623630	0.778470	0.370030
H2011	H201	0.636770	0.762330	0.358130
H2021	H202	0.491670	0.767330	0.380530
H2031	H203	0.425970	0.734930	0.441730
O591	O59	0.188660	0.888250	0.751940
O601	O60	0.178430	0.898900	0.873770
C2621	C262	0.188230	0.910990	0.806670
C2631	C263	0.201400	0.957180	0.788370
C2641	C264	0.204490	0.985500	0.844970
H2041	H204	0.197030	0.975570	0.894470
C2651	C265	0.218760	0.028810	0.828270
H2051	H205	0.220030	0.047370	0.866470
C2661	C266	0.230750	0.044140	0.756770
C2671	C267	0.227650	0.016100	0.700670
H2061	H206	0.235430	0.026070	0.651270
C2681	C268	0.212870	0.972700	0.717470
H2071	H207	0.210930	0.954070	0.678770
C2691	C269	0.250680	0.091420	0.739070
C2701	C270	0.290290	0.111810	0.703370
H2081	H208	0.303430	0.095670	0.691470
H2091	H209	0.158330	0.100670	0.713870
H2101	H210	0.092630	0.068270	0.775070
O611	O61	0.366250	0.144670	0.085270
O621	O62	0.387130	0.154900	0.207100
C2711	C271	0.389420	0.145100	0.140000
C2721	C272	0.422440	0.131930	0.121700
C2731	C273	0.447670	0.128840	0.178300
H2111	H211	0.445200	0.136300	0.227800
C2741	C274	0.476710	0.114570	0.161600
H2121	H212	0.494000	0.113300	0.199800
C2751	C275	0.480050	0.102580	0.090100
C2761	C276	0.455110	0.105680	0.034000
H2131	H213	0.457300	0.097900	0.984600
C2771	C277	0.426490	0.120460	0.050800
H2141	H214	0.409800	0.122400	0.012100
C2781	C278	0.507400	0.082650	0.072400
C2791	C279	0.488180	0.043040	0.036700
H2151	H215	0.458900	0.029900	0.024800
H2161	H216	0.609000	0.175000	0.047200
H2171	H217	0.642300	0.240700	0.108400
O631	O63	0.032920	0.478000	0.418600
O641	O64	0.053800	0.488230	0.540430
C2801	C280	0.056090	0.478430	0.473330
C2811	C281	0.089110	0.465260	0.455030
C2821	C282	0.114340	0.462170	0.511630
H2181	H218	0.111870	0.469630	0.561130
C2831	C283	0.143380	0.447900	0.494930
H2191	H219	0.160670	0.446630	0.533130
C2841	C284	0.146720	0.435910	0.423430
C2851	C285	0.121780	0.439010	0.367330
H2201	H220	0.123970	0.431230	0.317930
C2861	C286	0.093160	0.453790	0.384130
H2211	H221	0.076470	0.455730	0.345430
C2871	C287	0.174070	0.415980	0.405730
C2881	C288	0.154850	0.376370	0.370030
H2221	H222	0.125570	0.363230	0.358130
H2231	H223	0.275670	0.508330	0.380530
H2241	H224	0.308970	0.574030	0.441730
O651	O65	0.699580	0.811340	0.751940
O661	O66	0.720460	0.821570	0.873770
C2891	C289	0.722750	0.811770	0.806670
C2901	C290	0.755770	0.798600	0.788370
C2911	C291	0.781000	0.795510	0.844970
H2251	H225	0.778530	0.802970	0.894470
C2921	C292	0.810040	0.781240	0.828270
H2261	H226	0.827330	0.779970	0.866470
C2931	C293	0.813380	0.769250	0.756770
C2941	C294	0.788440	0.772350	0.700670
H2271	H227	0.790630	0.764570	0.651270
C2951	C295	0.759820	0.787130	0.717470
H2281	H228	0.743130	0.789070	0.678770
C2961	C296	0.840730	0.749320	0.739070
C2971	C297	0.821510	0.709710	0.703370
H2291	H229	0.792230	0.696570	0.691470
H2301	H230	0.942330	0.841670	0.713870
H2311	H231	0.975630	0.907370	0.775070
O671	O67	0.778420	0.633750	0.085270
O681	O68	0.767770	0.612870	0.207100
C2981	C298	0.755680	0.610580	0.140000
C2991	C299	0.709490	0.577560	0.121700
C3001	C300	0.681170	0.552330	0.178300
H2321	H232	0.691100	0.554800	0.227800
C3011	C301	0.637860	0.523290	0.161600
H2331	H233	0.619300	0.506000	0.199800
C3021	C302	0.622530	0.519950	0.090100
C3031	C303	0.650570	0.544890	0.034000
H2341	H234	0.640600	0.542700	0.984600
C3041	C304	0.693970	0.573510	0.050800
H2351	H235	0.712600	0.590200	0.012100
C3051	C305	0.575250	0.492600	0.072400
C3061	C306	0.554860	0.511820	0.036700
H2361	H236	0.571000	0.541100	0.024800
H2371	H237	0.566000	0.391000	0.047200
H2381	H238	0.598400	0.357700	0.108400
O691	O69	0.445090	0.967080	0.418600
O701	O70	0.434440	0.946200	0.540430
C3071	C307	0.422350	0.943910	0.473330
C3081	C308	0.376160	0.910890	0.455030
C3091	C309	0.347840	0.885660	0.511630
H2391	H239	0.357770	0.888130	0.561130
C3101	C310	0.304530	0.856620	0.494930
H2401	H240	0.285970	0.839330	0.533130
C3111	C311	0.289200	0.853280	0.423430
C3121	C312	0.317240	0.878220	0.367330
H2411	H241	0.307270	0.876030	0.317930
C3131	C313	0.360640	0.906840	0.384130
H2421	H242	0.379270	0.923530	0.345430
C3141	C314	0.241920	0.825930	0.405730
C3151	C315	0.221530	0.845150	0.370030
H2431	H243	0.237670	0.874430	0.358130
H2441	H244	0.232670	0.724330	0.380530
H2451	H245	0.265070	0.691030	0.441730
O711	O71	0.111750	0.300420	0.751940
O721	O72	0.101100	0.279540	0.873770
C3161	C316	0.089010	0.277250	0.806670
C3171	C317	0.042820	0.244230	0.788370
C3181	C318	0.014500	0.219000	0.844970
H2461	H246	0.024430	0.221470	0.894470
C3191	C319	0.971190	0.189960	0.828270
H2471	H247	0.952630	0.172670	0.866470
C3201	C320	0.955860	0.186620	0.756770
C3211	C321	0.983900	0.211560	0.700670
H2481	H248	0.973930	0.209370	0.651270
C3221	C322	0.027300	0.240180	0.717470
H2491	H249	0.045930	0.256870	0.678770
C3231	C323	0.908580	0.159270	0.739070
C3241	C324	0.888190	0.178490	0.703370
H2501	H250	0.904330	0.207770	0.691470
H2511	H251	0.899330	0.057670	0.713870
H2521	H252	0.931730	0.024370	0.775070
Cu11	Cu1	0.839420	0.160580	0.095270
Cu21	Cu2	0.506090	0.493910	0.428600
Cu31	Cu3	0.172750	0.827250	0.761940
Cu41	Cu4	0.839420	0.678840	0.095270
Cu51	Cu5	0.506090	0.012170	0.428600
Cu61	Cu6	0.172750	0.345510	0.761940
Cu71	Cu7	0.321160	0.160580	0.095270
Cu81	Cu8	0.987830	0.493910	0.428600
Cu91	Cu9	0.654490	0.827250	0.761940
Cu101	Cu10	0.160580	0.839420	0.904730
Cu111	Cu11	0.827250	0.172750	0.238060
Cu121	Cu12	0.493910	0.506090	0.571400
Cu131	Cu13	0.678840	0.839420	0.904730
Cu141	Cu14	0.345510	0.172750	0.238060
Cu151	Cu15	0.012170	0.506090	0.571400
Cu161	Cu16	0.160580	0.321160	0.904730
Cu171	Cu17	0.827250	0.654490	0.238060
Cu181	Cu18	0.493910	0.987830	0.571400
O731	O73	0.571130	0.142250	0.127500
C3251	C325	0.510850	0.021710	0.017700
C3261	C326	0.551380	0.102760	0.091300
C3271	C327	0.590250	0.180500	0.079300
C3281	C328	0.615450	0.230900	0.082200
H2531	H253	0.621100	0.242200	0.031600
O741	O74	0.237790	0.475580	0.460830
C3291	C329	0.177520	0.355040	0.351030
C3301	C330	0.218050	0.436090	0.424630
C3311	C331	0.256920	0.513830	0.412630
C3321	C332	0.282120	0.564230	0.415530
H2541	H254	0.287770	0.575530	0.364930
O751	O75	0.904460	0.808920	0.794170
C3331	C333	0.844190	0.688380	0.684370
C3341	C334	0.884710	0.769430	0.757970
C3351	C335	0.923580	0.847170	0.745970
C3361	C336	0.948780	0.897570	0.748870
H2551	H255	0.954430	0.908870	0.698270
O761	O76	0.857750	0.428880	0.127500
C3371	C337	0.978290	0.489150	0.017700
C3381	C338	0.897240	0.448620	0.091300
C3391	C339	0.819500	0.409750	0.079300
C3401	C340	0.769100	0.384550	0.082200
H2561	H256	0.757800	0.378900	0.031600
O771	O77	0.524420	0.762210	0.460830
C3411	C341	0.644960	0.822480	0.351030
C3421	C342	0.563910	0.781950	0.424630
C3431	C343	0.486170	0.743080	0.412630
C3441	C344	0.435770	0.717880	0.415530
H2571	H257	0.424470	0.712230	0.364930
O781	O78	0.191080	0.095540	0.794170
C3451	C345	0.311620	0.155810	0.684370
C3461	C346	0.230570	0.115290	0.757970
C3471	C347	0.152830	0.076420	0.745970
C3481	C348	0.102430	0.051220	0.748870
H2581	H258	0.091130	0.045570	0.698270
O791	O79	0.571120	0.428880	0.127500
C3491	C349	0.510850	0.489150	0.017700
C3501	C350	0.551380	0.448620	0.091300
C3511	C351	0.590250	0.409750	0.079300
C3521	C352	0.615450	0.384550	0.082200
H2591	H259	0.621100	0.378900	0.031600
O801	O80	0.237790	0.762210	0.460830
C3531	C353	0.177520	0.822480	0.351030
C3541	C354	0.218050	0.781950	0.424630
C3551	C355	0.256920	0.743080	0.412630
C3561	C356	0.282120	0.717880	0.415530
H2601	H260	0.287770	0.712230	0.364930
O811	O81	0.904460	0.095540	0.794170
C3571	C357	0.844190	0.155810	0.684370
C3581	C358	0.884710	0.115290	0.757970
C3591	C359	0.923580	0.076420	0.745970
C3601	C360	0.948780	0.051220	0.748870
H2611	H261	0.954430	0.045570	0.698270
O821	O82	0.142250	0.571130	0.872500
C3611	C361	0.021710	0.510850	0.982300
C3621	C362	0.102760	0.551380	0.908700
C3631	C363	0.180500	0.590250	0.920700
C3641	C364	0.230900	0.615450	0.917800
H2621	H262	0.242200	0.621100	0.968400
O831	O83	0.808920	0.904460	0.205830
C3651	C365	0.688380	0.844190	0.315630
C3661	C366	0.769430	0.884710	0.242030
C3671	C367	0.847170	0.923580	0.254030
C3681	C368	0.897570	0.948780	0.251130
H2631	H263	0.908870	0.954430	0.301730
O841	O84	0.475580	0.237790	0.539170
C3691	C369	0.355040	0.177520	0.648970
C3701	C370	0.436090	0.218050	0.575370
C3711	C371	0.513830	0.256920	0.587370
C3721	C372	0.564230	0.282120	0.584470
H2641	H264	0.575530	0.287770	0.635070
O851	O85	0.428880	0.857750	0.872500
C3731	C373	0.489150	0.978290	0.982300
C3741	C374	0.448620	0.897240	0.908700
C3751	C375	0.409750	0.819500	0.920700
C3761	C376	0.384550	0.769100	0.917800
H2651	H265	0.378900	0.757800	0.968400
O861	O86	0.095540	0.191080	0.205830
C3771	C377	0.155810	0.311620	0.315630
C3781	C378	0.115290	0.230570	0.242030
C3791	C379	0.076420	0.152830	0.254030
C3801	C380	0.051220	0.102430	0.251130
H2661	H266	0.045570	0.091130	0.301730
O871	O87	0.762210	0.524420	0.539170
C3811	C381	0.822480	0.644960	0.648970
C3821	C382	0.781950	0.563910	0.575370
C3831	C383	0.743080	0.486170	0.587370
C3841	C384	0.717880	0.435770	0.584470
H2671	H267	0.712230	0.424470	0.635070
O881	O88	0.428880	0.571130	0.872500
C3851	C385	0.489150	0.510850	0.982300
C3861	C386	0.448620	0.551380	0.908700
C3871	C387	0.409750	0.590250	0.920700
C3881	C388	0.384550	0.615450	0.917800
H2681	H268	0.378900	0.621100	0.968400
O891	O89	0.095540	0.904460	0.205830
C3891	C389	0.155810	0.844190	0.315630
C3901	C390	0.115290	0.884710	0.242030
C3911	C391	0.076420	0.923580	0.254030
C3921	C392	0.051220	0.948780	0.251130
H2691	H269	0.045570	0.954430	0.301730
O901	O90	0.762210	0.237790	0.539170
C3931	C393	0.822480	0.177520	0.648970
C3941	C394	0.781950	0.218050	0.575370
C3951	C395	0.743080	0.256920	0.587370
C3961	C396	0.717880	0.282120	0.584470
H2701	H270	0.712230	0.287770	0.635070
