data_UMODEH13_clean_PM
_symmetry_space_group_name_H-M	'P1'
_cell_length_a	35.785500
_cell_length_b	35.785500
_cell_length_c	15.058000
_cell_angle_alpha	90.000000
_cell_angle_beta	90.000000
_cell_angle_gamma	120.000000
_symmetry_Int_Tables_number 1

loop_
_symmetry_equiv_pos_as_xyz
'x,y,z'

loop_
_atom_site_label
_atom_site_type_symbol
_atom_site_fract_x
_atom_site_fract_y
_atom_site_fract_z
O11	O1	0.557600	0.038350	0.082300
O21	O2	0.564130	0.050670	0.931900
C11	C1	0.578100	0.056690	0.008900
C21	C2	0.625010	0.089100	0.023600
C31	C3	0.651100	0.110000	0.956700
H11	H1	0.640100	0.105400	0.899200
C41	C4	0.695200	0.139100	0.970900
H21	H2	0.712500	0.154200	0.922900
C51	C5	0.712590	0.145540	0.050900
C61	C6	0.685500	0.127100	0.122400
H31	H3	0.696600	0.133800	0.179700
C71	C7	0.640900	0.097900	0.109800
H41	H4	0.622600	0.085000	0.158000
C81	C8	0.760100	0.172510	0.069400
C91	C9	0.779760	0.154120	0.118700
H51	H5	0.763400	0.125400	0.135700
H61	H6	0.771200	0.272600	0.094800
H71	H7	0.702500	0.253700	0.974900
O31	O3	0.224270	0.371680	0.415630
O41	O4	0.230800	0.384000	0.265230
C101	C10	0.244770	0.390020	0.342230
C111	C11	0.291680	0.422430	0.356930
C121	C12	0.317770	0.443330	0.290030
H81	H8	0.306770	0.438730	0.232530
C131	C13	0.361870	0.472430	0.304230
H91	H9	0.379170	0.487530	0.256230
C141	C14	0.379260	0.478870	0.384230
C151	C15	0.352170	0.460430	0.455730
H101	H10	0.363270	0.467130	0.513030
C161	C16	0.307570	0.431230	0.443130
H111	H11	0.289270	0.418330	0.491330
C171	C17	0.426770	0.505840	0.402730
C181	C18	0.446430	0.487450	0.452030
H121	H12	0.430070	0.458730	0.469030
H131	H13	0.437870	0.605930	0.428130
H141	H14	0.369170	0.587030	0.308230
O51	O5	0.890930	0.705020	0.748970
O61	O6	0.897460	0.717340	0.598570
C191	C19	0.911430	0.723360	0.675570
C201	C20	0.958340	0.755770	0.690270
C211	C21	0.984430	0.776670	0.623370
H151	H15	0.973430	0.772070	0.565870
C221	C22	0.028530	0.805770	0.637570
H161	H16	0.045830	0.820870	0.589570
C231	C23	0.045920	0.812210	0.717570
C241	C24	0.018830	0.793770	0.789070
H171	H17	0.029930	0.800470	0.846370
C251	C25	0.974230	0.764570	0.776470
H181	H18	0.955930	0.751670	0.824670
C261	C26	0.093430	0.839180	0.736070
C271	C27	0.113090	0.820790	0.785370
H191	H19	0.096730	0.792070	0.802370
H201	H20	0.104530	0.939270	0.761470
H211	H21	0.035830	0.920370	0.641570
O71	O7	0.961650	0.519250	0.082300
O81	O8	0.949330	0.513460	0.931900
C281	C28	0.943310	0.521410	0.008900
C291	C29	0.910900	0.535910	0.023600
C301	C30	0.890000	0.541100	0.956700
H221	H22	0.894600	0.534700	0.899200
C311	C31	0.860900	0.556100	0.970900
H231	H23	0.845800	0.558300	0.922900
C321	C32	0.854460	0.567050	0.050900
C331	C33	0.872900	0.558400	0.122400
H241	H24	0.866200	0.562800	0.179700
C341	C34	0.902100	0.543000	0.109800
H251	H25	0.915000	0.537600	0.158000
C351	C35	0.827490	0.587590	0.069400
C361	C36	0.845880	0.625640	0.118700
H261	H26	0.874600	0.638000	0.135700
H271	H27	0.727400	0.498600	0.094800
H281	H28	0.746300	0.448800	0.974900
O91	O9	0.628320	0.852580	0.415630
O101	O10	0.616000	0.846790	0.265230
C371	C37	0.609980	0.854740	0.342230
C381	C38	0.577570	0.869240	0.356930
C391	C39	0.556670	0.874430	0.290030
H291	H29	0.561270	0.868030	0.232530
C401	C40	0.527570	0.889430	0.304230
H301	H30	0.512470	0.891630	0.256230
C411	C41	0.521130	0.900380	0.384230
C421	C42	0.539570	0.891730	0.455730
H311	H31	0.532870	0.896130	0.513030
C431	C43	0.568770	0.876330	0.443130
H321	H32	0.581670	0.870930	0.491330
C441	C44	0.494160	0.920920	0.402730
C451	C45	0.512550	0.958970	0.452030
H331	H33	0.541270	0.971330	0.469030
H341	H34	0.394070	0.831930	0.428130
H351	H35	0.412970	0.782130	0.308230
O111	O11	0.294980	0.185920	0.748970
O121	O12	0.282660	0.180130	0.598570
C461	C46	0.276640	0.188080	0.675570
C471	C47	0.244230	0.202580	0.690270
C481	C48	0.223330	0.207770	0.623370
H361	H36	0.227930	0.201370	0.565870
C491	C49	0.194230	0.222770	0.637570
H371	H37	0.179130	0.224970	0.589570
C501	C50	0.187790	0.233720	0.717570
C511	C51	0.206230	0.225070	0.789070
H381	H38	0.199530	0.229470	0.846370
C521	C52	0.235430	0.209670	0.776470
H391	H39	0.248330	0.204270	0.824670
C531	C53	0.160820	0.254260	0.736070
C541	C54	0.179210	0.292310	0.785370
H401	H40	0.207930	0.304670	0.802370
H411	H41	0.060730	0.165270	0.761470
H421	H42	0.079630	0.115470	0.641570
O131	O13	0.480750	0.442400	0.082300
O141	O14	0.486540	0.435870	0.931900
C551	C55	0.478590	0.421900	0.008900
C561	C56	0.464090	0.374990	0.023600
C571	C57	0.458900	0.348900	0.956700
H431	H43	0.465300	0.359900	0.899200
C581	C58	0.443900	0.304800	0.970900
H441	H44	0.441700	0.287500	0.922900
C591	C59	0.432950	0.287410	0.050900
C601	C60	0.441600	0.314500	0.122400
H451	H45	0.437200	0.303400	0.179700
C611	C61	0.457000	0.359100	0.109800
H461	H46	0.462400	0.377400	0.158000
C621	C62	0.412410	0.239900	0.069400
C631	C63	0.374360	0.220240	0.118700
H471	H47	0.362000	0.236600	0.135700
H481	H48	0.501400	0.228800	0.094800
H491	H49	0.551200	0.297500	0.974900
O151	O15	0.147420	0.775730	0.415630
O161	O16	0.153210	0.769200	0.265230
C641	C64	0.145260	0.755230	0.342230
C651	C65	0.130760	0.708320	0.356930
C661	C66	0.125570	0.682230	0.290030
H501	H50	0.131970	0.693230	0.232530
C671	C67	0.110570	0.638130	0.304230
H511	H51	0.108370	0.620830	0.256230
C681	C68	0.099620	0.620740	0.384230
C691	C69	0.108270	0.647830	0.455730
H521	H52	0.103870	0.636730	0.513030
C701	C70	0.123670	0.692430	0.443130
H531	H53	0.129070	0.710730	0.491330
C711	C71	0.079080	0.573230	0.402730
C721	C72	0.041030	0.553570	0.452030
H541	H54	0.028670	0.569930	0.469030
H551	H55	0.168070	0.562130	0.428130
H561	H56	0.217870	0.630830	0.308230
O171	O17	0.814080	0.109070	0.748970
O181	O18	0.819870	0.102540	0.598570
C731	C73	0.811920	0.088570	0.675570
C741	C74	0.797420	0.041660	0.690270
C751	C75	0.792230	0.015570	0.623370
H571	H57	0.798630	0.026570	0.565870
C761	C76	0.777230	0.971470	0.637570
H581	H58	0.775030	0.954170	0.589570
C771	C77	0.766280	0.954080	0.717570
C781	C78	0.774930	0.981170	0.789070
H591	H59	0.770530	0.970070	0.846370
C791	C79	0.790330	0.025770	0.776470
H601	H60	0.795730	0.044070	0.824670
C801	C80	0.745740	0.906570	0.736070
C811	C81	0.707690	0.886910	0.785370
H611	H61	0.695330	0.903270	0.802370
H621	H62	0.834730	0.895470	0.761470
H631	H63	0.884530	0.964170	0.641570
O191	O19	0.038350	0.557600	0.917700
O201	O20	0.050670	0.564130	0.068100
C821	C82	0.056690	0.578100	0.991100
C831	C83	0.089100	0.625010	0.976400
C841	C84	0.110000	0.651100	0.043300
H641	H64	0.105400	0.640100	0.100800
C851	C85	0.139100	0.695200	0.029100
H651	H65	0.154200	0.712500	0.077100
C861	C86	0.145540	0.712590	0.949100
C871	C87	0.127100	0.685500	0.877600
H661	H66	0.133800	0.696600	0.820300
C881	C88	0.097900	0.640900	0.890200
H671	H67	0.085000	0.622600	0.842000
C891	C89	0.172510	0.760100	0.930600
C901	C90	0.154120	0.779760	0.881300
H681	H68	0.125400	0.763400	0.864300
H691	H69	0.272600	0.771200	0.905200
H701	H70	0.253700	0.702500	0.025100
O211	O21	0.705020	0.890930	0.251030
O221	O22	0.717340	0.897460	0.401430
C911	C91	0.723360	0.911430	0.324430
C921	C92	0.755770	0.958340	0.309730
C931	C93	0.776670	0.984430	0.376630
H711	H71	0.772070	0.973430	0.434130
C941	C94	0.805770	0.028530	0.362430
H721	H72	0.820870	0.045830	0.410430
C951	C95	0.812210	0.045920	0.282430
C961	C96	0.793770	0.018830	0.210930
H731	H73	0.800470	0.029930	0.153630
C971	C97	0.764570	0.974230	0.223530
H741	H74	0.751670	0.955930	0.175330
C981	C98	0.839180	0.093430	0.263930
C991	C99	0.820790	0.113090	0.214630
H751	H75	0.792070	0.096730	0.197630
H761	H76	0.939270	0.104530	0.238530
H771	H77	0.920370	0.035830	0.358430
O231	O23	0.371680	0.224270	0.584370
O241	O24	0.384000	0.230800	0.734770
C1001	C100	0.390020	0.244770	0.657770
C1011	C101	0.422430	0.291680	0.643070
C1021	C102	0.443330	0.317770	0.709970
H781	H78	0.438730	0.306770	0.767470
C1031	C103	0.472430	0.361870	0.695770
H791	H79	0.487530	0.379170	0.743770
C1041	C104	0.478870	0.379260	0.615770
C1051	C105	0.460430	0.352170	0.544270
H801	H80	0.467130	0.363270	0.486970
C1061	C106	0.431230	0.307570	0.556870
H811	H81	0.418330	0.289270	0.508670
C1071	C107	0.505840	0.426770	0.597270
C1081	C108	0.487450	0.446430	0.547970
H821	H82	0.458730	0.430070	0.530970
H831	H83	0.605930	0.437870	0.571870
H841	H84	0.587030	0.369170	0.691770
O251	O25	0.519250	0.961650	0.917700
O261	O26	0.513460	0.949330	0.068100
C1091	C109	0.521410	0.943310	0.991100
C1101	C110	0.535910	0.910900	0.976400
C1111	C111	0.541100	0.890000	0.043300
H851	H85	0.534700	0.894600	0.100800
C1121	C112	0.556100	0.860900	0.029100
H861	H86	0.558300	0.845800	0.077100
C1131	C113	0.567050	0.854460	0.949100
C1141	C114	0.558400	0.872900	0.877600
H871	H87	0.562800	0.866200	0.820300
C1151	C115	0.543000	0.902100	0.890200
H881	H88	0.537600	0.915000	0.842000
C1161	C116	0.587590	0.827490	0.930600
C1171	C117	0.625640	0.845880	0.881300
H891	H89	0.638000	0.874600	0.864300
H901	H90	0.498600	0.727400	0.905200
H911	H91	0.448800	0.746300	0.025100
O271	O27	0.185920	0.294980	0.251030
O281	O28	0.180130	0.282660	0.401430
C1181	C118	0.188080	0.276640	0.324430
C1191	C119	0.202580	0.244230	0.309730
C1201	C120	0.207770	0.223330	0.376630
H921	H92	0.201370	0.227930	0.434130
C1211	C121	0.222770	0.194230	0.362430
H931	H93	0.224970	0.179130	0.410430
C1221	C122	0.233720	0.187790	0.282430
C1231	C123	0.225070	0.206230	0.210930
H941	H94	0.229470	0.199530	0.153630
C1241	C124	0.209670	0.235430	0.223530
H951	H95	0.204270	0.248330	0.175330
C1251	C125	0.254260	0.160820	0.263930
C1261	C126	0.292310	0.179210	0.214630
H961	H96	0.304670	0.207930	0.197630
H971	H97	0.165270	0.060730	0.238530
H981	H98	0.115470	0.079630	0.358430
O291	O29	0.852580	0.628320	0.584370
O301	O30	0.846790	0.616000	0.734770
C1271	C127	0.854740	0.609980	0.657770
C1281	C128	0.869240	0.577570	0.643070
C1291	C129	0.874430	0.556670	0.709970
H991	H99	0.868030	0.561270	0.767470
C1301	C130	0.889430	0.527570	0.695770
H1001	H100	0.891630	0.512470	0.743770
C1311	C131	0.900380	0.521130	0.615770
C1321	C132	0.891730	0.539570	0.544270
H1011	H101	0.896130	0.532870	0.486970
C1331	C133	0.876330	0.568770	0.556870
H1021	H102	0.870930	0.581670	0.508670
C1341	C134	0.920920	0.494160	0.597270
C1351	C135	0.958970	0.512550	0.547970
H1031	H103	0.971330	0.541270	0.530970
H1041	H104	0.831930	0.394070	0.571870
H1051	H105	0.782130	0.412970	0.691770
O311	O31	0.442400	0.480750	0.917700
O321	O32	0.435870	0.486540	0.068100
C1361	C136	0.421900	0.478590	0.991100
C1371	C137	0.374990	0.464090	0.976400
C1381	C138	0.348900	0.458900	0.043300
H1061	H106	0.359900	0.465300	0.100800
C1391	C139	0.304800	0.443900	0.029100
H1071	H107	0.287500	0.441700	0.077100
C1401	C140	0.287410	0.432950	0.949100
C1411	C141	0.314500	0.441600	0.877600
H1081	H108	0.303400	0.437200	0.820300
C1421	C142	0.359100	0.457000	0.890200
H1091	H109	0.377400	0.462400	0.842000
C1431	C143	0.239900	0.412410	0.930600
C1441	C144	0.220240	0.374360	0.881300
H1101	H110	0.236600	0.362000	0.864300
H1111	H111	0.228800	0.501400	0.905200
H1121	H112	0.297500	0.551200	0.025100
O331	O33	0.109070	0.814080	0.251030
O341	O34	0.102540	0.819870	0.401430
C1451	C145	0.088570	0.811920	0.324430
C1461	C146	0.041660	0.797420	0.309730
C1471	C147	0.015570	0.792230	0.376630
H1131	H113	0.026570	0.798630	0.434130
C1481	C148	0.971470	0.777230	0.362430
H1141	H114	0.954170	0.775030	0.410430
C1491	C149	0.954080	0.766280	0.282430
C1501	C150	0.981170	0.774930	0.210930
H1151	H115	0.970070	0.770530	0.153630
C1511	C151	0.025770	0.790330	0.223530
H1161	H116	0.044070	0.795730	0.175330
C1521	C152	0.906570	0.745740	0.263930
C1531	C153	0.886910	0.707690	0.214630
H1171	H117	0.903270	0.695330	0.197630
H1181	H118	0.895470	0.834730	0.238530
H1191	H119	0.964170	0.884530	0.358430
O351	O35	0.775730	0.147420	0.584370
O361	O36	0.769200	0.153210	0.734770
C1541	C154	0.755230	0.145260	0.657770
C1551	C155	0.708320	0.130760	0.643070
C1561	C156	0.682230	0.125570	0.709970
H1201	H120	0.693230	0.131970	0.767470
C1571	C157	0.638130	0.110570	0.695770
H1211	H121	0.620830	0.108370	0.743770
C1581	C158	0.620740	0.099620	0.615770
C1591	C159	0.647830	0.108270	0.544270
H1221	H122	0.636730	0.103870	0.486970
C1601	C160	0.692430	0.123670	0.556870
H1231	H123	0.710730	0.129070	0.508670
C1611	C161	0.573230	0.079080	0.597270
C1621	C162	0.553570	0.041030	0.547970
H1241	H124	0.569930	0.028670	0.530970
H1251	H125	0.562130	0.168070	0.571870
H1261	H126	0.630830	0.217870	0.691770
O371	O37	0.442400	0.961650	0.917700
O381	O38	0.435870	0.949330	0.068100
C1631	C163	0.421900	0.943310	0.991100
C1641	C164	0.374990	0.910900	0.976400
C1651	C165	0.348900	0.890000	0.043300
H1271	H127	0.359900	0.894600	0.100800
C1661	C166	0.304800	0.860900	0.029100
H1281	H128	0.287500	0.845800	0.077100
C1671	C167	0.287410	0.854460	0.949100
C1681	C168	0.314500	0.872900	0.877600
H1291	H129	0.303400	0.866200	0.820300
C1691	C169	0.359100	0.902100	0.890200
H1301	H130	0.377400	0.915000	0.842000
C1701	C170	0.239900	0.827490	0.930600
C1711	C171	0.220240	0.845880	0.881300
H1311	H131	0.236600	0.874600	0.864300
H1321	H132	0.228800	0.727400	0.905200
H1331	H133	0.297500	0.746300	0.025100
O391	O39	0.109070	0.294980	0.251030
O401	O40	0.102540	0.282660	0.401430
C1721	C172	0.088570	0.276640	0.324430
C1731	C173	0.041660	0.244230	0.309730
C1741	C174	0.015570	0.223330	0.376630
H1341	H134	0.026570	0.227930	0.434130
C1751	C175	0.971470	0.194230	0.362430
H1351	H135	0.954170	0.179130	0.410430
C1761	C176	0.954080	0.187790	0.282430
C1771	C177	0.981170	0.206230	0.210930
H1361	H136	0.970070	0.199530	0.153630
C1781	C178	0.025770	0.235430	0.223530
H1371	H137	0.044070	0.248330	0.175330
C1791	C179	0.906570	0.160820	0.263930
C1801	C180	0.886910	0.179210	0.214630
H1381	H138	0.903270	0.207930	0.197630
H1391	H139	0.895470	0.060730	0.238530
H1401	H140	0.964170	0.079630	0.358430
O411	O41	0.775730	0.628320	0.584370
O421	O42	0.769200	0.616000	0.734770
C1811	C181	0.755230	0.609980	0.657770
C1821	C182	0.708320	0.577570	0.643070
C1831	C183	0.682230	0.556670	0.709970
H1411	H141	0.693230	0.561270	0.767470
C1841	C184	0.638130	0.527570	0.695770
H1421	H142	0.620830	0.512470	0.743770
C1851	C185	0.620740	0.521130	0.615770
C1861	C186	0.647830	0.539570	0.544270
H1431	H143	0.636730	0.532870	0.486970
C1871	C187	0.692430	0.568770	0.556870
H1441	H144	0.710730	0.581670	0.508670
C1881	C188	0.573230	0.494160	0.597270
C1891	C189	0.553570	0.512550	0.547970
H1451	H145	0.569930	0.541270	0.530970
H1461	H146	0.562130	0.394070	0.571870
H1471	H147	0.630830	0.412970	0.691770
O431	O43	0.038350	0.480750	0.917700
O441	O44	0.050670	0.486540	0.068100
C1901	C190	0.056690	0.478590	0.991100
C1911	C191	0.089100	0.464090	0.976400
C1921	C192	0.110000	0.458900	0.043300
H1481	H148	0.105400	0.465300	0.100800
C1931	C193	0.139100	0.443900	0.029100
H1491	H149	0.154200	0.441700	0.077100
C1941	C194	0.145540	0.432950	0.949100
C1951	C195	0.127100	0.441600	0.877600
H1501	H150	0.133800	0.437200	0.820300
C1961	C196	0.097900	0.457000	0.890200
H1511	H151	0.085000	0.462400	0.842000
C1971	C197	0.172510	0.412410	0.930600
C1981	C198	0.154120	0.374360	0.881300
H1521	H152	0.125400	0.362000	0.864300
H1531	H153	0.272600	0.501400	0.905200
H1541	H154	0.253700	0.551200	0.025100
O451	O45	0.705020	0.814080	0.251030
O461	O46	0.717340	0.819870	0.401430
C1991	C199	0.723360	0.811920	0.324430
C2001	C200	0.755770	0.797420	0.309730
C2011	C201	0.776670	0.792230	0.376630
H1551	H155	0.772070	0.798630	0.434130
C2021	C202	0.805770	0.777230	0.362430
H1561	H156	0.820870	0.775030	0.410430
C2031	C203	0.812210	0.766280	0.282430
C2041	C204	0.793770	0.774930	0.210930
H1571	H157	0.800470	0.770530	0.153630
C2051	C205	0.764570	0.790330	0.223530
H1581	H158	0.751670	0.795730	0.175330
C2061	C206	0.839180	0.745740	0.263930
C2071	C207	0.820790	0.707690	0.214630
H1591	H159	0.792070	0.695330	0.197630
H1601	H160	0.939270	0.834730	0.238530
H1611	H161	0.920370	0.884530	0.358430
O471	O47	0.371680	0.147420	0.584370
O481	O48	0.384000	0.153210	0.734770
C2081	C208	0.390020	0.145260	0.657770
C2091	C209	0.422430	0.130760	0.643070
C2101	C210	0.443330	0.125570	0.709970
H1621	H162	0.438730	0.131970	0.767470
C2111	C211	0.472430	0.110570	0.695770
H1631	H163	0.487530	0.108370	0.743770
C2121	C212	0.478870	0.099620	0.615770
C2131	C213	0.460430	0.108270	0.544270
H1641	H164	0.467130	0.103870	0.486970
C2141	C214	0.431230	0.123670	0.556870
H1651	H165	0.418330	0.129070	0.508670
C2151	C215	0.505840	0.079080	0.597270
C2161	C216	0.487450	0.041030	0.547970
H1661	H166	0.458730	0.028670	0.530970
H1671	H167	0.605930	0.168070	0.571870
H1681	H168	0.587030	0.217870	0.691770
O491	O49	0.519250	0.557600	0.917700
O501	O50	0.513460	0.564130	0.068100
C2171	C217	0.521410	0.578100	0.991100
C2181	C218	0.535910	0.625010	0.976400
C2191	C219	0.541100	0.651100	0.043300
H1691	H169	0.534700	0.640100	0.100800
C2201	C220	0.556100	0.695200	0.029100
H1701	H170	0.558300	0.712500	0.077100
C2211	C221	0.567050	0.712590	0.949100
C2221	C222	0.558400	0.685500	0.877600
H1711	H171	0.562800	0.696600	0.820300
C2231	C223	0.543000	0.640900	0.890200
H1721	H172	0.537600	0.622600	0.842000
C2241	C224	0.587590	0.760100	0.930600
C2251	C225	0.625640	0.779760	0.881300
H1731	H173	0.638000	0.763400	0.864300
H1741	H174	0.498600	0.771200	0.905200
H1751	H175	0.448800	0.702500	0.025100
O511	O51	0.185920	0.890930	0.251030
O521	O52	0.180130	0.897460	0.401430
C2261	C226	0.188080	0.911430	0.324430
C2271	C227	0.202580	0.958340	0.309730
C2281	C228	0.207770	0.984430	0.376630
H1761	H176	0.201370	0.973430	0.434130
C2291	C229	0.222770	0.028530	0.362430
H1771	H177	0.224970	0.045830	0.410430
C2301	C230	0.233720	0.045920	0.282430
C2311	C231	0.225070	0.018830	0.210930
H1781	H178	0.229470	0.029930	0.153630
C2321	C232	0.209670	0.974230	0.223530
H1791	H179	0.204270	0.955930	0.175330
C2331	C233	0.254260	0.093430	0.263930
C2341	C234	0.292310	0.113090	0.214630
H1801	H180	0.304670	0.096730	0.197630
H1811	H181	0.165270	0.104530	0.238530
H1821	H182	0.115470	0.035830	0.358430
O531	O53	0.852580	0.224270	0.584370
O541	O54	0.846790	0.230800	0.734770
C2351	C235	0.854740	0.244770	0.657770
C2361	C236	0.869240	0.291680	0.643070
C2371	C237	0.874430	0.317770	0.709970
H1831	H183	0.868030	0.306770	0.767470
C2381	C238	0.889430	0.361870	0.695770
H1841	H184	0.891630	0.379170	0.743770
C2391	C239	0.900380	0.379260	0.615770
C2401	C240	0.891730	0.352170	0.544270
H1851	H185	0.896130	0.363270	0.486970
C2411	C241	0.876330	0.307570	0.556870
H1861	H186	0.870930	0.289270	0.508670
C2421	C242	0.920920	0.426770	0.597270
C2431	C243	0.958970	0.446430	0.547970
H1871	H187	0.971330	0.430070	0.530970
H1881	H188	0.831930	0.437870	0.571870
H1891	H189	0.782130	0.369170	0.691770
O551	O55	0.961650	0.442400	0.082300
O561	O56	0.949330	0.435870	0.931900
C2441	C244	0.943310	0.421900	0.008900
C2451	C245	0.910900	0.374990	0.023600
C2461	C246	0.890000	0.348900	0.956700
H1901	H190	0.894600	0.359900	0.899200
C2471	C247	0.860900	0.304800	0.970900
H1911	H191	0.845800	0.287500	0.922900
C2481	C248	0.854460	0.287410	0.050900
C2491	C249	0.872900	0.314500	0.122400
H1921	H192	0.866200	0.303400	0.179700
C2501	C250	0.902100	0.359100	0.109800
H1931	H193	0.915000	0.377400	0.158000
C2511	C251	0.827490	0.239900	0.069400
C2521	C252	0.845880	0.220240	0.118700
H1941	H194	0.874600	0.236600	0.135700
H1951	H195	0.727400	0.228800	0.094800
H1961	H196	0.746300	0.297500	0.974900
O571	O57	0.628320	0.775730	0.415630
O581	O58	0.616000	0.769200	0.265230
C2531	C253	0.609980	0.755230	0.342230
C2541	C254	0.577570	0.708320	0.356930
C2551	C255	0.556670	0.682230	0.290030
H1971	H197	0.561270	0.693230	0.232530
C2561	C256	0.527570	0.638130	0.304230
H1981	H198	0.512470	0.620830	0.256230
C2571	C257	0.521130	0.620740	0.384230
C2581	C258	0.539570	0.647830	0.455730
H1991	H199	0.532870	0.636730	0.513030
C2591	C259	0.568770	0.692430	0.443130
H2001	H200	0.581670	0.710730	0.491330
C2601	C260	0.494160	0.573230	0.402730
C2611	C261	0.512550	0.553570	0.452030
H2011	H201	0.541270	0.569930	0.469030
H2021	H202	0.394070	0.562130	0.428130
H2031	H203	0.412970	0.630830	0.308230
O591	O59	0.294980	0.109070	0.748970
O601	O60	0.282660	0.102540	0.598570
C2621	C262	0.276640	0.088570	0.675570
C2631	C263	0.244230	0.041660	0.690270
C2641	C264	0.223330	0.015570	0.623370
H2041	H204	0.227930	0.026570	0.565870
C2651	C265	0.194230	0.971470	0.637570
H2051	H205	0.179130	0.954170	0.589570
C2661	C266	0.187790	0.954080	0.717570
C2671	C267	0.206230	0.981170	0.789070
H2061	H206	0.199530	0.970070	0.846370
C2681	C268	0.235430	0.025770	0.776470
H2071	H207	0.248330	0.044070	0.824670
C2691	C269	0.160820	0.906570	0.736070
C2701	C270	0.179210	0.886910	0.785370
H2081	H208	0.207930	0.903270	0.802370
H2091	H209	0.060730	0.895470	0.761470
H2101	H210	0.079630	0.964170	0.641570
O611	O61	0.480750	0.038350	0.082300
O621	O62	0.486540	0.050670	0.931900
C2711	C271	0.478590	0.056690	0.008900
C2721	C272	0.464090	0.089100	0.023600
C2731	C273	0.458900	0.110000	0.956700
H2111	H211	0.465300	0.105400	0.899200
C2741	C274	0.443900	0.139100	0.970900
H2121	H212	0.441700	0.154200	0.922900
C2751	C275	0.432950	0.145540	0.050900
C2761	C276	0.441600	0.127100	0.122400
H2131	H213	0.437200	0.133800	0.179700
C2771	C277	0.457000	0.097900	0.109800
H2141	H214	0.462400	0.085000	0.158000
C2781	C278	0.412410	0.172510	0.069400
C2791	C279	0.374360	0.154120	0.118700
H2151	H215	0.362000	0.125400	0.135700
H2161	H216	0.501400	0.272600	0.094800
H2171	H217	0.551200	0.253700	0.974900
O631	O63	0.147420	0.371680	0.415630
O641	O64	0.153210	0.384000	0.265230
C2801	C280	0.145260	0.390020	0.342230
C2811	C281	0.130760	0.422430	0.356930
C2821	C282	0.125570	0.443330	0.290030
H2181	H218	0.131970	0.438730	0.232530
C2831	C283	0.110570	0.472430	0.304230
H2191	H219	0.108370	0.487530	0.256230
C2841	C284	0.099620	0.478870	0.384230
C2851	C285	0.108270	0.460430	0.455730
H2201	H220	0.103870	0.467130	0.513030
C2861	C286	0.123670	0.431230	0.443130
H2211	H221	0.129070	0.418330	0.491330
C2871	C287	0.079080	0.505840	0.402730
C2881	C288	0.041030	0.487450	0.452030
H2221	H222	0.028670	0.458730	0.469030
H2231	H223	0.168070	0.605930	0.428130
H2241	H224	0.217870	0.587030	0.308230
O651	O65	0.814080	0.705020	0.748970
O661	O66	0.819870	0.717340	0.598570
C2891	C289	0.811920	0.723360	0.675570
C2901	C290	0.797420	0.755770	0.690270
C2911	C291	0.792230	0.776670	0.623370
H2251	H225	0.798630	0.772070	0.565870
C2921	C292	0.777230	0.805770	0.637570
H2261	H226	0.775030	0.820870	0.589570
C2931	C293	0.766280	0.812210	0.717570
C2941	C294	0.774930	0.793770	0.789070
H2271	H227	0.770530	0.800470	0.846370
C2951	C295	0.790330	0.764570	0.776470
H2281	H228	0.795730	0.751670	0.824670
C2961	C296	0.745740	0.839180	0.736070
C2971	C297	0.707690	0.820790	0.785370
H2291	H229	0.695330	0.792070	0.802370
H2301	H230	0.834730	0.939270	0.761470
H2311	H231	0.884530	0.920370	0.641570
O671	O67	0.557600	0.519250	0.082300
O681	O68	0.564130	0.513460	0.931900
C2981	C298	0.578100	0.521410	0.008900
C2991	C299	0.625010	0.535910	0.023600
C3001	C300	0.651100	0.541100	0.956700
H2321	H232	0.640100	0.534700	0.899200
C3011	C301	0.695200	0.556100	0.970900
H2331	H233	0.712500	0.558300	0.922900
C3021	C302	0.712590	0.567050	0.050900
C3031	C303	0.685500	0.558400	0.122400
H2341	H234	0.696600	0.562800	0.179700
C3041	C304	0.640900	0.543000	0.109800
H2351	H235	0.622600	0.537600	0.158000
C3051	C305	0.760100	0.587590	0.069400
C3061	C306	0.779760	0.625640	0.118700
H2361	H236	0.763400	0.638000	0.135700
H2371	H237	0.771200	0.498600	0.094800
H2381	H238	0.702500	0.448800	0.974900
O691	O69	0.224270	0.852580	0.415630
O701	O70	0.230800	0.846790	0.265230
C3071	C307	0.244770	0.854740	0.342230
C3081	C308	0.291680	0.869240	0.356930
C3091	C309	0.317770	0.874430	0.290030
H2391	H239	0.306770	0.868030	0.232530
C3101	C310	0.361870	0.889430	0.304230
H2401	H240	0.379170	0.891630	0.256230
C3111	C311	0.379260	0.900380	0.384230
C3121	C312	0.352170	0.891730	0.455730
H2411	H241	0.363270	0.896130	0.513030
C3131	C313	0.307570	0.876330	0.443130
H2421	H242	0.289270	0.870930	0.491330
C3141	C314	0.426770	0.920920	0.402730
C3151	C315	0.446430	0.958970	0.452030
H2431	H243	0.430070	0.971330	0.469030
H2441	H244	0.437870	0.831930	0.428130
H2451	H245	0.369170	0.782130	0.308230
O711	O71	0.890930	0.185920	0.748970
O721	O72	0.897460	0.180130	0.598570
C3161	C316	0.911430	0.188080	0.675570
C3171	C317	0.958340	0.202580	0.690270
C3181	C318	0.984430	0.207770	0.623370
H2461	H246	0.973430	0.201370	0.565870
C3191	C319	0.028530	0.222770	0.637570
H2471	H247	0.045830	0.224970	0.589570
C3201	C320	0.045920	0.233720	0.717570
C3211	C321	0.018830	0.225070	0.789070
H2481	H248	0.029930	0.229470	0.846370
C3221	C322	0.974230	0.209670	0.776470
H2491	H249	0.955930	0.204270	0.824670
C3231	C323	0.093430	0.254260	0.736070
C3241	C324	0.113090	0.292310	0.785370
H2501	H250	0.096730	0.304670	0.802370
H2511	H251	0.104530	0.165270	0.761470
H2521	H252	0.035830	0.115470	0.641570
Cu11	Cu1	0.503330	0.006660	0.914110
Cu21	Cu2	0.170000	0.339990	0.247440
Cu31	Cu3	0.836660	0.673330	0.580780
Cu41	Cu4	0.993340	0.496670	0.914110
Cu51	Cu5	0.660010	0.830000	0.247440
Cu61	Cu6	0.326670	0.163340	0.580780
Cu71	Cu7	0.503330	0.496670	0.914110
Cu81	Cu8	0.170000	0.830000	0.247440
Cu91	Cu9	0.836660	0.163340	0.580780
Cu101	Cu10	0.006660	0.503330	0.085890
Cu111	Cu11	0.673330	0.836660	0.419220
Cu121	Cu12	0.339990	0.170000	0.752560
Cu131	Cu13	0.496670	0.993340	0.085890
Cu141	Cu14	0.163340	0.326670	0.419220
Cu151	Cu15	0.830000	0.660010	0.752560
Cu161	Cu16	0.496670	0.503330	0.085890
Cu171	Cu17	0.163340	0.836660	0.419220
Cu181	Cu18	0.830000	0.170000	0.752560
O731	O73	0.765420	0.234580	0.994700
C3251	C325	0.822790	0.177210	0.143200
C3261	C326	0.784050	0.215950	0.044700
C3271	C327	0.748100	0.251900	0.057200
C3281	C328	0.725800	0.274200	0.011300
H2531	H253	0.714600	0.285400	0.055600
O741	O74	0.432090	0.567910	0.328030
C3291	C329	0.489460	0.510540	0.476530
C3301	C330	0.450720	0.549280	0.378030
C3311	C331	0.414770	0.585230	0.390530
C3321	C332	0.392470	0.607530	0.344630
H2541	H254	0.381270	0.618730	0.388930
O751	O75	0.098750	0.901250	0.661370
C3331	C333	0.156120	0.843880	0.809870
C3341	C334	0.117380	0.882620	0.711370
C3351	C335	0.081430	0.918570	0.723870
C3361	C336	0.059130	0.940870	0.677970
H2551	H255	0.047930	0.952070	0.722270
O761	O76	0.765420	0.530840	0.994700
C3371	C337	0.822790	0.645580	0.143200
C3381	C338	0.784050	0.568100	0.044700
C3391	C339	0.748100	0.496200	0.057200
C3401	C340	0.725800	0.451600	0.011300
H2561	H256	0.714600	0.429200	0.055600
O771	O77	0.432090	0.864170	0.328030
C3411	C341	0.489460	0.978910	0.476530
C3421	C342	0.450720	0.901430	0.378030
C3431	C343	0.414770	0.829530	0.390530
C3441	C344	0.392470	0.784930	0.344630
H2571	H257	0.381270	0.762530	0.388930
O781	O78	0.098750	0.197510	0.661370
C3451	C345	0.156120	0.312250	0.809870
C3461	C346	0.117380	0.234770	0.711370
C3471	C347	0.081430	0.162870	0.723870
C3481	C348	0.059130	0.118270	0.677970
H2581	H258	0.047930	0.095870	0.722270
O791	O79	0.469160	0.234580	0.994700
C3491	C349	0.354420	0.177210	0.143200
C3501	C350	0.431900	0.215950	0.044700
C3511	C351	0.503800	0.251900	0.057200
C3521	C352	0.548400	0.274200	0.011300
H2591	H259	0.570800	0.285400	0.055600
O801	O80	0.135830	0.567910	0.328030
C3531	C353	0.021090	0.510540	0.476530
C3541	C354	0.098570	0.549280	0.378030
C3551	C355	0.170470	0.585230	0.390530
C3561	C356	0.215070	0.607530	0.344630
H2601	H260	0.237470	0.618730	0.388930
O811	O81	0.802490	0.901250	0.661370
C3571	C357	0.687750	0.843880	0.809870
C3581	C358	0.765230	0.882620	0.711370
C3591	C359	0.837130	0.918570	0.723870
C3601	C360	0.881730	0.940870	0.677970
H2611	H261	0.904130	0.952070	0.722270
O821	O82	0.234580	0.765420	0.005300
C3611	C361	0.177210	0.822790	0.856800
C3621	C362	0.215950	0.784050	0.955300
C3631	C363	0.251900	0.748100	0.942800
C3641	C364	0.274200	0.725800	0.988700
H2621	H262	0.285400	0.714600	0.944400
O831	O83	0.901250	0.098750	0.338630
C3651	C365	0.843880	0.156120	0.190130
C3661	C366	0.882620	0.117380	0.288630
C3671	C367	0.918570	0.081430	0.276130
C3681	C368	0.940870	0.059130	0.322030
H2631	H263	0.952070	0.047930	0.277730
O841	O84	0.567910	0.432090	0.671970
C3691	C369	0.510540	0.489460	0.523470
C3701	C370	0.549280	0.450720	0.621970
C3711	C371	0.585230	0.414770	0.609470
C3721	C372	0.607530	0.392470	0.655370
H2641	H264	0.618730	0.381270	0.611070
O851	O85	0.530840	0.765420	0.005300
C3731	C373	0.645580	0.822790	0.856800
C3741	C374	0.568100	0.784050	0.955300
C3751	C375	0.496200	0.748100	0.942800
C3761	C376	0.451600	0.725800	0.988700
H2651	H265	0.429200	0.714600	0.944400
O861	O86	0.197510	0.098750	0.338630
C3771	C377	0.312250	0.156120	0.190130
C3781	C378	0.234770	0.117380	0.288630
C3791	C379	0.162870	0.081430	0.276130
C3801	C380	0.118270	0.059130	0.322030
H2661	H266	0.095870	0.047930	0.277730
O871	O87	0.864170	0.432090	0.671970
C3811	C381	0.978910	0.489460	0.523470
C3821	C382	0.901430	0.450720	0.621970
C3831	C383	0.829530	0.414770	0.609470
C3841	C384	0.784930	0.392470	0.655370
H2671	H267	0.762530	0.381270	0.611070
O881	O88	0.234580	0.469160	0.005300
C3851	C385	0.177210	0.354420	0.856800
C3861	C386	0.215950	0.431900	0.955300
C3871	C387	0.251900	0.503800	0.942800
C3881	C388	0.274200	0.548400	0.988700
H2681	H268	0.285400	0.570800	0.944400
O891	O89	0.901250	0.802490	0.338630
C3891	C389	0.843880	0.687750	0.190130
C3901	C390	0.882620	0.765230	0.288630
C3911	C391	0.918570	0.837130	0.276130
C3921	C392	0.940870	0.881730	0.322030
H2691	H269	0.952070	0.904130	0.277730
O901	O90	0.567910	0.135830	0.671970
C3931	C393	0.510540	0.021090	0.523470
C3941	C394	0.549280	0.098570	0.621970
C3951	C395	0.585230	0.170470	0.609470
C3961	C396	0.607530	0.215070	0.655370
H2701	H270	0.618730	0.237470	0.611070
