data_UMODEH19_clean_PM
_symmetry_space_group_name_H-M	'P1'
_cell_length_a	35.719200
_cell_length_b	35.719200
_cell_length_c	17.109300
_cell_angle_alpha	90.000000
_cell_angle_beta	90.000000
_cell_angle_gamma	120.000000
_symmetry_Int_Tables_number 1

loop_
_symmetry_equiv_pos_as_xyz
'x,y,z'

loop_
_atom_site_label
_atom_site_type_symbol
_atom_site_fract_x
_atom_site_fract_y
_atom_site_fract_z
O11	O1	0.898620	0.178420	0.121480
O21	O2	0.888870	0.188330	0.248100
C11	C1	0.911260	0.188530	0.189700
C21	C2	0.957540	0.202070	0.207600
C31	C3	0.985260	0.204540	0.148900
C41	C4	0.973270	0.213430	0.282600
H11	H1	0.974900	0.196600	0.096900
C51	C5	0.028510	0.218850	0.166400
C61	C6	0.016620	0.228200	0.299100
H21	H2	0.954300	0.211200	0.323500
C71	C7	0.044690	0.231600	0.238300
H31	H3	0.047100	0.219600	0.126000
H41	H4	0.027200	0.235900	0.351100
C81	C8	0.091670	0.250870	0.257200
C91	C9	0.112360	0.290900	0.294500
H51	H5	0.096100	0.304600	0.306600
H61	H6	0.054300	0.153800	0.288800
O31	O3	0.565290	0.511750	0.454810
O41	O4	0.555540	0.521660	0.581430
C101	C10	0.577930	0.521860	0.523030
C111	C11	0.624210	0.535400	0.540930
C121	C12	0.651930	0.537870	0.482230
C131	C13	0.639940	0.546760	0.615930
H71	H7	0.641570	0.529930	0.430230
C141	C14	0.695180	0.552180	0.499730
C151	C15	0.683290	0.561530	0.632430
H81	H8	0.620970	0.544530	0.656830
C161	C16	0.711360	0.564930	0.571630
H91	H9	0.713770	0.552930	0.459330
H101	H10	0.693870	0.569230	0.684430
C171	C17	0.758340	0.584200	0.590530
C181	C18	0.779030	0.624230	0.627830
H111	H11	0.762770	0.637930	0.639930
H121	H12	0.720970	0.487130	0.622130
O51	O5	0.231950	0.845090	0.788150
O61	O6	0.222200	0.855000	0.914770
C191	C19	0.244590	0.855200	0.856370
C201	C20	0.290870	0.868740	0.874270
C211	C21	0.318590	0.871210	0.815570
C221	C22	0.306600	0.880100	0.949270
H131	H13	0.308230	0.863270	0.763570
C231	C23	0.361840	0.885520	0.833070
C241	C24	0.349950	0.894870	0.965770
H141	H14	0.287630	0.877870	0.990170
C251	C25	0.378020	0.898270	0.904970
H151	H15	0.380430	0.886270	0.792670
H161	H16	0.360530	0.902570	0.017770
C261	C26	0.425000	0.917540	0.923870
C271	C27	0.445690	0.957570	0.961170
H171	H17	0.429430	0.971270	0.973270
H181	H18	0.387630	0.820470	0.955470
O71	O7	0.821580	0.720200	0.121480
O81	O8	0.811670	0.700540	0.248100
C281	C28	0.811470	0.722730	0.189700
C291	C29	0.797930	0.755470	0.207600
C301	C30	0.795460	0.780720	0.148900
C311	C31	0.786570	0.759840	0.282600
H191	H19	0.803400	0.778300	0.096900
C321	C32	0.781150	0.809660	0.166400
C331	C33	0.771800	0.788420	0.299100
H201	H20	0.788800	0.743100	0.323500
C341	C34	0.768400	0.813090	0.238300
H211	H21	0.780400	0.827500	0.126000
H221	H22	0.764100	0.791300	0.351100
C351	C35	0.749130	0.840800	0.257200
C361	C36	0.709100	0.821460	0.294500
H231	H23	0.695400	0.791500	0.306600
H241	H24	0.846200	0.900500	0.288800
O91	O9	0.488250	0.053530	0.454810
O101	O10	0.478340	0.033870	0.581430
C371	C37	0.478140	0.056060	0.523030
C381	C38	0.464600	0.088800	0.540930
C391	C39	0.462130	0.114050	0.482230
C401	C40	0.453240	0.093170	0.615930
H251	H25	0.470070	0.111630	0.430230
C411	C41	0.447820	0.142990	0.499730
C421	C42	0.438470	0.121750	0.632430
H261	H26	0.455470	0.076430	0.656830
C431	C43	0.435070	0.146420	0.571630
H271	H27	0.447070	0.160830	0.459330
H281	H28	0.430770	0.124630	0.684430
C441	C44	0.415800	0.174130	0.590530
C451	C45	0.375770	0.154790	0.627830
H291	H29	0.362070	0.124830	0.639930
H301	H30	0.512870	0.233830	0.622130
O111	O11	0.154910	0.386870	0.788150
O121	O12	0.145000	0.367210	0.914770
C461	C46	0.144800	0.389400	0.856370
C471	C47	0.131260	0.422140	0.874270
C481	C48	0.128790	0.447390	0.815570
C491	C49	0.119900	0.426510	0.949270
H311	H31	0.136730	0.444970	0.763570
C501	C50	0.114480	0.476330	0.833070
C511	C51	0.105130	0.455090	0.965770
H321	H32	0.122130	0.409770	0.990170
C521	C52	0.101730	0.479760	0.904970
H331	H33	0.113730	0.494170	0.792670
H341	H34	0.097430	0.457970	0.017770
C531	C53	0.082460	0.507470	0.923870
C541	C54	0.042430	0.488130	0.961170
H351	H35	0.028730	0.458170	0.973270
H361	H36	0.179530	0.567170	0.955470
O131	O13	0.279800	0.101380	0.121480
O141	O14	0.299460	0.111130	0.248100
C551	C55	0.277270	0.088740	0.189700
C561	C56	0.244530	0.042460	0.207600
C571	C57	0.219280	0.014740	0.148900
C581	C58	0.240160	0.026730	0.282600
H371	H37	0.221700	0.025100	0.096900
C591	C59	0.190340	0.971490	0.166400
C601	C60	0.211580	0.983380	0.299100
H381	H38	0.256900	0.045700	0.323500
C611	C61	0.186910	0.955310	0.238300
H391	H39	0.172500	0.952900	0.126000
H401	H40	0.208700	0.972800	0.351100
C621	C62	0.159200	0.908330	0.257200
C631	C63	0.178540	0.887640	0.294500
H411	H41	0.208500	0.903900	0.306600
H421	H42	0.099500	0.945700	0.288800
O151	O15	0.946470	0.434710	0.454810
O161	O16	0.966130	0.444460	0.581430
C641	C64	0.943940	0.422070	0.523030
C651	C65	0.911200	0.375790	0.540930
C661	C66	0.885950	0.348070	0.482230
C671	C67	0.906830	0.360060	0.615930
H431	H43	0.888370	0.358430	0.430230
C681	C68	0.857010	0.304820	0.499730
C691	C69	0.878250	0.316710	0.632430
H441	H44	0.923570	0.379030	0.656830
C701	C70	0.853580	0.288640	0.571630
H451	H45	0.839170	0.286230	0.459330
H461	H46	0.875370	0.306130	0.684430
C711	C71	0.825870	0.241660	0.590530
C721	C72	0.845210	0.220970	0.627830
H471	H47	0.875170	0.237230	0.639930
H481	H48	0.766170	0.279030	0.622130
O171	O17	0.613130	0.768050	0.788150
O181	O18	0.632790	0.777800	0.914770
C731	C73	0.610600	0.755410	0.856370
C741	C74	0.577860	0.709130	0.874270
C751	C75	0.552610	0.681410	0.815570
C761	C76	0.573490	0.693400	0.949270
H491	H49	0.555030	0.691770	0.763570
C771	C77	0.523670	0.638160	0.833070
C781	C78	0.544910	0.650050	0.965770
H501	H50	0.590230	0.712370	0.990170
C791	C79	0.520240	0.621980	0.904970
H511	H51	0.505830	0.619570	0.792670
H521	H52	0.542030	0.639470	0.017770
C801	C80	0.492530	0.575000	0.923870
C811	C81	0.511870	0.554310	0.961170
H531	H53	0.541830	0.570570	0.973270
H541	H54	0.432830	0.612370	0.955470
O191	O19	0.178420	0.898620	0.878520
O201	O20	0.188330	0.888870	0.751900
C821	C82	0.188530	0.911260	0.810300
C831	C83	0.202070	0.957540	0.792400
C841	C84	0.204540	0.985260	0.851100
C851	C85	0.213430	0.973270	0.717400
H551	H55	0.196600	0.974900	0.903100
C861	C86	0.218850	0.028510	0.833600
C871	C87	0.228200	0.016620	0.700900
H561	H56	0.211200	0.954300	0.676500
C881	C88	0.231600	0.044690	0.761700
H571	H57	0.219600	0.047100	0.874000
H581	H58	0.235900	0.027200	0.648900
C891	C89	0.250870	0.091670	0.742800
C901	C90	0.290900	0.112360	0.705500
H591	H59	0.304600	0.096100	0.693400
H601	H60	0.153800	0.054300	0.711200
O211	O21	0.845090	0.231950	0.211850
O221	O22	0.855000	0.222200	0.085230
C911	C91	0.855200	0.244590	0.143630
C921	C92	0.868740	0.290870	0.125730
C931	C93	0.871210	0.318590	0.184430
C941	C94	0.880100	0.306600	0.050730
H611	H61	0.863270	0.308230	0.236430
C951	C95	0.885520	0.361840	0.166930
C961	C96	0.894870	0.349950	0.034230
H621	H62	0.877870	0.287630	0.009830
C971	C97	0.898270	0.378020	0.095030
H631	H63	0.886270	0.380430	0.207330
H641	H64	0.902570	0.360530	0.982230
C981	C98	0.917540	0.425000	0.076130
C991	C99	0.957570	0.445690	0.038830
H651	H65	0.971270	0.429430	0.026730
H661	H66	0.820470	0.387630	0.044530
O231	O23	0.511750	0.565290	0.545190
O241	O24	0.521660	0.555540	0.418570
C1001	C100	0.521860	0.577930	0.476970
C1011	C101	0.535400	0.624210	0.459070
C1021	C102	0.537870	0.651930	0.517770
C1031	C103	0.546760	0.639940	0.384070
H671	H67	0.529930	0.641570	0.569770
C1041	C104	0.552180	0.695180	0.500270
C1051	C105	0.561530	0.683290	0.367570
H681	H68	0.544530	0.620970	0.343170
C1061	C106	0.564930	0.711360	0.428370
H691	H69	0.552930	0.713770	0.540670
H701	H70	0.569230	0.693870	0.315570
C1071	C107	0.584200	0.758340	0.409470
C1081	C108	0.624230	0.779030	0.372170
H711	H71	0.637930	0.762770	0.360070
H721	H72	0.487130	0.720970	0.377870
O251	O25	0.720200	0.821580	0.878520
O261	O26	0.700540	0.811670	0.751900
C1091	C109	0.722730	0.811470	0.810300
C1101	C110	0.755470	0.797930	0.792400
C1111	C111	0.780720	0.795460	0.851100
C1121	C112	0.759840	0.786570	0.717400
H731	H73	0.778300	0.803400	0.903100
C1131	C113	0.809660	0.781150	0.833600
C1141	C114	0.788420	0.771800	0.700900
H741	H74	0.743100	0.788800	0.676500
C1151	C115	0.813090	0.768400	0.761700
H751	H75	0.827500	0.780400	0.874000
H761	H76	0.791300	0.764100	0.648900
C1161	C116	0.840800	0.749130	0.742800
C1171	C117	0.821460	0.709100	0.705500
H771	H77	0.791500	0.695400	0.693400
H781	H78	0.900500	0.846200	0.711200
O271	O27	0.386870	0.154910	0.211850
O281	O28	0.367210	0.145000	0.085230
C1181	C118	0.389400	0.144800	0.143630
C1191	C119	0.422140	0.131260	0.125730
C1201	C120	0.447390	0.128790	0.184430
C1211	C121	0.426510	0.119900	0.050730
H791	H79	0.444970	0.136730	0.236430
C1221	C122	0.476330	0.114480	0.166930
C1231	C123	0.455090	0.105130	0.034230
H801	H80	0.409770	0.122130	0.009830
C1241	C124	0.479760	0.101730	0.095030
H811	H81	0.494170	0.113730	0.207330
H821	H82	0.457970	0.097430	0.982230
C1251	C125	0.507470	0.082460	0.076130
C1261	C126	0.488130	0.042430	0.038830
H831	H83	0.458170	0.028730	0.026730
H841	H84	0.567170	0.179530	0.044530
O291	O29	0.053530	0.488250	0.545190
O301	O30	0.033870	0.478340	0.418570
C1271	C127	0.056060	0.478140	0.476970
C1281	C128	0.088800	0.464600	0.459070
C1291	C129	0.114050	0.462130	0.517770
C1301	C130	0.093170	0.453240	0.384070
H851	H85	0.111630	0.470070	0.569770
C1311	C131	0.142990	0.447820	0.500270
C1321	C132	0.121750	0.438470	0.367570
H861	H86	0.076430	0.455470	0.343170
C1331	C133	0.146420	0.435070	0.428370
H871	H87	0.160830	0.447070	0.540670
H881	H88	0.124630	0.430770	0.315570
C1341	C134	0.174130	0.415800	0.409470
C1351	C135	0.154790	0.375770	0.372170
H891	H89	0.124830	0.362070	0.360070
H901	H90	0.233830	0.512870	0.377870
O311	O31	0.101380	0.279800	0.878520
O321	O32	0.111130	0.299460	0.751900
C1361	C136	0.088740	0.277270	0.810300
C1371	C137	0.042460	0.244530	0.792400
C1381	C138	0.014740	0.219280	0.851100
C1391	C139	0.026730	0.240160	0.717400
H911	H91	0.025100	0.221700	0.903100
C1401	C140	0.971490	0.190340	0.833600
C1411	C141	0.983380	0.211580	0.700900
H921	H92	0.045700	0.256900	0.676500
C1421	C142	0.955310	0.186910	0.761700
H931	H93	0.952900	0.172500	0.874000
H941	H94	0.972800	0.208700	0.648900
C1431	C143	0.908330	0.159200	0.742800
C1441	C144	0.887640	0.178540	0.705500
H951	H95	0.903900	0.208500	0.693400
H961	H96	0.945700	0.099500	0.711200
O331	O33	0.768050	0.613130	0.211850
O341	O34	0.777800	0.632790	0.085230
C1451	C145	0.755410	0.610600	0.143630
C1461	C146	0.709130	0.577860	0.125730
C1471	C147	0.681410	0.552610	0.184430
C1481	C148	0.693400	0.573490	0.050730
H971	H97	0.691770	0.555030	0.236430
C1491	C149	0.638160	0.523670	0.166930
C1501	C150	0.650050	0.544910	0.034230
H981	H98	0.712370	0.590230	0.009830
C1511	C151	0.621980	0.520240	0.095030
H991	H99	0.619570	0.505830	0.207330
H1001	H100	0.639470	0.542030	0.982230
C1521	C152	0.575000	0.492530	0.076130
C1531	C153	0.554310	0.511870	0.038830
H1011	H101	0.570570	0.541830	0.026730
H1021	H102	0.612370	0.432830	0.044530
O351	O35	0.434710	0.946470	0.545190
O361	O36	0.444460	0.966130	0.418570
C1541	C154	0.422070	0.943940	0.476970
C1551	C155	0.375790	0.911200	0.459070
C1561	C156	0.348070	0.885950	0.517770
C1571	C157	0.360060	0.906830	0.384070
H1031	H103	0.358430	0.888370	0.569770
C1581	C158	0.304820	0.857010	0.500270
C1591	C159	0.316710	0.878250	0.367570
H1041	H104	0.379030	0.923570	0.343170
C1601	C160	0.288640	0.853580	0.428370
H1051	H105	0.286230	0.839170	0.540670
H1061	H106	0.306130	0.875370	0.315570
C1611	C161	0.241660	0.825870	0.409470
C1621	C162	0.220970	0.845210	0.372170
H1071	H107	0.237230	0.875170	0.360070
H1081	H108	0.279030	0.766170	0.377870
O371	O37	0.101380	0.821580	0.878520
O381	O38	0.111130	0.811670	0.751900
C1631	C163	0.088740	0.811470	0.810300
C1641	C164	0.042460	0.797930	0.792400
C1651	C165	0.014740	0.795460	0.851100
C1661	C166	0.026730	0.786570	0.717400
H1091	H109	0.025100	0.803400	0.903100
C1671	C167	0.971490	0.781150	0.833600
C1681	C168	0.983380	0.771800	0.700900
H1101	H110	0.045700	0.788800	0.676500
C1691	C169	0.955310	0.768400	0.761700
H1111	H111	0.952900	0.780400	0.874000
H1121	H112	0.972800	0.764100	0.648900
C1701	C170	0.908330	0.749130	0.742800
C1711	C171	0.887640	0.709100	0.705500
H1131	H113	0.903900	0.695400	0.693400
H1141	H114	0.945700	0.846200	0.711200
O391	O39	0.768050	0.154910	0.211850
O401	O40	0.777800	0.145000	0.085230
C1721	C172	0.755410	0.144800	0.143630
C1731	C173	0.709130	0.131260	0.125730
C1741	C174	0.681410	0.128790	0.184430
C1751	C175	0.693400	0.119900	0.050730
H1151	H115	0.691770	0.136730	0.236430
C1761	C176	0.638160	0.114480	0.166930
C1771	C177	0.650050	0.105130	0.034230
H1161	H116	0.712370	0.122130	0.009830
C1781	C178	0.621980	0.101730	0.095030
H1171	H117	0.619570	0.113730	0.207330
H1181	H118	0.639470	0.097430	0.982230
C1791	C179	0.575000	0.082460	0.076130
C1801	C180	0.554310	0.042430	0.038830
H1191	H119	0.570570	0.028730	0.026730
H1201	H120	0.612370	0.179530	0.044530
O411	O41	0.434710	0.488250	0.545190
O421	O42	0.444460	0.478340	0.418570
C1811	C181	0.422070	0.478140	0.476970
C1821	C182	0.375790	0.464600	0.459070
C1831	C183	0.348070	0.462130	0.517770
C1841	C184	0.360060	0.453240	0.384070
H1211	H121	0.358430	0.470070	0.569770
C1851	C185	0.304820	0.447820	0.500270
C1861	C186	0.316710	0.438470	0.367570
H1221	H122	0.379030	0.455470	0.343170
C1871	C187	0.288640	0.435070	0.428370
H1231	H123	0.286230	0.447070	0.540670
H1241	H124	0.306130	0.430770	0.315570
C1881	C188	0.241660	0.415800	0.409470
C1891	C189	0.220970	0.375770	0.372170
H1251	H125	0.237230	0.362070	0.360070
H1261	H126	0.279030	0.512870	0.377870
O431	O43	0.178420	0.279800	0.878520
O441	O44	0.188330	0.299460	0.751900
C1901	C190	0.188530	0.277270	0.810300
C1911	C191	0.202070	0.244530	0.792400
C1921	C192	0.204540	0.219280	0.851100
C1931	C193	0.213430	0.240160	0.717400
H1271	H127	0.196600	0.221700	0.903100
C1941	C194	0.218850	0.190340	0.833600
C1951	C195	0.228200	0.211580	0.700900
H1281	H128	0.211200	0.256900	0.676500
C1961	C196	0.231600	0.186910	0.761700
H1291	H129	0.219600	0.172500	0.874000
H1301	H130	0.235900	0.208700	0.648900
C1971	C197	0.250870	0.159200	0.742800
C1981	C198	0.290900	0.178540	0.705500
H1311	H131	0.304600	0.208500	0.693400
H1321	H132	0.153800	0.099500	0.711200
O451	O45	0.845090	0.613130	0.211850
O461	O46	0.855000	0.632790	0.085230
C1991	C199	0.855200	0.610600	0.143630
C2001	C200	0.868740	0.577860	0.125730
C2011	C201	0.871210	0.552610	0.184430
C2021	C202	0.880100	0.573490	0.050730
H1331	H133	0.863270	0.555030	0.236430
C2031	C203	0.885520	0.523670	0.166930
C2041	C204	0.894870	0.544910	0.034230
H1341	H134	0.877870	0.590230	0.009830
C2051	C205	0.898270	0.520240	0.095030
H1351	H135	0.886270	0.505830	0.207330
H1361	H136	0.902570	0.542030	0.982230
C2061	C206	0.917540	0.492530	0.076130
C2071	C207	0.957570	0.511870	0.038830
H1371	H137	0.971270	0.541830	0.026730
H1381	H138	0.820470	0.432830	0.044530
O471	O47	0.511750	0.946470	0.545190
O481	O48	0.521660	0.966130	0.418570
C2081	C208	0.521860	0.943940	0.476970
C2091	C209	0.535400	0.911200	0.459070
C2101	C210	0.537870	0.885950	0.517770
C2111	C211	0.546760	0.906830	0.384070
H1391	H139	0.529930	0.888370	0.569770
C2121	C212	0.552180	0.857010	0.500270
C2131	C213	0.561530	0.878250	0.367570
H1401	H140	0.544530	0.923570	0.343170
C2141	C214	0.564930	0.853580	0.428370
H1411	H141	0.552930	0.839170	0.540670
H1421	H142	0.569230	0.875370	0.315570
C2151	C215	0.584200	0.825870	0.409470
C2161	C216	0.624230	0.845210	0.372170
H1431	H143	0.637930	0.875170	0.360070
H1441	H144	0.487130	0.766170	0.377870
O491	O49	0.720200	0.898620	0.878520
O501	O50	0.700540	0.888870	0.751900
C2171	C217	0.722730	0.911260	0.810300
C2181	C218	0.755470	0.957540	0.792400
C2191	C219	0.780720	0.985260	0.851100
C2201	C220	0.759840	0.973270	0.717400
H1451	H145	0.778300	0.974900	0.903100
C2211	C221	0.809660	0.028510	0.833600
C2221	C222	0.788420	0.016620	0.700900
H1461	H146	0.743100	0.954300	0.676500
C2231	C223	0.813090	0.044690	0.761700
H1471	H147	0.827500	0.047100	0.874000
H1481	H148	0.791300	0.027200	0.648900
C2241	C224	0.840800	0.091670	0.742800
C2251	C225	0.821460	0.112360	0.705500
H1491	H149	0.791500	0.096100	0.693400
H1501	H150	0.900500	0.054300	0.711200
O511	O51	0.386870	0.231950	0.211850
O521	O52	0.367210	0.222200	0.085230
C2261	C226	0.389400	0.244590	0.143630
C2271	C227	0.422140	0.290870	0.125730
C2281	C228	0.447390	0.318590	0.184430
C2291	C229	0.426510	0.306600	0.050730
H1511	H151	0.444970	0.308230	0.236430
C2301	C230	0.476330	0.361840	0.166930
C2311	C231	0.455090	0.349950	0.034230
H1521	H152	0.409770	0.287630	0.009830
C2321	C232	0.479760	0.378020	0.095030
H1531	H153	0.494170	0.380430	0.207330
H1541	H154	0.457970	0.360530	0.982230
C2331	C233	0.507470	0.425000	0.076130
C2341	C234	0.488130	0.445690	0.038830
H1551	H155	0.458170	0.429430	0.026730
H1561	H156	0.567170	0.387630	0.044530
O531	O53	0.053530	0.565290	0.545190
O541	O54	0.033870	0.555540	0.418570
C2351	C235	0.056060	0.577930	0.476970
C2361	C236	0.088800	0.624210	0.459070
C2371	C237	0.114050	0.651930	0.517770
C2381	C238	0.093170	0.639940	0.384070
H1571	H157	0.111630	0.641570	0.569770
C2391	C239	0.142990	0.695180	0.500270
C2401	C240	0.121750	0.683290	0.367570
H1581	H158	0.076430	0.620970	0.343170
C2411	C241	0.146420	0.711360	0.428370
H1591	H159	0.160830	0.713770	0.540670
H1601	H160	0.124630	0.693870	0.315570
C2421	C242	0.174130	0.758340	0.409470
C2431	C243	0.154790	0.779030	0.372170
H1611	H161	0.124830	0.762770	0.360070
H1621	H162	0.233830	0.720970	0.377870
O551	O55	0.821580	0.101380	0.121480
O561	O56	0.811670	0.111130	0.248100
C2441	C244	0.811470	0.088740	0.189700
C2451	C245	0.797930	0.042460	0.207600
C2461	C246	0.795460	0.014740	0.148900
C2471	C247	0.786570	0.026730	0.282600
H1631	H163	0.803400	0.025100	0.096900
C2481	C248	0.781150	0.971490	0.166400
C2491	C249	0.771800	0.983380	0.299100
H1641	H164	0.788800	0.045700	0.323500
C2501	C250	0.768400	0.955310	0.238300
H1651	H165	0.780400	0.952900	0.126000
H1661	H166	0.764100	0.972800	0.351100
C2511	C251	0.749130	0.908330	0.257200
C2521	C252	0.709100	0.887640	0.294500
H1671	H167	0.695400	0.903900	0.306600
H1681	H168	0.846200	0.945700	0.288800
O571	O57	0.488250	0.434710	0.454810
O581	O58	0.478340	0.444460	0.581430
C2531	C253	0.478140	0.422070	0.523030
C2541	C254	0.464600	0.375790	0.540930
C2551	C255	0.462130	0.348070	0.482230
C2561	C256	0.453240	0.360060	0.615930
H1691	H169	0.470070	0.358430	0.430230
C2571	C257	0.447820	0.304820	0.499730
C2581	C258	0.438470	0.316710	0.632430
H1701	H170	0.455470	0.379030	0.656830
C2591	C259	0.435070	0.288640	0.571630
H1711	H171	0.447070	0.286230	0.459330
H1721	H172	0.430770	0.306130	0.684430
C2601	C260	0.415800	0.241660	0.590530
C2611	C261	0.375770	0.220970	0.627830
H1731	H173	0.362070	0.237230	0.639930
H1741	H174	0.512870	0.279030	0.622130
O591	O59	0.154910	0.768050	0.788150
O601	O60	0.145000	0.777800	0.914770
C2621	C262	0.144800	0.755410	0.856370
C2631	C263	0.131260	0.709130	0.874270
C2641	C264	0.128790	0.681410	0.815570
C2651	C265	0.119900	0.693400	0.949270
H1751	H175	0.136730	0.691770	0.763570
C2661	C266	0.114480	0.638160	0.833070
C2671	C267	0.105130	0.650050	0.965770
H1761	H176	0.122130	0.712370	0.990170
C2681	C268	0.101730	0.621980	0.904970
H1771	H177	0.113730	0.619570	0.792670
H1781	H178	0.097430	0.639470	0.017770
C2691	C269	0.082460	0.575000	0.923870
C2701	C270	0.042430	0.554310	0.961170
H1791	H179	0.028730	0.570570	0.973270
H1801	H180	0.179530	0.612370	0.955470
O611	O61	0.279800	0.178420	0.121480
O621	O62	0.299460	0.188330	0.248100
C2711	C271	0.277270	0.188530	0.189700
C2721	C272	0.244530	0.202070	0.207600
C2731	C273	0.219280	0.204540	0.148900
C2741	C274	0.240160	0.213430	0.282600
H1811	H181	0.221700	0.196600	0.096900
C2751	C275	0.190340	0.218850	0.166400
C2761	C276	0.211580	0.228200	0.299100
H1821	H182	0.256900	0.211200	0.323500
C2771	C277	0.186910	0.231600	0.238300
H1831	H183	0.172500	0.219600	0.126000
H1841	H184	0.208700	0.235900	0.351100
C2781	C278	0.159200	0.250870	0.257200
C2791	C279	0.178540	0.290900	0.294500
H1851	H185	0.208500	0.304600	0.306600
H1861	H186	0.099500	0.153800	0.288800
O631	O63	0.946470	0.511750	0.454810
O641	O64	0.966130	0.521660	0.581430
C2801	C280	0.943940	0.521860	0.523030
C2811	C281	0.911200	0.535400	0.540930
C2821	C282	0.885950	0.537870	0.482230
C2831	C283	0.906830	0.546760	0.615930
H1871	H187	0.888370	0.529930	0.430230
C2841	C284	0.857010	0.552180	0.499730
C2851	C285	0.878250	0.561530	0.632430
H1881	H188	0.923570	0.544530	0.656830
C2861	C286	0.853580	0.564930	0.571630
H1891	H189	0.839170	0.552930	0.459330
H1901	H190	0.875370	0.569230	0.684430
C2871	C287	0.825870	0.584200	0.590530
C2881	C288	0.845210	0.624230	0.627830
H1911	H191	0.875170	0.637930	0.639930
H1921	H192	0.766170	0.487130	0.622130
O651	O65	0.613130	0.845090	0.788150
O661	O66	0.632790	0.855000	0.914770
C2891	C289	0.610600	0.855200	0.856370
C2901	C290	0.577860	0.868740	0.874270
C2911	C291	0.552610	0.871210	0.815570
C2921	C292	0.573490	0.880100	0.949270
H1931	H193	0.555030	0.863270	0.763570
C2931	C293	0.523670	0.885520	0.833070
C2941	C294	0.544910	0.894870	0.965770
H1941	H194	0.590230	0.877870	0.990170
C2951	C295	0.520240	0.898270	0.904970
H1951	H195	0.505830	0.886270	0.792670
H1961	H196	0.542030	0.902570	0.017770
C2961	C296	0.492530	0.917540	0.923870
C2971	C297	0.511870	0.957570	0.961170
H1971	H197	0.541830	0.971270	0.973270
H1981	H198	0.432830	0.820470	0.955470
O671	O67	0.898620	0.720200	0.121480
O681	O68	0.888870	0.700540	0.248100
C2981	C298	0.911260	0.722730	0.189700
C2991	C299	0.957540	0.755470	0.207600
C3001	C300	0.985260	0.780720	0.148900
C3011	C301	0.973270	0.759840	0.282600
H1991	H199	0.974900	0.778300	0.096900
C3021	C302	0.028510	0.809660	0.166400
C3031	C303	0.016620	0.788420	0.299100
H2001	H200	0.954300	0.743100	0.323500
C3041	C304	0.044690	0.813090	0.238300
H2011	H201	0.047100	0.827500	0.126000
H2021	H202	0.027200	0.791300	0.351100
C3051	C305	0.091670	0.840800	0.257200
C3061	C306	0.112360	0.821460	0.294500
H2031	H203	0.096100	0.791500	0.306600
H2041	H204	0.054300	0.900500	0.288800
O691	O69	0.565290	0.053530	0.454810
O701	O70	0.555540	0.033870	0.581430
C3071	C307	0.577930	0.056060	0.523030
C3081	C308	0.624210	0.088800	0.540930
C3091	C309	0.651930	0.114050	0.482230
C3101	C310	0.639940	0.093170	0.615930
H2051	H205	0.641570	0.111630	0.430230
C3111	C311	0.695180	0.142990	0.499730
C3121	C312	0.683290	0.121750	0.632430
H2061	H206	0.620970	0.076430	0.656830
C3131	C313	0.711360	0.146420	0.571630
H2071	H207	0.713770	0.160830	0.459330
H2081	H208	0.693870	0.124630	0.684430
C3141	C314	0.758340	0.174130	0.590530
C3151	C315	0.779030	0.154790	0.627830
H2091	H209	0.762770	0.124830	0.639930
H2101	H210	0.720970	0.233830	0.622130
O711	O71	0.231950	0.386870	0.788150
O721	O72	0.222200	0.367210	0.914770
C3161	C316	0.244590	0.389400	0.856370
C3171	C317	0.290870	0.422140	0.874270
C3181	C318	0.318590	0.447390	0.815570
C3191	C319	0.306600	0.426510	0.949270
H2111	H211	0.308230	0.444970	0.763570
C3201	C320	0.361840	0.476330	0.833070
C3211	C321	0.349950	0.455090	0.965770
H2121	H212	0.287630	0.409770	0.990170
C3221	C322	0.378020	0.479760	0.904970
H2131	H213	0.380430	0.494170	0.792670
H2141	H214	0.360530	0.457970	0.017770
C3231	C323	0.425000	0.507470	0.923870
C3241	C324	0.445690	0.488130	0.961170
H2151	H215	0.429430	0.458170	0.973270
H2161	H216	0.387630	0.567170	0.955470
Cu11	Cu1	0.838920	0.161080	0.092330
Cu21	Cu2	0.505590	0.494410	0.425660
Cu31	Cu3	0.172250	0.827750	0.759000
Cu41	Cu4	0.838920	0.677840	0.092330
Cu51	Cu5	0.505590	0.011170	0.425660
Cu61	Cu6	0.172250	0.344510	0.759000
Cu71	Cu7	0.322160	0.161080	0.092330
Cu81	Cu8	0.988830	0.494410	0.425660
Cu91	Cu9	0.655490	0.827750	0.759000
Cu101	Cu10	0.161080	0.838920	0.907670
Cu111	Cu11	0.827750	0.172250	0.241000
Cu121	Cu12	0.494410	0.505590	0.574340
Cu131	Cu13	0.677840	0.838920	0.907670
Cu141	Cu14	0.344510	0.172250	0.241000
Cu151	Cu15	0.011170	0.505590	0.574340
Cu161	Cu16	0.161080	0.322160	0.907670
Cu171	Cu17	0.827750	0.655490	0.241000
Cu181	Cu18	0.494410	0.988830	0.574340
C3251	C325	0.115430	0.230860	0.238900
C3261	C326	0.155780	0.311560	0.314700
O731	O73	0.095960	0.191930	0.201200
C3271	C327	0.076950	0.153900	0.255300
C3281	C328	0.782100	0.564190	0.572230
C3291	C329	0.822450	0.644890	0.648030
O741	O74	0.762630	0.525260	0.534530
C3301	C330	0.743620	0.487230	0.588630
C3311	C331	0.448760	0.897530	0.905570
C3321	C332	0.489110	0.978230	0.981370
O751	O75	0.429300	0.858600	0.867870
C3331	C333	0.410280	0.820570	0.921970
C3341	C334	0.769140	0.884570	0.238900
C3351	C335	0.688440	0.844220	0.314700
O761	O76	0.808070	0.904040	0.201200
C3361	C336	0.846100	0.923050	0.255300
C3371	C337	0.435810	0.217900	0.572230
C3381	C338	0.355110	0.177550	0.648030
O771	O77	0.474740	0.237370	0.534530
C3391	C339	0.512770	0.256380	0.588630
C3401	C340	0.102470	0.551240	0.905570
C3411	C341	0.021770	0.510890	0.981370
O781	O78	0.141400	0.570700	0.867870
C3421	C342	0.179430	0.589720	0.921970
C3431	C343	0.115430	0.884570	0.238900
C3441	C344	0.155780	0.844220	0.314700
O791	O79	0.095960	0.904040	0.201200
C3451	C345	0.076950	0.923050	0.255300
C3461	C346	0.782100	0.217900	0.572230
C3471	C347	0.822450	0.177550	0.648030
O801	O80	0.762630	0.237370	0.534530
C3481	C348	0.743620	0.256380	0.588630
C3491	C349	0.448760	0.551240	0.905570
C3501	C350	0.489110	0.510890	0.981370
O811	O81	0.429300	0.570700	0.867870
C3511	C351	0.410280	0.589720	0.921970
C3521	C352	0.230860	0.115430	0.761100
C3531	C353	0.311560	0.155780	0.685300
O821	O82	0.191930	0.095960	0.798800
C3541	C354	0.153900	0.076950	0.744700
C3551	C355	0.897530	0.448760	0.094430
C3561	C356	0.978230	0.489110	0.018630
O831	O83	0.858600	0.429300	0.132130
C3571	C357	0.820570	0.410280	0.078030
C3581	C358	0.564190	0.782100	0.427770
C3591	C359	0.644890	0.822450	0.351970
O841	O84	0.525260	0.762630	0.465470
C3601	C360	0.487230	0.743620	0.411370
C3611	C361	0.884570	0.769140	0.761100
C3621	C362	0.844220	0.688440	0.685300
O851	O85	0.904030	0.808070	0.798800
C3631	C363	0.923050	0.846100	0.744700
C3641	C364	0.551240	0.102470	0.094430
C3651	C365	0.510890	0.021770	0.018630
O861	O86	0.570700	0.141400	0.132130
C3661	C366	0.589720	0.179430	0.078030
C3671	C367	0.217900	0.435810	0.427770
C3681	C368	0.177550	0.355110	0.351970
O871	O87	0.237370	0.474740	0.465470
C3691	C369	0.256380	0.512770	0.411370
C3701	C370	0.884570	0.115430	0.761100
C3711	C371	0.844220	0.155780	0.685300
O881	O88	0.904040	0.095960	0.798800
C3721	C372	0.923050	0.076950	0.744700
C3731	C373	0.551240	0.448760	0.094430
C3741	C374	0.510890	0.489110	0.018630
O891	O89	0.570700	0.429300	0.132130
C3751	C375	0.589720	0.410280	0.078030
C3761	C376	0.217900	0.782100	0.427770
C3771	C377	0.177550	0.822450	0.351970
O901	O90	0.237370	0.762630	0.465470
C3781	C378	0.256380	0.743620	0.411370
