data_UMODEH04_clean_PM
_symmetry_space_group_name_H-M	'P1'
_cell_length_a	35.122700
_cell_length_b	35.122700
_cell_length_c	22.160000
_cell_angle_alpha	90.000000
_cell_angle_beta	90.000000
_cell_angle_gamma	120.000000
_symmetry_Int_Tables_number 1

loop_
_symmetry_equiv_pos_as_xyz
'x,y,z'

loop_
_atom_site_label
_atom_site_type_symbol
_atom_site_fract_x
_atom_site_fract_y
_atom_site_fract_z
O11	O1	0.304180	0.191380	0.235050
O21	O2	0.277480	0.177940	0.140590
C11	C1	0.278630	0.190400	0.193530
C21	C2	0.247530	0.205860	0.211560
C31	C3	0.219500	0.208050	0.168010
H11	H1	0.220000	0.199700	0.128300
C41	C4	0.191230	0.222720	0.184910
H21	H2	0.172000	0.223000	0.156400
C51	C5	0.190550	0.236660	0.241630
C61	C6	0.218130	0.234110	0.286280
H31	H3	0.217400	0.242400	0.326000
C71	C7	0.246390	0.218930	0.269160
H41	H4	0.265000	0.217700	0.297900
C81	C8	0.162510	0.255860	0.260470
C91	C9	0.180190	0.293130	0.295830
H51	H5	0.209400	0.305600	0.307800
H61	H6	0.056300	0.157500	0.269400
H71	H7	0.038700	0.122000	0.175400
O31	O3	0.970850	0.524710	0.568380
O41	O4	0.944150	0.511270	0.473920
C101	C10	0.945300	0.523730	0.526860
C111	C11	0.914200	0.539190	0.544890
C121	C12	0.886170	0.541380	0.501340
H81	H8	0.886670	0.533030	0.461630
C131	C13	0.857900	0.556050	0.518240
H91	H9	0.838670	0.556330	0.489730
C141	C14	0.857220	0.569990	0.574960
C151	C15	0.884800	0.567440	0.619610
H101	H10	0.884070	0.575730	0.659330
C161	C16	0.913060	0.552260	0.602490
H111	H11	0.931670	0.551030	0.631230
C171	C17	0.829180	0.589190	0.593800
C181	C18	0.846860	0.626460	0.629160
H121	H12	0.876070	0.638930	0.641130
H131	H13	0.722970	0.490830	0.602730
H141	H14	0.705370	0.455330	0.508730
O51	O5	0.637510	0.858050	0.901720
O61	O6	0.610810	0.844610	0.807260
C191	C19	0.611960	0.857070	0.860200
C201	C20	0.580860	0.872530	0.878230
C211	C21	0.552830	0.874720	0.834680
H151	H15	0.553330	0.866370	0.794970
C221	C22	0.524560	0.889390	0.851580
H161	H16	0.505330	0.889670	0.823070
C231	C23	0.523880	0.903330	0.908300
C241	C24	0.551460	0.900780	0.952950
H171	H17	0.550730	0.909070	0.992670
C251	C25	0.579720	0.885600	0.935830
H181	H18	0.598330	0.884370	0.964570
C261	C26	0.495840	0.922530	0.927140
C271	C27	0.513520	0.959800	0.962500
H191	H19	0.542730	0.972270	0.974470
H201	H20	0.389630	0.824170	0.936070
H211	H21	0.372030	0.788670	0.842070
O71	O7	0.808620	0.112800	0.235050
O81	O8	0.822060	0.099540	0.140590
C281	C28	0.809600	0.088230	0.193530
C291	C29	0.794140	0.041670	0.211560
C301	C30	0.791950	0.011450	0.168010
H221	H22	0.800300	0.020300	0.128300
C311	C31	0.777280	0.968510	0.184910
H231	H23	0.777000	0.949000	0.156400
C321	C32	0.763340	0.953890	0.241630
C331	C33	0.765890	0.984020	0.286280
H241	H24	0.757600	0.975000	0.326000
C341	C34	0.781070	0.027460	0.269160
H251	H25	0.782300	0.047300	0.297900
C351	C35	0.744140	0.906650	0.260470
C361	C36	0.706870	0.887060	0.295830
H261	H26	0.694400	0.903800	0.307800
H271	H27	0.842500	0.898800	0.269400
H281	H28	0.878000	0.916700	0.175400
O91	O9	0.475290	0.446130	0.568380
O101	O10	0.488730	0.432870	0.473920
C371	C37	0.476270	0.421560	0.526860
C381	C38	0.460810	0.375000	0.544890
C391	C39	0.458620	0.344780	0.501340
H291	H29	0.466970	0.353630	0.461630
C401	C40	0.443950	0.301840	0.518240
H301	H30	0.443670	0.282330	0.489730
C411	C41	0.430010	0.287220	0.574960
C421	C42	0.432560	0.317350	0.619610
H311	H31	0.424270	0.308330	0.659330
C431	C43	0.447740	0.360790	0.602490
H321	H32	0.448970	0.380630	0.631230
C441	C44	0.410810	0.239980	0.593800
C451	C45	0.373540	0.220390	0.629160
H331	H33	0.361070	0.237130	0.641130
H341	H34	0.509170	0.232130	0.602730
H351	H35	0.544670	0.250030	0.508730
O111	O11	0.141950	0.779470	0.901720
O121	O12	0.155390	0.766210	0.807260
C461	C46	0.142930	0.754900	0.860200
C471	C47	0.127470	0.708340	0.878230
C481	C48	0.125280	0.678120	0.834680
H361	H36	0.133630	0.686970	0.794970
C491	C49	0.110610	0.635180	0.851580
H371	H37	0.110330	0.615670	0.823070
C501	C50	0.096670	0.620560	0.908300
C511	C51	0.099220	0.650690	0.952950
H381	H38	0.090930	0.641670	0.992670
C521	C52	0.114400	0.694130	0.935830
H391	H39	0.115630	0.713970	0.964570
C531	C53	0.077470	0.573320	0.927140
C541	C54	0.040200	0.553730	0.962500
H401	H40	0.027730	0.570470	0.974470
H411	H41	0.175830	0.565470	0.936070
H421	H42	0.211330	0.583370	0.842070
O131	O13	0.887200	0.695820	0.235050
O141	O14	0.900460	0.722520	0.140590
C551	C55	0.911770	0.721370	0.193530
C561	C56	0.958330	0.752470	0.211560
C571	C57	0.988550	0.780500	0.168010
H431	H43	0.979700	0.780000	0.128300
C581	C58	0.031490	0.808770	0.184910
H441	H44	0.051000	0.828000	0.156400
C591	C59	0.046110	0.809450	0.241630
C601	C60	0.015980	0.781870	0.286280
H451	H45	0.025000	0.782600	0.326000
C611	C61	0.972540	0.753610	0.269160
H461	H46	0.952700	0.735000	0.297900
C621	C62	0.093350	0.837490	0.260470
C631	C63	0.112940	0.819810	0.295830
H471	H47	0.096200	0.790600	0.307800
H481	H48	0.101200	0.943700	0.269400
H491	H49	0.083300	0.961300	0.175400
O151	O15	0.553870	0.029150	0.568380
O161	O16	0.567130	0.055850	0.473920
C641	C64	0.578440	0.054700	0.526860
C651	C65	0.625000	0.085800	0.544890
C661	C66	0.655220	0.113830	0.501340
H501	H50	0.646370	0.113330	0.461630
C671	C67	0.698160	0.142100	0.518240
H511	H51	0.717670	0.161330	0.489730
C681	C68	0.712780	0.142780	0.574960
C691	C69	0.682650	0.115200	0.619610
H521	H52	0.691670	0.115930	0.659330
C701	C70	0.639210	0.086940	0.602490
H531	H53	0.619370	0.068330	0.631230
C711	C71	0.760020	0.170820	0.593800
C721	C72	0.779610	0.153140	0.629160
H541	H54	0.762870	0.123930	0.641130
H551	H55	0.767870	0.277030	0.602730
H561	H56	0.749970	0.294630	0.508730
O171	O17	0.220530	0.362490	0.901720
O181	O18	0.233790	0.389190	0.807260
C731	C73	0.245100	0.388040	0.860200
C741	C74	0.291660	0.419140	0.878230
C751	C75	0.321880	0.447170	0.834680
H571	H57	0.313030	0.446670	0.794970
C761	C76	0.364820	0.475440	0.851580
H581	H58	0.384330	0.494670	0.823070
C771	C77	0.379440	0.476120	0.908300
C781	C78	0.349310	0.448540	0.952950
H591	H59	0.358330	0.449270	0.992670
C791	C79	0.305870	0.420280	0.935830
H601	H60	0.286030	0.401670	0.964570
C801	C80	0.426680	0.504160	0.927140
C811	C81	0.446270	0.486480	0.962500
H611	H61	0.429530	0.457270	0.974470
H621	H62	0.434530	0.610370	0.936070
H631	H63	0.416630	0.627970	0.842070
O191	O19	0.191380	0.304180	0.764950
O201	O20	0.177940	0.277480	0.859410
C821	C82	0.190400	0.278630	0.806470
C831	C83	0.205860	0.247530	0.788440
C841	C84	0.208050	0.219500	0.831990
H641	H64	0.199700	0.220000	0.871700
C851	C85	0.222720	0.191230	0.815090
H651	H65	0.223000	0.172000	0.843600
C861	C86	0.236660	0.190550	0.758370
C871	C87	0.234110	0.218130	0.713720
H661	H66	0.242400	0.217400	0.674000
C881	C88	0.218930	0.246390	0.730840
H671	H67	0.217700	0.265000	0.702100
C891	C89	0.255860	0.162510	0.739530
C901	C90	0.293130	0.180190	0.704170
H681	H68	0.305600	0.209400	0.692200
H691	H69	0.157500	0.056300	0.730600
H701	H70	0.122000	0.038700	0.824600
O211	O21	0.858050	0.637510	0.098280
O221	O22	0.844610	0.610810	0.192740
C911	C91	0.857070	0.611960	0.139800
C921	C92	0.872530	0.580860	0.121770
C931	C93	0.874720	0.552830	0.165320
H711	H71	0.866370	0.553330	0.205030
C941	C94	0.889390	0.524560	0.148420
H721	H72	0.889670	0.505330	0.176930
C951	C95	0.903330	0.523880	0.091700
C961	C96	0.900780	0.551460	0.047050
H731	H73	0.909070	0.550730	0.007330
C971	C97	0.885600	0.579720	0.064170
H741	H74	0.884370	0.598330	0.035430
C981	C98	0.922530	0.495840	0.072860
C991	C99	0.959800	0.513520	0.037500
H751	H75	0.972270	0.542730	0.025530
H761	H76	0.824170	0.389630	0.063930
H771	H77	0.788670	0.372030	0.157930
O231	O23	0.524710	0.970850	0.431620
O241	O24	0.511270	0.944150	0.526080
C1001	C100	0.523730	0.945300	0.473140
C1011	C101	0.539190	0.914200	0.455110
C1021	C102	0.541380	0.886170	0.498660
H781	H78	0.533030	0.886670	0.538370
C1031	C103	0.556050	0.857900	0.481760
H791	H79	0.556330	0.838670	0.510270
C1041	C104	0.569990	0.857220	0.425040
C1051	C105	0.567440	0.884800	0.380390
H801	H80	0.575730	0.884070	0.340670
C1061	C106	0.552260	0.913060	0.397510
H811	H81	0.551030	0.931670	0.368770
C1071	C107	0.589190	0.829180	0.406200
C1081	C108	0.626460	0.846860	0.370840
H821	H82	0.638930	0.876070	0.358870
H831	H83	0.490830	0.722970	0.397270
H841	H84	0.455330	0.705370	0.491270
O251	O25	0.112800	0.808620	0.764950
O261	O26	0.099540	0.822060	0.859410
C1091	C109	0.088230	0.809600	0.806470
C1101	C110	0.041670	0.794140	0.788440
C1111	C111	0.011450	0.791950	0.831990
H851	H85	0.020300	0.800300	0.871700
C1121	C112	0.968510	0.777280	0.815090
H861	H86	0.949000	0.777000	0.843600
C1131	C113	0.953890	0.763340	0.758370
C1141	C114	0.984020	0.765890	0.713720
H871	H87	0.975000	0.757600	0.674000
C1151	C115	0.027460	0.781070	0.730840
H881	H88	0.047300	0.782300	0.702100
C1161	C116	0.906650	0.744140	0.739530
C1171	C117	0.887060	0.706870	0.704170
H891	H89	0.903800	0.694400	0.692200
H901	H90	0.898800	0.842500	0.730600
H911	H91	0.916700	0.878000	0.824600
O271	O27	0.779470	0.141950	0.098280
O281	O28	0.766210	0.155390	0.192740
C1181	C118	0.754900	0.142930	0.139800
C1191	C119	0.708340	0.127470	0.121770
C1201	C120	0.678120	0.125280	0.165320
H921	H92	0.686970	0.133630	0.205030
C1211	C121	0.635180	0.110610	0.148420
H931	H93	0.615670	0.110330	0.176930
C1221	C122	0.620560	0.096670	0.091700
C1231	C123	0.650690	0.099220	0.047050
H941	H94	0.641670	0.090930	0.007330
C1241	C124	0.694130	0.114400	0.064170
H951	H95	0.713970	0.115630	0.035430
C1251	C125	0.573320	0.077470	0.072860
C1261	C126	0.553730	0.040200	0.037500
H961	H96	0.570470	0.027730	0.025530
H971	H97	0.565470	0.175830	0.063930
H981	H98	0.583370	0.211330	0.157930
O291	O29	0.446130	0.475290	0.431620
O301	O30	0.432870	0.488730	0.526080
C1271	C127	0.421560	0.476270	0.473140
C1281	C128	0.375000	0.460810	0.455110
C1291	C129	0.344780	0.458620	0.498660
H991	H99	0.353630	0.466970	0.538370
C1301	C130	0.301840	0.443950	0.481760
H1001	H100	0.282330	0.443670	0.510270
C1311	C131	0.287220	0.430010	0.425040
C1321	C132	0.317350	0.432560	0.380390
H1011	H101	0.308330	0.424270	0.340670
C1331	C133	0.360790	0.447740	0.397510
H1021	H102	0.380630	0.448970	0.368770
C1341	C134	0.239980	0.410810	0.406200
C1351	C135	0.220390	0.373540	0.370840
H1031	H103	0.237130	0.361070	0.358870
H1041	H104	0.232130	0.509170	0.397270
H1051	H105	0.250030	0.544670	0.491270
O311	O31	0.695820	0.887200	0.764950
O321	O32	0.722520	0.900460	0.859410
C1361	C136	0.721370	0.911770	0.806470
C1371	C137	0.752470	0.958330	0.788440
C1381	C138	0.780500	0.988550	0.831990
H1061	H106	0.780000	0.979700	0.871700
C1391	C139	0.808770	0.031490	0.815090
H1071	H107	0.828000	0.051000	0.843600
C1401	C140	0.809450	0.046110	0.758370
C1411	C141	0.781870	0.015980	0.713720
H1081	H108	0.782600	0.025000	0.674000
C1421	C142	0.753610	0.972540	0.730840
H1091	H109	0.735000	0.952700	0.702100
C1431	C143	0.837490	0.093350	0.739530
C1441	C144	0.819810	0.112940	0.704170
H1101	H110	0.790600	0.096200	0.692200
H1111	H111	0.943700	0.101200	0.730600
H1121	H112	0.961300	0.083300	0.824600
O331	O33	0.362490	0.220530	0.098280
O341	O34	0.389190	0.233790	0.192740
C1451	C145	0.388040	0.245100	0.139800
C1461	C146	0.419140	0.291660	0.121770
C1471	C147	0.447170	0.321880	0.165320
H1131	H113	0.446670	0.313030	0.205030
C1481	C148	0.475440	0.364820	0.148420
H1141	H114	0.494670	0.384330	0.176930
C1491	C149	0.476120	0.379440	0.091700
C1501	C150	0.448540	0.349310	0.047050
H1151	H115	0.449270	0.358330	0.007330
C1511	C151	0.420280	0.305870	0.064170
H1161	H116	0.401670	0.286030	0.035430
C1521	C152	0.504160	0.426680	0.072860
C1531	C153	0.486480	0.446270	0.037500
H1171	H117	0.457270	0.429530	0.025530
H1181	H118	0.610370	0.434530	0.063930
H1191	H119	0.627970	0.416630	0.157930
O351	O35	0.029150	0.553870	0.431620
O361	O36	0.055850	0.567130	0.526080
C1541	C154	0.054700	0.578440	0.473140
C1551	C155	0.085800	0.625000	0.455110
C1561	C156	0.113830	0.655220	0.498660
H1201	H120	0.113330	0.646370	0.538370
C1571	C157	0.142100	0.698160	0.481760
H1211	H121	0.161330	0.717670	0.510270
C1581	C158	0.142780	0.712780	0.425040
C1591	C159	0.115200	0.682650	0.380390
H1221	H122	0.115930	0.691670	0.340670
C1601	C160	0.086940	0.639210	0.397510
H1231	H123	0.068330	0.619370	0.368770
C1611	C161	0.170820	0.760020	0.406200
C1621	C162	0.153140	0.779610	0.370840
H1241	H124	0.123930	0.762870	0.358870
H1251	H125	0.277030	0.767870	0.397270
H1261	H126	0.294630	0.749970	0.491270
O371	O37	0.695820	0.808620	0.764950
O381	O38	0.722520	0.822060	0.859410
C1631	C163	0.721370	0.809600	0.806470
C1641	C164	0.752470	0.794140	0.788440
C1651	C165	0.780500	0.791950	0.831990
H1271	H127	0.780000	0.800300	0.871700
C1661	C166	0.808770	0.777280	0.815090
H1281	H128	0.828000	0.777000	0.843600
C1671	C167	0.809450	0.763340	0.758370
C1681	C168	0.781870	0.765890	0.713720
H1291	H129	0.782600	0.757600	0.674000
C1691	C169	0.753610	0.781070	0.730840
H1301	H130	0.735000	0.782300	0.702100
C1701	C170	0.837490	0.744140	0.739530
C1711	C171	0.819810	0.706870	0.704170
H1311	H131	0.790600	0.694400	0.692200
H1321	H132	0.943700	0.842500	0.730600
H1331	H133	0.961300	0.878000	0.824600
O391	O39	0.362490	0.141950	0.098280
O401	O40	0.389190	0.155390	0.192740
C1721	C172	0.388040	0.142930	0.139800
C1731	C173	0.419140	0.127470	0.121770
C1741	C174	0.447170	0.125280	0.165320
H1341	H134	0.446670	0.133630	0.205030
C1751	C175	0.475440	0.110610	0.148420
H1351	H135	0.494670	0.110330	0.176930
C1761	C176	0.476120	0.096670	0.091700
C1771	C177	0.448540	0.099220	0.047050
H1361	H136	0.449270	0.090930	0.007330
C1781	C178	0.420280	0.114400	0.064170
H1371	H137	0.401670	0.115630	0.035430
C1791	C179	0.504160	0.077470	0.072860
C1801	C180	0.486480	0.040200	0.037500
H1381	H138	0.457270	0.027730	0.025530
H1391	H139	0.610370	0.175830	0.063930
H1401	H140	0.627970	0.211330	0.157930
O411	O41	0.029150	0.475290	0.431620
O421	O42	0.055850	0.488730	0.526080
C1811	C181	0.054700	0.476270	0.473140
C1821	C182	0.085800	0.460810	0.455110
C1831	C183	0.113830	0.458620	0.498660
H1411	H141	0.113330	0.466970	0.538370
C1841	C184	0.142100	0.443950	0.481760
H1421	H142	0.161330	0.443670	0.510270
C1851	C185	0.142780	0.430010	0.425040
C1861	C186	0.115200	0.432560	0.380390
H1431	H143	0.115930	0.424270	0.340670
C1871	C187	0.086940	0.447740	0.397510
H1441	H144	0.068330	0.448970	0.368770
C1881	C188	0.170820	0.410810	0.406200
C1891	C189	0.153140	0.373540	0.370840
H1451	H145	0.123930	0.361070	0.358870
H1461	H146	0.277030	0.509170	0.397270
H1471	H147	0.294630	0.544670	0.491270
O431	O43	0.191380	0.887200	0.764950
O441	O44	0.177940	0.900460	0.859410
C1901	C190	0.190400	0.911770	0.806470
C1911	C191	0.205860	0.958330	0.788440
C1921	C192	0.208050	0.988550	0.831990
H1481	H148	0.199700	0.979700	0.871700
C1931	C193	0.222720	0.031490	0.815090
H1491	H149	0.223000	0.051000	0.843600
C1941	C194	0.236660	0.046110	0.758370
C1951	C195	0.234110	0.015980	0.713720
H1501	H150	0.242400	0.025000	0.674000
C1961	C196	0.218930	0.972540	0.730840
H1511	H151	0.217700	0.952700	0.702100
C1971	C197	0.255860	0.093350	0.739530
C1981	C198	0.293130	0.112940	0.704170
H1521	H152	0.305600	0.096200	0.692200
H1531	H153	0.157500	0.101200	0.730600
H1541	H154	0.122000	0.083300	0.824600
O451	O45	0.858050	0.220530	0.098280
O461	O46	0.844610	0.233790	0.192740
C1991	C199	0.857070	0.245100	0.139800
C2001	C200	0.872530	0.291660	0.121770
C2011	C201	0.874720	0.321880	0.165320
H1551	H155	0.866370	0.313030	0.205030
C2021	C202	0.889390	0.364820	0.148420
H1561	H156	0.889670	0.384330	0.176930
C2031	C203	0.903330	0.379440	0.091700
C2041	C204	0.900780	0.349310	0.047050
H1571	H157	0.909070	0.358330	0.007330
C2051	C205	0.885600	0.305870	0.064170
H1581	H158	0.884370	0.286030	0.035430
C2061	C206	0.922530	0.426680	0.072860
C2071	C207	0.959800	0.446270	0.037500
H1591	H159	0.972270	0.429530	0.025530
H1601	H160	0.824170	0.434530	0.063930
H1611	H161	0.788670	0.416630	0.157930
O471	O47	0.524710	0.553870	0.431620
O481	O48	0.511270	0.567130	0.526080
C2081	C208	0.523730	0.578440	0.473140
C2091	C209	0.539190	0.625000	0.455110
C2101	C210	0.541380	0.655220	0.498660
H1621	H162	0.533030	0.646370	0.538370
C2111	C211	0.556050	0.698160	0.481760
H1631	H163	0.556330	0.717670	0.510270
C2121	C212	0.569990	0.712780	0.425040
C2131	C213	0.567440	0.682650	0.380390
H1641	H164	0.575730	0.691670	0.340670
C2141	C214	0.552260	0.639210	0.397510
H1651	H165	0.551030	0.619370	0.368770
C2151	C215	0.589190	0.760020	0.406200
C2161	C216	0.626460	0.779610	0.370840
H1661	H166	0.638930	0.762870	0.358870
H1671	H167	0.490830	0.767870	0.397270
H1681	H168	0.455330	0.749970	0.491270
O491	O49	0.112800	0.304180	0.764950
O501	O50	0.099540	0.277480	0.859410
C2171	C217	0.088230	0.278630	0.806470
C2181	C218	0.041670	0.247530	0.788440
C2191	C219	0.011450	0.219500	0.831990
H1691	H169	0.020300	0.220000	0.871700
C2201	C220	0.968510	0.191230	0.815090
H1701	H170	0.949000	0.172000	0.843600
C2211	C221	0.953890	0.190550	0.758370
C2221	C222	0.984020	0.218130	0.713720
H1711	H171	0.975000	0.217400	0.674000
C2231	C223	0.027460	0.246390	0.730840
H1721	H172	0.047300	0.265000	0.702100
C2241	C224	0.906650	0.162510	0.739530
C2251	C225	0.887060	0.180190	0.704170
H1731	H173	0.903800	0.209400	0.692200
H1741	H174	0.898800	0.056300	0.730600
H1751	H175	0.916700	0.038700	0.824600
O511	O51	0.779470	0.637510	0.098280
O521	O52	0.766210	0.610810	0.192740
C2261	C226	0.754900	0.611960	0.139800
C2271	C227	0.708340	0.580860	0.121770
C2281	C228	0.678120	0.552830	0.165320
H1761	H176	0.686970	0.553330	0.205030
C2291	C229	0.635180	0.524560	0.148420
H1771	H177	0.615670	0.505330	0.176930
C2301	C230	0.620560	0.523880	0.091700
C2311	C231	0.650690	0.551460	0.047050
H1781	H178	0.641670	0.550730	0.007330
C2321	C232	0.694130	0.579720	0.064170
H1791	H179	0.713970	0.598330	0.035430
C2331	C233	0.573320	0.495840	0.072860
C2341	C234	0.553730	0.513520	0.037500
H1801	H180	0.570470	0.542730	0.025530
H1811	H181	0.565470	0.389630	0.063930
H1821	H182	0.583370	0.372030	0.157930
O531	O53	0.446130	0.970850	0.431620
O541	O54	0.432870	0.944150	0.526080
C2351	C235	0.421560	0.945300	0.473140
C2361	C236	0.375000	0.914200	0.455110
C2371	C237	0.344780	0.886170	0.498660
H1831	H183	0.353630	0.886670	0.538370
C2381	C238	0.301840	0.857900	0.481760
H1841	H184	0.282330	0.838670	0.510270
C2391	C239	0.287220	0.857220	0.425040
C2401	C240	0.317350	0.884800	0.380390
H1851	H185	0.308330	0.884070	0.340670
C2411	C241	0.360790	0.913060	0.397510
H1861	H186	0.380630	0.931670	0.368770
C2421	C242	0.239980	0.829180	0.406200
C2431	C243	0.220390	0.846860	0.370840
H1871	H187	0.237130	0.876070	0.358870
H1881	H188	0.232130	0.722970	0.397270
H1891	H189	0.250030	0.705370	0.491270
O551	O55	0.808620	0.695820	0.235050
O561	O56	0.822060	0.722520	0.140590
C2441	C244	0.809600	0.721370	0.193530
C2451	C245	0.794140	0.752470	0.211560
C2461	C246	0.791950	0.780500	0.168010
H1901	H190	0.800300	0.780000	0.128300
C2471	C247	0.777280	0.808770	0.184910
H1911	H191	0.777000	0.828000	0.156400
C2481	C248	0.763340	0.809450	0.241630
C2491	C249	0.765890	0.781870	0.286280
H1921	H192	0.757600	0.782600	0.326000
C2501	C250	0.781070	0.753610	0.269160
H1931	H193	0.782300	0.735000	0.297900
C2511	C251	0.744140	0.837490	0.260470
C2521	C252	0.706870	0.819810	0.295830
H1941	H194	0.694400	0.790600	0.307800
H1951	H195	0.842500	0.943700	0.269400
H1961	H196	0.878000	0.961300	0.175400
O571	O57	0.475290	0.029150	0.568380
O581	O58	0.488730	0.055850	0.473920
C2531	C253	0.476270	0.054700	0.526860
C2541	C254	0.460810	0.085800	0.544890
C2551	C255	0.458620	0.113830	0.501340
H1971	H197	0.466970	0.113330	0.461630
C2561	C256	0.443950	0.142100	0.518240
H1981	H198	0.443670	0.161330	0.489730
C2571	C257	0.430010	0.142780	0.574960
C2581	C258	0.432560	0.115200	0.619610
H1991	H199	0.424270	0.115930	0.659330
C2591	C259	0.447740	0.086940	0.602490
H2001	H200	0.448970	0.068330	0.631230
C2601	C260	0.410810	0.170820	0.593800
C2611	C261	0.373540	0.153140	0.629160
H2011	H201	0.361070	0.123930	0.641130
H2021	H202	0.509170	0.277030	0.602730
H2031	H203	0.544670	0.294630	0.508730
O591	O59	0.141950	0.362490	0.901720
O601	O60	0.155390	0.389190	0.807260
C2621	C262	0.142930	0.388040	0.860200
C2631	C263	0.127470	0.419140	0.878230
C2641	C264	0.125280	0.447170	0.834680
H2041	H204	0.133630	0.446670	0.794970
C2651	C265	0.110610	0.475440	0.851580
H2051	H205	0.110330	0.494670	0.823070
C2661	C266	0.096670	0.476120	0.908300
C2671	C267	0.099220	0.448540	0.952950
H2061	H206	0.090930	0.449270	0.992670
C2681	C268	0.114400	0.420280	0.935830
H2071	H207	0.115630	0.401670	0.964570
C2691	C269	0.077470	0.504160	0.927140
C2701	C270	0.040200	0.486480	0.962500
H2081	H208	0.027730	0.457270	0.974470
H2091	H209	0.175830	0.610370	0.936070
H2101	H210	0.211330	0.627970	0.842070
O611	O61	0.887200	0.191380	0.235050
O621	O62	0.900460	0.177940	0.140590
C2711	C271	0.911770	0.190400	0.193530
C2721	C272	0.958330	0.205860	0.211560
C2731	C273	0.988550	0.208050	0.168010
H2111	H211	0.979700	0.199700	0.128300
C2741	C274	0.031490	0.222720	0.184910
H2121	H212	0.051000	0.223000	0.156400
C2751	C275	0.046110	0.236660	0.241630
C2761	C276	0.015980	0.234110	0.286280
H2131	H213	0.025000	0.242400	0.326000
C2771	C277	0.972540	0.218930	0.269160
H2141	H214	0.952700	0.217700	0.297900
C2781	C278	0.093350	0.255860	0.260470
C2791	C279	0.112940	0.293130	0.295830
H2151	H215	0.096200	0.305600	0.307800
H2161	H216	0.101200	0.157500	0.269400
H2171	H217	0.083300	0.122000	0.175400
O631	O63	0.553870	0.524710	0.568380
O641	O64	0.567130	0.511270	0.473920
C2801	C280	0.578440	0.523730	0.526860
C2811	C281	0.625000	0.539190	0.544890
C2821	C282	0.655220	0.541380	0.501340
H2181	H218	0.646370	0.533030	0.461630
C2831	C283	0.698160	0.556050	0.518240
H2191	H219	0.717670	0.556330	0.489730
C2841	C284	0.712780	0.569990	0.574960
C2851	C285	0.682650	0.567440	0.619610
H2201	H220	0.691670	0.575730	0.659330
C2861	C286	0.639210	0.552260	0.602490
H2211	H221	0.619370	0.551030	0.631230
C2871	C287	0.760020	0.589190	0.593800
C2881	C288	0.779610	0.626460	0.629160
H2221	H222	0.762870	0.638930	0.641130
H2231	H223	0.767870	0.490830	0.602730
H2241	H224	0.749970	0.455330	0.508730
O651	O65	0.220530	0.858050	0.901720
O661	O66	0.233790	0.844610	0.807260
C2891	C289	0.245100	0.857070	0.860200
C2901	C290	0.291660	0.872530	0.878230
C2911	C291	0.321880	0.874720	0.834680
H2251	H225	0.313030	0.866370	0.794970
C2921	C292	0.364820	0.889390	0.851580
H2261	H226	0.384330	0.889670	0.823070
C2931	C293	0.379440	0.903330	0.908300
C2941	C294	0.349310	0.900780	0.952950
H2271	H227	0.358330	0.909070	0.992670
C2951	C295	0.305870	0.885600	0.935830
H2281	H228	0.286030	0.884370	0.964570
C2961	C296	0.426680	0.922530	0.927140
C2971	C297	0.446270	0.959800	0.962500
H2291	H229	0.429530	0.972270	0.974470
H2301	H230	0.434530	0.824170	0.936070
H2311	H231	0.416630	0.788670	0.842070
O671	O67	0.304180	0.112800	0.235050
O681	O68	0.277480	0.099540	0.140590
C2981	C298	0.278630	0.088230	0.193530
C2991	C299	0.247530	0.041670	0.211560
C3001	C300	0.219500	0.011450	0.168010
H2321	H232	0.220000	0.020300	0.128300
C3011	C301	0.191230	0.968510	0.184910
H2331	H233	0.172000	0.949000	0.156400
C3021	C302	0.190550	0.953890	0.241630
C3031	C303	0.218130	0.984020	0.286280
H2341	H234	0.217400	0.975000	0.326000
C3041	C304	0.246390	0.027460	0.269160
H2351	H235	0.265000	0.047300	0.297900
C3051	C305	0.162510	0.906650	0.260470
C3061	C306	0.180190	0.887060	0.295830
H2361	H236	0.209400	0.903800	0.307800
H2371	H237	0.056300	0.898800	0.269400
H2381	H238	0.038700	0.916700	0.175400
O691	O69	0.970850	0.446130	0.568380
O701	O70	0.944150	0.432870	0.473920
C3071	C307	0.945300	0.421560	0.526860
C3081	C308	0.914200	0.375000	0.544890
C3091	C309	0.886170	0.344780	0.501340
H2391	H239	0.886670	0.353630	0.461630
C3101	C310	0.857900	0.301840	0.518240
H2401	H240	0.838670	0.282330	0.489730
C3111	C311	0.857220	0.287220	0.574960
C3121	C312	0.884800	0.317350	0.619610
H2411	H241	0.884070	0.308330	0.659330
C3131	C313	0.913060	0.360790	0.602490
H2421	H242	0.931670	0.380630	0.631230
C3141	C314	0.829180	0.239980	0.593800
C3151	C315	0.846860	0.220390	0.629160
H2431	H243	0.876070	0.237130	0.641130
H2441	H244	0.722970	0.232130	0.602730
H2451	H245	0.705370	0.250030	0.508730
O711	O71	0.637510	0.779470	0.901720
O721	O72	0.610810	0.766210	0.807260
C3161	C316	0.611960	0.754900	0.860200
C3171	C317	0.580860	0.708340	0.878230
C3181	C318	0.552830	0.678120	0.834680
H2461	H246	0.553330	0.686970	0.794970
C3191	C319	0.524560	0.635180	0.851580
H2471	H247	0.505330	0.615670	0.823070
C3201	C320	0.523880	0.620560	0.908300
C3211	C321	0.551460	0.650690	0.952950
H2481	H248	0.550730	0.641670	0.992670
C3221	C322	0.579720	0.694130	0.935830
H2491	H249	0.598330	0.713970	0.964570
C3231	C323	0.495840	0.573320	0.927140
C3241	C324	0.513520	0.553730	0.962500
H2501	H250	0.542730	0.570470	0.974470
H2511	H251	0.389630	0.565470	0.936070
H2521	H252	0.372030	0.583370	0.842070
Cu11	Cu1	0.317950	0.158970	0.110970
Cu21	Cu2	0.984620	0.492310	0.444300
Cu31	Cu3	0.651280	0.825640	0.777640
Cu41	Cu4	0.841030	0.158970	0.110970
Cu51	Cu5	0.507690	0.492310	0.444300
Cu61	Cu6	0.174360	0.825640	0.777640
Cu71	Cu7	0.841030	0.682050	0.110970
Cu81	Cu8	0.507690	0.015380	0.444300
Cu91	Cu9	0.174360	0.348720	0.777640
Cu101	Cu10	0.158970	0.317950	0.889030
Cu111	Cu11	0.825640	0.651280	0.222360
Cu121	Cu12	0.492310	0.984620	0.555700
Cu131	Cu13	0.158970	0.841030	0.889030
Cu141	Cu14	0.825640	0.174360	0.222360
Cu151	Cu15	0.492310	0.507690	0.555700
Cu161	Cu16	0.682050	0.841030	0.889030
Cu171	Cu17	0.348720	0.174360	0.222360
Cu181	Cu18	0.015380	0.507690	0.555700
O731	O73	0.099410	0.198830	0.208210
C3251	C325	0.156490	0.312990	0.314500
C3261	C326	0.118320	0.236650	0.243000
C3271	C327	0.079330	0.158650	0.243900
C3281	C328	0.060300	0.120600	0.200300
H2531	H253	0.046700	0.093400	0.222500
O741	O74	0.766080	0.532160	0.541540
C3291	C329	0.823160	0.646320	0.647830
C3301	C330	0.784990	0.569980	0.576330
C3311	C331	0.745990	0.491980	0.577230
C3321	C332	0.726970	0.453930	0.533630
H2541	H254	0.713370	0.426730	0.555830
O751	O75	0.432750	0.865500	0.874880
C3331	C333	0.489830	0.979660	0.981170
C3341	C334	0.451660	0.903320	0.909670
C3351	C335	0.412660	0.825320	0.910570
C3361	C336	0.393630	0.787270	0.866970
H2551	H255	0.380030	0.760070	0.889170
O761	O76	0.801170	0.900590	0.208210
C3371	C337	0.687010	0.843510	0.314500
C3381	C338	0.763350	0.881670	0.243000
C3391	C339	0.841350	0.920670	0.243900
C3401	C340	0.879400	0.939700	0.200300
H2561	H256	0.906600	0.953300	0.222500
O771	O77	0.467840	0.233920	0.541540
C3411	C341	0.353680	0.176840	0.647830
C3421	C342	0.430020	0.215010	0.576330
C3431	C343	0.508020	0.254010	0.577230
C3441	C344	0.546070	0.273030	0.533630
H2571	H257	0.573270	0.286630	0.555830
O781	O78	0.134500	0.567250	0.874880
C3451	C345	0.020340	0.510170	0.981170
C3461	C346	0.096680	0.548340	0.909670
C3471	C347	0.174680	0.587340	0.910570
C3481	C348	0.212730	0.606370	0.866970
H2581	H258	0.239930	0.619970	0.889170
O791	O79	0.099410	0.900590	0.208210
C3491	C349	0.156490	0.843510	0.314500
C3501	C350	0.118320	0.881680	0.243000
C3511	C351	0.079330	0.920670	0.243900
C3521	C352	0.060300	0.939700	0.200300
H2591	H259	0.046700	0.953300	0.222500
O801	O80	0.766080	0.233920	0.541540
C3531	C353	0.823160	0.176840	0.647830
C3541	C354	0.784990	0.215010	0.576330
C3551	C355	0.745990	0.254010	0.577230
C3561	C356	0.726970	0.273030	0.533630
H2601	H260	0.713370	0.286630	0.555830
O811	O81	0.432750	0.567250	0.874880
C3571	C357	0.489830	0.510170	0.981170
C3581	C358	0.451660	0.548340	0.909670
C3591	C359	0.412660	0.587340	0.910570
C3601	C360	0.393630	0.606370	0.866970
H2611	H261	0.380030	0.619970	0.889170
O821	O82	0.198830	0.099410	0.791790
C3611	C361	0.312990	0.156490	0.685500
C3621	C362	0.236650	0.118320	0.757000
C3631	C363	0.158650	0.079330	0.756100
C3641	C364	0.120600	0.060300	0.799700
H2621	H262	0.093400	0.046700	0.777500
O831	O83	0.865500	0.432750	0.125120
C3651	C365	0.979660	0.489830	0.018830
C3661	C366	0.903320	0.451660	0.090330
C3671	C367	0.825320	0.412660	0.089430
C3681	C368	0.787270	0.393630	0.133030
H2631	H263	0.760070	0.380030	0.110830
O841	O84	0.532160	0.766080	0.458460
C3691	C369	0.646320	0.823160	0.352170
C3701	C370	0.569980	0.784990	0.423670
C3711	C371	0.491980	0.745990	0.422770
C3721	C372	0.453930	0.726970	0.466370
H2641	H264	0.426730	0.713370	0.444170
O851	O85	0.900590	0.801170	0.791790
C3731	C373	0.843510	0.687010	0.685500
C3741	C374	0.881680	0.763350	0.757000
C3751	C375	0.920680	0.841350	0.756100
C3761	C376	0.939700	0.879400	0.799700
H2651	H265	0.953300	0.906600	0.777500
O861	O86	0.567250	0.134500	0.125120
C3771	C377	0.510170	0.020340	0.018830
C3781	C378	0.548340	0.096680	0.090330
C3791	C379	0.587340	0.174680	0.089430
C3801	C380	0.606370	0.212730	0.133030
H2661	H266	0.619970	0.239930	0.110830
O871	O87	0.233920	0.467840	0.458460
C3811	C381	0.176840	0.353680	0.352170
C3821	C382	0.215010	0.430020	0.423670
C3831	C383	0.254010	0.508020	0.422770
C3841	C384	0.273030	0.546070	0.466370
H2671	H267	0.286630	0.573270	0.444170
O881	O88	0.900590	0.099410	0.791790
C3851	C385	0.843510	0.156490	0.685500
C3861	C386	0.881680	0.118320	0.757000
C3871	C387	0.920680	0.079330	0.756100
C3881	C388	0.939700	0.060300	0.799700
H2681	H268	0.953300	0.046700	0.777500
O891	O89	0.567250	0.432750	0.125120
C3891	C389	0.510170	0.489830	0.018830
C3901	C390	0.548340	0.451660	0.090330
C3911	C391	0.587340	0.412660	0.089430
C3921	C392	0.606370	0.393630	0.133030
H2691	H269	0.619970	0.380030	0.110830
O901	O90	0.233920	0.766080	0.458460
C3931	C393	0.176840	0.823160	0.352170
C3941	C394	0.215010	0.784990	0.423670
C3951	C395	0.254010	0.745990	0.422770
C3961	C396	0.273030	0.726970	0.466370
H2701	H270	0.286630	0.713370	0.444170
