data_UMODEH12_clean_PM
_symmetry_space_group_name_H-M	'P1'
_cell_length_a	35.853900
_cell_length_b	35.853900
_cell_length_c	15.115000
_cell_angle_alpha	90.000000
_cell_angle_beta	90.000000
_cell_angle_gamma	120.000000
_symmetry_Int_Tables_number 1

loop_
_symmetry_equiv_pos_as_xyz
'x,y,z'

loop_
_atom_site_label
_atom_site_type_symbol
_atom_site_fract_x
_atom_site_fract_y
_atom_site_fract_z
O11	O1	0.557400	0.038200	0.080500
O21	O2	0.563910	0.050560	0.933000
C11	C1	0.578280	0.056880	0.009400
C21	C2	0.625060	0.088910	0.023700
C31	C3	0.651970	0.110400	0.956000
H11	H1	0.641400	0.106000	0.898500
C41	C4	0.695490	0.139140	0.972000
H21	H2	0.713000	0.154400	0.924500
C51	C5	0.713070	0.145660	0.051900
C61	C6	0.685200	0.126000	0.122700
H31	H3	0.696100	0.131900	0.180000
C71	C7	0.641750	0.097960	0.109800
H41	H4	0.623700	0.085200	0.158100
C81	C8	0.759970	0.172610	0.069900
C91	C9	0.779900	0.154190	0.118300
H51	H5	0.763700	0.125600	0.135700
H61	H6	0.770200	0.273300	0.096000
H71	H7	0.743700	0.300000	0.985200
O31	O3	0.224070	0.371530	0.413830
O41	O4	0.230580	0.383890	0.266330
C101	C10	0.244950	0.390210	0.342730
C111	C11	0.291730	0.422240	0.357030
C121	C12	0.318640	0.443730	0.289330
H81	H8	0.308070	0.439330	0.231830
C131	C13	0.362160	0.472470	0.305330
H91	H9	0.379670	0.487730	0.257830
C141	C14	0.379740	0.478990	0.385230
C151	C15	0.351870	0.459330	0.456030
H101	H10	0.362770	0.465230	0.513330
C161	C16	0.308420	0.431290	0.443130
H111	H11	0.290370	0.418530	0.491430
C171	C17	0.426640	0.505940	0.403230
C181	C18	0.446570	0.487520	0.451630
H121	H12	0.430370	0.458930	0.469030
H131	H13	0.436870	0.606630	0.429330
H141	H14	0.410370	0.633330	0.318530
O51	O5	0.890730	0.704870	0.747170
O61	O6	0.897240	0.717230	0.599670
C191	C19	0.911610	0.723550	0.676070
C201	C20	0.958390	0.755580	0.690370
C211	C21	0.985300	0.777070	0.622670
H151	H15	0.974730	0.772670	0.565170
C221	C22	0.028820	0.805810	0.638670
H161	H16	0.046330	0.821070	0.591170
C231	C23	0.046400	0.812330	0.718570
C241	C24	0.018530	0.792670	0.789370
H171	H17	0.029430	0.798570	0.846670
C251	C25	0.975080	0.764630	0.776470
H181	H18	0.957030	0.751870	0.824770
C261	C26	0.093300	0.839280	0.736570
C271	C27	0.113230	0.820860	0.784970
H191	H19	0.097030	0.792270	0.802370
H201	H20	0.103530	0.939970	0.762670
H211	H21	0.077030	0.966670	0.651870
O71	O7	0.961800	0.519200	0.080500
O81	O8	0.949440	0.513350	0.933000
C281	C28	0.943120	0.521400	0.009400
C291	C29	0.911090	0.536150	0.023700
C301	C30	0.889600	0.541570	0.956000
H221	H22	0.894000	0.535400	0.898500
C311	C31	0.860860	0.556350	0.972000
H231	H23	0.845600	0.558600	0.924500
C321	C32	0.854340	0.567410	0.051900
C331	C33	0.874000	0.559200	0.122700
H241	H24	0.868100	0.564200	0.180000
C341	C34	0.902040	0.543790	0.109800
H251	H25	0.914800	0.538500	0.158100
C351	C35	0.827390	0.587360	0.069900
C361	C36	0.845810	0.625710	0.118300
H261	H26	0.874400	0.638100	0.135700
H271	H27	0.726700	0.496900	0.096000
H281	H28	0.700000	0.443700	0.985200
O91	O9	0.628470	0.852530	0.413830
O101	O10	0.616110	0.846680	0.266330
C371	C37	0.609790	0.854730	0.342730
C381	C38	0.577760	0.869480	0.357030
C391	C39	0.556270	0.874900	0.289330
H291	H29	0.560670	0.868730	0.231830
C401	C40	0.527530	0.889680	0.305330
H301	H30	0.512270	0.891930	0.257830
C411	C41	0.521010	0.900740	0.385230
C421	C42	0.540670	0.892530	0.456030
H311	H31	0.534770	0.897530	0.513330
C431	C43	0.568710	0.877120	0.443130
H321	H32	0.581470	0.871830	0.491430
C441	C44	0.494060	0.920690	0.403230
C451	C45	0.512480	0.959040	0.451630
H331	H33	0.541070	0.971430	0.469030
H341	H34	0.393370	0.830230	0.429330
H351	H35	0.366670	0.777030	0.318530
O111	O11	0.295130	0.185870	0.747170
O121	O12	0.282770	0.180020	0.599670
C461	C46	0.276450	0.188070	0.676070
C471	C47	0.244420	0.202820	0.690370
C481	C48	0.222930	0.208240	0.622670
H361	H36	0.227330	0.202070	0.565170
C491	C49	0.194190	0.223020	0.638670
H371	H37	0.178930	0.225270	0.591170
C501	C50	0.187670	0.234080	0.718570
C511	C51	0.207330	0.225870	0.789370
H381	H38	0.201430	0.230870	0.846670
C521	C52	0.235370	0.210460	0.776470
H391	H39	0.248130	0.205170	0.824770
C531	C53	0.160720	0.254030	0.736570
C541	C54	0.179140	0.292380	0.784970
H401	H40	0.207730	0.304770	0.802370
H411	H41	0.060030	0.163570	0.762670
H421	H42	0.033330	0.110370	0.651870
O131	O13	0.480800	0.442600	0.080500
O141	O14	0.486650	0.436090	0.933000
C551	C55	0.478600	0.421720	0.009400
C561	C56	0.463850	0.374940	0.023700
C571	C57	0.458430	0.348030	0.956000
H431	H43	0.464600	0.358600	0.898500
C581	C58	0.443650	0.304510	0.972000
H441	H44	0.441400	0.287000	0.924500
C591	C59	0.432590	0.286930	0.051900
C601	C60	0.440800	0.314800	0.122700
H451	H45	0.435800	0.303900	0.180000
C611	C61	0.456210	0.358250	0.109800
H461	H46	0.461500	0.376300	0.158100
C621	C62	0.412640	0.240030	0.069900
C631	C63	0.374290	0.220100	0.118300
H471	H47	0.361900	0.236300	0.135700
H481	H48	0.503100	0.229800	0.096000
H491	H49	0.556300	0.256300	0.985200
O151	O15	0.147470	0.775930	0.413830
O161	O16	0.153320	0.769420	0.266330
C641	C64	0.145270	0.755050	0.342730
C651	C65	0.130520	0.708270	0.357030
C661	C66	0.125100	0.681360	0.289330
H501	H50	0.131270	0.691930	0.231830
C671	C67	0.110320	0.637840	0.305330
H511	H51	0.108070	0.620330	0.257830
C681	C68	0.099260	0.620260	0.385230
C691	C69	0.107470	0.648130	0.456030
H521	H52	0.102470	0.637230	0.513330
C701	C70	0.122880	0.691580	0.443130
H531	H53	0.128170	0.709630	0.491430
C711	C71	0.079310	0.573360	0.403230
C721	C72	0.040960	0.553430	0.451630
H541	H54	0.028570	0.569630	0.469030
H551	H55	0.169770	0.563130	0.429330
H561	H56	0.222970	0.589630	0.318530
O171	O17	0.814130	0.109270	0.747170
O181	O18	0.819980	0.102760	0.599670
C731	C73	0.811930	0.088390	0.676070
C741	C74	0.797180	0.041610	0.690370
C751	C75	0.791760	0.014700	0.622670
H571	H57	0.797930	0.025270	0.565170
C761	C76	0.776980	0.971180	0.638670
H581	H58	0.774730	0.953670	0.591170
C771	C77	0.765920	0.953600	0.718570
C781	C78	0.774130	0.981470	0.789370
H591	H59	0.769130	0.970570	0.846670
C791	C79	0.789540	0.024920	0.776470
H601	H60	0.794830	0.042970	0.824770
C801	C80	0.745970	0.906700	0.736570
C811	C81	0.707620	0.886770	0.784970
H611	H61	0.695230	0.902970	0.802370
H621	H62	0.836430	0.896470	0.762670
H631	H63	0.889630	0.922970	0.651870
O191	O19	0.038200	0.557400	0.919500
O201	O20	0.050560	0.563910	0.067000
C821	C82	0.056880	0.578280	0.990600
C831	C83	0.088910	0.625060	0.976300
C841	C84	0.110400	0.651970	0.044000
H641	H64	0.106000	0.641400	0.101500
C851	C85	0.139140	0.695490	0.028000
H651	H65	0.154400	0.713000	0.075500
C861	C86	0.145660	0.713070	0.948100
C871	C87	0.126000	0.685200	0.877300
H661	H66	0.131900	0.696100	0.820000
C881	C88	0.097960	0.641750	0.890200
H671	H67	0.085200	0.623700	0.841900
C891	C89	0.172610	0.759970	0.930100
C901	C90	0.154190	0.779900	0.881700
H681	H68	0.125600	0.763700	0.864300
H691	H69	0.273300	0.770200	0.904000
H701	H70	0.300000	0.743700	0.014800
O211	O21	0.704870	0.890730	0.252830
O221	O22	0.717230	0.897240	0.400330
C911	C91	0.723550	0.911610	0.323930
C921	C92	0.755580	0.958390	0.309630
C931	C93	0.777070	0.985300	0.377330
H711	H71	0.772670	0.974730	0.434830
C941	C94	0.805810	0.028820	0.361330
H721	H72	0.821070	0.046330	0.408830
C951	C95	0.812330	0.046400	0.281430
C961	C96	0.792670	0.018530	0.210630
H731	H73	0.798570	0.029430	0.153330
C971	C97	0.764630	0.975080	0.223530
H741	H74	0.751870	0.957030	0.175230
C981	C98	0.839280	0.093300	0.263430
C991	C99	0.820860	0.113230	0.215030
H751	H75	0.792270	0.097030	0.197630
H761	H76	0.939970	0.103530	0.237330
H771	H77	0.966670	0.077030	0.348130
O231	O23	0.371530	0.224070	0.586170
O241	O24	0.383890	0.230580	0.733670
C1001	C100	0.390210	0.244950	0.657270
C1011	C101	0.422240	0.291730	0.642970
C1021	C102	0.443730	0.318640	0.710670
H781	H78	0.439330	0.308070	0.768170
C1031	C103	0.472470	0.362160	0.694670
H791	H79	0.487730	0.379670	0.742170
C1041	C104	0.478990	0.379740	0.614770
C1051	C105	0.459330	0.351870	0.543970
H801	H80	0.465230	0.362770	0.486670
C1061	C106	0.431290	0.308420	0.556870
H811	H81	0.418530	0.290370	0.508570
C1071	C107	0.505940	0.426640	0.596770
C1081	C108	0.487520	0.446570	0.548370
H821	H82	0.458930	0.430370	0.530970
H831	H83	0.606630	0.436870	0.570670
H841	H84	0.633330	0.410370	0.681470
O251	O25	0.519200	0.961800	0.919500
O261	O26	0.513350	0.949440	0.067000
C1091	C109	0.521400	0.943120	0.990600
C1101	C110	0.536150	0.911090	0.976300
C1111	C111	0.541570	0.889600	0.044000
H851	H85	0.535400	0.894000	0.101500
C1121	C112	0.556350	0.860860	0.028000
H861	H86	0.558600	0.845600	0.075500
C1131	C113	0.567410	0.854340	0.948100
C1141	C114	0.559200	0.874000	0.877300
H871	H87	0.564200	0.868100	0.820000
C1151	C115	0.543790	0.902040	0.890200
H881	H88	0.538500	0.914800	0.841900
C1161	C116	0.587360	0.827390	0.930100
C1171	C117	0.625710	0.845810	0.881700
H891	H89	0.638100	0.874400	0.864300
H901	H90	0.496900	0.726700	0.904000
H911	H91	0.443700	0.700000	0.014800
O271	O27	0.185870	0.295130	0.252830
O281	O28	0.180020	0.282770	0.400330
C1181	C118	0.188070	0.276450	0.323930
C1191	C119	0.202820	0.244420	0.309630
C1201	C120	0.208240	0.222930	0.377330
H921	H92	0.202070	0.227330	0.434830
C1211	C121	0.223020	0.194190	0.361330
H931	H93	0.225270	0.178930	0.408830
C1221	C122	0.234080	0.187670	0.281430
C1231	C123	0.225870	0.207330	0.210630
H941	H94	0.230870	0.201430	0.153330
C1241	C124	0.210460	0.235370	0.223530
H951	H95	0.205170	0.248130	0.175230
C1251	C125	0.254030	0.160720	0.263430
C1261	C126	0.292380	0.179140	0.215030
H961	H96	0.304770	0.207730	0.197630
H971	H97	0.163570	0.060030	0.237330
H981	H98	0.110370	0.033330	0.348130
O291	O29	0.852530	0.628470	0.586170
O301	O30	0.846680	0.616110	0.733670
C1271	C127	0.854730	0.609790	0.657270
C1281	C128	0.869480	0.577760	0.642970
C1291	C129	0.874900	0.556270	0.710670
H991	H99	0.868730	0.560670	0.768170
C1301	C130	0.889680	0.527530	0.694670
H1001	H100	0.891930	0.512270	0.742170
C1311	C131	0.900740	0.521010	0.614770
C1321	C132	0.892530	0.540670	0.543970
H1011	H101	0.897530	0.534770	0.486670
C1331	C133	0.877120	0.568710	0.556870
H1021	H102	0.871830	0.581470	0.508570
C1341	C134	0.920690	0.494060	0.596770
C1351	C135	0.959040	0.512480	0.548370
H1031	H103	0.971430	0.541070	0.530970
H1041	H104	0.830230	0.393370	0.570670
H1051	H105	0.777030	0.366670	0.681470
O311	O31	0.442600	0.480800	0.919500
O321	O32	0.436090	0.486650	0.067000
C1361	C136	0.421720	0.478600	0.990600
C1371	C137	0.374940	0.463850	0.976300
C1381	C138	0.348030	0.458430	0.044000
H1061	H106	0.358600	0.464600	0.101500
C1391	C139	0.304510	0.443650	0.028000
H1071	H107	0.287000	0.441400	0.075500
C1401	C140	0.286930	0.432590	0.948100
C1411	C141	0.314800	0.440800	0.877300
H1081	H108	0.303900	0.435800	0.820000
C1421	C142	0.358250	0.456210	0.890200
H1091	H109	0.376300	0.461500	0.841900
C1431	C143	0.240030	0.412640	0.930100
C1441	C144	0.220100	0.374290	0.881700
H1101	H110	0.236300	0.361900	0.864300
H1111	H111	0.229800	0.503100	0.904000
H1121	H112	0.256300	0.556300	0.014800
O331	O33	0.109270	0.814130	0.252830
O341	O34	0.102760	0.819980	0.400330
C1451	C145	0.088390	0.811930	0.323930
C1461	C146	0.041610	0.797180	0.309630
C1471	C147	0.014700	0.791760	0.377330
H1131	H113	0.025270	0.797930	0.434830
C1481	C148	0.971180	0.776980	0.361330
H1141	H114	0.953670	0.774730	0.408830
C1491	C149	0.953600	0.765920	0.281430
C1501	C150	0.981470	0.774130	0.210630
H1151	H115	0.970570	0.769130	0.153330
C1511	C151	0.024920	0.789540	0.223530
H1161	H116	0.042970	0.794830	0.175230
C1521	C152	0.906700	0.745970	0.263430
C1531	C153	0.886770	0.707620	0.215030
H1171	H117	0.902970	0.695230	0.197630
H1181	H118	0.896470	0.836430	0.237330
H1191	H119	0.922970	0.889630	0.348130
O351	O35	0.775930	0.147470	0.586170
O361	O36	0.769420	0.153320	0.733670
C1541	C154	0.755050	0.145270	0.657270
C1551	C155	0.708270	0.130520	0.642970
C1561	C156	0.681360	0.125100	0.710670
H1201	H120	0.691930	0.131270	0.768170
C1571	C157	0.637840	0.110320	0.694670
H1211	H121	0.620330	0.108070	0.742170
C1581	C158	0.620260	0.099260	0.614770
C1591	C159	0.648130	0.107470	0.543970
H1221	H122	0.637230	0.102470	0.486670
C1601	C160	0.691580	0.122880	0.556870
H1231	H123	0.709630	0.128170	0.508570
C1611	C161	0.573360	0.079310	0.596770
C1621	C162	0.553430	0.040960	0.548370
H1241	H124	0.569630	0.028570	0.530970
H1251	H125	0.563130	0.169770	0.570670
H1261	H126	0.589630	0.222970	0.681470
O371	O37	0.442600	0.961800	0.919500
O381	O38	0.436090	0.949440	0.067000
C1631	C163	0.421720	0.943120	0.990600
C1641	C164	0.374940	0.911090	0.976300
C1651	C165	0.348030	0.889600	0.044000
H1271	H127	0.358600	0.894000	0.101500
C1661	C166	0.304510	0.860860	0.028000
H1281	H128	0.287000	0.845600	0.075500
C1671	C167	0.286930	0.854340	0.948100
C1681	C168	0.314800	0.874000	0.877300
H1291	H129	0.303900	0.868100	0.820000
C1691	C169	0.358250	0.902040	0.890200
H1301	H130	0.376300	0.914800	0.841900
C1701	C170	0.240030	0.827390	0.930100
C1711	C171	0.220100	0.845810	0.881700
H1311	H131	0.236300	0.874400	0.864300
H1321	H132	0.229800	0.726700	0.904000
H1331	H133	0.256300	0.700000	0.014800
O391	O39	0.109270	0.295130	0.252830
O401	O40	0.102760	0.282770	0.400330
C1721	C172	0.088390	0.276450	0.323930
C1731	C173	0.041610	0.244420	0.309630
C1741	C174	0.014700	0.222930	0.377330
H1341	H134	0.025270	0.227330	0.434830
C1751	C175	0.971180	0.194190	0.361330
H1351	H135	0.953670	0.178930	0.408830
C1761	C176	0.953600	0.187670	0.281430
C1771	C177	0.981470	0.207330	0.210630
H1361	H136	0.970570	0.201430	0.153330
C1781	C178	0.024920	0.235370	0.223530
H1371	H137	0.042970	0.248130	0.175230
C1791	C179	0.906700	0.160720	0.263430
C1801	C180	0.886770	0.179140	0.215030
H1381	H138	0.902970	0.207730	0.197630
H1391	H139	0.896470	0.060030	0.237330
H1401	H140	0.922970	0.033330	0.348130
O411	O41	0.775930	0.628470	0.586170
O421	O42	0.769420	0.616110	0.733670
C1811	C181	0.755050	0.609790	0.657270
C1821	C182	0.708270	0.577760	0.642970
C1831	C183	0.681360	0.556270	0.710670
H1411	H141	0.691930	0.560670	0.768170
C1841	C184	0.637840	0.527530	0.694670
H1421	H142	0.620330	0.512270	0.742170
C1851	C185	0.620260	0.521010	0.614770
C1861	C186	0.648130	0.540670	0.543970
H1431	H143	0.637230	0.534770	0.486670
C1871	C187	0.691580	0.568710	0.556870
H1441	H144	0.709630	0.581470	0.508570
C1881	C188	0.573360	0.494060	0.596770
C1891	C189	0.553430	0.512480	0.548370
H1451	H145	0.569630	0.541070	0.530970
H1461	H146	0.563130	0.393370	0.570670
H1471	H147	0.589630	0.366670	0.681470
O431	O43	0.038200	0.480800	0.919500
O441	O44	0.050560	0.486650	0.067000
C1901	C190	0.056880	0.478600	0.990600
C1911	C191	0.088910	0.463850	0.976300
C1921	C192	0.110400	0.458430	0.044000
H1481	H148	0.106000	0.464600	0.101500
C1931	C193	0.139140	0.443650	0.028000
H1491	H149	0.154400	0.441400	0.075500
C1941	C194	0.145660	0.432590	0.948100
C1951	C195	0.126000	0.440800	0.877300
H1501	H150	0.131900	0.435800	0.820000
C1961	C196	0.097960	0.456210	0.890200
H1511	H151	0.085200	0.461500	0.841900
C1971	C197	0.172610	0.412640	0.930100
C1981	C198	0.154190	0.374290	0.881700
H1521	H152	0.125600	0.361900	0.864300
H1531	H153	0.273300	0.503100	0.904000
H1541	H154	0.300000	0.556300	0.014800
O451	O45	0.704870	0.814130	0.252830
O461	O46	0.717230	0.819980	0.400330
C1991	C199	0.723550	0.811930	0.323930
C2001	C200	0.755580	0.797180	0.309630
C2011	C201	0.777070	0.791760	0.377330
H1551	H155	0.772670	0.797930	0.434830
C2021	C202	0.805810	0.776980	0.361330
H1561	H156	0.821070	0.774730	0.408830
C2031	C203	0.812330	0.765920	0.281430
C2041	C204	0.792670	0.774130	0.210630
H1571	H157	0.798570	0.769130	0.153330
C2051	C205	0.764630	0.789540	0.223530
H1581	H158	0.751870	0.794830	0.175230
C2061	C206	0.839280	0.745970	0.263430
C2071	C207	0.820860	0.707620	0.215030
H1591	H159	0.792270	0.695230	0.197630
H1601	H160	0.939970	0.836430	0.237330
H1611	H161	0.966670	0.889630	0.348130
O471	O47	0.371530	0.147470	0.586170
O481	O48	0.383890	0.153320	0.733670
C2081	C208	0.390210	0.145270	0.657270
C2091	C209	0.422240	0.130520	0.642970
C2101	C210	0.443730	0.125100	0.710670
H1621	H162	0.439330	0.131270	0.768170
C2111	C211	0.472470	0.110320	0.694670
H1631	H163	0.487730	0.108070	0.742170
C2121	C212	0.478990	0.099260	0.614770
C2131	C213	0.459330	0.107470	0.543970
H1641	H164	0.465230	0.102470	0.486670
C2141	C214	0.431290	0.122880	0.556870
H1651	H165	0.418530	0.128170	0.508570
C2151	C215	0.505940	0.079310	0.596770
C2161	C216	0.487520	0.040960	0.548370
H1661	H166	0.458930	0.028570	0.530970
H1671	H167	0.606630	0.169770	0.570670
H1681	H168	0.633330	0.222970	0.681470
O491	O49	0.519200	0.557400	0.919500
O501	O50	0.513350	0.563910	0.067000
C2171	C217	0.521400	0.578280	0.990600
C2181	C218	0.536150	0.625060	0.976300
C2191	C219	0.541570	0.651970	0.044000
H1691	H169	0.535400	0.641400	0.101500
C2201	C220	0.556350	0.695490	0.028000
H1701	H170	0.558600	0.713000	0.075500
C2211	C221	0.567410	0.713070	0.948100
C2221	C222	0.559200	0.685200	0.877300
H1711	H171	0.564200	0.696100	0.820000
C2231	C223	0.543790	0.641750	0.890200
H1721	H172	0.538500	0.623700	0.841900
C2241	C224	0.587360	0.759970	0.930100
C2251	C225	0.625710	0.779900	0.881700
H1731	H173	0.638100	0.763700	0.864300
H1741	H174	0.496900	0.770200	0.904000
H1751	H175	0.443700	0.743700	0.014800
O511	O51	0.185870	0.890730	0.252830
O521	O52	0.180020	0.897240	0.400330
C2261	C226	0.188070	0.911610	0.323930
C2271	C227	0.202820	0.958390	0.309630
C2281	C228	0.208240	0.985300	0.377330
H1761	H176	0.202070	0.974730	0.434830
C2291	C229	0.223020	0.028820	0.361330
H1771	H177	0.225270	0.046330	0.408830
C2301	C230	0.234080	0.046400	0.281430
C2311	C231	0.225870	0.018530	0.210630
H1781	H178	0.230870	0.029430	0.153330
C2321	C232	0.210460	0.975080	0.223530
H1791	H179	0.205170	0.957030	0.175230
C2331	C233	0.254030	0.093300	0.263430
C2341	C234	0.292380	0.113230	0.215030
H1801	H180	0.304770	0.097030	0.197630
H1811	H181	0.163570	0.103530	0.237330
H1821	H182	0.110370	0.077030	0.348130
O531	O53	0.852530	0.224070	0.586170
O541	O54	0.846680	0.230580	0.733670
C2351	C235	0.854730	0.244950	0.657270
C2361	C236	0.869480	0.291730	0.642970
C2371	C237	0.874900	0.318640	0.710670
H1831	H183	0.868730	0.308070	0.768170
C2381	C238	0.889680	0.362160	0.694670
H1841	H184	0.891930	0.379670	0.742170
C2391	C239	0.900740	0.379740	0.614770
C2401	C240	0.892530	0.351870	0.543970
H1851	H185	0.897530	0.362770	0.486670
C2411	C241	0.877120	0.308420	0.556870
H1861	H186	0.871830	0.290370	0.508570
C2421	C242	0.920690	0.426640	0.596770
C2431	C243	0.959040	0.446570	0.548370
H1871	H187	0.971430	0.430370	0.530970
H1881	H188	0.830230	0.436870	0.570670
H1891	H189	0.777030	0.410370	0.681470
O551	O55	0.961800	0.442600	0.080500
O561	O56	0.949440	0.436090	0.933000
C2441	C244	0.943120	0.421720	0.009400
C2451	C245	0.911090	0.374940	0.023700
C2461	C246	0.889600	0.348030	0.956000
H1901	H190	0.894000	0.358600	0.898500
C2471	C247	0.860860	0.304510	0.972000
H1911	H191	0.845600	0.287000	0.924500
C2481	C248	0.854340	0.286930	0.051900
C2491	C249	0.874000	0.314800	0.122700
H1921	H192	0.868100	0.303900	0.180000
C2501	C250	0.902040	0.358250	0.109800
H1931	H193	0.914800	0.376300	0.158100
C2511	C251	0.827390	0.240030	0.069900
C2521	C252	0.845810	0.220100	0.118300
H1941	H194	0.874400	0.236300	0.135700
H1951	H195	0.726700	0.229800	0.096000
H1961	H196	0.700000	0.256300	0.985200
O571	O57	0.628470	0.775930	0.413830
O581	O58	0.616110	0.769420	0.266330
C2531	C253	0.609790	0.755050	0.342730
C2541	C254	0.577760	0.708270	0.357030
C2551	C255	0.556270	0.681360	0.289330
H1971	H197	0.560670	0.691930	0.231830
C2561	C256	0.527530	0.637840	0.305330
H1981	H198	0.512270	0.620330	0.257830
C2571	C257	0.521010	0.620260	0.385230
C2581	C258	0.540670	0.648130	0.456030
H1991	H199	0.534770	0.637230	0.513330
C2591	C259	0.568710	0.691580	0.443130
H2001	H200	0.581470	0.709630	0.491430
C2601	C260	0.494060	0.573360	0.403230
C2611	C261	0.512480	0.553430	0.451630
H2011	H201	0.541070	0.569630	0.469030
H2021	H202	0.393370	0.563130	0.429330
H2031	H203	0.366670	0.589630	0.318530
O591	O59	0.295130	0.109270	0.747170
O601	O60	0.282770	0.102760	0.599670
C2621	C262	0.276450	0.088390	0.676070
C2631	C263	0.244420	0.041610	0.690370
C2641	C264	0.222930	0.014700	0.622670
H2041	H204	0.227330	0.025270	0.565170
C2651	C265	0.194190	0.971180	0.638670
H2051	H205	0.178930	0.953670	0.591170
C2661	C266	0.187670	0.953600	0.718570
C2671	C267	0.207330	0.981470	0.789370
H2061	H206	0.201430	0.970570	0.846670
C2681	C268	0.235370	0.024920	0.776470
H2071	H207	0.248130	0.042970	0.824770
C2691	C269	0.160720	0.906700	0.736570
C2701	C270	0.179140	0.886770	0.784970
H2081	H208	0.207730	0.902970	0.802370
H2091	H209	0.060030	0.896470	0.762670
H2101	H210	0.033330	0.922970	0.651870
O611	O61	0.480800	0.038200	0.080500
O621	O62	0.486650	0.050560	0.933000
C2711	C271	0.478600	0.056880	0.009400
C2721	C272	0.463850	0.088910	0.023700
C2731	C273	0.458430	0.110400	0.956000
H2111	H211	0.464600	0.106000	0.898500
C2741	C274	0.443650	0.139140	0.972000
H2121	H212	0.441400	0.154400	0.924500
C2751	C275	0.432590	0.145660	0.051900
C2761	C276	0.440800	0.126000	0.122700
H2131	H213	0.435800	0.131900	0.180000
C2771	C277	0.456210	0.097960	0.109800
H2141	H214	0.461500	0.085200	0.158100
C2781	C278	0.412640	0.172610	0.069900
C2791	C279	0.374290	0.154190	0.118300
H2151	H215	0.361900	0.125600	0.135700
H2161	H216	0.503100	0.273300	0.096000
H2171	H217	0.556300	0.300000	0.985200
O631	O63	0.147470	0.371530	0.413830
O641	O64	0.153320	0.383890	0.266330
C2801	C280	0.145270	0.390210	0.342730
C2811	C281	0.130520	0.422240	0.357030
C2821	C282	0.125100	0.443730	0.289330
H2181	H218	0.131270	0.439330	0.231830
C2831	C283	0.110320	0.472470	0.305330
H2191	H219	0.108070	0.487730	0.257830
C2841	C284	0.099260	0.478990	0.385230
C2851	C285	0.107470	0.459330	0.456030
H2201	H220	0.102470	0.465230	0.513330
C2861	C286	0.122880	0.431290	0.443130
H2211	H221	0.128170	0.418530	0.491430
C2871	C287	0.079310	0.505940	0.403230
C2881	C288	0.040960	0.487520	0.451630
H2221	H222	0.028570	0.458930	0.469030
H2231	H223	0.169770	0.606630	0.429330
H2241	H224	0.222970	0.633330	0.318530
O651	O65	0.814130	0.704870	0.747170
O661	O66	0.819980	0.717230	0.599670
C2891	C289	0.811930	0.723550	0.676070
C2901	C290	0.797180	0.755580	0.690370
C2911	C291	0.791760	0.777070	0.622670
H2251	H225	0.797930	0.772670	0.565170
C2921	C292	0.776980	0.805810	0.638670
H2261	H226	0.774730	0.821070	0.591170
C2931	C293	0.765920	0.812330	0.718570
C2941	C294	0.774130	0.792670	0.789370
H2271	H227	0.769130	0.798570	0.846670
C2951	C295	0.789540	0.764630	0.776470
H2281	H228	0.794830	0.751870	0.824770
C2961	C296	0.745970	0.839280	0.736570
C2971	C297	0.707620	0.820860	0.784970
H2291	H229	0.695230	0.792270	0.802370
H2301	H230	0.836430	0.939970	0.762670
H2311	H231	0.889630	0.966670	0.651870
O671	O67	0.557400	0.519200	0.080500
O681	O68	0.563910	0.513350	0.933000
C2981	C298	0.578280	0.521400	0.009400
C2991	C299	0.625060	0.536150	0.023700
C3001	C300	0.651970	0.541570	0.956000
H2321	H232	0.641400	0.535400	0.898500
C3011	C301	0.695490	0.556350	0.972000
H2331	H233	0.713000	0.558600	0.924500
C3021	C302	0.713070	0.567410	0.051900
C3031	C303	0.685200	0.559200	0.122700
H2341	H234	0.696100	0.564200	0.180000
C3041	C304	0.641750	0.543790	0.109800
H2351	H235	0.623700	0.538500	0.158100
C3051	C305	0.759970	0.587360	0.069900
C3061	C306	0.779900	0.625710	0.118300
H2361	H236	0.763700	0.638100	0.135700
H2371	H237	0.770200	0.496900	0.096000
H2381	H238	0.743700	0.443700	0.985200
O691	O69	0.224070	0.852530	0.413830
O701	O70	0.230580	0.846680	0.266330
C3071	C307	0.244950	0.854730	0.342730
C3081	C308	0.291730	0.869480	0.357030
C3091	C309	0.318640	0.874900	0.289330
H2391	H239	0.308070	0.868730	0.231830
C3101	C310	0.362160	0.889680	0.305330
H2401	H240	0.379670	0.891930	0.257830
C3111	C311	0.379740	0.900740	0.385230
C3121	C312	0.351870	0.892530	0.456030
H2411	H241	0.362770	0.897530	0.513330
C3131	C313	0.308420	0.877120	0.443130
H2421	H242	0.290370	0.871830	0.491430
C3141	C314	0.426640	0.920690	0.403230
C3151	C315	0.446570	0.959040	0.451630
H2431	H243	0.430370	0.971430	0.469030
H2441	H244	0.436870	0.830230	0.429330
H2451	H245	0.410370	0.777030	0.318530
O711	O71	0.890730	0.185870	0.747170
O721	O72	0.897240	0.180020	0.599670
C3161	C316	0.911610	0.188070	0.676070
C3171	C317	0.958390	0.202820	0.690370
C3181	C318	0.985300	0.208240	0.622670
H2461	H246	0.974730	0.202070	0.565170
C3191	C319	0.028820	0.223020	0.638670
H2471	H247	0.046330	0.225270	0.591170
C3201	C320	0.046400	0.234080	0.718570
C3211	C321	0.018530	0.225870	0.789370
H2481	H248	0.029430	0.230870	0.846670
C3221	C322	0.975080	0.210460	0.776470
H2491	H249	0.957030	0.205170	0.824770
C3231	C323	0.093300	0.254030	0.736570
C3241	C324	0.113230	0.292380	0.784970
H2501	H250	0.097030	0.304770	0.802370
H2511	H251	0.103530	0.163570	0.762670
H2521	H252	0.077030	0.110370	0.651870
Cu11	Cu1	0.503350	0.006700	0.913970
Cu21	Cu2	0.170020	0.340030	0.247300
Cu31	Cu3	0.836680	0.673370	0.580640
Cu41	Cu4	0.993300	0.496650	0.913970
Cu51	Cu5	0.659970	0.829980	0.247300
Cu61	Cu6	0.326630	0.163320	0.580640
Cu71	Cu7	0.503350	0.496650	0.913970
Cu81	Cu8	0.170020	0.829980	0.247300
Cu91	Cu9	0.836680	0.163320	0.580640
Cu101	Cu10	0.006700	0.503350	0.086030
Cu111	Cu11	0.673370	0.836680	0.419360
Cu121	Cu12	0.340030	0.170020	0.752700
Cu131	Cu13	0.496650	0.993300	0.086030
Cu141	Cu14	0.163320	0.326630	0.419360
Cu151	Cu15	0.829980	0.659970	0.752700
Cu161	Cu16	0.496650	0.503350	0.086030
Cu171	Cu17	0.163320	0.836680	0.419360
Cu181	Cu18	0.829980	0.170020	0.752700
O731	O73	0.765370	0.234630	0.996600
C3251	C325	0.822870	0.177130	0.141100
C3261	C326	0.784380	0.215620	0.046000
C3271	C327	0.747100	0.252900	0.058300
C3281	C328	0.724000	0.276000	0.020900
H2531	H253	0.713800	0.286200	0.068800
O741	O74	0.432040	0.567960	0.329930
C3291	C329	0.489540	0.510460	0.474430
C3301	C330	0.451050	0.548950	0.379330
C3311	C331	0.413770	0.586230	0.391630
C3321	C332	0.390670	0.609330	0.354230
H2541	H254	0.380470	0.619530	0.402130
O751	O75	0.098700	0.901300	0.663270
C3331	C333	0.156200	0.843800	0.807770
C3341	C334	0.117710	0.882290	0.712670
C3351	C335	0.080430	0.919570	0.724970
C3361	C336	0.057330	0.942670	0.687570
H2551	H255	0.047130	0.952870	0.735470
O761	O76	0.765370	0.530740	0.996600
C3371	C337	0.822870	0.645740	0.141100
C3381	C338	0.784380	0.568760	0.046000
C3391	C339	0.747100	0.494200	0.058300
C3401	C340	0.724000	0.448000	0.020900
H2561	H256	0.713800	0.427600	0.068800
O771	O77	0.432040	0.864070	0.329930
C3411	C341	0.489540	0.979070	0.474430
C3421	C342	0.451050	0.902090	0.379330
C3431	C343	0.413770	0.827530	0.391630
C3441	C344	0.390670	0.781330	0.354230
H2571	H257	0.380470	0.760930	0.402130
O781	O78	0.098700	0.197410	0.663270
C3451	C345	0.156200	0.312410	0.807770
C3461	C346	0.117710	0.235430	0.712670
C3471	C347	0.080430	0.160870	0.724970
C3481	C348	0.057330	0.114670	0.687570
H2581	H258	0.047130	0.094270	0.735470
O791	O79	0.469260	0.234630	0.996600
C3491	C349	0.354260	0.177130	0.141100
C3501	C350	0.431240	0.215620	0.046000
C3511	C351	0.505800	0.252900	0.058300
C3521	C352	0.552000	0.276000	0.020900
H2591	H259	0.572400	0.286200	0.068800
O801	O80	0.135930	0.567960	0.329930
C3531	C353	0.020930	0.510460	0.474430
C3541	C354	0.097910	0.548950	0.379330
C3551	C355	0.172470	0.586230	0.391630
C3561	C356	0.218670	0.609330	0.354230
H2601	H260	0.239070	0.619530	0.402130
O811	O81	0.802590	0.901300	0.663270
C3571	C357	0.687590	0.843800	0.807770
C3581	C358	0.764570	0.882290	0.712670
C3591	C359	0.839130	0.919570	0.724970
C3601	C360	0.885330	0.942670	0.687570
H2611	H261	0.905730	0.952870	0.735470
O821	O82	0.234630	0.765370	0.003400
C3611	C361	0.177130	0.822870	0.858900
C3621	C362	0.215620	0.784380	0.954000
C3631	C363	0.252900	0.747100	0.941700
C3641	C364	0.276000	0.724000	0.979100
H2621	H262	0.286200	0.713800	0.931200
O831	O83	0.901300	0.098700	0.336730
C3651	C365	0.843800	0.156200	0.192230
C3661	C366	0.882290	0.117710	0.287330
C3671	C367	0.919570	0.080430	0.275030
C3681	C368	0.942670	0.057330	0.312430
H2631	H263	0.952870	0.047130	0.264530
O841	O84	0.567960	0.432040	0.670070
C3691	C369	0.510460	0.489540	0.525570
C3701	C370	0.548950	0.451050	0.620670
C3711	C371	0.586230	0.413770	0.608370
C3721	C372	0.609330	0.390670	0.645770
H2641	H264	0.619530	0.380470	0.597870
O851	O85	0.530740	0.765370	0.003400
C3731	C373	0.645740	0.822870	0.858900
C3741	C374	0.568760	0.784380	0.954000
C3751	C375	0.494200	0.747100	0.941700
C3761	C376	0.448000	0.724000	0.979100
H2651	H265	0.427600	0.713800	0.931200
O861	O86	0.197410	0.098700	0.336730
C3771	C377	0.312410	0.156200	0.192230
C3781	C378	0.235430	0.117710	0.287330
C3791	C379	0.160870	0.080430	0.275030
C3801	C380	0.114670	0.057330	0.312430
H2661	H266	0.094270	0.047130	0.264530
O871	O87	0.864070	0.432040	0.670070
C3811	C381	0.979070	0.489540	0.525570
C3821	C382	0.902090	0.451050	0.620670
C3831	C383	0.827530	0.413770	0.608370
C3841	C384	0.781330	0.390670	0.645770
H2671	H267	0.760930	0.380470	0.597870
O881	O88	0.234630	0.469260	0.003400
C3851	C385	0.177130	0.354260	0.858900
C3861	C386	0.215620	0.431240	0.954000
C3871	C387	0.252900	0.505800	0.941700
C3881	C388	0.276000	0.552000	0.979100
H2681	H268	0.286200	0.572400	0.931200
O891	O89	0.901300	0.802590	0.336730
C3891	C389	0.843800	0.687590	0.192230
C3901	C390	0.882290	0.764570	0.287330
C3911	C391	0.919570	0.839130	0.275030
C3921	C392	0.942670	0.885330	0.312430
H2691	H269	0.952870	0.905730	0.264530
O901	O90	0.567960	0.135930	0.670070
C3931	C393	0.510460	0.020930	0.525570
C3941	C394	0.548950	0.097910	0.620670
C3951	C395	0.586230	0.172470	0.608370
C3961	C396	0.609330	0.218670	0.645770
H2701	H270	0.619530	0.239070	0.597870
