data_UMODEH09_clean_PM
_symmetry_space_group_name_H-M	'P1'
_cell_length_a	35.829200
_cell_length_b	35.829200
_cell_length_c	15.785000
_cell_angle_alpha	90.000000
_cell_angle_beta	90.000000
_cell_angle_gamma	120.000000
_symmetry_Int_Tables_number 1

loop_
_symmetry_equiv_pos_as_xyz
'x,y,z'

loop_
_atom_site_label
_atom_site_type_symbol
_atom_site_fract_x
_atom_site_fract_y
_atom_site_fract_z
O11	O1	0.812660	0.109740	0.245800
O21	O2	0.820620	0.101980	0.105200
C11	C1	0.811980	0.088960	0.181000
C21	C2	0.797410	0.041730	0.197500
C31	C3	0.792700	0.014230	0.131300
H11	H1	0.799000	0.024500	0.076000
C41	C4	0.778310	0.970580	0.149000
H21	H2	0.777000	0.952700	0.104900
C51	C5	0.766570	0.953920	0.225900
C61	C6	0.773000	0.982470	0.290100
H31	H3	0.766900	0.972400	0.345600
C71	C7	0.788400	0.025840	0.274600
H41	H4	0.792500	0.044100	0.319800
C81	C8	0.746440	0.906940	0.242700
C91	C9	0.707860	0.886870	0.286900
H51	H5	0.695000	0.903000	0.302100
H61	H6	0.840700	0.942200	0.275700
H71	H7	0.893700	0.925000	0.166100
O31	O3	0.479330	0.443070	0.579130
O41	O4	0.487290	0.435310	0.438530
C101	C10	0.478650	0.422290	0.514330
C111	C11	0.464080	0.375060	0.530830
C121	C12	0.459370	0.347560	0.464630
H81	H8	0.465670	0.357830	0.409330
C131	C13	0.444980	0.303910	0.482330
H91	H9	0.443670	0.286030	0.438230
C141	C14	0.433240	0.287250	0.559230
C151	C15	0.439670	0.315800	0.623430
H101	H10	0.433570	0.305730	0.678930
C161	C16	0.455070	0.359170	0.607930
H111	H11	0.459170	0.377430	0.653130
C171	C17	0.413110	0.240270	0.576030
C181	C18	0.374530	0.220200	0.620230
H121	H12	0.361670	0.236330	0.635430
H131	H13	0.507370	0.275530	0.609030
H141	H14	0.560370	0.258330	0.499430
O51	O5	0.145990	0.776410	0.912470
O61	O6	0.153950	0.768650	0.771870
C191	C19	0.145310	0.755630	0.847670
C201	C20	0.130740	0.708400	0.864170
C211	C21	0.126030	0.680900	0.797970
H151	H15	0.132330	0.691170	0.742670
C221	C22	0.111640	0.637250	0.815670
H161	H16	0.110330	0.619370	0.771570
C231	C23	0.099900	0.620590	0.892570
C241	C24	0.106330	0.649140	0.956770
H171	H17	0.100230	0.639070	0.012270
C251	C25	0.121730	0.692510	0.941270
H181	H18	0.125830	0.710770	0.986470
C261	C26	0.079770	0.573610	0.909370
C271	C27	0.041190	0.553540	0.953570
H191	H19	0.028330	0.569670	0.968770
H201	H20	0.174030	0.608870	0.942370
H211	H21	0.227030	0.591670	0.832770
O71	O7	0.890260	0.702920	0.245800
O81	O8	0.898020	0.718640	0.105200
C281	C28	0.911040	0.723020	0.181000
C291	C29	0.958270	0.755680	0.197500
C301	C30	0.985770	0.778470	0.131300
H221	H22	0.975500	0.774500	0.076000
C311	C31	0.029420	0.807730	0.149000
H231	H23	0.047300	0.824300	0.104900
C321	C32	0.046080	0.812650	0.225900
C331	C33	0.017530	0.790530	0.290100
H241	H24	0.027600	0.794500	0.345600
C341	C34	0.974160	0.762560	0.274600
H251	H25	0.955900	0.748400	0.319800
C351	C35	0.093060	0.839500	0.242700
C361	C36	0.113130	0.820990	0.286900
H261	H26	0.097000	0.792000	0.302100
H271	H27	0.057800	0.898500	0.275700
H281	H28	0.075000	0.968700	0.166100
O91	O9	0.556930	0.036250	0.579130
O101	O10	0.564690	0.051970	0.438530
C371	C37	0.577710	0.056350	0.514330
C381	C38	0.624940	0.089010	0.530830
C391	C39	0.652440	0.111800	0.464630
H291	H29	0.642170	0.107830	0.409330
C401	C40	0.696090	0.141060	0.482330
H301	H30	0.713970	0.157630	0.438230
C411	C41	0.712750	0.145980	0.559230
C421	C42	0.684200	0.123860	0.623430
H311	H31	0.694270	0.127830	0.678930
C431	C43	0.640830	0.095890	0.607930
H321	H32	0.622570	0.081730	0.653130
C441	C44	0.759730	0.172830	0.576030
C451	C45	0.779800	0.154320	0.620230
H331	H33	0.763670	0.125330	0.635430
H341	H34	0.724470	0.231830	0.609030
H351	H35	0.741670	0.302030	0.499430
O111	O11	0.223590	0.369590	0.912470
O121	O12	0.231350	0.385310	0.771870
C461	C46	0.244370	0.389690	0.847670
C471	C47	0.291600	0.422350	0.864170
C481	C48	0.319100	0.445140	0.797970
H361	H36	0.308830	0.441170	0.742670
C491	C49	0.362750	0.474400	0.815670
H371	H37	0.380630	0.490970	0.771570
C501	C50	0.379410	0.479320	0.892570
C511	C51	0.350860	0.457200	0.956770
H381	H38	0.360930	0.461170	0.012270
C521	C52	0.307490	0.429230	0.941270
H391	H39	0.289230	0.415070	0.986470
C531	C53	0.426390	0.506170	0.909370
C541	C54	0.446460	0.487660	0.953570
H401	H40	0.430330	0.458670	0.968770
H411	H41	0.391130	0.565170	0.942370
H421	H42	0.408330	0.635370	0.832770
O131	O13	0.297080	0.187340	0.245800
O141	O14	0.281360	0.179380	0.105200
C551	C55	0.276980	0.188020	0.181000
C561	C56	0.244320	0.202590	0.197500
C571	C57	0.221530	0.207300	0.131300
H431	H43	0.225500	0.201000	0.076000
C581	C58	0.192270	0.221690	0.149000
H441	H44	0.175700	0.223000	0.104900
C591	C59	0.187350	0.233430	0.225900
C601	C60	0.209470	0.227000	0.290100
H451	H45	0.205500	0.233100	0.345600
C611	C61	0.237440	0.211600	0.274600
H461	H46	0.251600	0.207500	0.319800
C621	C62	0.160500	0.253560	0.242700
C631	C63	0.179010	0.292140	0.286900
H471	H47	0.208000	0.305000	0.302100
H481	H48	0.101500	0.159300	0.275700
H491	H49	0.031300	0.106300	0.166100
O151	O15	0.963750	0.520670	0.579130
O161	O16	0.948030	0.512710	0.438530
C641	C64	0.943650	0.521350	0.514330
C651	C65	0.910990	0.535920	0.530830
C661	C66	0.888200	0.540630	0.464630
H501	H50	0.892170	0.534330	0.409330
C671	C67	0.858940	0.555020	0.482330
H511	H51	0.842370	0.556330	0.438230
C681	C68	0.854020	0.566760	0.559230
C691	C69	0.876140	0.560330	0.623430
H521	H52	0.872170	0.566430	0.678930
C701	C70	0.904110	0.544930	0.607930
H531	H53	0.918270	0.540830	0.653130
C711	C71	0.827170	0.586890	0.576030
C721	C72	0.845680	0.625470	0.620230
H541	H54	0.874670	0.638330	0.635430
H551	H55	0.768170	0.492630	0.609030
H561	H56	0.697970	0.439630	0.499430
O171	O17	0.630410	0.854010	0.912470
O181	O18	0.614690	0.846050	0.771870
C731	C73	0.610310	0.854690	0.847670
C741	C74	0.577650	0.869260	0.864170
C751	C75	0.554860	0.873970	0.797970
H571	H57	0.558830	0.867670	0.742670
C761	C76	0.525600	0.888360	0.815670
H581	H58	0.509030	0.889670	0.771570
C771	C77	0.520680	0.900100	0.892570
C781	C78	0.542800	0.893670	0.956770
H591	H59	0.538830	0.899770	0.012270
C791	C79	0.570770	0.878270	0.941270
H601	H60	0.584930	0.874170	0.986470
C801	C80	0.493830	0.920230	0.909370
C811	C81	0.512340	0.958810	0.953570
H611	H61	0.541330	0.971670	0.968770
H621	H62	0.434830	0.825970	0.942370
H631	H63	0.364630	0.772970	0.832770
O191	O19	0.109740	0.812660	0.754200
O201	O20	0.101980	0.820620	0.894800
C821	C82	0.088960	0.811980	0.819000
C831	C83	0.041730	0.797410	0.802500
C841	C84	0.014230	0.792700	0.868700
H641	H64	0.024500	0.799000	0.924000
C851	C85	0.970580	0.778310	0.851000
H651	H65	0.952700	0.777000	0.895100
C861	C86	0.953920	0.766570	0.774100
C871	C87	0.982470	0.773000	0.709900
H661	H66	0.972400	0.766900	0.654400
C881	C88	0.025840	0.788400	0.725400
H671	H67	0.044100	0.792500	0.680200
C891	C89	0.906940	0.746440	0.757300
C901	C90	0.886870	0.707860	0.713100
H681	H68	0.903000	0.695000	0.697900
H691	H69	0.942200	0.840700	0.724300
H701	H70	0.925000	0.893700	0.833900
O211	O21	0.776410	0.145990	0.087530
O221	O22	0.768650	0.153950	0.228130
C911	C91	0.755630	0.145310	0.152330
C921	C92	0.708400	0.130740	0.135830
C931	C93	0.680900	0.126030	0.202030
H711	H71	0.691170	0.132330	0.257330
C941	C94	0.637250	0.111640	0.184330
H721	H72	0.619370	0.110330	0.228430
C951	C95	0.620590	0.099900	0.107430
C961	C96	0.649140	0.106330	0.043230
H731	H73	0.639070	0.100230	0.987730
C971	C97	0.692510	0.121730	0.058730
H741	H74	0.710770	0.125830	0.013530
C981	C98	0.573610	0.079770	0.090630
C991	C99	0.553540	0.041190	0.046430
H751	H75	0.569670	0.028330	0.031230
H761	H76	0.608870	0.174030	0.057630
H771	H77	0.591670	0.227030	0.167230
O231	O23	0.443070	0.479330	0.420870
O241	O24	0.435310	0.487290	0.561470
C1001	C100	0.422290	0.478650	0.485670
C1011	C101	0.375060	0.464080	0.469170
C1021	C102	0.347560	0.459370	0.535370
H781	H78	0.357830	0.465670	0.590670
C1031	C103	0.303910	0.444980	0.517670
H791	H79	0.286030	0.443670	0.561770
C1041	C104	0.287250	0.433240	0.440770
C1051	C105	0.315800	0.439670	0.376570
H801	H80	0.305730	0.433570	0.321070
C1061	C106	0.359170	0.455070	0.392070
H811	H81	0.377430	0.459170	0.346870
C1071	C107	0.240270	0.413110	0.423970
C1081	C108	0.220200	0.374530	0.379770
H821	H82	0.236330	0.361670	0.364570
H831	H83	0.275530	0.507370	0.390970
H841	H84	0.258330	0.560370	0.500570
O251	O25	0.702920	0.890260	0.754200
O261	O26	0.718640	0.898020	0.894800
C1091	C109	0.723020	0.911040	0.819000
C1101	C110	0.755680	0.958270	0.802500
C1111	C111	0.778470	0.985770	0.868700
H851	H85	0.774500	0.975500	0.924000
C1121	C112	0.807730	0.029420	0.851000
H861	H86	0.824300	0.047300	0.895100
C1131	C113	0.812650	0.046080	0.774100
C1141	C114	0.790530	0.017530	0.709900
H871	H87	0.794500	0.027600	0.654400
C1151	C115	0.762560	0.974160	0.725400
H881	H88	0.748400	0.955900	0.680200
C1161	C116	0.839500	0.093060	0.757300
C1171	C117	0.820990	0.113130	0.713100
H891	H89	0.792000	0.097000	0.697900
H901	H90	0.898500	0.057800	0.724300
H911	H91	0.968700	0.075000	0.833900
O271	O27	0.369590	0.223590	0.087530
O281	O28	0.385310	0.231350	0.228130
C1181	C118	0.389690	0.244370	0.152330
C1191	C119	0.422350	0.291600	0.135830
C1201	C120	0.445140	0.319100	0.202030
H921	H92	0.441170	0.308830	0.257330
C1211	C121	0.474400	0.362750	0.184330
H931	H93	0.490970	0.380630	0.228430
C1221	C122	0.479320	0.379410	0.107430
C1231	C123	0.457200	0.350860	0.043230
H941	H94	0.461170	0.360930	0.987730
C1241	C124	0.429230	0.307490	0.058730
H951	H95	0.415070	0.289230	0.013530
C1251	C125	0.506170	0.426390	0.090630
C1261	C126	0.487660	0.446460	0.046430
H961	H96	0.458670	0.430330	0.031230
H971	H97	0.565170	0.391130	0.057630
H981	H98	0.635370	0.408330	0.167230
O291	O29	0.036250	0.556930	0.420870
O301	O30	0.051970	0.564690	0.561470
C1271	C127	0.056350	0.577710	0.485670
C1281	C128	0.089010	0.624940	0.469170
C1291	C129	0.111800	0.652440	0.535370
H991	H99	0.107830	0.642170	0.590670
C1301	C130	0.141060	0.696090	0.517670
H1001	H100	0.157630	0.713970	0.561770
C1311	C131	0.145980	0.712750	0.440770
C1321	C132	0.123860	0.684200	0.376570
H1011	H101	0.127830	0.694270	0.321070
C1331	C133	0.095890	0.640830	0.392070
H1021	H102	0.081730	0.622570	0.346870
C1341	C134	0.172830	0.759730	0.423970
C1351	C135	0.154320	0.779800	0.379770
H1031	H103	0.125330	0.763670	0.364570
H1041	H104	0.231830	0.724470	0.390970
H1051	H105	0.302030	0.741670	0.500570
O311	O31	0.187340	0.297080	0.754200
O321	O32	0.179380	0.281360	0.894800
C1361	C136	0.188020	0.276980	0.819000
C1371	C137	0.202590	0.244320	0.802500
C1381	C138	0.207300	0.221530	0.868700
H1061	H106	0.201000	0.225500	0.924000
C1391	C139	0.221690	0.192270	0.851000
H1071	H107	0.223000	0.175700	0.895100
C1401	C140	0.233430	0.187350	0.774100
C1411	C141	0.227000	0.209470	0.709900
H1081	H108	0.233100	0.205500	0.654400
C1421	C142	0.211600	0.237440	0.725400
H1091	H109	0.207500	0.251600	0.680200
C1431	C143	0.253560	0.160500	0.757300
C1441	C144	0.292140	0.179010	0.713100
H1101	H110	0.305000	0.208000	0.697900
H1111	H111	0.159300	0.101500	0.724300
H1121	H112	0.106300	0.031300	0.833900
O331	O33	0.854010	0.630410	0.087530
O341	O34	0.846050	0.614690	0.228130
C1451	C145	0.854690	0.610310	0.152330
C1461	C146	0.869260	0.577650	0.135830
C1471	C147	0.873970	0.554860	0.202030
H1131	H113	0.867670	0.558830	0.257330
C1481	C148	0.888360	0.525600	0.184330
H1141	H114	0.889670	0.509030	0.228430
C1491	C149	0.900100	0.520680	0.107430
C1501	C150	0.893670	0.542800	0.043230
H1151	H115	0.899770	0.538830	0.987730
C1511	C151	0.878270	0.570770	0.058730
H1161	H116	0.874170	0.584930	0.013530
C1521	C152	0.920230	0.493830	0.090630
C1531	C153	0.958810	0.512340	0.046430
H1171	H117	0.971670	0.541330	0.031230
H1181	H118	0.825970	0.434830	0.057630
H1191	H119	0.772970	0.364630	0.167230
O351	O35	0.520670	0.963750	0.420870
O361	O36	0.512710	0.948030	0.561470
C1541	C154	0.521350	0.943650	0.485670
C1551	C155	0.535920	0.910990	0.469170
C1561	C156	0.540630	0.888200	0.535370
H1201	H120	0.534330	0.892170	0.590670
C1571	C157	0.555020	0.858940	0.517670
H1211	H121	0.556330	0.842370	0.561770
C1581	C158	0.566760	0.854020	0.440770
C1591	C159	0.560330	0.876140	0.376570
H1221	H122	0.566430	0.872170	0.321070
C1601	C160	0.544930	0.904110	0.392070
H1231	H123	0.540830	0.918270	0.346870
C1611	C161	0.586890	0.827170	0.423970
C1621	C162	0.625470	0.845680	0.379770
H1241	H124	0.638330	0.874670	0.364570
H1251	H125	0.492630	0.768170	0.390970
H1261	H126	0.439630	0.697970	0.500570
O371	O37	0.187340	0.890260	0.754200
O381	O38	0.179380	0.898020	0.894800
C1631	C163	0.188020	0.911040	0.819000
C1641	C164	0.202590	0.958270	0.802500
C1651	C165	0.207300	0.985770	0.868700
H1271	H127	0.201000	0.975500	0.924000
C1661	C166	0.221690	0.029420	0.851000
H1281	H128	0.223000	0.047300	0.895100
C1671	C167	0.233430	0.046080	0.774100
C1681	C168	0.227000	0.017530	0.709900
H1291	H129	0.233100	0.027600	0.654400
C1691	C169	0.211600	0.974160	0.725400
H1301	H130	0.207500	0.955900	0.680200
C1701	C170	0.253560	0.093060	0.757300
C1711	C171	0.292140	0.113130	0.713100
H1311	H131	0.305000	0.097000	0.697900
H1321	H132	0.159300	0.057800	0.724300
H1331	H133	0.106300	0.075000	0.833900
O391	O39	0.854010	0.223590	0.087530
O401	O40	0.846050	0.231350	0.228130
C1721	C172	0.854690	0.244370	0.152330
C1731	C173	0.869260	0.291600	0.135830
C1741	C174	0.873970	0.319100	0.202030
H1341	H134	0.867670	0.308830	0.257330
C1751	C175	0.888360	0.362750	0.184330
H1351	H135	0.889670	0.380630	0.228430
C1761	C176	0.900100	0.379410	0.107430
C1771	C177	0.893670	0.350860	0.043230
H1361	H136	0.899770	0.360930	0.987730
C1781	C178	0.878270	0.307490	0.058730
H1371	H137	0.874170	0.289230	0.013530
C1791	C179	0.920230	0.426390	0.090630
C1801	C180	0.958810	0.446460	0.046430
H1381	H138	0.971670	0.430330	0.031230
H1391	H139	0.825970	0.391130	0.057630
H1401	H140	0.772970	0.408330	0.167230
O411	O41	0.520670	0.556930	0.420870
O421	O42	0.512710	0.564690	0.561470
C1811	C181	0.521350	0.577710	0.485670
C1821	C182	0.535920	0.624940	0.469170
C1831	C183	0.540630	0.652440	0.535370
H1411	H141	0.534330	0.642170	0.590670
C1841	C184	0.555020	0.696090	0.517670
H1421	H142	0.556330	0.713970	0.561770
C1851	C185	0.566760	0.712750	0.440770
C1861	C186	0.560330	0.684200	0.376570
H1431	H143	0.566430	0.694270	0.321070
C1871	C187	0.544930	0.640830	0.392070
H1441	H144	0.540830	0.622570	0.346870
C1881	C188	0.586890	0.759730	0.423970
C1891	C189	0.625470	0.779800	0.379770
H1451	H145	0.638330	0.763670	0.364570
H1461	H146	0.492630	0.724470	0.390970
H1471	H147	0.439630	0.741670	0.500570
O431	O43	0.109740	0.297080	0.754200
O441	O44	0.101980	0.281360	0.894800
C1901	C190	0.088960	0.276980	0.819000
C1911	C191	0.041730	0.244320	0.802500
C1921	C192	0.014230	0.221530	0.868700
H1481	H148	0.024500	0.225500	0.924000
C1931	C193	0.970580	0.192270	0.851000
H1491	H149	0.952700	0.175700	0.895100
C1941	C194	0.953920	0.187350	0.774100
C1951	C195	0.982470	0.209470	0.709900
H1501	H150	0.972400	0.205500	0.654400
C1961	C196	0.025840	0.237440	0.725400
H1511	H151	0.044100	0.251600	0.680200
C1971	C197	0.906940	0.160500	0.757300
C1981	C198	0.886870	0.179010	0.713100
H1521	H152	0.903000	0.208000	0.697900
H1531	H153	0.942200	0.101500	0.724300
H1541	H154	0.925000	0.031300	0.833900
O451	O45	0.776410	0.630410	0.087530
O461	O46	0.768650	0.614690	0.228130
C1991	C199	0.755630	0.610310	0.152330
C2001	C200	0.708400	0.577650	0.135830
C2011	C201	0.680900	0.554860	0.202030
H1551	H155	0.691170	0.558830	0.257330
C2021	C202	0.637250	0.525600	0.184330
H1561	H156	0.619370	0.509030	0.228430
C2031	C203	0.620590	0.520680	0.107430
C2041	C204	0.649140	0.542800	0.043230
H1571	H157	0.639070	0.538830	0.987730
C2051	C205	0.692510	0.570770	0.058730
H1581	H158	0.710770	0.584930	0.013530
C2061	C206	0.573610	0.493830	0.090630
C2071	C207	0.553540	0.512340	0.046430
H1591	H159	0.569670	0.541330	0.031230
H1601	H160	0.608870	0.434830	0.057630
H1611	H161	0.591670	0.364630	0.167230
O471	O47	0.443070	0.963750	0.420870
O481	O48	0.435310	0.948030	0.561470
C2081	C208	0.422290	0.943650	0.485670
C2091	C209	0.375060	0.910990	0.469170
C2101	C210	0.347560	0.888200	0.535370
H1621	H162	0.357830	0.892170	0.590670
C2111	C211	0.303910	0.858940	0.517670
H1631	H163	0.286030	0.842370	0.561770
C2121	C212	0.287250	0.854020	0.440770
C2131	C213	0.315800	0.876140	0.376570
H1641	H164	0.305730	0.872170	0.321070
C2141	C214	0.359170	0.904110	0.392070
H1651	H165	0.377430	0.918270	0.346870
C2151	C215	0.240270	0.827170	0.423970
C2161	C216	0.220200	0.845680	0.379770
H1661	H166	0.236330	0.874670	0.364570
H1671	H167	0.275530	0.768170	0.390970
H1681	H168	0.258330	0.697970	0.500570
O491	O49	0.702920	0.812660	0.754200
O501	O50	0.718640	0.820620	0.894800
C2171	C217	0.723020	0.811980	0.819000
C2181	C218	0.755680	0.797410	0.802500
C2191	C219	0.778470	0.792700	0.868700
H1691	H169	0.774500	0.799000	0.924000
C2201	C220	0.807730	0.778310	0.851000
H1701	H170	0.824300	0.777000	0.895100
C2211	C221	0.812650	0.766570	0.774100
C2221	C222	0.790530	0.773000	0.709900
H1711	H171	0.794500	0.766900	0.654400
C2231	C223	0.762560	0.788400	0.725400
H1721	H172	0.748400	0.792500	0.680200
C2241	C224	0.839500	0.746440	0.757300
C2251	C225	0.820990	0.707860	0.713100
H1731	H173	0.792000	0.695000	0.697900
H1741	H174	0.898500	0.840700	0.724300
H1751	H175	0.968700	0.893700	0.833900
O511	O51	0.369590	0.145990	0.087530
O521	O52	0.385310	0.153950	0.228130
C2261	C226	0.389690	0.145310	0.152330
C2271	C227	0.422350	0.130740	0.135830
C2281	C228	0.445140	0.126030	0.202030
H1761	H176	0.441170	0.132330	0.257330
C2291	C229	0.474400	0.111640	0.184330
H1771	H177	0.490970	0.110330	0.228430
C2301	C230	0.479320	0.099900	0.107430
C2311	C231	0.457200	0.106330	0.043230
H1781	H178	0.461170	0.100230	0.987730
C2321	C232	0.429230	0.121730	0.058730
H1791	H179	0.415070	0.125830	0.013530
C2331	C233	0.506170	0.079770	0.090630
C2341	C234	0.487660	0.041190	0.046430
H1801	H180	0.458670	0.028330	0.031230
H1811	H181	0.565170	0.174030	0.057630
H1821	H182	0.635370	0.227030	0.167230
O531	O53	0.036250	0.479330	0.420870
O541	O54	0.051970	0.487290	0.561470
C2351	C235	0.056350	0.478650	0.485670
C2361	C236	0.089010	0.464080	0.469170
C2371	C237	0.111800	0.459370	0.535370
H1831	H183	0.107830	0.465670	0.590670
C2381	C238	0.141060	0.444980	0.517670
H1841	H184	0.157630	0.443670	0.561770
C2391	C239	0.145980	0.433240	0.440770
C2401	C240	0.123860	0.439670	0.376570
H1851	H185	0.127830	0.433570	0.321070
C2411	C241	0.095890	0.455070	0.392070
H1861	H186	0.081730	0.459170	0.346870
C2421	C242	0.172830	0.413110	0.423970
C2431	C243	0.154320	0.374530	0.379770
H1871	H187	0.125330	0.361670	0.364570
H1881	H188	0.231830	0.507370	0.390970
H1891	H189	0.302030	0.560370	0.500570
O551	O55	0.890260	0.187340	0.245800
O561	O56	0.898020	0.179380	0.105200
C2441	C244	0.911040	0.188020	0.181000
C2451	C245	0.958270	0.202590	0.197500
C2461	C246	0.985770	0.207300	0.131300
H1901	H190	0.975500	0.201000	0.076000
C2471	C247	0.029420	0.221690	0.149000
H1911	H191	0.047300	0.223000	0.104900
C2481	C248	0.046080	0.233430	0.225900
C2491	C249	0.017530	0.227000	0.290100
H1921	H192	0.027600	0.233100	0.345600
C2501	C250	0.974160	0.211600	0.274600
H1931	H193	0.955900	0.207500	0.319800
C2511	C251	0.093060	0.253560	0.242700
C2521	C252	0.113130	0.292140	0.286900
H1941	H194	0.097000	0.305000	0.302100
H1951	H195	0.057800	0.159300	0.275700
H1961	H196	0.075000	0.106300	0.166100
O571	O57	0.556930	0.520670	0.579130
O581	O58	0.564690	0.512710	0.438530
C2531	C253	0.577710	0.521350	0.514330
C2541	C254	0.624940	0.535920	0.530830
C2551	C255	0.652440	0.540630	0.464630
H1971	H197	0.642170	0.534330	0.409330
C2561	C256	0.696090	0.555020	0.482330
H1981	H198	0.713970	0.556330	0.438230
C2571	C257	0.712750	0.566760	0.559230
C2581	C258	0.684200	0.560330	0.623430
H1991	H199	0.694270	0.566430	0.678930
C2591	C259	0.640830	0.544930	0.607930
H2001	H200	0.622570	0.540830	0.653130
C2601	C260	0.759730	0.586890	0.576030
C2611	C261	0.779800	0.625470	0.620230
H2011	H201	0.763670	0.638330	0.635430
H2021	H202	0.724470	0.492630	0.609030
H2031	H203	0.741670	0.439630	0.499430
O591	O59	0.223590	0.854010	0.912470
O601	O60	0.231350	0.846050	0.771870
C2621	C262	0.244370	0.854690	0.847670
C2631	C263	0.291600	0.869260	0.864170
C2641	C264	0.319100	0.873970	0.797970
H2041	H204	0.308830	0.867670	0.742670
C2651	C265	0.362750	0.888360	0.815670
H2051	H205	0.380630	0.889670	0.771570
C2661	C266	0.379410	0.900100	0.892570
C2671	C267	0.350860	0.893670	0.956770
H2061	H206	0.360930	0.899770	0.012270
C2681	C268	0.307490	0.878270	0.941270
H2071	H207	0.289230	0.874170	0.986470
C2691	C269	0.426390	0.920230	0.909370
C2701	C270	0.446460	0.958810	0.953570
H2081	H208	0.430330	0.971670	0.968770
H2091	H209	0.391130	0.825970	0.942370
H2101	H210	0.408330	0.772970	0.832770
O611	O61	0.297080	0.109740	0.245800
O621	O62	0.281360	0.101980	0.105200
C2711	C271	0.276980	0.088960	0.181000
C2721	C272	0.244320	0.041730	0.197500
C2731	C273	0.221530	0.014230	0.131300
H2111	H211	0.225500	0.024500	0.076000
C2741	C274	0.192270	0.970580	0.149000
H2121	H212	0.175700	0.952700	0.104900
C2751	C275	0.187350	0.953920	0.225900
C2761	C276	0.209470	0.982470	0.290100
H2131	H213	0.205500	0.972400	0.345600
C2771	C277	0.237440	0.025840	0.274600
H2141	H214	0.251600	0.044100	0.319800
C2781	C278	0.160500	0.906940	0.242700
C2791	C279	0.179010	0.886870	0.286900
H2151	H215	0.208000	0.903000	0.302100
H2161	H216	0.101500	0.942200	0.275700
H2171	H217	0.031300	0.925000	0.166100
O631	O63	0.963750	0.443070	0.579130
O641	O64	0.948030	0.435310	0.438530
C2801	C280	0.943650	0.422290	0.514330
C2811	C281	0.910990	0.375060	0.530830
C2821	C282	0.888200	0.347560	0.464630
H2181	H218	0.892170	0.357830	0.409330
C2831	C283	0.858940	0.303910	0.482330
H2191	H219	0.842370	0.286030	0.438230
C2841	C284	0.854020	0.287250	0.559230
C2851	C285	0.876140	0.315800	0.623430
H2201	H220	0.872170	0.305730	0.678930
C2861	C286	0.904110	0.359170	0.607930
H2211	H221	0.918270	0.377430	0.653130
C2871	C287	0.827170	0.240270	0.576030
C2881	C288	0.845680	0.220200	0.620230
H2221	H222	0.874670	0.236330	0.635430
H2231	H223	0.768170	0.275530	0.609030
H2241	H224	0.697970	0.258330	0.499430
O651	O65	0.630410	0.776410	0.912470
O661	O66	0.614690	0.768650	0.771870
C2891	C289	0.610310	0.755630	0.847670
C2901	C290	0.577650	0.708400	0.864170
C2911	C291	0.554860	0.680900	0.797970
H2251	H225	0.558830	0.691170	0.742670
C2921	C292	0.525600	0.637250	0.815670
H2261	H226	0.509030	0.619370	0.771570
C2931	C293	0.520680	0.620590	0.892570
C2941	C294	0.542800	0.649140	0.956770
H2271	H227	0.538830	0.639070	0.012270
C2951	C295	0.570770	0.692510	0.941270
H2281	H228	0.584930	0.710770	0.986470
C2961	C296	0.493830	0.573610	0.909370
C2971	C297	0.512340	0.553540	0.953570
H2291	H229	0.541330	0.569670	0.968770
H2301	H230	0.434830	0.608870	0.942370
H2311	H231	0.364630	0.591670	0.832770
O671	O67	0.812660	0.702920	0.245800
O681	O68	0.820620	0.718640	0.105200
C2981	C298	0.811980	0.723020	0.181000
C2991	C299	0.797410	0.755680	0.197500
C3001	C300	0.792700	0.778470	0.131300
H2321	H232	0.799000	0.774500	0.076000
C3011	C301	0.778310	0.807730	0.149000
H2331	H233	0.777000	0.824300	0.104900
C3021	C302	0.766570	0.812650	0.225900
C3031	C303	0.773000	0.790530	0.290100
H2341	H234	0.766900	0.794500	0.345600
C3041	C304	0.788400	0.762560	0.274600
H2351	H235	0.792500	0.748400	0.319800
C3051	C305	0.746440	0.839500	0.242700
C3061	C306	0.707860	0.820990	0.286900
H2361	H236	0.695000	0.792000	0.302100
H2371	H237	0.840700	0.898500	0.275700
H2381	H238	0.893700	0.968700	0.166100
O691	O69	0.479330	0.036250	0.579130
O701	O70	0.487290	0.051970	0.438530
C3071	C307	0.478650	0.056350	0.514330
C3081	C308	0.464080	0.089010	0.530830
C3091	C309	0.459370	0.111800	0.464630
H2391	H239	0.465670	0.107830	0.409330
C3101	C310	0.444980	0.141060	0.482330
H2401	H240	0.443670	0.157630	0.438230
C3111	C311	0.433240	0.145980	0.559230
C3121	C312	0.439670	0.123860	0.623430
H2411	H241	0.433570	0.127830	0.678930
C3131	C313	0.455070	0.095890	0.607930
H2421	H242	0.459170	0.081730	0.653130
C3141	C314	0.413110	0.172830	0.576030
C3151	C315	0.374530	0.154320	0.620230
H2431	H243	0.361670	0.125330	0.635430
H2441	H244	0.507370	0.231830	0.609030
H2451	H245	0.560370	0.302030	0.499430
O711	O71	0.145990	0.369590	0.912470
O721	O72	0.153950	0.385310	0.771870
C3161	C316	0.145310	0.389690	0.847670
C3171	C317	0.130740	0.422350	0.864170
C3181	C318	0.126030	0.445140	0.797970
H2461	H246	0.132330	0.441170	0.742670
C3191	C319	0.111640	0.474400	0.815670
H2471	H247	0.110330	0.490970	0.771570
C3201	C320	0.099900	0.479320	0.892570
C3211	C321	0.106330	0.457200	0.956770
H2481	H248	0.100230	0.461170	0.012270
C3221	C322	0.121730	0.429230	0.941270
H2491	H249	0.125830	0.415070	0.986470
C3231	C323	0.079770	0.506170	0.909370
C3241	C324	0.041190	0.487660	0.953570
H2501	H250	0.028330	0.458670	0.968770
H2511	H251	0.174030	0.565170	0.942370
H2521	H252	0.227030	0.635370	0.832770
Cu11	Cu1	0.837660	0.162340	0.085590
Cu21	Cu2	0.504330	0.495670	0.418920
Cu31	Cu3	0.170990	0.829010	0.752260
Cu41	Cu4	0.837660	0.675320	0.085590
Cu51	Cu5	0.504330	0.008650	0.418920
Cu61	Cu6	0.170990	0.341990	0.752260
Cu71	Cu7	0.324680	0.162340	0.085590
Cu81	Cu8	0.991350	0.495670	0.418920
Cu91	Cu9	0.658010	0.829010	0.752260
Cu101	Cu10	0.162340	0.837660	0.914410
Cu111	Cu11	0.829010	0.170990	0.247740
Cu121	Cu12	0.495670	0.504330	0.581080
Cu131	Cu13	0.675320	0.837660	0.914410
Cu141	Cu14	0.341990	0.170990	0.247740
Cu151	Cu15	0.008650	0.504330	0.581080
Cu161	Cu16	0.162340	0.324680	0.914410
Cu171	Cu17	0.829010	0.658010	0.247740
Cu181	Cu18	0.495670	0.991350	0.581080
O731	O73	0.804560	0.902280	0.175000
C3251	C325	0.687740	0.843870	0.309200
C3261	C326	0.765740	0.882870	0.220100
C3271	C327	0.843400	0.921700	0.239700
C3281	C328	0.889900	0.944950	0.200400
H2531	H253	0.910900	0.955450	0.245100
O741	O74	0.471230	0.235610	0.508330
C3291	C329	0.354410	0.177200	0.642530
C3301	C330	0.432410	0.216200	0.553430
C3311	C331	0.510070	0.255030	0.573030
C3321	C332	0.556570	0.278280	0.533730
H2541	H254	0.577570	0.288780	0.578430
O751	O75	0.137890	0.568950	0.841670
C3331	C333	0.021070	0.510540	0.975870
C3341	C334	0.099070	0.549540	0.886770
C3351	C335	0.176730	0.588370	0.906370
C3361	C336	0.223230	0.611620	0.867070
H2551	H255	0.244230	0.622120	0.911770
O761	O76	0.097720	0.902280	0.175000
C3371	C337	0.156130	0.843870	0.309200
C3381	C338	0.117130	0.882870	0.220100
C3391	C339	0.078300	0.921700	0.239700
C3401	C340	0.055050	0.944950	0.200400
H2561	H256	0.044550	0.955450	0.245100
O771	O77	0.764390	0.235610	0.508330
C3411	C341	0.822800	0.177200	0.642530
C3421	C342	0.783800	0.216200	0.553430
C3431	C343	0.744970	0.255030	0.573030
C3441	C344	0.721720	0.278280	0.533730
H2571	H257	0.711220	0.288780	0.578430
O781	O78	0.431050	0.568950	0.841670
C3451	C345	0.489460	0.510540	0.975870
C3461	C346	0.450460	0.549540	0.886770
C3471	C347	0.411630	0.588370	0.906370
C3481	C348	0.388380	0.611620	0.867070
H2581	H258	0.377880	0.622120	0.911770
O791	O79	0.097720	0.195440	0.175000
C3491	C349	0.156130	0.312260	0.309200
C3501	C350	0.117130	0.234260	0.220100
C3511	C351	0.078300	0.156600	0.239700
C3521	C352	0.055050	0.110100	0.200400
H2591	H259	0.044550	0.089100	0.245100
O801	O80	0.764390	0.528770	0.508330
C3531	C353	0.822800	0.645590	0.642530
C3541	C354	0.783800	0.567590	0.553430
C3551	C355	0.744970	0.489930	0.573030
C3561	C356	0.721720	0.443430	0.533730
H2601	H260	0.711220	0.422430	0.578430
O811	O81	0.431050	0.862110	0.841670
C3571	C357	0.489460	0.978930	0.975870
C3581	C358	0.450460	0.900930	0.886770
C3591	C359	0.411630	0.823270	0.906370
C3601	C360	0.388380	0.776770	0.867070
H2611	H261	0.377880	0.755770	0.911770
O821	O82	0.902280	0.804560	0.825000
C3611	C361	0.843870	0.687740	0.690800
C3621	C362	0.882870	0.765740	0.779900
C3631	C363	0.921700	0.843400	0.760300
C3641	C364	0.944950	0.889900	0.799600
H2621	H262	0.955450	0.910900	0.754900
O831	O83	0.568950	0.137890	0.158330
C3651	C365	0.510540	0.021070	0.024130
C3661	C366	0.549540	0.099070	0.113230
C3671	C367	0.588370	0.176730	0.093630
C3681	C368	0.611620	0.223230	0.132930
H2631	H263	0.622120	0.244230	0.088230
O841	O84	0.235610	0.471230	0.491670
C3691	C369	0.177200	0.354410	0.357470
C3701	C370	0.216200	0.432410	0.446570
C3711	C371	0.255030	0.510070	0.426970
C3721	C372	0.278280	0.556570	0.466270
H2641	H264	0.288780	0.577570	0.421570
O851	O85	0.902280	0.097720	0.825000
C3731	C373	0.843870	0.156130	0.690800
C3741	C374	0.882870	0.117130	0.779900
C3751	C375	0.921700	0.078300	0.760300
C3761	C376	0.944950	0.055050	0.799600
H2651	H265	0.955450	0.044550	0.754900
O861	O86	0.568950	0.431050	0.158330
C3771	C377	0.510540	0.489460	0.024130
C3781	C378	0.549540	0.450460	0.113230
C3791	C379	0.588370	0.411630	0.093630
C3801	C380	0.611620	0.388380	0.132930
H2661	H266	0.622120	0.377880	0.088230
O871	O87	0.235610	0.764390	0.491670
C3811	C381	0.177200	0.822800	0.357470
C3821	C382	0.216200	0.783800	0.446570
C3831	C383	0.255030	0.744970	0.426970
C3841	C384	0.278280	0.721720	0.466270
H2671	H267	0.288780	0.711220	0.421570
O881	O88	0.195440	0.097720	0.825000
C3851	C385	0.312260	0.156130	0.690800
C3861	C386	0.234260	0.117130	0.779900
C3871	C387	0.156600	0.078300	0.760300
C3881	C388	0.110100	0.055050	0.799600
H2681	H268	0.089100	0.044550	0.754900
O891	O89	0.862110	0.431050	0.158330
C3891	C389	0.978930	0.489460	0.024130
C3901	C390	0.900930	0.450460	0.113230
C3911	C391	0.823270	0.411630	0.093630
C3921	C392	0.776770	0.388380	0.132930
H2691	H269	0.755770	0.377880	0.088230
O901	O90	0.528770	0.764390	0.491670
C3931	C393	0.645590	0.822800	0.357470
C3941	C394	0.567590	0.783800	0.446570
C3951	C395	0.489930	0.744970	0.426970
C3961	C396	0.443430	0.721720	0.466270
H2701	H270	0.422430	0.711220	0.421570
