data_UMODEH15_clean_PM
_symmetry_space_group_name_H-M	'P1'
_cell_length_a	35.135700
_cell_length_b	35.135700
_cell_length_c	22.381400
_cell_angle_alpha	90.000000
_cell_angle_beta	90.000000
_cell_angle_gamma	120.000000
_symmetry_Int_Tables_number 1

loop_
_symmetry_equiv_pos_as_xyz
'x,y,z'

loop_
_atom_site_label
_atom_site_type_symbol
_atom_site_fract_x
_atom_site_fract_y
_atom_site_fract_z
O11	O1	0.525030	0.971670	0.931280
O21	O2	0.511380	0.944190	0.024360
C11	C1	0.523900	0.946020	0.971640
C21	C2	0.539340	0.914330	0.953580
C31	C3	0.539710	0.885130	0.994780
H11	H1	0.530200	0.884700	0.033700
C41	C4	0.554180	0.856680	0.978300
H21	H2	0.553700	0.836900	0.006300
C51	C5	0.569300	0.856800	0.921270
C61	C6	0.568330	0.885780	0.879710
H31	H3	0.577500	0.886000	0.840700
C71	C7	0.553630	0.914410	0.896390
H41	H4	0.553500	0.933900	0.868400
C81	C8	0.588140	0.828640	0.903910
C91	C9	0.625980	0.846770	0.869680
H51	H5	0.638500	0.876000	0.858200
H61	H6	0.489700	0.722500	0.898700
H71	H7	0.455700	0.705500	0.988600
O31	O3	0.191700	0.305000	0.264610
O41	O4	0.178050	0.277520	0.357690
C101	C10	0.190570	0.279350	0.304970
C111	C11	0.206010	0.247660	0.286910
C121	C12	0.206380	0.218460	0.328110
H81	H8	0.196870	0.218030	0.367030
C131	C13	0.220850	0.190010	0.311630
H91	H9	0.220370	0.170230	0.339630
C141	C14	0.235970	0.190130	0.254600
C151	C15	0.235000	0.219110	0.213040
H101	H10	0.244170	0.219330	0.174030
C161	C16	0.220300	0.247740	0.229720
H111	H11	0.220170	0.267230	0.201730
C171	C17	0.254810	0.161970	0.237240
C181	C18	0.292650	0.180100	0.203010
H121	H12	0.305170	0.209330	0.191530
H131	H13	0.156370	0.055830	0.232030
H141	H14	0.122370	0.038830	0.321930
O51	O5	0.858360	0.638340	0.597950
O61	O6	0.844710	0.610860	0.691030
C191	C19	0.857230	0.612690	0.638310
C201	C20	0.872670	0.581000	0.620250
C211	C21	0.873040	0.551800	0.661450
H151	H15	0.863530	0.551370	0.700370
C221	C22	0.887510	0.523350	0.644970
H161	H16	0.887030	0.503570	0.672970
C231	C23	0.902630	0.523470	0.587940
C241	C24	0.901660	0.552450	0.546380
H171	H17	0.910830	0.552670	0.507370
C251	C25	0.886960	0.581080	0.563060
H181	H18	0.886830	0.600570	0.535070
C261	C26	0.921470	0.495310	0.570580
C271	C27	0.959310	0.513440	0.536350
H191	H19	0.971830	0.542670	0.524870
H201	H20	0.823030	0.389170	0.565370
H211	H21	0.789030	0.372170	0.655270
O71	O7	0.028330	0.553360	0.931280
O81	O8	0.055810	0.567190	0.024360
C281	C28	0.053980	0.577880	0.971640
C291	C29	0.085670	0.625010	0.953580
C301	C30	0.114870	0.654580	0.994780
H221	H22	0.115300	0.645500	0.033700
C311	C31	0.143320	0.697500	0.978300
H231	H23	0.163100	0.716800	0.006300
C321	C32	0.143200	0.712500	0.921270
C331	C33	0.114220	0.682550	0.879710
H241	H24	0.114000	0.691500	0.840700
C341	C34	0.085590	0.639220	0.896390
H251	H25	0.066100	0.619600	0.868400
C351	C35	0.171360	0.759500	0.903910
C361	C36	0.153230	0.779210	0.869680
H261	H26	0.124000	0.762500	0.858200
H271	H27	0.277500	0.767200	0.898700
H281	H28	0.294500	0.750200	0.988600
O91	O9	0.695000	0.886690	0.264610
O101	O10	0.722480	0.900520	0.357690
C371	C37	0.720650	0.911210	0.304970
C381	C38	0.752340	0.958340	0.286910
C391	C39	0.781540	0.987910	0.328110
H291	H29	0.781970	0.978830	0.367030
C401	C40	0.809990	0.030830	0.311630
H301	H30	0.829770	0.050130	0.339630
C411	C41	0.809870	0.045830	0.254600
C421	C42	0.780890	0.015880	0.213040
H311	H31	0.780670	0.024830	0.174030
C431	C43	0.752260	0.972550	0.229720
H321	H32	0.732770	0.952930	0.201730
C441	C44	0.838030	0.092830	0.237240
C451	C45	0.819900	0.112540	0.203010
H331	H33	0.790670	0.095830	0.191530
H341	H34	0.944170	0.100530	0.232030
H351	H35	0.961170	0.083530	0.321930
O111	O11	0.361660	0.220030	0.597950
O121	O12	0.389140	0.233860	0.691030
C461	C46	0.387310	0.244550	0.638310
C471	C47	0.419000	0.291680	0.620250
C481	C48	0.448200	0.321250	0.661450
H361	H36	0.448630	0.312170	0.700370
C491	C49	0.476650	0.364170	0.644970
H371	H37	0.496430	0.383470	0.672970
C501	C50	0.476530	0.379170	0.587940
C511	C51	0.447550	0.349220	0.546380
H381	H38	0.447330	0.358170	0.507370
C521	C52	0.418920	0.305890	0.563060
H391	H39	0.399430	0.286270	0.535070
C531	C53	0.504690	0.426170	0.570580
C541	C54	0.486560	0.445880	0.536350
H401	H40	0.457330	0.429170	0.524870
H411	H41	0.610830	0.433870	0.565370
H421	H42	0.627830	0.416870	0.655270
O131	O13	0.446640	0.474970	0.931280
O141	O14	0.432810	0.488620	0.024360
C551	C55	0.422120	0.476100	0.971640
C561	C56	0.374990	0.460660	0.953580
C571	C57	0.345420	0.460290	0.994780
H431	H43	0.354500	0.469800	0.033700
C581	C58	0.302500	0.445820	0.978300
H441	H44	0.283200	0.446300	0.006300
C591	C59	0.287500	0.430700	0.921270
C601	C60	0.317450	0.431670	0.879710
H451	H45	0.308500	0.422500	0.840700
C611	C61	0.360780	0.446370	0.896390
H461	H46	0.380400	0.446500	0.868400
C621	C62	0.240500	0.411860	0.903910
C631	C63	0.220790	0.374020	0.869680
H471	H47	0.237500	0.361500	0.858200
H481	H48	0.232800	0.510300	0.898700
H491	H49	0.249800	0.544300	0.988600
O151	O15	0.113310	0.808300	0.264610
O161	O16	0.099480	0.821950	0.357690
C641	C64	0.088790	0.809430	0.304970
C651	C65	0.041660	0.793990	0.286910
C661	C66	0.012090	0.793620	0.328110
H501	H50	0.021170	0.803130	0.367030
C671	C67	0.969170	0.779150	0.311630
H511	H51	0.949870	0.779630	0.339630
C681	C68	0.954170	0.764030	0.254600
C691	C69	0.984120	0.765000	0.213040
H521	H52	0.975170	0.755830	0.174030
C701	C70	0.027450	0.779700	0.229720
H531	H53	0.047070	0.779830	0.201730
C711	C71	0.907170	0.745190	0.237240
C721	C72	0.887460	0.707350	0.203010
H541	H54	0.904170	0.694830	0.191530
H551	H55	0.899470	0.843630	0.232030
H561	H56	0.916470	0.877630	0.321930
O171	O17	0.779970	0.141640	0.597950
O181	O18	0.766140	0.155290	0.691030
C731	C73	0.755450	0.142770	0.638310
C741	C74	0.708320	0.127330	0.620250
C751	C75	0.678750	0.126960	0.661450
H571	H57	0.687830	0.136470	0.700370
C761	C76	0.635830	0.112490	0.644970
H581	H58	0.616530	0.112970	0.672970
C771	C77	0.620830	0.097370	0.587940
C781	C78	0.650780	0.098340	0.546380
H591	H59	0.641830	0.089170	0.507370
C791	C79	0.694110	0.113040	0.563060
H601	H60	0.713730	0.113170	0.535070
C801	C80	0.573830	0.078530	0.570580
C811	C81	0.554120	0.040690	0.536350
H611	H61	0.570830	0.028170	0.524870
H621	H62	0.566130	0.176970	0.565370
H631	H63	0.583130	0.210970	0.655270
O191	O19	0.971670	0.525030	0.068720
O201	O20	0.944190	0.511380	0.975640
C821	C82	0.946020	0.523900	0.028360
C831	C83	0.914330	0.539340	0.046420
C841	C84	0.885130	0.539710	0.005220
H641	H64	0.884700	0.530200	0.966300
C851	C85	0.856680	0.554180	0.021700
H651	H65	0.836900	0.553700	0.993700
C861	C86	0.856800	0.569300	0.078730
C871	C87	0.885780	0.568330	0.120290
H661	H66	0.886000	0.577500	0.159300
C881	C88	0.914410	0.553630	0.103610
H671	H67	0.933900	0.553500	0.131600
C891	C89	0.828640	0.588140	0.096090
C901	C90	0.846770	0.625980	0.130320
H681	H68	0.876000	0.638500	0.141800
H691	H69	0.722500	0.489700	0.101300
H701	H70	0.705500	0.455700	0.011400
O211	O21	0.638340	0.858360	0.402050
O221	O22	0.610860	0.844710	0.308970
C911	C91	0.612690	0.857230	0.361690
C921	C92	0.581000	0.872670	0.379750
C931	C93	0.551800	0.873040	0.338550
H711	H71	0.551370	0.863530	0.299630
C941	C94	0.523350	0.887510	0.355030
H721	H72	0.503570	0.887030	0.327030
C951	C95	0.523470	0.902630	0.412060
C961	C96	0.552450	0.901660	0.453620
H731	H73	0.552670	0.910830	0.492630
C971	C97	0.581080	0.886960	0.436940
H741	H74	0.600570	0.886830	0.464930
C981	C98	0.495310	0.921470	0.429420
C991	C99	0.513440	0.959310	0.463650
H751	H75	0.542670	0.971830	0.475130
H761	H76	0.389170	0.823030	0.434630
H771	H77	0.372170	0.789030	0.344730
O231	O23	0.305000	0.191700	0.735390
O241	O24	0.277520	0.178050	0.642310
C1001	C100	0.279350	0.190570	0.695030
C1011	C101	0.247660	0.206010	0.713090
C1021	C102	0.218460	0.206380	0.671890
H781	H78	0.218030	0.196870	0.632970
C1031	C103	0.190010	0.220850	0.688370
H791	H79	0.170230	0.220370	0.660370
C1041	C104	0.190130	0.235970	0.745400
C1051	C105	0.219110	0.235000	0.786960
H801	H80	0.219330	0.244170	0.825970
C1061	C106	0.247740	0.220300	0.770280
H811	H81	0.267230	0.220170	0.798270
C1071	C107	0.161970	0.254810	0.762760
C1081	C108	0.180100	0.292650	0.796990
H821	H82	0.209330	0.305170	0.808470
H831	H83	0.055830	0.156370	0.767970
H841	H84	0.038830	0.122370	0.678070
O251	O25	0.553360	0.028330	0.068720
O261	O26	0.567190	0.055810	0.975640
C1091	C109	0.577880	0.053980	0.028360
C1101	C110	0.625010	0.085670	0.046420
C1111	C111	0.654580	0.114870	0.005220
H851	H85	0.645500	0.115300	0.966300
C1121	C112	0.697500	0.143320	0.021700
H861	H86	0.716800	0.163100	0.993700
C1131	C113	0.712500	0.143200	0.078730
C1141	C114	0.682550	0.114220	0.120290
H871	H87	0.691500	0.114000	0.159300
C1151	C115	0.639220	0.085590	0.103610
H881	H88	0.619600	0.066100	0.131600
C1161	C116	0.759500	0.171360	0.096090
C1171	C117	0.779210	0.153230	0.130320
H891	H89	0.762500	0.124000	0.141800
H901	H90	0.767200	0.277500	0.101300
H911	H91	0.750200	0.294500	0.011400
O271	O27	0.220030	0.361660	0.402050
O281	O28	0.233860	0.389140	0.308970
C1181	C118	0.244550	0.387310	0.361690
C1191	C119	0.291680	0.419000	0.379750
C1201	C120	0.321250	0.448200	0.338550
H921	H92	0.312170	0.448630	0.299630
C1211	C121	0.364170	0.476650	0.355030
H931	H93	0.383470	0.496430	0.327030
C1221	C122	0.379170	0.476530	0.412060
C1231	C123	0.349220	0.447550	0.453620
H941	H94	0.358170	0.447330	0.492630
C1241	C124	0.305890	0.418920	0.436940
H951	H95	0.286270	0.399430	0.464930
C1251	C125	0.426170	0.504690	0.429420
C1261	C126	0.445880	0.486560	0.463650
H961	H96	0.429170	0.457330	0.475130
H971	H97	0.433870	0.610830	0.434630
H981	H98	0.416870	0.627830	0.344730
O291	O29	0.886690	0.695000	0.735390
O301	O30	0.900520	0.722480	0.642310
C1271	C127	0.911210	0.720650	0.695030
C1281	C128	0.958340	0.752340	0.713090
C1291	C129	0.987910	0.781540	0.671890
H991	H99	0.978830	0.781970	0.632970
C1301	C130	0.030830	0.809990	0.688370
H1001	H100	0.050130	0.829770	0.660370
C1311	C131	0.045830	0.809870	0.745400
C1321	C132	0.015880	0.780890	0.786960
H1011	H101	0.024830	0.780670	0.825970
C1331	C133	0.972550	0.752260	0.770280
H1021	H102	0.952930	0.732770	0.798270
C1341	C134	0.092830	0.838030	0.762760
C1351	C135	0.112540	0.819900	0.796990
H1031	H103	0.095830	0.790670	0.808470
H1041	H104	0.100530	0.944170	0.767970
H1051	H105	0.083530	0.961170	0.678070
O311	O31	0.474970	0.446640	0.068720
O321	O32	0.488620	0.432810	0.975640
C1361	C136	0.476100	0.422120	0.028360
C1371	C137	0.460660	0.374990	0.046420
C1381	C138	0.460290	0.345420	0.005220
H1061	H106	0.469800	0.354500	0.966300
C1391	C139	0.445820	0.302500	0.021700
H1071	H107	0.446300	0.283200	0.993700
C1401	C140	0.430700	0.287500	0.078730
C1411	C141	0.431670	0.317450	0.120290
H1081	H108	0.422500	0.308500	0.159300
C1421	C142	0.446370	0.360780	0.103610
H1091	H109	0.446500	0.380400	0.131600
C1431	C143	0.411860	0.240500	0.096090
C1441	C144	0.374020	0.220790	0.130320
H1101	H110	0.361500	0.237500	0.141800
H1111	H111	0.510300	0.232800	0.101300
H1121	H112	0.544300	0.249800	0.011400
O331	O33	0.141640	0.779970	0.402050
O341	O34	0.155290	0.766140	0.308970
C1451	C145	0.142770	0.755450	0.361690
C1461	C146	0.127330	0.708320	0.379750
C1471	C147	0.126960	0.678750	0.338550
H1131	H113	0.136470	0.687830	0.299630
C1481	C148	0.112490	0.635830	0.355030
H1141	H114	0.112970	0.616530	0.327030
C1491	C149	0.097370	0.620830	0.412060
C1501	C150	0.098340	0.650780	0.453620
H1151	H115	0.089170	0.641830	0.492630
C1511	C151	0.113040	0.694110	0.436940
H1161	H116	0.113170	0.713730	0.464930
C1521	C152	0.078530	0.573830	0.429420
C1531	C153	0.040690	0.554120	0.463650
H1171	H117	0.028170	0.570830	0.475130
H1181	H118	0.176970	0.566130	0.434630
H1191	H119	0.210970	0.583130	0.344730
O351	O35	0.808300	0.113310	0.735390
O361	O36	0.821950	0.099480	0.642310
C1541	C154	0.809430	0.088790	0.695030
C1551	C155	0.793990	0.041660	0.713090
C1561	C156	0.793620	0.012090	0.671890
H1201	H120	0.803130	0.021170	0.632970
C1571	C157	0.779150	0.969170	0.688370
H1211	H121	0.779630	0.949870	0.660370
C1581	C158	0.764030	0.954170	0.745400
C1591	C159	0.765000	0.984120	0.786960
H1221	H122	0.755830	0.975170	0.825970
C1601	C160	0.779700	0.027450	0.770280
H1231	H123	0.779830	0.047070	0.798270
C1611	C161	0.745190	0.907170	0.762760
C1621	C162	0.707350	0.887460	0.796990
H1241	H124	0.694830	0.904170	0.808470
H1251	H125	0.843630	0.899470	0.767970
H1261	H126	0.877630	0.916470	0.678070
O371	O37	0.474970	0.028330	0.068720
O381	O38	0.488620	0.055810	0.975640
C1631	C163	0.476100	0.053980	0.028360
C1641	C164	0.460660	0.085670	0.046420
C1651	C165	0.460290	0.114870	0.005220
H1271	H127	0.469800	0.115300	0.966300
C1661	C166	0.445820	0.143320	0.021700
H1281	H128	0.446300	0.163100	0.993700
C1671	C167	0.430700	0.143200	0.078730
C1681	C168	0.431670	0.114220	0.120290
H1291	H129	0.422500	0.114000	0.159300
C1691	C169	0.446370	0.085590	0.103610
H1301	H130	0.446500	0.066100	0.131600
C1701	C170	0.411860	0.171360	0.096090
C1711	C171	0.374020	0.153230	0.130320
H1311	H131	0.361500	0.124000	0.141800
H1321	H132	0.510300	0.277500	0.101300
H1331	H133	0.544300	0.294500	0.011400
O391	O39	0.141640	0.361660	0.402050
O401	O40	0.155290	0.389140	0.308970
C1721	C172	0.142770	0.387310	0.361690
C1731	C173	0.127330	0.419000	0.379750
C1741	C174	0.126960	0.448200	0.338550
H1341	H134	0.136470	0.448630	0.299630
C1751	C175	0.112490	0.476650	0.355030
H1351	H135	0.112970	0.496430	0.327030
C1761	C176	0.097370	0.476530	0.412060
C1771	C177	0.098340	0.447550	0.453620
H1361	H136	0.089170	0.447330	0.492630
C1781	C178	0.113040	0.418920	0.436940
H1371	H137	0.113170	0.399430	0.464930
C1791	C179	0.078530	0.504690	0.429420
C1801	C180	0.040690	0.486560	0.463650
H1381	H138	0.028170	0.457330	0.475130
H1391	H139	0.176970	0.610830	0.434630
H1401	H140	0.210970	0.627830	0.344730
O411	O41	0.808300	0.695000	0.735390
O421	O42	0.821950	0.722480	0.642310
C1811	C181	0.809430	0.720650	0.695030
C1821	C182	0.793990	0.752340	0.713090
C1831	C183	0.793620	0.781540	0.671890
H1411	H141	0.803130	0.781970	0.632970
C1841	C184	0.779150	0.809990	0.688370
H1421	H142	0.779630	0.829770	0.660370
C1851	C185	0.764030	0.809870	0.745400
C1861	C186	0.765000	0.780890	0.786960
H1431	H143	0.755830	0.780670	0.825970
C1871	C187	0.779700	0.752260	0.770280
H1441	H144	0.779830	0.732770	0.798270
C1881	C188	0.745190	0.838030	0.762760
C1891	C189	0.707350	0.819900	0.796990
H1451	H145	0.694830	0.790670	0.808470
H1461	H146	0.843630	0.944170	0.767970
H1471	H147	0.877630	0.961170	0.678070
O431	O43	0.971670	0.446640	0.068720
O441	O44	0.944190	0.432810	0.975640
C1901	C190	0.946020	0.422120	0.028360
C1911	C191	0.914330	0.374990	0.046420
C1921	C192	0.885130	0.345420	0.005220
H1481	H148	0.884700	0.354500	0.966300
C1931	C193	0.856680	0.302500	0.021700
H1491	H149	0.836900	0.283200	0.993700
C1941	C194	0.856800	0.287500	0.078730
C1951	C195	0.885780	0.317450	0.120290
H1501	H150	0.886000	0.308500	0.159300
C1961	C196	0.914410	0.360780	0.103610
H1511	H151	0.933900	0.380400	0.131600
C1971	C197	0.828640	0.240500	0.096090
C1981	C198	0.846770	0.220790	0.130320
H1521	H152	0.876000	0.237500	0.141800
H1531	H153	0.722500	0.232800	0.101300
H1541	H154	0.705500	0.249800	0.011400
O451	O45	0.638340	0.779970	0.402050
O461	O46	0.610860	0.766140	0.308970
C1991	C199	0.612690	0.755450	0.361690
C2001	C200	0.581000	0.708320	0.379750
C2011	C201	0.551800	0.678750	0.338550
H1551	H155	0.551370	0.687830	0.299630
C2021	C202	0.523350	0.635830	0.355030
H1561	H156	0.503570	0.616530	0.327030
C2031	C203	0.523470	0.620830	0.412060
C2041	C204	0.552450	0.650780	0.453620
H1571	H157	0.552670	0.641830	0.492630
C2051	C205	0.581080	0.694110	0.436940
H1581	H158	0.600570	0.713730	0.464930
C2061	C206	0.495310	0.573830	0.429420
C2071	C207	0.513440	0.554120	0.463650
H1591	H159	0.542670	0.570830	0.475130
H1601	H160	0.389170	0.566130	0.434630
H1611	H161	0.372170	0.583130	0.344730
O471	O47	0.305000	0.113310	0.735390
O481	O48	0.277520	0.099480	0.642310
C2081	C208	0.279350	0.088790	0.695030
C2091	C209	0.247660	0.041660	0.713090
C2101	C210	0.218460	0.012090	0.671890
H1621	H162	0.218030	0.021170	0.632970
C2111	C211	0.190010	0.969170	0.688370
H1631	H163	0.170230	0.949870	0.660370
C2121	C212	0.190130	0.954170	0.745400
C2131	C213	0.219110	0.984120	0.786960
H1641	H164	0.219330	0.975170	0.825970
C2141	C214	0.247740	0.027450	0.770280
H1651	H165	0.267230	0.047070	0.798270
C2151	C215	0.161970	0.907170	0.762760
C2161	C216	0.180100	0.887460	0.796990
H1661	H166	0.209330	0.904170	0.808470
H1671	H167	0.055830	0.899470	0.767970
H1681	H168	0.038830	0.916470	0.678070
O491	O49	0.553360	0.525030	0.068720
O501	O50	0.567190	0.511380	0.975640
C2171	C217	0.577880	0.523900	0.028360
C2181	C218	0.625010	0.539340	0.046420
C2191	C219	0.654580	0.539710	0.005220
H1691	H169	0.645500	0.530200	0.966300
C2201	C220	0.697500	0.554180	0.021700
H1701	H170	0.716800	0.553700	0.993700
C2211	C221	0.712500	0.569300	0.078730
C2221	C222	0.682550	0.568330	0.120290
H1711	H171	0.691500	0.577500	0.159300
C2231	C223	0.639220	0.553630	0.103610
H1721	H172	0.619600	0.553500	0.131600
C2241	C224	0.759500	0.588140	0.096090
C2251	C225	0.779210	0.625980	0.130320
H1731	H173	0.762500	0.638500	0.141800
H1741	H174	0.767200	0.489700	0.101300
H1751	H175	0.750200	0.455700	0.011400
O511	O51	0.220030	0.858360	0.402050
O521	O52	0.233860	0.844710	0.308970
C2261	C226	0.244550	0.857230	0.361690
C2271	C227	0.291680	0.872670	0.379750
C2281	C228	0.321250	0.873040	0.338550
H1761	H176	0.312170	0.863530	0.299630
C2291	C229	0.364170	0.887510	0.355030
H1771	H177	0.383470	0.887030	0.327030
C2301	C230	0.379170	0.902630	0.412060
C2311	C231	0.349220	0.901660	0.453620
H1781	H178	0.358170	0.910830	0.492630
C2321	C232	0.305890	0.886960	0.436940
H1791	H179	0.286270	0.886830	0.464930
C2331	C233	0.426170	0.921470	0.429420
C2341	C234	0.445880	0.959310	0.463650
H1801	H180	0.429170	0.971830	0.475130
H1811	H181	0.433870	0.823030	0.434630
H1821	H182	0.416870	0.789030	0.344730
O531	O53	0.886690	0.191700	0.735390
O541	O54	0.900520	0.178050	0.642310
C2351	C235	0.911210	0.190570	0.695030
C2361	C236	0.958340	0.206010	0.713090
C2371	C237	0.987910	0.206380	0.671890
H1831	H183	0.978830	0.196870	0.632970
C2381	C238	0.030830	0.220850	0.688370
H1841	H184	0.050130	0.220370	0.660370
C2391	C239	0.045830	0.235970	0.745400
C2401	C240	0.015880	0.235000	0.786960
H1851	H185	0.024830	0.244170	0.825970
C2411	C241	0.972550	0.220300	0.770280
H1861	H186	0.952930	0.220170	0.798270
C2421	C242	0.092830	0.254810	0.762760
C2431	C243	0.112540	0.292650	0.796990
H1871	H187	0.095830	0.305170	0.808470
H1881	H188	0.100530	0.156370	0.767970
H1891	H189	0.083530	0.122370	0.678070
O551	O55	0.028330	0.474970	0.931280
O561	O56	0.055810	0.488620	0.024360
C2441	C244	0.053980	0.476100	0.971640
C2451	C245	0.085670	0.460660	0.953580
C2461	C246	0.114870	0.460290	0.994780
H1901	H190	0.115300	0.469800	0.033700
C2471	C247	0.143320	0.445820	0.978300
H1911	H191	0.163100	0.446300	0.006300
C2481	C248	0.143200	0.430700	0.921270
C2491	C249	0.114220	0.431670	0.879710
H1921	H192	0.114000	0.422500	0.840700
C2501	C250	0.085590	0.446370	0.896390
H1931	H193	0.066100	0.446500	0.868400
C2511	C251	0.171360	0.411860	0.903910
C2521	C252	0.153230	0.374020	0.869680
H1941	H194	0.124000	0.361500	0.858200
H1951	H195	0.277500	0.510300	0.898700
H1961	H196	0.294500	0.544300	0.988600
O571	O57	0.695000	0.808300	0.264610
O581	O58	0.722480	0.821950	0.357690
C2531	C253	0.720650	0.809430	0.304970
C2541	C254	0.752340	0.793990	0.286910
C2551	C255	0.781540	0.793620	0.328110
H1971	H197	0.781970	0.803130	0.367030
C2561	C256	0.809990	0.779150	0.311630
H1981	H198	0.829770	0.779630	0.339630
C2571	C257	0.809870	0.764030	0.254600
C2581	C258	0.780890	0.765000	0.213040
H1991	H199	0.780670	0.755830	0.174030
C2591	C259	0.752260	0.779700	0.229720
H2001	H200	0.732770	0.779830	0.201730
C2601	C260	0.838030	0.745190	0.237240
C2611	C261	0.819900	0.707350	0.203010
H2011	H201	0.790670	0.694830	0.191530
H2021	H202	0.944170	0.843630	0.232030
H2031	H203	0.961170	0.877630	0.321930
O591	O59	0.361660	0.141640	0.597950
O601	O60	0.389140	0.155290	0.691030
C2621	C262	0.387310	0.142770	0.638310
C2631	C263	0.419000	0.127330	0.620250
C2641	C264	0.448200	0.126960	0.661450
H2041	H204	0.448630	0.136470	0.700370
C2651	C265	0.476650	0.112490	0.644970
H2051	H205	0.496430	0.112970	0.672970
C2661	C266	0.476530	0.097370	0.587940
C2671	C267	0.447550	0.098340	0.546380
H2061	H206	0.447330	0.089170	0.507370
C2681	C268	0.418920	0.113040	0.563060
H2071	H207	0.399430	0.113170	0.535070
C2691	C269	0.504690	0.078530	0.570580
C2701	C270	0.486560	0.040690	0.536350
H2081	H208	0.457330	0.028170	0.524870
H2091	H209	0.610830	0.176970	0.565370
H2101	H210	0.627830	0.210970	0.655270
O611	O61	0.446640	0.971670	0.931280
O621	O62	0.432810	0.944190	0.024360
C2711	C271	0.422120	0.946020	0.971640
C2721	C272	0.374990	0.914330	0.953580
C2731	C273	0.345420	0.885130	0.994780
H2111	H211	0.354500	0.884700	0.033700
C2741	C274	0.302500	0.856680	0.978300
H2121	H212	0.283200	0.836900	0.006300
C2751	C275	0.287500	0.856800	0.921270
C2761	C276	0.317450	0.885780	0.879710
H2131	H213	0.308500	0.886000	0.840700
C2771	C277	0.360780	0.914410	0.896390
H2141	H214	0.380400	0.933900	0.868400
C2781	C278	0.240500	0.828640	0.903910
C2791	C279	0.220790	0.846770	0.869680
H2151	H215	0.237500	0.876000	0.858200
H2161	H216	0.232800	0.722500	0.898700
H2171	H217	0.249800	0.705500	0.988600
O631	O63	0.113310	0.305000	0.264610
O641	O64	0.099480	0.277520	0.357690
C2801	C280	0.088790	0.279350	0.304970
C2811	C281	0.041660	0.247660	0.286910
C2821	C282	0.012090	0.218460	0.328110
H2181	H218	0.021170	0.218030	0.367030
C2831	C283	0.969170	0.190010	0.311630
H2191	H219	0.949870	0.170230	0.339630
C2841	C284	0.954170	0.190130	0.254600
C2851	C285	0.984120	0.219110	0.213040
H2201	H220	0.975170	0.219330	0.174030
C2861	C286	0.027450	0.247740	0.229720
H2211	H221	0.047070	0.267230	0.201730
C2871	C287	0.907170	0.161970	0.237240
C2881	C288	0.887460	0.180100	0.203010
H2221	H222	0.904170	0.209330	0.191530
H2231	H223	0.899470	0.055830	0.232030
H2241	H224	0.916470	0.038830	0.321930
O651	O65	0.779970	0.638340	0.597950
O661	O66	0.766140	0.610860	0.691030
C2891	C289	0.755450	0.612690	0.638310
C2901	C290	0.708320	0.581000	0.620250
C2911	C291	0.678750	0.551800	0.661450
H2251	H225	0.687830	0.551370	0.700370
C2921	C292	0.635830	0.523350	0.644970
H2261	H226	0.616530	0.503570	0.672970
C2931	C293	0.620830	0.523470	0.587940
C2941	C294	0.650780	0.552450	0.546380
H2271	H227	0.641830	0.552670	0.507370
C2951	C295	0.694110	0.581080	0.563060
H2281	H228	0.713730	0.600570	0.535070
C2961	C296	0.573830	0.495310	0.570580
C2971	C297	0.554120	0.513440	0.536350
H2291	H229	0.570830	0.542670	0.524870
H2301	H230	0.566130	0.389170	0.565370
H2311	H231	0.583130	0.372170	0.655270
O671	O67	0.525030	0.553360	0.931280
O681	O68	0.511380	0.567190	0.024360
C2981	C298	0.523900	0.577880	0.971640
C2991	C299	0.539340	0.625010	0.953580
C3001	C300	0.539710	0.654580	0.994780
H2321	H232	0.530200	0.645500	0.033700
C3011	C301	0.554180	0.697500	0.978300
H2331	H233	0.553700	0.716800	0.006300
C3021	C302	0.569300	0.712500	0.921270
C3031	C303	0.568330	0.682550	0.879710
H2341	H234	0.577500	0.691500	0.840700
C3041	C304	0.553630	0.639220	0.896390
H2351	H235	0.553500	0.619600	0.868400
C3051	C305	0.588140	0.759500	0.903910
C3061	C306	0.625980	0.779210	0.869680
H2361	H236	0.638500	0.762500	0.858200
H2371	H237	0.489700	0.767200	0.898700
H2381	H238	0.455700	0.750200	0.988600
O691	O69	0.191700	0.886690	0.264610
O701	O70	0.178050	0.900520	0.357690
C3071	C307	0.190570	0.911210	0.304970
C3081	C308	0.206010	0.958340	0.286910
C3091	C309	0.206380	0.987910	0.328110
H2391	H239	0.196870	0.978830	0.367030
C3101	C310	0.220850	0.030830	0.311630
H2401	H240	0.220370	0.050130	0.339630
C3111	C311	0.235970	0.045830	0.254600
C3121	C312	0.235000	0.015880	0.213040
H2411	H241	0.244170	0.024830	0.174030
C3131	C313	0.220300	0.972550	0.229720
H2421	H242	0.220170	0.952930	0.201730
C3141	C314	0.254810	0.092830	0.237240
C3151	C315	0.292650	0.112540	0.203010
H2431	H243	0.305170	0.095830	0.191530
H2441	H244	0.156370	0.100530	0.232030
H2451	H245	0.122370	0.083530	0.321930
O711	O71	0.858360	0.220030	0.597950
O721	O72	0.844710	0.233860	0.691030
C3161	C316	0.857230	0.244550	0.638310
C3171	C317	0.872670	0.291680	0.620250
C3181	C318	0.873040	0.321250	0.661450
H2461	H246	0.863530	0.312170	0.700370
C3191	C319	0.887510	0.364170	0.644970
H2471	H247	0.887030	0.383470	0.672970
C3201	C320	0.902630	0.379170	0.587940
C3211	C321	0.901660	0.349220	0.546380
H2481	H248	0.910830	0.358170	0.507370
C3221	C322	0.886960	0.305890	0.563060
H2491	H249	0.886830	0.286270	0.535070
C3231	C323	0.921470	0.426170	0.570580
C3241	C324	0.959310	0.445880	0.536350
H2501	H250	0.971830	0.429170	0.524870
H2511	H251	0.823030	0.433870	0.565370
H2521	H252	0.789030	0.416870	0.655270
Cu11	Cu1	0.508070	0.016140	0.945540
Cu21	Cu2	0.174740	0.349470	0.278870
Cu31	Cu3	0.841400	0.682810	0.612210
Cu41	Cu4	0.983860	0.491930	0.945540
Cu51	Cu5	0.650530	0.825260	0.278870
Cu61	Cu6	0.317190	0.158600	0.612210
Cu71	Cu7	0.508070	0.491930	0.945540
Cu81	Cu8	0.174740	0.825260	0.278870
Cu91	Cu9	0.841400	0.158600	0.612210
Cu101	Cu10	0.016140	0.508070	0.054460
Cu111	Cu11	0.682810	0.841400	0.387790
Cu121	Cu12	0.349470	0.174740	0.721130
Cu131	Cu13	0.491930	0.983860	0.054460
Cu141	Cu14	0.158600	0.317190	0.387790
Cu151	Cu15	0.825260	0.650530	0.721130
Cu161	Cu16	0.491930	0.508070	0.054460
Cu171	Cu17	0.158600	0.841400	0.387790
Cu181	Cu18	0.825260	0.174740	0.721130
O731	O73	0.530870	0.765440	0.955230
C3251	C325	0.646360	0.823180	0.851480
C3261	C326	0.568970	0.784490	0.920600
C3271	C327	0.491100	0.745550	0.924100
C3281	C328	0.454600	0.727300	0.963900
H2531	H253	0.427800	0.713900	0.941300
O741	O74	0.197540	0.098770	0.288560
C3291	C329	0.313030	0.156510	0.184810
C3301	C330	0.235640	0.117820	0.253930
C3311	C331	0.157770	0.078880	0.257430
C3321	C332	0.121270	0.060630	0.297230
H2541	H254	0.094470	0.047230	0.274630
O751	O75	0.864200	0.432100	0.621900
C3331	C333	0.979690	0.489850	0.518150
C3341	C334	0.902300	0.451150	0.587270
C3351	C335	0.824430	0.412220	0.590770
C3361	C336	0.787930	0.393970	0.630570
H2551	H255	0.761130	0.380570	0.607970
O761	O76	0.234560	0.765440	0.955230
C3371	C337	0.176820	0.823180	0.851480
C3381	C338	0.215510	0.784490	0.920600
C3391	C339	0.254450	0.745550	0.924100
C3401	C340	0.272700	0.727300	0.963900
H2561	H256	0.286100	0.713900	0.941300
O771	O77	0.901230	0.098770	0.288560
C3411	C341	0.843490	0.156510	0.184810
C3421	C342	0.882180	0.117820	0.253930
C3431	C343	0.921120	0.078880	0.257430
C3441	C344	0.939370	0.060630	0.297230
H2571	H257	0.952770	0.047230	0.274630
O781	O78	0.567900	0.432100	0.621900
C3451	C345	0.510150	0.489850	0.518150
C3461	C346	0.548850	0.451150	0.587270
C3471	C347	0.587780	0.412220	0.590770
C3481	C348	0.606030	0.393970	0.630570
H2581	H258	0.619430	0.380570	0.607970
O791	O79	0.234560	0.469130	0.955230
C3491	C349	0.176820	0.353640	0.851480
C3501	C350	0.215510	0.431030	0.920600
C3511	C351	0.254450	0.508900	0.924100
C3521	C352	0.272700	0.545400	0.963900
H2591	H259	0.286100	0.572200	0.941300
O801	O80	0.901230	0.802460	0.288560
C3531	C353	0.843490	0.686970	0.184810
C3541	C354	0.882180	0.764360	0.253930
C3551	C355	0.921120	0.842230	0.257430
C3561	C356	0.939370	0.878730	0.297230
H2601	H260	0.952770	0.905530	0.274630
O811	O81	0.567900	0.135800	0.621900
C3571	C357	0.510150	0.020310	0.518150
C3581	C358	0.548850	0.097700	0.587270
C3591	C359	0.587780	0.175570	0.590770
C3601	C360	0.606030	0.212070	0.630570
H2611	H261	0.619430	0.238870	0.607970
O821	O82	0.765430	0.530870	0.044770
C3611	C361	0.823180	0.646360	0.148520
C3621	C362	0.784480	0.568970	0.079400
C3631	C363	0.745550	0.491100	0.075900
C3641	C364	0.727300	0.454600	0.036100
H2621	H262	0.713900	0.427800	0.058700
O831	O83	0.432100	0.864200	0.378100
C3651	C365	0.489850	0.979690	0.481850
C3661	C366	0.451150	0.902300	0.412730
C3671	C367	0.412220	0.824430	0.409230
C3681	C368	0.393970	0.787930	0.369430
H2631	H263	0.380570	0.761130	0.392030
O841	O84	0.098770	0.197540	0.711440
C3691	C369	0.156510	0.313030	0.815190
C3701	C370	0.117820	0.235640	0.746070
C3711	C371	0.078880	0.157770	0.742570
C3721	C372	0.060630	0.121270	0.702770
H2641	H264	0.047230	0.094470	0.725370
O851	O85	0.765440	0.234560	0.044770
C3731	C373	0.823180	0.176820	0.148520
C3741	C374	0.784490	0.215510	0.079400
C3751	C375	0.745550	0.254450	0.075900
C3761	C376	0.727300	0.272700	0.036100
H2651	H265	0.713900	0.286100	0.058700
O861	O86	0.432100	0.567900	0.378100
C3771	C377	0.489850	0.510150	0.481850
C3781	C378	0.451150	0.548850	0.412730
C3791	C379	0.412220	0.587780	0.409230
C3801	C380	0.393970	0.606030	0.369430
H2661	H266	0.380570	0.619430	0.392030
O871	O87	0.098770	0.901230	0.711440
C3811	C381	0.156510	0.843490	0.815190
C3821	C382	0.117820	0.882180	0.746070
C3831	C383	0.078880	0.921120	0.742570
C3841	C384	0.060630	0.939370	0.702770
H2671	H267	0.047230	0.952770	0.725370
O881	O88	0.469130	0.234560	0.044770
C3851	C385	0.353640	0.176820	0.148520
C3861	C386	0.431030	0.215510	0.079400
C3871	C387	0.508900	0.254450	0.075900
C3881	C388	0.545400	0.272700	0.036100
H2681	H268	0.572200	0.286100	0.058700
O891	O89	0.135800	0.567900	0.378100
C3891	C389	0.020310	0.510150	0.481850
C3901	C390	0.097700	0.548850	0.412730
C3911	C391	0.175570	0.587780	0.409230
C3921	C392	0.212070	0.606030	0.369430
H2691	H269	0.238870	0.619430	0.392030
O901	O90	0.802460	0.901230	0.711440
C3931	C393	0.686970	0.843490	0.815190
C3941	C394	0.764360	0.882180	0.746070
C3951	C395	0.842230	0.921120	0.742570
C3961	C396	0.878730	0.939370	0.702770
H2701	H270	0.905530	0.952770	0.725370
