data_UMODEH03_clean_PM
_symmetry_space_group_name_H-M	'P1'
_cell_length_a	34.944300
_cell_length_b	34.944300
_cell_length_c	23.436000
_cell_angle_alpha	90.000000
_cell_angle_beta	90.000000
_cell_angle_gamma	120.000000
_symmetry_Int_Tables_number 1

loop_
_symmetry_equiv_pos_as_xyz
'x,y,z'

loop_
_atom_site_label
_atom_site_type_symbol
_atom_site_fract_x
_atom_site_fract_y
_atom_site_fract_z
O11	O1	0.361020	0.219790	0.599870
O21	O2	0.389650	0.234210	0.688550
C11	C1	0.387210	0.244800	0.638560
C21	C2	0.418460	0.291780	0.619970
C31	C3	0.446750	0.322590	0.661040
H11	H1	0.446100	0.314000	0.698700
C41	C4	0.475300	0.365550	0.644530
H21	H2	0.494800	0.385600	0.671100
C51	C5	0.475400	0.379550	0.588710
C61	C6	0.447330	0.348940	0.548630
H31	H3	0.447900	0.357600	0.511000
C71	C7	0.418380	0.305260	0.564700
H41	H4	0.399000	0.285200	0.538100
C81	C8	0.503850	0.426450	0.570320
C91	C9	0.485930	0.446210	0.535650
H51	H5	0.456700	0.429300	0.523900
H61	H6	0.565200	0.389700	0.561800
H71	H7	0.628000	0.416900	0.646800
O31	O3	0.027690	0.553120	0.933200
O41	O4	0.056320	0.567540	0.021880
C101	C10	0.053880	0.578130	0.971890
C111	C11	0.085130	0.625110	0.953300
C121	C12	0.113420	0.655920	0.994370
H81	H8	0.112770	0.647330	0.032030
C131	C13	0.141970	0.698880	0.977860
H91	H9	0.161470	0.718930	0.004430
C141	C14	0.142070	0.712880	0.922040
C151	C15	0.114000	0.682270	0.881960
H101	H10	0.114570	0.690930	0.844330
C161	C16	0.085050	0.638590	0.898030
H111	H11	0.065670	0.618530	0.871430
C171	C17	0.170520	0.759780	0.903650
C181	C18	0.152600	0.779540	0.868980
H121	H12	0.123370	0.762630	0.857230
H131	H13	0.231870	0.723030	0.895130
H141	H14	0.294670	0.750230	0.980130
O51	O5	0.694350	0.886460	0.266540
O61	O6	0.722980	0.900880	0.355220
C191	C19	0.720540	0.911470	0.305230
C201	C20	0.751790	0.958450	0.286640
C211	C21	0.780080	0.989260	0.327710
H151	H15	0.779430	0.980670	0.365370
C221	C22	0.808630	0.032220	0.311200
H161	H16	0.828130	0.052270	0.337770
C231	C23	0.808730	0.046220	0.255380
C241	C24	0.780660	0.015610	0.215300
H171	H17	0.781230	0.024270	0.177670
C251	C25	0.751710	0.971930	0.231370
H181	H18	0.732330	0.951870	0.204770
C261	C26	0.837180	0.093120	0.236990
C271	C27	0.819260	0.112880	0.202320
H191	H19	0.790030	0.095970	0.190570
H201	H20	0.898530	0.056370	0.228470
H211	H21	0.961330	0.083570	0.313470
O71	O7	0.780210	0.141230	0.599870
O81	O8	0.765790	0.155440	0.688550
C281	C28	0.755200	0.142410	0.638560
C291	C29	0.708220	0.126680	0.619970
C301	C30	0.677410	0.124160	0.661040
H221	H22	0.686000	0.132100	0.698700
C311	C31	0.634450	0.109750	0.644530
H231	H23	0.614400	0.109200	0.671100
C321	C32	0.620450	0.095850	0.588710
C331	C33	0.651060	0.098390	0.548630
H241	H24	0.642400	0.090300	0.511000
C341	C34	0.694740	0.113120	0.564700
H251	H25	0.714800	0.113800	0.538100
C351	C35	0.573550	0.077400	0.570320
C361	C36	0.553790	0.039720	0.535650
H261	H26	0.570700	0.027400	0.523900
H271	H27	0.610300	0.175500	0.561800
H281	H28	0.583100	0.211100	0.646800
O91	O9	0.446880	0.474560	0.933200
O101	O10	0.432460	0.488770	0.021880
C371	C37	0.421870	0.475740	0.971890
C381	C38	0.374890	0.460010	0.953300
C391	C39	0.344080	0.457490	0.994370
H291	H29	0.352670	0.465430	0.032030
C401	C40	0.301120	0.443080	0.977860
H301	H30	0.281070	0.442530	0.004430
C411	C41	0.287120	0.429180	0.922040
C421	C42	0.317730	0.431720	0.881960
H311	H31	0.309070	0.423630	0.844330
C431	C43	0.361410	0.446450	0.898030
H321	H32	0.381470	0.447130	0.871430
C441	C44	0.240220	0.410730	0.903650
C451	C45	0.220460	0.373050	0.868980
H331	H33	0.237370	0.360730	0.857230
H341	H34	0.276970	0.508830	0.895130
H351	H35	0.249770	0.544430	0.980130
O111	O11	0.113540	0.807900	0.266540
O121	O12	0.099120	0.822110	0.355220
C461	C46	0.088530	0.809080	0.305230
C471	C47	0.041550	0.793350	0.286640
C481	C48	0.010740	0.790830	0.327710
H361	H36	0.019330	0.798770	0.365370
C491	C49	0.967780	0.776420	0.311200
H371	H37	0.947730	0.775870	0.337770
C501	C50	0.953780	0.762520	0.255380
C511	C51	0.984390	0.765060	0.215300
H381	H38	0.975730	0.756970	0.177670
C521	C52	0.028070	0.779790	0.231370
H391	H39	0.048130	0.780470	0.204770
C531	C53	0.906880	0.744070	0.236990
C541	C54	0.887120	0.706390	0.202320
H401	H40	0.904030	0.694070	0.190570
H411	H41	0.943630	0.842170	0.228470
H421	H42	0.916430	0.877770	0.313470
O131	O13	0.858770	0.638980	0.599870
O141	O14	0.844560	0.610350	0.688550
C551	C55	0.857590	0.612790	0.638560
C561	C56	0.873320	0.581540	0.619970
C571	C57	0.875840	0.553250	0.661040
H431	H43	0.867900	0.553900	0.698700
C581	C58	0.890250	0.524700	0.644530
H441	H44	0.890800	0.505200	0.671100
C591	C59	0.904150	0.524600	0.588710
C601	C60	0.901610	0.552670	0.548630
H451	H45	0.909700	0.552100	0.511000
C611	C61	0.886880	0.581620	0.564700
H461	H46	0.886200	0.601000	0.538100
C621	C62	0.922600	0.496150	0.570320
C631	C63	0.960280	0.514070	0.535650
H471	H47	0.972600	0.543300	0.523900
H481	H48	0.824500	0.434800	0.561800
H491	H49	0.788900	0.372000	0.646800
O151	O15	0.525440	0.972310	0.933200
O161	O16	0.511230	0.943680	0.021880
C641	C64	0.524260	0.946120	0.971890
C651	C65	0.539990	0.914870	0.953300
C661	C66	0.542510	0.886580	0.994370
H501	H50	0.534570	0.887230	0.032030
C671	C67	0.556920	0.858030	0.977860
H511	H51	0.557470	0.838530	0.004430
C681	C68	0.570820	0.857930	0.922040
C691	C69	0.568280	0.886000	0.881960
H521	H52	0.576370	0.885430	0.844330
C701	C70	0.553550	0.914950	0.898030
H531	H53	0.552870	0.934330	0.871430
C711	C71	0.589270	0.829480	0.903650
C721	C72	0.626950	0.847400	0.868980
H541	H54	0.639270	0.876630	0.857230
H551	H55	0.491170	0.768130	0.895130
H561	H56	0.455570	0.705330	0.980130
O171	O17	0.192100	0.305650	0.266540
O181	O18	0.177890	0.277020	0.355220
C731	C73	0.190920	0.279460	0.305230
C741	C74	0.206650	0.248210	0.286640
C751	C75	0.209170	0.219920	0.327710
H571	H57	0.201230	0.220570	0.365370
C761	C76	0.223580	0.191370	0.311200
H581	H58	0.224130	0.171870	0.337770
C771	C77	0.237480	0.191270	0.255380
C781	C78	0.234940	0.219340	0.215300
H591	H59	0.243030	0.218770	0.177670
C791	C79	0.220210	0.248290	0.231370
H601	H60	0.219530	0.267670	0.204770
C801	C80	0.255930	0.162820	0.236990
C811	C81	0.293610	0.180740	0.202320
H611	H61	0.305930	0.209970	0.190570
H621	H62	0.157830	0.101470	0.228470
H631	H63	0.122230	0.038670	0.313470
O191	O19	0.219790	0.361020	0.400130
O201	O20	0.234210	0.389650	0.311450
C821	C82	0.244800	0.387210	0.361440
C831	C83	0.291780	0.418460	0.380030
C841	C84	0.322590	0.446750	0.338960
H641	H64	0.314000	0.446100	0.301300
C851	C85	0.365550	0.475300	0.355470
H651	H65	0.385600	0.494800	0.328900
C861	C86	0.379550	0.475400	0.411290
C871	C87	0.348940	0.447330	0.451370
H661	H66	0.357600	0.447900	0.489000
C881	C88	0.305260	0.418380	0.435300
H671	H67	0.285200	0.399000	0.461900
C891	C89	0.426450	0.503850	0.429680
C901	C90	0.446210	0.485930	0.464350
H681	H68	0.429300	0.456700	0.476100
H691	H69	0.389700	0.565200	0.438200
H701	H70	0.416900	0.628000	0.353200
O211	O21	0.886460	0.694350	0.733460
O221	O22	0.900880	0.722980	0.644780
C911	C91	0.911470	0.720540	0.694770
C921	C92	0.958450	0.751790	0.713360
C931	C93	0.989260	0.780080	0.672290
H711	H71	0.980670	0.779430	0.634630
C941	C94	0.032220	0.808630	0.688800
H721	H72	0.052270	0.828130	0.662230
C951	C95	0.046220	0.808730	0.744620
C961	C96	0.015610	0.780660	0.784700
H731	H73	0.024270	0.781230	0.822330
C971	C97	0.971930	0.751710	0.768630
H741	H74	0.951870	0.732330	0.795230
C981	C98	0.093120	0.837180	0.763010
C991	C99	0.112880	0.819260	0.797680
H751	H75	0.095970	0.790030	0.809430
H761	H76	0.056370	0.898530	0.771530
H771	H77	0.083570	0.961330	0.686530
O231	O23	0.553120	0.027690	0.066800
O241	O24	0.567540	0.056320	0.978120
C1001	C100	0.578130	0.053880	0.028110
C1011	C101	0.625110	0.085130	0.046700
C1021	C102	0.655920	0.113420	0.005630
H781	H78	0.647330	0.112770	0.967970
C1031	C103	0.698880	0.141970	0.022140
H791	H79	0.718930	0.161470	0.995570
C1041	C104	0.712880	0.142070	0.077960
C1051	C105	0.682270	0.114000	0.118040
H801	H80	0.690930	0.114570	0.155670
C1061	C106	0.638590	0.085050	0.101970
H811	H81	0.618530	0.065670	0.128570
C1071	C107	0.759780	0.170520	0.096350
C1081	C108	0.779540	0.152600	0.131020
H821	H82	0.762630	0.123370	0.142770
H831	H83	0.723030	0.231870	0.104870
H841	H84	0.750230	0.294670	0.019870
O251	O25	0.141230	0.780210	0.400130
O261	O26	0.155440	0.765790	0.311450
C1091	C109	0.142410	0.755200	0.361440
C1101	C110	0.126680	0.708220	0.380030
C1111	C111	0.124160	0.677410	0.338960
H851	H85	0.132100	0.686000	0.301300
C1121	C112	0.109750	0.634450	0.355470
H861	H86	0.109200	0.614400	0.328900
C1131	C113	0.095850	0.620450	0.411290
C1141	C114	0.098390	0.651060	0.451370
H871	H87	0.090300	0.642400	0.489000
C1151	C115	0.113120	0.694740	0.435300
H881	H88	0.113800	0.714800	0.461900
C1161	C116	0.077400	0.573550	0.429680
C1171	C117	0.039720	0.553790	0.464350
H891	H89	0.027400	0.570700	0.476100
H901	H90	0.175500	0.610300	0.438200
H911	H91	0.211100	0.583100	0.353200
O271	O27	0.807900	0.113540	0.733460
O281	O28	0.822110	0.099120	0.644780
C1181	C118	0.809080	0.088530	0.694770
C1191	C119	0.793350	0.041550	0.713360
C1201	C120	0.790830	0.010740	0.672290
H921	H92	0.798770	0.019330	0.634630
C1211	C121	0.776420	0.967780	0.688800
H931	H93	0.775870	0.947730	0.662230
C1221	C122	0.762520	0.953780	0.744620
C1231	C123	0.765060	0.984390	0.784700
H941	H94	0.756970	0.975730	0.822330
C1241	C124	0.779790	0.028070	0.768630
H951	H95	0.780470	0.048130	0.795230
C1251	C125	0.744070	0.906880	0.763010
C1261	C126	0.706390	0.887120	0.797680
H961	H96	0.694070	0.904030	0.809430
H971	H97	0.842170	0.943630	0.771530
H981	H98	0.877770	0.916430	0.686530
O291	O29	0.474560	0.446880	0.066800
O301	O30	0.488770	0.432460	0.978120
C1271	C127	0.475740	0.421870	0.028110
C1281	C128	0.460010	0.374890	0.046700
C1291	C129	0.457490	0.344080	0.005630
H991	H99	0.465430	0.352670	0.967970
C1301	C130	0.443080	0.301120	0.022140
H1001	H100	0.442530	0.281070	0.995570
C1311	C131	0.429180	0.287120	0.077960
C1321	C132	0.431720	0.317730	0.118040
H1011	H101	0.423630	0.309070	0.155670
C1331	C133	0.446450	0.361410	0.101970
H1021	H102	0.447130	0.381470	0.128570
C1341	C134	0.410730	0.240220	0.096350
C1351	C135	0.373050	0.220460	0.131020
H1031	H103	0.360730	0.237370	0.142770
H1041	H104	0.508830	0.276970	0.104870
H1051	H105	0.544430	0.249770	0.019870
O311	O31	0.638980	0.858770	0.400130
O321	O32	0.610350	0.844560	0.311450
C1361	C136	0.612790	0.857590	0.361440
C1371	C137	0.581540	0.873320	0.380030
C1381	C138	0.553250	0.875840	0.338960
H1061	H106	0.553900	0.867900	0.301300
C1391	C139	0.524700	0.890250	0.355470
H1071	H107	0.505200	0.890800	0.328900
C1401	C140	0.524600	0.904150	0.411290
C1411	C141	0.552670	0.901610	0.451370
H1081	H108	0.552100	0.909700	0.489000
C1421	C142	0.581620	0.886880	0.435300
H1091	H109	0.601000	0.886200	0.461900
C1431	C143	0.496150	0.922600	0.429680
C1441	C144	0.514070	0.960280	0.464350
H1101	H110	0.543300	0.972600	0.476100
H1111	H111	0.434800	0.824500	0.438200
H1121	H112	0.372000	0.788900	0.353200
O331	O33	0.305650	0.192100	0.733460
O341	O34	0.277020	0.177890	0.644780
C1451	C145	0.279460	0.190920	0.694770
C1461	C146	0.248210	0.206650	0.713360
C1471	C147	0.219920	0.209170	0.672290
H1131	H113	0.220570	0.201230	0.634630
C1481	C148	0.191370	0.223580	0.688800
H1141	H114	0.171870	0.224130	0.662230
C1491	C149	0.191270	0.237480	0.744620
C1501	C150	0.219340	0.234940	0.784700
H1151	H115	0.218770	0.243030	0.822330
C1511	C151	0.248290	0.220210	0.768630
H1161	H116	0.267670	0.219530	0.795230
C1521	C152	0.162820	0.255930	0.763010
C1531	C153	0.180740	0.293610	0.797680
H1171	H117	0.209970	0.305930	0.809430
H1181	H118	0.101470	0.157830	0.771530
H1191	H119	0.038670	0.122230	0.686530
O351	O35	0.972310	0.525440	0.066800
O361	O36	0.943680	0.511230	0.978120
C1541	C154	0.946120	0.524260	0.028110
C1551	C155	0.914870	0.539990	0.046700
C1561	C156	0.886580	0.542510	0.005630
H1201	H120	0.887230	0.534570	0.967970
C1571	C157	0.858030	0.556920	0.022140
H1211	H121	0.838530	0.557470	0.995570
C1581	C158	0.857930	0.570820	0.077960
C1591	C159	0.886000	0.568280	0.118040
H1221	H122	0.885430	0.576370	0.155670
C1601	C160	0.914950	0.553550	0.101970
H1231	H123	0.934330	0.552870	0.128570
C1611	C161	0.829480	0.589270	0.096350
C1621	C162	0.847400	0.626950	0.131020
H1241	H124	0.876630	0.639270	0.142770
H1251	H125	0.768130	0.491170	0.104870
H1261	H126	0.705330	0.455570	0.019870
O371	O37	0.638980	0.780210	0.400130
O381	O38	0.610350	0.765790	0.311450
C1631	C163	0.612790	0.755200	0.361440
C1641	C164	0.581540	0.708220	0.380030
C1651	C165	0.553250	0.677410	0.338960
H1271	H127	0.553900	0.686000	0.301300
C1661	C166	0.524700	0.634450	0.355470
H1281	H128	0.505200	0.614400	0.328900
C1671	C167	0.524600	0.620450	0.411290
C1681	C168	0.552670	0.651060	0.451370
H1291	H129	0.552100	0.642400	0.489000
C1691	C169	0.581620	0.694740	0.435300
H1301	H130	0.601000	0.714800	0.461900
C1701	C170	0.496150	0.573550	0.429680
C1711	C171	0.514070	0.553790	0.464350
H1311	H131	0.543300	0.570700	0.476100
H1321	H132	0.434800	0.610300	0.438200
H1331	H133	0.372000	0.583100	0.353200
O391	O39	0.305650	0.113540	0.733460
O401	O40	0.277020	0.099120	0.644780
C1721	C172	0.279460	0.088530	0.694770
C1731	C173	0.248210	0.041550	0.713360
C1741	C174	0.219920	0.010740	0.672290
H1341	H134	0.220570	0.019330	0.634630
C1751	C175	0.191370	0.967780	0.688800
H1351	H135	0.171870	0.947730	0.662230
C1761	C176	0.191270	0.953780	0.744620
C1771	C177	0.219340	0.984390	0.784700
H1361	H136	0.218770	0.975730	0.822330
C1781	C178	0.248290	0.028070	0.768630
H1371	H137	0.267670	0.048130	0.795230
C1791	C179	0.162820	0.906880	0.763010
C1801	C180	0.180740	0.887120	0.797680
H1381	H138	0.209970	0.904030	0.809430
H1391	H139	0.101470	0.943630	0.771530
H1401	H140	0.038670	0.916430	0.686530
O411	O41	0.972310	0.446880	0.066800
O421	O42	0.943680	0.432460	0.978120
C1811	C181	0.946120	0.421870	0.028110
C1821	C182	0.914870	0.374890	0.046700
C1831	C183	0.886580	0.344080	0.005630
H1411	H141	0.887230	0.352670	0.967970
C1841	C184	0.858030	0.301120	0.022140
H1421	H142	0.838530	0.281070	0.995570
C1851	C185	0.857930	0.287120	0.077960
C1861	C186	0.886000	0.317730	0.118040
H1431	H143	0.885430	0.309070	0.155670
C1871	C187	0.914950	0.361410	0.101970
H1441	H144	0.934330	0.381470	0.128570
C1881	C188	0.829480	0.240220	0.096350
C1891	C189	0.847400	0.220460	0.131020
H1451	H145	0.876630	0.237370	0.142770
H1461	H146	0.768130	0.276970	0.104870
H1471	H147	0.705330	0.249770	0.019870
O431	O43	0.219790	0.858770	0.400130
O441	O44	0.234210	0.844560	0.311450
C1901	C190	0.244800	0.857590	0.361440
C1911	C191	0.291780	0.873320	0.380030
C1921	C192	0.322590	0.875840	0.338960
H1481	H148	0.314000	0.867900	0.301300
C1931	C193	0.365550	0.890250	0.355470
H1491	H149	0.385600	0.890800	0.328900
C1941	C194	0.379550	0.904150	0.411290
C1951	C195	0.348940	0.901610	0.451370
H1501	H150	0.357600	0.909700	0.489000
C1961	C196	0.305260	0.886880	0.435300
H1511	H151	0.285200	0.886200	0.461900
C1971	C197	0.426450	0.922600	0.429680
C1981	C198	0.446210	0.960280	0.464350
H1521	H152	0.429300	0.972600	0.476100
H1531	H153	0.389700	0.824500	0.438200
H1541	H154	0.416900	0.788900	0.353200
O451	O45	0.886460	0.192100	0.733460
O461	O46	0.900880	0.177890	0.644780
C1991	C199	0.911470	0.190920	0.694770
C2001	C200	0.958450	0.206650	0.713360
C2011	C201	0.989260	0.209170	0.672290
H1551	H155	0.980670	0.201230	0.634630
C2021	C202	0.032220	0.223580	0.688800
H1561	H156	0.052270	0.224130	0.662230
C2031	C203	0.046220	0.237480	0.744620
C2041	C204	0.015610	0.234940	0.784700
H1571	H157	0.024270	0.243030	0.822330
C2051	C205	0.971930	0.220210	0.768630
H1581	H158	0.951870	0.219530	0.795230
C2061	C206	0.093120	0.255930	0.763010
C2071	C207	0.112880	0.293610	0.797680
H1591	H159	0.095970	0.305930	0.809430
H1601	H160	0.056370	0.157830	0.771530
H1611	H161	0.083570	0.122230	0.686530
O471	O47	0.553120	0.525440	0.066800
O481	O48	0.567540	0.511230	0.978120
C2081	C208	0.578130	0.524260	0.028110
C2091	C209	0.625110	0.539990	0.046700
C2101	C210	0.655920	0.542510	0.005630
H1621	H162	0.647330	0.534570	0.967970
C2111	C211	0.698880	0.556920	0.022140
H1631	H163	0.718930	0.557470	0.995570
C2121	C212	0.712880	0.570820	0.077960
C2131	C213	0.682270	0.568280	0.118040
H1641	H164	0.690930	0.576370	0.155670
C2141	C214	0.638590	0.553550	0.101970
H1651	H165	0.618530	0.552870	0.128570
C2151	C215	0.759780	0.589270	0.096350
C2161	C216	0.779540	0.626950	0.131020
H1661	H166	0.762630	0.639270	0.142770
H1671	H167	0.723030	0.491170	0.104870
H1681	H168	0.750230	0.455570	0.019870
O491	O49	0.141230	0.361020	0.400130
O501	O50	0.155440	0.389650	0.311450
C2171	C217	0.142410	0.387210	0.361440
C2181	C218	0.126680	0.418460	0.380030
C2191	C219	0.124160	0.446750	0.338960
H1691	H169	0.132100	0.446100	0.301300
C2201	C220	0.109750	0.475300	0.355470
H1701	H170	0.109200	0.494800	0.328900
C2211	C221	0.095850	0.475400	0.411290
C2221	C222	0.098390	0.447330	0.451370
H1711	H171	0.090300	0.447900	0.489000
C2231	C223	0.113120	0.418380	0.435300
H1721	H172	0.113800	0.399000	0.461900
C2241	C224	0.077400	0.503850	0.429680
C2251	C225	0.039720	0.485930	0.464350
H1731	H173	0.027400	0.456700	0.476100
H1741	H174	0.175500	0.565200	0.438200
H1751	H175	0.211100	0.628000	0.353200
O511	O51	0.807900	0.694350	0.733460
O521	O52	0.822110	0.722980	0.644780
C2261	C226	0.809080	0.720540	0.694770
C2271	C227	0.793350	0.751790	0.713360
C2281	C228	0.790830	0.780080	0.672290
H1761	H176	0.798770	0.779430	0.634630
C2291	C229	0.776420	0.808630	0.688800
H1771	H177	0.775870	0.828130	0.662230
C2301	C230	0.762520	0.808730	0.744620
C2311	C231	0.765060	0.780660	0.784700
H1781	H178	0.756970	0.781230	0.822330
C2321	C232	0.779790	0.751710	0.768630
H1791	H179	0.780470	0.732330	0.795230
C2331	C233	0.744070	0.837180	0.763010
C2341	C234	0.706390	0.819260	0.797680
H1801	H180	0.694070	0.790030	0.809430
H1811	H181	0.842170	0.898530	0.771530
H1821	H182	0.877770	0.961330	0.686530
O531	O53	0.474560	0.027690	0.066800
O541	O54	0.488770	0.056320	0.978120
C2351	C235	0.475740	0.053880	0.028110
C2361	C236	0.460010	0.085130	0.046700
C2371	C237	0.457490	0.113420	0.005630
H1831	H183	0.465430	0.112770	0.967970
C2381	C238	0.443080	0.141970	0.022140
H1841	H184	0.442530	0.161470	0.995570
C2391	C239	0.429180	0.142070	0.077960
C2401	C240	0.431720	0.114000	0.118040
H1851	H185	0.423630	0.114570	0.155670
C2411	C241	0.446450	0.085050	0.101970
H1861	H186	0.447130	0.065670	0.128570
C2421	C242	0.410730	0.170520	0.096350
C2431	C243	0.373050	0.152600	0.131020
H1871	H187	0.360730	0.123370	0.142770
H1881	H188	0.508830	0.231870	0.104870
H1891	H189	0.544430	0.294670	0.019870
O551	O55	0.780210	0.638980	0.599870
O561	O56	0.765790	0.610350	0.688550
C2441	C244	0.755200	0.612790	0.638560
C2451	C245	0.708220	0.581540	0.619970
C2461	C246	0.677410	0.553250	0.661040
H1901	H190	0.686000	0.553900	0.698700
C2471	C247	0.634450	0.524700	0.644530
H1911	H191	0.614400	0.505200	0.671100
C2481	C248	0.620450	0.524600	0.588710
C2491	C249	0.651060	0.552670	0.548630
H1921	H192	0.642400	0.552100	0.511000
C2501	C250	0.694740	0.581620	0.564700
H1931	H193	0.714800	0.601000	0.538100
C2511	C251	0.573550	0.496150	0.570320
C2521	C252	0.553790	0.514070	0.535650
H1941	H194	0.570700	0.543300	0.523900
H1951	H195	0.610300	0.434800	0.561800
H1961	H196	0.583100	0.372000	0.646800
O571	O57	0.446880	0.972310	0.933200
O581	O58	0.432460	0.943680	0.021880
C2531	C253	0.421870	0.946120	0.971890
C2541	C254	0.374890	0.914870	0.953300
C2551	C255	0.344080	0.886580	0.994370
H1971	H197	0.352670	0.887230	0.032030
C2561	C256	0.301120	0.858030	0.977860
H1981	H198	0.281070	0.838530	0.004430
C2571	C257	0.287120	0.857930	0.922040
C2581	C258	0.317730	0.886000	0.881960
H1991	H199	0.309070	0.885430	0.844330
C2591	C259	0.361410	0.914950	0.898030
H2001	H200	0.381470	0.934330	0.871430
C2601	C260	0.240220	0.829480	0.903650
C2611	C261	0.220460	0.847400	0.868980
H2011	H201	0.237370	0.876630	0.857230
H2021	H202	0.276970	0.768130	0.895130
H2031	H203	0.249770	0.705330	0.980130
O591	O59	0.113540	0.305650	0.266540
O601	O60	0.099120	0.277020	0.355220
C2621	C262	0.088530	0.279460	0.305230
C2631	C263	0.041550	0.248210	0.286640
C2641	C264	0.010740	0.219920	0.327710
H2041	H204	0.019330	0.220570	0.365370
C2651	C265	0.967780	0.191370	0.311200
H2051	H205	0.947730	0.171870	0.337770
C2661	C266	0.953780	0.191270	0.255380
C2671	C267	0.984390	0.219340	0.215300
H2061	H206	0.975730	0.218770	0.177670
C2681	C268	0.028070	0.248290	0.231370
H2071	H207	0.048130	0.267670	0.204770
C2691	C269	0.906880	0.162820	0.236990
C2701	C270	0.887120	0.180740	0.202320
H2081	H208	0.904030	0.209970	0.190570
H2091	H209	0.943630	0.101470	0.228470
H2101	H210	0.916430	0.038670	0.313470
O611	O61	0.858770	0.219790	0.599870
O621	O62	0.844560	0.234210	0.688550
C2711	C271	0.857590	0.244800	0.638560
C2721	C272	0.873320	0.291780	0.619970
C2731	C273	0.875840	0.322590	0.661040
H2111	H211	0.867900	0.314000	0.698700
C2741	C274	0.890250	0.365550	0.644530
H2121	H212	0.890800	0.385600	0.671100
C2751	C275	0.904150	0.379550	0.588710
C2761	C276	0.901610	0.348940	0.548630
H2131	H213	0.909700	0.357600	0.511000
C2771	C277	0.886880	0.305260	0.564700
H2141	H214	0.886200	0.285200	0.538100
C2781	C278	0.922600	0.426450	0.570320
C2791	C279	0.960280	0.446210	0.535650
H2151	H215	0.972600	0.429300	0.523900
H2161	H216	0.824500	0.389700	0.561800
H2171	H217	0.788900	0.416900	0.646800
O631	O63	0.525440	0.553120	0.933200
O641	O64	0.511230	0.567540	0.021880
C2801	C280	0.524260	0.578130	0.971890
C2811	C281	0.539990	0.625110	0.953300
C2821	C282	0.542510	0.655920	0.994370
H2181	H218	0.534570	0.647330	0.032030
C2831	C283	0.556920	0.698880	0.977860
H2191	H219	0.557470	0.718930	0.004430
C2841	C284	0.570820	0.712880	0.922040
C2851	C285	0.568280	0.682270	0.881960
H2201	H220	0.576370	0.690930	0.844330
C2861	C286	0.553550	0.638590	0.898030
H2211	H221	0.552870	0.618530	0.871430
C2871	C287	0.589270	0.759780	0.903650
C2881	C288	0.626950	0.779540	0.868980
H2221	H222	0.639270	0.762630	0.857230
H2231	H223	0.491170	0.723030	0.895130
H2241	H224	0.455570	0.750230	0.980130
O651	O65	0.192100	0.886460	0.266540
O661	O66	0.177890	0.900880	0.355220
C2891	C289	0.190920	0.911470	0.305230
C2901	C290	0.206650	0.958450	0.286640
C2911	C291	0.209170	0.989260	0.327710
H2251	H225	0.201230	0.980670	0.365370
C2921	C292	0.223580	0.032220	0.311200
H2261	H226	0.224130	0.052270	0.337770
C2931	C293	0.237480	0.046220	0.255380
C2941	C294	0.234940	0.015610	0.215300
H2271	H227	0.243030	0.024270	0.177670
C2951	C295	0.220210	0.971930	0.231370
H2281	H228	0.219530	0.951870	0.204770
C2961	C296	0.255930	0.093120	0.236990
C2971	C297	0.293610	0.112880	0.202320
H2291	H229	0.305930	0.095970	0.190570
H2301	H230	0.157830	0.056370	0.228470
H2311	H231	0.122230	0.083570	0.313470
O671	O67	0.361020	0.141230	0.599870
O681	O68	0.389650	0.155440	0.688550
C2981	C298	0.387210	0.142410	0.638560
C2991	C299	0.418460	0.126680	0.619970
C3001	C300	0.446750	0.124160	0.661040
H2321	H232	0.446100	0.132100	0.698700
C3011	C301	0.475300	0.109750	0.644530
H2331	H233	0.494800	0.109200	0.671100
C3021	C302	0.475400	0.095850	0.588710
C3031	C303	0.447330	0.098390	0.548630
H2341	H234	0.447900	0.090300	0.511000
C3041	C304	0.418380	0.113120	0.564700
H2351	H235	0.399000	0.113800	0.538100
C3051	C305	0.503850	0.077400	0.570320
C3061	C306	0.485930	0.039720	0.535650
H2361	H236	0.456700	0.027400	0.523900
H2371	H237	0.565200	0.175500	0.561800
H2381	H238	0.628000	0.211100	0.646800
O691	O69	0.027690	0.474560	0.933200
O701	O70	0.056320	0.488770	0.021880
C3071	C307	0.053880	0.475740	0.971890
C3081	C308	0.085130	0.460010	0.953300
C3091	C309	0.113420	0.457490	0.994370
H2391	H239	0.112770	0.465430	0.032030
C3101	C310	0.141970	0.443080	0.977860
H2401	H240	0.161470	0.442530	0.004430
C3111	C311	0.142070	0.429180	0.922040
C3121	C312	0.114000	0.431720	0.881960
H2411	H241	0.114570	0.423630	0.844330
C3131	C313	0.085050	0.446450	0.898030
H2421	H242	0.065670	0.447130	0.871430
C3141	C314	0.170520	0.410730	0.903650
C3151	C315	0.152600	0.373050	0.868980
H2431	H243	0.123370	0.360730	0.857230
H2441	H244	0.231870	0.508830	0.895130
H2451	H245	0.294670	0.544430	0.980130
O711	O71	0.694350	0.807900	0.266540
O721	O72	0.722980	0.822110	0.355220
C3161	C316	0.720540	0.809080	0.305230
C3171	C317	0.751790	0.793350	0.286640
C3181	C318	0.780080	0.790830	0.327710
H2461	H246	0.779430	0.798770	0.365370
C3191	C319	0.808630	0.776420	0.311200
H2471	H247	0.828130	0.775870	0.337770
C3201	C320	0.808730	0.762520	0.255380
C3211	C321	0.780660	0.765060	0.215300
H2481	H248	0.781230	0.756970	0.177670
C3221	C322	0.751710	0.779790	0.231370
H2491	H249	0.732330	0.780470	0.204770
C3231	C323	0.837180	0.744070	0.236990
C3241	C324	0.819260	0.706390	0.202320
H2501	H250	0.790030	0.694070	0.190570
H2511	H251	0.898530	0.842170	0.228470
H2521	H252	0.961330	0.877770	0.313470
Cu11	Cu1	0.350140	0.175070	0.718750
Cu21	Cu2	0.016810	0.508400	0.052080
Cu31	Cu3	0.683470	0.841740	0.385420
Cu41	Cu4	0.824930	0.175070	0.718750
Cu51	Cu5	0.491600	0.508400	0.052080
Cu61	Cu6	0.158260	0.841740	0.385420
Cu71	Cu7	0.824930	0.649860	0.718750
Cu81	Cu8	0.491600	0.983190	0.052080
Cu91	Cu9	0.158260	0.316530	0.385420
Cu101	Cu10	0.175070	0.350140	0.281250
Cu111	Cu11	0.841740	0.683470	0.614580
Cu121	Cu12	0.508400	0.016810	0.947920
Cu131	Cu13	0.175070	0.824930	0.281250
Cu141	Cu14	0.841740	0.158260	0.614580
Cu151	Cu15	0.508400	0.491600	0.947920
Cu161	Cu16	0.649860	0.824930	0.281250
Cu171	Cu17	0.316530	0.158260	0.614580
Cu181	Cu18	0.983190	0.491600	0.947920
O731	O73	0.566830	0.433170	0.621840
C3251	C325	0.509940	0.490060	0.518000
C3261	C326	0.548080	0.451920	0.587010
C3271	C327	0.587430	0.412570	0.586000
C3281	C328	0.605960	0.394040	0.623200
H2531	H253	0.619300	0.380700	0.601100
O741	O74	0.233500	0.766500	0.955170
C3291	C329	0.176610	0.823390	0.851330
C3301	C330	0.214750	0.785250	0.920340
C3311	C331	0.254100	0.745900	0.919330
C3321	C332	0.272630	0.727370	0.956530
H2541	H254	0.285970	0.714030	0.934430
O751	O75	0.900160	0.099840	0.288510
C3331	C333	0.843270	0.156730	0.184670
C3341	C334	0.881410	0.118590	0.253680
C3351	C335	0.920760	0.079240	0.252670
C3361	C336	0.939290	0.060710	0.289870
H2551	H255	0.952630	0.047370	0.267770
O761	O76	0.566830	0.133660	0.621840
C3371	C337	0.509940	0.019880	0.518000
C3381	C338	0.548080	0.096160	0.587010
C3391	C339	0.587430	0.174860	0.586000
C3401	C340	0.605960	0.211920	0.623200
H2561	H256	0.619300	0.238600	0.601100
O771	O77	0.233500	0.466990	0.955170
C3411	C341	0.176610	0.353210	0.851330
C3421	C342	0.214750	0.429490	0.920340
C3431	C343	0.254100	0.508190	0.919330
C3441	C344	0.272630	0.545250	0.956530
H2571	H257	0.285970	0.571930	0.934430
O781	O78	0.900160	0.800330	0.288510
C3451	C345	0.843270	0.686550	0.184670
C3461	C346	0.881410	0.762830	0.253680
C3471	C347	0.920760	0.841530	0.252670
C3481	C348	0.939290	0.878590	0.289870
H2581	H258	0.952630	0.905270	0.267770
O791	O79	0.866340	0.433170	0.621840
C3491	C349	0.980120	0.490060	0.518000
C3501	C350	0.903840	0.451920	0.587010
C3511	C351	0.825140	0.412570	0.586000
C3521	C352	0.788080	0.394040	0.623200
H2591	H259	0.761400	0.380700	0.601100
O801	O80	0.533010	0.766500	0.955170
C3531	C353	0.646790	0.823390	0.851330
C3541	C354	0.570510	0.785250	0.920340
C3551	C355	0.491810	0.745900	0.919330
C3561	C356	0.454750	0.727370	0.956530
H2601	H260	0.428070	0.714030	0.934430
O811	O81	0.199670	0.099840	0.288510
C3571	C357	0.313450	0.156730	0.184670
C3581	C358	0.237170	0.118590	0.253680
C3591	C359	0.158470	0.079240	0.252670
C3601	C360	0.121410	0.060710	0.289870
H2611	H261	0.094730	0.047370	0.267770
O821	O82	0.433170	0.566830	0.378160
C3611	C361	0.490060	0.509940	0.482000
C3621	C362	0.451920	0.548080	0.412990
C3631	C363	0.412570	0.587430	0.414000
C3641	C364	0.394040	0.605960	0.376800
H2621	H262	0.380700	0.619300	0.398900
O831	O83	0.099840	0.900160	0.711490
C3651	C365	0.156730	0.843270	0.815330
C3661	C366	0.118590	0.881410	0.746320
C3671	C367	0.079240	0.920760	0.747330
C3681	C368	0.060710	0.939290	0.710130
H2631	H263	0.047370	0.952630	0.732230
O841	O84	0.766500	0.233500	0.044830
C3691	C369	0.823390	0.176610	0.148670
C3701	C370	0.785250	0.214750	0.079660
C3711	C371	0.745900	0.254100	0.080670
C3721	C372	0.727370	0.272630	0.043470
H2641	H264	0.714030	0.285970	0.065570
O851	O85	0.133660	0.566830	0.378160
C3731	C373	0.019880	0.509940	0.482000
C3741	C374	0.096160	0.548080	0.412990
C3751	C375	0.174860	0.587430	0.414000
C3761	C376	0.211920	0.605960	0.376800
H2651	H265	0.238600	0.619300	0.398900
O861	O86	0.800330	0.900160	0.711490
C3771	C377	0.686550	0.843270	0.815330
C3781	C378	0.762830	0.881410	0.746320
C3791	C379	0.841530	0.920760	0.747330
C3801	C380	0.878590	0.939290	0.710130
H2661	H266	0.905270	0.952630	0.732230
O871	O87	0.466990	0.233500	0.044830
C3811	C381	0.353210	0.176610	0.148670
C3821	C382	0.429490	0.214750	0.079660
C3831	C383	0.508190	0.254100	0.080670
C3841	C384	0.545250	0.272630	0.043470
H2671	H267	0.571930	0.285970	0.065570
O881	O88	0.433170	0.866340	0.378160
C3851	C385	0.490060	0.980120	0.482000
C3861	C386	0.451920	0.903840	0.412990
C3871	C387	0.412570	0.825140	0.414000
C3881	C388	0.394040	0.788080	0.376800
H2681	H268	0.380700	0.761400	0.398900
O891	O89	0.099840	0.199670	0.711490
C3891	C389	0.156730	0.313450	0.815330
C3901	C390	0.118590	0.237170	0.746320
C3911	C391	0.079240	0.158470	0.747330
C3921	C392	0.060710	0.121410	0.710130
H2691	H269	0.047370	0.094730	0.732230
O901	O90	0.766500	0.533010	0.044830
C3931	C393	0.823390	0.646790	0.148670
C3941	C394	0.785250	0.570510	0.079660
C3951	C395	0.745900	0.491810	0.080670
C3961	C396	0.727370	0.454750	0.043470
H2701	H270	0.714030	0.428070	0.065570
