data_UMODEH25_clean_PM
_symmetry_space_group_name_H-M	'P1'
_cell_length_a	35.327800
_cell_length_b	35.327800
_cell_length_c	20.118400
_cell_angle_alpha	90.000000
_cell_angle_beta	90.000000
_cell_angle_gamma	120.000000
_symmetry_Int_Tables_number 1

loop_
_symmetry_equiv_pos_as_xyz
'x,y,z'

loop_
_atom_site_label
_atom_site_type_symbol
_atom_site_fract_x
_atom_site_fract_y
_atom_site_fract_z
O11	O1	0.524320	0.553560	0.424680
O21	O2	0.511280	0.566660	0.530410
C11	C1	0.522500	0.577570	0.471910
C21	C2	0.536960	0.624210	0.450900
C31	C3	0.535400	0.652560	0.499640
H11	H1	0.525000	0.642600	0.543300
C41	C4	0.549860	0.695850	0.480510
H21	H2	0.548700	0.715400	0.511900
C51	C5	0.565530	0.710860	0.418200
C61	C6	0.565230	0.681710	0.368530
H31	H3	0.574100	0.691300	0.324200
C71	C7	0.551430	0.638560	0.387480
H41	H4	0.552100	0.618900	0.355900
C81	C8	0.584510	0.757870	0.399770
C91	C9	0.623830	0.778410	0.366490
H51	H5	0.637500	0.761900	0.355700
H61	H6	0.483800	0.718900	0.370200
H71	H7	0.451200	0.748200	0.484200
O31	O3	0.190990	0.886890	0.758010
O41	O4	0.177950	0.899990	0.863740
C101	C10	0.189170	0.910900	0.805240
C111	C11	0.203630	0.957540	0.784230
C121	C12	0.202070	0.985890	0.832970
H81	H8	0.191670	0.975930	0.876630
C131	C13	0.216530	0.029180	0.813840
H91	H9	0.215370	0.048730	0.845230
C141	C14	0.232200	0.044190	0.751530
C151	C15	0.231900	0.015040	0.701860
H101	H10	0.240770	0.024630	0.657530
C161	C16	0.218100	0.971890	0.720810
H111	H11	0.218770	0.952230	0.689230
C171	C17	0.251180	0.091200	0.733100
C181	C18	0.290500	0.111740	0.699820
H121	H12	0.304170	0.095230	0.689030
H131	H13	0.150470	0.052230	0.703530
H141	H14	0.117870	0.081530	0.817530
O51	O5	0.857650	0.220230	0.091350
O61	O6	0.844610	0.233330	0.197080
C191	C19	0.855830	0.244240	0.138580
C201	C20	0.870290	0.290880	0.117570
C211	C21	0.868730	0.319230	0.166310
H151	H15	0.858330	0.309270	0.209970
C221	C22	0.883190	0.362520	0.147180
H161	H16	0.882030	0.382070	0.178570
C231	C23	0.898860	0.377530	0.084870
C241	C24	0.898560	0.348380	0.035200
H171	H17	0.907430	0.357970	0.990870
C251	C25	0.884760	0.305230	0.054150
H181	H18	0.885430	0.285570	0.022570
C261	C26	0.917840	0.424540	0.066440
C271	C27	0.957160	0.445080	0.033160
H191	H19	0.970830	0.428570	0.022370
H201	H20	0.817130	0.385570	0.036870
H211	H21	0.784530	0.414870	0.150870
O71	O7	0.446440	0.970760	0.424680
O81	O8	0.433340	0.944620	0.530410
C281	C28	0.422430	0.944930	0.471910
C291	C29	0.375790	0.912750	0.450900
C301	C30	0.347440	0.882840	0.499640
H221	H22	0.357400	0.882400	0.543300
C311	C31	0.304150	0.854010	0.480510
H231	H23	0.284600	0.833300	0.511900
C321	C32	0.289140	0.854670	0.418200
C331	C33	0.318290	0.883520	0.368530
H241	H24	0.308700	0.882800	0.324200
C341	C34	0.361440	0.912870	0.387480
H251	H25	0.381100	0.933200	0.355900
C351	C35	0.242130	0.826640	0.399770
C361	C36	0.221590	0.845420	0.366490
H261	H26	0.238100	0.875600	0.355700
H271	H27	0.281100	0.764900	0.370200
H281	H28	0.251800	0.703000	0.484200
O91	O9	0.113110	0.304090	0.758010
O101	O10	0.100010	0.277950	0.863740
C371	C37	0.089100	0.278260	0.805240
C381	C38	0.042460	0.246080	0.784230
C391	C39	0.014110	0.216170	0.832970
H291	H29	0.024070	0.215730	0.876630
C401	C40	0.970820	0.187340	0.813840
H301	H30	0.951270	0.166630	0.845230
C411	C41	0.955810	0.188000	0.751530
C421	C42	0.984960	0.216850	0.701860
H311	H31	0.975370	0.216130	0.657530
C431	C43	0.028110	0.246200	0.720810
H321	H32	0.047770	0.266530	0.689230
C441	C44	0.908800	0.159970	0.733100
C451	C45	0.888260	0.178750	0.699820
H331	H33	0.904770	0.208930	0.689030
H341	H34	0.947770	0.098230	0.703530
H351	H35	0.918470	0.036330	0.817530
O111	O11	0.779770	0.637430	0.091350
O121	O12	0.766670	0.611290	0.197080
C461	C46	0.755760	0.611600	0.138580
C471	C47	0.709120	0.579420	0.117570
C481	C48	0.680770	0.549510	0.166310
H361	H36	0.690730	0.549070	0.209970
C491	C49	0.637480	0.520680	0.147180
H371	H37	0.617930	0.499970	0.178570
C501	C50	0.622470	0.521340	0.084870
C511	C51	0.651620	0.550190	0.035200
H381	H38	0.642030	0.549470	0.990870
C521	C52	0.694770	0.579540	0.054150
H391	H39	0.714430	0.599870	0.022570
C531	C53	0.575460	0.493310	0.066440
C541	C54	0.554920	0.512090	0.033160
H401	H40	0.571430	0.542270	0.022370
H411	H41	0.614430	0.431570	0.036870
H421	H42	0.585130	0.369670	0.150870
O131	O13	0.029240	0.475680	0.424680
O141	O14	0.055380	0.488720	0.530410
C551	C55	0.055070	0.477500	0.471910
C561	C56	0.087250	0.463040	0.450900
C571	C57	0.117160	0.464600	0.499640
H431	H43	0.117600	0.475000	0.543300
C581	C58	0.145990	0.450140	0.480510
H441	H44	0.166700	0.451300	0.511900
C591	C59	0.145330	0.434470	0.418200
C601	C60	0.116480	0.434770	0.368530
H451	H45	0.117200	0.425900	0.324200
C611	C61	0.087130	0.448570	0.387480
H461	H46	0.066800	0.447900	0.355900
C621	C62	0.173360	0.415490	0.399770
C631	C63	0.154580	0.376170	0.366490
H471	H47	0.124400	0.362500	0.355700
H481	H48	0.235100	0.516200	0.370200
H491	H49	0.297000	0.548800	0.484200
O151	O15	0.695910	0.809010	0.758010
O161	O16	0.722050	0.822050	0.863740
C641	C64	0.721740	0.810830	0.805240
C651	C65	0.753920	0.796370	0.784230
C661	C66	0.783830	0.797930	0.832970
H501	H50	0.784270	0.808330	0.876630
C671	C67	0.812660	0.783470	0.813840
H511	H51	0.833370	0.784630	0.845230
C681	C68	0.812000	0.767800	0.751530
C691	C69	0.783150	0.768100	0.701860
H521	H52	0.783870	0.759230	0.657530
C701	C70	0.753800	0.781900	0.720810
H531	H53	0.733470	0.781230	0.689230
C711	C71	0.840030	0.748820	0.733100
C721	C72	0.821250	0.709500	0.699820
H541	H54	0.791070	0.695830	0.689030
H551	H55	0.901770	0.849530	0.703530
H561	H56	0.963670	0.882130	0.817530
O171	O17	0.362570	0.142350	0.091350
O181	O18	0.388710	0.155390	0.197080
C731	C73	0.388400	0.144170	0.138580
C741	C74	0.420580	0.129710	0.117570
C751	C75	0.450490	0.131270	0.166310
H571	H57	0.450930	0.141670	0.209970
C761	C76	0.479320	0.116810	0.147180
H581	H58	0.500030	0.117970	0.178570
C771	C77	0.478660	0.101140	0.084870
C781	C78	0.449810	0.101440	0.035200
H591	H59	0.450530	0.092570	0.990870
C791	C79	0.420460	0.115240	0.054150
H601	H60	0.400130	0.114570	0.022570
C801	C80	0.506690	0.082160	0.066440
C811	C81	0.487910	0.042840	0.033160
H611	H61	0.457730	0.029170	0.022370
H621	H62	0.568430	0.182870	0.036870
H631	H63	0.630330	0.215470	0.150870
O191	O19	0.553560	0.524320	0.575320
O201	O20	0.566660	0.511280	0.469590
C821	C82	0.577570	0.522500	0.528090
C831	C83	0.624210	0.536960	0.549100
C841	C84	0.652560	0.535400	0.500360
H641	H64	0.642600	0.525000	0.456700
C851	C85	0.695850	0.549860	0.519490
H651	H65	0.715400	0.548700	0.488100
C861	C86	0.710860	0.565530	0.581800
C871	C87	0.681710	0.565230	0.631470
H661	H66	0.691300	0.574100	0.675800
C881	C88	0.638560	0.551430	0.612520
H671	H67	0.618900	0.552100	0.644100
C891	C89	0.757870	0.584510	0.600230
C901	C90	0.778410	0.623830	0.633510
H681	H68	0.761900	0.637500	0.644300
H691	H69	0.718900	0.483800	0.629800
H701	H70	0.748200	0.451200	0.515800
O211	O21	0.220230	0.857650	0.908650
O221	O22	0.233330	0.844610	0.802920
C911	C91	0.244240	0.855830	0.861420
C921	C92	0.290880	0.870290	0.882430
C931	C93	0.319230	0.868730	0.833690
H711	H71	0.309270	0.858330	0.790030
C941	C94	0.362520	0.883190	0.852820
H721	H72	0.382070	0.882030	0.821430
C951	C95	0.377530	0.898860	0.915130
C961	C96	0.348380	0.898560	0.964800
H731	H73	0.357970	0.907430	0.009130
C971	C97	0.305230	0.884760	0.945850
H741	H74	0.285570	0.885430	0.977430
C981	C98	0.424540	0.917840	0.933560
C991	C99	0.445080	0.957160	0.966840
H751	H75	0.428570	0.970830	0.977630
H761	H76	0.385570	0.817130	0.963130
H771	H77	0.414870	0.784530	0.849130
O231	O23	0.886890	0.190990	0.241990
O241	O24	0.899990	0.177950	0.136260
C1001	C100	0.910900	0.189170	0.194760
C1011	C101	0.957540	0.203630	0.215770
C1021	C102	0.985890	0.202070	0.167030
H781	H78	0.975930	0.191670	0.123370
C1031	C103	0.029180	0.216530	0.186160
H791	H79	0.048730	0.215370	0.154770
C1041	C104	0.044190	0.232200	0.248470
C1051	C105	0.015040	0.231900	0.298140
H801	H80	0.024630	0.240770	0.342470
C1061	C106	0.971890	0.218100	0.279190
H811	H81	0.952230	0.218770	0.310770
C1071	C107	0.091200	0.251180	0.266900
C1081	C108	0.111740	0.290500	0.300180
H821	H82	0.095230	0.304170	0.310970
H831	H83	0.052230	0.150470	0.296470
H841	H84	0.081530	0.117870	0.182470
O251	O25	0.970760	0.446440	0.575320
O261	O26	0.944620	0.433340	0.469590
C1091	C109	0.944930	0.422430	0.528090
C1101	C110	0.912750	0.375790	0.549100
C1111	C111	0.882840	0.347440	0.500360
H851	H85	0.882400	0.357400	0.456700
C1121	C112	0.854010	0.304150	0.519490
H861	H86	0.833300	0.284600	0.488100
C1131	C113	0.854670	0.289140	0.581800
C1141	C114	0.883520	0.318290	0.631470
H871	H87	0.882800	0.308700	0.675800
C1151	C115	0.912870	0.361440	0.612520
H881	H88	0.933200	0.381100	0.644100
C1161	C116	0.826640	0.242130	0.600230
C1171	C117	0.845420	0.221590	0.633510
H891	H89	0.875600	0.238100	0.644300
H901	H90	0.764900	0.281100	0.629800
H911	H91	0.703000	0.251800	0.515800
O271	O27	0.637430	0.779770	0.908650
O281	O28	0.611290	0.766670	0.802920
C1181	C118	0.611600	0.755760	0.861420
C1191	C119	0.579420	0.709120	0.882430
C1201	C120	0.549510	0.680770	0.833690
H921	H92	0.549070	0.690730	0.790030
C1211	C121	0.520680	0.637480	0.852820
H931	H93	0.499970	0.617930	0.821430
C1221	C122	0.521340	0.622470	0.915130
C1231	C123	0.550190	0.651620	0.964800
H941	H94	0.549470	0.642030	0.009130
C1241	C124	0.579540	0.694770	0.945850
H951	H95	0.599870	0.714430	0.977430
C1251	C125	0.493310	0.575460	0.933560
C1261	C126	0.512090	0.554920	0.966840
H961	H96	0.542270	0.571430	0.977630
H971	H97	0.431570	0.614430	0.963130
H981	H98	0.369670	0.585130	0.849130
O291	O29	0.304090	0.113110	0.241990
O301	O30	0.277950	0.100010	0.136260
C1271	C127	0.278260	0.089100	0.194760
C1281	C128	0.246080	0.042460	0.215770
C1291	C129	0.216170	0.014110	0.167030
H991	H99	0.215730	0.024070	0.123370
C1301	C130	0.187340	0.970820	0.186160
H1001	H100	0.166630	0.951270	0.154770
C1311	C131	0.188000	0.955810	0.248470
C1321	C132	0.216850	0.984960	0.298140
H1011	H101	0.216130	0.975370	0.342470
C1331	C133	0.246200	0.028110	0.279190
H1021	H102	0.266530	0.047770	0.310770
C1341	C134	0.159970	0.908800	0.266900
C1351	C135	0.178750	0.888260	0.300180
H1031	H103	0.208930	0.904770	0.310970
H1041	H104	0.098230	0.947770	0.296470
H1051	H105	0.036330	0.918470	0.182470
O311	O31	0.475680	0.029240	0.575320
O321	O32	0.488720	0.055380	0.469590
C1361	C136	0.477500	0.055070	0.528090
C1371	C137	0.463040	0.087250	0.549100
C1381	C138	0.464600	0.117160	0.500360
H1061	H106	0.475000	0.117600	0.456700
C1391	C139	0.450140	0.145990	0.519490
H1071	H107	0.451300	0.166700	0.488100
C1401	C140	0.434470	0.145330	0.581800
C1411	C141	0.434770	0.116480	0.631470
H1081	H108	0.425900	0.117200	0.675800
C1421	C142	0.448570	0.087130	0.612520
H1091	H109	0.447900	0.066800	0.644100
C1431	C143	0.415490	0.173360	0.600230
C1441	C144	0.376170	0.154580	0.633510
H1101	H110	0.362500	0.124400	0.644300
H1111	H111	0.516200	0.235100	0.629800
H1121	H112	0.548800	0.297000	0.515800
O331	O33	0.142350	0.362570	0.908650
O341	O34	0.155390	0.388710	0.802920
C1451	C145	0.144170	0.388400	0.861420
C1461	C146	0.129710	0.420580	0.882430
C1471	C147	0.131270	0.450490	0.833690
H1131	H113	0.141670	0.450930	0.790030
C1481	C148	0.116810	0.479320	0.852820
H1141	H114	0.117970	0.500030	0.821430
C1491	C149	0.101140	0.478660	0.915130
C1501	C150	0.101440	0.449810	0.964800
H1151	H115	0.092570	0.450530	0.009130
C1511	C151	0.115240	0.420460	0.945850
H1161	H116	0.114570	0.400130	0.977430
C1521	C152	0.082160	0.506690	0.933560
C1531	C153	0.042840	0.487910	0.966840
H1171	H117	0.029170	0.457730	0.977630
H1181	H118	0.182870	0.568430	0.963130
H1191	H119	0.215470	0.630330	0.849130
O351	O35	0.809010	0.695910	0.241990
O361	O36	0.822050	0.722050	0.136260
C1541	C154	0.810830	0.721740	0.194760
C1551	C155	0.796370	0.753920	0.215770
C1561	C156	0.797930	0.783830	0.167030
H1201	H120	0.808330	0.784270	0.123370
C1571	C157	0.783470	0.812660	0.186160
H1211	H121	0.784630	0.833370	0.154770
C1581	C158	0.767800	0.812000	0.248470
C1591	C159	0.768100	0.783150	0.298140
H1221	H122	0.759230	0.783870	0.342470
C1601	C160	0.781900	0.753800	0.279190
H1231	H123	0.781230	0.733470	0.310770
C1611	C161	0.748820	0.840030	0.266900
C1621	C162	0.709500	0.821250	0.300180
H1241	H124	0.695830	0.791070	0.310970
H1251	H125	0.849530	0.901770	0.296470
H1261	H126	0.882130	0.963670	0.182470
O371	O37	0.475680	0.446440	0.575320
O381	O38	0.488720	0.433340	0.469590
C1631	C163	0.477500	0.422430	0.528090
C1641	C164	0.463040	0.375790	0.549100
C1651	C165	0.464600	0.347440	0.500360
H1271	H127	0.475000	0.357400	0.456700
C1661	C166	0.450140	0.304150	0.519490
H1281	H128	0.451300	0.284600	0.488100
C1671	C167	0.434470	0.289140	0.581800
C1681	C168	0.434770	0.318290	0.631470
H1291	H129	0.425900	0.308700	0.675800
C1691	C169	0.448570	0.361440	0.612520
H1301	H130	0.447900	0.381100	0.644100
C1701	C170	0.415490	0.242130	0.600230
C1711	C171	0.376170	0.221590	0.633510
H1311	H131	0.362500	0.238100	0.644300
H1321	H132	0.516200	0.281100	0.629800
H1331	H133	0.548800	0.251800	0.515800
O391	O39	0.142350	0.779770	0.908650
O401	O40	0.155390	0.766670	0.802920
C1721	C172	0.144170	0.755760	0.861420
C1731	C173	0.129710	0.709120	0.882430
C1741	C174	0.131270	0.680770	0.833690
H1341	H134	0.141670	0.690730	0.790030
C1751	C175	0.116810	0.637480	0.852820
H1351	H135	0.117970	0.617930	0.821430
C1761	C176	0.101140	0.622470	0.915130
C1771	C177	0.101440	0.651620	0.964800
H1361	H136	0.092570	0.642030	0.009130
C1781	C178	0.115240	0.694770	0.945850
H1371	H137	0.114570	0.714430	0.977430
C1791	C179	0.082160	0.575460	0.933560
C1801	C180	0.042840	0.554920	0.966840
H1381	H138	0.029170	0.571430	0.977630
H1391	H139	0.182870	0.614430	0.963130
H1401	H140	0.215470	0.585130	0.849130
O411	O41	0.809010	0.113110	0.241990
O421	O42	0.822050	0.100010	0.136260
C1811	C181	0.810830	0.089100	0.194760
C1821	C182	0.796370	0.042460	0.215770
C1831	C183	0.797930	0.014110	0.167030
H1411	H141	0.808330	0.024070	0.123370
C1841	C184	0.783470	0.970820	0.186160
H1421	H142	0.784630	0.951270	0.154770
C1851	C185	0.767800	0.955810	0.248470
C1861	C186	0.768100	0.984960	0.298140
H1431	H143	0.759230	0.975370	0.342470
C1871	C187	0.781900	0.028110	0.279190
H1441	H144	0.781230	0.047770	0.310770
C1881	C188	0.748820	0.908800	0.266900
C1891	C189	0.709500	0.888260	0.300180
H1451	H145	0.695830	0.904770	0.310970
H1461	H146	0.849530	0.947770	0.296470
H1471	H147	0.882130	0.918470	0.182470
O431	O43	0.553560	0.029240	0.575320
O441	O44	0.566660	0.055380	0.469590
C1901	C190	0.577570	0.055070	0.528090
C1911	C191	0.624210	0.087250	0.549100
C1921	C192	0.652560	0.117160	0.500360
H1481	H148	0.642600	0.117600	0.456700
C1931	C193	0.695850	0.145990	0.519490
H1491	H149	0.715400	0.166700	0.488100
C1941	C194	0.710860	0.145330	0.581800
C1951	C195	0.681710	0.116480	0.631470
H1501	H150	0.691300	0.117200	0.675800
C1961	C196	0.638560	0.087130	0.612520
H1511	H151	0.618900	0.066800	0.644100
C1971	C197	0.757870	0.173360	0.600230
C1981	C198	0.778410	0.154580	0.633510
H1521	H152	0.761900	0.124400	0.644300
H1531	H153	0.718900	0.235100	0.629800
H1541	H154	0.748200	0.297000	0.515800
O451	O45	0.220230	0.362570	0.908650
O461	O46	0.233330	0.388710	0.802920
C1991	C199	0.244240	0.388400	0.861420
C2001	C200	0.290880	0.420580	0.882430
C2011	C201	0.319230	0.450490	0.833690
H1551	H155	0.309270	0.450930	0.790030
C2021	C202	0.362520	0.479320	0.852820
H1561	H156	0.382070	0.500030	0.821430
C2031	C203	0.377530	0.478660	0.915130
C2041	C204	0.348380	0.449810	0.964800
H1571	H157	0.357970	0.450530	0.009130
C2051	C205	0.305230	0.420460	0.945850
H1581	H158	0.285570	0.400130	0.977430
C2061	C206	0.424540	0.506690	0.933560
C2071	C207	0.445080	0.487910	0.966840
H1591	H159	0.428570	0.457730	0.977630
H1601	H160	0.385570	0.568430	0.963130
H1611	H161	0.414870	0.630330	0.849130
O471	O47	0.886890	0.695910	0.241990
O481	O48	0.899990	0.722050	0.136260
C2081	C208	0.910900	0.721740	0.194760
C2091	C209	0.957540	0.753920	0.215770
C2101	C210	0.985890	0.783830	0.167030
H1621	H162	0.975930	0.784270	0.123370
C2111	C211	0.029180	0.812660	0.186160
H1631	H163	0.048730	0.833370	0.154770
C2121	C212	0.044190	0.812000	0.248470
C2131	C213	0.015040	0.783150	0.298140
H1641	H164	0.024630	0.783870	0.342470
C2141	C214	0.971890	0.753800	0.279190
H1651	H165	0.952230	0.733470	0.310770
C2151	C215	0.091200	0.840030	0.266900
C2161	C216	0.111740	0.821250	0.300180
H1661	H166	0.095230	0.791070	0.310970
H1671	H167	0.052230	0.901770	0.296470
H1681	H168	0.081530	0.963670	0.182470
O491	O49	0.970760	0.524320	0.575320
O501	O50	0.944620	0.511280	0.469590
C2171	C217	0.944930	0.522500	0.528090
C2181	C218	0.912750	0.536960	0.549100
C2191	C219	0.882840	0.535400	0.500360
H1691	H169	0.882400	0.525000	0.456700
C2201	C220	0.854010	0.549860	0.519490
H1701	H170	0.833300	0.548700	0.488100
C2211	C221	0.854670	0.565530	0.581800
C2221	C222	0.883520	0.565230	0.631470
H1711	H171	0.882800	0.574100	0.675800
C2231	C223	0.912870	0.551430	0.612520
H1721	H172	0.933200	0.552100	0.644100
C2241	C224	0.826640	0.584510	0.600230
C2251	C225	0.845420	0.623830	0.633510
H1731	H173	0.875600	0.637500	0.644300
H1741	H174	0.764900	0.483800	0.629800
H1751	H175	0.703000	0.451200	0.515800
O511	O51	0.637430	0.857650	0.908650
O521	O52	0.611290	0.844610	0.802920
C2261	C226	0.611600	0.855830	0.861420
C2271	C227	0.579420	0.870290	0.882430
C2281	C228	0.549510	0.868730	0.833690
H1761	H176	0.549070	0.858330	0.790030
C2291	C229	0.520680	0.883190	0.852820
H1771	H177	0.499970	0.882030	0.821430
C2301	C230	0.521340	0.898860	0.915130
C2311	C231	0.550190	0.898560	0.964800
H1781	H178	0.549470	0.907430	0.009130
C2321	C232	0.579540	0.884760	0.945850
H1791	H179	0.599870	0.885430	0.977430
C2331	C233	0.493310	0.917840	0.933560
C2341	C234	0.512090	0.957160	0.966840
H1801	H180	0.542270	0.970830	0.977630
H1811	H181	0.431570	0.817130	0.963130
H1821	H182	0.369670	0.784530	0.849130
O531	O53	0.304090	0.190990	0.241990
O541	O54	0.277950	0.177950	0.136260
C2351	C235	0.278260	0.189170	0.194760
C2361	C236	0.246080	0.203630	0.215770
C2371	C237	0.216170	0.202070	0.167030
H1831	H183	0.215730	0.191670	0.123370
C2381	C238	0.187340	0.216530	0.186160
H1841	H184	0.166630	0.215370	0.154770
C2391	C239	0.188000	0.232200	0.248470
C2401	C240	0.216850	0.231900	0.298140
H1851	H185	0.216130	0.240770	0.342470
C2411	C241	0.246200	0.218100	0.279190
H1861	H186	0.266530	0.218770	0.310770
C2421	C242	0.159970	0.251180	0.266900
C2431	C243	0.178750	0.290500	0.300180
H1871	H187	0.208930	0.304170	0.310970
H1881	H188	0.098230	0.150470	0.296470
H1891	H189	0.036330	0.117870	0.182470
O551	O55	0.446440	0.475680	0.424680
O561	O56	0.433340	0.488720	0.530410
C2441	C244	0.422430	0.477500	0.471910
C2451	C245	0.375790	0.463040	0.450900
C2461	C246	0.347440	0.464600	0.499640
H1901	H190	0.357400	0.475000	0.543300
C2471	C247	0.304150	0.450140	0.480510
H1911	H191	0.284600	0.451300	0.511900
C2481	C248	0.289140	0.434470	0.418200
C2491	C249	0.318290	0.434770	0.368530
H1921	H192	0.308700	0.425900	0.324200
C2501	C250	0.361440	0.448570	0.387480
H1931	H193	0.381100	0.447900	0.355900
C2511	C251	0.242130	0.415490	0.399770
C2521	C252	0.221590	0.376170	0.366490
H1941	H194	0.238100	0.362500	0.355700
H1951	H195	0.281100	0.516200	0.370200
H1961	H196	0.251800	0.548800	0.484200
O571	O57	0.113110	0.809010	0.758010
O581	O58	0.100010	0.822050	0.863740
C2531	C253	0.089100	0.810830	0.805240
C2541	C254	0.042460	0.796370	0.784230
C2551	C255	0.014110	0.797930	0.832970
H1971	H197	0.024070	0.808330	0.876630
C2561	C256	0.970820	0.783470	0.813840
H1981	H198	0.951270	0.784630	0.845230
C2571	C257	0.955810	0.767800	0.751530
C2581	C258	0.984960	0.768100	0.701860
H1991	H199	0.975370	0.759230	0.657530
C2591	C259	0.028110	0.781900	0.720810
H2001	H200	0.047770	0.781230	0.689230
C2601	C260	0.908800	0.748820	0.733100
C2611	C261	0.888260	0.709500	0.699820
H2011	H201	0.904770	0.695830	0.689030
H2021	H202	0.947770	0.849530	0.703530
H2031	H203	0.918470	0.882130	0.817530
O591	O59	0.779770	0.142350	0.091350
O601	O60	0.766670	0.155390	0.197080
C2621	C262	0.755760	0.144170	0.138580
C2631	C263	0.709120	0.129710	0.117570
C2641	C264	0.680770	0.131270	0.166310
H2041	H204	0.690730	0.141670	0.209970
C2651	C265	0.637480	0.116810	0.147180
H2051	H205	0.617930	0.117970	0.178570
C2661	C266	0.622470	0.101140	0.084870
C2671	C267	0.651620	0.101440	0.035200
H2061	H206	0.642030	0.092570	0.990870
C2681	C268	0.694770	0.115240	0.054150
H2071	H207	0.714430	0.114570	0.022570
C2691	C269	0.575460	0.082160	0.066440
C2701	C270	0.554920	0.042840	0.033160
H2081	H208	0.571430	0.029170	0.022370
H2091	H209	0.614430	0.182870	0.036870
H2101	H210	0.585130	0.215470	0.150870
O611	O61	0.029240	0.553560	0.424680
O621	O62	0.055380	0.566660	0.530410
C2711	C271	0.055070	0.577570	0.471910
C2721	C272	0.087250	0.624210	0.450900
C2731	C273	0.117160	0.652560	0.499640
H2111	H211	0.117600	0.642600	0.543300
C2741	C274	0.145990	0.695850	0.480510
H2121	H212	0.166700	0.715400	0.511900
C2751	C275	0.145330	0.710860	0.418200
C2761	C276	0.116480	0.681710	0.368530
H2131	H213	0.117200	0.691300	0.324200
C2771	C277	0.087130	0.638560	0.387480
H2141	H214	0.066800	0.618900	0.355900
C2781	C278	0.173360	0.757870	0.399770
C2791	C279	0.154580	0.778410	0.366490
H2151	H215	0.124400	0.761900	0.355700
H2161	H216	0.235100	0.718900	0.370200
H2171	H217	0.297000	0.748200	0.484200
O631	O63	0.695910	0.886890	0.758010
O641	O64	0.722050	0.899990	0.863740
C2801	C280	0.721740	0.910900	0.805240
C2811	C281	0.753920	0.957540	0.784230
C2821	C282	0.783830	0.985890	0.832970
H2181	H218	0.784270	0.975930	0.876630
C2831	C283	0.812660	0.029180	0.813840
H2191	H219	0.833370	0.048730	0.845230
C2841	C284	0.812000	0.044190	0.751530
C2851	C285	0.783150	0.015040	0.701860
H2201	H220	0.783870	0.024630	0.657530
C2861	C286	0.753800	0.971890	0.720810
H2211	H221	0.733470	0.952230	0.689230
C2871	C287	0.840030	0.091200	0.733100
C2881	C288	0.821250	0.111740	0.699820
H2221	H222	0.791070	0.095230	0.689030
H2231	H223	0.901770	0.052230	0.703530
H2241	H224	0.963670	0.081530	0.817530
O651	O65	0.362570	0.220230	0.091350
O661	O66	0.388710	0.233330	0.197080
C2891	C289	0.388400	0.244240	0.138580
C2901	C290	0.420580	0.290880	0.117570
C2911	C291	0.450490	0.319230	0.166310
H2251	H225	0.450930	0.309270	0.209970
C2921	C292	0.479320	0.362520	0.147180
H2261	H226	0.500030	0.382070	0.178570
C2931	C293	0.478660	0.377530	0.084870
C2941	C294	0.449810	0.348380	0.035200
H2271	H227	0.450530	0.357970	0.990870
C2951	C295	0.420460	0.305230	0.054150
H2281	H228	0.400130	0.285570	0.022570
C2961	C296	0.506690	0.424540	0.066440
C2971	C297	0.487910	0.445080	0.033160
H2291	H229	0.457730	0.428570	0.022370
H2301	H230	0.568430	0.385570	0.036870
H2311	H231	0.630330	0.414870	0.150870
O671	O67	0.524320	0.970760	0.424680
O681	O68	0.511280	0.944620	0.530410
C2981	C298	0.522500	0.944930	0.471910
C2991	C299	0.536960	0.912750	0.450900
C3001	C300	0.535400	0.882840	0.499640
H2321	H232	0.525000	0.882400	0.543300
C3011	C301	0.549860	0.854010	0.480510
H2331	H233	0.548700	0.833300	0.511900
C3021	C302	0.565530	0.854670	0.418200
C3031	C303	0.565230	0.883520	0.368530
H2341	H234	0.574100	0.882800	0.324200
C3041	C304	0.551430	0.912870	0.387480
H2351	H235	0.552100	0.933200	0.355900
C3051	C305	0.584510	0.826640	0.399770
C3061	C306	0.623830	0.845420	0.366490
H2361	H236	0.637500	0.875600	0.355700
H2371	H237	0.483800	0.764900	0.370200
H2381	H238	0.451200	0.703000	0.484200
O691	O69	0.190990	0.304090	0.758010
O701	O70	0.177950	0.277950	0.863740
C3071	C307	0.189170	0.278260	0.805240
C3081	C308	0.203630	0.246080	0.784230
C3091	C309	0.202070	0.216170	0.832970
H2391	H239	0.191670	0.215730	0.876630
C3101	C310	0.216530	0.187340	0.813840
H2401	H240	0.215370	0.166630	0.845230
C3111	C311	0.232200	0.188000	0.751530
C3121	C312	0.231900	0.216850	0.701860
H2411	H241	0.240770	0.216130	0.657530
C3131	C313	0.218100	0.246200	0.720810
H2421	H242	0.218770	0.266530	0.689230
C3141	C314	0.251180	0.159970	0.733100
C3151	C315	0.290500	0.178750	0.699820
H2431	H243	0.304170	0.208930	0.689030
H2441	H244	0.150470	0.098230	0.703530
H2451	H245	0.117870	0.036330	0.817530
O711	O71	0.857650	0.637430	0.091350
O721	O72	0.844610	0.611290	0.197080
C3161	C316	0.855830	0.611600	0.138580
C3171	C317	0.870290	0.579420	0.117570
C3181	C318	0.868730	0.549510	0.166310
H2461	H246	0.858330	0.549070	0.209970
C3191	C319	0.883190	0.520680	0.147180
H2471	H247	0.882030	0.499970	0.178570
C3201	C320	0.898860	0.521340	0.084870
C3211	C321	0.898560	0.550190	0.035200
H2481	H248	0.907430	0.549470	0.990870
C3221	C322	0.884760	0.579540	0.054150
H2491	H249	0.885430	0.599870	0.022570
C3231	C323	0.917840	0.493310	0.066440
C3241	C324	0.957160	0.512090	0.033160
H2501	H250	0.970830	0.542270	0.022370
H2511	H251	0.817130	0.431570	0.036870
H2521	H252	0.784530	0.369670	0.150870
Cu11	Cu1	0.492470	0.507530	0.560860
Cu21	Cu2	0.159130	0.840870	0.894190
Cu31	Cu3	0.825800	0.174200	0.227530
Cu41	Cu4	0.492470	0.984930	0.560860
Cu51	Cu5	0.159130	0.318260	0.894190
Cu61	Cu6	0.825800	0.651600	0.227530
Cu71	Cu7	0.015070	0.507530	0.560860
Cu81	Cu8	0.681740	0.840870	0.894190
Cu91	Cu9	0.348400	0.174200	0.227530
Cu101	Cu10	0.507530	0.492470	0.439140
Cu111	Cu11	0.174200	0.825800	0.772470
Cu121	Cu12	0.840870	0.159130	0.105810
Cu131	Cu13	0.984930	0.492470	0.439140
Cu141	Cu14	0.651600	0.825800	0.772470
Cu151	Cu15	0.318260	0.159130	0.105810
Cu161	Cu16	0.507530	0.015070	0.439140
Cu171	Cu17	0.174200	0.348400	0.772470
Cu181	Cu18	0.840870	0.681740	0.105810
O731	O73	0.523560	0.761780	0.449900
C3251	C325	0.644700	0.822350	0.347800
C3261	C326	0.564610	0.782300	0.416300
C3271	C327	0.484600	0.742300	0.398200
C3281	C328	0.447700	0.723850	0.456600
H2531	H253	0.418500	0.709250	0.436400
O741	O74	0.190230	0.095110	0.783230
C3291	C329	0.311370	0.155680	0.681130
C3301	C330	0.231280	0.115640	0.749630
C3311	C331	0.151270	0.075630	0.731530
C3321	C332	0.114370	0.057180	0.789930
H2541	H254	0.085170	0.042580	0.769730
O751	O75	0.856890	0.428450	0.116570
C3331	C333	0.978030	0.489020	0.014470
C3341	C334	0.897940	0.448970	0.082970
C3351	C335	0.817930	0.408970	0.064870
C3361	C336	0.781030	0.390520	0.123270
H2551	H255	0.751830	0.375920	0.103070
O761	O76	0.238220	0.761780	0.449900
C3371	C337	0.177650	0.822350	0.347800
C3381	C338	0.217700	0.782300	0.416300
C3391	C339	0.257700	0.742300	0.398200
C3401	C340	0.276150	0.723850	0.456600
H2561	H256	0.290750	0.709250	0.436400
O771	O77	0.904890	0.095110	0.783230
C3411	C341	0.844320	0.155680	0.681130
C3421	C342	0.884360	0.115640	0.749630
C3431	C343	0.924370	0.075630	0.731530
C3441	C344	0.942820	0.057180	0.789930
H2571	H257	0.957420	0.042580	0.769730
O781	O78	0.571550	0.428450	0.116570
C3451	C345	0.510980	0.489020	0.014470
C3461	C346	0.551030	0.448970	0.082970
C3471	C347	0.591030	0.408970	0.064870
C3481	C348	0.609480	0.390520	0.123270
H2581	H258	0.624080	0.375920	0.103070
O791	O79	0.238220	0.476440	0.449900
C3491	C349	0.177650	0.355300	0.347800
C3501	C350	0.217690	0.435390	0.416300
C3511	C351	0.257700	0.515400	0.398200
C3521	C352	0.276150	0.552300	0.456600
H2591	H259	0.290750	0.581500	0.436400
O801	O80	0.904890	0.809770	0.783230
C3531	C353	0.844320	0.688630	0.681130
C3541	C354	0.884360	0.768720	0.749630
C3551	C355	0.924370	0.848730	0.731530
C3561	C356	0.942820	0.885630	0.789930
H2601	H260	0.957420	0.914830	0.769730
O811	O81	0.571550	0.143110	0.116570
C3571	C357	0.510980	0.021970	0.014470
C3581	C358	0.551030	0.102060	0.082970
C3591	C359	0.591030	0.182070	0.064870
C3601	C360	0.609480	0.218970	0.123270
H2611	H261	0.624080	0.248170	0.103070
O821	O82	0.761780	0.523560	0.550100
C3611	C361	0.822350	0.644700	0.652200
C3621	C362	0.782300	0.564610	0.583700
C3631	C363	0.742300	0.484600	0.601800
C3641	C364	0.723850	0.447700	0.543400
H2621	H262	0.709250	0.418500	0.563600
O831	O83	0.428450	0.856890	0.883430
C3651	C365	0.489020	0.978030	0.985530
C3661	C366	0.448970	0.897940	0.917030
C3671	C367	0.408970	0.817930	0.935130
C3681	C368	0.390520	0.781030	0.876730
H2631	H263	0.375920	0.751830	0.896930
O841	O84	0.095110	0.190230	0.216770
C3691	C369	0.155680	0.311370	0.318870
C3701	C370	0.115640	0.231280	0.250370
C3711	C371	0.075630	0.151270	0.268470
C3721	C372	0.057180	0.114370	0.210070
H2641	H264	0.042580	0.085170	0.230270
O851	O85	0.761780	0.238220	0.550100
C3731	C373	0.822350	0.177650	0.652200
C3741	C374	0.782310	0.217700	0.583700
C3751	C375	0.742300	0.257700	0.601800
C3761	C376	0.723850	0.276150	0.543400
H2651	H265	0.709250	0.290750	0.563600
O861	O86	0.428450	0.571550	0.883430
C3771	C377	0.489020	0.510980	0.985530
C3781	C378	0.448970	0.551030	0.917030
C3791	C379	0.408970	0.591030	0.935130
C3801	C380	0.390520	0.609480	0.876730
H2661	H266	0.375920	0.624080	0.896930
O871	O87	0.095110	0.904890	0.216770
C3811	C381	0.155680	0.844320	0.318870
C3821	C382	0.115640	0.884360	0.250370
C3831	C383	0.075630	0.924370	0.268470
C3841	C384	0.057180	0.942820	0.210070
H2671	H267	0.042580	0.957420	0.230270
O881	O88	0.476440	0.238220	0.550100
C3851	C385	0.355300	0.177650	0.652200
C3861	C386	0.435390	0.217700	0.583700
C3871	C387	0.515400	0.257700	0.601800
C3881	C388	0.552300	0.276150	0.543400
H2681	H268	0.581500	0.290750	0.563600
O891	O89	0.143110	0.571550	0.883430
C3891	C389	0.021970	0.510980	0.985530
C3901	C390	0.102060	0.551030	0.917030
C3911	C391	0.182070	0.591030	0.935130
C3921	C392	0.218970	0.609480	0.876730
H2691	H269	0.248170	0.624080	0.896930
O901	O90	0.809770	0.904890	0.216770
C3931	C393	0.688630	0.844320	0.318870
C3941	C394	0.768720	0.884360	0.250370
C3951	C395	0.848730	0.924370	0.268470
C3961	C396	0.885630	0.942820	0.210070
H2701	H270	0.914830	0.957420	0.230270
