data_UMODEH02_clean_PM
_symmetry_space_group_name_H-M	'P1'
_cell_length_a	34.893000
_cell_length_b	34.893000
_cell_length_c	23.892000
_cell_angle_alpha	90.000000
_cell_angle_beta	90.000000
_cell_angle_gamma	120.000000
_symmetry_Int_Tables_number 1

loop_
_symmetry_equiv_pos_as_xyz
'x,y,z'

loop_
_atom_site_label
_atom_site_type_symbol
_atom_site_fract_x
_atom_site_fract_y
_atom_site_fract_z
O11	O1	0.553120	0.026990	0.065950
O21	O2	0.568060	0.056610	0.979460
C11	C1	0.578210	0.054060	0.028600
C21	C2	0.625100	0.084900	0.046500
C31	C3	0.656700	0.113510	0.007600
H11	H1	0.648400	0.113100	0.970500
C41	C4	0.698920	0.141600	0.023200
H21	H2	0.718900	0.161300	0.997200
C51	C5	0.713160	0.141280	0.078900
C61	C6	0.681720	0.113080	0.116600
H31	H3	0.690100	0.113200	0.153600
C71	C7	0.638390	0.084730	0.101500
H41	H4	0.618200	0.065600	0.127800
C81	C8	0.759620	0.169990	0.097700
C91	C9	0.779780	0.152360	0.130700
H51	H5	0.763300	0.122800	0.141300
H61	H6	0.722000	0.232400	0.109300
H71	H7	0.754300	0.290600	0.016900
O31	O3	0.219790	0.360320	0.399280
O41	O4	0.234730	0.389940	0.312790
C101	C10	0.244880	0.387390	0.361930
C111	C11	0.291770	0.418230	0.379830
C121	C12	0.323370	0.446840	0.340930
H81	H8	0.315070	0.446430	0.303830
C131	C13	0.365590	0.474930	0.356530
H91	H9	0.385570	0.494630	0.330530
C141	C14	0.379830	0.474610	0.412230
C151	C15	0.348390	0.446410	0.449930
H101	H10	0.356770	0.446530	0.486930
C161	C16	0.305060	0.418060	0.434830
H111	H11	0.284870	0.398930	0.461130
C171	C17	0.426290	0.503320	0.431030
C181	C18	0.446450	0.485690	0.464030
H121	H12	0.429970	0.456130	0.474630
H131	H13	0.388670	0.565730	0.442630
H141	H14	0.420970	0.623930	0.350230
O51	O5	0.886450	0.693660	0.732620
O61	O6	0.901390	0.723280	0.646130
C191	C19	0.911540	0.720730	0.695270
C201	C20	0.958430	0.751570	0.713170
C211	C21	0.990030	0.780180	0.674270
H151	H15	0.981730	0.779770	0.637170
C221	C22	0.032250	0.808270	0.689870
H161	H16	0.052230	0.827970	0.663870
C231	C23	0.046490	0.807950	0.745570
C241	C24	0.015050	0.779750	0.783270
H171	H17	0.023430	0.779870	0.820270
C251	C25	0.971720	0.751400	0.768170
H181	H18	0.951530	0.732270	0.794470
C261	C26	0.092950	0.836660	0.764370
C271	C27	0.113110	0.819030	0.797370
H191	H19	0.096630	0.789470	0.807970
H201	H20	0.055330	0.899070	0.775970
H211	H21	0.087630	0.957270	0.683570
O71	O7	0.973010	0.526130	0.065950
O81	O8	0.943390	0.511450	0.979460
C281	C28	0.945940	0.524150	0.028600
C291	C29	0.915100	0.540200	0.046500
C301	C30	0.886490	0.543190	0.007600
H221	H22	0.886900	0.535300	0.970500
C311	C31	0.858400	0.557320	0.023200
H231	H23	0.838700	0.557600	0.997200
C321	C32	0.858720	0.571880	0.078900
C331	C33	0.886920	0.568640	0.116600
H241	H24	0.886800	0.576900	0.153600
C341	C34	0.915270	0.553660	0.101500
H251	H25	0.934400	0.552600	0.127800
C351	C35	0.830010	0.589630	0.097700
C361	C36	0.847640	0.627420	0.130700
H261	H26	0.877200	0.640500	0.141300
H271	H27	0.767600	0.489600	0.109300
H281	H28	0.709400	0.463700	0.016900
O91	O9	0.639680	0.859460	0.399280
O101	O10	0.610060	0.844780	0.312790
C371	C37	0.612610	0.857480	0.361930
C381	C38	0.581770	0.873530	0.379830
C391	C39	0.553160	0.876520	0.340930
H291	H29	0.553570	0.868630	0.303830
C401	C40	0.525070	0.890650	0.356530
H301	H30	0.505370	0.890930	0.330530
C411	C41	0.525390	0.905210	0.412230
C421	C42	0.553590	0.901970	0.449930
H311	H31	0.553470	0.910230	0.486930
C431	C43	0.581940	0.886990	0.434830
H321	H32	0.601070	0.885930	0.461130
C441	C44	0.496680	0.922960	0.431030
C451	C45	0.514310	0.960750	0.464030
H331	H33	0.543870	0.973830	0.474630
H341	H34	0.434270	0.822930	0.442630
H351	H35	0.376070	0.797030	0.350230
O111	O11	0.306340	0.192800	0.732620
O121	O12	0.276720	0.178120	0.646130
C461	C46	0.279270	0.190820	0.695270
C471	C47	0.248430	0.206870	0.713170
C481	C48	0.219820	0.209860	0.674270
H361	H36	0.220230	0.201970	0.637170
C491	C49	0.191730	0.223990	0.689870
H371	H37	0.172030	0.224270	0.663870
C501	C50	0.192050	0.238550	0.745570
C511	C51	0.220250	0.235310	0.783270
H381	H38	0.220130	0.243570	0.820270
C521	C52	0.248600	0.220330	0.768170
H391	H39	0.267730	0.219270	0.794470
C531	C53	0.163340	0.256300	0.764370
C541	C54	0.180970	0.294090	0.797370
H401	H40	0.210530	0.307170	0.807970
H411	H41	0.100930	0.156270	0.775970
H421	H42	0.042730	0.130370	0.683570
O131	O13	0.473870	0.446880	0.065950
O141	O14	0.488550	0.431940	0.979460
C551	C55	0.475850	0.421790	0.028600
C561	C56	0.459800	0.374900	0.046500
C571	C57	0.456810	0.343300	0.007600
H431	H43	0.464700	0.351600	0.970500
C581	C58	0.442680	0.301080	0.023200
H441	H44	0.442400	0.281100	0.997200
C591	C59	0.428120	0.286840	0.078900
C601	C60	0.431360	0.318280	0.116600
H451	H45	0.423100	0.309900	0.153600
C611	C61	0.446340	0.361610	0.101500
H461	H46	0.447400	0.381800	0.127800
C621	C62	0.410370	0.240380	0.097700
C631	C63	0.372580	0.220220	0.130700
H471	H47	0.359500	0.236700	0.141300
H481	H48	0.510400	0.278000	0.109300
H491	H49	0.536300	0.245700	0.016900
O151	O15	0.140540	0.780210	0.399280
O161	O16	0.155220	0.765270	0.312790
C641	C64	0.142520	0.755120	0.361930
C651	C65	0.126470	0.708230	0.379830
C661	C66	0.123480	0.676630	0.340930
H501	H50	0.131370	0.684930	0.303830
C671	C67	0.109350	0.634410	0.356530
H511	H51	0.109070	0.614430	0.330530
C681	C68	0.094790	0.620170	0.412230
C691	C69	0.098030	0.651610	0.449930
H521	H52	0.089770	0.643230	0.486930
C701	C70	0.113010	0.694940	0.434830
H531	H53	0.114070	0.715130	0.461130
C711	C71	0.077040	0.573710	0.431030
C721	C72	0.039250	0.553550	0.464030
H541	H54	0.026170	0.570030	0.474630
H551	H55	0.177070	0.611330	0.442630
H561	H56	0.202970	0.579030	0.350230
O171	O17	0.807200	0.113550	0.732620
O181	O18	0.821880	0.098610	0.646130
C731	C73	0.809180	0.088460	0.695270
C741	C74	0.793130	0.041570	0.713170
C751	C75	0.790140	0.009970	0.674270
H571	H57	0.798030	0.018270	0.637170
C761	C76	0.776010	0.967750	0.689870
H581	H58	0.775730	0.947770	0.663870
C771	C77	0.761450	0.953510	0.745570
C781	C78	0.764690	0.984950	0.783270
H591	H59	0.756430	0.976570	0.820270
C791	C79	0.779670	0.028280	0.768170
H601	H60	0.780730	0.048470	0.794470
C801	C80	0.743700	0.907050	0.764370
C811	C81	0.705910	0.886890	0.797370
H611	H61	0.692830	0.903370	0.807970
H621	H62	0.843730	0.944670	0.775970
H631	H63	0.869630	0.912370	0.683570
O191	O19	0.026990	0.553120	0.934050
O201	O20	0.056610	0.568060	0.020540
C821	C82	0.054060	0.578210	0.971400
C831	C83	0.084900	0.625100	0.953500
C841	C84	0.113510	0.656700	0.992400
H641	H64	0.113100	0.648400	0.029500
C851	C85	0.141600	0.698920	0.976800
H651	H65	0.161300	0.718900	0.002800
C861	C86	0.141280	0.713160	0.921100
C871	C87	0.113080	0.681720	0.883400
H661	H66	0.113200	0.690100	0.846400
C881	C88	0.084730	0.638390	0.898500
H671	H67	0.065600	0.618200	0.872200
C891	C89	0.169990	0.759620	0.902300
C901	C90	0.152360	0.779780	0.869300
H681	H68	0.122800	0.763300	0.858700
H691	H69	0.232400	0.722000	0.890700
H701	H70	0.290600	0.754300	0.983100
O211	O21	0.693660	0.886450	0.267380
O221	O22	0.723280	0.901390	0.353870
C911	C91	0.720730	0.911540	0.304730
C921	C92	0.751570	0.958430	0.286830
C931	C93	0.780180	0.990030	0.325730
H711	H71	0.779770	0.981730	0.362830
C941	C94	0.808270	0.032250	0.310130
H721	H72	0.827970	0.052230	0.336130
C951	C95	0.807950	0.046490	0.254430
C961	C96	0.779750	0.015050	0.216730
H731	H73	0.779870	0.023430	0.179730
C971	C97	0.751400	0.971720	0.231830
H741	H74	0.732270	0.951530	0.205530
C981	C98	0.836660	0.092950	0.235630
C991	C99	0.819030	0.113110	0.202630
H751	H75	0.789470	0.096630	0.192030
H761	H76	0.899070	0.055330	0.224030
H771	H77	0.957270	0.087630	0.316430
O231	O23	0.360320	0.219790	0.600720
O241	O24	0.389940	0.234730	0.687210
C1001	C100	0.387390	0.244880	0.638070
C1011	C101	0.418230	0.291770	0.620170
C1021	C102	0.446840	0.323370	0.659070
H781	H78	0.446430	0.315070	0.696170
C1031	C103	0.474930	0.365590	0.643470
H791	H79	0.494630	0.385570	0.669470
C1041	C104	0.474610	0.379830	0.587770
C1051	C105	0.446410	0.348390	0.550070
H801	H80	0.446530	0.356770	0.513070
C1061	C106	0.418060	0.305060	0.565170
H811	H81	0.398930	0.284870	0.538870
C1071	C107	0.503320	0.426290	0.568970
C1081	C108	0.485690	0.446450	0.535970
H821	H82	0.456130	0.429970	0.525370
H831	H83	0.565730	0.388670	0.557370
H841	H84	0.623930	0.420970	0.649770
O251	O25	0.526130	0.973010	0.934050
O261	O26	0.511450	0.943390	0.020540
C1091	C109	0.524150	0.945940	0.971400
C1101	C110	0.540200	0.915100	0.953500
C1111	C111	0.543190	0.886490	0.992400
H851	H85	0.535300	0.886900	0.029500
C1121	C112	0.557320	0.858400	0.976800
H861	H86	0.557600	0.838700	0.002800
C1131	C113	0.571880	0.858720	0.921100
C1141	C114	0.568640	0.886920	0.883400
H871	H87	0.576900	0.886800	0.846400
C1151	C115	0.553660	0.915270	0.898500
H881	H88	0.552600	0.934400	0.872200
C1161	C116	0.589630	0.830010	0.902300
C1171	C117	0.627420	0.847640	0.869300
H891	H89	0.640500	0.877200	0.858700
H901	H90	0.489600	0.767600	0.890700
H911	H91	0.463700	0.709400	0.983100
O271	O27	0.192800	0.306340	0.267380
O281	O28	0.178120	0.276720	0.353870
C1181	C118	0.190820	0.279270	0.304730
C1191	C119	0.206870	0.248430	0.286830
C1201	C120	0.209860	0.219820	0.325730
H921	H92	0.201970	0.220230	0.362830
C1211	C121	0.223990	0.191730	0.310130
H931	H93	0.224270	0.172030	0.336130
C1221	C122	0.238550	0.192050	0.254430
C1231	C123	0.235310	0.220250	0.216730
H941	H94	0.243570	0.220130	0.179730
C1241	C124	0.220330	0.248600	0.231830
H951	H95	0.219270	0.267730	0.205530
C1251	C125	0.256300	0.163340	0.235630
C1261	C126	0.294090	0.180970	0.202630
H961	H96	0.307170	0.210530	0.192030
H971	H97	0.156270	0.100930	0.224030
H981	H98	0.130370	0.042730	0.316430
O291	O29	0.859460	0.639680	0.600720
O301	O30	0.844780	0.610060	0.687210
C1271	C127	0.857480	0.612610	0.638070
C1281	C128	0.873530	0.581770	0.620170
C1291	C129	0.876520	0.553160	0.659070
H991	H99	0.868630	0.553570	0.696170
C1301	C130	0.890650	0.525070	0.643470
H1001	H100	0.890930	0.505370	0.669470
C1311	C131	0.905210	0.525390	0.587770
C1321	C132	0.901970	0.553590	0.550070
H1011	H101	0.910230	0.553470	0.513070
C1331	C133	0.886990	0.581940	0.565170
H1021	H102	0.885930	0.601070	0.538870
C1341	C134	0.922960	0.496680	0.568970
C1351	C135	0.960750	0.514310	0.535970
H1031	H103	0.973830	0.543870	0.525370
H1041	H104	0.822930	0.434270	0.557370
H1051	H105	0.797030	0.376070	0.649770
O311	O31	0.446880	0.473870	0.934050
O321	O32	0.431940	0.488550	0.020540
C1361	C136	0.421790	0.475850	0.971400
C1371	C137	0.374900	0.459800	0.953500
C1381	C138	0.343300	0.456810	0.992400
H1061	H106	0.351600	0.464700	0.029500
C1391	C139	0.301080	0.442680	0.976800
H1071	H107	0.281100	0.442400	0.002800
C1401	C140	0.286840	0.428120	0.921100
C1411	C141	0.318280	0.431360	0.883400
H1081	H108	0.309900	0.423100	0.846400
C1421	C142	0.361610	0.446340	0.898500
H1091	H109	0.381800	0.447400	0.872200
C1431	C143	0.240380	0.410370	0.902300
C1441	C144	0.220220	0.372580	0.869300
H1101	H110	0.236700	0.359500	0.858700
H1111	H111	0.278000	0.510400	0.890700
H1121	H112	0.245700	0.536300	0.983100
O331	O33	0.113550	0.807200	0.267380
O341	O34	0.098610	0.821880	0.353870
C1451	C145	0.088460	0.809180	0.304730
C1461	C146	0.041570	0.793130	0.286830
C1471	C147	0.009970	0.790140	0.325730
H1131	H113	0.018270	0.798030	0.362830
C1481	C148	0.967750	0.776010	0.310130
H1141	H114	0.947770	0.775730	0.336130
C1491	C149	0.953510	0.761450	0.254430
C1501	C150	0.984950	0.764690	0.216730
H1151	H115	0.976570	0.756430	0.179730
C1511	C151	0.028280	0.779670	0.231830
H1161	H116	0.048470	0.780730	0.205530
C1521	C152	0.907050	0.743700	0.235630
C1531	C153	0.886890	0.705910	0.202630
H1171	H117	0.903370	0.692830	0.192030
H1181	H118	0.944670	0.843730	0.224030
H1191	H119	0.912370	0.869630	0.316430
O351	O35	0.780210	0.140540	0.600720
O361	O36	0.765270	0.155220	0.687210
C1541	C154	0.755120	0.142520	0.638070
C1551	C155	0.708230	0.126470	0.620170
C1561	C156	0.676630	0.123480	0.659070
H1201	H120	0.684930	0.131370	0.696170
C1571	C157	0.634410	0.109350	0.643470
H1211	H121	0.614430	0.109070	0.669470
C1581	C158	0.620170	0.094790	0.587770
C1591	C159	0.651610	0.098030	0.550070
H1221	H122	0.643230	0.089770	0.513070
C1601	C160	0.694940	0.113010	0.565170
H1231	H123	0.715130	0.114070	0.538870
C1611	C161	0.573710	0.077040	0.568970
C1621	C162	0.553550	0.039250	0.535970
H1241	H124	0.570030	0.026170	0.525370
H1251	H125	0.611330	0.177070	0.557370
H1261	H126	0.579030	0.202970	0.649770
O371	O37	0.446880	0.973010	0.934050
O381	O38	0.431940	0.943390	0.020540
C1631	C163	0.421790	0.945940	0.971400
C1641	C164	0.374900	0.915100	0.953500
C1651	C165	0.343300	0.886490	0.992400
H1271	H127	0.351600	0.886900	0.029500
C1661	C166	0.301080	0.858400	0.976800
H1281	H128	0.281100	0.838700	0.002800
C1671	C167	0.286840	0.858720	0.921100
C1681	C168	0.318280	0.886920	0.883400
H1291	H129	0.309900	0.886800	0.846400
C1691	C169	0.361610	0.915270	0.898500
H1301	H130	0.381800	0.934400	0.872200
C1701	C170	0.240380	0.830010	0.902300
C1711	C171	0.220220	0.847640	0.869300
H1311	H131	0.236700	0.877200	0.858700
H1321	H132	0.278000	0.767600	0.890700
H1331	H133	0.245700	0.709400	0.983100
O391	O39	0.113550	0.306340	0.267380
O401	O40	0.098610	0.276720	0.353870
C1721	C172	0.088460	0.279270	0.304730
C1731	C173	0.041570	0.248430	0.286830
C1741	C174	0.009970	0.219820	0.325730
H1341	H134	0.018270	0.220230	0.362830
C1751	C175	0.967750	0.191730	0.310130
H1351	H135	0.947770	0.172030	0.336130
C1761	C176	0.953510	0.192050	0.254430
C1771	C177	0.984950	0.220250	0.216730
H1361	H136	0.976570	0.220130	0.179730
C1781	C178	0.028280	0.248600	0.231830
H1371	H137	0.048470	0.267730	0.205530
C1791	C179	0.907050	0.163340	0.235630
C1801	C180	0.886890	0.180970	0.202630
H1381	H138	0.903370	0.210530	0.192030
H1391	H139	0.944670	0.100930	0.224030
H1401	H140	0.912370	0.042730	0.316430
O411	O41	0.780210	0.639680	0.600720
O421	O42	0.765270	0.610060	0.687210
C1811	C181	0.755120	0.612610	0.638070
C1821	C182	0.708230	0.581770	0.620170
C1831	C183	0.676630	0.553160	0.659070
H1411	H141	0.684930	0.553570	0.696170
C1841	C184	0.634410	0.525070	0.643470
H1421	H142	0.614430	0.505370	0.669470
C1851	C185	0.620170	0.525390	0.587770
C1861	C186	0.651610	0.553590	0.550070
H1431	H143	0.643230	0.553470	0.513070
C1871	C187	0.694940	0.581940	0.565170
H1441	H144	0.715130	0.601070	0.538870
C1881	C188	0.573710	0.496680	0.568970
C1891	C189	0.553550	0.514310	0.535970
H1451	H145	0.570030	0.543870	0.525370
H1461	H146	0.611330	0.434270	0.557370
H1471	H147	0.579030	0.376070	0.649770
O431	O43	0.026990	0.473870	0.934050
O441	O44	0.056610	0.488550	0.020540
C1901	C190	0.054060	0.475850	0.971400
C1911	C191	0.084900	0.459800	0.953500
C1921	C192	0.113510	0.456810	0.992400
H1481	H148	0.113100	0.464700	0.029500
C1931	C193	0.141600	0.442680	0.976800
H1491	H149	0.161300	0.442400	0.002800
C1941	C194	0.141280	0.428120	0.921100
C1951	C195	0.113080	0.431360	0.883400
H1501	H150	0.113200	0.423100	0.846400
C1961	C196	0.084730	0.446340	0.898500
H1511	H151	0.065600	0.447400	0.872200
C1971	C197	0.169990	0.410370	0.902300
C1981	C198	0.152360	0.372580	0.869300
H1521	H152	0.122800	0.359500	0.858700
H1531	H153	0.232400	0.510400	0.890700
H1541	H154	0.290600	0.536300	0.983100
O451	O45	0.693660	0.807200	0.267380
O461	O46	0.723280	0.821880	0.353870
C1991	C199	0.720730	0.809180	0.304730
C2001	C200	0.751570	0.793130	0.286830
C2011	C201	0.780180	0.790140	0.325730
H1551	H155	0.779770	0.798030	0.362830
C2021	C202	0.808270	0.776010	0.310130
H1561	H156	0.827970	0.775730	0.336130
C2031	C203	0.807950	0.761450	0.254430
C2041	C204	0.779750	0.764690	0.216730
H1571	H157	0.779870	0.756430	0.179730
C2051	C205	0.751400	0.779670	0.231830
H1581	H158	0.732270	0.780730	0.205530
C2061	C206	0.836660	0.743700	0.235630
C2071	C207	0.819030	0.705910	0.202630
H1591	H159	0.789470	0.692830	0.192030
H1601	H160	0.899070	0.843730	0.224030
H1611	H161	0.957270	0.869630	0.316430
O471	O47	0.360320	0.140540	0.600720
O481	O48	0.389940	0.155220	0.687210
C2081	C208	0.387390	0.142520	0.638070
C2091	C209	0.418230	0.126470	0.620170
C2101	C210	0.446840	0.123480	0.659070
H1621	H162	0.446430	0.131370	0.696170
C2111	C211	0.474930	0.109350	0.643470
H1631	H163	0.494630	0.109070	0.669470
C2121	C212	0.474610	0.094790	0.587770
C2131	C213	0.446410	0.098030	0.550070
H1641	H164	0.446530	0.089770	0.513070
C2141	C214	0.418060	0.113010	0.565170
H1651	H165	0.398930	0.114070	0.538870
C2151	C215	0.503320	0.077040	0.568970
C2161	C216	0.485690	0.039250	0.535970
H1661	H166	0.456130	0.026170	0.525370
H1671	H167	0.565730	0.177070	0.557370
H1681	H168	0.623930	0.202970	0.649770
O491	O49	0.526130	0.553120	0.934050
O501	O50	0.511450	0.568060	0.020540
C2171	C217	0.524150	0.578210	0.971400
C2181	C218	0.540200	0.625100	0.953500
C2191	C219	0.543190	0.656700	0.992400
H1691	H169	0.535300	0.648400	0.029500
C2201	C220	0.557320	0.698920	0.976800
H1701	H170	0.557600	0.718900	0.002800
C2211	C221	0.571880	0.713160	0.921100
C2221	C222	0.568640	0.681720	0.883400
H1711	H171	0.576900	0.690100	0.846400
C2231	C223	0.553660	0.638390	0.898500
H1721	H172	0.552600	0.618200	0.872200
C2241	C224	0.589630	0.759620	0.902300
C2251	C225	0.627420	0.779780	0.869300
H1731	H173	0.640500	0.763300	0.858700
H1741	H174	0.489600	0.722000	0.890700
H1751	H175	0.463700	0.754300	0.983100
O511	O51	0.192800	0.886450	0.267380
O521	O52	0.178120	0.901390	0.353870
C2261	C226	0.190820	0.911540	0.304730
C2271	C227	0.206870	0.958430	0.286830
C2281	C228	0.209860	0.990030	0.325730
H1761	H176	0.201970	0.981730	0.362830
C2291	C229	0.223990	0.032250	0.310130
H1771	H177	0.224270	0.052230	0.336130
C2301	C230	0.238550	0.046490	0.254430
C2311	C231	0.235310	0.015050	0.216730
H1781	H178	0.243570	0.023430	0.179730
C2321	C232	0.220330	0.971720	0.231830
H1791	H179	0.219270	0.951530	0.205530
C2331	C233	0.256300	0.092950	0.235630
C2341	C234	0.294090	0.113110	0.202630
H1801	H180	0.307170	0.096630	0.192030
H1811	H181	0.156270	0.055330	0.224030
H1821	H182	0.130370	0.087630	0.316430
O531	O53	0.859460	0.219790	0.600720
O541	O54	0.844780	0.234730	0.687210
C2351	C235	0.857480	0.244880	0.638070
C2361	C236	0.873530	0.291770	0.620170
C2371	C237	0.876520	0.323370	0.659070
H1831	H183	0.868630	0.315070	0.696170
C2381	C238	0.890650	0.365590	0.643470
H1841	H184	0.890930	0.385570	0.669470
C2391	C239	0.905210	0.379830	0.587770
C2401	C240	0.901970	0.348390	0.550070
H1851	H185	0.910230	0.356770	0.513070
C2411	C241	0.886990	0.305060	0.565170
H1861	H186	0.885930	0.284870	0.538870
C2421	C242	0.922960	0.426290	0.568970
C2431	C243	0.960750	0.446450	0.535970
H1871	H187	0.973830	0.429970	0.525370
H1881	H188	0.822930	0.388670	0.557370
H1891	H189	0.797030	0.420970	0.649770
O551	O55	0.973010	0.446880	0.065950
O561	O56	0.943390	0.431940	0.979460
C2441	C244	0.945940	0.421790	0.028600
C2451	C245	0.915100	0.374900	0.046500
C2461	C246	0.886490	0.343300	0.007600
H1901	H190	0.886900	0.351600	0.970500
C2471	C247	0.858400	0.301080	0.023200
H1911	H191	0.838700	0.281100	0.997200
C2481	C248	0.858720	0.286840	0.078900
C2491	C249	0.886920	0.318280	0.116600
H1921	H192	0.886800	0.309900	0.153600
C2501	C250	0.915270	0.361610	0.101500
H1931	H193	0.934400	0.381800	0.127800
C2511	C251	0.830010	0.240380	0.097700
C2521	C252	0.847640	0.220220	0.130700
H1941	H194	0.877200	0.236700	0.141300
H1951	H195	0.767600	0.278000	0.109300
H1961	H196	0.709400	0.245700	0.016900
O571	O57	0.639680	0.780210	0.399280
O581	O58	0.610060	0.765270	0.312790
C2531	C253	0.612610	0.755120	0.361930
C2541	C254	0.581770	0.708230	0.379830
C2551	C255	0.553160	0.676630	0.340930
H1971	H197	0.553570	0.684930	0.303830
C2561	C256	0.525070	0.634410	0.356530
H1981	H198	0.505370	0.614430	0.330530
C2571	C257	0.525390	0.620170	0.412230
C2581	C258	0.553590	0.651610	0.449930
H1991	H199	0.553470	0.643230	0.486930
C2591	C259	0.581940	0.694940	0.434830
H2001	H200	0.601070	0.715130	0.461130
C2601	C260	0.496680	0.573710	0.431030
C2611	C261	0.514310	0.553550	0.464030
H2011	H201	0.543870	0.570030	0.474630
H2021	H202	0.434270	0.611330	0.442630
H2031	H203	0.376070	0.579030	0.350230
O591	O59	0.306340	0.113550	0.732620
O601	O60	0.276720	0.098610	0.646130
C2621	C262	0.279270	0.088460	0.695270
C2631	C263	0.248430	0.041570	0.713170
C2641	C264	0.219820	0.009970	0.674270
H2041	H204	0.220230	0.018270	0.637170
C2651	C265	0.191730	0.967750	0.689870
H2051	H205	0.172030	0.947770	0.663870
C2661	C266	0.192050	0.953510	0.745570
C2671	C267	0.220250	0.984950	0.783270
H2061	H206	0.220130	0.976570	0.820270
C2681	C268	0.248600	0.028280	0.768170
H2071	H207	0.267730	0.048470	0.794470
C2691	C269	0.163340	0.907050	0.764370
C2701	C270	0.180970	0.886890	0.797370
H2081	H208	0.210530	0.903370	0.807970
H2091	H209	0.100930	0.944670	0.775970
H2101	H210	0.042730	0.912370	0.683570
O611	O61	0.473870	0.026990	0.065950
O621	O62	0.488550	0.056610	0.979460
C2711	C271	0.475850	0.054060	0.028600
C2721	C272	0.459800	0.084900	0.046500
C2731	C273	0.456810	0.113510	0.007600
H2111	H211	0.464700	0.113100	0.970500
C2741	C274	0.442680	0.141600	0.023200
H2121	H212	0.442400	0.161300	0.997200
C2751	C275	0.428120	0.141280	0.078900
C2761	C276	0.431360	0.113080	0.116600
H2131	H213	0.423100	0.113200	0.153600
C2771	C277	0.446340	0.084730	0.101500
H2141	H214	0.447400	0.065600	0.127800
C2781	C278	0.410370	0.169990	0.097700
C2791	C279	0.372580	0.152360	0.130700
H2151	H215	0.359500	0.122800	0.141300
H2161	H216	0.510400	0.232400	0.109300
H2171	H217	0.536300	0.290600	0.016900
O631	O63	0.140540	0.360320	0.399280
O641	O64	0.155220	0.389940	0.312790
C2801	C280	0.142520	0.387390	0.361930
C2811	C281	0.126470	0.418230	0.379830
C2821	C282	0.123480	0.446840	0.340930
H2181	H218	0.131370	0.446430	0.303830
C2831	C283	0.109350	0.474930	0.356530
H2191	H219	0.109070	0.494630	0.330530
C2841	C284	0.094790	0.474610	0.412230
C2851	C285	0.098030	0.446410	0.449930
H2201	H220	0.089770	0.446530	0.486930
C2861	C286	0.113010	0.418060	0.434830
H2211	H221	0.114070	0.398930	0.461130
C2871	C287	0.077040	0.503320	0.431030
C2881	C288	0.039250	0.485690	0.464030
H2221	H222	0.026170	0.456130	0.474630
H2231	H223	0.177070	0.565730	0.442630
H2241	H224	0.202970	0.623930	0.350230
O651	O65	0.807200	0.693660	0.732620
O661	O66	0.821880	0.723280	0.646130
C2891	C289	0.809180	0.720730	0.695270
C2901	C290	0.793130	0.751570	0.713170
C2911	C291	0.790140	0.780180	0.674270
H2251	H225	0.798030	0.779770	0.637170
C2921	C292	0.776010	0.808270	0.689870
H2261	H226	0.775730	0.827970	0.663870
C2931	C293	0.761450	0.807950	0.745570
C2941	C294	0.764690	0.779750	0.783270
H2271	H227	0.756430	0.779870	0.820270
C2951	C295	0.779670	0.751400	0.768170
H2281	H228	0.780730	0.732270	0.794470
C2961	C296	0.743700	0.836660	0.764370
C2971	C297	0.705910	0.819030	0.797370
H2291	H229	0.692830	0.789470	0.807970
H2301	H230	0.843730	0.899070	0.775970
H2311	H231	0.869630	0.957270	0.683570
O671	O67	0.553120	0.526130	0.065950
O681	O68	0.568060	0.511450	0.979460
C2981	C298	0.578210	0.524150	0.028600
C2991	C299	0.625100	0.540200	0.046500
C3001	C300	0.656700	0.543190	0.007600
H2321	H232	0.648400	0.535300	0.970500
C3011	C301	0.698920	0.557320	0.023200
H2331	H233	0.718900	0.557600	0.997200
C3021	C302	0.713160	0.571880	0.078900
C3031	C303	0.681720	0.568640	0.116600
H2341	H234	0.690100	0.576900	0.153600
C3041	C304	0.638390	0.553660	0.101500
H2351	H235	0.618200	0.552600	0.127800
C3051	C305	0.759620	0.589630	0.097700
C3061	C306	0.779780	0.627420	0.130700
H2361	H236	0.763300	0.640500	0.141300
H2371	H237	0.722000	0.489600	0.109300
H2381	H238	0.754300	0.463700	0.016900
O691	O69	0.219790	0.859460	0.399280
O701	O70	0.234730	0.844780	0.312790
C3071	C307	0.244880	0.857480	0.361930
C3081	C308	0.291770	0.873530	0.379830
C3091	C309	0.323370	0.876520	0.340930
H2391	H239	0.315070	0.868630	0.303830
C3101	C310	0.365590	0.890650	0.356530
H2401	H240	0.385570	0.890930	0.330530
C3111	C311	0.379830	0.905210	0.412230
C3121	C312	0.348390	0.901970	0.449930
H2411	H241	0.356770	0.910230	0.486930
C3131	C313	0.305060	0.886990	0.434830
H2421	H242	0.284870	0.885930	0.461130
C3141	C314	0.426290	0.922960	0.431030
C3151	C315	0.446450	0.960750	0.464030
H2431	H243	0.429970	0.973830	0.474630
H2441	H244	0.388670	0.822930	0.442630
H2451	H245	0.420970	0.797030	0.350230
O711	O71	0.886450	0.192800	0.732620
O721	O72	0.901390	0.178120	0.646130
C3161	C316	0.911540	0.190820	0.695270
C3171	C317	0.958430	0.206870	0.713170
C3181	C318	0.990030	0.209860	0.674270
H2461	H246	0.981730	0.201970	0.637170
C3191	C319	0.032250	0.223990	0.689870
H2471	H247	0.052230	0.224270	0.663870
C3201	C320	0.046490	0.238550	0.745570
C3211	C321	0.015050	0.235310	0.783270
H2481	H248	0.023430	0.243570	0.820270
C3221	C322	0.971720	0.220330	0.768170
H2491	H249	0.951530	0.219270	0.794470
C3231	C323	0.092950	0.256300	0.764370
C3241	C324	0.113110	0.294090	0.797370
H2501	H250	0.096630	0.307170	0.807970
H2511	H251	0.055330	0.156270	0.775970
H2521	H252	0.087630	0.130370	0.683570
Cu11	Cu1	0.508660	0.017310	0.949270
Cu21	Cu2	0.175320	0.350640	0.282600
Cu31	Cu3	0.841990	0.683980	0.615940
Cu41	Cu4	0.982690	0.491340	0.949270
Cu51	Cu5	0.649360	0.824680	0.282600
Cu61	Cu6	0.316020	0.158010	0.615940
Cu71	Cu7	0.508660	0.491340	0.949270
Cu81	Cu8	0.175320	0.824680	0.282600
Cu91	Cu9	0.841990	0.158010	0.615940
Cu101	Cu10	0.017310	0.508660	0.050730
Cu111	Cu11	0.683980	0.841990	0.384060
Cu121	Cu12	0.350640	0.175320	0.717400
Cu131	Cu13	0.491340	0.982690	0.050730
Cu141	Cu14	0.158010	0.316020	0.384060
Cu151	Cu15	0.824680	0.649360	0.717400
Cu161	Cu16	0.491340	0.508660	0.050730
Cu171	Cu17	0.158010	0.841990	0.384060
Cu181	Cu18	0.824680	0.175320	0.717400
O731	O73	0.766520	0.233480	0.045300
C3251	C325	0.823360	0.176640	0.148700
C3261	C326	0.785900	0.214100	0.080700
C3271	C327	0.745710	0.254290	0.086200
C3281	C328	0.729700	0.270300	0.039400
H2531	H253	0.714900	0.285100	0.054100
O741	O74	0.433190	0.566810	0.378630
C3291	C329	0.490030	0.509970	0.482030
C3301	C330	0.452570	0.547430	0.414030
C3311	C331	0.412380	0.587620	0.419530
C3321	C332	0.396370	0.603630	0.372730
H2541	H254	0.381570	0.618430	0.387430
O751	O75	0.099850	0.900150	0.711970
C3331	C333	0.156690	0.843310	0.815370
C3341	C334	0.119230	0.880770	0.747370
C3351	C335	0.079040	0.920960	0.752870
C3361	C336	0.063030	0.936970	0.706070
H2551	H255	0.048230	0.951770	0.720770
O761	O76	0.766520	0.533040	0.045300
C3371	C337	0.823360	0.646720	0.148700
C3381	C338	0.785900	0.571800	0.080700
C3391	C339	0.745710	0.491420	0.086200
C3401	C340	0.729700	0.459400	0.039400
H2561	H256	0.714900	0.429800	0.054100
O771	O77	0.433190	0.866370	0.378630
C3411	C341	0.490030	0.980050	0.482030
C3421	C342	0.452570	0.905130	0.414030
C3431	C343	0.412380	0.824750	0.419530
C3441	C344	0.396370	0.792730	0.372730
H2571	H257	0.381570	0.763130	0.387430
O781	O78	0.099850	0.199710	0.711970
C3451	C345	0.156690	0.313390	0.815370
C3461	C346	0.119230	0.238470	0.747370
C3471	C347	0.079040	0.158090	0.752870
C3481	C348	0.063030	0.126070	0.706070
H2581	H258	0.048230	0.096470	0.720770
O791	O79	0.466960	0.233480	0.045300
C3491	C349	0.353280	0.176640	0.148700
C3501	C350	0.428200	0.214100	0.080700
C3511	C351	0.508580	0.254290	0.086200
C3521	C352	0.540600	0.270300	0.039400
H2591	H259	0.570200	0.285100	0.054100
O801	O80	0.133630	0.566810	0.378630
C3531	C353	0.019950	0.509970	0.482030
C3541	C354	0.094870	0.547430	0.414030
C3551	C355	0.175250	0.587620	0.419530
C3561	C356	0.207270	0.603630	0.372730
H2601	H260	0.236870	0.618430	0.387430
O811	O81	0.800290	0.900150	0.711970
C3571	C357	0.686610	0.843310	0.815370
C3581	C358	0.761530	0.880770	0.747370
C3591	C359	0.841910	0.920960	0.752870
C3601	C360	0.873930	0.936970	0.706070
H2611	H261	0.903530	0.951770	0.720770
O821	O82	0.233480	0.766520	0.954700
C3611	C361	0.176640	0.823360	0.851300
C3621	C362	0.214100	0.785900	0.919300
C3631	C363	0.254290	0.745710	0.913800
C3641	C364	0.270300	0.729700	0.960600
H2621	H262	0.285100	0.714900	0.945900
O831	O83	0.900150	0.099850	0.288030
C3651	C365	0.843310	0.156690	0.184630
C3661	C366	0.880770	0.119230	0.252630
C3671	C367	0.920960	0.079040	0.247130
C3681	C368	0.936970	0.063030	0.293930
H2631	H263	0.951770	0.048230	0.279230
O841	O84	0.566810	0.433190	0.621370
C3691	C369	0.509970	0.490030	0.517970
C3701	C370	0.547430	0.452570	0.585970
C3711	C371	0.587620	0.412380	0.580470
C3721	C372	0.603630	0.396370	0.627270
H2641	H264	0.618430	0.381570	0.612570
O851	O85	0.533040	0.766520	0.954700
C3731	C373	0.646720	0.823360	0.851300
C3741	C374	0.571800	0.785900	0.919300
C3751	C375	0.491420	0.745710	0.913800
C3761	C376	0.459400	0.729700	0.960600
H2651	H265	0.429800	0.714900	0.945900
O861	O86	0.199710	0.099850	0.288030
C3771	C377	0.313390	0.156690	0.184630
C3781	C378	0.238470	0.119230	0.252630
C3791	C379	0.158090	0.079040	0.247130
C3801	C380	0.126070	0.063030	0.293930
H2661	H266	0.096470	0.048230	0.279230
O871	O87	0.866370	0.433190	0.621370
C3811	C381	0.980050	0.490030	0.517970
C3821	C382	0.905130	0.452570	0.585970
C3831	C383	0.824750	0.412380	0.580470
C3841	C384	0.792730	0.396370	0.627270
H2671	H267	0.763130	0.381570	0.612570
O881	O88	0.233480	0.466960	0.954700
C3851	C385	0.176640	0.353280	0.851300
C3861	C386	0.214100	0.428200	0.919300
C3871	C387	0.254290	0.508580	0.913800
C3881	C388	0.270300	0.540600	0.960600
H2681	H268	0.285100	0.570200	0.945900
O891	O89	0.900150	0.800290	0.288030
C3891	C389	0.843310	0.686610	0.184630
C3901	C390	0.880770	0.761530	0.252630
C3911	C391	0.920960	0.841910	0.247130
C3921	C392	0.936970	0.873930	0.293930
H2691	H269	0.951770	0.903530	0.279230
O901	O90	0.566810	0.133630	0.621370
C3931	C393	0.509970	0.019950	0.517970
C3941	C394	0.547430	0.094870	0.585970
C3951	C395	0.587620	0.175250	0.580470
C3961	C396	0.603630	0.207270	0.627270
H2701	H270	0.618430	0.236870	0.612570
