data_UMORIY_clean_PM
_symmetry_space_group_name_H-M	'P1'
_cell_length_a	8.821600
_cell_length_b	8.821600
_cell_length_c	10.075500
_cell_angle_alpha	102.670000
_cell_angle_beta	102.670000
_cell_angle_gamma	119.932000
_symmetry_Int_Tables_number 1

loop_
_symmetry_equiv_pos_as_xyz
'x,y,z'

loop_
_atom_site_label
_atom_site_type_symbol
_atom_site_fract_x
_atom_site_fract_y
_atom_site_fract_z
Cd11	Cd1	0.472110	0.972110	0.944220
Cd21	Cd2	0.722110	0.722110	0.444220
Cd31	Cd3	0.240810	0.240810	0.481620
Cd41	Cd4	0.990810	0.490810	0.981620
C11	C1	0.628000	0.887600	0.706200
C21	C2	0.498400	0.687200	0.689600
C31	C3	0.078200	0.818600	0.706200
C41	C4	0.191200	0.002400	0.689600
C51	C5	0.637600	0.878000	0.206200
C61	C6	0.437200	0.748400	0.189600
C71	C7	0.568600	0.328200	0.206200
C81	C8	0.752400	0.441200	0.189600
N11	N1	0.654200	0.033400	0.805000
N21	N2	0.774900	0.185500	0.782600
N31	N3	0.817100	0.129700	0.672800
N41	N4	0.725200	0.940600	0.621600
N51	N5	0.150800	0.771600	0.805000
N61	N6	0.007700	0.597100	0.782600
N71	N7	0.855700	0.543100	0.672800
N81	N8	0.896400	0.681000	0.621600
N91	N9	0.783400	0.904200	0.305000
N101	N10	0.935500	0.024900	0.282600
N111	N11	0.879700	0.067100	0.172800
N121	N12	0.690600	0.975200	0.121600
N131	N13	0.521600	0.400800	0.305000
N141	N14	0.347100	0.257700	0.282600
N151	N15	0.293100	0.105700	0.172800
N161	N16	0.431000	0.146400	0.121600
O11	O1	0.424300	0.663100	0.780600
O21	O2	0.478400	0.562600	0.582800
O31	O3	0.356300	0.117500	0.780600
O41	O4	0.104400	0.020200	0.582800
O51	O5	0.413100	0.674300	0.280600
O61	O6	0.312600	0.728400	0.082800
O71	O7	0.867500	0.606300	0.280600
O81	O8	0.770200	0.354400	0.082800
