data_UMOVOJ_clean_PM
_symmetry_space_group_name_H-M	'P1'
_cell_length_a	34.800400
_cell_length_b	34.800400
_cell_length_c	24.222300
_cell_angle_alpha	90.000000
_cell_angle_beta	90.000000
_cell_angle_gamma	120.000000
_symmetry_Int_Tables_number 1

loop_
_symmetry_equiv_pos_as_xyz
'x,y,z'

loop_
_atom_site_label
_atom_site_type_symbol
_atom_site_fract_x
_atom_site_fract_y
_atom_site_fract_z
O11	O1	0.640270	0.780580	0.398960
O21	O2	0.610090	0.765290	0.314270
C11	C1	0.613110	0.755040	0.363400
C21	C2	0.581960	0.708240	0.381200
C31	C3	0.553650	0.676930	0.343220
H11	H1	0.553900	0.685000	0.306600
C41	C4	0.525260	0.634080	0.359760
H21	H2	0.505600	0.613800	0.334300
C51	C5	0.525130	0.620390	0.413300
C61	C6	0.553960	0.651770	0.450050
H31	H3	0.554400	0.643700	0.486500
C71	C7	0.582280	0.695070	0.433870
H41	H4	0.601800	0.715400	0.459400
C81	C8	0.496350	0.573580	0.431140
C91	C9	0.514440	0.553730	0.464190
H51	H5	0.544100	0.570500	0.474600
H61	H6	0.434600	0.610500	0.430200
O31	O3	0.306940	0.113910	0.732290
O41	O4	0.276760	0.098620	0.647600
C101	C10	0.279780	0.088370	0.696730
C111	C11	0.248630	0.041570	0.714530
C121	C12	0.220320	0.010260	0.676550
H71	H7	0.220570	0.018330	0.639930
C131	C13	0.191930	0.967410	0.693090
H81	H8	0.172270	0.947130	0.667630
C141	C14	0.191800	0.953720	0.746630
C151	C15	0.220630	0.985100	0.783380
H91	H9	0.221070	0.977030	0.819830
C161	C16	0.248950	0.028400	0.767200
H101	H10	0.268470	0.048730	0.792730
C171	C17	0.163020	0.906910	0.764470
C181	C18	0.181110	0.887060	0.797520
H111	H11	0.210770	0.903830	0.807930
H121	H12	0.101270	0.943830	0.763530
O51	O5	0.973600	0.447250	0.065630
O61	O6	0.943420	0.431960	0.980940
C191	C19	0.946440	0.421710	0.030070
C201	C20	0.915290	0.374910	0.047870
C211	C21	0.886980	0.343600	0.009890
H131	H13	0.887230	0.351670	0.973270
C221	C22	0.858590	0.300750	0.026430
H141	H14	0.838930	0.280470	0.000970
C231	C23	0.858460	0.287060	0.079970
C241	C24	0.887290	0.318440	0.116720
H151	H15	0.887730	0.310370	0.153170
C251	C25	0.915610	0.361740	0.100540
H161	H16	0.935130	0.382070	0.126070
C261	C26	0.829680	0.240250	0.097810
C271	C27	0.847770	0.220400	0.130860
H171	H17	0.877430	0.237170	0.141270
H181	H18	0.767930	0.277170	0.096870
O71	O7	0.219420	0.859690	0.398960
O81	O8	0.234710	0.844800	0.314270
C281	C28	0.244960	0.858070	0.363400
C291	C29	0.291760	0.873720	0.381200
C301	C30	0.323070	0.876720	0.343220
H191	H19	0.315000	0.868900	0.306600
C311	C31	0.365920	0.891180	0.359760
H201	H20	0.386200	0.891800	0.334300
C321	C32	0.379610	0.904740	0.413300
C331	C33	0.348230	0.902190	0.450050
H211	H21	0.356300	0.910700	0.486500
C341	C34	0.304930	0.887210	0.433870
H221	H22	0.284600	0.886400	0.459400
C351	C35	0.426420	0.922770	0.431140
C361	C36	0.446270	0.960710	0.464190
H231	H23	0.429500	0.973600	0.474600
H241	H24	0.389500	0.824100	0.430200
O91	O9	0.886090	0.193020	0.732290
O101	O10	0.901380	0.178130	0.647600
C371	C37	0.911630	0.191400	0.696730
C381	C38	0.958430	0.207050	0.714530
C391	C39	0.989740	0.210050	0.676550
H251	H25	0.981670	0.202230	0.639930
C401	C40	0.032590	0.224510	0.693090
H261	H26	0.052870	0.225130	0.667630
C411	C41	0.046280	0.238070	0.746630
C421	C42	0.014900	0.235520	0.783380
H271	H27	0.022970	0.244030	0.819830
C431	C43	0.971600	0.220540	0.767200
H281	H28	0.951270	0.219730	0.792730
C441	C44	0.093090	0.256100	0.764470
C451	C45	0.112940	0.294040	0.797520
H291	H29	0.096170	0.306930	0.807930
H301	H30	0.056170	0.157430	0.763530
O111	O11	0.552750	0.526360	0.065630
O121	O12	0.568040	0.511470	0.980940
C461	C46	0.578290	0.524740	0.030070
C471	C47	0.625090	0.540390	0.047870
C481	C48	0.656400	0.543390	0.009890
H311	H31	0.648330	0.535570	0.973270
C491	C49	0.699250	0.557850	0.026430
H321	H32	0.719530	0.558470	0.000970
C501	C50	0.712940	0.571410	0.079970
C511	C51	0.681560	0.568860	0.116720
H331	H33	0.689630	0.577370	0.153170
C521	C52	0.638260	0.553880	0.100540
H341	H34	0.617930	0.553070	0.126070
C531	C53	0.759750	0.589440	0.097810
C541	C54	0.779600	0.627380	0.130860
H351	H35	0.762830	0.640270	0.141270
H361	H36	0.722830	0.490770	0.096870
O131	O13	0.140310	0.359730	0.398960
O141	O14	0.155200	0.389910	0.314270
C551	C55	0.141930	0.386890	0.363400
C561	C56	0.126280	0.418040	0.381200
C571	C57	0.123280	0.446350	0.343220
H371	H37	0.131100	0.446100	0.306600
C581	C58	0.108820	0.474740	0.359760
H381	H38	0.108200	0.494400	0.334300
C591	C59	0.095260	0.474870	0.413300
C601	C60	0.097810	0.446040	0.450050
H391	H39	0.089300	0.445600	0.486500
C611	C61	0.112790	0.417720	0.433870
H401	H40	0.113600	0.398200	0.459400
C621	C62	0.077230	0.503650	0.431140
C631	C63	0.039290	0.485560	0.464190
H411	H41	0.026400	0.455900	0.474600
H421	H42	0.175900	0.565400	0.430200
O151	O15	0.806980	0.693060	0.732290
O161	O16	0.821870	0.723240	0.647600
C641	C64	0.808600	0.720220	0.696730
C651	C65	0.792950	0.751370	0.714530
C661	C66	0.789950	0.779680	0.676550
H431	H43	0.797770	0.779430	0.639930
C671	C67	0.775490	0.808070	0.693090
H441	H44	0.774870	0.827730	0.667630
C681	C68	0.761930	0.808200	0.746630
C691	C69	0.764480	0.779370	0.783380
H451	H45	0.755970	0.778930	0.819830
C701	C70	0.779460	0.751050	0.767200
H461	H46	0.780270	0.731530	0.792730
C711	C71	0.743900	0.836980	0.764470
C721	C72	0.705960	0.818890	0.797520
H471	H47	0.693070	0.789230	0.807930
H481	H48	0.842570	0.898730	0.763530
O171	O17	0.473640	0.026400	0.065630
O181	O18	0.488530	0.056580	0.980940
C731	C73	0.475260	0.053560	0.030070
C741	C74	0.459610	0.084710	0.047870
C751	C75	0.456610	0.113020	0.009890
H491	H49	0.464430	0.112770	0.973270
C761	C76	0.442150	0.141410	0.026430
H501	H50	0.441530	0.161070	0.000970
C771	C77	0.428590	0.141540	0.079970
C781	C78	0.431140	0.112710	0.116720
H511	H51	0.422630	0.112270	0.153170
C791	C79	0.446120	0.084390	0.100540
H521	H52	0.446930	0.064870	0.126070
C801	C80	0.410560	0.170320	0.097810
C811	C81	0.372620	0.152230	0.130860
H531	H53	0.359730	0.122570	0.141270
H541	H54	0.509230	0.232070	0.096870
O191	O19	0.780580	0.640270	0.601040
O201	O20	0.765290	0.610090	0.685730
C821	C82	0.755040	0.613110	0.636600
C831	C83	0.708240	0.581960	0.618800
C841	C84	0.676930	0.553650	0.656780
H551	H55	0.685000	0.553900	0.693400
C851	C85	0.634080	0.525260	0.640240
H561	H56	0.613800	0.505600	0.665700
C861	C86	0.620390	0.525130	0.586700
C871	C87	0.651770	0.553960	0.549950
H571	H57	0.643700	0.554400	0.513500
C881	C88	0.695070	0.582280	0.566130
H581	H58	0.715400	0.601800	0.540600
C891	C89	0.573580	0.496350	0.568860
C901	C90	0.553730	0.514440	0.535810
H591	H59	0.570500	0.544100	0.525400
H601	H60	0.610500	0.434600	0.569800
O211	O21	0.447250	0.973600	0.934370
O221	O22	0.431960	0.943420	0.019060
C911	C91	0.421710	0.946440	0.969930
C921	C92	0.374910	0.915290	0.952130
C931	C93	0.343600	0.886980	0.990110
H611	H61	0.351670	0.887230	0.026730
C941	C94	0.300750	0.858590	0.973570
H621	H62	0.280470	0.838930	0.999030
C951	C95	0.287060	0.858460	0.920030
C961	C96	0.318440	0.887290	0.883280
H631	H63	0.310370	0.887730	0.846830
C971	C97	0.361740	0.915610	0.899460
H641	H64	0.382070	0.935130	0.873930
C981	C98	0.240250	0.829680	0.902190
C991	C99	0.220400	0.847770	0.869140
H651	H65	0.237170	0.877430	0.858730
H661	H66	0.277170	0.767930	0.903130
O231	O23	0.113910	0.306940	0.267710
O241	O24	0.098620	0.276760	0.352400
C1001	C100	0.088370	0.279780	0.303270
C1011	C101	0.041570	0.248630	0.285470
C1021	C102	0.010260	0.220320	0.323450
H671	H67	0.018330	0.220570	0.360070
C1031	C103	0.967410	0.191930	0.306910
H681	H68	0.947130	0.172270	0.332370
C1041	C104	0.953720	0.191800	0.253370
C1051	C105	0.985100	0.220630	0.216620
H691	H69	0.977030	0.221070	0.180170
C1061	C106	0.028400	0.248950	0.232800
H701	H70	0.048730	0.268470	0.207270
C1071	C107	0.906910	0.163020	0.235530
C1081	C108	0.887060	0.181110	0.202480
H711	H71	0.903830	0.210770	0.192070
H721	H72	0.943830	0.101270	0.236470
O251	O25	0.859690	0.219420	0.601040
O261	O26	0.844800	0.234710	0.685730
C1091	C109	0.858070	0.244960	0.636600
C1101	C110	0.873720	0.291760	0.618800
C1111	C111	0.876720	0.323070	0.656780
H731	H73	0.868900	0.315000	0.693400
C1121	C112	0.891180	0.365920	0.640240
H741	H74	0.891800	0.386200	0.665700
C1131	C113	0.904740	0.379610	0.586700
C1141	C114	0.902190	0.348230	0.549950
H751	H75	0.910700	0.356300	0.513500
C1151	C115	0.887210	0.304930	0.566130
H761	H76	0.886400	0.284600	0.540600
C1161	C116	0.922770	0.426420	0.568860
C1171	C117	0.960710	0.446270	0.535810
H771	H77	0.973600	0.429500	0.525400
H781	H78	0.824100	0.389500	0.569800
O271	O27	0.526360	0.552750	0.934370
O281	O28	0.511470	0.568040	0.019060
C1181	C118	0.524740	0.578290	0.969930
C1191	C119	0.540390	0.625090	0.952130
C1201	C120	0.543390	0.656400	0.990110
H791	H79	0.535570	0.648330	0.026730
C1211	C121	0.557850	0.699250	0.973570
H801	H80	0.558470	0.719530	0.999030
C1221	C122	0.571410	0.712940	0.920030
C1231	C123	0.568860	0.681560	0.883280
H811	H81	0.577370	0.689630	0.846830
C1241	C124	0.553880	0.638260	0.899460
H821	H82	0.553070	0.617930	0.873930
C1251	C125	0.589440	0.759750	0.902190
C1261	C126	0.627380	0.779600	0.869140
H831	H83	0.640270	0.762830	0.858730
H841	H84	0.490770	0.722830	0.903130
O291	O29	0.193020	0.886090	0.267710
O301	O30	0.178130	0.901380	0.352400
C1271	C127	0.191400	0.911630	0.303270
C1281	C128	0.207050	0.958430	0.285470
C1291	C129	0.210050	0.989740	0.323450
H851	H85	0.202230	0.981670	0.360070
C1301	C130	0.224510	0.032590	0.306910
H861	H86	0.225130	0.052870	0.332370
C1311	C131	0.238070	0.046280	0.253370
C1321	C132	0.235520	0.014900	0.216620
H871	H87	0.244030	0.022970	0.180170
C1331	C133	0.220540	0.971600	0.232800
H881	H88	0.219730	0.951270	0.207270
C1341	C134	0.256100	0.093090	0.235530
C1351	C135	0.294040	0.112940	0.202480
H891	H89	0.306930	0.096170	0.192070
H901	H90	0.157430	0.056170	0.236470
O311	O31	0.359730	0.140310	0.601040
O321	O32	0.389910	0.155200	0.685730
C1361	C136	0.386890	0.141930	0.636600
C1371	C137	0.418040	0.126280	0.618800
C1381	C138	0.446350	0.123280	0.656780
H911	H91	0.446100	0.131100	0.693400
C1391	C139	0.474740	0.108820	0.640240
H921	H92	0.494400	0.108200	0.665700
C1401	C140	0.474870	0.095260	0.586700
C1411	C141	0.446040	0.097810	0.549950
H931	H93	0.445600	0.089300	0.513500
C1421	C142	0.417720	0.112790	0.566130
H941	H94	0.398200	0.113600	0.540600
C1431	C143	0.503650	0.077230	0.568860
C1441	C144	0.485560	0.039290	0.535810
H951	H95	0.455900	0.026400	0.525400
H961	H96	0.565400	0.175900	0.569800
O331	O33	0.026400	0.473640	0.934370
O341	O34	0.056580	0.488530	0.019060
C1451	C145	0.053560	0.475260	0.969930
C1461	C146	0.084710	0.459610	0.952130
C1471	C147	0.113020	0.456610	0.990110
H971	H97	0.112770	0.464430	0.026730
C1481	C148	0.141410	0.442150	0.973570
H981	H98	0.161070	0.441530	0.999030
C1491	C149	0.141540	0.428590	0.920030
C1501	C150	0.112710	0.431140	0.883280
H991	H99	0.112270	0.422630	0.846830
C1511	C151	0.084390	0.446120	0.899460
H1001	H100	0.064870	0.446930	0.873930
C1521	C152	0.170320	0.410560	0.902190
C1531	C153	0.152230	0.372620	0.869140
H1011	H101	0.122570	0.359730	0.858730
H1021	H102	0.232070	0.509230	0.903130
O351	O35	0.693060	0.806980	0.267710
O361	O36	0.723240	0.821870	0.352400
C1541	C154	0.720220	0.808600	0.303270
C1551	C155	0.751370	0.792950	0.285470
C1561	C156	0.779680	0.789950	0.323450
H1031	H103	0.779430	0.797770	0.360070
C1571	C157	0.808070	0.775490	0.306910
H1041	H104	0.827730	0.774870	0.332370
C1581	C158	0.808200	0.761930	0.253370
C1591	C159	0.779370	0.764480	0.216620
H1051	H105	0.778930	0.755970	0.180170
C1601	C160	0.751050	0.779460	0.232800
H1061	H106	0.731530	0.780270	0.207270
C1611	C161	0.836980	0.743900	0.235530
C1621	C162	0.818890	0.705960	0.202480
H1071	H107	0.789230	0.693070	0.192070
H1081	H108	0.898730	0.842570	0.236470
O371	O37	0.359730	0.219420	0.601040
O381	O38	0.389910	0.234710	0.685730
C1631	C163	0.386890	0.244960	0.636600
C1641	C164	0.418040	0.291760	0.618800
C1651	C165	0.446350	0.323070	0.656780
H1091	H109	0.446100	0.315000	0.693400
C1661	C166	0.474740	0.365920	0.640240
H1101	H110	0.494400	0.386200	0.665700
C1671	C167	0.474870	0.379610	0.586700
C1681	C168	0.446040	0.348230	0.549950
H1111	H111	0.445600	0.356300	0.513500
C1691	C169	0.417720	0.304930	0.566130
H1121	H112	0.398200	0.284600	0.540600
C1701	C170	0.503650	0.426420	0.568860
C1711	C171	0.485560	0.446270	0.535810
H1131	H113	0.455900	0.429500	0.525400
H1141	H114	0.565400	0.389500	0.569800
O391	O39	0.026400	0.552750	0.934370
O401	O40	0.056580	0.568040	0.019060
C1721	C172	0.053560	0.578290	0.969930
C1731	C173	0.084710	0.625090	0.952130
C1741	C174	0.113020	0.656400	0.990110
H1151	H115	0.112770	0.648330	0.026730
C1751	C175	0.141410	0.699250	0.973570
H1161	H116	0.161070	0.719530	0.999030
C1761	C176	0.141540	0.712940	0.920030
C1771	C177	0.112710	0.681560	0.883280
H1171	H117	0.112270	0.689630	0.846830
C1781	C178	0.084390	0.638260	0.899460
H1181	H118	0.064870	0.617930	0.873930
C1791	C179	0.170320	0.759750	0.902190
C1801	C180	0.152230	0.779600	0.869140
H1191	H119	0.122570	0.762830	0.858730
H1201	H120	0.232070	0.722830	0.903130
O411	O41	0.693060	0.886090	0.267710
O421	O42	0.723240	0.901380	0.352400
C1811	C181	0.720220	0.911630	0.303270
C1821	C182	0.751370	0.958430	0.285470
C1831	C183	0.779680	0.989740	0.323450
H1211	H121	0.779430	0.981670	0.360070
C1841	C184	0.808070	0.032590	0.306910
H1221	H122	0.827730	0.052870	0.332370
C1851	C185	0.808200	0.046280	0.253370
C1861	C186	0.779370	0.014900	0.216620
H1231	H123	0.778930	0.022970	0.180170
C1871	C187	0.751050	0.971600	0.232800
H1241	H124	0.731530	0.951270	0.207270
C1881	C188	0.836980	0.093090	0.235530
C1891	C189	0.818890	0.112940	0.202480
H1251	H125	0.789230	0.096170	0.192070
H1261	H126	0.898730	0.056170	0.236470
O431	O43	0.780580	0.140310	0.601040
O441	O44	0.765290	0.155200	0.685730
C1901	C190	0.755040	0.141930	0.636600
C1911	C191	0.708240	0.126280	0.618800
C1921	C192	0.676930	0.123280	0.656780
H1271	H127	0.685000	0.131100	0.693400
C1931	C193	0.634080	0.108820	0.640240
H1281	H128	0.613800	0.108200	0.665700
C1941	C194	0.620390	0.095260	0.586700
C1951	C195	0.651770	0.097810	0.549950
H1291	H129	0.643700	0.089300	0.513500
C1961	C196	0.695070	0.112790	0.566130
H1301	H130	0.715400	0.113600	0.540600
C1971	C197	0.573580	0.077230	0.568860
C1981	C198	0.553730	0.039290	0.535810
H1311	H131	0.570500	0.026400	0.525400
H1321	H132	0.610500	0.175900	0.569800
O451	O45	0.447250	0.473640	0.934370
O461	O46	0.431960	0.488530	0.019060
C1991	C199	0.421710	0.475260	0.969930
C2001	C200	0.374910	0.459610	0.952130
C2011	C201	0.343600	0.456610	0.990110
H1331	H133	0.351670	0.464430	0.026730
C2021	C202	0.300750	0.442150	0.973570
H1341	H134	0.280470	0.441530	0.999030
C2031	C203	0.287060	0.428590	0.920030
C2041	C204	0.318440	0.431140	0.883280
H1351	H135	0.310370	0.422630	0.846830
C2051	C205	0.361740	0.446120	0.899460
H1361	H136	0.382070	0.446930	0.873930
C2061	C206	0.240250	0.410560	0.902190
C2071	C207	0.220400	0.372620	0.869140
H1371	H137	0.237170	0.359730	0.858730
H1381	H138	0.277170	0.509230	0.903130
O471	O47	0.113910	0.806980	0.267710
O481	O48	0.098620	0.821870	0.352400
C2081	C208	0.088370	0.808600	0.303270
C2091	C209	0.041570	0.792950	0.285470
C2101	C210	0.010260	0.789950	0.323450
H1391	H139	0.018330	0.797770	0.360070
C2111	C211	0.967410	0.775490	0.306910
H1401	H140	0.947130	0.774870	0.332370
C2121	C212	0.953720	0.761930	0.253370
C2131	C213	0.985100	0.764480	0.216620
H1411	H141	0.977030	0.755970	0.180170
C2141	C214	0.028400	0.779460	0.232800
H1421	H142	0.048730	0.780270	0.207270
C2151	C215	0.906910	0.743900	0.235530
C2161	C216	0.887060	0.705960	0.202480
H1431	H143	0.903830	0.693070	0.192070
H1441	H144	0.943830	0.842570	0.236470
O491	O49	0.859690	0.640270	0.601040
O501	O50	0.844800	0.610090	0.685730
C2171	C217	0.858070	0.613110	0.636600
C2181	C218	0.873720	0.581960	0.618800
C2191	C219	0.876720	0.553650	0.656780
H1451	H145	0.868900	0.553900	0.693400
C2201	C220	0.891180	0.525260	0.640240
H1461	H146	0.891800	0.505600	0.665700
C2211	C221	0.904740	0.525130	0.586700
C2221	C222	0.902190	0.553960	0.549950
H1471	H147	0.910700	0.554400	0.513500
C2231	C223	0.887210	0.582280	0.566130
H1481	H148	0.886400	0.601800	0.540600
C2241	C224	0.922770	0.496350	0.568860
C2251	C225	0.960710	0.514440	0.535810
H1491	H149	0.973600	0.544100	0.525400
H1501	H150	0.824100	0.434600	0.569800
O511	O51	0.526360	0.973600	0.934370
O521	O52	0.511470	0.943420	0.019060
C2261	C226	0.524740	0.946440	0.969930
C2271	C227	0.540390	0.915290	0.952130
C2281	C228	0.543390	0.886980	0.990110
H1511	H151	0.535570	0.887230	0.026730
C2291	C229	0.557850	0.858590	0.973570
H1521	H152	0.558470	0.838930	0.999030
C2301	C230	0.571410	0.858460	0.920030
C2311	C231	0.568860	0.887290	0.883280
H1531	H153	0.577370	0.887730	0.846830
C2321	C232	0.553880	0.915610	0.899460
H1541	H154	0.553070	0.935130	0.873930
C2331	C233	0.589440	0.829680	0.902190
C2341	C234	0.627380	0.847770	0.869140
H1551	H155	0.640270	0.877430	0.858730
H1561	H156	0.490770	0.767930	0.903130
O531	O53	0.193020	0.306940	0.267710
O541	O54	0.178130	0.276760	0.352400
C2351	C235	0.191400	0.279780	0.303270
C2361	C236	0.207050	0.248630	0.285470
C2371	C237	0.210050	0.220320	0.323450
H1571	H157	0.202230	0.220570	0.360070
C2381	C238	0.224510	0.191930	0.306910
H1581	H158	0.225130	0.172270	0.332370
C2391	C239	0.238070	0.191800	0.253370
C2401	C240	0.235520	0.220630	0.216620
H1591	H159	0.244030	0.221070	0.180170
C2411	C241	0.220540	0.248950	0.232800
H1601	H160	0.219730	0.268470	0.207270
C2421	C242	0.256100	0.163020	0.235530
C2431	C243	0.294040	0.181110	0.202480
H1611	H161	0.306930	0.210770	0.192070
H1621	H162	0.157430	0.101270	0.236470
O551	O55	0.219420	0.359730	0.398960
O561	O56	0.234710	0.389910	0.314270
C2441	C244	0.244960	0.386890	0.363400
C2451	C245	0.291760	0.418040	0.381200
C2461	C246	0.323070	0.446350	0.343220
H1631	H163	0.315000	0.446100	0.306600
C2471	C247	0.365920	0.474740	0.359760
H1641	H164	0.386200	0.494400	0.334300
C2481	C248	0.379610	0.474870	0.413300
C2491	C249	0.348230	0.446040	0.450050
H1651	H165	0.356300	0.445600	0.486500
C2501	C250	0.304930	0.417720	0.433870
H1661	H166	0.284600	0.398200	0.459400
C2511	C251	0.426420	0.503650	0.431140
C2521	C252	0.446270	0.485560	0.464190
H1671	H167	0.429500	0.455900	0.474600
H1681	H168	0.389500	0.565400	0.430200
O571	O57	0.886090	0.693060	0.732290
O581	O58	0.901380	0.723240	0.647600
C2531	C253	0.911630	0.720220	0.696730
C2541	C254	0.958430	0.751370	0.714530
C2551	C255	0.989740	0.779680	0.676550
H1691	H169	0.981670	0.779430	0.639930
C2561	C256	0.032590	0.808070	0.693090
H1701	H170	0.052870	0.827730	0.667630
C2571	C257	0.046280	0.808200	0.746630
C2581	C258	0.014900	0.779370	0.783380
H1711	H171	0.022970	0.778930	0.819830
C2591	C259	0.971600	0.751050	0.767200
H1721	H172	0.951270	0.731530	0.792730
C2601	C260	0.093090	0.836980	0.764470
C2611	C261	0.112940	0.818890	0.797520
H1731	H173	0.096170	0.789230	0.807930
H1741	H174	0.056170	0.898730	0.763530
O591	O59	0.552750	0.026400	0.065630
O601	O60	0.568040	0.056580	0.980940
C2621	C262	0.578290	0.053560	0.030070
C2631	C263	0.625090	0.084710	0.047870
C2641	C264	0.656400	0.113020	0.009890
H1751	H175	0.648330	0.112770	0.973270
C2651	C265	0.699250	0.141410	0.026430
H1761	H176	0.719530	0.161070	0.000970
C2661	C266	0.712940	0.141540	0.079970
C2671	C267	0.681560	0.112710	0.116720
H1771	H177	0.689630	0.112270	0.153170
C2681	C268	0.638260	0.084390	0.100540
H1781	H178	0.617930	0.064870	0.126070
C2691	C269	0.759750	0.170320	0.097810
C2701	C270	0.779600	0.152230	0.130860
H1791	H179	0.762830	0.122570	0.141270
H1801	H180	0.722830	0.232070	0.096870
O611	O61	0.140310	0.780580	0.398960
O621	O62	0.155200	0.765290	0.314270
C2711	C271	0.141930	0.755040	0.363400
C2721	C272	0.126280	0.708240	0.381200
C2731	C273	0.123280	0.676930	0.343220
H1811	H181	0.131100	0.685000	0.306600
C2741	C274	0.108820	0.634080	0.359760
H1821	H182	0.108200	0.613800	0.334300
C2751	C275	0.095260	0.620390	0.413300
C2761	C276	0.097810	0.651770	0.450050
H1831	H183	0.089300	0.643700	0.486500
C2771	C277	0.112790	0.695070	0.433870
H1841	H184	0.113600	0.715400	0.459400
C2781	C278	0.077230	0.573580	0.431140
C2791	C279	0.039290	0.553730	0.464190
H1851	H185	0.026400	0.570500	0.474600
H1861	H186	0.175900	0.610500	0.430200
O631	O63	0.806980	0.113910	0.732290
O641	O64	0.821870	0.098620	0.647600
C2801	C280	0.808600	0.088370	0.696730
C2811	C281	0.792950	0.041570	0.714530
C2821	C282	0.789950	0.010260	0.676550
H1871	H187	0.797770	0.018330	0.639930
C2831	C283	0.775490	0.967410	0.693090
H1881	H188	0.774870	0.947130	0.667630
C2841	C284	0.761930	0.953720	0.746630
C2851	C285	0.764480	0.985100	0.783380
H1891	H189	0.755970	0.977030	0.819830
C2861	C286	0.779460	0.028400	0.767200
H1901	H190	0.780270	0.048730	0.792730
C2871	C287	0.743900	0.906910	0.764470
C2881	C288	0.705960	0.887060	0.797520
H1911	H191	0.693070	0.903830	0.807930
H1921	H192	0.842570	0.943830	0.763530
O651	O65	0.473640	0.447250	0.065630
O661	O66	0.488530	0.431960	0.980940
C2891	C289	0.475260	0.421710	0.030070
C2901	C290	0.459610	0.374910	0.047870
C2911	C291	0.456610	0.343600	0.009890
H1931	H193	0.464430	0.351670	0.973270
C2921	C292	0.442150	0.300750	0.026430
H1941	H194	0.441530	0.280470	0.000970
C2931	C293	0.428590	0.287060	0.079970
C2941	C294	0.431140	0.318440	0.116720
H1951	H195	0.422630	0.310370	0.153170
C2951	C295	0.446120	0.361740	0.100540
H1961	H196	0.446930	0.382070	0.126070
C2961	C296	0.410560	0.240250	0.097810
C2971	C297	0.372620	0.220400	0.130860
H1971	H197	0.359730	0.237170	0.141270
H1981	H198	0.509230	0.277170	0.096870
O671	O67	0.640270	0.859690	0.398960
O681	O68	0.610090	0.844800	0.314270
C2981	C298	0.613110	0.858070	0.363400
C2991	C299	0.581960	0.873720	0.381200
C3001	C300	0.553650	0.876720	0.343220
H1991	H199	0.553900	0.868900	0.306600
C3011	C301	0.525260	0.891180	0.359760
H2001	H200	0.505600	0.891800	0.334300
C3021	C302	0.525130	0.904740	0.413300
C3031	C303	0.553960	0.902190	0.450050
H2011	H201	0.554400	0.910700	0.486500
C3041	C304	0.582280	0.887210	0.433870
H2021	H202	0.601800	0.886400	0.459400
C3051	C305	0.496350	0.922770	0.431140
C3061	C306	0.514440	0.960710	0.464190
H2031	H203	0.544100	0.973600	0.474600
H2041	H204	0.434600	0.824100	0.430200
O691	O69	0.306940	0.193020	0.732290
O701	O70	0.276760	0.178130	0.647600
C3071	C307	0.279780	0.191400	0.696730
C3081	C308	0.248630	0.207050	0.714530
C3091	C309	0.220320	0.210050	0.676550
H2051	H205	0.220570	0.202230	0.639930
C3101	C310	0.191930	0.224510	0.693090
H2061	H206	0.172270	0.225130	0.667630
C3111	C311	0.191800	0.238070	0.746630
C3121	C312	0.220630	0.235520	0.783380
H2071	H207	0.221070	0.244030	0.819830
C3131	C313	0.248950	0.220540	0.767200
H2081	H208	0.268470	0.219730	0.792730
C3141	C314	0.163020	0.256100	0.764470
C3151	C315	0.181110	0.294040	0.797520
H2091	H209	0.210770	0.306930	0.807930
H2101	H210	0.101270	0.157430	0.763530
O711	O71	0.973600	0.526360	0.065630
O721	O72	0.943420	0.511470	0.980940
C3161	C316	0.946440	0.524740	0.030070
C3171	C317	0.915290	0.540390	0.047870
C3181	C318	0.886980	0.543390	0.009890
H2111	H211	0.887230	0.535570	0.973270
C3191	C319	0.858590	0.557850	0.026430
H2121	H212	0.838930	0.558470	0.000970
C3201	C320	0.858460	0.571410	0.079970
C3211	C321	0.887290	0.568860	0.116720
H2131	H213	0.887730	0.577370	0.153170
C3221	C322	0.915610	0.553880	0.100540
H2141	H214	0.935130	0.553070	0.126070
C3231	C323	0.829680	0.589440	0.097810
C3241	C324	0.847770	0.627380	0.130860
H2151	H215	0.877430	0.640270	0.141270
H2161	H216	0.767930	0.490770	0.096870
Cu11	Cu1	0.648710	0.824350	0.283560
Cu21	Cu2	0.315380	0.157690	0.616890
Cu31	Cu3	0.982040	0.491020	0.950230
Cu41	Cu4	0.175650	0.824350	0.283560
Cu51	Cu5	0.842310	0.157690	0.616890
Cu61	Cu6	0.508980	0.491020	0.950230
Cu71	Cu7	0.175650	0.351290	0.283560
Cu81	Cu8	0.842310	0.684620	0.616890
Cu91	Cu9	0.508980	0.017960	0.950230
Cu101	Cu10	0.824350	0.648710	0.716440
Cu111	Cu11	0.491020	0.982040	0.049770
Cu121	Cu12	0.157690	0.315380	0.383110
Cu131	Cu13	0.824350	0.175650	0.716440
Cu141	Cu14	0.491020	0.508980	0.049770
Cu151	Cu15	0.157690	0.842310	0.383110
Cu161	Cu16	0.351290	0.175650	0.716440
Cu171	Cu17	0.017960	0.508980	0.049770
Cu181	Cu18	0.684620	0.842310	0.383110
O731	O73	0.433290	0.566710	0.381310
C3251	C325	0.490090	0.509910	0.482330
C3261	C326	0.452340	0.547660	0.414310
C3271	C327	0.413270	0.586730	0.407500
H2171	H217	0.401600	0.598400	0.380500
O741	O74	0.099960	0.900040	0.714640
C3281	C328	0.156760	0.843240	0.815660
C3291	C329	0.119010	0.880990	0.747640
C3301	C330	0.079940	0.920060	0.740830
H2181	H218	0.068270	0.931730	0.713830
O751	O75	0.766620	0.233380	0.047980
C3311	C331	0.823420	0.176580	0.149000
C3321	C332	0.785670	0.214330	0.080980
C3331	C333	0.746600	0.253400	0.074170
H2191	H219	0.734930	0.265070	0.047170
O761	O76	0.433290	0.866580	0.381310
C3341	C334	0.490090	0.980180	0.482330
C3351	C335	0.452340	0.904680	0.414310
C3361	C336	0.413270	0.826540	0.407500
H2201	H220	0.401600	0.803200	0.380500
O771	O77	0.099960	0.199910	0.714640
C3371	C337	0.156760	0.313510	0.815660
C3381	C338	0.119010	0.238010	0.747640
C3391	C339	0.079940	0.159870	0.740830
H2211	H221	0.068270	0.136530	0.713830
O781	O78	0.766620	0.533250	0.047980
C3401	C340	0.823420	0.646850	0.149000
C3411	C341	0.785670	0.571350	0.080980
C3421	C342	0.746600	0.493210	0.074170
H2221	H222	0.734930	0.469870	0.047170
O791	O79	0.133420	0.566710	0.381310
C3431	C343	0.019820	0.509910	0.482330
C3441	C344	0.095320	0.547660	0.414310
C3451	C345	0.173460	0.586730	0.407500
H2231	H223	0.196800	0.598400	0.380500
O801	O80	0.800090	0.900040	0.714640
C3461	C346	0.686490	0.843240	0.815660
C3471	C347	0.761990	0.880990	0.747640
C3481	C348	0.840130	0.920060	0.740830
H2241	H224	0.863470	0.931730	0.713830
O811	O81	0.466750	0.233380	0.047980
C3491	C349	0.353150	0.176580	0.149000
C3501	C350	0.428650	0.214330	0.080980
C3511	C351	0.506790	0.253400	0.074170
H2251	H225	0.530130	0.265070	0.047170
O821	O82	0.566710	0.433290	0.618690
C3521	C352	0.509910	0.490090	0.517670
C3531	C353	0.547660	0.452340	0.585690
C3541	C354	0.586730	0.413270	0.592500
H2261	H226	0.598400	0.401600	0.619500
O831	O83	0.233380	0.766620	0.952020
C3551	C355	0.176580	0.823420	0.851000
C3561	C356	0.214330	0.785670	0.919020
C3571	C357	0.253400	0.746600	0.925830
H2271	H227	0.265070	0.734930	0.952830
O841	O84	0.900040	0.099960	0.285360
C3581	C358	0.843240	0.156760	0.184340
C3591	C359	0.880990	0.119010	0.252360
C3601	C360	0.920060	0.079940	0.259170
H2281	H228	0.931730	0.068270	0.286170
O851	O85	0.866580	0.433290	0.618690
C3611	C361	0.980180	0.490090	0.517670
C3621	C362	0.904680	0.452340	0.585690
C3631	C363	0.826540	0.413270	0.592500
H2291	H229	0.803200	0.401600	0.619500
O861	O86	0.533250	0.766620	0.952020
C3641	C364	0.646850	0.823420	0.851000
C3651	C365	0.571350	0.785670	0.919020
C3661	C366	0.493210	0.746600	0.925830
H2301	H230	0.469870	0.734930	0.952830
O871	O87	0.199910	0.099960	0.285360
C3671	C367	0.313510	0.156760	0.184340
C3681	C368	0.238010	0.119010	0.252360
C3691	C369	0.159870	0.079940	0.259170
H2311	H231	0.136530	0.068270	0.286170
O881	O88	0.566710	0.133420	0.618690
C3701	C370	0.509910	0.019820	0.517670
C3711	C371	0.547660	0.095320	0.585690
C3721	C372	0.586730	0.173460	0.592500
H2321	H232	0.598400	0.196800	0.619500
O891	O89	0.233380	0.466750	0.952020
C3731	C373	0.176580	0.353150	0.851000
C3741	C374	0.214330	0.428650	0.919020
C3751	C375	0.253400	0.506790	0.925830
H2331	H233	0.265070	0.530130	0.952830
O901	O90	0.900040	0.800090	0.285360
C3761	C376	0.843240	0.686490	0.184340
C3771	C377	0.880990	0.761990	0.252360
C3781	C378	0.920060	0.840130	0.259170
H2341	H234	0.931730	0.863470	0.286170
