data_UMOVEZ02_clean_PM
_symmetry_space_group_name_H-M	'P1'
_cell_length_a	35.293500
_cell_length_b	35.293500
_cell_length_c	20.439800
_cell_angle_alpha	90.000000
_cell_angle_beta	90.000000
_cell_angle_gamma	120.000000
_symmetry_Int_Tables_number 1

loop_
_symmetry_equiv_pos_as_xyz
'x,y,z'

loop_
_atom_site_label
_atom_site_type_symbol
_atom_site_fract_x
_atom_site_fract_y
_atom_site_fract_z
O11	O1	0.362620	0.220230	0.591130
O21	O2	0.388560	0.233270	0.694340
C11	C1	0.387750	0.244340	0.635930
C21	C2	0.420010	0.290970	0.617210
C31	C3	0.448290	0.319660	0.665250
H11	H1	0.447500	0.309700	0.708700
C41	C4	0.477590	0.362960	0.648180
H21	H2	0.497100	0.382500	0.680200
C51	C5	0.478570	0.377830	0.585370
C61	C6	0.450580	0.348340	0.537960
H31	H3	0.451700	0.357900	0.494200
C71	C7	0.421380	0.305430	0.554820
H41	H4	0.402100	0.285800	0.522700
C81	C8	0.506040	0.425230	0.568430
C91	C9	0.487470	0.445080	0.534460
H51	H5	0.457500	0.428100	0.522500
H61	H6	0.611400	0.434000	0.549900
O31	O3	0.029290	0.553560	0.924460
O41	O4	0.055230	0.566600	0.027670
C101	C10	0.054420	0.577670	0.969260
C111	C11	0.086680	0.624300	0.950540
C121	C12	0.114960	0.652990	0.998580
H71	H7	0.114170	0.643030	0.042030
C131	C13	0.144260	0.696290	0.981510
H81	H8	0.163770	0.715830	0.013530
C141	C14	0.145240	0.711160	0.918700
C151	C15	0.117250	0.681670	0.871290
H91	H9	0.118370	0.691230	0.827530
C161	C16	0.088050	0.638760	0.888150
H101	H10	0.068770	0.619130	0.856030
C171	C17	0.172710	0.758560	0.901760
C181	C18	0.154140	0.778410	0.867790
H111	H11	0.124170	0.761430	0.855830
H121	H12	0.278070	0.767330	0.883230
O51	O5	0.695950	0.886900	0.257800
O61	O6	0.721890	0.899940	0.361010
C191	C19	0.721080	0.911010	0.302600
C201	C20	0.753340	0.957640	0.283880
C211	C21	0.781620	0.986330	0.331920
H131	H13	0.780830	0.976370	0.375370
C221	C22	0.810920	0.029630	0.314850
H141	H14	0.830430	0.049170	0.346870
C231	C23	0.811900	0.044500	0.252040
C241	C24	0.783910	0.015010	0.204630
H151	H15	0.785030	0.024570	0.160870
C251	C25	0.754710	0.972100	0.221490
H161	H16	0.735430	0.952470	0.189370
C261	C26	0.839370	0.091900	0.235100
C271	C27	0.820800	0.111750	0.201130
H171	H17	0.790830	0.094770	0.189170
H181	H18	0.944730	0.100670	0.216570
O71	O7	0.779770	0.142390	0.591130
O81	O8	0.766730	0.155290	0.694340
C281	C28	0.755660	0.143410	0.635930
C291	C29	0.709030	0.129040	0.617210
C301	C30	0.680340	0.128630	0.665250
H191	H19	0.690300	0.137800	0.708700
C311	C31	0.637040	0.114630	0.648180
H201	H20	0.617500	0.114600	0.680200
C321	C32	0.622170	0.100740	0.585370
C331	C33	0.651660	0.102240	0.537960
H211	H21	0.642100	0.093800	0.494200
C341	C34	0.694570	0.115950	0.554820
H221	H22	0.714200	0.116300	0.522700
C351	C35	0.574770	0.080810	0.568430
C361	C36	0.554920	0.042390	0.534460
H231	H23	0.571900	0.029400	0.522500
H241	H24	0.566000	0.177400	0.549900
O91	O9	0.446440	0.475720	0.924460
O101	O10	0.433400	0.488620	0.027670
C371	C37	0.422330	0.476740	0.969260
C381	C38	0.375700	0.462370	0.950540
C391	C39	0.347010	0.461960	0.998580
H251	H25	0.356970	0.471130	0.042030
C401	C40	0.303710	0.447960	0.981510
H261	H26	0.284170	0.447930	0.013530
C411	C41	0.288840	0.434070	0.918700
C421	C42	0.318330	0.435570	0.871290
H271	H27	0.308770	0.427130	0.827530
C431	C43	0.361240	0.449280	0.888150
H281	H28	0.380870	0.449630	0.856030
C441	C44	0.241440	0.414140	0.901760
C451	C45	0.221590	0.375720	0.867790
H291	H29	0.238570	0.362730	0.855830
H301	H30	0.232670	0.510730	0.883230
O111	O11	0.113100	0.809060	0.257800
O121	O12	0.100060	0.821960	0.361010
C461	C46	0.088990	0.810080	0.302600
C471	C47	0.042360	0.795710	0.283880
C481	C48	0.013670	0.795300	0.331920
H311	H31	0.023630	0.804470	0.375370
C491	C49	0.970370	0.781300	0.314850
H321	H32	0.950830	0.781270	0.346870
C501	C50	0.955500	0.767410	0.252040
C511	C51	0.984990	0.768910	0.204630
H331	H33	0.975430	0.760470	0.160870
C521	C52	0.027900	0.782620	0.221490
H341	H34	0.047530	0.782970	0.189370
C531	C53	0.908100	0.747480	0.235100
C541	C54	0.888250	0.709060	0.201130
H351	H35	0.905230	0.696070	0.189170
H361	H36	0.899330	0.844070	0.216570
O131	O13	0.857610	0.637380	0.591130
O141	O14	0.844710	0.611440	0.694340
C551	C55	0.856590	0.612250	0.635930
C561	C56	0.870960	0.579990	0.617210
C571	C57	0.871370	0.551710	0.665250
H371	H37	0.862200	0.552500	0.708700
C581	C58	0.885370	0.522410	0.648180
H381	H38	0.885400	0.502900	0.680200
C591	C59	0.899260	0.521430	0.585370
C601	C60	0.897760	0.549420	0.537960
H391	H39	0.906200	0.548300	0.494200
C611	C61	0.884050	0.578620	0.554820
H401	H40	0.883700	0.597900	0.522700
C621	C62	0.919190	0.493960	0.568430
C631	C63	0.957610	0.512530	0.534460
H411	H41	0.970600	0.542500	0.522500
H421	H42	0.822600	0.388600	0.549900
O151	O15	0.524280	0.970710	0.924460
O161	O16	0.511380	0.944770	0.027670
C641	C64	0.523260	0.945580	0.969260
C651	C65	0.537630	0.913320	0.950540
C661	C66	0.538040	0.885040	0.998580
H431	H43	0.528870	0.885830	0.042030
C671	C67	0.552040	0.855740	0.981510
H441	H44	0.552070	0.836230	0.013530
C681	C68	0.565930	0.854760	0.918700
C691	C69	0.564430	0.882750	0.871290
H451	H45	0.572870	0.881630	0.827530
C701	C70	0.550720	0.911950	0.888150
H461	H46	0.550370	0.931230	0.856030
C711	C71	0.585860	0.827290	0.901760
C721	C72	0.624280	0.845860	0.867790
H471	H47	0.637270	0.875830	0.855830
H481	H48	0.489270	0.721930	0.883230
O171	O17	0.190940	0.304050	0.257800
O181	O18	0.178040	0.278110	0.361010
C731	C73	0.189920	0.278920	0.302600
C741	C74	0.204290	0.246660	0.283880
C751	C75	0.204700	0.218380	0.331920
H491	H49	0.195530	0.219170	0.375370
C761	C76	0.218700	0.189080	0.314850
H501	H50	0.218730	0.169570	0.346870
C771	C77	0.232590	0.188100	0.252040
C781	C78	0.231090	0.216090	0.204630
H511	H51	0.239530	0.214970	0.160870
C791	C79	0.217380	0.245290	0.221490
H521	H52	0.217030	0.264570	0.189370
C801	C80	0.252520	0.160630	0.235100
C811	C81	0.290940	0.179200	0.201130
H531	H53	0.303930	0.209170	0.189170
H541	H54	0.155930	0.055270	0.216570
O191	O19	0.220230	0.362620	0.408870
O201	O20	0.233270	0.388560	0.305660
C821	C82	0.244340	0.387750	0.364070
C831	C83	0.290970	0.420010	0.382790
C841	C84	0.319660	0.448290	0.334750
H551	H55	0.309700	0.447500	0.291300
C851	C85	0.362960	0.477590	0.351820
H561	H56	0.382500	0.497100	0.319800
C861	C86	0.377830	0.478570	0.414630
C871	C87	0.348340	0.450580	0.462040
H571	H57	0.357900	0.451700	0.505800
C881	C88	0.305430	0.421380	0.445180
H581	H58	0.285800	0.402100	0.477300
C891	C89	0.425230	0.506040	0.431570
C901	C90	0.445080	0.487470	0.465540
H591	H59	0.428100	0.457500	0.477500
H601	H60	0.434000	0.611400	0.450100
O211	O21	0.886900	0.695950	0.742200
O221	O22	0.899940	0.721890	0.638990
C911	C91	0.911010	0.721080	0.697400
C921	C92	0.957640	0.753340	0.716120
C931	C93	0.986330	0.781620	0.668080
H611	H61	0.976370	0.780830	0.624630
C941	C94	0.029630	0.810920	0.685150
H621	H62	0.049170	0.830430	0.653130
C951	C95	0.044500	0.811900	0.747960
C961	C96	0.015010	0.783910	0.795370
H631	H63	0.024570	0.785030	0.839130
C971	C97	0.972100	0.754710	0.778510
H641	H64	0.952470	0.735430	0.810630
C981	C98	0.091900	0.839370	0.764900
C991	C99	0.111750	0.820800	0.798870
H651	H65	0.094770	0.790830	0.810830
H661	H66	0.100670	0.944730	0.783430
O231	O23	0.553560	0.029290	0.075540
O241	O24	0.566600	0.055230	0.972330
C1001	C100	0.577670	0.054420	0.030740
C1011	C101	0.624300	0.086680	0.049460
C1021	C102	0.652990	0.114960	0.001420
H671	H67	0.643030	0.114170	0.957970
C1031	C103	0.696290	0.144260	0.018490
H681	H68	0.715830	0.163770	0.986470
C1041	C104	0.711160	0.145240	0.081300
C1051	C105	0.681670	0.117250	0.128710
H691	H69	0.691230	0.118370	0.172470
C1061	C106	0.638760	0.088050	0.111850
H701	H70	0.619130	0.068770	0.143970
C1071	C107	0.758560	0.172710	0.098240
C1081	C108	0.778410	0.154140	0.132210
H711	H71	0.761430	0.124170	0.144170
H721	H72	0.767330	0.278070	0.116770
O251	O25	0.142390	0.779770	0.408870
O261	O26	0.155290	0.766730	0.305660
C1091	C109	0.143410	0.755660	0.364070
C1101	C110	0.129040	0.709030	0.382790
C1111	C111	0.128630	0.680340	0.334750
H731	H73	0.137800	0.690300	0.291300
C1121	C112	0.114630	0.637040	0.351820
H741	H74	0.114600	0.617500	0.319800
C1131	C113	0.100740	0.622170	0.414630
C1141	C114	0.102240	0.651660	0.462040
H751	H75	0.093800	0.642100	0.505800
C1151	C115	0.115950	0.694570	0.445180
H761	H76	0.116300	0.714200	0.477300
C1161	C116	0.080810	0.574770	0.431570
C1171	C117	0.042390	0.554920	0.465540
H771	H77	0.029400	0.571900	0.477500
H781	H78	0.177400	0.566000	0.450100
O271	O27	0.809060	0.113100	0.742200
O281	O28	0.821960	0.100060	0.638990
C1181	C118	0.810080	0.088990	0.697400
C1191	C119	0.795710	0.042360	0.716120
C1201	C120	0.795300	0.013670	0.668080
H791	H79	0.804470	0.023630	0.624630
C1211	C121	0.781300	0.970370	0.685150
H801	H80	0.781270	0.950830	0.653130
C1221	C122	0.767410	0.955500	0.747960
C1231	C123	0.768910	0.984990	0.795370
H811	H81	0.760470	0.975430	0.839130
C1241	C124	0.782620	0.027900	0.778510
H821	H82	0.782970	0.047530	0.810630
C1251	C125	0.747480	0.908100	0.764900
C1261	C126	0.709060	0.888250	0.798870
H831	H83	0.696070	0.905230	0.810830
H841	H84	0.844070	0.899330	0.783430
O291	O29	0.475720	0.446440	0.075540
O301	O30	0.488620	0.433400	0.972330
C1271	C127	0.476740	0.422330	0.030740
C1281	C128	0.462370	0.375700	0.049460
C1291	C129	0.461960	0.347010	0.001420
H851	H85	0.471130	0.356970	0.957970
C1301	C130	0.447960	0.303710	0.018490
H861	H86	0.447930	0.284170	0.986470
C1311	C131	0.434070	0.288840	0.081300
C1321	C132	0.435570	0.318330	0.128710
H871	H87	0.427130	0.308770	0.172470
C1331	C133	0.449280	0.361240	0.111850
H881	H88	0.449630	0.380870	0.143970
C1341	C134	0.414140	0.241440	0.098240
C1351	C135	0.375720	0.221590	0.132210
H891	H89	0.362730	0.238570	0.144170
H901	H90	0.510730	0.232670	0.116770
O311	O31	0.637380	0.857610	0.408870
O321	O32	0.611440	0.844710	0.305660
C1361	C136	0.612250	0.856590	0.364070
C1371	C137	0.579990	0.870960	0.382790
C1381	C138	0.551710	0.871370	0.334750
H911	H91	0.552500	0.862200	0.291300
C1391	C139	0.522410	0.885370	0.351820
H921	H92	0.502900	0.885400	0.319800
C1401	C140	0.521430	0.899260	0.414630
C1411	C141	0.549420	0.897760	0.462040
H931	H93	0.548300	0.906200	0.505800
C1421	C142	0.578620	0.884050	0.445180
H941	H94	0.597900	0.883700	0.477300
C1431	C143	0.493960	0.919190	0.431570
C1441	C144	0.512530	0.957610	0.465540
H951	H95	0.542500	0.970600	0.477500
H961	H96	0.388600	0.822600	0.450100
O331	O33	0.304050	0.190940	0.742200
O341	O34	0.278110	0.178040	0.638990
C1451	C145	0.278920	0.189920	0.697400
C1461	C146	0.246660	0.204290	0.716120
C1471	C147	0.218380	0.204700	0.668080
H971	H97	0.219170	0.195530	0.624630
C1481	C148	0.189080	0.218700	0.685150
H981	H98	0.169570	0.218730	0.653130
C1491	C149	0.188100	0.232590	0.747960
C1501	C150	0.216090	0.231090	0.795370
H991	H99	0.214970	0.239530	0.839130
C1511	C151	0.245290	0.217380	0.778510
H1001	H100	0.264570	0.217030	0.810630
C1521	C152	0.160630	0.252520	0.764900
C1531	C153	0.179200	0.290940	0.798870
H1011	H101	0.209170	0.303930	0.810830
H1021	H102	0.055270	0.155930	0.783430
O351	O35	0.970710	0.524280	0.075540
O361	O36	0.944770	0.511380	0.972330
C1541	C154	0.945580	0.523260	0.030740
C1551	C155	0.913320	0.537630	0.049460
C1561	C156	0.885040	0.538040	0.001420
H1031	H103	0.885830	0.528870	0.957970
C1571	C157	0.855740	0.552040	0.018490
H1041	H104	0.836230	0.552070	0.986470
C1581	C158	0.854760	0.565930	0.081300
C1591	C159	0.882750	0.564430	0.128710
H1051	H105	0.881630	0.572870	0.172470
C1601	C160	0.911950	0.550720	0.111850
H1061	H106	0.931230	0.550370	0.143970
C1611	C161	0.827290	0.585860	0.098240
C1621	C162	0.845860	0.624280	0.132210
H1071	H107	0.875830	0.637270	0.144170
H1081	H108	0.721930	0.489270	0.116770
O371	O37	0.637380	0.779770	0.408870
O381	O38	0.611440	0.766730	0.305660
C1631	C163	0.612250	0.755660	0.364070
C1641	C164	0.579990	0.709030	0.382790
C1651	C165	0.551710	0.680340	0.334750
H1091	H109	0.552500	0.690300	0.291300
C1661	C166	0.522410	0.637040	0.351820
H1101	H110	0.502900	0.617500	0.319800
C1671	C167	0.521430	0.622170	0.414630
C1681	C168	0.549420	0.651660	0.462040
H1111	H111	0.548300	0.642100	0.505800
C1691	C169	0.578620	0.694570	0.445180
H1121	H112	0.597900	0.714200	0.477300
C1701	C170	0.493960	0.574770	0.431570
C1711	C171	0.512530	0.554920	0.465540
H1131	H113	0.542500	0.571900	0.477500
H1141	H114	0.388600	0.566000	0.450100
O391	O39	0.304050	0.113100	0.742200
O401	O40	0.278110	0.100060	0.638990
C1721	C172	0.278920	0.088990	0.697400
C1731	C173	0.246660	0.042360	0.716120
C1741	C174	0.218380	0.013670	0.668080
H1151	H115	0.219170	0.023630	0.624630
C1751	C175	0.189080	0.970370	0.685150
H1161	H116	0.169570	0.950830	0.653130
C1761	C176	0.188100	0.955500	0.747960
C1771	C177	0.216090	0.984990	0.795370
H1171	H117	0.214970	0.975430	0.839130
C1781	C178	0.245290	0.027900	0.778510
H1181	H118	0.264570	0.047530	0.810630
C1791	C179	0.160630	0.908100	0.764900
C1801	C180	0.179200	0.888250	0.798870
H1191	H119	0.209170	0.905230	0.810830
H1201	H120	0.055270	0.899330	0.783430
O411	O41	0.970710	0.446440	0.075540
O421	O42	0.944770	0.433400	0.972330
C1811	C181	0.945580	0.422330	0.030740
C1821	C182	0.913320	0.375700	0.049460
C1831	C183	0.885040	0.347010	0.001420
H1211	H121	0.885830	0.356970	0.957970
C1841	C184	0.855740	0.303710	0.018490
H1221	H122	0.836230	0.284170	0.986470
C1851	C185	0.854760	0.288840	0.081300
C1861	C186	0.882750	0.318330	0.128710
H1231	H123	0.881630	0.308770	0.172470
C1871	C187	0.911950	0.361240	0.111850
H1241	H124	0.931230	0.380870	0.143970
C1881	C188	0.827290	0.241440	0.098240
C1891	C189	0.845860	0.221590	0.132210
H1251	H125	0.875830	0.238570	0.144170
H1261	H126	0.721930	0.232670	0.116770
O431	O43	0.220230	0.857610	0.408870
O441	O44	0.233270	0.844710	0.305660
C1901	C190	0.244340	0.856590	0.364070
C1911	C191	0.290970	0.870960	0.382790
C1921	C192	0.319660	0.871370	0.334750
H1271	H127	0.309700	0.862200	0.291300
C1931	C193	0.362960	0.885370	0.351820
H1281	H128	0.382500	0.885400	0.319800
C1941	C194	0.377830	0.899260	0.414630
C1951	C195	0.348340	0.897760	0.462040
H1291	H129	0.357900	0.906200	0.505800
C1961	C196	0.305430	0.884050	0.445180
H1301	H130	0.285800	0.883700	0.477300
C1971	C197	0.425230	0.919190	0.431570
C1981	C198	0.445080	0.957610	0.465540
H1311	H131	0.428100	0.970600	0.477500
H1321	H132	0.434000	0.822600	0.450100
O451	O45	0.886900	0.190940	0.742200
O461	O46	0.899940	0.178040	0.638990
C1991	C199	0.911010	0.189920	0.697400
C2001	C200	0.957640	0.204290	0.716120
C2011	C201	0.986330	0.204700	0.668080
H1331	H133	0.976370	0.195530	0.624630
C2021	C202	0.029630	0.218700	0.685150
H1341	H134	0.049170	0.218730	0.653130
C2031	C203	0.044500	0.232590	0.747960
C2041	C204	0.015010	0.231090	0.795370
H1351	H135	0.024570	0.239530	0.839130
C2051	C205	0.972100	0.217380	0.778510
H1361	H136	0.952470	0.217030	0.810630
C2061	C206	0.091900	0.252520	0.764900
C2071	C207	0.111750	0.290940	0.798870
H1371	H137	0.094770	0.303930	0.810830
H1381	H138	0.100670	0.155930	0.783430
O471	O47	0.553560	0.524280	0.075540
O481	O48	0.566600	0.511380	0.972330
C2081	C208	0.577670	0.523260	0.030740
C2091	C209	0.624300	0.537630	0.049460
C2101	C210	0.652990	0.538040	0.001420
H1391	H139	0.643030	0.528870	0.957970
C2111	C211	0.696290	0.552040	0.018490
H1401	H140	0.715830	0.552070	0.986470
C2121	C212	0.711160	0.565930	0.081300
C2131	C213	0.681670	0.564430	0.128710
H1411	H141	0.691230	0.572870	0.172470
C2141	C214	0.638760	0.550720	0.111850
H1421	H142	0.619130	0.550370	0.143970
C2151	C215	0.758560	0.585860	0.098240
C2161	C216	0.778410	0.624280	0.132210
H1431	H143	0.761430	0.637270	0.144170
H1441	H144	0.767330	0.489270	0.116770
O491	O49	0.142390	0.362620	0.408870
O501	O50	0.155290	0.388560	0.305660
C2171	C217	0.143410	0.387750	0.364070
C2181	C218	0.129040	0.420010	0.382790
C2191	C219	0.128630	0.448290	0.334750
H1451	H145	0.137800	0.447500	0.291300
C2201	C220	0.114630	0.477590	0.351820
H1461	H146	0.114600	0.497100	0.319800
C2211	C221	0.100740	0.478570	0.414630
C2221	C222	0.102240	0.450580	0.462040
H1471	H147	0.093800	0.451700	0.505800
C2231	C223	0.115950	0.421380	0.445180
H1481	H148	0.116300	0.402100	0.477300
C2241	C224	0.080810	0.506040	0.431570
C2251	C225	0.042390	0.487470	0.465540
H1491	H149	0.029400	0.457500	0.477500
H1501	H150	0.177400	0.611400	0.450100
O511	O51	0.809060	0.695950	0.742200
O521	O52	0.821960	0.721890	0.638990
C2261	C226	0.810080	0.721080	0.697400
C2271	C227	0.795710	0.753340	0.716120
C2281	C228	0.795300	0.781620	0.668080
H1511	H151	0.804470	0.780830	0.624630
C2291	C229	0.781300	0.810920	0.685150
H1521	H152	0.781270	0.830430	0.653130
C2301	C230	0.767410	0.811900	0.747960
C2311	C231	0.768910	0.783910	0.795370
H1531	H153	0.760470	0.785030	0.839130
C2321	C232	0.782620	0.754710	0.778510
H1541	H154	0.782970	0.735430	0.810630
C2331	C233	0.747480	0.839370	0.764900
C2341	C234	0.709060	0.820800	0.798870
H1551	H155	0.696070	0.790830	0.810830
H1561	H156	0.844070	0.944730	0.783430
O531	O53	0.475720	0.029290	0.075540
O541	O54	0.488620	0.055230	0.972330
C2351	C235	0.476740	0.054420	0.030740
C2361	C236	0.462370	0.086680	0.049460
C2371	C237	0.461960	0.114960	0.001420
H1571	H157	0.471130	0.114170	0.957970
C2381	C238	0.447960	0.144260	0.018490
H1581	H158	0.447930	0.163770	0.986470
C2391	C239	0.434070	0.145240	0.081300
C2401	C240	0.435570	0.117250	0.128710
H1591	H159	0.427130	0.118370	0.172470
C2411	C241	0.449280	0.088050	0.111850
H1601	H160	0.449630	0.068770	0.143970
C2421	C242	0.414140	0.172710	0.098240
C2431	C243	0.375720	0.154140	0.132210
H1611	H161	0.362730	0.124170	0.144170
H1621	H162	0.510730	0.278070	0.116770
O551	O55	0.779770	0.637380	0.591130
O561	O56	0.766730	0.611440	0.694340
C2441	C244	0.755660	0.612250	0.635930
C2451	C245	0.709030	0.579990	0.617210
C2461	C246	0.680340	0.551710	0.665250
H1631	H163	0.690300	0.552500	0.708700
C2471	C247	0.637040	0.522410	0.648180
H1641	H164	0.617500	0.502900	0.680200
C2481	C248	0.622170	0.521430	0.585370
C2491	C249	0.651660	0.549420	0.537960
H1651	H165	0.642100	0.548300	0.494200
C2501	C250	0.694570	0.578620	0.554820
H1661	H166	0.714200	0.597900	0.522700
C2511	C251	0.574770	0.493960	0.568430
C2521	C252	0.554920	0.512530	0.534460
H1671	H167	0.571900	0.542500	0.522500
H1681	H168	0.566000	0.388600	0.549900
O571	O57	0.446440	0.970710	0.924460
O581	O58	0.433400	0.944770	0.027670
C2531	C253	0.422330	0.945580	0.969260
C2541	C254	0.375700	0.913320	0.950540
C2551	C255	0.347010	0.885040	0.998580
H1691	H169	0.356970	0.885830	0.042030
C2561	C256	0.303710	0.855740	0.981510
H1701	H170	0.284170	0.836230	0.013530
C2571	C257	0.288840	0.854760	0.918700
C2581	C258	0.318330	0.882750	0.871290
H1711	H171	0.308770	0.881630	0.827530
C2591	C259	0.361240	0.911950	0.888150
H1721	H172	0.380870	0.931230	0.856030
C2601	C260	0.241440	0.827290	0.901760
C2611	C261	0.221590	0.845860	0.867790
H1731	H173	0.238570	0.875830	0.855830
H1741	H174	0.232670	0.721930	0.883230
O591	O59	0.113100	0.304050	0.257800
O601	O60	0.100060	0.278110	0.361010
C2621	C262	0.088990	0.278920	0.302600
C2631	C263	0.042360	0.246660	0.283880
C2641	C264	0.013670	0.218380	0.331920
H1751	H175	0.023630	0.219170	0.375370
C2651	C265	0.970370	0.189080	0.314850
H1761	H176	0.950830	0.169570	0.346870
C2661	C266	0.955500	0.188100	0.252040
C2671	C267	0.984990	0.216090	0.204630
H1771	H177	0.975430	0.214970	0.160870
C2681	C268	0.027900	0.245290	0.221490
H1781	H178	0.047530	0.264570	0.189370
C2691	C269	0.908100	0.160630	0.235100
C2701	C270	0.888250	0.179200	0.201130
H1791	H179	0.905230	0.209170	0.189170
H1801	H180	0.899330	0.055270	0.216570
O611	O61	0.857610	0.220230	0.591130
O621	O62	0.844710	0.233270	0.694340
C2711	C271	0.856590	0.244340	0.635930
C2721	C272	0.870960	0.290970	0.617210
C2731	C273	0.871370	0.319660	0.665250
H1811	H181	0.862200	0.309700	0.708700
C2741	C274	0.885370	0.362960	0.648180
H1821	H182	0.885400	0.382500	0.680200
C2751	C275	0.899260	0.377830	0.585370
C2761	C276	0.897760	0.348340	0.537960
H1831	H183	0.906200	0.357900	0.494200
C2771	C277	0.884050	0.305430	0.554820
H1841	H184	0.883700	0.285800	0.522700
C2781	C278	0.919190	0.425230	0.568430
C2791	C279	0.957610	0.445080	0.534460
H1851	H185	0.970600	0.428100	0.522500
H1861	H186	0.822600	0.434000	0.549900
O631	O63	0.524280	0.553560	0.924460
O641	O64	0.511380	0.566600	0.027670
C2801	C280	0.523260	0.577670	0.969260
C2811	C281	0.537630	0.624300	0.950540
C2821	C282	0.538040	0.652990	0.998580
H1871	H187	0.528870	0.643030	0.042030
C2831	C283	0.552040	0.696290	0.981510
H1881	H188	0.552070	0.715830	0.013530
C2841	C284	0.565930	0.711160	0.918700
C2851	C285	0.564430	0.681670	0.871290
H1891	H189	0.572870	0.691230	0.827530
C2861	C286	0.550720	0.638760	0.888150
H1901	H190	0.550370	0.619130	0.856030
C2871	C287	0.585860	0.758560	0.901760
C2881	C288	0.624280	0.778410	0.867790
H1911	H191	0.637270	0.761430	0.855830
H1921	H192	0.489270	0.767330	0.883230
O651	O65	0.190940	0.886900	0.257800
O661	O66	0.178040	0.899940	0.361010
C2891	C289	0.189920	0.911010	0.302600
C2901	C290	0.204290	0.957640	0.283880
C2911	C291	0.204700	0.986330	0.331920
H1931	H193	0.195530	0.976370	0.375370
C2921	C292	0.218700	0.029630	0.314850
H1941	H194	0.218730	0.049170	0.346870
C2931	C293	0.232590	0.044500	0.252040
C2941	C294	0.231090	0.015010	0.204630
H1951	H195	0.239530	0.024570	0.160870
C2951	C295	0.217380	0.972100	0.221490
H1961	H196	0.217030	0.952470	0.189370
C2961	C296	0.252520	0.091900	0.235100
C2971	C297	0.290940	0.111750	0.201130
H1971	H197	0.303930	0.094770	0.189170
H1981	H198	0.155930	0.100670	0.216570
O671	O67	0.362620	0.142390	0.591130
O681	O68	0.388560	0.155290	0.694340
C2981	C298	0.387750	0.143410	0.635930
C2991	C299	0.420010	0.129040	0.617210
C3001	C300	0.448290	0.128630	0.665250
H1991	H199	0.447500	0.137800	0.708700
C3011	C301	0.477590	0.114630	0.648180
H2001	H200	0.497100	0.114600	0.680200
C3021	C302	0.478570	0.100740	0.585370
C3031	C303	0.450580	0.102240	0.537960
H2011	H201	0.451700	0.093800	0.494200
C3041	C304	0.421380	0.115950	0.554820
H2021	H202	0.402100	0.116300	0.522700
C3051	C305	0.506040	0.080810	0.568430
C3061	C306	0.487470	0.042390	0.534460
H2031	H203	0.457500	0.029400	0.522500
H2041	H204	0.611400	0.177400	0.549900
O691	O69	0.029290	0.475720	0.924460
O701	O70	0.055230	0.488620	0.027670
C3071	C307	0.054420	0.476740	0.969260
C3081	C308	0.086680	0.462370	0.950540
C3091	C309	0.114960	0.461960	0.998580
H2051	H205	0.114170	0.471130	0.042030
C3101	C310	0.144260	0.447960	0.981510
H2061	H206	0.163770	0.447930	0.013530
C3111	C311	0.145240	0.434070	0.918700
C3121	C312	0.117250	0.435570	0.871290
H2071	H207	0.118370	0.427130	0.827530
C3131	C313	0.088050	0.449280	0.888150
H2081	H208	0.068770	0.449630	0.856030
C3141	C314	0.172710	0.414140	0.901760
C3151	C315	0.154140	0.375720	0.867790
H2091	H209	0.124170	0.362730	0.855830
H2101	H210	0.278070	0.510730	0.883230
O711	O71	0.695950	0.809060	0.257800
O721	O72	0.721890	0.821960	0.361010
C3161	C316	0.721080	0.810080	0.302600
C3171	C317	0.753340	0.795710	0.283880
C3181	C318	0.781620	0.795300	0.331920
H2111	H211	0.780830	0.804470	0.375370
C3191	C319	0.810920	0.781300	0.314850
H2121	H212	0.830430	0.781270	0.346870
C3201	C320	0.811900	0.767410	0.252040
C3211	C321	0.783910	0.768910	0.204630
H2131	H213	0.785030	0.760470	0.160870
C3221	C322	0.754710	0.782620	0.221490
H2141	H214	0.735430	0.782970	0.189370
C3231	C323	0.839370	0.747480	0.235100
C3241	C324	0.820800	0.709060	0.201130
H2151	H215	0.790830	0.696070	0.189170
H2161	H216	0.944730	0.844070	0.216570
Cu11	Cu1	0.318110	0.159050	0.606220
Cu21	Cu2	0.984780	0.492390	0.939550
Cu31	Cu3	0.651440	0.825720	0.272890
Cu41	Cu4	0.840950	0.159060	0.606220
Cu51	Cu5	0.507610	0.492390	0.939550
Cu61	Cu6	0.174280	0.825720	0.272890
Cu71	Cu7	0.840950	0.681890	0.606220
Cu81	Cu8	0.507610	0.015220	0.939550
Cu91	Cu9	0.174280	0.348560	0.272890
Cu101	Cu10	0.159050	0.318110	0.393780
Cu111	Cu11	0.825720	0.651440	0.727110
Cu121	Cu12	0.492390	0.984780	0.060450
Cu131	Cu13	0.159050	0.840950	0.393780
Cu141	Cu14	0.825720	0.174280	0.727110
Cu151	Cu15	0.492390	0.507610	0.060450
Cu161	Cu16	0.681890	0.840950	0.393780
Cu171	Cu17	0.348560	0.174280	0.727110
Cu181	Cu18	0.015220	0.507610	0.060450
O731	O73	0.569880	0.430120	0.619950
C3251	C325	0.510490	0.489510	0.516200
C3261	C326	0.550450	0.449550	0.586010
C3271	C327	0.588930	0.411070	0.577500
H2171	H217	0.602200	0.397800	0.604300
O741	O74	0.236550	0.763450	0.953280
C3281	C328	0.177160	0.822840	0.849530
C3291	C329	0.217120	0.782880	0.919340
C3301	C330	0.255600	0.744400	0.910830
H2181	H218	0.268870	0.731130	0.937630
O751	O75	0.903210	0.096790	0.286620
C3311	C331	0.843820	0.156180	0.182870
C3321	C332	0.883780	0.116220	0.252680
C3331	C333	0.922260	0.077740	0.244170
H2191	H219	0.935530	0.064470	0.270970
O761	O76	0.569880	0.139760	0.619950
C3341	C334	0.510490	0.020980	0.516200
C3351	C335	0.550450	0.100900	0.586010
C3361	C336	0.588930	0.177860	0.577500
H2201	H220	0.602200	0.204400	0.604300
O771	O77	0.236550	0.473090	0.953280
C3371	C337	0.177160	0.354310	0.849530
C3381	C338	0.217120	0.434230	0.919340
C3391	C339	0.255600	0.511190	0.910830
H2211	H221	0.268870	0.537730	0.937630
O781	O78	0.903210	0.806430	0.286620
C3401	C340	0.843820	0.687650	0.182870
C3411	C341	0.883780	0.767570	0.252680
C3421	C342	0.922260	0.844530	0.244170
H2221	H222	0.935530	0.871070	0.270970
O791	O79	0.860240	0.430120	0.619950
C3431	C343	0.979020	0.489510	0.516200
C3441	C344	0.899100	0.449550	0.586010
C3451	C345	0.822140	0.411070	0.577500
H2231	H223	0.795600	0.397800	0.604300
O801	O80	0.526910	0.763450	0.953280
C3461	C346	0.645690	0.822840	0.849530
C3471	C347	0.565770	0.782880	0.919340
C3481	C348	0.488810	0.744400	0.910830
H2241	H224	0.462270	0.731130	0.937630
O811	O81	0.193570	0.096790	0.286620
C3491	C349	0.312350	0.156180	0.182870
C3501	C350	0.232430	0.116220	0.252680
C3511	C351	0.155470	0.077740	0.244170
H2251	H225	0.128930	0.064470	0.270970
O821	O82	0.430120	0.569880	0.380050
C3521	C352	0.489510	0.510490	0.483800
C3531	C353	0.449550	0.550450	0.413990
C3541	C354	0.411070	0.588930	0.422500
H2261	H226	0.397800	0.602200	0.395700
O831	O83	0.096790	0.903210	0.713380
C3551	C355	0.156180	0.843820	0.817130
C3561	C356	0.116220	0.883780	0.747320
C3571	C357	0.077740	0.922260	0.755830
H2271	H227	0.064470	0.935530	0.729030
O841	O84	0.763450	0.236550	0.046720
C3581	C358	0.822840	0.177160	0.150470
C3591	C359	0.782880	0.217120	0.080660
C3601	C360	0.744400	0.255600	0.089170
H2281	H228	0.731130	0.268870	0.062370
O851	O85	0.139760	0.569880	0.380050
C3611	C361	0.020980	0.510490	0.483800
C3621	C362	0.100900	0.550450	0.413990
C3631	C363	0.177860	0.588930	0.422500
H2291	H229	0.204400	0.602200	0.395700
O861	O86	0.806430	0.903210	0.713380
C3641	C364	0.687650	0.843820	0.817130
C3651	C365	0.767570	0.883780	0.747320
C3661	C366	0.844530	0.922260	0.755830
H2301	H230	0.871070	0.935530	0.729030
O871	O87	0.473090	0.236550	0.046720
C3671	C367	0.354310	0.177160	0.150470
C3681	C368	0.434230	0.217120	0.080660
C3691	C369	0.511190	0.255600	0.089170
H2311	H231	0.537730	0.268870	0.062370
O881	O88	0.430120	0.860240	0.380050
C3701	C370	0.489510	0.979020	0.483800
C3711	C371	0.449550	0.899100	0.413990
C3721	C372	0.411070	0.822140	0.422500
H2321	H232	0.397800	0.795600	0.395700
O891	O89	0.096790	0.193570	0.713380
C3731	C373	0.156180	0.312350	0.817130
C3741	C374	0.116220	0.232430	0.747320
C3751	C375	0.077740	0.155470	0.755830
H2331	H233	0.064470	0.128930	0.729030
O901	O90	0.763450	0.526910	0.046720
C3761	C376	0.822840	0.645690	0.150470
C3771	C377	0.782880	0.565770	0.080660
C3781	C378	0.744400	0.488810	0.089170
H2341	H234	0.731130	0.462270	0.062370
