data_UMOVEZ03_clean_PM
_symmetry_space_group_name_H-M	'P1'
_cell_length_a	35.238800
_cell_length_b	35.238800
_cell_length_c	21.150300
_cell_angle_alpha	90.000000
_cell_angle_beta	90.000000
_cell_angle_gamma	120.000000
_symmetry_Int_Tables_number 1

loop_
_symmetry_equiv_pos_as_xyz
'x,y,z'

loop_
_atom_site_label
_atom_site_type_symbol
_atom_site_fract_x
_atom_site_fract_y
_atom_site_fract_z
O11	O1	0.304030	0.190890	0.239820
O21	O2	0.278080	0.178360	0.139370
C11	C1	0.278910	0.189840	0.195590
C21	C2	0.247120	0.205100	0.214480
C31	C3	0.218930	0.206210	0.168100
H11	H1	0.219600	0.197200	0.126000
C41	C4	0.189980	0.220830	0.185000
H21	H2	0.170900	0.221600	0.153900
C51	C5	0.188710	0.234070	0.245500
C61	C6	0.216690	0.231870	0.291800
H31	H3	0.215800	0.240100	0.334300
C71	C7	0.245570	0.217480	0.274480
H41	H4	0.264500	0.216300	0.305400
C81	C8	0.161080	0.253650	0.263000
C91	C9	0.179620	0.291930	0.297300
H51	H5	0.209600	0.304900	0.308800
H61	H6	0.055900	0.157200	0.276200
O31	O3	0.970700	0.524220	0.573150
O41	O4	0.944750	0.511690	0.472700
C101	C10	0.945580	0.523170	0.528920
C111	C11	0.913790	0.538430	0.547810
C121	C12	0.885600	0.539540	0.501430
H71	H7	0.886270	0.530530	0.459330
C131	C13	0.856650	0.554160	0.518330
H81	H8	0.837570	0.554930	0.487230
C141	C14	0.855380	0.567400	0.578830
C151	C15	0.883360	0.565200	0.625130
H91	H9	0.882470	0.573430	0.667630
C161	C16	0.912240	0.550810	0.607810
H101	H10	0.931170	0.549630	0.638730
C171	C17	0.827750	0.586980	0.596330
C181	C18	0.846290	0.625260	0.630630
H111	H11	0.876270	0.638230	0.642130
H121	H12	0.722570	0.490530	0.609530
O51	O5	0.637360	0.857560	0.906490
O61	O6	0.611410	0.845030	0.806040
C191	C19	0.612240	0.856510	0.862260
C201	C20	0.580450	0.871770	0.881150
C211	C21	0.552260	0.872880	0.834770
H131	H13	0.552930	0.863870	0.792670
C221	C22	0.523310	0.887500	0.851670
H141	H14	0.504230	0.888270	0.820570
C231	C23	0.522040	0.900740	0.912170
C241	C24	0.550020	0.898540	0.958470
H151	H15	0.549130	0.906770	0.000970
C251	C25	0.578900	0.884150	0.941150
H161	H16	0.597830	0.882970	0.972070
C261	C26	0.494410	0.920320	0.929670
C271	C27	0.512950	0.958600	0.963970
H171	H17	0.542930	0.971570	0.975470
H181	H18	0.389230	0.823870	0.942870
O71	O7	0.809110	0.113140	0.239820
O81	O8	0.821640	0.099720	0.139370
C281	C28	0.810160	0.089070	0.195590
C291	C29	0.794900	0.042020	0.214480
C301	C30	0.793790	0.012720	0.168100
H191	H19	0.802800	0.022400	0.126000
C311	C31	0.779170	0.969150	0.185000
H201	H20	0.778400	0.949300	0.153900
C321	C32	0.765930	0.954640	0.245500
C331	C33	0.768130	0.984820	0.291800
H211	H21	0.759900	0.975700	0.334300
C341	C34	0.782520	0.028090	0.274480
H221	H22	0.783700	0.048200	0.305400
C351	C35	0.746350	0.907430	0.263000
C361	C36	0.708070	0.887690	0.297300
H231	H23	0.695100	0.904700	0.308800
H241	H24	0.842800	0.898700	0.276200
O91	O9	0.475780	0.446470	0.573150
O101	O10	0.488310	0.433050	0.472700
C371	C37	0.476830	0.422400	0.528920
C381	C38	0.461570	0.375350	0.547810
C391	C39	0.460460	0.346050	0.501430
H251	H25	0.469470	0.355730	0.459330
C401	C40	0.445840	0.302480	0.518330
H261	H26	0.445070	0.282630	0.487230
C411	C41	0.432600	0.287970	0.578830
C421	C42	0.434800	0.318150	0.625130
H271	H27	0.426570	0.309030	0.667630
C431	C43	0.449190	0.361420	0.607810
H281	H28	0.450370	0.381530	0.638730
C441	C44	0.413020	0.240760	0.596330
C451	C45	0.374740	0.221020	0.630630
H291	H29	0.361770	0.238030	0.642130
H301	H30	0.509470	0.232030	0.609530
O111	O11	0.142440	0.779810	0.906490
O121	O12	0.154970	0.766390	0.806040
C461	C46	0.143490	0.755740	0.862260
C471	C47	0.128230	0.708690	0.881150
C481	C48	0.127120	0.679390	0.834770
H311	H31	0.136130	0.689070	0.792670
C491	C49	0.112500	0.635820	0.851670
H321	H32	0.111730	0.615970	0.820570
C501	C50	0.099260	0.621310	0.912170
C511	C51	0.101460	0.651490	0.958470
H331	H33	0.093230	0.642370	0.000970
C521	C52	0.115850	0.694760	0.941150
H341	H34	0.117030	0.714870	0.972070
C531	C53	0.079680	0.574100	0.929670
C541	C54	0.041400	0.554360	0.963970
H351	H35	0.028430	0.571370	0.975470
H361	H36	0.176130	0.565370	0.942870
O131	O13	0.886860	0.695970	0.239820
O141	O14	0.900280	0.721920	0.139370
C551	C55	0.910930	0.721090	0.195590
C561	C56	0.957980	0.752880	0.214480
C571	C57	0.987280	0.781070	0.168100
H371	H37	0.977600	0.780400	0.126000
C581	C58	0.030850	0.810020	0.185000
H381	H38	0.050700	0.829100	0.153900
C591	C59	0.045360	0.811290	0.245500
C601	C60	0.015180	0.783310	0.291800
H391	H39	0.024300	0.784200	0.334300
C611	C61	0.971910	0.754430	0.274480
H401	H40	0.951800	0.735500	0.305400
C621	C62	0.092570	0.838920	0.263000
C631	C63	0.112310	0.820380	0.297300
H411	H41	0.095300	0.790400	0.308800
H421	H42	0.101300	0.944100	0.276200
O151	O15	0.553530	0.029300	0.573150
O161	O16	0.566950	0.055250	0.472700
C641	C64	0.577600	0.054420	0.528920
C651	C65	0.624650	0.086210	0.547810
C661	C66	0.653950	0.114400	0.501430
H431	H43	0.644270	0.113730	0.459330
C671	C67	0.697520	0.143350	0.518330
H441	H44	0.717370	0.162430	0.487230
C681	C68	0.712030	0.144620	0.578830
C691	C69	0.681850	0.116640	0.625130
H451	H45	0.690970	0.117530	0.667630
C701	C70	0.638580	0.087760	0.607810
H461	H46	0.618470	0.068830	0.638730
C711	C71	0.759240	0.172250	0.596330
C721	C72	0.778980	0.153710	0.630630
H471	H47	0.761970	0.123730	0.642130
H481	H48	0.767970	0.277430	0.609530
O171	O17	0.220190	0.362640	0.906490
O181	O18	0.233610	0.388590	0.806040
C731	C73	0.244260	0.387760	0.862260
C741	C74	0.291310	0.419550	0.881150
C751	C75	0.320610	0.447740	0.834770
H491	H49	0.310930	0.447070	0.792670
C761	C76	0.364180	0.476690	0.851670
H501	H50	0.384030	0.495770	0.820570
C771	C77	0.378690	0.477960	0.912170
C781	C78	0.348510	0.449980	0.958470
H511	H51	0.357630	0.450870	0.000970
C791	C79	0.305240	0.421100	0.941150
H521	H52	0.285130	0.402170	0.972070
C801	C80	0.425900	0.505590	0.929670
C811	C81	0.445640	0.487050	0.963970
H531	H53	0.428630	0.457070	0.975470
H541	H54	0.434630	0.610770	0.942870
O191	O19	0.190890	0.304030	0.760180
O201	O20	0.178360	0.278080	0.860630
C821	C82	0.189840	0.278910	0.804410
C831	C83	0.205100	0.247120	0.785520
C841	C84	0.206210	0.218930	0.831900
H551	H55	0.197200	0.219600	0.874000
C851	C85	0.220830	0.189980	0.815000
H561	H56	0.221600	0.170900	0.846100
C861	C86	0.234070	0.188710	0.754500
C871	C87	0.231870	0.216690	0.708200
H571	H57	0.240100	0.215800	0.665700
C881	C88	0.217480	0.245570	0.725520
H581	H58	0.216300	0.264500	0.694600
C891	C89	0.253650	0.161080	0.737000
C901	C90	0.291930	0.179620	0.702700
H591	H59	0.304900	0.209600	0.691200
H601	H60	0.157200	0.055900	0.723800
O211	O21	0.857560	0.637360	0.093510
O221	O22	0.845030	0.611410	0.193960
C911	C91	0.856510	0.612240	0.137740
C921	C92	0.871770	0.580450	0.118850
C931	C93	0.872880	0.552260	0.165230
H611	H61	0.863870	0.552930	0.207330
C941	C94	0.887500	0.523310	0.148330
H621	H62	0.888270	0.504230	0.179430
C951	C95	0.900740	0.522040	0.087830
C961	C96	0.898540	0.550020	0.041530
H631	H63	0.906770	0.549130	0.999030
C971	C97	0.884150	0.578900	0.058850
H641	H64	0.882970	0.597830	0.027930
C981	C98	0.920320	0.494410	0.070330
C991	C99	0.958600	0.512950	0.036030
H651	H65	0.971570	0.542930	0.024530
H661	H66	0.823870	0.389230	0.057130
O231	O23	0.524220	0.970700	0.426850
O241	O24	0.511690	0.944750	0.527300
C1001	C100	0.523170	0.945580	0.471080
C1011	C101	0.538430	0.913790	0.452190
C1021	C102	0.539540	0.885600	0.498570
H671	H67	0.530530	0.886270	0.540670
C1031	C103	0.554160	0.856650	0.481670
H681	H68	0.554930	0.837570	0.512770
C1041	C104	0.567400	0.855380	0.421170
C1051	C105	0.565200	0.883360	0.374870
H691	H69	0.573430	0.882470	0.332370
C1061	C106	0.550810	0.912240	0.392190
H701	H70	0.549630	0.931170	0.361270
C1071	C107	0.586980	0.827750	0.403670
C1081	C108	0.625260	0.846290	0.369370
H711	H71	0.638230	0.876270	0.357870
H721	H72	0.490530	0.722570	0.390470
O251	O25	0.113140	0.809110	0.760180
O261	O26	0.099720	0.821640	0.860630
C1091	C109	0.089070	0.810160	0.804410
C1101	C110	0.042020	0.794900	0.785520
C1111	C111	0.012720	0.793790	0.831900
H731	H73	0.022400	0.802800	0.874000
C1121	C112	0.969150	0.779170	0.815000
H741	H74	0.949300	0.778400	0.846100
C1131	C113	0.954640	0.765930	0.754500
C1141	C114	0.984820	0.768130	0.708200
H751	H75	0.975700	0.759900	0.665700
C1151	C115	0.028090	0.782520	0.725520
H761	H76	0.048200	0.783700	0.694600
C1161	C116	0.907430	0.746350	0.737000
C1171	C117	0.887690	0.708070	0.702700
H771	H77	0.904700	0.695100	0.691200
H781	H78	0.898700	0.842800	0.723800
O271	O27	0.779810	0.142440	0.093510
O281	O28	0.766390	0.154970	0.193960
C1181	C118	0.755740	0.143490	0.137740
C1191	C119	0.708690	0.128230	0.118850
C1201	C120	0.679390	0.127120	0.165230
H791	H79	0.689070	0.136130	0.207330
C1211	C121	0.635820	0.112500	0.148330
H801	H80	0.615970	0.111730	0.179430
C1221	C122	0.621310	0.099260	0.087830
C1231	C123	0.651490	0.101460	0.041530
H811	H81	0.642370	0.093230	0.999030
C1241	C124	0.694760	0.115850	0.058850
H821	H82	0.714870	0.117030	0.027930
C1251	C125	0.574100	0.079680	0.070330
C1261	C126	0.554360	0.041400	0.036030
H831	H83	0.571370	0.028430	0.024530
H841	H84	0.565370	0.176130	0.057130
O291	O29	0.446470	0.475780	0.426850
O301	O30	0.433050	0.488310	0.527300
C1271	C127	0.422400	0.476830	0.471080
C1281	C128	0.375350	0.461570	0.452190
C1291	C129	0.346050	0.460460	0.498570
H851	H85	0.355730	0.469470	0.540670
C1301	C130	0.302480	0.445840	0.481670
H861	H86	0.282630	0.445070	0.512770
C1311	C131	0.287970	0.432600	0.421170
C1321	C132	0.318150	0.434800	0.374870
H871	H87	0.309030	0.426570	0.332370
C1331	C133	0.361420	0.449190	0.392190
H881	H88	0.381530	0.450370	0.361270
C1341	C134	0.240760	0.413020	0.403670
C1351	C135	0.221020	0.374740	0.369370
H891	H89	0.238030	0.361770	0.357870
H901	H90	0.232030	0.509470	0.390470
O311	O31	0.695970	0.886860	0.760180
O321	O32	0.721920	0.900280	0.860630
C1361	C136	0.721090	0.910930	0.804410
C1371	C137	0.752880	0.957980	0.785520
C1381	C138	0.781070	0.987280	0.831900
H911	H91	0.780400	0.977600	0.874000
C1391	C139	0.810020	0.030850	0.815000
H921	H92	0.829100	0.050700	0.846100
C1401	C140	0.811290	0.045360	0.754500
C1411	C141	0.783310	0.015180	0.708200
H931	H93	0.784200	0.024300	0.665700
C1421	C142	0.754430	0.971910	0.725520
H941	H94	0.735500	0.951800	0.694600
C1431	C143	0.838920	0.092570	0.737000
C1441	C144	0.820380	0.112310	0.702700
H951	H95	0.790400	0.095300	0.691200
H961	H96	0.944100	0.101300	0.723800
O331	O33	0.362640	0.220190	0.093510
O341	O34	0.388590	0.233610	0.193960
C1451	C145	0.387760	0.244260	0.137740
C1461	C146	0.419550	0.291310	0.118850
C1471	C147	0.447740	0.320610	0.165230
H971	H97	0.447070	0.310930	0.207330
C1481	C148	0.476690	0.364180	0.148330
H981	H98	0.495770	0.384030	0.179430
C1491	C149	0.477960	0.378690	0.087830
C1501	C150	0.449980	0.348510	0.041530
H991	H99	0.450870	0.357630	0.999030
C1511	C151	0.421100	0.305240	0.058850
H1001	H100	0.402170	0.285130	0.027930
C1521	C152	0.505590	0.425900	0.070330
C1531	C153	0.487050	0.445640	0.036030
H1011	H101	0.457070	0.428630	0.024530
H1021	H102	0.610770	0.434630	0.057130
O351	O35	0.029300	0.553530	0.426850
O361	O36	0.055250	0.566950	0.527300
C1541	C154	0.054420	0.577600	0.471080
C1551	C155	0.086210	0.624650	0.452190
C1561	C156	0.114400	0.653950	0.498570
H1031	H103	0.113730	0.644270	0.540670
C1571	C157	0.143350	0.697520	0.481670
H1041	H104	0.162430	0.717370	0.512770
C1581	C158	0.144620	0.712030	0.421170
C1591	C159	0.116640	0.681850	0.374870
H1051	H105	0.117530	0.690970	0.332370
C1601	C160	0.087760	0.638580	0.392190
H1061	H106	0.068830	0.618470	0.361270
C1611	C161	0.172250	0.759240	0.403670
C1621	C162	0.153710	0.778980	0.369370
H1071	H107	0.123730	0.761970	0.357870
H1081	H108	0.277430	0.767970	0.390470
O371	O37	0.695970	0.809110	0.760180
O381	O38	0.721920	0.821640	0.860630
C1631	C163	0.721090	0.810160	0.804410
C1641	C164	0.752880	0.794900	0.785520
C1651	C165	0.781070	0.793790	0.831900
H1091	H109	0.780400	0.802800	0.874000
C1661	C166	0.810020	0.779170	0.815000
H1101	H110	0.829100	0.778400	0.846100
C1671	C167	0.811290	0.765930	0.754500
C1681	C168	0.783310	0.768130	0.708200
H1111	H111	0.784200	0.759900	0.665700
C1691	C169	0.754430	0.782520	0.725520
H1121	H112	0.735500	0.783700	0.694600
C1701	C170	0.838920	0.746350	0.737000
C1711	C171	0.820380	0.708070	0.702700
H1131	H113	0.790400	0.695100	0.691200
H1141	H114	0.944100	0.842800	0.723800
O391	O39	0.362640	0.142440	0.093510
O401	O40	0.388590	0.154970	0.193960
C1721	C172	0.387760	0.143490	0.137740
C1731	C173	0.419550	0.128230	0.118850
C1741	C174	0.447740	0.127120	0.165230
H1151	H115	0.447070	0.136130	0.207330
C1751	C175	0.476690	0.112500	0.148330
H1161	H116	0.495770	0.111730	0.179430
C1761	C176	0.477960	0.099260	0.087830
C1771	C177	0.449980	0.101460	0.041530
H1171	H117	0.450870	0.093230	0.999030
C1781	C178	0.421100	0.115850	0.058850
H1181	H118	0.402170	0.117030	0.027930
C1791	C179	0.505590	0.079680	0.070330
C1801	C180	0.487050	0.041400	0.036030
H1191	H119	0.457070	0.028430	0.024530
H1201	H120	0.610770	0.176130	0.057130
O411	O41	0.029300	0.475780	0.426850
O421	O42	0.055250	0.488310	0.527300
C1811	C181	0.054420	0.476830	0.471080
C1821	C182	0.086210	0.461570	0.452190
C1831	C183	0.114400	0.460460	0.498570
H1211	H121	0.113730	0.469470	0.540670
C1841	C184	0.143350	0.445840	0.481670
H1221	H122	0.162430	0.445070	0.512770
C1851	C185	0.144620	0.432600	0.421170
C1861	C186	0.116640	0.434800	0.374870
H1231	H123	0.117530	0.426570	0.332370
C1871	C187	0.087760	0.449190	0.392190
H1241	H124	0.068830	0.450370	0.361270
C1881	C188	0.172250	0.413020	0.403670
C1891	C189	0.153710	0.374740	0.369370
H1251	H125	0.123730	0.361770	0.357870
H1261	H126	0.277430	0.509470	0.390470
O431	O43	0.190890	0.886860	0.760180
O441	O44	0.178360	0.900280	0.860630
C1901	C190	0.189840	0.910930	0.804410
C1911	C191	0.205100	0.957980	0.785520
C1921	C192	0.206210	0.987280	0.831900
H1271	H127	0.197200	0.977600	0.874000
C1931	C193	0.220830	0.030850	0.815000
H1281	H128	0.221600	0.050700	0.846100
C1941	C194	0.234070	0.045360	0.754500
C1951	C195	0.231870	0.015180	0.708200
H1291	H129	0.240100	0.024300	0.665700
C1961	C196	0.217480	0.971910	0.725520
H1301	H130	0.216300	0.951800	0.694600
C1971	C197	0.253650	0.092570	0.737000
C1981	C198	0.291930	0.112310	0.702700
H1311	H131	0.304900	0.095300	0.691200
H1321	H132	0.157200	0.101300	0.723800
O451	O45	0.857560	0.220190	0.093510
O461	O46	0.845030	0.233610	0.193960
C1991	C199	0.856510	0.244260	0.137740
C2001	C200	0.871770	0.291310	0.118850
C2011	C201	0.872880	0.320610	0.165230
H1331	H133	0.863870	0.310930	0.207330
C2021	C202	0.887500	0.364180	0.148330
H1341	H134	0.888270	0.384030	0.179430
C2031	C203	0.900740	0.378690	0.087830
C2041	C204	0.898540	0.348510	0.041530
H1351	H135	0.906770	0.357630	0.999030
C2051	C205	0.884150	0.305240	0.058850
H1361	H136	0.882970	0.285130	0.027930
C2061	C206	0.920320	0.425900	0.070330
C2071	C207	0.958600	0.445640	0.036030
H1371	H137	0.971570	0.428630	0.024530
H1381	H138	0.823870	0.434630	0.057130
O471	O47	0.524220	0.553530	0.426850
O481	O48	0.511690	0.566950	0.527300
C2081	C208	0.523170	0.577600	0.471080
C2091	C209	0.538430	0.624650	0.452190
C2101	C210	0.539540	0.653950	0.498570
H1391	H139	0.530530	0.644270	0.540670
C2111	C211	0.554160	0.697520	0.481670
H1401	H140	0.554930	0.717370	0.512770
C2121	C212	0.567400	0.712030	0.421170
C2131	C213	0.565200	0.681850	0.374870
H1411	H141	0.573430	0.690970	0.332370
C2141	C214	0.550810	0.638580	0.392190
H1421	H142	0.549630	0.618470	0.361270
C2151	C215	0.586980	0.759240	0.403670
C2161	C216	0.625260	0.778980	0.369370
H1431	H143	0.638230	0.761970	0.357870
H1441	H144	0.490530	0.767970	0.390470
O491	O49	0.113140	0.304030	0.760180
O501	O50	0.099720	0.278080	0.860630
C2171	C217	0.089070	0.278910	0.804410
C2181	C218	0.042020	0.247120	0.785520
C2191	C219	0.012720	0.218930	0.831900
H1451	H145	0.022400	0.219600	0.874000
C2201	C220	0.969150	0.189980	0.815000
H1461	H146	0.949300	0.170900	0.846100
C2211	C221	0.954640	0.188710	0.754500
C2221	C222	0.984820	0.216690	0.708200
H1471	H147	0.975700	0.215800	0.665700
C2231	C223	0.028090	0.245570	0.725520
H1481	H148	0.048200	0.264500	0.694600
C2241	C224	0.907430	0.161080	0.737000
C2251	C225	0.887690	0.179620	0.702700
H1491	H149	0.904700	0.209600	0.691200
H1501	H150	0.898700	0.055900	0.723800
O511	O51	0.779810	0.637360	0.093510
O521	O52	0.766390	0.611410	0.193960
C2261	C226	0.755740	0.612240	0.137740
C2271	C227	0.708690	0.580450	0.118850
C2281	C228	0.679390	0.552260	0.165230
H1511	H151	0.689070	0.552930	0.207330
C2291	C229	0.635820	0.523310	0.148330
H1521	H152	0.615970	0.504230	0.179430
C2301	C230	0.621310	0.522040	0.087830
C2311	C231	0.651490	0.550020	0.041530
H1531	H153	0.642370	0.549130	0.999030
C2321	C232	0.694760	0.578900	0.058850
H1541	H154	0.714870	0.597830	0.027930
C2331	C233	0.574100	0.494410	0.070330
C2341	C234	0.554360	0.512950	0.036030
H1551	H155	0.571370	0.542930	0.024530
H1561	H156	0.565370	0.389230	0.057130
O531	O53	0.446470	0.970700	0.426850
O541	O54	0.433050	0.944750	0.527300
C2351	C235	0.422400	0.945580	0.471080
C2361	C236	0.375350	0.913790	0.452190
C2371	C237	0.346050	0.885600	0.498570
H1571	H157	0.355730	0.886270	0.540670
C2381	C238	0.302480	0.856650	0.481670
H1581	H158	0.282630	0.837570	0.512770
C2391	C239	0.287970	0.855380	0.421170
C2401	C240	0.318150	0.883360	0.374870
H1591	H159	0.309030	0.882470	0.332370
C2411	C241	0.361420	0.912240	0.392190
H1601	H160	0.381530	0.931170	0.361270
C2421	C242	0.240760	0.827750	0.403670
C2431	C243	0.221020	0.846290	0.369370
H1611	H161	0.238030	0.876270	0.357870
H1621	H162	0.232030	0.722570	0.390470
O551	O55	0.809110	0.695970	0.239820
O561	O56	0.821640	0.721920	0.139370
C2441	C244	0.810160	0.721090	0.195590
C2451	C245	0.794900	0.752880	0.214480
C2461	C246	0.793790	0.781070	0.168100
H1631	H163	0.802800	0.780400	0.126000
C2471	C247	0.779170	0.810020	0.185000
H1641	H164	0.778400	0.829100	0.153900
C2481	C248	0.765930	0.811290	0.245500
C2491	C249	0.768130	0.783310	0.291800
H1651	H165	0.759900	0.784200	0.334300
C2501	C250	0.782520	0.754430	0.274480
H1661	H166	0.783700	0.735500	0.305400
C2511	C251	0.746350	0.838920	0.263000
C2521	C252	0.708070	0.820380	0.297300
H1671	H167	0.695100	0.790400	0.308800
H1681	H168	0.842800	0.944100	0.276200
O571	O57	0.475780	0.029300	0.573150
O581	O58	0.488310	0.055250	0.472700
C2531	C253	0.476830	0.054420	0.528920
C2541	C254	0.461570	0.086210	0.547810
C2551	C255	0.460460	0.114400	0.501430
H1691	H169	0.469470	0.113730	0.459330
C2561	C256	0.445840	0.143350	0.518330
H1701	H170	0.445070	0.162430	0.487230
C2571	C257	0.432600	0.144620	0.578830
C2581	C258	0.434800	0.116640	0.625130
H1711	H171	0.426570	0.117530	0.667630
C2591	C259	0.449190	0.087760	0.607810
H1721	H172	0.450370	0.068830	0.638730
C2601	C260	0.413020	0.172250	0.596330
C2611	C261	0.374740	0.153710	0.630630
H1731	H173	0.361770	0.123730	0.642130
H1741	H174	0.509470	0.277430	0.609530
O591	O59	0.142440	0.362640	0.906490
O601	O60	0.154970	0.388590	0.806040
C2621	C262	0.143490	0.387760	0.862260
C2631	C263	0.128230	0.419550	0.881150
C2641	C264	0.127120	0.447740	0.834770
H1751	H175	0.136130	0.447070	0.792670
C2651	C265	0.112500	0.476690	0.851670
H1761	H176	0.111730	0.495770	0.820570
C2661	C266	0.099260	0.477960	0.912170
C2671	C267	0.101460	0.449980	0.958470
H1771	H177	0.093230	0.450870	0.000970
C2681	C268	0.115850	0.421100	0.941150
H1781	H178	0.117030	0.402170	0.972070
C2691	C269	0.079680	0.505590	0.929670
C2701	C270	0.041400	0.487050	0.963970
H1791	H179	0.028430	0.457070	0.975470
H1801	H180	0.176130	0.610770	0.942870
O611	O61	0.886860	0.190890	0.239820
O621	O62	0.900280	0.178360	0.139370
C2711	C271	0.910930	0.189840	0.195590
C2721	C272	0.957980	0.205100	0.214480
C2731	C273	0.987280	0.206210	0.168100
H1811	H181	0.977600	0.197200	0.126000
C2741	C274	0.030850	0.220830	0.185000
H1821	H182	0.050700	0.221600	0.153900
C2751	C275	0.045360	0.234070	0.245500
C2761	C276	0.015180	0.231870	0.291800
H1831	H183	0.024300	0.240100	0.334300
C2771	C277	0.971910	0.217480	0.274480
H1841	H184	0.951800	0.216300	0.305400
C2781	C278	0.092570	0.253650	0.263000
C2791	C279	0.112310	0.291930	0.297300
H1851	H185	0.095300	0.304900	0.308800
H1861	H186	0.101300	0.157200	0.276200
O631	O63	0.553530	0.524220	0.573150
O641	O64	0.566950	0.511690	0.472700
C2801	C280	0.577600	0.523170	0.528920
C2811	C281	0.624650	0.538430	0.547810
C2821	C282	0.653950	0.539540	0.501430
H1871	H187	0.644270	0.530530	0.459330
C2831	C283	0.697520	0.554160	0.518330
H1881	H188	0.717370	0.554930	0.487230
C2841	C284	0.712030	0.567400	0.578830
C2851	C285	0.681850	0.565200	0.625130
H1891	H189	0.690970	0.573430	0.667630
C2861	C286	0.638580	0.550810	0.607810
H1901	H190	0.618470	0.549630	0.638730
C2871	C287	0.759240	0.586980	0.596330
C2881	C288	0.778980	0.625260	0.630630
H1911	H191	0.761970	0.638230	0.642130
H1921	H192	0.767970	0.490530	0.609530
O651	O65	0.220190	0.857560	0.906490
O661	O66	0.233610	0.845030	0.806040
C2891	C289	0.244260	0.856510	0.862260
C2901	C290	0.291310	0.871770	0.881150
C2911	C291	0.320610	0.872880	0.834770
H1931	H193	0.310930	0.863870	0.792670
C2921	C292	0.364180	0.887500	0.851670
H1941	H194	0.384030	0.888270	0.820570
C2931	C293	0.378690	0.900740	0.912170
C2941	C294	0.348510	0.898540	0.958470
H1951	H195	0.357630	0.906770	0.000970
C2951	C295	0.305240	0.884150	0.941150
H1961	H196	0.285130	0.882970	0.972070
C2961	C296	0.425900	0.920320	0.929670
C2971	C297	0.445640	0.958600	0.963970
H1971	H197	0.428630	0.971570	0.975470
H1981	H198	0.434630	0.823870	0.942870
O671	O67	0.304030	0.113140	0.239820
O681	O68	0.278080	0.099720	0.139370
C2981	C298	0.278910	0.089070	0.195590
C2991	C299	0.247120	0.042020	0.214480
C3001	C300	0.218930	0.012720	0.168100
H1991	H199	0.219600	0.022400	0.126000
C3011	C301	0.189980	0.969150	0.185000
H2001	H200	0.170900	0.949300	0.153900
C3021	C302	0.188710	0.954640	0.245500
C3031	C303	0.216690	0.984820	0.291800
H2011	H201	0.215800	0.975700	0.334300
C3041	C304	0.245570	0.028090	0.274480
H2021	H202	0.264500	0.048200	0.305400
C3051	C305	0.161080	0.907430	0.263000
C3061	C306	0.179620	0.887690	0.297300
H2031	H203	0.209600	0.904700	0.308800
H2041	H204	0.055900	0.898700	0.276200
O691	O69	0.970700	0.446470	0.573150
O701	O70	0.944750	0.433050	0.472700
C3071	C307	0.945580	0.422400	0.528920
C3081	C308	0.913790	0.375350	0.547810
C3091	C309	0.885600	0.346050	0.501430
H2051	H205	0.886270	0.355730	0.459330
C3101	C310	0.856650	0.302480	0.518330
H2061	H206	0.837570	0.282630	0.487230
C3111	C311	0.855380	0.287970	0.578830
C3121	C312	0.883360	0.318150	0.625130
H2071	H207	0.882470	0.309030	0.667630
C3131	C313	0.912240	0.361420	0.607810
H2081	H208	0.931170	0.381530	0.638730
C3141	C314	0.827750	0.240760	0.596330
C3151	C315	0.846290	0.221020	0.630630
H2091	H209	0.876270	0.238030	0.642130
H2101	H210	0.722570	0.232030	0.609530
O711	O71	0.637360	0.779810	0.906490
O721	O72	0.611410	0.766390	0.806040
C3161	C316	0.612240	0.755740	0.862260
C3171	C317	0.580450	0.708690	0.881150
C3181	C318	0.552260	0.679390	0.834770
H2111	H211	0.552930	0.689070	0.792670
C3191	C319	0.523310	0.635820	0.851670
H2121	H212	0.504230	0.615970	0.820570
C3201	C320	0.522040	0.621310	0.912170
C3211	C321	0.550020	0.651490	0.958470
H2131	H213	0.549130	0.642370	0.000970
C3221	C322	0.578900	0.694760	0.941150
H2141	H214	0.597830	0.714870	0.972070
C3231	C323	0.494410	0.574100	0.929670
C3241	C324	0.512950	0.554360	0.963970
H2151	H215	0.542930	0.571370	0.975470
H2161	H216	0.389230	0.565370	0.942870
Cu11	Cu1	0.318040	0.159020	0.108350
Cu21	Cu2	0.984710	0.492350	0.441680
Cu31	Cu3	0.651370	0.825690	0.775020
Cu41	Cu4	0.840980	0.159020	0.108350
Cu51	Cu5	0.507650	0.492350	0.441680
Cu61	Cu6	0.174310	0.825690	0.775020
Cu71	Cu7	0.840980	0.681960	0.108350
Cu81	Cu8	0.507650	0.015290	0.441680
Cu91	Cu9	0.174310	0.348630	0.775020
Cu101	Cu10	0.159020	0.318040	0.891650
Cu111	Cu11	0.825690	0.651370	0.224980
Cu121	Cu12	0.492350	0.984710	0.558320
Cu131	Cu13	0.159020	0.840980	0.891650
Cu141	Cu14	0.825690	0.174310	0.224980
Cu151	Cu15	0.492350	0.507650	0.558320
Cu161	Cu16	0.681960	0.840980	0.891650
Cu171	Cu17	0.348630	0.174310	0.224980
Cu181	Cu18	0.015290	0.507650	0.558320
O731	O73	0.097840	0.195670	0.210700
C3251	C325	0.156340	0.312670	0.316200
C3261	C326	0.117160	0.234320	0.245500
C3271	C327	0.078650	0.157300	0.249500
H2171	H217	0.065550	0.131100	0.222500
O741	O74	0.764500	0.529000	0.544030
C3281	C328	0.823000	0.646000	0.649530
C3291	C329	0.783830	0.567650	0.578830
C3301	C330	0.745320	0.490630	0.582830
H2181	H218	0.732220	0.464430	0.555830
O751	O75	0.431170	0.862340	0.877370
C3311	C331	0.489670	0.979340	0.982870
C3321	C332	0.450490	0.900990	0.912170
C3331	C333	0.411980	0.823970	0.916170
H2191	H219	0.398880	0.797770	0.889170
O761	O76	0.804330	0.902160	0.210700
C3341	C334	0.687330	0.843660	0.316200
C3351	C335	0.765680	0.882840	0.245500
C3361	C336	0.842700	0.921350	0.249500
H2201	H220	0.868900	0.934450	0.222500
O771	O77	0.471000	0.235500	0.544030
C3371	C337	0.354000	0.177000	0.649530
C3381	C338	0.432350	0.216170	0.578830
C3391	C339	0.509370	0.254680	0.582830
H2211	H221	0.535570	0.267780	0.555830
O781	O78	0.137660	0.568830	0.877370
C3401	C340	0.020660	0.510330	0.982870
C3411	C341	0.099010	0.549510	0.912170
C3421	C342	0.176030	0.588020	0.916170
H2221	H222	0.202230	0.601120	0.889170
O791	O79	0.097840	0.902160	0.210700
C3431	C343	0.156340	0.843660	0.316200
C3441	C344	0.117160	0.882840	0.245500
C3451	C345	0.078650	0.921350	0.249500
H2231	H223	0.065550	0.934450	0.222500
O801	O80	0.764500	0.235500	0.544030
C3461	C346	0.823000	0.177000	0.649530
C3471	C347	0.783830	0.216170	0.578830
C3481	C348	0.745320	0.254680	0.582830
H2241	H224	0.732220	0.267780	0.555830
O811	O81	0.431170	0.568830	0.877370
C3491	C349	0.489670	0.510330	0.982870
C3501	C350	0.450490	0.549510	0.912170
C3511	C351	0.411980	0.588020	0.916170
H2251	H225	0.398880	0.601120	0.889170
O821	O82	0.195670	0.097840	0.789300
C3521	C352	0.312670	0.156340	0.683800
C3531	C353	0.234320	0.117160	0.754500
C3541	C354	0.157300	0.078650	0.750500
H2261	H226	0.131100	0.065550	0.777500
O831	O83	0.862340	0.431170	0.122630
C3551	C355	0.979340	0.489670	0.017130
C3561	C356	0.900990	0.450490	0.087830
C3571	C357	0.823970	0.411980	0.083830
H2271	H227	0.797770	0.398880	0.110830
O841	O84	0.529000	0.764500	0.455970
C3581	C358	0.646000	0.823000	0.350470
C3591	C359	0.567650	0.783830	0.421170
C3601	C360	0.490630	0.745320	0.417170
H2281	H228	0.464430	0.732220	0.444170
O851	O85	0.902160	0.804330	0.789300
C3611	C361	0.843660	0.687330	0.683800
C3621	C362	0.882840	0.765680	0.754500
C3631	C363	0.921350	0.842700	0.750500
H2291	H229	0.934450	0.868900	0.777500
O861	O86	0.568830	0.137660	0.122630
C3641	C364	0.510330	0.020660	0.017130
C3651	C365	0.549510	0.099010	0.087830
C3661	C366	0.588020	0.176030	0.083830
H2301	H230	0.601120	0.202230	0.110830
O871	O87	0.235500	0.471000	0.455970
C3671	C367	0.177000	0.354000	0.350470
C3681	C368	0.216170	0.432350	0.421170
C3691	C369	0.254680	0.509370	0.417170
H2311	H231	0.267780	0.535570	0.444170
O881	O88	0.902160	0.097840	0.789300
C3701	C370	0.843660	0.156340	0.683800
C3711	C371	0.882840	0.117160	0.754500
C3721	C372	0.921350	0.078650	0.750500
H2321	H232	0.934450	0.065550	0.777500
O891	O89	0.568830	0.431170	0.122630
C3731	C373	0.510330	0.489670	0.017130
C3741	C374	0.549510	0.450490	0.087830
C3751	C375	0.588020	0.411980	0.083830
H2331	H233	0.601120	0.398880	0.110830
O901	O90	0.235500	0.764500	0.455970
C3761	C376	0.177000	0.823000	0.350470
C3771	C377	0.216170	0.783830	0.421170
C3781	C378	0.254680	0.745320	0.417170
H2341	H234	0.267780	0.732220	0.444170
