data_UMOVID_clean_PM
_symmetry_space_group_name_H-M	'P1'
_cell_length_a	34.829000
_cell_length_b	34.829000
_cell_length_c	23.497000
_cell_angle_alpha	90.000000
_cell_angle_beta	90.000000
_cell_angle_gamma	120.000000
_symmetry_Int_Tables_number 1

loop_
_symmetry_equiv_pos_as_xyz
'x,y,z'

loop_
_atom_site_label
_atom_site_type_symbol
_atom_site_fract_x
_atom_site_fract_y
_atom_site_fract_z
O11	O1	0.447170	0.473870	0.433110
O21	O2	0.432180	0.489120	0.519950
C11	C1	0.422360	0.475900	0.469600
C21	C2	0.375540	0.460550	0.454400
C31	C3	0.343830	0.456910	0.491000
H11	H1	0.351800	0.464900	0.528800
C41	C4	0.301170	0.442280	0.475800
H21	H2	0.281200	0.441000	0.502900
C51	C5	0.286860	0.429160	0.420400
C61	C6	0.318710	0.431470	0.383100
H31	H3	0.311000	0.422700	0.345500
C71	C7	0.361830	0.446680	0.401000
H41	H4	0.382200	0.447300	0.374800
C81	C8	0.240160	0.411100	0.403900
C91	C9	0.220930	0.373330	0.368000
H51	H5	0.238100	0.361200	0.356200
H61	H6	0.230800	0.506600	0.399200
O31	O3	0.113840	0.807200	0.766440
O41	O4	0.098850	0.822450	0.853280
C101	C10	0.089030	0.809230	0.802930
C111	C11	0.042210	0.793880	0.787730
C121	C12	0.010500	0.790240	0.824330
H71	H7	0.018470	0.798230	0.862130
C131	C13	0.967840	0.775610	0.809130
H81	H8	0.947870	0.774330	0.836230
C141	C14	0.953530	0.762490	0.753730
C151	C15	0.985380	0.764800	0.716430
H91	H9	0.977670	0.756030	0.678830
C161	C16	0.028500	0.780010	0.734330
H101	H10	0.048870	0.780630	0.708130
C171	C17	0.906830	0.744430	0.737230
C181	C18	0.887600	0.706660	0.701330
H111	H11	0.904770	0.694530	0.689530
H121	H12	0.897470	0.839930	0.732530
O51	O5	0.780500	0.140540	0.099780
O61	O6	0.765510	0.155790	0.186620
C191	C19	0.755690	0.142570	0.136270
C201	C20	0.708870	0.127220	0.121070
C211	C21	0.677160	0.123580	0.157670
H131	H13	0.685130	0.131570	0.195470
C221	C22	0.634500	0.108950	0.142470
H141	H14	0.614530	0.107670	0.169570
C231	C23	0.620190	0.095830	0.087070
C241	C24	0.652040	0.098140	0.049770
H151	H15	0.644330	0.089370	0.012170
C251	C25	0.695160	0.113350	0.067670
H161	H16	0.715530	0.113970	0.041470
C261	C26	0.573490	0.077770	0.070570
C271	C27	0.554260	0.040000	0.034670
H171	H17	0.571430	0.027870	0.022870
H181	H18	0.564130	0.173270	0.065870
O71	O7	0.526130	0.973300	0.433110
O81	O8	0.510880	0.943060	0.519950
C281	C28	0.524100	0.946460	0.469600
C291	C29	0.539450	0.914990	0.454400
C301	C30	0.543090	0.886920	0.491000
H191	H19	0.535100	0.886900	0.528800
C311	C31	0.557720	0.858890	0.475800
H201	H20	0.559000	0.840200	0.502900
C321	C32	0.570840	0.857700	0.420400
C331	C33	0.568530	0.887240	0.383100
H211	H21	0.577300	0.888300	0.345500
C341	C34	0.553320	0.915150	0.401000
H221	H22	0.552700	0.934900	0.374800
C351	C35	0.588900	0.829060	0.403900
C361	C36	0.626670	0.847600	0.368000
H231	H23	0.638800	0.876900	0.356200
H241	H24	0.493400	0.724200	0.399200
O91	O9	0.192800	0.306630	0.766440
O101	O10	0.177550	0.276390	0.853280
C371	C37	0.190770	0.279790	0.802930
C381	C38	0.206120	0.248320	0.787730
C391	C39	0.209760	0.220250	0.824330
H251	H25	0.201770	0.220230	0.862130
C401	C40	0.224390	0.192220	0.809130
H261	H26	0.225670	0.173530	0.836230
C411	C41	0.237510	0.191030	0.753730
C421	C42	0.235200	0.220570	0.716430
H271	H27	0.243970	0.221630	0.678830
C431	C43	0.219990	0.248480	0.734330
H281	H28	0.219370	0.268230	0.708130
C441	C44	0.255570	0.162390	0.737230
C451	C45	0.293340	0.180930	0.701330
H291	H29	0.305470	0.210230	0.689530
H301	H30	0.160070	0.057530	0.732530
O111	O11	0.859460	0.639970	0.099780
O121	O12	0.844210	0.609730	0.186620
C461	C46	0.857430	0.613130	0.136270
C471	C47	0.872780	0.581660	0.121070
C481	C48	0.876420	0.553590	0.157670
H311	H31	0.868430	0.553570	0.195470
C491	C49	0.891050	0.525560	0.142470
H321	H32	0.892330	0.506870	0.169570
C501	C50	0.904170	0.524370	0.087070
C511	C51	0.901860	0.553910	0.049770
H331	H33	0.910630	0.554970	0.012170
C521	C52	0.886650	0.581820	0.067670
H341	H34	0.886030	0.601570	0.041470
C531	C53	0.922230	0.495730	0.070570
C541	C54	0.960000	0.514270	0.034670
H351	H35	0.972130	0.543570	0.022870
H361	H36	0.826730	0.390870	0.065870
O131	O13	0.026700	0.552830	0.433110
O141	O14	0.056940	0.567820	0.519950
C551	C55	0.053540	0.577640	0.469600
C561	C56	0.085010	0.624460	0.454400
C571	C57	0.113080	0.656170	0.491000
H371	H37	0.113100	0.648200	0.528800
C581	C58	0.141110	0.698830	0.475800
H381	H38	0.159800	0.718800	0.502900
C591	C59	0.142300	0.713140	0.420400
C601	C60	0.112760	0.681290	0.383100
H391	H39	0.111700	0.689000	0.345500
C611	C61	0.084850	0.638170	0.401000
H401	H40	0.065100	0.617800	0.374800
C621	C62	0.170940	0.759840	0.403900
C631	C63	0.152400	0.779070	0.368000
H411	H41	0.123100	0.761900	0.356200
H421	H42	0.275800	0.769200	0.399200
O151	O15	0.693370	0.886160	0.766440
O161	O16	0.723610	0.901150	0.853280
C641	C64	0.720210	0.910970	0.802930
C651	C65	0.751680	0.957790	0.787730
C661	C66	0.779750	0.989500	0.824330
H431	H43	0.779770	0.981530	0.862130
C671	C67	0.807780	0.032160	0.809130
H441	H44	0.826470	0.052130	0.836230
C681	C68	0.808970	0.046470	0.753730
C691	C69	0.779430	0.014620	0.716430
H451	H45	0.778370	0.022330	0.678830
C701	C70	0.751520	0.971500	0.734330
H461	H46	0.731770	0.951130	0.708130
C711	C71	0.837610	0.093170	0.737230
C721	C72	0.819070	0.112400	0.701330
H471	H47	0.789770	0.095230	0.689530
H481	H48	0.942470	0.102530	0.732530
O171	O17	0.360030	0.219500	0.099780
O181	O18	0.390270	0.234490	0.186620
C731	C73	0.386870	0.244310	0.136270
C741	C74	0.418340	0.291130	0.121070
C751	C75	0.446410	0.322840	0.157670
H491	H49	0.446430	0.314870	0.195470
C761	C76	0.474440	0.365500	0.142470
H501	H50	0.493130	0.385470	0.169570
C771	C77	0.475630	0.379810	0.087070
C781	C78	0.446090	0.347960	0.049770
H511	H51	0.445030	0.355670	0.012170
C791	C79	0.418180	0.304840	0.067670
H521	H52	0.398430	0.284470	0.041470
C801	C80	0.504270	0.426510	0.070570
C811	C81	0.485730	0.445740	0.034670
H531	H53	0.456430	0.428570	0.022870
H541	H54	0.609130	0.435870	0.065870
O191	O19	0.473870	0.447170	0.566890
O201	O20	0.489120	0.432180	0.480050
C821	C82	0.475900	0.422360	0.530400
C831	C83	0.460550	0.375540	0.545600
C841	C84	0.456910	0.343830	0.509000
H551	H55	0.464900	0.351800	0.471200
C851	C85	0.442280	0.301170	0.524200
H561	H56	0.441000	0.281200	0.497100
C861	C86	0.429160	0.286860	0.579600
C871	C87	0.431470	0.318710	0.616900
H571	H57	0.422700	0.311000	0.654500
C881	C88	0.446680	0.361830	0.599000
H581	H58	0.447300	0.382200	0.625200
C891	C89	0.411100	0.240160	0.596100
C901	C90	0.373330	0.220930	0.632000
H591	H59	0.361200	0.238100	0.643800
H601	H60	0.506600	0.230800	0.600800
O211	O21	0.140540	0.780500	0.900220
O221	O22	0.155790	0.765510	0.813380
C911	C91	0.142570	0.755690	0.863730
C921	C92	0.127220	0.708870	0.878930
C931	C93	0.123580	0.677160	0.842330
H611	H61	0.131570	0.685130	0.804530
C941	C94	0.108950	0.634500	0.857530
H621	H62	0.107670	0.614530	0.830430
C951	C95	0.095830	0.620190	0.912930
C961	C96	0.098140	0.652040	0.950230
H631	H63	0.089370	0.644330	0.987830
C971	C97	0.113350	0.695160	0.932330
H641	H64	0.113970	0.715530	0.958530
C981	C98	0.077770	0.573490	0.929430
C991	C99	0.040000	0.554260	0.965330
H651	H65	0.027870	0.571430	0.977130
H661	H66	0.173270	0.564130	0.934130
O231	O23	0.807200	0.113840	0.233560
O241	O24	0.822450	0.098850	0.146720
C1001	C100	0.809230	0.089030	0.197070
C1011	C101	0.793880	0.042210	0.212270
C1021	C102	0.790240	0.010500	0.175670
H671	H67	0.798230	0.018470	0.137870
C1031	C103	0.775610	0.967840	0.190870
H681	H68	0.774330	0.947870	0.163770
C1041	C104	0.762490	0.953530	0.246270
C1051	C105	0.764800	0.985380	0.283570
H691	H69	0.756030	0.977670	0.321170
C1061	C106	0.780010	0.028500	0.265670
H701	H70	0.780630	0.048870	0.291870
C1071	C107	0.744430	0.906830	0.262770
C1081	C108	0.706660	0.887600	0.298670
H711	H71	0.694530	0.904770	0.310470
H721	H72	0.839930	0.897470	0.267470
O251	O25	0.973300	0.526130	0.566890
O261	O26	0.943060	0.510880	0.480050
C1091	C109	0.946460	0.524100	0.530400
C1101	C110	0.914990	0.539450	0.545600
C1111	C111	0.886920	0.543090	0.509000
H731	H73	0.886900	0.535100	0.471200
C1121	C112	0.858890	0.557720	0.524200
H741	H74	0.840200	0.559000	0.497100
C1131	C113	0.857700	0.570840	0.579600
C1141	C114	0.887240	0.568530	0.616900
H751	H75	0.888300	0.577300	0.654500
C1151	C115	0.915150	0.553320	0.599000
H761	H76	0.934900	0.552700	0.625200
C1161	C116	0.829060	0.588900	0.596100
C1171	C117	0.847600	0.626670	0.632000
H771	H77	0.876900	0.638800	0.643800
H781	H78	0.724200	0.493400	0.600800
O271	O27	0.639970	0.859460	0.900220
O281	O28	0.609730	0.844210	0.813380
C1181	C118	0.613130	0.857430	0.863730
C1191	C119	0.581660	0.872780	0.878930
C1201	C120	0.553590	0.876420	0.842330
H791	H79	0.553570	0.868430	0.804530
C1211	C121	0.525560	0.891050	0.857530
H801	H80	0.506870	0.892330	0.830430
C1221	C122	0.524370	0.904170	0.912930
C1231	C123	0.553910	0.901860	0.950230
H811	H81	0.554970	0.910630	0.987830
C1241	C124	0.581820	0.886650	0.932330
H821	H82	0.601570	0.886030	0.958530
C1251	C125	0.495730	0.922230	0.929430
C1261	C126	0.514270	0.960000	0.965330
H831	H83	0.543570	0.972130	0.977130
H841	H84	0.390870	0.826730	0.934130
O291	O29	0.306630	0.192800	0.233560
O301	O30	0.276390	0.177550	0.146720
C1271	C127	0.279790	0.190770	0.197070
C1281	C128	0.248320	0.206120	0.212270
C1291	C129	0.220250	0.209760	0.175670
H851	H85	0.220230	0.201770	0.137870
C1301	C130	0.192220	0.224390	0.190870
H861	H86	0.173530	0.225670	0.163770
C1311	C131	0.191030	0.237510	0.246270
C1321	C132	0.220570	0.235200	0.283570
H871	H87	0.221630	0.243970	0.321170
C1331	C133	0.248480	0.219990	0.265670
H881	H88	0.268230	0.219370	0.291870
C1341	C134	0.162390	0.255570	0.262770
C1351	C135	0.180930	0.293340	0.298670
H891	H89	0.210230	0.305470	0.310470
H901	H90	0.057530	0.160070	0.267470
O311	O31	0.552830	0.026700	0.566890
O321	O32	0.567820	0.056940	0.480050
C1361	C136	0.577640	0.053540	0.530400
C1371	C137	0.624460	0.085010	0.545600
C1381	C138	0.656170	0.113080	0.509000
H911	H91	0.648200	0.113100	0.471200
C1391	C139	0.698830	0.141110	0.524200
H921	H92	0.718800	0.159800	0.497100
C1401	C140	0.713140	0.142300	0.579600
C1411	C141	0.681290	0.112760	0.616900
H931	H93	0.689000	0.111700	0.654500
C1421	C142	0.638170	0.084850	0.599000
H941	H94	0.617800	0.065100	0.625200
C1431	C143	0.759840	0.170940	0.596100
C1441	C144	0.779070	0.152400	0.632000
H951	H95	0.761900	0.123100	0.643800
H961	H96	0.769200	0.275800	0.600800
O331	O33	0.219500	0.360030	0.900220
O341	O34	0.234490	0.390270	0.813380
C1451	C145	0.244310	0.386870	0.863730
C1461	C146	0.291130	0.418340	0.878930
C1471	C147	0.322840	0.446410	0.842330
H971	H97	0.314870	0.446430	0.804530
C1481	C148	0.365500	0.474440	0.857530
H981	H98	0.385470	0.493130	0.830430
C1491	C149	0.379810	0.475630	0.912930
C1501	C150	0.347960	0.446090	0.950230
H991	H99	0.355670	0.445030	0.987830
C1511	C151	0.304840	0.418180	0.932330
H1001	H100	0.284470	0.398430	0.958530
C1521	C152	0.426510	0.504270	0.929430
C1531	C153	0.445740	0.485730	0.965330
H1011	H101	0.428570	0.456430	0.977130
H1021	H102	0.435870	0.609130	0.934130
O351	O35	0.886160	0.693370	0.233560
O361	O36	0.901150	0.723610	0.146720
C1541	C154	0.910970	0.720210	0.197070
C1551	C155	0.957790	0.751680	0.212270
C1561	C156	0.989500	0.779750	0.175670
H1031	H103	0.981530	0.779770	0.137870
C1571	C157	0.032160	0.807780	0.190870
H1041	H104	0.052130	0.826470	0.163770
C1581	C158	0.046470	0.808970	0.246270
C1591	C159	0.014620	0.779430	0.283570
H1051	H105	0.022330	0.778370	0.321170
C1601	C160	0.971500	0.751520	0.265670
H1061	H106	0.951130	0.731770	0.291870
C1611	C161	0.093170	0.837610	0.262770
C1621	C162	0.112400	0.819070	0.298670
H1071	H107	0.095230	0.789770	0.310470
H1081	H108	0.102530	0.942470	0.267470
O371	O37	0.552830	0.526130	0.566890
O381	O38	0.567820	0.510880	0.480050
C1631	C163	0.577640	0.524100	0.530400
C1641	C164	0.624460	0.539450	0.545600
C1651	C165	0.656170	0.543090	0.509000
H1091	H109	0.648200	0.535100	0.471200
C1661	C166	0.698830	0.557720	0.524200
H1101	H110	0.718800	0.559000	0.497100
C1671	C167	0.713140	0.570840	0.579600
C1681	C168	0.681290	0.568530	0.616900
H1111	H111	0.689000	0.577300	0.654500
C1691	C169	0.638170	0.553320	0.599000
H1121	H112	0.617800	0.552700	0.625200
C1701	C170	0.759840	0.588900	0.596100
C1711	C171	0.779070	0.626670	0.632000
H1131	H113	0.761900	0.638800	0.643800
H1141	H114	0.769200	0.493400	0.600800
O391	O39	0.219500	0.859460	0.900220
O401	O40	0.234490	0.844210	0.813380
C1721	C172	0.244310	0.857430	0.863730
C1731	C173	0.291130	0.872780	0.878930
C1741	C174	0.322840	0.876420	0.842330
H1151	H115	0.314870	0.868430	0.804530
C1751	C175	0.365500	0.891050	0.857530
H1161	H116	0.385470	0.892330	0.830430
C1761	C176	0.379810	0.904170	0.912930
C1771	C177	0.347960	0.901860	0.950230
H1171	H117	0.355670	0.910630	0.987830
C1781	C178	0.304840	0.886650	0.932330
H1181	H118	0.284470	0.886030	0.958530
C1791	C179	0.426510	0.922230	0.929430
C1801	C180	0.445740	0.960000	0.965330
H1191	H119	0.428570	0.972130	0.977130
H1201	H120	0.435870	0.826730	0.934130
O411	O41	0.886160	0.192800	0.233560
O421	O42	0.901150	0.177550	0.146720
C1811	C181	0.910970	0.190770	0.197070
C1821	C182	0.957790	0.206120	0.212270
C1831	C183	0.989500	0.209760	0.175670
H1211	H121	0.981530	0.201770	0.137870
C1841	C184	0.032160	0.224390	0.190870
H1221	H122	0.052130	0.225670	0.163770
C1851	C185	0.046470	0.237510	0.246270
C1861	C186	0.014620	0.235200	0.283570
H1231	H123	0.022330	0.243970	0.321170
C1871	C187	0.971500	0.219990	0.265670
H1241	H124	0.951130	0.219370	0.291870
C1881	C188	0.093170	0.255570	0.262770
C1891	C189	0.112400	0.293340	0.298670
H1251	H125	0.095230	0.305470	0.310470
H1261	H126	0.102530	0.160070	0.267470
O431	O43	0.473870	0.026700	0.566890
O441	O44	0.489120	0.056940	0.480050
C1901	C190	0.475900	0.053540	0.530400
C1911	C191	0.460550	0.085010	0.545600
C1921	C192	0.456910	0.113080	0.509000
H1271	H127	0.464900	0.113100	0.471200
C1931	C193	0.442280	0.141110	0.524200
H1281	H128	0.441000	0.159800	0.497100
C1941	C194	0.429160	0.142300	0.579600
C1951	C195	0.431470	0.112760	0.616900
H1291	H129	0.422700	0.111700	0.654500
C1961	C196	0.446680	0.084850	0.599000
H1301	H130	0.447300	0.065100	0.625200
C1971	C197	0.411100	0.170940	0.596100
C1981	C198	0.373330	0.152400	0.632000
H1311	H131	0.361200	0.123100	0.643800
H1321	H132	0.506600	0.275800	0.600800
O451	O45	0.140540	0.360030	0.900220
O461	O46	0.155790	0.390270	0.813380
C1991	C199	0.142570	0.386870	0.863730
C2001	C200	0.127220	0.418340	0.878930
C2011	C201	0.123580	0.446410	0.842330
H1331	H133	0.131570	0.446430	0.804530
C2021	C202	0.108950	0.474440	0.857530
H1341	H134	0.107670	0.493130	0.830430
C2031	C203	0.095830	0.475630	0.912930
C2041	C204	0.098140	0.446090	0.950230
H1351	H135	0.089370	0.445030	0.987830
C2051	C205	0.113350	0.418180	0.932330
H1361	H136	0.113970	0.398430	0.958530
C2061	C206	0.077770	0.504270	0.929430
C2071	C207	0.040000	0.485730	0.965330
H1371	H137	0.027870	0.456430	0.977130
H1381	H138	0.173270	0.609130	0.934130
O471	O47	0.807200	0.693370	0.233560
O481	O48	0.822450	0.723610	0.146720
C2081	C208	0.809230	0.720210	0.197070
C2091	C209	0.793880	0.751680	0.212270
C2101	C210	0.790240	0.779750	0.175670
H1391	H139	0.798230	0.779770	0.137870
C2111	C211	0.775610	0.807780	0.190870
H1401	H140	0.774330	0.826470	0.163770
C2121	C212	0.762490	0.808970	0.246270
C2131	C213	0.764800	0.779430	0.283570
H1411	H141	0.756030	0.778370	0.321170
C2141	C214	0.780010	0.751520	0.265670
H1421	H142	0.780630	0.731770	0.291870
C2151	C215	0.744430	0.837610	0.262770
C2161	C216	0.706660	0.819070	0.298670
H1431	H143	0.694530	0.789770	0.310470
H1441	H144	0.839930	0.942470	0.267470
O491	O49	0.973300	0.447170	0.566890
O501	O50	0.943060	0.432180	0.480050
C2171	C217	0.946460	0.422360	0.530400
C2181	C218	0.914990	0.375540	0.545600
C2191	C219	0.886920	0.343830	0.509000
H1451	H145	0.886900	0.351800	0.471200
C2201	C220	0.858890	0.301170	0.524200
H1461	H146	0.840200	0.281200	0.497100
C2211	C221	0.857700	0.286860	0.579600
C2221	C222	0.887240	0.318710	0.616900
H1471	H147	0.888300	0.311000	0.654500
C2231	C223	0.915150	0.361830	0.599000
H1481	H148	0.934900	0.382200	0.625200
C2241	C224	0.829060	0.240160	0.596100
C2251	C225	0.847600	0.220930	0.632000
H1491	H149	0.876900	0.238100	0.643800
H1501	H150	0.724200	0.230800	0.600800
O511	O51	0.639970	0.780500	0.900220
O521	O52	0.609730	0.765510	0.813380
C2261	C226	0.613130	0.755690	0.863730
C2271	C227	0.581660	0.708870	0.878930
C2281	C228	0.553590	0.677160	0.842330
H1511	H151	0.553570	0.685130	0.804530
C2291	C229	0.525560	0.634500	0.857530
H1521	H152	0.506870	0.614530	0.830430
C2301	C230	0.524370	0.620190	0.912930
C2311	C231	0.553910	0.652040	0.950230
H1531	H153	0.554970	0.644330	0.987830
C2321	C232	0.581820	0.695160	0.932330
H1541	H154	0.601570	0.715530	0.958530
C2331	C233	0.495730	0.573490	0.929430
C2341	C234	0.514270	0.554260	0.965330
H1551	H155	0.543570	0.571430	0.977130
H1561	H156	0.390870	0.564130	0.934130
O531	O53	0.306630	0.113840	0.233560
O541	O54	0.276390	0.098850	0.146720
C2351	C235	0.279790	0.089030	0.197070
C2361	C236	0.248320	0.042210	0.212270
C2371	C237	0.220250	0.010500	0.175670
H1571	H157	0.220230	0.018470	0.137870
C2381	C238	0.192220	0.967840	0.190870
H1581	H158	0.173530	0.947870	0.163770
C2391	C239	0.191030	0.953530	0.246270
C2401	C240	0.220570	0.985380	0.283570
H1591	H159	0.221630	0.977670	0.321170
C2411	C241	0.248480	0.028500	0.265670
H1601	H160	0.268230	0.048870	0.291870
C2421	C242	0.162390	0.906830	0.262770
C2431	C243	0.180930	0.887600	0.298670
H1611	H161	0.210230	0.904770	0.310470
H1621	H162	0.057530	0.897470	0.267470
O551	O55	0.526130	0.552830	0.433110
O561	O56	0.510880	0.567820	0.519950
C2441	C244	0.524100	0.577640	0.469600
C2451	C245	0.539450	0.624460	0.454400
C2461	C246	0.543090	0.656170	0.491000
H1631	H163	0.535100	0.648200	0.528800
C2471	C247	0.557720	0.698830	0.475800
H1641	H164	0.559000	0.718800	0.502900
C2481	C248	0.570840	0.713140	0.420400
C2491	C249	0.568530	0.681290	0.383100
H1651	H165	0.577300	0.689000	0.345500
C2501	C250	0.553320	0.638170	0.401000
H1661	H166	0.552700	0.617800	0.374800
C2511	C251	0.588900	0.759840	0.403900
C2521	C252	0.626670	0.779070	0.368000
H1671	H167	0.638800	0.761900	0.356200
H1681	H168	0.493400	0.769200	0.399200
O571	O57	0.192800	0.886160	0.766440
O581	O58	0.177550	0.901150	0.853280
C2531	C253	0.190770	0.910970	0.802930
C2541	C254	0.206120	0.957790	0.787730
C2551	C255	0.209760	0.989500	0.824330
H1691	H169	0.201770	0.981530	0.862130
C2561	C256	0.224390	0.032160	0.809130
H1701	H170	0.225670	0.052130	0.836230
C2571	C257	0.237510	0.046470	0.753730
C2581	C258	0.235200	0.014620	0.716430
H1711	H171	0.243970	0.022330	0.678830
C2591	C259	0.219990	0.971500	0.734330
H1721	H172	0.219370	0.951130	0.708130
C2601	C260	0.255570	0.093170	0.737230
C2611	C261	0.293340	0.112400	0.701330
H1731	H173	0.305470	0.095230	0.689530
H1741	H174	0.160070	0.102530	0.732530
O591	O59	0.859460	0.219500	0.099780
O601	O60	0.844210	0.234490	0.186620
C2621	C262	0.857430	0.244310	0.136270
C2631	C263	0.872780	0.291130	0.121070
C2641	C264	0.876420	0.322840	0.157670
H1751	H175	0.868430	0.314870	0.195470
C2651	C265	0.891050	0.365500	0.142470
H1761	H176	0.892330	0.385470	0.169570
C2661	C266	0.904170	0.379810	0.087070
C2671	C267	0.901860	0.347960	0.049770
H1771	H177	0.910630	0.355670	0.012170
C2681	C268	0.886650	0.304840	0.067670
H1781	H178	0.886030	0.284470	0.041470
C2691	C269	0.922230	0.426510	0.070570
C2701	C270	0.960000	0.445740	0.034670
H1791	H179	0.972130	0.428570	0.022870
H1801	H180	0.826730	0.435870	0.065870
O611	O61	0.026700	0.473870	0.433110
O621	O62	0.056940	0.489120	0.519950
C2711	C271	0.053540	0.475900	0.469600
C2721	C272	0.085010	0.460550	0.454400
C2731	C273	0.113080	0.456910	0.491000
H1811	H181	0.113100	0.464900	0.528800
C2741	C274	0.141110	0.442280	0.475800
H1821	H182	0.159800	0.441000	0.502900
C2751	C275	0.142300	0.429160	0.420400
C2761	C276	0.112760	0.431470	0.383100
H1831	H183	0.111700	0.422700	0.345500
C2771	C277	0.084850	0.446680	0.401000
H1841	H184	0.065100	0.447300	0.374800
C2781	C278	0.170940	0.411100	0.403900
C2791	C279	0.152400	0.373330	0.368000
H1851	H185	0.123100	0.361200	0.356200
H1861	H186	0.275800	0.506600	0.399200
O631	O63	0.693370	0.807200	0.766440
O641	O64	0.723610	0.822450	0.853280
C2801	C280	0.720210	0.809230	0.802930
C2811	C281	0.751680	0.793880	0.787730
C2821	C282	0.779750	0.790240	0.824330
H1871	H187	0.779770	0.798230	0.862130
C2831	C283	0.807780	0.775610	0.809130
H1881	H188	0.826470	0.774330	0.836230
C2841	C284	0.808970	0.762490	0.753730
C2851	C285	0.779430	0.764800	0.716430
H1891	H189	0.778370	0.756030	0.678830
C2861	C286	0.751520	0.780010	0.734330
H1901	H190	0.731770	0.780630	0.708130
C2871	C287	0.837610	0.744430	0.737230
C2881	C288	0.819070	0.706660	0.701330
H1911	H191	0.789770	0.694530	0.689530
H1921	H192	0.942470	0.839930	0.732530
O651	O65	0.360030	0.140540	0.099780
O661	O66	0.390270	0.155790	0.186620
C2891	C289	0.386870	0.142570	0.136270
C2901	C290	0.418340	0.127220	0.121070
C2911	C291	0.446410	0.123580	0.157670
H1931	H193	0.446430	0.131570	0.195470
C2921	C292	0.474440	0.108950	0.142470
H1941	H194	0.493130	0.107670	0.169570
C2931	C293	0.475630	0.095830	0.087070
C2941	C294	0.446090	0.098140	0.049770
H1951	H195	0.445030	0.089370	0.012170
C2951	C295	0.418180	0.113350	0.067670
H1961	H196	0.398430	0.113970	0.041470
C2961	C296	0.504270	0.077770	0.070570
C2971	C297	0.485730	0.040000	0.034670
H1971	H197	0.456430	0.027870	0.022870
H1981	H198	0.609130	0.173270	0.065870
O671	O67	0.447170	0.973300	0.433110
O681	O68	0.432180	0.943060	0.519950
C2981	C298	0.422360	0.946460	0.469600
C2991	C299	0.375540	0.914990	0.454400
C3001	C300	0.343830	0.886920	0.491000
H1991	H199	0.351800	0.886900	0.528800
C3011	C301	0.301170	0.858890	0.475800
H2001	H200	0.281200	0.840200	0.502900
C3021	C302	0.286860	0.857700	0.420400
C3031	C303	0.318710	0.887240	0.383100
H2011	H201	0.311000	0.888300	0.345500
C3041	C304	0.361830	0.915150	0.401000
H2021	H202	0.382200	0.934900	0.374800
C3051	C305	0.240160	0.829060	0.403900
C3061	C306	0.220930	0.847600	0.368000
H2031	H203	0.238100	0.876900	0.356200
H2041	H204	0.230800	0.724200	0.399200
O691	O69	0.113840	0.306630	0.766440
O701	O70	0.098850	0.276390	0.853280
C3071	C307	0.089030	0.279790	0.802930
C3081	C308	0.042210	0.248320	0.787730
C3091	C309	0.010500	0.220250	0.824330
H2051	H205	0.018470	0.220230	0.862130
C3101	C310	0.967840	0.192220	0.809130
H2061	H206	0.947870	0.173530	0.836230
C3111	C311	0.953530	0.191030	0.753730
C3121	C312	0.985380	0.220570	0.716430
H2071	H207	0.977670	0.221630	0.678830
C3131	C313	0.028500	0.248480	0.734330
H2081	H208	0.048870	0.268230	0.708130
C3141	C314	0.906830	0.162390	0.737230
C3151	C315	0.887600	0.180930	0.701330
H2091	H209	0.904770	0.210230	0.689530
H2101	H210	0.897470	0.057530	0.732530
O711	O71	0.780500	0.639970	0.099780
O721	O72	0.765510	0.609730	0.186620
C3161	C316	0.755690	0.613130	0.136270
C3171	C317	0.708870	0.581660	0.121070
C3181	C318	0.677160	0.553590	0.157670
H2111	H211	0.685130	0.553570	0.195470
C3191	C319	0.634500	0.525560	0.142470
H2121	H212	0.614530	0.506870	0.169570
C3201	C320	0.620190	0.524370	0.087070
C3211	C321	0.652040	0.553910	0.049770
H2131	H213	0.644330	0.554970	0.012170
C3221	C322	0.695160	0.581820	0.067670
H2141	H214	0.715530	0.601570	0.041470
C3231	C323	0.573490	0.495730	0.070570
C3241	C324	0.554260	0.514270	0.034670
H2151	H215	0.571430	0.543570	0.022870
H2161	H216	0.564130	0.390870	0.065870
Cu11	Cu1	0.508850	0.491150	0.448860
Cu21	Cu2	0.175520	0.824480	0.782190
Cu31	Cu3	0.842180	0.157820	0.115530
Cu41	Cu4	0.508850	0.017700	0.448860
Cu51	Cu5	0.175520	0.351030	0.782190
Cu61	Cu6	0.842180	0.684370	0.115530
Cu71	Cu7	0.982300	0.491150	0.448860
Cu81	Cu8	0.648970	0.824480	0.782190
Cu91	Cu9	0.315630	0.157820	0.115530
Cu101	Cu10	0.491150	0.508850	0.551140
Cu111	Cu11	0.157820	0.842180	0.884470
Cu121	Cu12	0.824480	0.175520	0.217810
Cu131	Cu13	0.017700	0.508850	0.551140
Cu141	Cu14	0.684370	0.842180	0.884470
Cu151	Cu15	0.351030	0.175520	0.217810
Cu161	Cu16	0.491150	0.982300	0.551140
Cu171	Cu17	0.157820	0.315630	0.884470
Cu181	Cu18	0.824480	0.648970	0.217810
O731	O73	0.233260	0.466520	0.454600
C3251	C325	0.176870	0.353740	0.349900
C3261	C326	0.214800	0.429600	0.417200
C3271	C327	0.252850	0.505700	0.422700
H2171	H217	0.265350	0.530700	0.448000
O741	O74	0.899930	0.799850	0.787930
C3281	C328	0.843540	0.687070	0.683230
C3291	C329	0.881470	0.762930	0.750530
C3301	C330	0.919520	0.839030	0.756030
H2181	H218	0.932020	0.864030	0.781330
O751	O75	0.566590	0.133190	0.121270
C3311	C331	0.510200	0.020410	0.016570
C3321	C332	0.548130	0.096270	0.083870
C3331	C333	0.586180	0.172370	0.089370
H2191	H219	0.598680	0.197370	0.114670
O761	O76	0.533480	0.766740	0.454600
C3341	C334	0.646260	0.823130	0.349900
C3351	C335	0.570400	0.785200	0.417200
C3361	C336	0.494300	0.747150	0.422700
H2201	H220	0.469300	0.734650	0.448000
O771	O77	0.200150	0.100070	0.787930
C3371	C337	0.312930	0.156460	0.683230
C3381	C338	0.237070	0.118530	0.750530
C3391	C339	0.160970	0.080480	0.756030
H2211	H221	0.135970	0.067980	0.781330
O781	O78	0.866810	0.433410	0.121270
C3401	C340	0.979590	0.489800	0.016570
C3411	C341	0.903730	0.451870	0.083870
C3421	C342	0.827630	0.413820	0.089370
H2221	H222	0.802630	0.401320	0.114670
O791	O79	0.233260	0.766740	0.454600
C3431	C343	0.176870	0.823130	0.349900
C3441	C344	0.214800	0.785200	0.417200
C3451	C345	0.252850	0.747150	0.422700
H2231	H223	0.265350	0.734650	0.448000
O801	O80	0.899930	0.100070	0.787930
C3461	C346	0.843540	0.156460	0.683230
C3471	C347	0.881470	0.118530	0.750530
C3481	C348	0.919520	0.080480	0.756030
H2241	H224	0.932020	0.067980	0.781330
O811	O81	0.566590	0.433410	0.121270
C3491	C349	0.510200	0.489800	0.016570
C3501	C350	0.548130	0.451870	0.083870
C3511	C351	0.586180	0.413820	0.089370
H2251	H225	0.598680	0.401320	0.114670
O821	O82	0.466520	0.233260	0.545400
C3521	C352	0.353740	0.176870	0.650100
C3531	C353	0.429600	0.214800	0.582800
C3541	C354	0.505700	0.252850	0.577300
H2261	H226	0.530700	0.265350	0.552000
O831	O83	0.133190	0.566590	0.878730
C3551	C355	0.020410	0.510200	0.983430
C3561	C356	0.096270	0.548130	0.916130
C3571	C357	0.172370	0.586180	0.910630
H2271	H227	0.197370	0.598680	0.885330
O841	O84	0.799850	0.899930	0.212070
C3581	C358	0.687070	0.843540	0.316770
C3591	C359	0.762930	0.881470	0.249470
C3601	C360	0.839030	0.919520	0.243970
H2281	H228	0.864030	0.932020	0.218670
O851	O85	0.766740	0.533480	0.545400
C3611	C361	0.823130	0.646260	0.650100
C3621	C362	0.785200	0.570400	0.582800
C3631	C363	0.747150	0.494300	0.577300
H2291	H229	0.734650	0.469300	0.552000
O861	O86	0.433410	0.866810	0.878730
C3641	C364	0.489800	0.979590	0.983430
C3651	C365	0.451870	0.903730	0.916130
C3661	C366	0.413820	0.827630	0.910630
H2301	H230	0.401320	0.802630	0.885330
O871	O87	0.100070	0.200150	0.212070
C3671	C367	0.156460	0.312930	0.316770
C3681	C368	0.118530	0.237070	0.249470
C3691	C369	0.080480	0.160970	0.243970
H2311	H231	0.067980	0.135970	0.218670
O881	O88	0.766740	0.233260	0.545400
C3701	C370	0.823130	0.176870	0.650100
C3711	C371	0.785200	0.214800	0.582800
C3721	C372	0.747150	0.252850	0.577300
H2321	H232	0.734650	0.265350	0.552000
O891	O89	0.433410	0.566590	0.878730
C3731	C373	0.489800	0.510200	0.983430
C3741	C374	0.451870	0.548130	0.916130
C3751	C375	0.413820	0.586180	0.910630
H2331	H233	0.401320	0.598680	0.885330
O901	O90	0.100070	0.899930	0.212070
C3761	C376	0.156460	0.843540	0.316770
C3771	C377	0.118530	0.881470	0.249470
C3781	C378	0.080480	0.919520	0.243970
H2341	H234	0.067980	0.932020	0.218670
