data_UMOVEZ05_clean_PM
_symmetry_space_group_name_H-M	'P1'
_cell_length_a	35.293800
_cell_length_b	35.293800
_cell_length_c	20.341000
_cell_angle_alpha	90.000000
_cell_angle_beta	90.000000
_cell_angle_gamma	120.000000
_symmetry_Int_Tables_number 1

loop_
_symmetry_equiv_pos_as_xyz
'x,y,z'

loop_
_atom_site_label
_atom_site_type_symbol
_atom_site_fract_x
_atom_site_fract_y
_atom_site_fract_z
O11	O1	0.220230	0.362560	0.409400
O21	O2	0.233240	0.388410	0.305300
C11	C1	0.244370	0.387800	0.364360
C21	C2	0.290860	0.420140	0.382720
C31	C3	0.319540	0.448450	0.334830
H11	H1	0.309600	0.447700	0.291200
C41	C4	0.362640	0.477690	0.351690
H21	H2	0.382000	0.497300	0.319500
C51	C5	0.377850	0.478690	0.414780
C61	C6	0.348390	0.450660	0.462600
H31	H3	0.358000	0.451800	0.506600
C71	C7	0.305330	0.421290	0.445860
H41	H4	0.285800	0.401900	0.478100
C81	C8	0.424970	0.506050	0.431530
C91	C9	0.445100	0.487400	0.465720
H51	H5	0.428200	0.457500	0.477900
H61	H6	0.434000	0.611300	0.451600
O31	O3	0.886900	0.695890	0.742730
O41	O4	0.899910	0.721740	0.638630
C101	C10	0.911040	0.721130	0.697690
C111	C11	0.957530	0.753470	0.716050
C121	C12	0.986210	0.781780	0.668160
H71	H7	0.976270	0.781030	0.624530
C131	C13	0.029310	0.811020	0.685020
H81	H8	0.048670	0.830630	0.652830
C141	C14	0.044520	0.812020	0.748110
C151	C15	0.015060	0.783990	0.795930
H91	H9	0.024670	0.785130	0.839930
C161	C16	0.972000	0.754620	0.779190
H101	H10	0.952470	0.735230	0.811430
C171	C17	0.091640	0.839380	0.764860
C181	C18	0.111770	0.820730	0.799050
H111	H11	0.094870	0.790830	0.811230
H121	H12	0.100670	0.944630	0.784930
O51	O5	0.553560	0.029230	0.076070
O61	O6	0.566570	0.055080	0.971970
C191	C19	0.577700	0.054470	0.031030
C201	C20	0.624190	0.086810	0.049390
C211	C21	0.652870	0.115120	0.001500
H131	H13	0.642930	0.114370	0.957870
C221	C22	0.695970	0.144360	0.018360
H141	H14	0.715330	0.163970	0.986170
C231	C23	0.711180	0.145360	0.081450
C241	C24	0.681720	0.117330	0.129270
H151	H15	0.691330	0.118470	0.173270
C251	C25	0.638660	0.087960	0.112530
H161	H16	0.619130	0.068570	0.144770
C261	C26	0.758300	0.172720	0.098200
C271	C27	0.778430	0.154070	0.132390
H171	H17	0.761530	0.124170	0.144570
H181	H18	0.767330	0.277970	0.118270
O71	O7	0.637440	0.857670	0.409400
O81	O8	0.611590	0.844830	0.305300
C281	C28	0.612200	0.856570	0.364360
C291	C29	0.579860	0.870720	0.382720
C301	C30	0.551550	0.871090	0.334830
H191	H19	0.552300	0.861900	0.291200
C311	C31	0.522310	0.884950	0.351690
H201	H20	0.502700	0.884700	0.319500
C321	C32	0.521310	0.899160	0.414780
C331	C33	0.549340	0.897730	0.462600
H211	H21	0.548200	0.906200	0.506600
C341	C34	0.578710	0.884040	0.445860
H221	H22	0.598100	0.883900	0.478100
C351	C35	0.493950	0.918920	0.431530
C361	C36	0.512600	0.957700	0.465720
H231	H23	0.542500	0.970700	0.477900
H241	H24	0.388700	0.822700	0.451600
O91	O9	0.304110	0.191000	0.742730
O101	O10	0.278260	0.178160	0.638630
C371	C37	0.278870	0.189900	0.697690
C381	C38	0.246530	0.204050	0.716050
C391	C39	0.218220	0.204420	0.668160
H251	H25	0.218970	0.195230	0.624530
C401	C40	0.188980	0.218280	0.685020
H261	H26	0.169370	0.218030	0.652830
C411	C41	0.187980	0.232490	0.748110
C421	C42	0.216010	0.231060	0.795930
H271	H27	0.214870	0.239530	0.839930
C431	C43	0.245380	0.217370	0.779190
H281	H28	0.264770	0.217230	0.811430
C441	C44	0.160620	0.252250	0.764860
C451	C45	0.179270	0.291030	0.799050
H291	H29	0.209170	0.304030	0.811230
H301	H30	0.055370	0.156030	0.784930
O111	O11	0.970770	0.524340	0.076070
O121	O12	0.944920	0.511500	0.971970
C461	C46	0.945530	0.523240	0.031030
C471	C47	0.913190	0.537390	0.049390
C481	C48	0.884880	0.537760	0.001500
H311	H31	0.885630	0.528570	0.957870
C491	C49	0.855640	0.551620	0.018360
H321	H32	0.836030	0.551370	0.986170
C501	C50	0.854640	0.565830	0.081450
C511	C51	0.882670	0.564400	0.129270
H331	H33	0.881530	0.572870	0.173270
C521	C52	0.912040	0.550710	0.112530
H341	H34	0.931430	0.550570	0.144770
C531	C53	0.827280	0.585590	0.098200
C541	C54	0.845930	0.624370	0.132390
H351	H35	0.875830	0.637370	0.144570
H361	H36	0.722030	0.489370	0.118270
O131	O13	0.142330	0.779770	0.409400
O141	O14	0.155170	0.766760	0.305300
C551	C55	0.143430	0.755630	0.364360
C561	C56	0.129280	0.709140	0.382720
C571	C57	0.128910	0.680460	0.334830
H371	H37	0.138100	0.690400	0.291200
C581	C58	0.115050	0.637360	0.351690
H381	H38	0.115300	0.618000	0.319500
C591	C59	0.100840	0.622150	0.414780
C601	C60	0.102270	0.651610	0.462600
H391	H39	0.093800	0.642000	0.506600
C611	C61	0.115960	0.694670	0.445860
H401	H40	0.116100	0.714200	0.478100
C621	C62	0.081080	0.575030	0.431530
C631	C63	0.042300	0.554900	0.465720
H411	H41	0.029300	0.571800	0.477900
H421	H42	0.177300	0.566000	0.451600
O151	O15	0.809000	0.113100	0.742730
O161	O16	0.821840	0.100090	0.638630
C641	C64	0.810100	0.088960	0.697690
C651	C65	0.795950	0.042470	0.716050
C661	C66	0.795580	0.013790	0.668160
H431	H43	0.804770	0.023730	0.624530
C671	C67	0.781720	0.970690	0.685020
H441	H44	0.781970	0.951330	0.652830
C681	C68	0.767510	0.955480	0.748110
C691	C69	0.768940	0.984940	0.795930
H451	H45	0.760470	0.975330	0.839930
C701	C70	0.782630	0.028000	0.779190
H461	H46	0.782770	0.047530	0.811430
C711	C71	0.747750	0.908360	0.764860
C721	C72	0.708970	0.888230	0.799050
H471	H47	0.695970	0.905130	0.811230
H481	H48	0.843970	0.899330	0.784930
O171	O17	0.475660	0.446440	0.076070
O181	O18	0.488500	0.433430	0.971970
C731	C73	0.476760	0.422300	0.031030
C741	C74	0.462610	0.375810	0.049390
C751	C75	0.462240	0.347130	0.001500
H491	H49	0.471430	0.357070	0.957870
C761	C76	0.448380	0.304030	0.018360
H501	H50	0.448630	0.284670	0.986170
C771	C77	0.434170	0.288820	0.081450
C781	C78	0.435600	0.318280	0.129270
H511	H51	0.427130	0.308670	0.173270
C791	C79	0.449290	0.361340	0.112530
H521	H52	0.449430	0.380870	0.144770
C801	C80	0.414410	0.241700	0.098200
C811	C81	0.375630	0.221570	0.132390
H531	H53	0.362630	0.238470	0.144570
H541	H54	0.510630	0.232670	0.118270
O191	O19	0.362560	0.220230	0.590600
O201	O20	0.388410	0.233240	0.694700
C821	C82	0.387800	0.244370	0.635640
C831	C83	0.420140	0.290860	0.617280
C841	C84	0.448450	0.319540	0.665170
H551	H55	0.447700	0.309600	0.708800
C851	C85	0.477690	0.362640	0.648310
H561	H56	0.497300	0.382000	0.680500
C861	C86	0.478690	0.377850	0.585220
C871	C87	0.450660	0.348390	0.537400
H571	H57	0.451800	0.358000	0.493400
C881	C88	0.421290	0.305330	0.554140
H581	H58	0.401900	0.285800	0.521900
C891	C89	0.506050	0.424970	0.568470
C901	C90	0.487400	0.445100	0.534280
H591	H59	0.457500	0.428200	0.522100
H601	H60	0.611300	0.434000	0.548400
O211	O21	0.029230	0.553560	0.923930
O221	O22	0.055080	0.566570	0.028030
C911	C91	0.054470	0.577700	0.968970
C921	C92	0.086810	0.624190	0.950610
C931	C93	0.115120	0.652870	0.998500
H611	H61	0.114370	0.642930	0.042130
C941	C94	0.144360	0.695970	0.981640
H621	H62	0.163970	0.715330	0.013830
C951	C95	0.145360	0.711180	0.918550
C961	C96	0.117330	0.681720	0.870730
H631	H63	0.118470	0.691330	0.826730
C971	C97	0.087960	0.638660	0.887470
H641	H64	0.068570	0.619130	0.855230
C981	C98	0.172720	0.758300	0.901800
C991	C99	0.154070	0.778430	0.867610
H651	H65	0.124170	0.761530	0.855430
H661	H66	0.277970	0.767330	0.881730
O231	O23	0.695890	0.886900	0.257270
O241	O24	0.721740	0.899910	0.361370
C1001	C100	0.721130	0.911040	0.302310
C1011	C101	0.753470	0.957530	0.283950
C1021	C102	0.781780	0.986210	0.331840
H671	H67	0.781030	0.976270	0.375470
C1031	C103	0.811020	0.029310	0.314980
H681	H68	0.830630	0.048670	0.347170
C1041	C104	0.812020	0.044520	0.251890
C1051	C105	0.783990	0.015060	0.204070
H691	H69	0.785130	0.024670	0.160070
C1061	C106	0.754620	0.972000	0.220810
H701	H70	0.735230	0.952470	0.188570
C1071	C107	0.839380	0.091640	0.235140
C1081	C108	0.820730	0.111770	0.200950
H711	H71	0.790830	0.094870	0.188770
H721	H72	0.944630	0.100670	0.215070
O251	O25	0.857670	0.637440	0.590600
O261	O26	0.844830	0.611590	0.694700
C1091	C109	0.856570	0.612200	0.635640
C1101	C110	0.870720	0.579860	0.617280
C1111	C111	0.871090	0.551550	0.665170
H731	H73	0.861900	0.552300	0.708800
C1121	C112	0.884950	0.522310	0.648310
H741	H74	0.884700	0.502700	0.680500
C1131	C113	0.899160	0.521310	0.585220
C1141	C114	0.897730	0.549340	0.537400
H751	H75	0.906200	0.548200	0.493400
C1151	C115	0.884040	0.578710	0.554140
H761	H76	0.883900	0.598100	0.521900
C1161	C116	0.918920	0.493950	0.568470
C1171	C117	0.957700	0.512600	0.534280
H771	H77	0.970700	0.542500	0.522100
H781	H78	0.822700	0.388700	0.548400
O271	O27	0.524340	0.970770	0.923930
O281	O28	0.511500	0.944920	0.028030
C1181	C118	0.523240	0.945530	0.968970
C1191	C119	0.537390	0.913190	0.950610
C1201	C120	0.537760	0.884880	0.998500
H791	H79	0.528570	0.885630	0.042130
C1211	C121	0.551620	0.855640	0.981640
H801	H80	0.551370	0.836030	0.013830
C1221	C122	0.565830	0.854640	0.918550
C1231	C123	0.564400	0.882670	0.870730
H811	H81	0.572870	0.881530	0.826730
C1241	C124	0.550710	0.912040	0.887470
H821	H82	0.550570	0.931430	0.855230
C1251	C125	0.585590	0.827280	0.901800
C1261	C126	0.624370	0.845930	0.867610
H831	H83	0.637370	0.875830	0.855430
H841	H84	0.489370	0.722030	0.881730
O291	O29	0.191000	0.304110	0.257270
O301	O30	0.178160	0.278260	0.361370
C1271	C127	0.189900	0.278870	0.302310
C1281	C128	0.204050	0.246530	0.283950
C1291	C129	0.204420	0.218220	0.331840
H851	H85	0.195230	0.218970	0.375470
C1301	C130	0.218280	0.188980	0.314980
H861	H86	0.218030	0.169370	0.347170
C1311	C131	0.232490	0.187980	0.251890
C1321	C132	0.231060	0.216010	0.204070
H871	H87	0.239530	0.214870	0.160070
C1331	C133	0.217370	0.245380	0.220810
H881	H88	0.217230	0.264770	0.188570
C1341	C134	0.252250	0.160620	0.235140
C1351	C135	0.291030	0.179270	0.200950
H891	H89	0.304030	0.209170	0.188770
H901	H90	0.156030	0.055370	0.215070
O311	O31	0.779770	0.142330	0.590600
O321	O32	0.766760	0.155170	0.694700
C1361	C136	0.755630	0.143430	0.635640
C1371	C137	0.709140	0.129280	0.617280
C1381	C138	0.680460	0.128910	0.665170
H911	H91	0.690400	0.138100	0.708800
C1391	C139	0.637360	0.115050	0.648310
H921	H92	0.618000	0.115300	0.680500
C1401	C140	0.622150	0.100840	0.585220
C1411	C141	0.651610	0.102270	0.537400
H931	H93	0.642000	0.093800	0.493400
C1421	C142	0.694670	0.115960	0.554140
H941	H94	0.714200	0.116100	0.521900
C1431	C143	0.575030	0.081080	0.568470
C1441	C144	0.554900	0.042300	0.534280
H951	H95	0.571800	0.029300	0.522100
H961	H96	0.566000	0.177300	0.548400
O331	O33	0.446440	0.475660	0.923930
O341	O34	0.433430	0.488500	0.028030
C1451	C145	0.422300	0.476760	0.968970
C1461	C146	0.375810	0.462610	0.950610
C1471	C147	0.347130	0.462240	0.998500
H971	H97	0.357070	0.471430	0.042130
C1481	C148	0.304030	0.448380	0.981640
H981	H98	0.284670	0.448630	0.013830
C1491	C149	0.288820	0.434170	0.918550
C1501	C150	0.318280	0.435600	0.870730
H991	H99	0.308670	0.427130	0.826730
C1511	C151	0.361340	0.449290	0.887470
H1001	H100	0.380870	0.449430	0.855230
C1521	C152	0.241700	0.414410	0.901800
C1531	C153	0.221570	0.375630	0.867610
H1011	H101	0.238470	0.362630	0.855430
H1021	H102	0.232670	0.510630	0.881730
O351	O35	0.113100	0.809000	0.257270
O361	O36	0.100090	0.821840	0.361370
C1541	C154	0.088960	0.810100	0.302310
C1551	C155	0.042470	0.795950	0.283950
C1561	C156	0.013790	0.795580	0.331840
H1031	H103	0.023730	0.804770	0.375470
C1571	C157	0.970690	0.781720	0.314980
H1041	H104	0.951330	0.781970	0.347170
C1581	C158	0.955480	0.767510	0.251890
C1591	C159	0.984940	0.768940	0.204070
H1051	H105	0.975330	0.760470	0.160070
C1601	C160	0.028000	0.782630	0.220810
H1061	H106	0.047530	0.782770	0.188570
C1611	C161	0.908360	0.747750	0.235140
C1621	C162	0.888230	0.708970	0.200950
H1071	H107	0.905130	0.695970	0.188770
H1081	H108	0.899330	0.843970	0.215070
O371	O37	0.779770	0.637440	0.590600
O381	O38	0.766760	0.611590	0.694700
C1631	C163	0.755630	0.612200	0.635640
C1641	C164	0.709140	0.579860	0.617280
C1651	C165	0.680460	0.551550	0.665170
H1091	H109	0.690400	0.552300	0.708800
C1661	C166	0.637360	0.522310	0.648310
H1101	H110	0.618000	0.502700	0.680500
C1671	C167	0.622150	0.521310	0.585220
C1681	C168	0.651610	0.549340	0.537400
H1111	H111	0.642000	0.548200	0.493400
C1691	C169	0.694670	0.578710	0.554140
H1121	H112	0.714200	0.598100	0.521900
C1701	C170	0.575030	0.493950	0.568470
C1711	C171	0.554900	0.512600	0.534280
H1131	H113	0.571800	0.542500	0.522100
H1141	H114	0.566000	0.388700	0.548400
O391	O39	0.446440	0.970770	0.923930
O401	O40	0.433430	0.944920	0.028030
C1721	C172	0.422300	0.945530	0.968970
C1731	C173	0.375810	0.913190	0.950610
C1741	C174	0.347130	0.884880	0.998500
H1151	H115	0.357070	0.885630	0.042130
C1751	C175	0.304030	0.855640	0.981640
H1161	H116	0.284670	0.836030	0.013830
C1761	C176	0.288820	0.854640	0.918550
C1771	C177	0.318280	0.882670	0.870730
H1171	H117	0.308670	0.881530	0.826730
C1781	C178	0.361340	0.912040	0.887470
H1181	H118	0.380870	0.931430	0.855230
C1791	C179	0.241700	0.827280	0.901800
C1801	C180	0.221570	0.845930	0.867610
H1191	H119	0.238470	0.875830	0.855430
H1201	H120	0.232670	0.722030	0.881730
O411	O41	0.113100	0.304110	0.257270
O421	O42	0.100090	0.278260	0.361370
C1811	C181	0.088960	0.278870	0.302310
C1821	C182	0.042470	0.246530	0.283950
C1831	C183	0.013790	0.218220	0.331840
H1211	H121	0.023730	0.218970	0.375470
C1841	C184	0.970690	0.188980	0.314980
H1221	H122	0.951330	0.169370	0.347170
C1851	C185	0.955480	0.187980	0.251890
C1861	C186	0.984940	0.216010	0.204070
H1231	H123	0.975330	0.214870	0.160070
C1871	C187	0.028000	0.245380	0.220810
H1241	H124	0.047530	0.264770	0.188570
C1881	C188	0.908360	0.160620	0.235140
C1891	C189	0.888230	0.179270	0.200950
H1251	H125	0.905130	0.209170	0.188770
H1261	H126	0.899330	0.055370	0.215070
O431	O43	0.362560	0.142330	0.590600
O441	O44	0.388410	0.155170	0.694700
C1901	C190	0.387800	0.143430	0.635640
C1911	C191	0.420140	0.129280	0.617280
C1921	C192	0.448450	0.128910	0.665170
H1271	H127	0.447700	0.138100	0.708800
C1931	C193	0.477690	0.115050	0.648310
H1281	H128	0.497300	0.115300	0.680500
C1941	C194	0.478690	0.100840	0.585220
C1951	C195	0.450660	0.102270	0.537400
H1291	H129	0.451800	0.093800	0.493400
C1961	C196	0.421290	0.115960	0.554140
H1301	H130	0.401900	0.116100	0.521900
C1971	C197	0.506050	0.081080	0.568470
C1981	C198	0.487400	0.042300	0.534280
H1311	H131	0.457500	0.029300	0.522100
H1321	H132	0.611300	0.177300	0.548400
O451	O45	0.029230	0.475660	0.923930
O461	O46	0.055080	0.488500	0.028030
C1991	C199	0.054470	0.476760	0.968970
C2001	C200	0.086810	0.462610	0.950610
C2011	C201	0.115120	0.462240	0.998500
H1331	H133	0.114370	0.471430	0.042130
C2021	C202	0.144360	0.448380	0.981640
H1341	H134	0.163970	0.448630	0.013830
C2031	C203	0.145360	0.434170	0.918550
C2041	C204	0.117330	0.435600	0.870730
H1351	H135	0.118470	0.427130	0.826730
C2051	C205	0.087960	0.449290	0.887470
H1361	H136	0.068570	0.449430	0.855230
C2061	C206	0.172720	0.414410	0.901800
C2071	C207	0.154070	0.375630	0.867610
H1371	H137	0.124170	0.362630	0.855430
H1381	H138	0.277970	0.510630	0.881730
O471	O47	0.695890	0.809000	0.257270
O481	O48	0.721740	0.821840	0.361370
C2081	C208	0.721130	0.810100	0.302310
C2091	C209	0.753470	0.795950	0.283950
C2101	C210	0.781780	0.795580	0.331840
H1391	H139	0.781030	0.804770	0.375470
C2111	C211	0.811020	0.781720	0.314980
H1401	H140	0.830630	0.781970	0.347170
C2121	C212	0.812020	0.767510	0.251890
C2131	C213	0.783990	0.768940	0.204070
H1411	H141	0.785130	0.760470	0.160070
C2141	C214	0.754620	0.782630	0.220810
H1421	H142	0.735230	0.782770	0.188570
C2151	C215	0.839380	0.747750	0.235140
C2161	C216	0.820730	0.708970	0.200950
H1431	H143	0.790830	0.695970	0.188770
H1441	H144	0.944630	0.843970	0.215070
O491	O49	0.857670	0.220230	0.590600
O501	O50	0.844830	0.233240	0.694700
C2171	C217	0.856570	0.244370	0.635640
C2181	C218	0.870720	0.290860	0.617280
C2191	C219	0.871090	0.319540	0.665170
H1451	H145	0.861900	0.309600	0.708800
C2201	C220	0.884950	0.362640	0.648310
H1461	H146	0.884700	0.382000	0.680500
C2211	C221	0.899160	0.377850	0.585220
C2221	C222	0.897730	0.348390	0.537400
H1471	H147	0.906200	0.358000	0.493400
C2231	C223	0.884040	0.305330	0.554140
H1481	H148	0.883900	0.285800	0.521900
C2241	C224	0.918920	0.424970	0.568470
C2251	C225	0.957700	0.445100	0.534280
H1491	H149	0.970700	0.428200	0.522100
H1501	H150	0.822700	0.434000	0.548400
O511	O51	0.524340	0.553560	0.923930
O521	O52	0.511500	0.566570	0.028030
C2261	C226	0.523240	0.577700	0.968970
C2271	C227	0.537390	0.624190	0.950610
C2281	C228	0.537760	0.652870	0.998500
H1511	H151	0.528570	0.642930	0.042130
C2291	C229	0.551620	0.695970	0.981640
H1521	H152	0.551370	0.715330	0.013830
C2301	C230	0.565830	0.711180	0.918550
C2311	C231	0.564400	0.681720	0.870730
H1531	H153	0.572870	0.691330	0.826730
C2321	C232	0.550710	0.638660	0.887470
H1541	H154	0.550570	0.619130	0.855230
C2331	C233	0.585590	0.758300	0.901800
C2341	C234	0.624370	0.778430	0.867610
H1551	H155	0.637370	0.761530	0.855430
H1561	H156	0.489370	0.767330	0.881730
O531	O53	0.191000	0.886900	0.257270
O541	O54	0.178160	0.899910	0.361370
C2351	C235	0.189900	0.911040	0.302310
C2361	C236	0.204050	0.957530	0.283950
C2371	C237	0.204420	0.986210	0.331840
H1571	H157	0.195230	0.976270	0.375470
C2381	C238	0.218280	0.029310	0.314980
H1581	H158	0.218030	0.048670	0.347170
C2391	C239	0.232490	0.044520	0.251890
C2401	C240	0.231060	0.015060	0.204070
H1591	H159	0.239530	0.024670	0.160070
C2411	C241	0.217370	0.972000	0.220810
H1601	H160	0.217230	0.952470	0.188570
C2421	C242	0.252250	0.091640	0.235140
C2431	C243	0.291030	0.111770	0.200950
H1611	H161	0.304030	0.094870	0.188770
H1621	H162	0.156030	0.100670	0.215070
O551	O55	0.637440	0.779770	0.409400
O561	O56	0.611590	0.766760	0.305300
C2441	C244	0.612200	0.755630	0.364360
C2451	C245	0.579860	0.709140	0.382720
C2461	C246	0.551550	0.680460	0.334830
H1631	H163	0.552300	0.690400	0.291200
C2471	C247	0.522310	0.637360	0.351690
H1641	H164	0.502700	0.618000	0.319500
C2481	C248	0.521310	0.622150	0.414780
C2491	C249	0.549340	0.651610	0.462600
H1651	H165	0.548200	0.642000	0.506600
C2501	C250	0.578710	0.694670	0.445860
H1661	H166	0.598100	0.714200	0.478100
C2511	C251	0.493950	0.575030	0.431530
C2521	C252	0.512600	0.554900	0.465720
H1671	H167	0.542500	0.571800	0.477900
H1681	H168	0.388700	0.566000	0.451600
O571	O57	0.304110	0.113100	0.742730
O581	O58	0.278260	0.100090	0.638630
C2531	C253	0.278870	0.088960	0.697690
C2541	C254	0.246530	0.042470	0.716050
C2551	C255	0.218220	0.013790	0.668160
H1691	H169	0.218970	0.023730	0.624530
C2561	C256	0.188980	0.970690	0.685020
H1701	H170	0.169370	0.951330	0.652830
C2571	C257	0.187980	0.955480	0.748110
C2581	C258	0.216010	0.984940	0.795930
H1711	H171	0.214870	0.975330	0.839930
C2591	C259	0.245380	0.028000	0.779190
H1721	H172	0.264770	0.047530	0.811430
C2601	C260	0.160620	0.908360	0.764860
C2611	C261	0.179270	0.888230	0.799050
H1731	H173	0.209170	0.905130	0.811230
H1741	H174	0.055370	0.899330	0.784930
O591	O59	0.970770	0.446440	0.076070
O601	O60	0.944920	0.433430	0.971970
C2621	C262	0.945530	0.422300	0.031030
C2631	C263	0.913190	0.375810	0.049390
C2641	C264	0.884880	0.347130	0.001500
H1751	H175	0.885630	0.357070	0.957870
C2651	C265	0.855640	0.304030	0.018360
H1761	H176	0.836030	0.284670	0.986170
C2661	C266	0.854640	0.288820	0.081450
C2671	C267	0.882670	0.318280	0.129270
H1771	H177	0.881530	0.308670	0.173270
C2681	C268	0.912040	0.361340	0.112530
H1781	H178	0.931430	0.380870	0.144770
C2691	C269	0.827280	0.241700	0.098200
C2701	C270	0.845930	0.221570	0.132390
H1791	H179	0.875830	0.238470	0.144570
H1801	H180	0.722030	0.232670	0.118270
O611	O61	0.142330	0.362560	0.409400
O621	O62	0.155170	0.388410	0.305300
C2711	C271	0.143430	0.387800	0.364360
C2721	C272	0.129280	0.420140	0.382720
C2731	C273	0.128910	0.448450	0.334830
H1811	H181	0.138100	0.447700	0.291200
C2741	C274	0.115050	0.477690	0.351690
H1821	H182	0.115300	0.497300	0.319500
C2751	C275	0.100840	0.478690	0.414780
C2761	C276	0.102270	0.450660	0.462600
H1831	H183	0.093800	0.451800	0.506600
C2771	C277	0.115960	0.421290	0.445860
H1841	H184	0.116100	0.401900	0.478100
C2781	C278	0.081080	0.506050	0.431530
C2791	C279	0.042300	0.487400	0.465720
H1851	H185	0.029300	0.457500	0.477900
H1861	H186	0.177300	0.611300	0.451600
O631	O63	0.809000	0.695890	0.742730
O641	O64	0.821840	0.721740	0.638630
C2801	C280	0.810100	0.721130	0.697690
C2811	C281	0.795950	0.753470	0.716050
C2821	C282	0.795580	0.781780	0.668160
H1871	H187	0.804770	0.781030	0.624530
C2831	C283	0.781720	0.811020	0.685020
H1881	H188	0.781970	0.830630	0.652830
C2841	C284	0.767510	0.812020	0.748110
C2851	C285	0.768940	0.783990	0.795930
H1891	H189	0.760470	0.785130	0.839930
C2861	C286	0.782630	0.754620	0.779190
H1901	H190	0.782770	0.735230	0.811430
C2871	C287	0.747750	0.839380	0.764860
C2881	C288	0.708970	0.820730	0.799050
H1911	H191	0.695970	0.790830	0.811230
H1921	H192	0.843970	0.944630	0.784930
O651	O65	0.475660	0.029230	0.076070
O661	O66	0.488500	0.055080	0.971970
C2891	C289	0.476760	0.054470	0.031030
C2901	C290	0.462610	0.086810	0.049390
C2911	C291	0.462240	0.115120	0.001500
H1931	H193	0.471430	0.114370	0.957870
C2921	C292	0.448380	0.144360	0.018360
H1941	H194	0.448630	0.163970	0.986170
C2931	C293	0.434170	0.145360	0.081450
C2941	C294	0.435600	0.117330	0.129270
H1951	H195	0.427130	0.118470	0.173270
C2951	C295	0.449290	0.087960	0.112530
H1961	H196	0.449430	0.068570	0.144770
C2961	C296	0.414410	0.172720	0.098200
C2971	C297	0.375630	0.154070	0.132390
H1971	H197	0.362630	0.124170	0.144570
H1981	H198	0.510630	0.277970	0.118270
O671	O67	0.220230	0.857670	0.409400
O681	O68	0.233240	0.844830	0.305300
C2981	C298	0.244370	0.856570	0.364360
C2991	C299	0.290860	0.870720	0.382720
C3001	C300	0.319540	0.871090	0.334830
H1991	H199	0.309600	0.861900	0.291200
C3011	C301	0.362640	0.884950	0.351690
H2001	H200	0.382000	0.884700	0.319500
C3021	C302	0.377850	0.899160	0.414780
C3031	C303	0.348390	0.897730	0.462600
H2011	H201	0.358000	0.906200	0.506600
C3041	C304	0.305330	0.884040	0.445860
H2021	H202	0.285800	0.883900	0.478100
C3051	C305	0.424970	0.918920	0.431530
C3061	C306	0.445100	0.957700	0.465720
H2031	H203	0.428200	0.970700	0.477900
H2041	H204	0.434000	0.822700	0.451600
O691	O69	0.886900	0.191000	0.742730
O701	O70	0.899910	0.178160	0.638630
C3071	C307	0.911040	0.189900	0.697690
C3081	C308	0.957530	0.204050	0.716050
C3091	C309	0.986210	0.204420	0.668160
H2051	H205	0.976270	0.195230	0.624530
C3101	C310	0.029310	0.218280	0.685020
H2061	H206	0.048670	0.218030	0.652830
C3111	C311	0.044520	0.232490	0.748110
C3121	C312	0.015060	0.231060	0.795930
H2071	H207	0.024670	0.239530	0.839930
C3131	C313	0.972000	0.217370	0.779190
H2081	H208	0.952470	0.217230	0.811430
C3141	C314	0.091640	0.252250	0.764860
C3151	C315	0.111770	0.291030	0.799050
H2091	H209	0.094870	0.304030	0.811230
H2101	H210	0.100670	0.156030	0.784930
O711	O71	0.553560	0.524340	0.076070
O721	O72	0.566570	0.511500	0.971970
C3161	C316	0.577700	0.523240	0.031030
C3171	C317	0.624190	0.537390	0.049390
C3181	C318	0.652870	0.537760	0.001500
H2111	H211	0.642930	0.528570	0.957870
C3191	C319	0.695970	0.551620	0.018360
H2121	H212	0.715330	0.551370	0.986170
C3201	C320	0.711180	0.565830	0.081450
C3211	C321	0.681720	0.564400	0.129270
H2131	H213	0.691330	0.572870	0.173270
C3221	C322	0.638660	0.550710	0.112530
H2141	H214	0.619130	0.550570	0.144770
C3231	C323	0.758300	0.585590	0.098200
C3241	C324	0.778430	0.624370	0.132390
H2151	H215	0.761530	0.637370	0.144570
H2161	H216	0.767330	0.489370	0.118270
Cu11	Cu1	0.174260	0.348530	0.272570
Cu21	Cu2	0.840930	0.681860	0.605900
Cu31	Cu3	0.507600	0.015200	0.939240
Cu41	Cu4	0.651470	0.825740	0.272570
Cu51	Cu5	0.318140	0.159070	0.605900
Cu61	Cu6	0.984800	0.492400	0.939240
Cu71	Cu7	0.174270	0.825740	0.272570
Cu81	Cu8	0.840930	0.159070	0.605900
Cu91	Cu9	0.507600	0.492400	0.939240
Cu101	Cu10	0.348530	0.174260	0.727430
Cu111	Cu11	0.015200	0.507600	0.060760
Cu121	Cu12	0.681860	0.840930	0.394100
Cu131	Cu13	0.825740	0.651470	0.727430
Cu141	Cu14	0.492400	0.984800	0.060760
Cu151	Cu15	0.159070	0.318140	0.394100
Cu161	Cu16	0.825740	0.174270	0.727430
Cu171	Cu17	0.492400	0.507600	0.060760
Cu181	Cu18	0.159070	0.840930	0.394100
O731	O73	0.429940	0.570060	0.379830
C3251	C325	0.489460	0.510540	0.483400
C3261	C326	0.449660	0.550340	0.413980
C3271	C327	0.410950	0.589050	0.423900
H2171	H217	0.397500	0.602500	0.397700
O741	O74	0.096610	0.903390	0.713160
C3281	C328	0.156130	0.843870	0.816730
C3291	C329	0.116330	0.883670	0.747310
C3301	C330	0.077620	0.922380	0.757230
H2181	H218	0.064170	0.935830	0.731030
O751	O75	0.763270	0.236730	0.046500
C3311	C331	0.822790	0.177210	0.150070
C3321	C332	0.782990	0.217010	0.080650
C3331	C333	0.744280	0.255720	0.090570
H2191	H219	0.730830	0.269170	0.064370
O761	O76	0.429940	0.859880	0.379830
C3341	C334	0.489460	0.978920	0.483400
C3351	C335	0.449660	0.899320	0.413980
C3361	C336	0.410950	0.821900	0.423900
H2201	H220	0.397500	0.795000	0.397700
O771	O77	0.096610	0.193210	0.713160
C3371	C337	0.156130	0.312250	0.816730
C3381	C338	0.116330	0.232650	0.747310
C3391	C339	0.077620	0.155230	0.757230
H2211	H221	0.064170	0.128330	0.731030
O781	O78	0.763270	0.526550	0.046500
C3401	C340	0.822790	0.645590	0.150070
C3411	C341	0.782990	0.565990	0.080650
C3421	C342	0.744280	0.488570	0.090570
H2221	H222	0.730830	0.461670	0.064370
O791	O79	0.140120	0.570060	0.379830
C3431	C343	0.021080	0.510540	0.483400
C3441	C344	0.100680	0.550340	0.413980
C3451	C345	0.178100	0.589050	0.423900
H2231	H223	0.205000	0.602500	0.397700
O801	O80	0.806790	0.903390	0.713160
C3461	C346	0.687750	0.843870	0.816730
C3471	C347	0.767350	0.883670	0.747310
C3481	C348	0.844770	0.922380	0.757230
H2241	H224	0.871670	0.935830	0.731030
O811	O81	0.473450	0.236730	0.046500
C3491	C349	0.354410	0.177210	0.150070
C3501	C350	0.434010	0.217010	0.080650
C3511	C351	0.511430	0.255720	0.090570
H2251	H225	0.538330	0.269170	0.064370
O821	O82	0.570060	0.429940	0.620170
C3521	C352	0.510540	0.489460	0.516600
C3531	C353	0.550340	0.449660	0.586020
C3541	C354	0.589050	0.410950	0.576100
H2261	H226	0.602500	0.397500	0.602300
O831	O83	0.236730	0.763270	0.953500
C3551	C355	0.177210	0.822790	0.849930
C3561	C356	0.217010	0.782990	0.919350
C3571	C357	0.255720	0.744280	0.909430
H2271	H227	0.269170	0.730830	0.935630
O841	O84	0.903390	0.096610	0.286840
C3581	C358	0.843870	0.156130	0.183270
C3591	C359	0.883670	0.116330	0.252690
C3601	C360	0.922380	0.077620	0.242770
H2281	H228	0.935830	0.064170	0.268970
O851	O85	0.859880	0.429940	0.620170
C3611	C361	0.978920	0.489460	0.516600
C3621	C362	0.899320	0.449660	0.586020
C3631	C363	0.821900	0.410950	0.576100
H2291	H229	0.795000	0.397500	0.602300
O861	O86	0.526550	0.763270	0.953500
C3641	C364	0.645590	0.822790	0.849930
C3651	C365	0.565990	0.782990	0.919350
C3661	C366	0.488570	0.744280	0.909430
H2301	H230	0.461670	0.730830	0.935630
O871	O87	0.193210	0.096610	0.286840
C3671	C367	0.312250	0.156130	0.183270
C3681	C368	0.232650	0.116330	0.252690
C3691	C369	0.155230	0.077620	0.242770
H2311	H231	0.128330	0.064170	0.268970
O881	O88	0.570060	0.140120	0.620170
C3701	C370	0.510540	0.021080	0.516600
C3711	C371	0.550340	0.100680	0.586020
C3721	C372	0.589050	0.178100	0.576100
H2321	H232	0.602500	0.205000	0.602300
O891	O89	0.236730	0.473450	0.953500
C3731	C373	0.177210	0.354410	0.849930
C3741	C374	0.217010	0.434010	0.919350
C3751	C375	0.255720	0.511430	0.909430
H2331	H233	0.269170	0.538330	0.935630
O901	O90	0.903390	0.806790	0.286840
C3761	C376	0.843870	0.687750	0.183270
C3771	C377	0.883670	0.767350	0.252690
C3781	C378	0.922380	0.844770	0.242770
H2341	H234	0.935830	0.871670	0.268970
