data_UMOVEZ_clean_PM
_symmetry_space_group_name_H-M	'P1'
_cell_length_a	35.019800
_cell_length_b	35.019800
_cell_length_c	22.902000
_cell_angle_alpha	90.000000
_cell_angle_beta	90.000000
_cell_angle_gamma	120.000000
_symmetry_Int_Tables_number 1

loop_
_symmetry_equiv_pos_as_xyz
'x,y,z'

loop_
_atom_site_label
_atom_site_type_symbol
_atom_site_fract_x
_atom_site_fract_y
_atom_site_fract_z
O11	O1	0.234270	0.389560	0.310660
O21	O2	0.191950	0.305350	0.265620
C11	C1	0.244640	0.387280	0.361940
C21	C2	0.291500	0.418740	0.380540
C31	C3	0.322270	0.446940	0.339550
C41	C4	0.305320	0.419160	0.435330
H11	H1	0.313700	0.446400	0.301000
C51	C5	0.365180	0.475550	0.355920
C61	C6	0.348010	0.447800	0.452990
H21	H2	0.285400	0.399400	0.462400
H31	H3	0.385000	0.494800	0.328500
C71	C7	0.379080	0.476100	0.411860
H41	H4	0.356100	0.448400	0.491800
C81	C8	0.426290	0.504510	0.429960
C91	C9	0.446110	0.486310	0.464530
H51	H5	0.429300	0.456900	0.475500
H61	H6	0.434400	0.610400	0.434700
O31	O3	0.900940	0.722890	0.643990
O41	O4	0.858620	0.638680	0.598950
C101	C10	0.911310	0.720610	0.695270
C111	C11	0.958170	0.752070	0.713870
C121	C12	0.988940	0.780270	0.672880
C131	C13	0.971990	0.752490	0.768660
H71	H7	0.980370	0.779730	0.634330
C141	C14	0.031850	0.808880	0.689250
C151	C15	0.014680	0.781130	0.786320
H81	H8	0.952070	0.732730	0.795730
H91	H9	0.051670	0.828130	0.661830
C161	C16	0.045750	0.809430	0.745190
H101	H10	0.022770	0.781730	0.825130
C171	C17	0.092960	0.837840	0.763290
C181	C18	0.112780	0.819640	0.797860
H111	H11	0.095970	0.790230	0.808830
H121	H12	0.101070	0.943730	0.768030
O51	O5	0.567600	0.056230	0.977330
O61	O6	0.525280	0.972020	0.932290
C191	C19	0.577970	0.053950	0.028610
C201	C20	0.624830	0.085410	0.047210
C211	C21	0.655600	0.113610	0.006220
C221	C22	0.638650	0.085830	0.102000
H131	H13	0.647030	0.113070	0.967670
C231	C23	0.698510	0.142220	0.022590
C241	C24	0.681340	0.114470	0.119660
H141	H14	0.618730	0.066070	0.129070
H151	H15	0.718330	0.161470	0.995170
C251	C25	0.712410	0.142770	0.078530
H161	H16	0.689430	0.115070	0.158470
C261	C26	0.759620	0.171180	0.096630
C271	C27	0.779440	0.152980	0.131200
H171	H17	0.762630	0.123570	0.142170
H181	H18	0.767730	0.277070	0.101370
O71	O7	0.610440	0.844710	0.310660
O81	O8	0.694650	0.886600	0.265620
C281	C28	0.612720	0.857360	0.361940
C291	C29	0.581260	0.872760	0.380540
C301	C30	0.553060	0.875330	0.339550
C311	C31	0.580840	0.886160	0.435330
H191	H19	0.553600	0.867300	0.301000
C321	C32	0.524450	0.889630	0.355920
C331	C33	0.552200	0.900210	0.452990
H201	H20	0.600600	0.886000	0.462400
H211	H21	0.505200	0.890200	0.328500
C341	C34	0.523900	0.902980	0.411860
H221	H22	0.551600	0.907700	0.491800
C351	C35	0.495490	0.921780	0.429960
C361	C36	0.513690	0.959800	0.464530
H231	H23	0.543100	0.972400	0.475500
H241	H24	0.389600	0.824000	0.434700
O91	O9	0.277110	0.178040	0.643990
O101	O10	0.361320	0.219930	0.598950
C371	C37	0.279390	0.190690	0.695270
C381	C38	0.247930	0.206090	0.713870
C391	C39	0.219730	0.208660	0.672880
C401	C40	0.247510	0.219490	0.768660
H251	H25	0.220270	0.200630	0.634330
C411	C41	0.191120	0.222960	0.689250
C421	C42	0.218870	0.233540	0.786320
H261	H26	0.267270	0.219330	0.795730
H271	H27	0.171870	0.223530	0.661830
C431	C43	0.190570	0.236310	0.745190
H281	H28	0.218270	0.241030	0.825130
C441	C44	0.162160	0.255110	0.763290
C451	C45	0.180360	0.293130	0.797860
H291	H29	0.209770	0.305730	0.808830
H301	H30	0.056270	0.157330	0.768030
O111	O11	0.943770	0.511380	0.977330
O121	O12	0.027980	0.553270	0.932290
C461	C46	0.946050	0.524030	0.028610
C471	C47	0.914590	0.539430	0.047210
C481	C48	0.886390	0.542000	0.006220
C491	C49	0.914170	0.552830	0.102000
H311	H31	0.886930	0.533970	0.967670
C501	C50	0.857780	0.556300	0.022590
C511	C51	0.885530	0.566880	0.119660
H321	H32	0.933930	0.552670	0.129070
H331	H33	0.838530	0.556870	0.995170
C521	C52	0.857230	0.569650	0.078530
H341	H34	0.884930	0.574370	0.158470
C531	C53	0.828820	0.588450	0.096630
C541	C54	0.847020	0.626470	0.131200
H351	H35	0.876430	0.639070	0.142170
H361	H36	0.722930	0.490670	0.101370
O131	O13	0.155290	0.765730	0.310660
O141	O14	0.113400	0.808050	0.265620
C551	C55	0.142640	0.755360	0.361940
C561	C56	0.127240	0.708500	0.380540
C571	C57	0.124670	0.677730	0.339550
C581	C58	0.113840	0.694680	0.435330
H371	H37	0.132700	0.686300	0.301000
C591	C59	0.110370	0.634820	0.355920
C601	C60	0.099790	0.651990	0.452990
H381	H38	0.114000	0.714600	0.462400
H391	H39	0.109800	0.615000	0.328500
C611	C61	0.097020	0.620920	0.411860
H401	H40	0.092300	0.643900	0.491800
C621	C62	0.078220	0.573710	0.429960
C631	C63	0.040200	0.553890	0.464530
H411	H41	0.027600	0.570700	0.475500
H421	H42	0.176000	0.565600	0.434700
O151	O15	0.821960	0.099060	0.643990
O161	O16	0.780070	0.141380	0.598950
C641	C64	0.809310	0.088690	0.695270
C651	C65	0.793910	0.041830	0.713870
C661	C66	0.791340	0.011060	0.672880
C671	C67	0.780510	0.028010	0.768660
H431	H43	0.799370	0.019630	0.634330
C681	C68	0.777040	0.968150	0.689250
C691	C69	0.766460	0.985320	0.786320
H441	H44	0.780670	0.047930	0.795730
H451	H45	0.776470	0.948330	0.661830
C701	C70	0.763690	0.954250	0.745190
H461	H46	0.758970	0.977230	0.825130
C711	C71	0.744890	0.907040	0.763290
C721	C72	0.706870	0.887220	0.797860
H471	H47	0.694270	0.904030	0.808830
H481	H48	0.842670	0.898930	0.768030
O171	O17	0.488620	0.432400	0.977330
O181	O18	0.446730	0.474720	0.932290
C731	C73	0.475970	0.422030	0.028610
C741	C74	0.460570	0.375170	0.047210
C751	C75	0.458000	0.344400	0.006220
C761	C76	0.447170	0.361350	0.102000
H491	H49	0.466030	0.352970	0.967670
C771	C77	0.443700	0.301490	0.022590
C781	C78	0.433120	0.318660	0.119660
H501	H50	0.447330	0.381270	0.129070
H511	H51	0.443130	0.281670	0.995170
C791	C79	0.430350	0.287590	0.078530
H521	H52	0.425630	0.310570	0.158470
C801	C80	0.411550	0.240380	0.096630
C811	C81	0.373530	0.220560	0.131200
H531	H53	0.360930	0.237370	0.142170
H541	H54	0.509330	0.232270	0.101370
O191	O19	0.389560	0.234270	0.689340
O201	O20	0.305350	0.191950	0.734380
C821	C82	0.387280	0.244640	0.638060
C831	C83	0.418740	0.291500	0.619460
C841	C84	0.446940	0.322270	0.660450
C851	C85	0.419160	0.305320	0.564670
H551	H55	0.446400	0.313700	0.699000
C861	C86	0.475550	0.365180	0.644080
C871	C87	0.447800	0.348010	0.547010
H561	H56	0.399400	0.285400	0.537600
H571	H57	0.494800	0.385000	0.671500
C881	C88	0.476100	0.379080	0.588140
H581	H58	0.448400	0.356100	0.508200
C891	C89	0.504510	0.426290	0.570040
C901	C90	0.486310	0.446110	0.535470
H591	H59	0.456900	0.429300	0.524500
H601	H60	0.610400	0.434400	0.565300
O211	O21	0.056230	0.567600	0.022670
O221	O22	0.972020	0.525280	0.067710
C911	C91	0.053950	0.577970	0.971390
C921	C92	0.085410	0.624830	0.952790
C931	C93	0.113610	0.655600	0.993780
C941	C94	0.085830	0.638650	0.898000
H611	H61	0.113070	0.647030	0.032330
C951	C95	0.142220	0.698510	0.977410
C961	C96	0.114470	0.681340	0.880340
H621	H62	0.066070	0.618730	0.870930
H631	H63	0.161470	0.718330	0.004830
C971	C97	0.142770	0.712410	0.921470
H641	H64	0.115070	0.689430	0.841530
C981	C98	0.171180	0.759620	0.903370
C991	C99	0.152980	0.779440	0.868800
H651	H65	0.123570	0.762630	0.857830
H661	H66	0.277070	0.767730	0.898630
O231	O23	0.722890	0.900940	0.356010
O241	O24	0.638680	0.858620	0.401050
C1001	C100	0.720610	0.911310	0.304730
C1011	C101	0.752070	0.958170	0.286130
C1021	C102	0.780270	0.988940	0.327120
C1031	C103	0.752490	0.971990	0.231340
H671	H67	0.779730	0.980370	0.365670
C1041	C104	0.808880	0.031850	0.310750
C1051	C105	0.781130	0.014680	0.213680
H681	H68	0.732730	0.952070	0.204270
H691	H69	0.828130	0.051670	0.338170
C1061	C106	0.809430	0.045750	0.254810
H701	H70	0.781730	0.022770	0.174870
C1071	C107	0.837840	0.092960	0.236710
C1081	C108	0.819640	0.112780	0.202140
H711	H71	0.790230	0.095970	0.191170
H721	H72	0.943730	0.101070	0.231970
O251	O25	0.844710	0.610440	0.689340
O261	O26	0.886600	0.694650	0.734380
C1091	C109	0.857360	0.612720	0.638060
C1101	C110	0.872760	0.581260	0.619460
C1111	C111	0.875330	0.553060	0.660450
C1121	C112	0.886160	0.580840	0.564670
H731	H73	0.867300	0.553600	0.699000
C1131	C113	0.889630	0.524450	0.644080
C1141	C114	0.900210	0.552200	0.547010
H741	H74	0.886000	0.600600	0.537600
H751	H75	0.890200	0.505200	0.671500
C1151	C115	0.902980	0.523900	0.588140
H761	H76	0.907700	0.551600	0.508200
C1161	C116	0.921780	0.495490	0.570040
C1171	C117	0.959800	0.513690	0.535470
H771	H77	0.972400	0.543100	0.524500
H781	H78	0.824000	0.389600	0.565300
O271	O27	0.511380	0.943770	0.022670
O281	O28	0.553270	0.027980	0.067710
C1181	C118	0.524030	0.946050	0.971390
C1191	C119	0.539430	0.914590	0.952790
C1201	C120	0.542000	0.886390	0.993780
C1211	C121	0.552830	0.914170	0.898000
H791	H79	0.533970	0.886930	0.032330
C1221	C122	0.556300	0.857780	0.977410
C1231	C123	0.566880	0.885530	0.880340
H801	H80	0.552670	0.933930	0.870930
H811	H81	0.556870	0.838530	0.004830
C1241	C124	0.569650	0.857230	0.921470
H821	H82	0.574370	0.884930	0.841530
C1251	C125	0.588450	0.828820	0.903370
C1261	C126	0.626470	0.847020	0.868800
H831	H83	0.639070	0.876430	0.857830
H841	H84	0.490670	0.722930	0.898630
O291	O29	0.178040	0.277110	0.356010
O301	O30	0.219930	0.361320	0.401050
C1271	C127	0.190690	0.279390	0.304730
C1281	C128	0.206090	0.247930	0.286130
C1291	C129	0.208660	0.219730	0.327120
C1301	C130	0.219490	0.247510	0.231340
H851	H85	0.200630	0.220270	0.365670
C1311	C131	0.222960	0.191120	0.310750
C1321	C132	0.233540	0.218870	0.213680
H861	H86	0.219330	0.267270	0.204270
H871	H87	0.223530	0.171870	0.338170
C1331	C133	0.236310	0.190570	0.254810
H881	H88	0.241030	0.218270	0.174870
C1341	C134	0.255110	0.162160	0.236710
C1351	C135	0.293130	0.180360	0.202140
H891	H89	0.305730	0.209770	0.191170
H901	H90	0.157330	0.056270	0.231970
O311	O31	0.765730	0.155290	0.689340
O321	O32	0.808050	0.113400	0.734380
C1361	C136	0.755360	0.142640	0.638060
C1371	C137	0.708500	0.127240	0.619460
C1381	C138	0.677730	0.124670	0.660450
C1391	C139	0.694680	0.113840	0.564670
H911	H91	0.686300	0.132700	0.699000
C1401	C140	0.634820	0.110370	0.644080
C1411	C141	0.651990	0.099790	0.547010
H921	H92	0.714600	0.114000	0.537600
H931	H93	0.615000	0.109800	0.671500
C1421	C142	0.620920	0.097020	0.588140
H941	H94	0.643900	0.092300	0.508200
C1431	C143	0.573710	0.078220	0.570040
C1441	C144	0.553890	0.040200	0.535470
H951	H95	0.570700	0.027600	0.524500
H961	H96	0.565600	0.176000	0.565300
O331	O33	0.432400	0.488620	0.022670
O341	O34	0.474720	0.446730	0.067710
C1451	C145	0.422030	0.475970	0.971390
C1461	C146	0.375170	0.460570	0.952790
C1471	C147	0.344400	0.458000	0.993780
C1481	C148	0.361350	0.447170	0.898000
H971	H97	0.352970	0.466030	0.032330
C1491	C149	0.301490	0.443700	0.977410
C1501	C150	0.318660	0.433120	0.880340
H981	H98	0.381270	0.447330	0.870930
H991	H99	0.281670	0.443130	0.004830
C1511	C151	0.287590	0.430350	0.921470
H1001	H100	0.310570	0.425630	0.841530
C1521	C152	0.240380	0.411550	0.903370
C1531	C153	0.220560	0.373530	0.868800
H1011	H101	0.237370	0.360930	0.857830
H1021	H102	0.232270	0.509330	0.898630
O351	O35	0.099060	0.821960	0.356010
O361	O36	0.141380	0.780070	0.401050
C1541	C154	0.088690	0.809310	0.304730
C1551	C155	0.041830	0.793910	0.286130
C1561	C156	0.011060	0.791340	0.327120
C1571	C157	0.028010	0.780510	0.231340
H1031	H103	0.019630	0.799370	0.365670
C1581	C158	0.968150	0.777040	0.310750
C1591	C159	0.985320	0.766460	0.213680
H1041	H104	0.047930	0.780670	0.204270
H1051	H105	0.948330	0.776470	0.338170
C1601	C160	0.954250	0.763690	0.254810
H1061	H106	0.977230	0.758970	0.174870
C1611	C161	0.907040	0.744890	0.236710
C1621	C162	0.887220	0.706870	0.202140
H1071	H107	0.904030	0.694270	0.191170
H1081	H108	0.898930	0.842670	0.231970
O371	O37	0.765730	0.610440	0.689340
O381	O38	0.808050	0.694650	0.734380
C1631	C163	0.755360	0.612720	0.638060
C1641	C164	0.708500	0.581260	0.619460
C1651	C165	0.677730	0.553060	0.660450
C1661	C166	0.694680	0.580840	0.564670
H1091	H109	0.686300	0.553600	0.699000
C1671	C167	0.634820	0.524450	0.644080
C1681	C168	0.651990	0.552200	0.547010
H1101	H110	0.714600	0.600600	0.537600
H1111	H111	0.615000	0.505200	0.671500
C1691	C169	0.620920	0.523900	0.588140
H1121	H112	0.643900	0.551600	0.508200
C1701	C170	0.573710	0.495490	0.570040
C1711	C171	0.553890	0.513690	0.535470
H1131	H113	0.570700	0.543100	0.524500
H1141	H114	0.565600	0.389600	0.565300
O391	O39	0.432400	0.943770	0.022670
O401	O40	0.474720	0.027980	0.067710
C1721	C172	0.422030	0.946050	0.971390
C1731	C173	0.375170	0.914590	0.952790
C1741	C174	0.344400	0.886390	0.993780
C1751	C175	0.361350	0.914170	0.898000
H1151	H115	0.352970	0.886930	0.032330
C1761	C176	0.301490	0.857780	0.977410
C1771	C177	0.318660	0.885530	0.880340
H1161	H116	0.381270	0.933930	0.870930
H1171	H117	0.281670	0.838530	0.004830
C1781	C178	0.287590	0.857230	0.921470
H1181	H118	0.310570	0.884930	0.841530
C1791	C179	0.240380	0.828820	0.903370
C1801	C180	0.220560	0.847020	0.868800
H1191	H119	0.237370	0.876430	0.857830
H1201	H120	0.232270	0.722930	0.898630
O411	O41	0.099060	0.277110	0.356010
O421	O42	0.141380	0.361320	0.401050
C1811	C181	0.088690	0.279390	0.304730
C1821	C182	0.041830	0.247930	0.286130
C1831	C183	0.011060	0.219730	0.327120
C1841	C184	0.028010	0.247510	0.231340
H1211	H121	0.019630	0.220270	0.365670
C1851	C185	0.968150	0.191120	0.310750
C1861	C186	0.985320	0.218870	0.213680
H1221	H122	0.047930	0.267270	0.204270
H1231	H123	0.948330	0.171870	0.338170
C1871	C187	0.954250	0.190570	0.254810
H1241	H124	0.977230	0.218270	0.174870
C1881	C188	0.907040	0.162160	0.236710
C1891	C189	0.887220	0.180360	0.202140
H1251	H125	0.904030	0.209770	0.191170
H1261	H126	0.898930	0.056270	0.231970
O431	O43	0.389560	0.155290	0.689340
O441	O44	0.305350	0.113400	0.734380
C1901	C190	0.387280	0.142640	0.638060
C1911	C191	0.418740	0.127240	0.619460
C1921	C192	0.446940	0.124670	0.660450
C1931	C193	0.419160	0.113840	0.564670
H1271	H127	0.446400	0.132700	0.699000
C1941	C194	0.475550	0.110370	0.644080
C1951	C195	0.447800	0.099790	0.547010
H1281	H128	0.399400	0.114000	0.537600
H1291	H129	0.494800	0.109800	0.671500
C1961	C196	0.476100	0.097020	0.588140
H1301	H130	0.448400	0.092300	0.508200
C1971	C197	0.504510	0.078220	0.570040
C1981	C198	0.486310	0.040200	0.535470
H1311	H131	0.456900	0.027600	0.524500
H1321	H132	0.610400	0.176000	0.565300
O451	O45	0.056230	0.488620	0.022670
O461	O46	0.972020	0.446730	0.067710
C1991	C199	0.053950	0.475970	0.971390
C2001	C200	0.085410	0.460570	0.952790
C2011	C201	0.113610	0.458000	0.993780
C2021	C202	0.085830	0.447170	0.898000
H1331	H133	0.113070	0.466030	0.032330
C2031	C203	0.142220	0.443700	0.977410
C2041	C204	0.114470	0.433120	0.880340
H1341	H134	0.066070	0.447330	0.870930
H1351	H135	0.161470	0.443130	0.004830
C2051	C205	0.142770	0.430350	0.921470
H1361	H136	0.115070	0.425630	0.841530
C2061	C206	0.171180	0.411550	0.903370
C2071	C207	0.152980	0.373530	0.868800
H1371	H137	0.123570	0.360930	0.857830
H1381	H138	0.277070	0.509330	0.898630
O471	O47	0.722890	0.821960	0.356010
O481	O48	0.638680	0.780070	0.401050
C2081	C208	0.720610	0.809310	0.304730
C2091	C209	0.752070	0.793910	0.286130
C2101	C210	0.780270	0.791340	0.327120
C2111	C211	0.752490	0.780510	0.231340
H1391	H139	0.779730	0.799370	0.365670
C2121	C212	0.808880	0.777040	0.310750
C2131	C213	0.781130	0.766460	0.213680
H1401	H140	0.732730	0.780670	0.204270
H1411	H141	0.828130	0.776470	0.338170
C2141	C214	0.809430	0.763690	0.254810
H1421	H142	0.781730	0.758970	0.174870
C2151	C215	0.837840	0.744890	0.236710
C2161	C216	0.819640	0.706870	0.202140
H1431	H143	0.790230	0.694270	0.191170
H1441	H144	0.943730	0.842670	0.231970
O491	O49	0.844710	0.234270	0.689340
O501	O50	0.886600	0.191950	0.734380
C2171	C217	0.857360	0.244640	0.638060
C2181	C218	0.872760	0.291500	0.619460
C2191	C219	0.875330	0.322270	0.660450
C2201	C220	0.886160	0.305320	0.564670
H1451	H145	0.867300	0.313700	0.699000
C2211	C221	0.889630	0.365180	0.644080
C2221	C222	0.900210	0.348010	0.547010
H1461	H146	0.886000	0.285400	0.537600
H1471	H147	0.890200	0.385000	0.671500
C2231	C223	0.902980	0.379080	0.588140
H1481	H148	0.907700	0.356100	0.508200
C2241	C224	0.921780	0.426290	0.570040
C2251	C225	0.959800	0.446110	0.535470
H1491	H149	0.972400	0.429300	0.524500
H1501	H150	0.824000	0.434400	0.565300
O511	O51	0.511380	0.567600	0.022670
O521	O52	0.553270	0.525280	0.067710
C2261	C226	0.524030	0.577970	0.971390
C2271	C227	0.539430	0.624830	0.952790
C2281	C228	0.542000	0.655600	0.993780
C2291	C229	0.552830	0.638650	0.898000
H1511	H151	0.533970	0.647030	0.032330
C2301	C230	0.556300	0.698510	0.977410
C2311	C231	0.566880	0.681340	0.880340
H1521	H152	0.552670	0.618730	0.870930
H1531	H153	0.556870	0.718330	0.004830
C2321	C232	0.569650	0.712410	0.921470
H1541	H154	0.574370	0.689430	0.841530
C2331	C233	0.588450	0.759620	0.903370
C2341	C234	0.626470	0.779440	0.868800
H1551	H155	0.639070	0.762630	0.857830
H1561	H156	0.490670	0.767730	0.898630
O531	O53	0.178040	0.900940	0.356010
O541	O54	0.219930	0.858620	0.401050
C2351	C235	0.190690	0.911310	0.304730
C2361	C236	0.206090	0.958170	0.286130
C2371	C237	0.208660	0.988940	0.327120
C2381	C238	0.219490	0.971990	0.231340
H1571	H157	0.200630	0.980370	0.365670
C2391	C239	0.222960	0.031850	0.310750
C2401	C240	0.233540	0.014680	0.213680
H1581	H158	0.219330	0.952070	0.204270
H1591	H159	0.223530	0.051670	0.338170
C2411	C241	0.236310	0.045750	0.254810
H1601	H160	0.241030	0.022770	0.174870
C2421	C242	0.255110	0.092960	0.236710
C2431	C243	0.293130	0.112780	0.202140
H1611	H161	0.305730	0.095970	0.191170
H1621	H162	0.157330	0.101070	0.231970
O551	O55	0.610440	0.765730	0.310660
O561	O56	0.694650	0.808050	0.265620
C2441	C244	0.612720	0.755360	0.361940
C2451	C245	0.581260	0.708500	0.380540
C2461	C246	0.553060	0.677730	0.339550
C2471	C247	0.580840	0.694680	0.435330
H1631	H163	0.553600	0.686300	0.301000
C2481	C248	0.524450	0.634820	0.355920
C2491	C249	0.552200	0.651990	0.452990
H1641	H164	0.600600	0.714600	0.462400
H1651	H165	0.505200	0.615000	0.328500
C2501	C250	0.523900	0.620920	0.411860
H1661	H166	0.551600	0.643900	0.491800
C2511	C251	0.495490	0.573710	0.429960
C2521	C252	0.513690	0.553890	0.464530
H1671	H167	0.543100	0.570700	0.475500
H1681	H168	0.389600	0.565600	0.434700
O571	O57	0.277110	0.099060	0.643990
O581	O58	0.361320	0.141380	0.598950
C2531	C253	0.279390	0.088690	0.695270
C2541	C254	0.247930	0.041830	0.713870
C2551	C255	0.219730	0.011060	0.672880
C2561	C256	0.247510	0.028010	0.768660
H1691	H169	0.220270	0.019630	0.634330
C2571	C257	0.191120	0.968150	0.689250
C2581	C258	0.218870	0.985320	0.786320
H1701	H170	0.267270	0.047930	0.795730
H1711	H171	0.171870	0.948330	0.661830
C2591	C259	0.190570	0.954250	0.745190
H1721	H172	0.218270	0.977230	0.825130
C2601	C260	0.162160	0.907040	0.763290
C2611	C261	0.180360	0.887220	0.797860
H1731	H173	0.209770	0.904030	0.808830
H1741	H174	0.056270	0.898930	0.768030
O591	O59	0.943770	0.432400	0.977330
O601	O60	0.027980	0.474720	0.932290
C2621	C262	0.946050	0.422030	0.028610
C2631	C263	0.914590	0.375170	0.047210
C2641	C264	0.886390	0.344400	0.006220
C2651	C265	0.914170	0.361350	0.102000
H1751	H175	0.886930	0.352970	0.967670
C2661	C266	0.857780	0.301490	0.022590
C2671	C267	0.885530	0.318660	0.119660
H1761	H176	0.933930	0.381270	0.129070
H1771	H177	0.838530	0.281670	0.995170
C2681	C268	0.857230	0.287590	0.078530
H1781	H178	0.884930	0.310570	0.158470
C2691	C269	0.828820	0.240380	0.096630
C2701	C270	0.847020	0.220560	0.131200
H1791	H179	0.876430	0.237370	0.142170
H1801	H180	0.722930	0.232270	0.101370
O611	O61	0.155290	0.389560	0.310660
O621	O62	0.113400	0.305350	0.265620
C2711	C271	0.142640	0.387280	0.361940
C2721	C272	0.127240	0.418740	0.380540
C2731	C273	0.124670	0.446940	0.339550
C2741	C274	0.113840	0.419160	0.435330
H1811	H181	0.132700	0.446400	0.301000
C2751	C275	0.110370	0.475550	0.355920
C2761	C276	0.099790	0.447800	0.452990
H1821	H182	0.114000	0.399400	0.462400
H1831	H183	0.109800	0.494800	0.328500
C2771	C277	0.097020	0.476100	0.411860
H1841	H184	0.092300	0.448400	0.491800
C2781	C278	0.078220	0.504510	0.429960
C2791	C279	0.040200	0.486310	0.464530
H1851	H185	0.027600	0.456900	0.475500
H1861	H186	0.176000	0.610400	0.434700
O631	O63	0.821960	0.722890	0.643990
O641	O64	0.780070	0.638680	0.598950
C2801	C280	0.809310	0.720610	0.695270
C2811	C281	0.793910	0.752070	0.713870
C2821	C282	0.791340	0.780270	0.672880
C2831	C283	0.780510	0.752490	0.768660
H1871	H187	0.799370	0.779730	0.634330
C2841	C284	0.777040	0.808880	0.689250
C2851	C285	0.766460	0.781130	0.786320
H1881	H188	0.780670	0.732730	0.795730
H1891	H189	0.776470	0.828130	0.661830
C2861	C286	0.763690	0.809430	0.745190
H1901	H190	0.758970	0.781730	0.825130
C2871	C287	0.744890	0.837840	0.763290
C2881	C288	0.706870	0.819640	0.797860
H1911	H191	0.694270	0.790230	0.808830
H1921	H192	0.842670	0.943730	0.768030
O651	O65	0.488620	0.056230	0.977330
O661	O66	0.446730	0.972020	0.932290
C2891	C289	0.475970	0.053950	0.028610
C2901	C290	0.460570	0.085410	0.047210
C2911	C291	0.458000	0.113610	0.006220
C2921	C292	0.447170	0.085830	0.102000
H1931	H193	0.466030	0.113070	0.967670
C2931	C293	0.443700	0.142220	0.022590
C2941	C294	0.433120	0.114470	0.119660
H1941	H194	0.447330	0.066070	0.129070
H1951	H195	0.443130	0.161470	0.995170
C2951	C295	0.430350	0.142770	0.078530
H1961	H196	0.425630	0.115070	0.158470
C2961	C296	0.411550	0.171180	0.096630
C2971	C297	0.373530	0.152980	0.131200
H1971	H197	0.360930	0.123570	0.142170
H1981	H198	0.509330	0.277070	0.101370
O671	O67	0.234270	0.844710	0.310660
O681	O68	0.191950	0.886600	0.265620
C2981	C298	0.244640	0.857360	0.361940
C2991	C299	0.291500	0.872760	0.380540
C3001	C300	0.322270	0.875330	0.339550
C3011	C301	0.305320	0.886160	0.435330
H1991	H199	0.313700	0.867300	0.301000
C3021	C302	0.365180	0.889630	0.355920
C3031	C303	0.348010	0.900210	0.452990
H2001	H200	0.285400	0.886000	0.462400
H2011	H201	0.385000	0.890200	0.328500
C3041	C304	0.379080	0.902980	0.411860
H2021	H202	0.356100	0.907700	0.491800
C3051	C305	0.426290	0.921780	0.429960
C3061	C306	0.446110	0.959800	0.464530
H2031	H203	0.429300	0.972400	0.475500
H2041	H204	0.434400	0.824000	0.434700
O691	O69	0.900940	0.178040	0.643990
O701	O70	0.858620	0.219930	0.598950
C3071	C307	0.911310	0.190690	0.695270
C3081	C308	0.958170	0.206090	0.713870
C3091	C309	0.988940	0.208660	0.672880
C3101	C310	0.971990	0.219490	0.768660
H2051	H205	0.980370	0.200630	0.634330
C3111	C311	0.031850	0.222960	0.689250
C3121	C312	0.014680	0.233540	0.786320
H2061	H206	0.952070	0.219330	0.795730
H2071	H207	0.051670	0.223530	0.661830
C3131	C313	0.045750	0.236310	0.745190
H2081	H208	0.022770	0.241030	0.825130
C3141	C314	0.092960	0.255110	0.763290
C3151	C315	0.112780	0.293130	0.797860
H2091	H209	0.095970	0.305730	0.808830
H2101	H210	0.101070	0.157330	0.768030
O711	O71	0.567600	0.511380	0.977330
O721	O72	0.525280	0.553270	0.932290
C3161	C316	0.577970	0.524030	0.028610
C3171	C317	0.624830	0.539430	0.047210
C3181	C318	0.655600	0.542000	0.006220
C3191	C319	0.638650	0.552830	0.102000
H2111	H211	0.647030	0.533970	0.967670
C3201	C320	0.698510	0.556300	0.022590
C3211	C321	0.681340	0.566880	0.119660
H2121	H212	0.618730	0.552670	0.129070
H2131	H213	0.718330	0.556870	0.995170
C3221	C322	0.712410	0.569650	0.078530
H2141	H214	0.689430	0.574370	0.158470
C3231	C323	0.759620	0.588450	0.096630
C3241	C324	0.779440	0.626470	0.131200
H2151	H215	0.762630	0.639070	0.142170
H2161	H216	0.767730	0.490670	0.101370
Cu11	Cu1	0.175030	0.350070	0.280060
Cu21	Cu2	0.841700	0.683400	0.613390
Cu31	Cu3	0.508370	0.016740	0.946730
Cu41	Cu4	0.649930	0.824970	0.280060
Cu51	Cu5	0.316600	0.158300	0.613390
Cu61	Cu6	0.983260	0.491630	0.946730
Cu71	Cu7	0.175030	0.824970	0.280060
Cu81	Cu8	0.841700	0.158300	0.613390
Cu91	Cu9	0.508370	0.491630	0.946730
Cu101	Cu10	0.350070	0.175030	0.719940
Cu111	Cu11	0.016740	0.508370	0.053270
Cu121	Cu12	0.683400	0.841700	0.386610
Cu131	Cu13	0.824970	0.649930	0.719940
Cu141	Cu14	0.491630	0.983260	0.053270
Cu151	Cu15	0.158300	0.316600	0.386610
Cu161	Cu16	0.824970	0.175030	0.719940
Cu171	Cu17	0.491630	0.508370	0.053270
Cu181	Cu18	0.158300	0.841700	0.386610
C3251	C325	0.451510	0.548490	0.413500
C3261	C326	0.489840	0.510160	0.483300
O731	O73	0.432540	0.567460	0.378930
C3271	C327	0.412660	0.587340	0.410600
H2171	H217	0.400500	0.599500	0.383900
C3281	C328	0.118180	0.881820	0.746830
C3291	C329	0.156510	0.843490	0.816630
O741	O74	0.099210	0.900790	0.712260
C3301	C330	0.079330	0.920670	0.743930
H2181	H218	0.067170	0.932830	0.717230
C3311	C331	0.784840	0.215160	0.080170
C3321	C332	0.823170	0.176830	0.149970
O751	O75	0.765870	0.234130	0.045600
C3331	C333	0.745990	0.254010	0.077270
H2191	H219	0.733830	0.266170	0.050570
C3341	C334	0.451510	0.903020	0.413500
C3351	C335	0.489840	0.979680	0.483300
O761	O76	0.432540	0.865080	0.378930
C3361	C336	0.412660	0.825320	0.410600
H2201	H220	0.400500	0.801000	0.383900
C3371	C337	0.118180	0.236350	0.746830
C3381	C338	0.156510	0.313010	0.816630
O771	O77	0.099210	0.198410	0.712260
C3391	C339	0.079330	0.158650	0.743930
H2211	H221	0.067170	0.134330	0.717230
C3401	C340	0.784840	0.569690	0.080170
C3411	C341	0.823170	0.646350	0.149970
O781	O78	0.765870	0.531750	0.045600
C3421	C342	0.745990	0.491990	0.077270
H2221	H222	0.733830	0.467670	0.050570
C3431	C343	0.096980	0.548490	0.413500
C3441	C344	0.020320	0.510160	0.483300
O791	O79	0.134920	0.567460	0.378930
C3451	C345	0.174680	0.587340	0.410600
H2231	H223	0.199000	0.599500	0.383900
C3461	C346	0.763650	0.881820	0.746830
C3471	C347	0.686990	0.843490	0.816630
O801	O80	0.801590	0.900790	0.712260
C3481	C348	0.841350	0.920670	0.743930
H2241	H224	0.865670	0.932830	0.717230
C3491	C349	0.430310	0.215160	0.080170
C3501	C350	0.353650	0.176830	0.149970
O811	O81	0.468250	0.234130	0.045600
C3511	C351	0.508010	0.254010	0.077270
H2251	H225	0.532330	0.266170	0.050570
C3521	C352	0.548490	0.451510	0.586500
C3531	C353	0.510160	0.489840	0.516700
O821	O82	0.567460	0.432540	0.621070
C3541	C354	0.587340	0.412660	0.589400
H2261	H226	0.599500	0.400500	0.616100
C3551	C355	0.215160	0.784840	0.919830
C3561	C356	0.176830	0.823170	0.850030
O831	O83	0.234130	0.765870	0.954400
C3571	C357	0.254010	0.745990	0.922730
H2271	H227	0.266170	0.733830	0.949430
C3581	C358	0.881820	0.118180	0.253170
C3591	C359	0.843490	0.156510	0.183370
O841	O84	0.900790	0.099210	0.287740
C3601	C360	0.920670	0.079330	0.256070
H2281	H228	0.932830	0.067170	0.282770
C3611	C361	0.903020	0.451510	0.586500
C3621	C362	0.979680	0.489840	0.516700
O851	O85	0.865080	0.432540	0.621070
C3631	C363	0.825320	0.412660	0.589400
H2291	H229	0.801000	0.400500	0.616100
C3641	C364	0.569690	0.784840	0.919830
C3651	C365	0.646350	0.823170	0.850030
O861	O86	0.531750	0.765870	0.954400
C3661	C366	0.491990	0.745990	0.922730
H2301	H230	0.467670	0.733830	0.949430
C3671	C367	0.236350	0.118180	0.253170
C3681	C368	0.313010	0.156510	0.183370
O871	O87	0.198410	0.099210	0.287740
C3691	C369	0.158650	0.079330	0.256070
H2311	H231	0.134330	0.067170	0.282770
C3701	C370	0.548490	0.096980	0.586500
C3711	C371	0.510160	0.020320	0.516700
O881	O88	0.567460	0.134920	0.621070
C3721	C372	0.587340	0.174680	0.589400
H2321	H232	0.599500	0.199000	0.616100
C3731	C373	0.215160	0.430310	0.919830
C3741	C374	0.176830	0.353650	0.850030
O891	O89	0.234130	0.468250	0.954400
C3751	C375	0.254010	0.508010	0.922730
H2331	H233	0.266170	0.532330	0.949430
C3761	C376	0.881820	0.763650	0.253170
C3771	C377	0.843490	0.686990	0.183370
O901	O90	0.900790	0.801590	0.287740
C3781	C378	0.920670	0.841350	0.256070
H2341	H234	0.932830	0.865670	0.282770
