data_UMOVEZ04_clean_PM
_symmetry_space_group_name_H-M	'P1'
_cell_length_a	35.143300
_cell_length_b	35.143300
_cell_length_c	21.928300
_cell_angle_alpha	90.000000
_cell_angle_beta	90.000000
_cell_angle_gamma	120.000000
_symmetry_Int_Tables_number 1

loop_
_symmetry_equiv_pos_as_xyz
'x,y,z'

loop_
_atom_site_label
_atom_site_type_symbol
_atom_site_fract_x
_atom_site_fract_y
_atom_site_fract_z
O11	O1	0.524840	0.971330	0.929790
O21	O2	0.511410	0.944190	0.025290
C11	C1	0.523610	0.945600	0.971190
C21	C2	0.538890	0.914040	0.953010
C31	C3	0.541290	0.886630	0.997110
H11	H1	0.533300	0.887800	0.037700
C41	C4	0.555610	0.857650	0.980680
H21	H2	0.556500	0.838700	0.010100
C51	C5	0.568560	0.856420	0.921540
C61	C6	0.565490	0.883730	0.877640
H31	H3	0.573100	0.882500	0.836900
C71	C7	0.551240	0.912600	0.894640
H41	H4	0.550100	0.931500	0.865300
C81	C8	0.587850	0.828540	0.904140
C91	C9	0.625820	0.846700	0.870060
H51	H5	0.638600	0.876400	0.858800
H61	H6	0.493300	0.724100	0.895300
O31	O3	0.191510	0.304660	0.263120
O41	O4	0.178080	0.277520	0.358620
C101	C10	0.190280	0.278930	0.304520
C111	C11	0.205560	0.247370	0.286340
C121	C12	0.207960	0.219960	0.330440
H71	H7	0.199970	0.221130	0.371030
C131	C13	0.222280	0.190980	0.314010
H81	H8	0.223170	0.172030	0.343430
C141	C14	0.235230	0.189750	0.254870
C151	C15	0.232160	0.217060	0.210970
H91	H9	0.239770	0.215830	0.170230
C161	C16	0.217910	0.245930	0.227970
H101	H10	0.216770	0.264830	0.198630
C171	C17	0.254520	0.161870	0.237470
C181	C18	0.292490	0.180030	0.203390
H111	H11	0.305270	0.209730	0.192130
H121	H12	0.159970	0.057430	0.228630
O51	O5	0.858170	0.638000	0.596460
O61	O6	0.844740	0.610860	0.691960
C191	C19	0.856940	0.612270	0.637860
C201	C20	0.872220	0.580710	0.619680
C211	C21	0.874620	0.553300	0.663780
H131	H13	0.866630	0.554470	0.704370
C221	C22	0.888940	0.524320	0.647350
H141	H14	0.889830	0.505370	0.676770
C231	C23	0.901890	0.523090	0.588210
C241	C24	0.898820	0.550400	0.544310
H151	H15	0.906430	0.549170	0.503570
C251	C25	0.884570	0.579270	0.561310
H161	H16	0.883430	0.598170	0.531970
C261	C26	0.921180	0.495210	0.570810
C271	C27	0.959150	0.513370	0.536730
H171	H17	0.971930	0.543070	0.525470
H181	H18	0.826630	0.390770	0.561970
O71	O7	0.028670	0.553510	0.929790
O81	O8	0.055810	0.567220	0.025290
C281	C28	0.054400	0.578010	0.971190
C291	C29	0.085960	0.624850	0.953010
C301	C30	0.113370	0.654660	0.997110
H191	H19	0.112200	0.645500	0.037700
C311	C31	0.142350	0.697960	0.980680
H201	H20	0.161300	0.717800	0.010100
C321	C32	0.143580	0.712140	0.921540
C331	C33	0.116270	0.681760	0.877640
H211	H21	0.117500	0.690600	0.836900
C341	C34	0.087400	0.638640	0.894640
H221	H22	0.068500	0.618600	0.865300
C351	C35	0.171460	0.759310	0.904140
C361	C36	0.153300	0.779120	0.870060
H231	H23	0.123600	0.762200	0.858800
H241	H24	0.275900	0.769200	0.895300
O91	O9	0.695340	0.886840	0.263120
O101	O10	0.722480	0.900550	0.358620
C371	C37	0.721070	0.911340	0.304520
C381	C38	0.752630	0.958180	0.286340
C391	C39	0.780040	0.987990	0.330440
H251	H25	0.778870	0.978830	0.371030
C401	C40	0.809020	0.031290	0.314010
H261	H26	0.827970	0.051130	0.343430
C411	C41	0.810250	0.045470	0.254870
C421	C42	0.782940	0.015090	0.210970
H271	H27	0.784170	0.023930	0.170230
C431	C43	0.754070	0.971970	0.227970
H281	H28	0.735170	0.951930	0.198630
C441	C44	0.838130	0.092640	0.237470
C451	C45	0.819970	0.112450	0.203390
H291	H29	0.790270	0.095530	0.192130
H301	H30	0.942570	0.102530	0.228630
O111	O11	0.362000	0.220180	0.596460
O121	O12	0.389140	0.233890	0.691960
C461	C46	0.387730	0.244680	0.637860
C471	C47	0.419290	0.291520	0.619680
C481	C48	0.446700	0.321330	0.663780
H311	H31	0.445530	0.312170	0.704370
C491	C49	0.475680	0.364630	0.647350
H321	H32	0.494630	0.384470	0.676770
C501	C50	0.476910	0.378810	0.588210
C511	C51	0.449600	0.348430	0.544310
H331	H33	0.450830	0.357270	0.503570
C521	C52	0.420730	0.305310	0.561310
H341	H34	0.401830	0.285270	0.531970
C531	C53	0.504790	0.425980	0.570810
C541	C54	0.486630	0.445790	0.536730
H351	H35	0.456930	0.428870	0.525470
H361	H36	0.609230	0.435870	0.561970
O131	O13	0.446490	0.475160	0.929790
O141	O14	0.432780	0.488590	0.025290
C551	C55	0.421990	0.476390	0.971190
C561	C56	0.375150	0.461110	0.953010
C571	C57	0.345340	0.458710	0.997110
H371	H37	0.354500	0.466700	0.037700
C581	C58	0.302040	0.444390	0.980680
H381	H38	0.282200	0.443500	0.010100
C591	C59	0.287860	0.431440	0.921540
C601	C60	0.318240	0.434510	0.877640
H391	H39	0.309400	0.426900	0.836900
C611	C61	0.361360	0.448760	0.894640
H401	H40	0.381400	0.449900	0.865300
C621	C62	0.240690	0.412150	0.904140
C631	C63	0.220880	0.374180	0.870060
H411	H41	0.237800	0.361400	0.858800
H421	H42	0.230800	0.506700	0.895300
O151	O15	0.113160	0.808490	0.263120
O161	O16	0.099450	0.821920	0.358620
C641	C64	0.088660	0.809720	0.304520
C651	C65	0.041820	0.794440	0.286340
C661	C66	0.012010	0.792040	0.330440
H431	H43	0.021170	0.800030	0.371030
C671	C67	0.968710	0.777720	0.314010
H441	H44	0.948870	0.776830	0.343430
C681	C68	0.954530	0.764770	0.254870
C691	C69	0.984910	0.767840	0.210970
H451	H45	0.976070	0.760230	0.170230
C701	C70	0.028030	0.782090	0.227970
H461	H46	0.048070	0.783230	0.198630
C711	C71	0.907360	0.745480	0.237470
C721	C72	0.887550	0.707510	0.203390
H471	H47	0.904470	0.694730	0.192130
H481	H48	0.897470	0.840030	0.228630
O171	O17	0.779820	0.141830	0.596460
O181	O18	0.766110	0.155260	0.691960
C731	C73	0.755320	0.143060	0.637860
C741	C74	0.708480	0.127780	0.619680
C751	C75	0.678670	0.125380	0.663780
H491	H49	0.687830	0.133370	0.704370
C761	C76	0.635370	0.111060	0.647350
H501	H50	0.615530	0.110170	0.676770
C771	C77	0.621190	0.098110	0.588210
C781	C78	0.651570	0.101180	0.544310
H511	H51	0.642730	0.093570	0.503570
C791	C79	0.694690	0.115430	0.561310
H521	H52	0.714730	0.116570	0.531970
C801	C80	0.574020	0.078820	0.570810
C811	C81	0.554210	0.040850	0.536730
H531	H53	0.571130	0.028070	0.525470
H541	H54	0.564130	0.173370	0.561970
O191	O19	0.971330	0.524840	0.070210
O201	O20	0.944190	0.511410	0.974710
C821	C82	0.945600	0.523610	0.028810
C831	C83	0.914040	0.538890	0.046990
C841	C84	0.886630	0.541290	0.002890
H551	H55	0.887800	0.533300	0.962300
C851	C85	0.857650	0.555610	0.019320
H561	H56	0.838700	0.556500	0.989900
C861	C86	0.856420	0.568560	0.078460
C871	C87	0.883730	0.565490	0.122360
H571	H57	0.882500	0.573100	0.163100
C881	C88	0.912600	0.551240	0.105360
H581	H58	0.931500	0.550100	0.134700
C891	C89	0.828540	0.587850	0.095860
C901	C90	0.846700	0.625820	0.129940
H591	H59	0.876400	0.638600	0.141200
H601	H60	0.724100	0.493300	0.104700
O211	O21	0.638000	0.858170	0.403540
O221	O22	0.610860	0.844740	0.308040
C911	C91	0.612270	0.856940	0.362140
C921	C92	0.580710	0.872220	0.380320
C931	C93	0.553300	0.874620	0.336220
H611	H61	0.554470	0.866630	0.295630
C941	C94	0.524320	0.888940	0.352650
H621	H62	0.505370	0.889830	0.323230
C951	C95	0.523090	0.901890	0.411790
C961	C96	0.550400	0.898820	0.455690
H631	H63	0.549170	0.906430	0.496430
C971	C97	0.579270	0.884570	0.438690
H641	H64	0.598170	0.883430	0.468030
C981	C98	0.495210	0.921180	0.429190
C991	C99	0.513370	0.959150	0.463270
H651	H65	0.543070	0.971930	0.474530
H661	H66	0.390770	0.826630	0.438030
O231	O23	0.304660	0.191510	0.736880
O241	O24	0.277520	0.178080	0.641380
C1001	C100	0.278930	0.190280	0.695480
C1011	C101	0.247370	0.205560	0.713660
C1021	C102	0.219960	0.207960	0.669560
H671	H67	0.221130	0.199970	0.628970
C1031	C103	0.190980	0.222280	0.685990
H681	H68	0.172030	0.223170	0.656570
C1041	C104	0.189750	0.235230	0.745130
C1051	C105	0.217060	0.232160	0.789030
H691	H69	0.215830	0.239770	0.829770
C1061	C106	0.245930	0.217910	0.772030
H701	H70	0.264830	0.216770	0.801370
C1071	C107	0.161870	0.254520	0.762530
C1081	C108	0.180030	0.292490	0.796610
H711	H71	0.209730	0.305270	0.807870
H721	H72	0.057430	0.159970	0.771370
O251	O25	0.553510	0.028670	0.070210
O261	O26	0.567220	0.055810	0.974710
C1091	C109	0.578010	0.054400	0.028810
C1101	C110	0.624850	0.085960	0.046990
C1111	C111	0.654660	0.113370	0.002890
H731	H73	0.645500	0.112200	0.962300
C1121	C112	0.697960	0.142350	0.019320
H741	H74	0.717800	0.161300	0.989900
C1131	C113	0.712140	0.143580	0.078460
C1141	C114	0.681760	0.116270	0.122360
H751	H75	0.690600	0.117500	0.163100
C1151	C115	0.638640	0.087400	0.105360
H761	H76	0.618600	0.068500	0.134700
C1161	C116	0.759310	0.171460	0.095860
C1171	C117	0.779120	0.153300	0.129940
H771	H77	0.762200	0.123600	0.141200
H781	H78	0.769200	0.275900	0.104700
O271	O27	0.220180	0.362000	0.403540
O281	O28	0.233890	0.389140	0.308040
C1181	C118	0.244680	0.387730	0.362140
C1191	C119	0.291520	0.419290	0.380320
C1201	C120	0.321330	0.446700	0.336220
H791	H79	0.312170	0.445530	0.295630
C1211	C121	0.364630	0.475680	0.352650
H801	H80	0.384470	0.494630	0.323230
C1221	C122	0.378810	0.476910	0.411790
C1231	C123	0.348430	0.449600	0.455690
H811	H81	0.357270	0.450830	0.496430
C1241	C124	0.305310	0.420730	0.438690
H821	H82	0.285270	0.401830	0.468030
C1251	C125	0.425980	0.504790	0.429190
C1261	C126	0.445790	0.486630	0.463270
H831	H83	0.428870	0.456930	0.474530
H841	H84	0.435870	0.609230	0.438030
O291	O29	0.886840	0.695340	0.736880
O301	O30	0.900550	0.722480	0.641380
C1271	C127	0.911340	0.721070	0.695480
C1281	C128	0.958180	0.752630	0.713660
C1291	C129	0.987990	0.780040	0.669560
H851	H85	0.978830	0.778870	0.628970
C1301	C130	0.031290	0.809020	0.685990
H861	H86	0.051130	0.827970	0.656570
C1311	C131	0.045470	0.810250	0.745130
C1321	C132	0.015090	0.782940	0.789030
H871	H87	0.023930	0.784170	0.829770
C1331	C133	0.971970	0.754070	0.772030
H881	H88	0.951930	0.735170	0.801370
C1341	C134	0.092640	0.838130	0.762530
C1351	C135	0.112450	0.819970	0.796610
H891	H89	0.095530	0.790270	0.807870
H901	H90	0.102530	0.942570	0.771370
O311	O31	0.475160	0.446490	0.070210
O321	O32	0.488590	0.432780	0.974710
C1361	C136	0.476390	0.421990	0.028810
C1371	C137	0.461110	0.375150	0.046990
C1381	C138	0.458710	0.345340	0.002890
H911	H91	0.466700	0.354500	0.962300
C1391	C139	0.444390	0.302040	0.019320
H921	H92	0.443500	0.282200	0.989900
C1401	C140	0.431440	0.287860	0.078460
C1411	C141	0.434510	0.318240	0.122360
H931	H93	0.426900	0.309400	0.163100
C1421	C142	0.448760	0.361360	0.105360
H941	H94	0.449900	0.381400	0.134700
C1431	C143	0.412150	0.240690	0.095860
C1441	C144	0.374180	0.220880	0.129940
H951	H95	0.361400	0.237800	0.141200
H961	H96	0.506700	0.230800	0.104700
O331	O33	0.141830	0.779820	0.403540
O341	O34	0.155260	0.766110	0.308040
C1451	C145	0.143060	0.755320	0.362140
C1461	C146	0.127780	0.708480	0.380320
C1471	C147	0.125380	0.678670	0.336220
H971	H97	0.133370	0.687830	0.295630
C1481	C148	0.111060	0.635370	0.352650
H981	H98	0.110170	0.615530	0.323230
C1491	C149	0.098110	0.621190	0.411790
C1501	C150	0.101180	0.651570	0.455690
H991	H99	0.093570	0.642730	0.496430
C1511	C151	0.115430	0.694690	0.438690
H1001	H100	0.116570	0.714730	0.468030
C1521	C152	0.078820	0.574020	0.429190
C1531	C153	0.040850	0.554210	0.463270
H1011	H101	0.028070	0.571130	0.474530
H1021	H102	0.173370	0.564130	0.438030
O351	O35	0.808490	0.113160	0.736880
O361	O36	0.821920	0.099450	0.641380
C1541	C154	0.809720	0.088660	0.695480
C1551	C155	0.794440	0.041820	0.713660
C1561	C156	0.792040	0.012010	0.669560
H1031	H103	0.800030	0.021170	0.628970
C1571	C157	0.777720	0.968710	0.685990
H1041	H104	0.776830	0.948870	0.656570
C1581	C158	0.764770	0.954530	0.745130
C1591	C159	0.767840	0.984910	0.789030
H1051	H105	0.760230	0.976070	0.829770
C1601	C160	0.782090	0.028030	0.772030
H1061	H106	0.783230	0.048070	0.801370
C1611	C161	0.745480	0.907360	0.762530
C1621	C162	0.707510	0.887550	0.796610
H1071	H107	0.694730	0.904470	0.807870
H1081	H108	0.840030	0.897470	0.771370
O371	O37	0.475160	0.028670	0.070210
O381	O38	0.488590	0.055810	0.974710
C1631	C163	0.476390	0.054400	0.028810
C1641	C164	0.461110	0.085960	0.046990
C1651	C165	0.458710	0.113370	0.002890
H1091	H109	0.466700	0.112200	0.962300
C1661	C166	0.444390	0.142350	0.019320
H1101	H110	0.443500	0.161300	0.989900
C1671	C167	0.431440	0.143580	0.078460
C1681	C168	0.434510	0.116270	0.122360
H1111	H111	0.426900	0.117500	0.163100
C1691	C169	0.448760	0.087400	0.105360
H1121	H112	0.449900	0.068500	0.134700
C1701	C170	0.412150	0.171460	0.095860
C1711	C171	0.374180	0.153300	0.129940
H1131	H113	0.361400	0.123600	0.141200
H1141	H114	0.506700	0.275900	0.104700
O391	O39	0.141830	0.362000	0.403540
O401	O40	0.155260	0.389140	0.308040
C1721	C172	0.143060	0.387730	0.362140
C1731	C173	0.127780	0.419290	0.380320
C1741	C174	0.125380	0.446700	0.336220
H1151	H115	0.133370	0.445530	0.295630
C1751	C175	0.111060	0.475680	0.352650
H1161	H116	0.110170	0.494630	0.323230
C1761	C176	0.098110	0.476910	0.411790
C1771	C177	0.101180	0.449600	0.455690
H1171	H117	0.093570	0.450830	0.496430
C1781	C178	0.115430	0.420730	0.438690
H1181	H118	0.116570	0.401830	0.468030
C1791	C179	0.078820	0.504790	0.429190
C1801	C180	0.040850	0.486630	0.463270
H1191	H119	0.028070	0.456930	0.474530
H1201	H120	0.173370	0.609230	0.438030
O411	O41	0.808490	0.695340	0.736880
O421	O42	0.821920	0.722480	0.641380
C1811	C181	0.809720	0.721070	0.695480
C1821	C182	0.794440	0.752630	0.713660
C1831	C183	0.792040	0.780040	0.669560
H1211	H121	0.800030	0.778870	0.628970
C1841	C184	0.777720	0.809020	0.685990
H1221	H122	0.776830	0.827970	0.656570
C1851	C185	0.764770	0.810250	0.745130
C1861	C186	0.767840	0.782940	0.789030
H1231	H123	0.760230	0.784170	0.829770
C1871	C187	0.782090	0.754070	0.772030
H1241	H124	0.783230	0.735170	0.801370
C1881	C188	0.745480	0.838130	0.762530
C1891	C189	0.707510	0.819970	0.796610
H1251	H125	0.694730	0.790270	0.807870
H1261	H126	0.840030	0.942570	0.771370
O431	O43	0.971330	0.446490	0.070210
O441	O44	0.944190	0.432780	0.974710
C1901	C190	0.945600	0.421990	0.028810
C1911	C191	0.914040	0.375150	0.046990
C1921	C192	0.886630	0.345340	0.002890
H1271	H127	0.887800	0.354500	0.962300
C1931	C193	0.857650	0.302040	0.019320
H1281	H128	0.838700	0.282200	0.989900
C1941	C194	0.856420	0.287860	0.078460
C1951	C195	0.883730	0.318240	0.122360
H1291	H129	0.882500	0.309400	0.163100
C1961	C196	0.912600	0.361360	0.105360
H1301	H130	0.931500	0.381400	0.134700
C1971	C197	0.828540	0.240690	0.095860
C1981	C198	0.846700	0.220880	0.129940
H1311	H131	0.876400	0.237800	0.141200
H1321	H132	0.724100	0.230800	0.104700
O451	O45	0.638000	0.779820	0.403540
O461	O46	0.610860	0.766110	0.308040
C1991	C199	0.612270	0.755320	0.362140
C2001	C200	0.580710	0.708480	0.380320
C2011	C201	0.553300	0.678670	0.336220
H1331	H133	0.554470	0.687830	0.295630
C2021	C202	0.524320	0.635370	0.352650
H1341	H134	0.505370	0.615530	0.323230
C2031	C203	0.523090	0.621190	0.411790
C2041	C204	0.550400	0.651570	0.455690
H1351	H135	0.549170	0.642730	0.496430
C2051	C205	0.579270	0.694690	0.438690
H1361	H136	0.598170	0.714730	0.468030
C2061	C206	0.495210	0.574020	0.429190
C2071	C207	0.513370	0.554210	0.463270
H1371	H137	0.543070	0.571130	0.474530
H1381	H138	0.390770	0.564130	0.438030
O471	O47	0.304660	0.113160	0.736880
O481	O48	0.277520	0.099450	0.641380
C2081	C208	0.278930	0.088660	0.695480
C2091	C209	0.247370	0.041820	0.713660
C2101	C210	0.219960	0.012010	0.669560
H1391	H139	0.221130	0.021170	0.628970
C2111	C211	0.190980	0.968710	0.685990
H1401	H140	0.172030	0.948870	0.656570
C2121	C212	0.189750	0.954530	0.745130
C2131	C213	0.217060	0.984910	0.789030
H1411	H141	0.215830	0.976070	0.829770
C2141	C214	0.245930	0.028030	0.772030
H1421	H142	0.264830	0.048070	0.801370
C2151	C215	0.161870	0.907360	0.762530
C2161	C216	0.180030	0.887550	0.796610
H1431	H143	0.209730	0.904470	0.807870
H1441	H144	0.057430	0.897470	0.771370
O491	O49	0.553510	0.524840	0.070210
O501	O50	0.567220	0.511410	0.974710
C2171	C217	0.578010	0.523610	0.028810
C2181	C218	0.624850	0.538890	0.046990
C2191	C219	0.654660	0.541290	0.002890
H1451	H145	0.645500	0.533300	0.962300
C2201	C220	0.697960	0.555610	0.019320
H1461	H146	0.717800	0.556500	0.989900
C2211	C221	0.712140	0.568560	0.078460
C2221	C222	0.681760	0.565490	0.122360
H1471	H147	0.690600	0.573100	0.163100
C2231	C223	0.638640	0.551240	0.105360
H1481	H148	0.618600	0.550100	0.134700
C2241	C224	0.759310	0.587850	0.095860
C2251	C225	0.779120	0.625820	0.129940
H1491	H149	0.762200	0.638600	0.141200
H1501	H150	0.769200	0.493300	0.104700
O511	O51	0.220180	0.858170	0.403540
O521	O52	0.233890	0.844740	0.308040
C2261	C226	0.244680	0.856940	0.362140
C2271	C227	0.291520	0.872220	0.380320
C2281	C228	0.321330	0.874620	0.336220
H1511	H151	0.312170	0.866630	0.295630
C2291	C229	0.364630	0.888940	0.352650
H1521	H152	0.384470	0.889830	0.323230
C2301	C230	0.378810	0.901890	0.411790
C2311	C231	0.348430	0.898820	0.455690
H1531	H153	0.357270	0.906430	0.496430
C2321	C232	0.305310	0.884570	0.438690
H1541	H154	0.285270	0.883430	0.468030
C2331	C233	0.425980	0.921180	0.429190
C2341	C234	0.445790	0.959150	0.463270
H1551	H155	0.428870	0.971930	0.474530
H1561	H156	0.435870	0.826630	0.438030
O531	O53	0.886840	0.191510	0.736880
O541	O54	0.900550	0.178080	0.641380
C2351	C235	0.911340	0.190280	0.695480
C2361	C236	0.958180	0.205560	0.713660
C2371	C237	0.987990	0.207960	0.669560
H1571	H157	0.978830	0.199970	0.628970
C2381	C238	0.031290	0.222280	0.685990
H1581	H158	0.051130	0.223170	0.656570
C2391	C239	0.045470	0.235230	0.745130
C2401	C240	0.015090	0.232160	0.789030
H1591	H159	0.023930	0.239770	0.829770
C2411	C241	0.971970	0.217910	0.772030
H1601	H160	0.951930	0.216770	0.801370
C2421	C242	0.092640	0.254520	0.762530
C2431	C243	0.112450	0.292490	0.796610
H1611	H161	0.095530	0.305270	0.807870
H1621	H162	0.102530	0.159970	0.771370
O551	O55	0.028670	0.475160	0.929790
O561	O56	0.055810	0.488590	0.025290
C2441	C244	0.054400	0.476390	0.971190
C2451	C245	0.085960	0.461110	0.953010
C2461	C246	0.113370	0.458710	0.997110
H1631	H163	0.112200	0.466700	0.037700
C2471	C247	0.142350	0.444390	0.980680
H1641	H164	0.161300	0.443500	0.010100
C2481	C248	0.143580	0.431440	0.921540
C2491	C249	0.116270	0.434510	0.877640
H1651	H165	0.117500	0.426900	0.836900
C2501	C250	0.087400	0.448760	0.894640
H1661	H166	0.068500	0.449900	0.865300
C2511	C251	0.171460	0.412150	0.904140
C2521	C252	0.153300	0.374180	0.870060
H1671	H167	0.123600	0.361400	0.858800
H1681	H168	0.275900	0.506700	0.895300
O571	O57	0.695340	0.808490	0.263120
O581	O58	0.722480	0.821920	0.358620
C2531	C253	0.721070	0.809720	0.304520
C2541	C254	0.752630	0.794440	0.286340
C2551	C255	0.780040	0.792040	0.330440
H1691	H169	0.778870	0.800030	0.371030
C2561	C256	0.809020	0.777720	0.314010
H1701	H170	0.827970	0.776830	0.343430
C2571	C257	0.810250	0.764770	0.254870
C2581	C258	0.782940	0.767840	0.210970
H1711	H171	0.784170	0.760230	0.170230
C2591	C259	0.754070	0.782090	0.227970
H1721	H172	0.735170	0.783230	0.198630
C2601	C260	0.838130	0.745480	0.237470
C2611	C261	0.819970	0.707510	0.203390
H1731	H173	0.790270	0.694730	0.192130
H1741	H174	0.942570	0.840030	0.228630
O591	O59	0.362000	0.141830	0.596460
O601	O60	0.389140	0.155260	0.691960
C2621	C262	0.387730	0.143060	0.637860
C2631	C263	0.419290	0.127780	0.619680
C2641	C264	0.446700	0.125380	0.663780
H1751	H175	0.445530	0.133370	0.704370
C2651	C265	0.475680	0.111060	0.647350
H1761	H176	0.494630	0.110170	0.676770
C2661	C266	0.476910	0.098110	0.588210
C2671	C267	0.449600	0.101180	0.544310
H1771	H177	0.450830	0.093570	0.503570
C2681	C268	0.420730	0.115430	0.561310
H1781	H178	0.401830	0.116570	0.531970
C2691	C269	0.504790	0.078820	0.570810
C2701	C270	0.486630	0.040850	0.536730
H1791	H179	0.456930	0.028070	0.525470
H1801	H180	0.609230	0.173370	0.561970
O611	O61	0.446490	0.971330	0.929790
O621	O62	0.432780	0.944190	0.025290
C2711	C271	0.421990	0.945600	0.971190
C2721	C272	0.375150	0.914040	0.953010
C2731	C273	0.345340	0.886630	0.997110
H1811	H181	0.354500	0.887800	0.037700
C2741	C274	0.302040	0.857650	0.980680
H1821	H182	0.282200	0.838700	0.010100
C2751	C275	0.287860	0.856420	0.921540
C2761	C276	0.318240	0.883730	0.877640
H1831	H183	0.309400	0.882500	0.836900
C2771	C277	0.361360	0.912600	0.894640
H1841	H184	0.381400	0.931500	0.865300
C2781	C278	0.240690	0.828540	0.904140
C2791	C279	0.220880	0.846700	0.870060
H1851	H185	0.237800	0.876400	0.858800
H1861	H186	0.230800	0.724100	0.895300
O631	O63	0.113160	0.304660	0.263120
O641	O64	0.099450	0.277520	0.358620
C2801	C280	0.088660	0.278930	0.304520
C2811	C281	0.041820	0.247370	0.286340
C2821	C282	0.012010	0.219960	0.330440
H1871	H187	0.021170	0.221130	0.371030
C2831	C283	0.968710	0.190980	0.314010
H1881	H188	0.948870	0.172030	0.343430
C2841	C284	0.954530	0.189750	0.254870
C2851	C285	0.984910	0.217060	0.210970
H1891	H189	0.976070	0.215830	0.170230
C2861	C286	0.028030	0.245930	0.227970
H1901	H190	0.048070	0.264830	0.198630
C2871	C287	0.907360	0.161870	0.237470
C2881	C288	0.887550	0.180030	0.203390
H1911	H191	0.904470	0.209730	0.192130
H1921	H192	0.897470	0.057430	0.228630
O651	O65	0.779820	0.638000	0.596460
O661	O66	0.766110	0.610860	0.691960
C2891	C289	0.755320	0.612270	0.637860
C2901	C290	0.708480	0.580710	0.619680
C2911	C291	0.678670	0.553300	0.663780
H1931	H193	0.687830	0.554470	0.704370
C2921	C292	0.635370	0.524320	0.647350
H1941	H194	0.615530	0.505370	0.676770
C2931	C293	0.621190	0.523090	0.588210
C2941	C294	0.651570	0.550400	0.544310
H1951	H195	0.642730	0.549170	0.503570
C2951	C295	0.694690	0.579270	0.561310
H1961	H196	0.714730	0.598170	0.531970
C2961	C296	0.574020	0.495210	0.570810
C2971	C297	0.554210	0.513370	0.536730
H1971	H197	0.571130	0.543070	0.525470
H1981	H198	0.564130	0.390770	0.561970
O671	O67	0.524840	0.553510	0.929790
O681	O68	0.511410	0.567220	0.025290
C2981	C298	0.523610	0.578010	0.971190
C2991	C299	0.538890	0.624850	0.953010
C3001	C300	0.541290	0.654660	0.997110
H1991	H199	0.533300	0.645500	0.037700
C3011	C301	0.555610	0.697960	0.980680
H2001	H200	0.556500	0.717800	0.010100
C3021	C302	0.568560	0.712140	0.921540
C3031	C303	0.565490	0.681760	0.877640
H2011	H201	0.573100	0.690600	0.836900
C3041	C304	0.551240	0.638640	0.894640
H2021	H202	0.550100	0.618600	0.865300
C3051	C305	0.587850	0.759310	0.904140
C3061	C306	0.625820	0.779120	0.870060
H2031	H203	0.638600	0.762200	0.858800
H2041	H204	0.493300	0.769200	0.895300
O691	O69	0.191510	0.886840	0.263120
O701	O70	0.178080	0.900550	0.358620
C3071	C307	0.190280	0.911340	0.304520
C3081	C308	0.205560	0.958180	0.286340
C3091	C309	0.207960	0.987990	0.330440
H2051	H205	0.199970	0.978830	0.371030
C3101	C310	0.222280	0.031290	0.314010
H2061	H206	0.223170	0.051130	0.343430
C3111	C311	0.235230	0.045470	0.254870
C3121	C312	0.232160	0.015090	0.210970
H2071	H207	0.239770	0.023930	0.170230
C3131	C313	0.217910	0.971970	0.227970
H2081	H208	0.216770	0.951930	0.198630
C3141	C314	0.254520	0.092640	0.237470
C3151	C315	0.292490	0.112450	0.203390
H2091	H209	0.305270	0.095530	0.192130
H2101	H210	0.159970	0.102530	0.228630
O711	O71	0.858170	0.220180	0.596460
O721	O72	0.844740	0.233890	0.691960
C3161	C316	0.856940	0.244680	0.637860
C3171	C317	0.872220	0.291520	0.619680
C3181	C318	0.874620	0.321330	0.663780
H2111	H211	0.866630	0.312170	0.704370
C3191	C319	0.888940	0.364630	0.647350
H2121	H212	0.889830	0.384470	0.676770
C3201	C320	0.901890	0.378810	0.588210
C3211	C321	0.898820	0.348430	0.544310
H2131	H213	0.906430	0.357270	0.503570
C3221	C322	0.884570	0.305310	0.561310
H2141	H214	0.883430	0.285270	0.531970
C3231	C323	0.921180	0.425980	0.570810
C3241	C324	0.959150	0.445790	0.536730
H2151	H215	0.971930	0.428870	0.525470
H2161	H216	0.826630	0.435870	0.561970
Cu11	Cu1	0.507920	0.015840	0.943830
Cu21	Cu2	0.174590	0.349170	0.277160
Cu31	Cu3	0.841250	0.682510	0.610500
Cu41	Cu4	0.984160	0.492080	0.943830
Cu51	Cu5	0.650830	0.825410	0.277160
Cu61	Cu6	0.317490	0.158750	0.610500
Cu71	Cu7	0.507920	0.492080	0.943830
Cu81	Cu8	0.174590	0.825410	0.277160
Cu91	Cu9	0.841250	0.158750	0.610500
Cu101	Cu10	0.015840	0.507920	0.056170
Cu111	Cu11	0.682510	0.841250	0.389500
Cu121	Cu12	0.349170	0.174590	0.722840
Cu131	Cu13	0.492080	0.984160	0.056170
Cu141	Cu14	0.158750	0.317490	0.389500
Cu151	Cu15	0.825410	0.650830	0.722840
Cu161	Cu16	0.492080	0.507920	0.056170
Cu171	Cu17	0.158750	0.841250	0.389500
Cu181	Cu18	0.825410	0.174590	0.722840
O731	O73	0.531300	0.765650	0.956640
C3251	C325	0.646390	0.823190	0.851280
C3261	C326	0.568490	0.784240	0.921440
C3271	C327	0.493570	0.746780	0.920800
H2171	H217	0.467800	0.733900	0.946900
O741	O74	0.197970	0.098980	0.289970
C3281	C328	0.313060	0.156530	0.184610
C3291	C329	0.235160	0.117580	0.254770
C3301	C330	0.160240	0.080120	0.254130
H2181	H218	0.134470	0.067230	0.280230
O751	O75	0.864630	0.432320	0.623310
C3311	C331	0.979720	0.489860	0.517950
C3321	C332	0.901820	0.450910	0.588110
C3331	C333	0.826900	0.413450	0.587470
H2191	H219	0.801130	0.400570	0.613570
O761	O76	0.234350	0.765650	0.956640
C3341	C334	0.176810	0.823190	0.851280
C3351	C335	0.215760	0.784240	0.921440
C3361	C336	0.253220	0.746780	0.920800
H2201	H220	0.266100	0.733900	0.946900
O771	O77	0.901020	0.098980	0.289970
C3371	C337	0.843470	0.156530	0.184610
C3381	C338	0.882420	0.117580	0.254770
C3391	C339	0.919880	0.080120	0.254130
H2211	H221	0.932770	0.067230	0.280230
O781	O78	0.567680	0.432320	0.623310
C3401	C340	0.510140	0.489860	0.517950
C3411	C341	0.549090	0.450910	0.588110
C3421	C342	0.586550	0.413450	0.587470
H2221	H222	0.599430	0.400570	0.613570
O791	O79	0.234350	0.468700	0.956640
C3431	C343	0.176810	0.353610	0.851280
C3441	C344	0.215760	0.431510	0.921440
C3451	C345	0.253220	0.506430	0.920800
H2231	H223	0.266100	0.532200	0.946900
O801	O80	0.901020	0.802030	0.289970
C3461	C346	0.843470	0.686940	0.184610
C3471	C347	0.882420	0.764840	0.254770
C3481	C348	0.919880	0.839760	0.254130
H2241	H224	0.932770	0.865530	0.280230
O811	O81	0.567680	0.135370	0.623310
C3491	C349	0.510140	0.020280	0.517950
C3501	C350	0.549090	0.098180	0.588110
C3511	C351	0.586550	0.173100	0.587470
H2251	H225	0.599430	0.198870	0.613570
O821	O82	0.765650	0.531300	0.043360
C3521	C352	0.823190	0.646390	0.148720
C3531	C353	0.784240	0.568490	0.078560
C3541	C354	0.746780	0.493570	0.079200
H2261	H226	0.733900	0.467800	0.053100
O831	O83	0.432320	0.864630	0.376690
C3551	C355	0.489860	0.979720	0.482050
C3561	C356	0.450910	0.901820	0.411890
C3571	C357	0.413450	0.826900	0.412530
H2271	H227	0.400570	0.801130	0.386430
O841	O84	0.098980	0.197970	0.710030
C3581	C358	0.156530	0.313060	0.815390
C3591	C359	0.117580	0.235160	0.745230
C3601	C360	0.080120	0.160240	0.745870
H2281	H228	0.067230	0.134470	0.719770
O851	O85	0.765650	0.234350	0.043360
C3611	C361	0.823190	0.176810	0.148720
C3621	C362	0.784240	0.215760	0.078560
C3631	C363	0.746780	0.253220	0.079200
H2291	H229	0.733900	0.266100	0.053100
O861	O86	0.432320	0.567680	0.376690
C3641	C364	0.489860	0.510140	0.482050
C3651	C365	0.450910	0.549090	0.411890
C3661	C366	0.413450	0.586550	0.412530
H2301	H230	0.400570	0.599430	0.386430
O871	O87	0.098980	0.901020	0.710030
C3671	C367	0.156530	0.843470	0.815390
C3681	C368	0.117580	0.882420	0.745230
C3691	C369	0.080120	0.919880	0.745870
H2311	H231	0.067230	0.932770	0.719770
O881	O88	0.468700	0.234350	0.043360
C3701	C370	0.353610	0.176810	0.148720
C3711	C371	0.431510	0.215760	0.078560
C3721	C372	0.506430	0.253220	0.079200
H2321	H232	0.532200	0.266100	0.053100
O891	O89	0.135370	0.567680	0.376690
C3731	C373	0.020280	0.510140	0.482050
C3741	C374	0.098180	0.549090	0.411890
C3751	C375	0.173100	0.586550	0.412530
H2331	H233	0.198870	0.599430	0.386430
O901	O90	0.802030	0.901020	0.710030
C3761	C376	0.686940	0.843470	0.815390
C3771	C377	0.764840	0.882420	0.745230
C3781	C378	0.839760	0.919880	0.745870
H2341	H234	0.865530	0.932770	0.719770
