data_UMOVEZ01_clean_PM
_symmetry_space_group_name_H-M	'P1'
_cell_length_a	35.277500
_cell_length_b	35.277500
_cell_length_c	20.338200
_cell_angle_alpha	90.000000
_cell_angle_beta	90.000000
_cell_angle_gamma	120.000000
_symmetry_Int_Tables_number 1

loop_
_symmetry_equiv_pos_as_xyz
'x,y,z'

loop_
_atom_site_label
_atom_site_type_symbol
_atom_site_fract_x
_atom_site_fract_y
_atom_site_fract_z
O11	O1	0.524330	0.970770	0.424020
O21	O2	0.511470	0.944880	0.527790
C11	C1	0.523240	0.945550	0.468670
C21	C2	0.537450	0.913260	0.450290
C31	C3	0.537720	0.884980	0.498720
H11	H1	0.528600	0.885800	0.542400
C41	C4	0.551690	0.855600	0.481270
H21	H2	0.551500	0.835900	0.513300
C51	C5	0.565750	0.854670	0.418600
C61	C6	0.564450	0.882760	0.370990
H31	H3	0.573000	0.881700	0.327000
C71	C7	0.550760	0.912020	0.387760
H41	H4	0.550600	0.931400	0.355500
C81	C8	0.585560	0.827130	0.401480
C91	C9	0.624250	0.845820	0.367750
H51	H5	0.637400	0.875900	0.356200
H61	H6	0.489000	0.721800	0.383200
O31	O3	0.191000	0.304100	0.757350
O41	O4	0.178140	0.278210	0.861120
C101	C10	0.189910	0.278880	0.802000
C111	C11	0.204120	0.246590	0.783620
C121	C12	0.204390	0.218310	0.832050
H71	H7	0.195270	0.219130	0.875730
C131	C13	0.218360	0.188930	0.814600
H81	H8	0.218170	0.169230	0.846630
C141	C14	0.232420	0.188000	0.751930
C151	C15	0.231120	0.216090	0.704320
H91	H9	0.239670	0.215030	0.660330
C161	C16	0.217430	0.245350	0.721090
H101	H10	0.217270	0.264730	0.688830
C171	C17	0.252230	0.160460	0.734810
C181	C18	0.290920	0.179150	0.701080
H111	H11	0.304070	0.209230	0.689530
H121	H12	0.155670	0.055130	0.716530
O51	O5	0.857660	0.637440	0.090690
O61	O6	0.844800	0.611550	0.194460
C191	C19	0.856570	0.612220	0.135340
C201	C20	0.870780	0.579930	0.116960
C211	C21	0.871050	0.551650	0.165390
H131	H13	0.861930	0.552470	0.209070
C221	C22	0.885020	0.522270	0.147940
H141	H14	0.884830	0.502570	0.179970
C231	C23	0.899080	0.521340	0.085270
C241	C24	0.897780	0.549430	0.037660
H151	H15	0.906330	0.548370	0.993670
C251	C25	0.884090	0.578690	0.054430
H161	H16	0.883930	0.598070	0.022170
C261	C26	0.918890	0.493800	0.068150
C271	C27	0.957580	0.512490	0.034420
H171	H17	0.970730	0.542570	0.022870
H181	H18	0.822330	0.388470	0.049870
O71	O7	0.029230	0.553560	0.424020
O81	O8	0.055120	0.566590	0.527790
C281	C28	0.054450	0.577690	0.468670
C291	C29	0.086740	0.624190	0.450290
C301	C30	0.115020	0.652740	0.498720
H191	H19	0.114200	0.642800	0.542400
C311	C31	0.144400	0.696090	0.481270
H201	H20	0.164100	0.715600	0.513300
C321	C32	0.145330	0.711080	0.418600
C331	C33	0.117240	0.681690	0.370990
H211	H21	0.118300	0.691300	0.327000
C341	C34	0.087980	0.638740	0.387760
H221	H22	0.068600	0.619200	0.355500
C351	C35	0.172870	0.758430	0.401480
C361	C36	0.154180	0.778430	0.367750
H231	H23	0.124100	0.761500	0.356200
H241	H24	0.278200	0.767200	0.383200
O91	O9	0.695900	0.886890	0.757350
O101	O10	0.721790	0.899920	0.861120
C371	C37	0.721120	0.911020	0.802000
C381	C38	0.753410	0.957520	0.783620
C391	C39	0.781690	0.986070	0.832050
H251	H25	0.780870	0.976130	0.875730
C401	C40	0.811070	0.029420	0.814600
H261	H26	0.830770	0.048930	0.846630
C411	C41	0.812000	0.044410	0.751930
C421	C42	0.783910	0.015020	0.704320
H271	H27	0.784970	0.024630	0.660330
C431	C43	0.754650	0.972070	0.721090
H281	H28	0.735270	0.952530	0.688830
C441	C44	0.839540	0.091760	0.734810
C451	C45	0.820850	0.111760	0.701080
H291	H29	0.790770	0.094830	0.689530
H301	H30	0.944870	0.100530	0.716530
O111	O11	0.362560	0.220230	0.090690
O121	O12	0.388450	0.233260	0.194460
C461	C46	0.387780	0.244360	0.135340
C471	C47	0.420070	0.290860	0.116960
C481	C48	0.448350	0.319410	0.165390
H311	H31	0.447530	0.309470	0.209070
C491	C49	0.477730	0.362760	0.147940
H321	H32	0.497430	0.382270	0.179970
C501	C50	0.478660	0.377750	0.085270
C511	C51	0.450570	0.348360	0.037660
H331	H33	0.451630	0.357970	0.993670
C521	C52	0.421310	0.305410	0.054430
H341	H34	0.401930	0.285870	0.022170
C531	C53	0.506200	0.425100	0.068150
C541	C54	0.487510	0.445100	0.034420
H351	H35	0.457430	0.428170	0.022870
H361	H36	0.611530	0.433870	0.049870
O131	O13	0.446440	0.475670	0.424020
O141	O14	0.433410	0.488530	0.527790
C551	C55	0.422310	0.476760	0.468670
C561	C56	0.375810	0.462550	0.450290
C571	C57	0.347260	0.462280	0.498720
H371	H37	0.357200	0.471400	0.542400
C581	C58	0.303910	0.448310	0.481270
H381	H38	0.284400	0.448500	0.513300
C591	C59	0.288920	0.434250	0.418600
C601	C60	0.318310	0.435550	0.370990
H391	H39	0.308700	0.427000	0.327000
C611	C61	0.361260	0.449240	0.387760
H401	H40	0.380800	0.449400	0.355500
C621	C62	0.241570	0.414440	0.401480
C631	C63	0.221570	0.375750	0.367750
H411	H41	0.238500	0.362600	0.356200
H421	H42	0.232800	0.511000	0.383200
O151	O15	0.113110	0.809000	0.757350
O161	O16	0.100080	0.821860	0.861120
C641	C64	0.088980	0.810090	0.802000
C651	C65	0.042480	0.795880	0.783620
C661	C66	0.013930	0.795610	0.832050
H431	H43	0.023870	0.804730	0.875730
C671	C67	0.970580	0.781640	0.814600
H441	H44	0.951070	0.781830	0.846630
C681	C68	0.955590	0.767580	0.751930
C691	C69	0.984980	0.768880	0.704320
H451	H45	0.975370	0.760330	0.660330
C701	C70	0.027930	0.782570	0.721090
H461	H46	0.047470	0.782730	0.688830
C711	C71	0.908240	0.747770	0.734810
C721	C72	0.888240	0.709080	0.701080
H471	H47	0.905170	0.695930	0.689530
H481	H48	0.899470	0.844330	0.716530
O171	O17	0.779770	0.142340	0.090690
O181	O18	0.766740	0.155200	0.194460
C731	C73	0.755640	0.143430	0.135340
C741	C74	0.709140	0.129220	0.116960
C751	C75	0.680590	0.128950	0.165390
H491	H49	0.690530	0.138070	0.209070
C761	C76	0.637240	0.114980	0.147940
H501	H50	0.617730	0.115170	0.179970
C771	C77	0.622250	0.100920	0.085270
C781	C78	0.651640	0.102220	0.037660
H511	H51	0.642030	0.093670	0.993670
C791	C79	0.694590	0.115910	0.054430
H521	H52	0.714130	0.116070	0.022170
C801	C80	0.574900	0.081110	0.068150
C811	C81	0.554900	0.042420	0.034420
H531	H53	0.571830	0.029270	0.022870
H541	H54	0.566130	0.177670	0.049870
O191	O19	0.970770	0.524330	0.575980
O201	O20	0.944880	0.511470	0.472210
C821	C82	0.945550	0.523240	0.531330
C831	C83	0.913260	0.537450	0.549710
C841	C84	0.884980	0.537720	0.501280
H551	H55	0.885800	0.528600	0.457600
C851	C85	0.855600	0.551690	0.518730
H561	H56	0.835900	0.551500	0.486700
C861	C86	0.854670	0.565750	0.581400
C871	C87	0.882760	0.564450	0.629010
H571	H57	0.881700	0.573000	0.673000
C881	C88	0.912020	0.550760	0.612240
H581	H58	0.931400	0.550600	0.644500
C891	C89	0.827130	0.585560	0.598520
C901	C90	0.845820	0.624250	0.632250
H591	H59	0.875900	0.637400	0.643800
H601	H60	0.721800	0.489000	0.616800
O211	O21	0.637440	0.857660	0.909310
O221	O22	0.611550	0.844800	0.805540
C911	C91	0.612220	0.856570	0.864660
C921	C92	0.579930	0.870780	0.883040
C931	C93	0.551650	0.871050	0.834610
H611	H61	0.552470	0.861930	0.790930
C941	C94	0.522270	0.885020	0.852060
H621	H62	0.502570	0.884830	0.820030
C951	C95	0.521340	0.899080	0.914730
C961	C96	0.549430	0.897780	0.962340
H631	H63	0.548370	0.906330	0.006330
C971	C97	0.578690	0.884090	0.945570
H641	H64	0.598070	0.883930	0.977830
C981	C98	0.493800	0.918890	0.931850
C991	C99	0.512490	0.957580	0.965580
H651	H65	0.542570	0.970730	0.977130
H661	H66	0.388470	0.822330	0.950130
O231	O23	0.304100	0.191000	0.242650
O241	O24	0.278210	0.178140	0.138880
C1001	C100	0.278880	0.189910	0.198000
C1011	C101	0.246590	0.204120	0.216380
C1021	C102	0.218310	0.204390	0.167950
H671	H67	0.219130	0.195270	0.124270
C1031	C103	0.188930	0.218360	0.185400
H681	H68	0.169230	0.218170	0.153370
C1041	C104	0.188000	0.232420	0.248070
C1051	C105	0.216090	0.231120	0.295680
H691	H69	0.215030	0.239670	0.339670
C1061	C106	0.245350	0.217430	0.278910
H701	H70	0.264730	0.217270	0.311170
C1071	C107	0.160460	0.252230	0.265190
C1081	C108	0.179150	0.290920	0.298920
H711	H71	0.209230	0.304070	0.310470
H721	H72	0.055130	0.155670	0.283470
O251	O25	0.553560	0.029230	0.575980
O261	O26	0.566590	0.055120	0.472210
C1091	C109	0.577690	0.054450	0.531330
C1101	C110	0.624190	0.086740	0.549710
C1111	C111	0.652740	0.115020	0.501280
H731	H73	0.642800	0.114200	0.457600
C1121	C112	0.696090	0.144400	0.518730
H741	H74	0.715600	0.164100	0.486700
C1131	C113	0.711080	0.145330	0.581400
C1141	C114	0.681690	0.117240	0.629010
H751	H75	0.691300	0.118300	0.673000
C1151	C115	0.638740	0.087980	0.612240
H761	H76	0.619200	0.068600	0.644500
C1161	C116	0.758430	0.172870	0.598520
C1171	C117	0.778430	0.154180	0.632250
H771	H77	0.761500	0.124100	0.643800
H781	H78	0.767200	0.278200	0.616800
O271	O27	0.220230	0.362560	0.909310
O281	O28	0.233260	0.388450	0.805540
C1181	C118	0.244360	0.387780	0.864660
C1191	C119	0.290860	0.420070	0.883040
C1201	C120	0.319410	0.448350	0.834610
H791	H79	0.309470	0.447530	0.790930
C1211	C121	0.362760	0.477730	0.852060
H801	H80	0.382270	0.497430	0.820030
C1221	C122	0.377750	0.478660	0.914730
C1231	C123	0.348360	0.450570	0.962340
H811	H81	0.357970	0.451630	0.006330
C1241	C124	0.305410	0.421310	0.945570
H821	H82	0.285870	0.401930	0.977830
C1251	C125	0.425100	0.506200	0.931850
C1261	C126	0.445100	0.487510	0.965580
H831	H83	0.428170	0.457430	0.977130
H841	H84	0.433870	0.611530	0.950130
O291	O29	0.886890	0.695900	0.242650
O301	O30	0.899920	0.721790	0.138880
C1271	C127	0.911020	0.721120	0.198000
C1281	C128	0.957520	0.753410	0.216380
C1291	C129	0.986070	0.781690	0.167950
H851	H85	0.976130	0.780870	0.124270
C1301	C130	0.029420	0.811070	0.185400
H861	H86	0.048930	0.830770	0.153370
C1311	C131	0.044410	0.812000	0.248070
C1321	C132	0.015020	0.783910	0.295680
H871	H87	0.024630	0.784970	0.339670
C1331	C133	0.972070	0.754650	0.278910
H881	H88	0.952530	0.735270	0.311170
C1341	C134	0.091760	0.839540	0.265190
C1351	C135	0.111760	0.820850	0.298920
H891	H89	0.094830	0.790770	0.310470
H901	H90	0.100530	0.944870	0.283470
O311	O31	0.475670	0.446440	0.575980
O321	O32	0.488530	0.433410	0.472210
C1361	C136	0.476760	0.422310	0.531330
C1371	C137	0.462550	0.375810	0.549710
C1381	C138	0.462280	0.347260	0.501280
H911	H91	0.471400	0.357200	0.457600
C1391	C139	0.448310	0.303910	0.518730
H921	H92	0.448500	0.284400	0.486700
C1401	C140	0.434250	0.288920	0.581400
C1411	C141	0.435550	0.318310	0.629010
H931	H93	0.427000	0.308700	0.673000
C1421	C142	0.449240	0.361260	0.612240
H941	H94	0.449400	0.380800	0.644500
C1431	C143	0.414440	0.241570	0.598520
C1441	C144	0.375750	0.221570	0.632250
H951	H95	0.362600	0.238500	0.643800
H961	H96	0.511000	0.232800	0.616800
O331	O33	0.142340	0.779770	0.909310
O341	O34	0.155200	0.766740	0.805540
C1451	C145	0.143430	0.755640	0.864660
C1461	C146	0.129220	0.709140	0.883040
C1471	C147	0.128950	0.680590	0.834610
H971	H97	0.138070	0.690530	0.790930
C1481	C148	0.114980	0.637240	0.852060
H981	H98	0.115170	0.617730	0.820030
C1491	C149	0.100920	0.622250	0.914730
C1501	C150	0.102220	0.651640	0.962340
H991	H99	0.093670	0.642030	0.006330
C1511	C151	0.115910	0.694590	0.945570
H1001	H100	0.116070	0.714130	0.977830
C1521	C152	0.081110	0.574900	0.931850
C1531	C153	0.042420	0.554900	0.965580
H1011	H101	0.029270	0.571830	0.977130
H1021	H102	0.177670	0.566130	0.950130
O351	O35	0.809000	0.113110	0.242650
O361	O36	0.821860	0.100080	0.138880
C1541	C154	0.810090	0.088980	0.198000
C1551	C155	0.795880	0.042480	0.216380
C1561	C156	0.795610	0.013930	0.167950
H1031	H103	0.804730	0.023870	0.124270
C1571	C157	0.781640	0.970580	0.185400
H1041	H104	0.781830	0.951070	0.153370
C1581	C158	0.767580	0.955590	0.248070
C1591	C159	0.768880	0.984980	0.295680
H1051	H105	0.760330	0.975370	0.339670
C1601	C160	0.782570	0.027930	0.278910
H1061	H106	0.782730	0.047470	0.311170
C1611	C161	0.747770	0.908240	0.265190
C1621	C162	0.709080	0.888240	0.298920
H1071	H107	0.695930	0.905170	0.310470
H1081	H108	0.844330	0.899470	0.283470
O371	O37	0.475670	0.029230	0.575980
O381	O38	0.488530	0.055120	0.472210
C1631	C163	0.476760	0.054450	0.531330
C1641	C164	0.462550	0.086740	0.549710
C1651	C165	0.462280	0.115020	0.501280
H1091	H109	0.471400	0.114200	0.457600
C1661	C166	0.448310	0.144400	0.518730
H1101	H110	0.448500	0.164100	0.486700
C1671	C167	0.434250	0.145330	0.581400
C1681	C168	0.435550	0.117240	0.629010
H1111	H111	0.427000	0.118300	0.673000
C1691	C169	0.449240	0.087980	0.612240
H1121	H112	0.449400	0.068600	0.644500
C1701	C170	0.414440	0.172870	0.598520
C1711	C171	0.375750	0.154180	0.632250
H1131	H113	0.362600	0.124100	0.643800
H1141	H114	0.511000	0.278200	0.616800
O391	O39	0.142340	0.362560	0.909310
O401	O40	0.155200	0.388450	0.805540
C1721	C172	0.143430	0.387780	0.864660
C1731	C173	0.129220	0.420070	0.883040
C1741	C174	0.128950	0.448350	0.834610
H1151	H115	0.138070	0.447530	0.790930
C1751	C175	0.114980	0.477730	0.852060
H1161	H116	0.115170	0.497430	0.820030
C1761	C176	0.100920	0.478660	0.914730
C1771	C177	0.102220	0.450570	0.962340
H1171	H117	0.093670	0.451630	0.006330
C1781	C178	0.115910	0.421310	0.945570
H1181	H118	0.116070	0.401930	0.977830
C1791	C179	0.081110	0.506200	0.931850
C1801	C180	0.042420	0.487510	0.965580
H1191	H119	0.029270	0.457430	0.977130
H1201	H120	0.177670	0.611530	0.950130
O411	O41	0.809000	0.695900	0.242650
O421	O42	0.821860	0.721790	0.138880
C1811	C181	0.810090	0.721120	0.198000
C1821	C182	0.795880	0.753410	0.216380
C1831	C183	0.795610	0.781690	0.167950
H1211	H121	0.804730	0.780870	0.124270
C1841	C184	0.781640	0.811070	0.185400
H1221	H122	0.781830	0.830770	0.153370
C1851	C185	0.767580	0.812000	0.248070
C1861	C186	0.768880	0.783910	0.295680
H1231	H123	0.760330	0.784970	0.339670
C1871	C187	0.782570	0.754650	0.278910
H1241	H124	0.782730	0.735270	0.311170
C1881	C188	0.747770	0.839540	0.265190
C1891	C189	0.709080	0.820850	0.298920
H1251	H125	0.695930	0.790770	0.310470
H1261	H126	0.844330	0.944870	0.283470
O431	O43	0.970770	0.446440	0.575980
O441	O44	0.944880	0.433410	0.472210
C1901	C190	0.945550	0.422310	0.531330
C1911	C191	0.913260	0.375810	0.549710
C1921	C192	0.884980	0.347260	0.501280
H1271	H127	0.885800	0.357200	0.457600
C1931	C193	0.855600	0.303910	0.518730
H1281	H128	0.835900	0.284400	0.486700
C1941	C194	0.854670	0.288920	0.581400
C1951	C195	0.882760	0.318310	0.629010
H1291	H129	0.881700	0.308700	0.673000
C1961	C196	0.912020	0.361260	0.612240
H1301	H130	0.931400	0.380800	0.644500
C1971	C197	0.827130	0.241570	0.598520
C1981	C198	0.845820	0.221570	0.632250
H1311	H131	0.875900	0.238500	0.643800
H1321	H132	0.721800	0.232800	0.616800
O451	O45	0.637440	0.779770	0.909310
O461	O46	0.611550	0.766740	0.805540
C1991	C199	0.612220	0.755640	0.864660
C2001	C200	0.579930	0.709140	0.883040
C2011	C201	0.551650	0.680590	0.834610
H1331	H133	0.552470	0.690530	0.790930
C2021	C202	0.522270	0.637240	0.852060
H1341	H134	0.502570	0.617730	0.820030
C2031	C203	0.521340	0.622250	0.914730
C2041	C204	0.549430	0.651640	0.962340
H1351	H135	0.548370	0.642030	0.006330
C2051	C205	0.578690	0.694590	0.945570
H1361	H136	0.598070	0.714130	0.977830
C2061	C206	0.493800	0.574900	0.931850
C2071	C207	0.512490	0.554900	0.965580
H1371	H137	0.542570	0.571830	0.977130
H1381	H138	0.388470	0.566130	0.950130
O471	O47	0.304100	0.113110	0.242650
O481	O48	0.278210	0.100080	0.138880
C2081	C208	0.278880	0.088980	0.198000
C2091	C209	0.246590	0.042480	0.216380
C2101	C210	0.218310	0.013930	0.167950
H1391	H139	0.219130	0.023870	0.124270
C2111	C211	0.188930	0.970580	0.185400
H1401	H140	0.169230	0.951070	0.153370
C2121	C212	0.188000	0.955590	0.248070
C2131	C213	0.216090	0.984980	0.295680
H1411	H141	0.215030	0.975370	0.339670
C2141	C214	0.245350	0.027930	0.278910
H1421	H142	0.264730	0.047470	0.311170
C2151	C215	0.160460	0.908240	0.265190
C2161	C216	0.179150	0.888240	0.298920
H1431	H143	0.209230	0.905170	0.310470
H1441	H144	0.055130	0.899470	0.283470
O491	O49	0.553560	0.524330	0.575980
O501	O50	0.566590	0.511470	0.472210
C2171	C217	0.577690	0.523240	0.531330
C2181	C218	0.624190	0.537450	0.549710
C2191	C219	0.652740	0.537720	0.501280
H1451	H145	0.642800	0.528600	0.457600
C2201	C220	0.696090	0.551690	0.518730
H1461	H146	0.715600	0.551500	0.486700
C2211	C221	0.711080	0.565750	0.581400
C2221	C222	0.681690	0.564450	0.629010
H1471	H147	0.691300	0.573000	0.673000
C2231	C223	0.638740	0.550760	0.612240
H1481	H148	0.619200	0.550600	0.644500
C2241	C224	0.758430	0.585560	0.598520
C2251	C225	0.778430	0.624250	0.632250
H1491	H149	0.761500	0.637400	0.643800
H1501	H150	0.767200	0.489000	0.616800
O511	O51	0.220230	0.857660	0.909310
O521	O52	0.233260	0.844800	0.805540
C2261	C226	0.244360	0.856570	0.864660
C2271	C227	0.290860	0.870780	0.883040
C2281	C228	0.319410	0.871050	0.834610
H1511	H151	0.309470	0.861930	0.790930
C2291	C229	0.362760	0.885020	0.852060
H1521	H152	0.382270	0.884830	0.820030
C2301	C230	0.377750	0.899080	0.914730
C2311	C231	0.348360	0.897780	0.962340
H1531	H153	0.357970	0.906330	0.006330
C2321	C232	0.305410	0.884090	0.945570
H1541	H154	0.285870	0.883930	0.977830
C2331	C233	0.425100	0.918890	0.931850
C2341	C234	0.445100	0.957580	0.965580
H1551	H155	0.428170	0.970730	0.977130
H1561	H156	0.433870	0.822330	0.950130
O531	O53	0.886890	0.191000	0.242650
O541	O54	0.899920	0.178140	0.138880
C2351	C235	0.911020	0.189910	0.198000
C2361	C236	0.957520	0.204120	0.216380
C2371	C237	0.986070	0.204390	0.167950
H1571	H157	0.976130	0.195270	0.124270
C2381	C238	0.029420	0.218360	0.185400
H1581	H158	0.048930	0.218170	0.153370
C2391	C239	0.044410	0.232420	0.248070
C2401	C240	0.015020	0.231120	0.295680
H1591	H159	0.024630	0.239670	0.339670
C2411	C241	0.972070	0.217430	0.278910
H1601	H160	0.952530	0.217270	0.311170
C2421	C242	0.091760	0.252230	0.265190
C2431	C243	0.111760	0.290920	0.298920
H1611	H161	0.094830	0.304070	0.310470
H1621	H162	0.100530	0.155670	0.283470
O551	O55	0.029230	0.475670	0.424020
O561	O56	0.055120	0.488530	0.527790
C2441	C244	0.054450	0.476760	0.468670
C2451	C245	0.086740	0.462550	0.450290
C2461	C246	0.115020	0.462280	0.498720
H1631	H163	0.114200	0.471400	0.542400
C2471	C247	0.144400	0.448310	0.481270
H1641	H164	0.164100	0.448500	0.513300
C2481	C248	0.145330	0.434250	0.418600
C2491	C249	0.117240	0.435550	0.370990
H1651	H165	0.118300	0.427000	0.327000
C2501	C250	0.087980	0.449240	0.387760
H1661	H166	0.068600	0.449400	0.355500
C2511	C251	0.172870	0.414440	0.401480
C2521	C252	0.154180	0.375750	0.367750
H1671	H167	0.124100	0.362600	0.356200
H1681	H168	0.278200	0.511000	0.383200
O571	O57	0.695900	0.809000	0.757350
O581	O58	0.721790	0.821860	0.861120
C2531	C253	0.721120	0.810090	0.802000
C2541	C254	0.753410	0.795880	0.783620
C2551	C255	0.781690	0.795610	0.832050
H1691	H169	0.780870	0.804730	0.875730
C2561	C256	0.811070	0.781640	0.814600
H1701	H170	0.830770	0.781830	0.846630
C2571	C257	0.812000	0.767580	0.751930
C2581	C258	0.783910	0.768880	0.704320
H1711	H171	0.784970	0.760330	0.660330
C2591	C259	0.754650	0.782570	0.721090
H1721	H172	0.735270	0.782730	0.688830
C2601	C260	0.839540	0.747770	0.734810
C2611	C261	0.820850	0.709080	0.701080
H1731	H173	0.790770	0.695930	0.689530
H1741	H174	0.944870	0.844330	0.716530
O591	O59	0.362560	0.142340	0.090690
O601	O60	0.388450	0.155200	0.194460
C2621	C262	0.387780	0.143430	0.135340
C2631	C263	0.420070	0.129220	0.116960
C2641	C264	0.448350	0.128950	0.165390
H1751	H175	0.447530	0.138070	0.209070
C2651	C265	0.477730	0.114980	0.147940
H1761	H176	0.497430	0.115170	0.179970
C2661	C266	0.478660	0.100920	0.085270
C2671	C267	0.450570	0.102220	0.037660
H1771	H177	0.451630	0.093670	0.993670
C2681	C268	0.421310	0.115910	0.054430
H1781	H178	0.401930	0.116070	0.022170
C2691	C269	0.506200	0.081110	0.068150
C2701	C270	0.487510	0.042420	0.034420
H1791	H179	0.457430	0.029270	0.022870
H1801	H180	0.611530	0.177670	0.049870
O611	O61	0.446440	0.970770	0.424020
O621	O62	0.433410	0.944880	0.527790
C2711	C271	0.422310	0.945550	0.468670
C2721	C272	0.375810	0.913260	0.450290
C2731	C273	0.347260	0.884980	0.498720
H1811	H181	0.357200	0.885800	0.542400
C2741	C274	0.303910	0.855600	0.481270
H1821	H182	0.284400	0.835900	0.513300
C2751	C275	0.288920	0.854670	0.418600
C2761	C276	0.318310	0.882760	0.370990
H1831	H183	0.308700	0.881700	0.327000
C2771	C277	0.361260	0.912020	0.387760
H1841	H184	0.380800	0.931400	0.355500
C2781	C278	0.241570	0.827130	0.401480
C2791	C279	0.221570	0.845820	0.367750
H1851	H185	0.238500	0.875900	0.356200
H1861	H186	0.232800	0.721800	0.383200
O631	O63	0.113110	0.304100	0.757350
O641	O64	0.100080	0.278210	0.861120
C2801	C280	0.088980	0.278880	0.802000
C2811	C281	0.042480	0.246590	0.783620
C2821	C282	0.013930	0.218310	0.832050
H1871	H187	0.023870	0.219130	0.875730
C2831	C283	0.970580	0.188930	0.814600
H1881	H188	0.951070	0.169230	0.846630
C2841	C284	0.955590	0.188000	0.751930
C2851	C285	0.984980	0.216090	0.704320
H1891	H189	0.975370	0.215030	0.660330
C2861	C286	0.027930	0.245350	0.721090
H1901	H190	0.047470	0.264730	0.688830
C2871	C287	0.908240	0.160460	0.734810
C2881	C288	0.888240	0.179150	0.701080
H1911	H191	0.905170	0.209230	0.689530
H1921	H192	0.899470	0.055130	0.716530
O651	O65	0.779770	0.637440	0.090690
O661	O66	0.766740	0.611550	0.194460
C2891	C289	0.755640	0.612220	0.135340
C2901	C290	0.709140	0.579930	0.116960
C2911	C291	0.680590	0.551650	0.165390
H1931	H193	0.690530	0.552470	0.209070
C2921	C292	0.637240	0.522270	0.147940
H1941	H194	0.617730	0.502570	0.179970
C2931	C293	0.622250	0.521340	0.085270
C2941	C294	0.651640	0.549430	0.037660
H1951	H195	0.642030	0.548370	0.993670
C2951	C295	0.694590	0.578690	0.054430
H1961	H196	0.714130	0.598070	0.022170
C2961	C296	0.574900	0.493800	0.068150
C2971	C297	0.554900	0.512490	0.034420
H1971	H197	0.571830	0.542570	0.022870
H1981	H198	0.566130	0.388470	0.049870
O671	O67	0.524330	0.553560	0.424020
O681	O68	0.511470	0.566590	0.527790
C2981	C298	0.523240	0.577690	0.468670
C2991	C299	0.537450	0.624190	0.450290
C3001	C300	0.537720	0.652740	0.498720
H1991	H199	0.528600	0.642800	0.542400
C3011	C301	0.551690	0.696090	0.481270
H2001	H200	0.551500	0.715600	0.513300
C3021	C302	0.565750	0.711080	0.418600
C3031	C303	0.564450	0.681690	0.370990
H2011	H201	0.573000	0.691300	0.327000
C3041	C304	0.550760	0.638740	0.387760
H2021	H202	0.550600	0.619200	0.355500
C3051	C305	0.585560	0.758430	0.401480
C3061	C306	0.624250	0.778430	0.367750
H2031	H203	0.637400	0.761500	0.356200
H2041	H204	0.489000	0.767200	0.383200
O691	O69	0.191000	0.886890	0.757350
O701	O70	0.178140	0.899920	0.861120
C3071	C307	0.189910	0.911020	0.802000
C3081	C308	0.204120	0.957520	0.783620
C3091	C309	0.204390	0.986070	0.832050
H2051	H205	0.195270	0.976130	0.875730
C3101	C310	0.218360	0.029420	0.814600
H2061	H206	0.218170	0.048930	0.846630
C3111	C311	0.232420	0.044410	0.751930
C3121	C312	0.231120	0.015020	0.704320
H2071	H207	0.239670	0.024630	0.660330
C3131	C313	0.217430	0.972070	0.721090
H2081	H208	0.217270	0.952530	0.688830
C3141	C314	0.252230	0.091760	0.734810
C3151	C315	0.290920	0.111760	0.701080
H2091	H209	0.304070	0.094830	0.689530
H2101	H210	0.155670	0.100530	0.716530
O711	O71	0.857660	0.220230	0.090690
O721	O72	0.844800	0.233260	0.194460
C3161	C316	0.856570	0.244360	0.135340
C3171	C317	0.870780	0.290860	0.116960
C3181	C318	0.871050	0.319410	0.165390
H2111	H211	0.861930	0.309470	0.209070
C3191	C319	0.885020	0.362760	0.147940
H2121	H212	0.884830	0.382270	0.179970
C3201	C320	0.899080	0.377750	0.085270
C3211	C321	0.897780	0.348360	0.037660
H2131	H213	0.906330	0.357970	0.993670
C3221	C322	0.884090	0.305410	0.054430
H2141	H214	0.883930	0.285870	0.022170
C3231	C323	0.918890	0.425100	0.068150
C3241	C324	0.957580	0.445100	0.034420
H2151	H215	0.970730	0.428170	0.022870
H2161	H216	0.822330	0.433870	0.049870
Cu11	Cu1	0.507620	0.015230	0.439260
Cu21	Cu2	0.174280	0.348560	0.772590
Cu31	Cu3	0.840950	0.681900	0.105930
Cu41	Cu4	0.984770	0.492380	0.439260
Cu51	Cu5	0.651440	0.825720	0.772590
Cu61	Cu6	0.318100	0.159050	0.105930
Cu71	Cu7	0.507620	0.492380	0.439260
Cu81	Cu8	0.174280	0.825720	0.772590
Cu91	Cu9	0.840950	0.159050	0.105930
Cu101	Cu10	0.015230	0.507610	0.560740
Cu111	Cu11	0.681900	0.840950	0.894070
Cu121	Cu12	0.348560	0.174280	0.227410
Cu131	Cu13	0.492380	0.984770	0.560740
Cu141	Cu14	0.159050	0.318100	0.894070
Cu151	Cu15	0.825720	0.651440	0.227410
Cu161	Cu16	0.492380	0.507620	0.560740
Cu171	Cu17	0.159050	0.840950	0.894070
Cu181	Cu18	0.825720	0.174280	0.227410
O731	O73	0.526430	0.763210	0.453140
C3251	C325	0.645480	0.822740	0.349260
C3261	C326	0.565510	0.782750	0.418980
C3271	C327	0.488610	0.744300	0.411100
H2171	H217	0.462000	0.731000	0.438000
O741	O74	0.193100	0.096550	0.786470
C3281	C328	0.312150	0.156070	0.682590
C3291	C329	0.232180	0.116090	0.752310
C3301	C330	0.155280	0.077640	0.744430
H2181	H218	0.128670	0.064330	0.771330
O751	O75	0.859760	0.429880	0.119810
C3311	C331	0.978810	0.489410	0.015930
C3321	C332	0.898840	0.449420	0.085650
C3331	C333	0.821940	0.410970	0.077770
H2191	H219	0.795330	0.397670	0.104670
O761	O76	0.236790	0.763210	0.453140
C3341	C334	0.177260	0.822740	0.349260
C3351	C335	0.217250	0.782750	0.418980
C3361	C336	0.255700	0.744300	0.411100
H2201	H220	0.269000	0.731000	0.438000
O771	O77	0.903450	0.096550	0.786470
C3371	C337	0.843930	0.156070	0.682590
C3381	C338	0.883910	0.116090	0.752310
C3391	C339	0.922360	0.077640	0.744430
H2211	H221	0.935670	0.064330	0.771330
O781	O78	0.570120	0.429880	0.119810
C3401	C340	0.510590	0.489410	0.015930
C3411	C341	0.550580	0.449420	0.085650
C3421	C342	0.589030	0.410970	0.077770
H2221	H222	0.602330	0.397670	0.104670
O791	O79	0.236790	0.473570	0.453140
C3431	C343	0.177260	0.354520	0.349260
C3441	C344	0.217240	0.434490	0.418980
C3451	C345	0.255700	0.511390	0.411100
H2231	H223	0.269000	0.538000	0.438000
O801	O80	0.903450	0.806900	0.786470
C3461	C346	0.843930	0.687850	0.682590
C3471	C347	0.883910	0.767820	0.752310
C3481	C348	0.922360	0.844720	0.744430
H2241	H224	0.935670	0.871330	0.771330
O811	O81	0.570120	0.140240	0.119810
C3491	C349	0.510590	0.021190	0.015930
C3501	C350	0.550580	0.101160	0.085650
C3511	C351	0.589030	0.178060	0.077770
H2251	H225	0.602330	0.204670	0.104670
O821	O82	0.763210	0.526430	0.546860
C3521	C352	0.822740	0.645480	0.650740
C3531	C353	0.782750	0.565510	0.581020
C3541	C354	0.744300	0.488610	0.588900
H2261	H226	0.731000	0.462000	0.562000
O831	O83	0.429880	0.859760	0.880190
C3551	C355	0.489410	0.978810	0.984070
C3561	C356	0.449420	0.898840	0.914350
C3571	C357	0.410970	0.821940	0.922230
H2271	H227	0.397670	0.795330	0.895330
O841	O84	0.096550	0.193100	0.213530
C3581	C358	0.156070	0.312150	0.317410
C3591	C359	0.116090	0.232180	0.247690
C3601	C360	0.077640	0.155280	0.255570
H2281	H228	0.064330	0.128670	0.228670
O851	O85	0.763210	0.236790	0.546860
C3611	C361	0.822740	0.177260	0.650740
C3621	C362	0.782750	0.217250	0.581020
C3631	C363	0.744300	0.255700	0.588900
H2291	H229	0.731000	0.269000	0.562000
O861	O86	0.429880	0.570120	0.880190
C3641	C364	0.489410	0.510590	0.984070
C3651	C365	0.449420	0.550580	0.914350
C3661	C366	0.410970	0.589030	0.922230
H2301	H230	0.397670	0.602330	0.895330
O871	O87	0.096550	0.903450	0.213530
C3671	C367	0.156070	0.843930	0.317410
C3681	C368	0.116090	0.883910	0.247690
C3691	C369	0.077640	0.922360	0.255570
H2311	H231	0.064330	0.935670	0.228670
O881	O88	0.473570	0.236790	0.546860
C3701	C370	0.354520	0.177260	0.650740
C3711	C371	0.434490	0.217250	0.581020
C3721	C372	0.511390	0.255700	0.588900
H2321	H232	0.538000	0.269000	0.562000
O891	O89	0.140240	0.570120	0.880190
C3731	C373	0.021190	0.510590	0.984070
C3741	C374	0.101160	0.550580	0.914350
C3751	C375	0.178060	0.589030	0.922230
H2331	H233	0.204670	0.602330	0.895330
O901	O90	0.806900	0.903450	0.213530
C3761	C376	0.687850	0.843930	0.317410
C3771	C377	0.767820	0.883910	0.247690
C3781	C378	0.844720	0.922360	0.255570
H2341	H234	0.871330	0.935670	0.228670
