data_UMOYOM06_clean_PM
_symmetry_space_group_name_H-M	'P1'
_cell_length_a	35.123000
_cell_length_b	35.123000
_cell_length_c	22.391600
_cell_angle_alpha	90.000000
_cell_angle_beta	90.000000
_cell_angle_gamma	120.000000
_symmetry_Int_Tables_number 1

loop_
_symmetry_equiv_pos_as_xyz
'x,y,z'

loop_
_atom_site_label
_atom_site_type_symbol
_atom_site_fract_x
_atom_site_fract_y
_atom_site_fract_z
O11	O1	0.553550	0.028630	0.568380
O21	O2	0.567370	0.055940	0.474840
C11	C1	0.578170	0.054270	0.527540
C21	C2	0.625160	0.085650	0.545130
C31	C3	0.655570	0.113730	0.503010
H11	H1	0.646900	0.113500	0.463700
C41	C4	0.698450	0.141780	0.519770
H21	H2	0.718300	0.160600	0.491400
C51	C5	0.712700	0.142760	0.577230
C61	C6	0.682590	0.114750	0.619910
H31	H3	0.691400	0.115000	0.659200
C71	C7	0.639150	0.086390	0.602560
H41	H4	0.619200	0.067500	0.630700
C81	C8	0.759570	0.170990	0.595720
C91	C9	0.779520	0.153110	0.629680
H51	H5	0.763000	0.123700	0.640800
H61	H6	0.707300	0.248000	0.635500
H71	H7	0.740800	0.303800	0.531000
O31	O3	0.220220	0.361960	0.901710
O41	O4	0.234040	0.389270	0.808170
C101	C10	0.244840	0.387600	0.860870
C111	C11	0.291830	0.418980	0.878460
C121	C12	0.322240	0.447060	0.836340
H81	H8	0.313570	0.446830	0.797030
C131	C13	0.365120	0.475110	0.853100
H91	H9	0.384970	0.493930	0.824730
C141	C14	0.379370	0.476090	0.910560
C151	C15	0.349260	0.448080	0.953240
H101	H10	0.358070	0.448330	0.992530
C161	C16	0.305820	0.419720	0.935890
H111	H11	0.285870	0.400830	0.964030
C171	C17	0.426240	0.504320	0.929050
C181	C18	0.446190	0.486440	0.963010
H121	H12	0.429670	0.457030	0.974130
H131	H13	0.373970	0.581330	0.968830
H141	H14	0.407470	0.637130	0.864330
O51	O5	0.886880	0.695300	0.235050
O61	O6	0.900700	0.722610	0.141510
C191	C19	0.911500	0.720940	0.194210
C201	C20	0.958490	0.752320	0.211800
C211	C21	0.988900	0.780400	0.169680
H151	H15	0.980230	0.780170	0.130370
C221	C22	0.031780	0.808450	0.186440
H161	H16	0.051630	0.827270	0.158070
C231	C23	0.046030	0.809430	0.243900
C241	C24	0.015920	0.781420	0.286580
H171	H17	0.024730	0.781670	0.325870
C251	C25	0.972480	0.753060	0.269230
H181	H18	0.952530	0.734170	0.297370
C261	C26	0.092900	0.837660	0.262390
C271	C27	0.112850	0.819780	0.296350
H191	H19	0.096330	0.790370	0.307470
H201	H20	0.040630	0.914670	0.302170
H211	H21	0.074130	0.970470	0.197670
O71	O7	0.971370	0.524920	0.568380
O81	O8	0.944060	0.511430	0.474840
C281	C28	0.945730	0.523900	0.527540
C291	C29	0.914350	0.539510	0.545130
C301	C30	0.886270	0.541840	0.503010
H221	H22	0.886500	0.533400	0.463700
C311	C31	0.858220	0.556670	0.519770
H231	H23	0.839400	0.557700	0.491400
C321	C32	0.857240	0.569940	0.577230
C331	C33	0.885250	0.567840	0.619910
H241	H24	0.885000	0.576400	0.659200
C341	C34	0.913610	0.552760	0.602560
H251	H25	0.932500	0.551700	0.630700
C351	C35	0.829010	0.588580	0.595720
C361	C36	0.846890	0.626410	0.629680
H261	H26	0.876300	0.639300	0.640800
H271	H27	0.752000	0.459300	0.635500
H281	H28	0.696200	0.437000	0.531000
O91	O9	0.638040	0.858250	0.901710
O101	O10	0.610730	0.844760	0.808170
C371	C37	0.612400	0.857230	0.860870
C381	C38	0.581020	0.872840	0.878460
C391	C39	0.552940	0.875170	0.836340
H291	H29	0.553170	0.866730	0.797030
C401	C40	0.524890	0.890000	0.853100
H301	H30	0.506070	0.891030	0.824730
C411	C41	0.523910	0.903270	0.910560
C421	C42	0.551920	0.901170	0.953240
H311	H31	0.551670	0.909730	0.992530
C431	C43	0.580280	0.886090	0.935890
H321	H32	0.599170	0.885030	0.964030
C441	C44	0.495680	0.921910	0.929050
C451	C45	0.513560	0.959740	0.963010
H331	H33	0.542970	0.972630	0.974130
H341	H34	0.418670	0.792630	0.968830
H351	H35	0.362870	0.770330	0.864330
O111	O11	0.304700	0.191590	0.235050
O121	O12	0.277390	0.178100	0.141510
C461	C46	0.279060	0.190570	0.194210
C471	C47	0.247680	0.206180	0.211800
C481	C48	0.219600	0.208510	0.169680
H361	H36	0.219830	0.200070	0.130370
C491	C49	0.191550	0.223340	0.186440
H371	H37	0.172730	0.224370	0.158070
C501	C50	0.190570	0.236610	0.243900
C511	C51	0.218580	0.234510	0.286580
H381	H38	0.218330	0.243070	0.325870
C521	C52	0.246940	0.219430	0.269230
H391	H39	0.265830	0.218370	0.297370
C531	C53	0.162340	0.255250	0.262390
C541	C54	0.180220	0.293080	0.296350
H401	H40	0.209630	0.305970	0.307470
H411	H41	0.085330	0.125970	0.302170
H421	H42	0.029530	0.103670	0.197670
O131	O13	0.475080	0.446450	0.568380
O141	O14	0.488570	0.432630	0.474840
C551	C55	0.476100	0.421830	0.527540
C561	C56	0.460490	0.374840	0.545130
C571	C57	0.458160	0.344430	0.503010
H431	H43	0.466600	0.353100	0.463700
C581	C58	0.443330	0.301550	0.519770
H441	H44	0.442300	0.281700	0.491400
C591	C59	0.430060	0.287300	0.577230
C601	C60	0.432160	0.317410	0.619910
H451	H45	0.423600	0.308600	0.659200
C611	C61	0.447240	0.360850	0.602560
H461	H46	0.448300	0.380800	0.630700
C621	C62	0.411420	0.240430	0.595720
C631	C63	0.373590	0.220480	0.629680
H471	H47	0.360700	0.237000	0.640800
H481	H48	0.540700	0.292700	0.635500
H491	H49	0.563000	0.259200	0.531000
O151	O15	0.141750	0.779780	0.901710
O161	O16	0.155240	0.765960	0.808170
C641	C64	0.142770	0.755160	0.860870
C651	C65	0.127160	0.708170	0.878460
C661	C66	0.124830	0.677760	0.836340
H501	H50	0.133270	0.686430	0.797030
C671	C67	0.110000	0.634880	0.853100
H511	H51	0.108970	0.615030	0.824730
C681	C68	0.096730	0.620630	0.910560
C691	C69	0.098830	0.650740	0.953240
H521	H52	0.090270	0.641930	0.992530
C701	C70	0.113910	0.694180	0.935890
H531	H53	0.114970	0.714130	0.964030
C711	C71	0.078090	0.573760	0.929050
C721	C72	0.040260	0.553810	0.963010
H541	H54	0.027370	0.570330	0.974130
H551	H55	0.207370	0.626030	0.968830
H561	H56	0.229670	0.592530	0.864330
O171	O17	0.808410	0.113120	0.235050
O181	O18	0.821900	0.099300	0.141510
C731	C73	0.809430	0.088500	0.194210
C741	C74	0.793820	0.041510	0.211800
C751	C75	0.791490	0.011100	0.169680
H571	H57	0.799930	0.019770	0.130370
C761	C76	0.776660	0.968220	0.186440
H581	H58	0.775630	0.948370	0.158070
C771	C77	0.763390	0.953970	0.243900
C781	C78	0.765490	0.984080	0.286580
H591	H59	0.756930	0.975270	0.325870
C791	C79	0.780570	0.027520	0.269230
H601	H60	0.781630	0.047470	0.297370
C801	C80	0.744750	0.907100	0.262390
C811	C81	0.706920	0.887150	0.296350
H611	H61	0.694030	0.903670	0.307470
H621	H62	0.874030	0.959370	0.302170
H631	H63	0.896330	0.925870	0.197670
O191	O19	0.028630	0.553550	0.431620
O201	O20	0.055940	0.567370	0.525160
C821	C82	0.054270	0.578170	0.472460
C831	C83	0.085650	0.625160	0.454870
C841	C84	0.113730	0.655570	0.496990
H641	H64	0.113500	0.646900	0.536300
C851	C85	0.141780	0.698450	0.480230
H651	H65	0.160600	0.718300	0.508600
C861	C86	0.142760	0.712700	0.422770
C871	C87	0.114750	0.682590	0.380090
H661	H66	0.115000	0.691400	0.340800
C881	C88	0.086390	0.639150	0.397440
H671	H67	0.067500	0.619200	0.369300
C891	C89	0.170990	0.759570	0.404280
C901	C90	0.153110	0.779520	0.370320
H681	H68	0.123700	0.763000	0.359200
H691	H69	0.248000	0.707300	0.364500
H701	H70	0.303800	0.740800	0.469000
O211	O21	0.695300	0.886880	0.764950
O221	O22	0.722610	0.900700	0.858490
C911	C91	0.720940	0.911500	0.805790
C921	C92	0.752320	0.958490	0.788200
C931	C93	0.780400	0.988900	0.830320
H711	H71	0.780170	0.980230	0.869630
C941	C94	0.808450	0.031780	0.813560
H721	H72	0.827270	0.051630	0.841930
C951	C95	0.809430	0.046030	0.756100
C961	C96	0.781420	0.015920	0.713420
H731	H73	0.781670	0.024730	0.674130
C971	C97	0.753060	0.972480	0.730770
H741	H74	0.734170	0.952530	0.702630
C981	C98	0.837660	0.092900	0.737610
C991	C99	0.819780	0.112850	0.703650
H751	H75	0.790370	0.096330	0.692530
H761	H76	0.914670	0.040630	0.697830
H771	H77	0.970470	0.074130	0.802330
O231	O23	0.361960	0.220220	0.098290
O241	O24	0.389270	0.234040	0.191830
C1001	C100	0.387600	0.244840	0.139130
C1011	C101	0.418980	0.291830	0.121540
C1021	C102	0.447060	0.322240	0.163660
H781	H78	0.446830	0.313570	0.202970
C1031	C103	0.475110	0.365120	0.146900
H791	H79	0.493930	0.384970	0.175270
C1041	C104	0.476090	0.379370	0.089440
C1051	C105	0.448080	0.349260	0.046760
H801	H80	0.448330	0.358070	0.007470
C1061	C106	0.419720	0.305820	0.064110
H811	H81	0.400830	0.285870	0.035970
C1071	C107	0.504320	0.426240	0.070950
C1081	C108	0.486440	0.446190	0.036990
H821	H82	0.457030	0.429670	0.025870
H831	H83	0.581330	0.373970	0.031170
H841	H84	0.637130	0.407470	0.135670
O251	O25	0.524920	0.971370	0.431620
O261	O26	0.511430	0.944060	0.525160
C1091	C109	0.523900	0.945730	0.472460
C1101	C110	0.539510	0.914350	0.454870
C1111	C111	0.541840	0.886270	0.496990
H851	H85	0.533400	0.886500	0.536300
C1121	C112	0.556670	0.858220	0.480230
H861	H86	0.557700	0.839400	0.508600
C1131	C113	0.569940	0.857240	0.422770
C1141	C114	0.567840	0.885250	0.380090
H871	H87	0.576400	0.885000	0.340800
C1151	C115	0.552760	0.913610	0.397440
H881	H88	0.551700	0.932500	0.369300
C1161	C116	0.588580	0.829010	0.404280
C1171	C117	0.626410	0.846890	0.370320
H891	H89	0.639300	0.876300	0.359200
H901	H90	0.459300	0.752000	0.364500
H911	H91	0.437000	0.696200	0.469000
O271	O27	0.191590	0.304700	0.764950
O281	O28	0.178100	0.277390	0.858490
C1181	C118	0.190570	0.279060	0.805790
C1191	C119	0.206180	0.247680	0.788200
C1201	C120	0.208510	0.219600	0.830320
H921	H92	0.200070	0.219830	0.869630
C1211	C121	0.223340	0.191550	0.813560
H931	H93	0.224370	0.172730	0.841930
C1221	C122	0.236610	0.190570	0.756100
C1231	C123	0.234510	0.218580	0.713420
H941	H94	0.243070	0.218330	0.674130
C1241	C124	0.219430	0.246940	0.730770
H951	H95	0.218370	0.265830	0.702630
C1251	C125	0.255250	0.162340	0.737610
C1261	C126	0.293080	0.180220	0.703650
H961	H96	0.305970	0.209630	0.692530
H971	H97	0.125970	0.085330	0.697830
H981	H98	0.103670	0.029530	0.802330
O291	O29	0.858250	0.638040	0.098290
O301	O30	0.844760	0.610730	0.191830
C1271	C127	0.857230	0.612400	0.139130
C1281	C128	0.872840	0.581020	0.121540
C1291	C129	0.875170	0.552940	0.163660
H991	H99	0.866730	0.553170	0.202970
C1301	C130	0.890000	0.524890	0.146900
H1001	H100	0.891030	0.506070	0.175270
C1311	C131	0.903270	0.523910	0.089440
C1321	C132	0.901170	0.551920	0.046760
H1011	H101	0.909730	0.551670	0.007470
C1331	C133	0.886090	0.580280	0.064110
H1021	H102	0.885030	0.599170	0.035970
C1341	C134	0.921910	0.495680	0.070950
C1351	C135	0.959740	0.513560	0.036990
H1031	H103	0.972630	0.542970	0.025870
H1041	H104	0.792630	0.418670	0.031170
H1051	H105	0.770330	0.362870	0.135670
O311	O31	0.446450	0.475080	0.431620
O321	O32	0.432630	0.488570	0.525160
C1361	C136	0.421830	0.476100	0.472460
C1371	C137	0.374840	0.460490	0.454870
C1381	C138	0.344430	0.458160	0.496990
H1061	H106	0.353100	0.466600	0.536300
C1391	C139	0.301550	0.443330	0.480230
H1071	H107	0.281700	0.442300	0.508600
C1401	C140	0.287300	0.430060	0.422770
C1411	C141	0.317410	0.432160	0.380090
H1081	H108	0.308600	0.423600	0.340800
C1421	C142	0.360850	0.447240	0.397440
H1091	H109	0.380800	0.448300	0.369300
C1431	C143	0.240430	0.411420	0.404280
C1441	C144	0.220480	0.373590	0.370320
H1101	H110	0.237000	0.360700	0.359200
H1111	H111	0.292700	0.540700	0.364500
H1121	H112	0.259200	0.563000	0.469000
O331	O33	0.113120	0.808410	0.764950
O341	O34	0.099300	0.821900	0.858490
C1451	C145	0.088500	0.809430	0.805790
C1461	C146	0.041510	0.793820	0.788200
C1471	C147	0.011100	0.791490	0.830320
H1131	H113	0.019770	0.799930	0.869630
C1481	C148	0.968220	0.776660	0.813560
H1141	H114	0.948370	0.775630	0.841930
C1491	C149	0.953970	0.763390	0.756100
C1501	C150	0.984080	0.765490	0.713420
H1151	H115	0.975270	0.756930	0.674130
C1511	C151	0.027520	0.780570	0.730770
H1161	H116	0.047470	0.781630	0.702630
C1521	C152	0.907100	0.744750	0.737610
C1531	C153	0.887150	0.706920	0.703650
H1171	H117	0.903670	0.694030	0.692530
H1181	H118	0.959370	0.874030	0.697830
H1191	H119	0.925870	0.896330	0.802330
O351	O35	0.779780	0.141750	0.098290
O361	O36	0.765960	0.155240	0.191830
C1541	C154	0.755160	0.142770	0.139130
C1551	C155	0.708170	0.127160	0.121540
C1561	C156	0.677760	0.124830	0.163660
H1201	H120	0.686430	0.133270	0.202970
C1571	C157	0.634880	0.110000	0.146900
H1211	H121	0.615030	0.108970	0.175270
C1581	C158	0.620630	0.096730	0.089440
C1591	C159	0.650740	0.098830	0.046760
H1221	H122	0.641930	0.090270	0.007470
C1601	C160	0.694180	0.113910	0.064110
H1231	H123	0.714130	0.114970	0.035970
C1611	C161	0.573760	0.078090	0.070950
C1621	C162	0.553810	0.040260	0.036990
H1241	H124	0.570330	0.027370	0.025870
H1251	H125	0.626030	0.207370	0.031170
H1261	H126	0.592530	0.229670	0.135670
O371	O37	0.446450	0.971370	0.431620
O381	O38	0.432630	0.944060	0.525160
C1631	C163	0.421830	0.945730	0.472460
C1641	C164	0.374840	0.914350	0.454870
C1651	C165	0.344430	0.886270	0.496990
H1271	H127	0.353100	0.886500	0.536300
C1661	C166	0.301550	0.858220	0.480230
H1281	H128	0.281700	0.839400	0.508600
C1671	C167	0.287300	0.857240	0.422770
C1681	C168	0.317410	0.885250	0.380090
H1291	H129	0.308600	0.885000	0.340800
C1691	C169	0.360850	0.913610	0.397440
H1301	H130	0.380800	0.932500	0.369300
C1701	C170	0.240430	0.829010	0.404280
C1711	C171	0.220480	0.846890	0.370320
H1311	H131	0.237000	0.876300	0.359200
H1321	H132	0.292700	0.752000	0.364500
H1331	H133	0.259200	0.696200	0.469000
O391	O39	0.113120	0.304700	0.764950
O401	O40	0.099300	0.277390	0.858490
C1721	C172	0.088500	0.279060	0.805790
C1731	C173	0.041510	0.247680	0.788200
C1741	C174	0.011100	0.219600	0.830320
H1341	H134	0.019770	0.219830	0.869630
C1751	C175	0.968220	0.191550	0.813560
H1351	H135	0.948370	0.172730	0.841930
C1761	C176	0.953970	0.190570	0.756100
C1771	C177	0.984080	0.218580	0.713420
H1361	H136	0.975270	0.218330	0.674130
C1781	C178	0.027520	0.246940	0.730770
H1371	H137	0.047470	0.265830	0.702630
C1791	C179	0.907100	0.162340	0.737610
C1801	C180	0.887150	0.180220	0.703650
H1381	H138	0.903670	0.209630	0.692530
H1391	H139	0.959370	0.085330	0.697830
H1401	H140	0.925870	0.029530	0.802330
O411	O41	0.779780	0.638040	0.098290
O421	O42	0.765960	0.610730	0.191830
C1811	C181	0.755160	0.612400	0.139130
C1821	C182	0.708170	0.581020	0.121540
C1831	C183	0.677760	0.552940	0.163660
H1411	H141	0.686430	0.553170	0.202970
C1841	C184	0.634880	0.524890	0.146900
H1421	H142	0.615030	0.506070	0.175270
C1851	C185	0.620630	0.523910	0.089440
C1861	C186	0.650740	0.551920	0.046760
H1431	H143	0.641930	0.551670	0.007470
C1871	C187	0.694180	0.580280	0.064110
H1441	H144	0.714130	0.599170	0.035970
C1881	C188	0.573760	0.495680	0.070950
C1891	C189	0.553810	0.513560	0.036990
H1451	H145	0.570330	0.542970	0.025870
H1461	H146	0.626030	0.418670	0.031170
H1471	H147	0.592530	0.362870	0.135670
O431	O43	0.028630	0.475080	0.431620
O441	O44	0.055940	0.488570	0.525160
C1901	C190	0.054270	0.476100	0.472460
C1911	C191	0.085650	0.460490	0.454870
C1921	C192	0.113730	0.458160	0.496990
H1481	H148	0.113500	0.466600	0.536300
C1931	C193	0.141780	0.443330	0.480230
H1491	H149	0.160600	0.442300	0.508600
C1941	C194	0.142760	0.430060	0.422770
C1951	C195	0.114750	0.432160	0.380090
H1501	H150	0.115000	0.423600	0.340800
C1961	C196	0.086390	0.447240	0.397440
H1511	H151	0.067500	0.448300	0.369300
C1971	C197	0.170990	0.411420	0.404280
C1981	C198	0.153110	0.373590	0.370320
H1521	H152	0.123700	0.360700	0.359200
H1531	H153	0.248000	0.540700	0.364500
H1541	H154	0.303800	0.563000	0.469000
O451	O45	0.695300	0.808410	0.764950
O461	O46	0.722610	0.821900	0.858490
C1991	C199	0.720940	0.809430	0.805790
C2001	C200	0.752320	0.793820	0.788200
C2011	C201	0.780400	0.791490	0.830320
H1551	H155	0.780170	0.799930	0.869630
C2021	C202	0.808450	0.776660	0.813560
H1561	H156	0.827270	0.775630	0.841930
C2031	C203	0.809430	0.763390	0.756100
C2041	C204	0.781420	0.765490	0.713420
H1571	H157	0.781670	0.756930	0.674130
C2051	C205	0.753060	0.780570	0.730770
H1581	H158	0.734170	0.781630	0.702630
C2061	C206	0.837660	0.744750	0.737610
C2071	C207	0.819780	0.706920	0.703650
H1591	H159	0.790370	0.694030	0.692530
H1601	H160	0.914670	0.874030	0.697830
H1611	H161	0.970470	0.896330	0.802330
O471	O47	0.361960	0.141750	0.098290
O481	O48	0.389270	0.155240	0.191830
C2081	C208	0.387600	0.142770	0.139130
C2091	C209	0.418980	0.127160	0.121540
C2101	C210	0.447060	0.124830	0.163660
H1621	H162	0.446830	0.133270	0.202970
C2111	C211	0.475110	0.110000	0.146900
H1631	H163	0.493930	0.108970	0.175270
C2121	C212	0.476090	0.096730	0.089440
C2131	C213	0.448080	0.098830	0.046760
H1641	H164	0.448330	0.090270	0.007470
C2141	C214	0.419720	0.113910	0.064110
H1651	H165	0.400830	0.114970	0.035970
C2151	C215	0.504320	0.078090	0.070950
C2161	C216	0.486440	0.040260	0.036990
H1661	H166	0.457030	0.027370	0.025870
H1671	H167	0.581330	0.207370	0.031170
H1681	H168	0.637130	0.229670	0.135670
O491	O49	0.524920	0.553550	0.431620
O501	O50	0.511430	0.567370	0.525160
C2171	C217	0.523900	0.578170	0.472460
C2181	C218	0.539510	0.625160	0.454870
C2191	C219	0.541840	0.655570	0.496990
H1691	H169	0.533400	0.646900	0.536300
C2201	C220	0.556670	0.698450	0.480230
H1701	H170	0.557700	0.718300	0.508600
C2211	C221	0.569940	0.712700	0.422770
C2221	C222	0.567840	0.682590	0.380090
H1711	H171	0.576400	0.691400	0.340800
C2231	C223	0.552760	0.639150	0.397440
H1721	H172	0.551700	0.619200	0.369300
C2241	C224	0.588580	0.759570	0.404280
C2251	C225	0.626410	0.779520	0.370320
H1731	H173	0.639300	0.763000	0.359200
H1741	H174	0.459300	0.707300	0.364500
H1751	H175	0.437000	0.740800	0.469000
O511	O51	0.191590	0.886880	0.764950
O521	O52	0.178100	0.900700	0.858490
C2261	C226	0.190570	0.911500	0.805790
C2271	C227	0.206180	0.958490	0.788200
C2281	C228	0.208510	0.988900	0.830320
H1761	H176	0.200070	0.980230	0.869630
C2291	C229	0.223340	0.031780	0.813560
H1771	H177	0.224370	0.051630	0.841930
C2301	C230	0.236610	0.046030	0.756100
C2311	C231	0.234510	0.015920	0.713420
H1781	H178	0.243070	0.024730	0.674130
C2321	C232	0.219430	0.972480	0.730770
H1791	H179	0.218370	0.952530	0.702630
C2331	C233	0.255250	0.092900	0.737610
C2341	C234	0.293080	0.112850	0.703650
H1801	H180	0.305970	0.096330	0.692530
H1811	H181	0.125970	0.040630	0.697830
H1821	H182	0.103670	0.074130	0.802330
O531	O53	0.858250	0.220220	0.098290
O541	O54	0.844760	0.234040	0.191830
C2351	C235	0.857230	0.244840	0.139130
C2361	C236	0.872840	0.291830	0.121540
C2371	C237	0.875170	0.322240	0.163660
H1831	H183	0.866730	0.313570	0.202970
C2381	C238	0.890000	0.365120	0.146900
H1841	H184	0.891030	0.384970	0.175270
C2391	C239	0.903270	0.379370	0.089440
C2401	C240	0.901170	0.349260	0.046760
H1851	H185	0.909730	0.358070	0.007470
C2411	C241	0.886090	0.305820	0.064110
H1861	H186	0.885030	0.285870	0.035970
C2421	C242	0.921910	0.426240	0.070950
C2431	C243	0.959740	0.446190	0.036990
H1871	H187	0.972630	0.429670	0.025870
H1881	H188	0.792630	0.373970	0.031170
H1891	H189	0.770330	0.407470	0.135670
O551	O55	0.971370	0.446450	0.568380
O561	O56	0.944060	0.432630	0.474840
C2441	C244	0.945730	0.421830	0.527540
C2451	C245	0.914350	0.374840	0.545130
C2461	C246	0.886270	0.344430	0.503010
H1901	H190	0.886500	0.353100	0.463700
C2471	C247	0.858220	0.301550	0.519770
H1911	H191	0.839400	0.281700	0.491400
C2481	C248	0.857240	0.287300	0.577230
C2491	C249	0.885250	0.317410	0.619910
H1921	H192	0.885000	0.308600	0.659200
C2501	C250	0.913610	0.360850	0.602560
H1931	H193	0.932500	0.380800	0.630700
C2511	C251	0.829010	0.240430	0.595720
C2521	C252	0.846890	0.220480	0.629680
H1941	H194	0.876300	0.237000	0.640800
H1951	H195	0.752000	0.292700	0.635500
H1961	H196	0.696200	0.259200	0.531000
O571	O57	0.638040	0.779780	0.901710
O581	O58	0.610730	0.765960	0.808170
C2531	C253	0.612400	0.755160	0.860870
C2541	C254	0.581020	0.708170	0.878460
C2551	C255	0.552940	0.677760	0.836340
H1971	H197	0.553170	0.686430	0.797030
C2561	C256	0.524890	0.634880	0.853100
H1981	H198	0.506070	0.615030	0.824730
C2571	C257	0.523910	0.620630	0.910560
C2581	C258	0.551920	0.650740	0.953240
H1991	H199	0.551670	0.641930	0.992530
C2591	C259	0.580280	0.694180	0.935890
H2001	H200	0.599170	0.714130	0.964030
C2601	C260	0.495680	0.573760	0.929050
C2611	C261	0.513560	0.553810	0.963010
H2011	H201	0.542970	0.570330	0.974130
H2021	H202	0.418670	0.626030	0.968830
H2031	H203	0.362870	0.592530	0.864330
O591	O59	0.304700	0.113120	0.235050
O601	O60	0.277390	0.099300	0.141510
C2621	C262	0.279060	0.088500	0.194210
C2631	C263	0.247680	0.041510	0.211800
C2641	C264	0.219600	0.011100	0.169680
H2041	H204	0.219830	0.019770	0.130370
C2651	C265	0.191550	0.968220	0.186440
H2051	H205	0.172730	0.948370	0.158070
C2661	C266	0.190570	0.953970	0.243900
C2671	C267	0.218580	0.984080	0.286580
H2061	H206	0.218330	0.975270	0.325870
C2681	C268	0.246940	0.027520	0.269230
H2071	H207	0.265830	0.047470	0.297370
C2691	C269	0.162340	0.907100	0.262390
C2701	C270	0.180220	0.887150	0.296350
H2081	H208	0.209630	0.903670	0.307470
H2091	H209	0.085330	0.959370	0.302170
H2101	H210	0.029530	0.925870	0.197670
O611	O61	0.475080	0.028630	0.568380
O621	O62	0.488570	0.055940	0.474840
C2711	C271	0.476100	0.054270	0.527540
C2721	C272	0.460490	0.085650	0.545130
C2731	C273	0.458160	0.113730	0.503010
H2111	H211	0.466600	0.113500	0.463700
C2741	C274	0.443330	0.141780	0.519770
H2121	H212	0.442300	0.160600	0.491400
C2751	C275	0.430060	0.142760	0.577230
C2761	C276	0.432160	0.114750	0.619910
H2131	H213	0.423600	0.115000	0.659200
C2771	C277	0.447240	0.086390	0.602560
H2141	H214	0.448300	0.067500	0.630700
C2781	C278	0.411420	0.170990	0.595720
C2791	C279	0.373590	0.153110	0.629680
H2151	H215	0.360700	0.123700	0.640800
H2161	H216	0.540700	0.248000	0.635500
H2171	H217	0.563000	0.303800	0.531000
O631	O63	0.141750	0.361960	0.901710
O641	O64	0.155240	0.389270	0.808170
C2801	C280	0.142770	0.387600	0.860870
C2811	C281	0.127160	0.418980	0.878460
C2821	C282	0.124830	0.447060	0.836340
H2181	H218	0.133270	0.446830	0.797030
C2831	C283	0.110000	0.475110	0.853100
H2191	H219	0.108970	0.493930	0.824730
C2841	C284	0.096730	0.476090	0.910560
C2851	C285	0.098830	0.448080	0.953240
H2201	H220	0.090270	0.448330	0.992530
C2861	C286	0.113910	0.419720	0.935890
H2211	H221	0.114970	0.400830	0.964030
C2871	C287	0.078090	0.504320	0.929050
C2881	C288	0.040260	0.486440	0.963010
H2221	H222	0.027370	0.457030	0.974130
H2231	H223	0.207370	0.581330	0.968830
H2241	H224	0.229670	0.637130	0.864330
O651	O65	0.808410	0.695300	0.235050
O661	O66	0.821900	0.722610	0.141510
C2891	C289	0.809430	0.720940	0.194210
C2901	C290	0.793820	0.752320	0.211800
C2911	C291	0.791490	0.780400	0.169680
H2251	H225	0.799930	0.780170	0.130370
C2921	C292	0.776660	0.808450	0.186440
H2261	H226	0.775630	0.827270	0.158070
C2931	C293	0.763390	0.809430	0.243900
C2941	C294	0.765490	0.781420	0.286580
H2271	H227	0.756930	0.781670	0.325870
C2951	C295	0.780570	0.753060	0.269230
H2281	H228	0.781630	0.734170	0.297370
C2961	C296	0.744750	0.837660	0.262390
C2971	C297	0.706920	0.819780	0.296350
H2291	H229	0.694030	0.790370	0.307470
H2301	H230	0.874030	0.914670	0.302170
H2311	H231	0.896330	0.970470	0.197670
O671	O67	0.553550	0.524920	0.568380
O681	O68	0.567370	0.511430	0.474840
C2981	C298	0.578170	0.523900	0.527540
C2991	C299	0.625160	0.539510	0.545130
C3001	C300	0.655570	0.541840	0.503010
H2321	H232	0.646900	0.533400	0.463700
C3011	C301	0.698450	0.556670	0.519770
H2331	H233	0.718300	0.557700	0.491400
C3021	C302	0.712700	0.569940	0.577230
C3031	C303	0.682590	0.567840	0.619910
H2341	H234	0.691400	0.576400	0.659200
C3041	C304	0.639150	0.552760	0.602560
H2351	H235	0.619200	0.551700	0.630700
C3051	C305	0.759570	0.588580	0.595720
C3061	C306	0.779520	0.626410	0.629680
H2361	H236	0.763000	0.639300	0.640800
H2371	H237	0.707300	0.459300	0.635500
H2381	H238	0.740800	0.437000	0.531000
O691	O69	0.220220	0.858250	0.901710
O701	O70	0.234040	0.844760	0.808170
C3071	C307	0.244840	0.857230	0.860870
C3081	C308	0.291830	0.872840	0.878460
C3091	C309	0.322240	0.875170	0.836340
H2391	H239	0.313570	0.866730	0.797030
C3101	C310	0.365120	0.890000	0.853100
H2401	H240	0.384970	0.891030	0.824730
C3111	C311	0.379370	0.903270	0.910560
C3121	C312	0.349260	0.901170	0.953240
H2411	H241	0.358070	0.909730	0.992530
C3131	C313	0.305820	0.886090	0.935890
H2421	H242	0.285870	0.885030	0.964030
C3141	C314	0.426240	0.921910	0.929050
C3151	C315	0.446190	0.959740	0.963010
H2431	H243	0.429670	0.972630	0.974130
H2441	H244	0.373970	0.792630	0.968830
H2451	H245	0.407470	0.770330	0.864330
O711	O71	0.886880	0.191590	0.235050
O721	O72	0.900700	0.178100	0.141510
C3161	C316	0.911500	0.190570	0.194210
C3171	C317	0.958490	0.206180	0.211800
C3181	C318	0.988900	0.208510	0.169680
H2461	H246	0.980230	0.200070	0.130370
C3191	C319	0.031780	0.223340	0.186440
H2471	H247	0.051630	0.224370	0.158070
C3201	C320	0.046030	0.236610	0.243900
C3211	C321	0.015920	0.234510	0.286580
H2481	H248	0.024730	0.243070	0.325870
C3221	C322	0.972480	0.219430	0.269230
H2491	H249	0.952530	0.218370	0.297370
C3231	C323	0.092900	0.255250	0.262390
C3241	C324	0.112850	0.293080	0.296350
H2501	H250	0.096330	0.305970	0.307470
H2511	H251	0.040630	0.125970	0.302170
H2521	H252	0.074130	0.103670	0.197670
Cu11	Cu1	0.507940	0.015880	0.445110
Cu21	Cu2	0.174610	0.349210	0.778440
Cu31	Cu3	0.841270	0.682550	0.111780
Cu41	Cu4	0.984120	0.492060	0.445110
Cu51	Cu5	0.650790	0.825390	0.778440
Cu61	Cu6	0.317450	0.158730	0.111780
Cu71	Cu7	0.507940	0.492060	0.445110
Cu81	Cu8	0.174610	0.825390	0.778440
Cu91	Cu9	0.841270	0.158730	0.111780
Cu101	Cu10	0.015880	0.507940	0.554890
Cu111	Cu11	0.682550	0.841270	0.888220
Cu121	Cu12	0.349210	0.174610	0.221560
Cu131	Cu13	0.492060	0.984120	0.554890
Cu141	Cu14	0.158730	0.317450	0.888220
Cu151	Cu15	0.825390	0.650790	0.221560
Cu161	Cu16	0.492060	0.507940	0.554890
Cu171	Cu17	0.158730	0.841270	0.888220
Cu181	Cu18	0.825390	0.174610	0.221560
O731	O73	0.766080	0.233920	0.543360
C3251	C325	0.823080	0.176920	0.648100
C3261	C326	0.784620	0.215380	0.579200
C3271	C327	0.746400	0.253600	0.569100
C3281	C328	0.738420	0.261580	0.629000
H2531	H253	0.750600	0.249400	0.656200
C3291	C329	0.727350	0.272650	0.524900
H2541	H254	0.733000	0.267000	0.484900
O741	O74	0.432750	0.567250	0.876690
C3301	C330	0.489750	0.510250	0.981430
C3311	C331	0.451290	0.548710	0.912530
C3321	C332	0.413070	0.586930	0.902430
C3331	C333	0.405090	0.594910	0.962330
H2551	H255	0.417270	0.582730	0.989530
C3341	C334	0.394020	0.605980	0.858230
H2561	H256	0.399670	0.600330	0.818230
O751	O75	0.099410	0.900590	0.210030
C3351	C335	0.156410	0.843590	0.314770
C3361	C336	0.117950	0.882050	0.245870
C3371	C337	0.079730	0.920270	0.235770
C3381	C338	0.071750	0.928250	0.295670
H2571	H257	0.083930	0.916070	0.322870
C3391	C339	0.060680	0.939320	0.191570
H2581	H258	0.066330	0.933670	0.151570
O761	O76	0.766080	0.532160	0.543360
C3401	C340	0.823080	0.646160	0.648100
C3411	C341	0.784620	0.569240	0.579200
C3421	C342	0.746400	0.492800	0.569100
C3431	C343	0.738420	0.476840	0.629000
H2591	H259	0.750600	0.501200	0.656200
C3441	C344	0.727350	0.454700	0.524900
H2601	H260	0.733000	0.466000	0.484900
O771	O77	0.432750	0.865490	0.876690
C3451	C345	0.489750	0.979490	0.981430
C3461	C346	0.451290	0.902570	0.912530
C3471	C347	0.413070	0.826130	0.902430
C3481	C348	0.405090	0.810170	0.962330
H2611	H261	0.417270	0.834530	0.989530
C3491	C349	0.394020	0.788030	0.858230
H2621	H262	0.399670	0.799330	0.818230
O781	O78	0.099410	0.198830	0.210030
C3501	C350	0.156410	0.312830	0.314770
C3511	C351	0.117950	0.235910	0.245870
C3521	C352	0.079730	0.159470	0.235770
C3531	C353	0.071750	0.143510	0.295670
H2631	H263	0.083930	0.167870	0.322870
C3541	C354	0.060680	0.121370	0.191570
H2641	H264	0.066330	0.132670	0.151570
O791	O79	0.467840	0.233920	0.543360
C3551	C355	0.353840	0.176920	0.648100
C3561	C356	0.430760	0.215380	0.579200
C3571	C357	0.507200	0.253600	0.569100
C3581	C358	0.523160	0.261580	0.629000
H2651	H265	0.498800	0.249400	0.656200
C3591	C359	0.545300	0.272650	0.524900
H2661	H266	0.534000	0.267000	0.484900
O801	O80	0.134510	0.567250	0.876690
C3601	C360	0.020510	0.510250	0.981430
C3611	C361	0.097430	0.548710	0.912530
C3621	C362	0.173870	0.586930	0.902430
C3631	C363	0.189830	0.594910	0.962330
H2671	H267	0.165470	0.582730	0.989530
C3641	C364	0.211970	0.605980	0.858230
H2681	H268	0.200670	0.600330	0.818230
O811	O81	0.801170	0.900590	0.210030
C3651	C365	0.687170	0.843590	0.314770
C3661	C366	0.764090	0.882050	0.245870
C3671	C367	0.840530	0.920270	0.235770
C3681	C368	0.856490	0.928250	0.295670
H2691	H269	0.832130	0.916070	0.322870
C3691	C369	0.878630	0.939320	0.191570
H2701	H270	0.867330	0.933670	0.151570
O821	O82	0.233920	0.766080	0.456640
C3701	C370	0.176920	0.823080	0.351900
C3711	C371	0.215380	0.784620	0.420800
C3721	C372	0.253600	0.746400	0.430900
C3731	C373	0.261580	0.738420	0.371000
H2711	H271	0.249400	0.750600	0.343800
C3741	C374	0.272650	0.727350	0.475100
H2721	H272	0.267000	0.733000	0.515100
O831	O83	0.900590	0.099410	0.789970
C3751	C375	0.843590	0.156410	0.685230
C3761	C376	0.882050	0.117950	0.754130
C3771	C377	0.920270	0.079730	0.764230
C3781	C378	0.928250	0.071750	0.704330
H2731	H273	0.916070	0.083930	0.677130
C3791	C379	0.939320	0.060680	0.808430
H2741	H274	0.933670	0.066330	0.848430
O841	O84	0.567250	0.432750	0.123310
C3801	C380	0.510250	0.489750	0.018570
C3811	C381	0.548710	0.451290	0.087470
C3821	C382	0.586930	0.413070	0.097570
C3831	C383	0.594910	0.405090	0.037670
H2751	H275	0.582730	0.417270	0.010470
C3841	C384	0.605980	0.394020	0.141770
H2761	H276	0.600330	0.399670	0.181770
O851	O85	0.532160	0.766080	0.456640
C3851	C385	0.646160	0.823080	0.351900
C3861	C386	0.569240	0.784620	0.420800
C3871	C387	0.492800	0.746400	0.430900
C3881	C388	0.476840	0.738420	0.371000
H2771	H277	0.501200	0.750600	0.343800
C3891	C389	0.454700	0.727350	0.475100
H2781	H278	0.466000	0.733000	0.515100
O861	O86	0.198830	0.099410	0.789970
C3901	C390	0.312830	0.156410	0.685230
C3911	C391	0.235910	0.117950	0.754130
C3921	C392	0.159470	0.079730	0.764230
C3931	C393	0.143510	0.071750	0.704330
H2791	H279	0.167870	0.083930	0.677130
C3941	C394	0.121370	0.060680	0.808430
H2801	H280	0.132670	0.066330	0.848430
O871	O87	0.865490	0.432750	0.123310
C3951	C395	0.979490	0.489750	0.018570
C3961	C396	0.902570	0.451290	0.087470
C3971	C397	0.826130	0.413070	0.097570
C3981	C398	0.810170	0.405090	0.037670
H2811	H281	0.834530	0.417270	0.010470
C3991	C399	0.788030	0.394020	0.141770
H2821	H282	0.799330	0.399670	0.181770
O881	O88	0.233920	0.467840	0.456640
C4001	C400	0.176920	0.353840	0.351900
C4011	C401	0.215380	0.430760	0.420800
C4021	C402	0.253600	0.507200	0.430900
C4031	C403	0.261580	0.523160	0.371000
H2831	H283	0.249400	0.498800	0.343800
C4041	C404	0.272650	0.545300	0.475100
H2841	H284	0.267000	0.534000	0.515100
O891	O89	0.900590	0.801170	0.789970
C4051	C405	0.843590	0.687170	0.685230
C4061	C406	0.882050	0.764090	0.754130
C4071	C407	0.920270	0.840530	0.764230
C4081	C408	0.928250	0.856490	0.704330
H2851	H285	0.916070	0.832130	0.677130
C4091	C409	0.939320	0.878630	0.808430
H2861	H286	0.933670	0.867330	0.848430
O901	O90	0.567250	0.134510	0.123310
C4101	C410	0.510250	0.020510	0.018570
C4111	C411	0.548710	0.097430	0.087470
C4121	C412	0.586930	0.173870	0.097570
C4131	C413	0.594910	0.189830	0.037670
H2871	H287	0.582730	0.165470	0.010470
C4141	C414	0.605980	0.211970	0.141770
H2881	H288	0.600330	0.200670	0.181770
