data_UMOYOM07_clean_PM
_symmetry_space_group_name_H-M	'P1'
_cell_length_a	35.063000
_cell_length_b	35.063000
_cell_length_c	22.593000
_cell_angle_alpha	90.000000
_cell_angle_beta	90.000000
_cell_angle_gamma	120.000000
_symmetry_Int_Tables_number 1

loop_
_symmetry_equiv_pos_as_xyz
'x,y,z'

loop_
_atom_site_label
_atom_site_type_symbol
_atom_site_fract_x
_atom_site_fract_y
_atom_site_fract_z
O11	O1	0.553360	0.027880	0.067200
O21	O2	0.567340	0.056380	0.977300
C11	C1	0.578270	0.053700	0.028100
C21	C2	0.625000	0.084640	0.045700
C31	C3	0.655710	0.113090	0.005100
H11	H1	0.648000	0.112900	0.965700
C41	C4	0.698620	0.142110	0.024600
H21	H2	0.718300	0.162600	0.997700
C51	C5	0.712830	0.142270	0.077900
C61	C6	0.681530	0.113780	0.120000
H31	H3	0.689200	0.114000	0.159500
C71	C7	0.638430	0.085150	0.100000
H41	H4	0.618200	0.065300	0.127000
C81	C8	0.759720	0.170550	0.096300
C91	C9	0.779470	0.152510	0.131000
H51	H5	0.763100	0.123000	0.141700
H61	H6	0.741700	0.303000	0.029100
H71	H7	0.709800	0.245500	0.128800
O31	O3	0.220030	0.361210	0.400530
O41	O4	0.234010	0.389710	0.310630
C101	C10	0.244940	0.387030	0.361430
C111	C11	0.291670	0.417970	0.379030
C121	C12	0.322380	0.446420	0.338430
H81	H8	0.314670	0.446230	0.299030
C131	C13	0.365290	0.475440	0.357930
H91	H9	0.384970	0.495930	0.331030
C141	C14	0.379500	0.475600	0.411230
C151	C15	0.348200	0.447110	0.453330
H101	H10	0.355870	0.447330	0.492830
C161	C16	0.305100	0.418480	0.433330
H111	H11	0.284870	0.398630	0.460330
C171	C17	0.426390	0.503880	0.429630
C181	C18	0.446140	0.485840	0.464330
H121	H12	0.429770	0.456330	0.475030
H131	H13	0.408370	0.636330	0.362430
H141	H14	0.376470	0.578830	0.462130
O51	O5	0.886690	0.694550	0.733870
O61	O6	0.900670	0.723050	0.643970
C191	C19	0.911600	0.720370	0.694770
C201	C20	0.958330	0.751310	0.712370
C211	C21	0.989040	0.779760	0.671770
H151	H15	0.981330	0.779570	0.632370
C221	C22	0.031950	0.808780	0.691270
H161	H16	0.051630	0.829270	0.664370
C231	C23	0.046160	0.808940	0.744570
C241	C24	0.014860	0.780450	0.786670
H171	H17	0.022530	0.780670	0.826170
C251	C25	0.971760	0.751820	0.766670
H181	H18	0.951530	0.731970	0.793670
C261	C26	0.093050	0.837220	0.762970
C271	C27	0.112800	0.819180	0.797670
H191	H19	0.096430	0.789670	0.808370
H201	H20	0.075030	0.969670	0.695770
H211	H21	0.043130	0.912170	0.795470
O71	O7	0.972120	0.525480	0.067200
O81	O8	0.943620	0.510960	0.977300
C281	C28	0.946300	0.524570	0.028100
C291	C29	0.915360	0.540360	0.045700
C301	C30	0.886910	0.542620	0.005100
H221	H22	0.887100	0.535100	0.965700
C311	C31	0.857890	0.556510	0.024600
H231	H23	0.837400	0.555700	0.997700
C321	C32	0.857730	0.570560	0.077900
C331	C33	0.886220	0.567750	0.120000
H241	H24	0.886000	0.575200	0.159500
C341	C34	0.914850	0.553280	0.100000
H251	H25	0.934700	0.552900	0.127000
C351	C35	0.829450	0.589170	0.096300
C361	C36	0.847490	0.626960	0.131000
H261	H26	0.877000	0.640100	0.141700
H271	H27	0.697000	0.438700	0.029100
H281	H28	0.754500	0.464300	0.128800
O91	O9	0.638790	0.858810	0.400530
O101	O10	0.610290	0.844290	0.310630
C371	C37	0.612970	0.857900	0.361430
C381	C38	0.582030	0.873690	0.379030
C391	C39	0.553580	0.875950	0.338430
H291	H29	0.553770	0.868430	0.299030
C401	C40	0.524560	0.889840	0.357930
H301	H30	0.504070	0.889030	0.331030
C411	C41	0.524400	0.903890	0.411230
C421	C42	0.552890	0.901080	0.453330
H311	H31	0.552670	0.908530	0.492830
C431	C43	0.581520	0.886610	0.433330
H321	H32	0.601370	0.886230	0.460330
C441	C44	0.496120	0.922500	0.429630
C451	C45	0.514160	0.960290	0.464330
H331	H33	0.543670	0.973430	0.475030
H341	H34	0.363670	0.772030	0.362430
H351	H35	0.421170	0.797630	0.462130
O111	O11	0.305450	0.192150	0.733870
O121	O12	0.276950	0.177630	0.643970
C461	C46	0.279630	0.191240	0.694770
C471	C47	0.248690	0.207030	0.712370
C481	C48	0.220240	0.209290	0.671770
H361	H36	0.220430	0.201770	0.632370
C491	C49	0.191220	0.223180	0.691270
H371	H37	0.170730	0.222370	0.664370
C501	C50	0.191060	0.237230	0.744570
C511	C51	0.219550	0.234420	0.786670
H381	H38	0.219330	0.241870	0.826170
C521	C52	0.248180	0.219950	0.766670
H391	H39	0.268030	0.219570	0.793670
C531	C53	0.162780	0.255840	0.762970
C541	C54	0.180820	0.293630	0.797670
H401	H40	0.210330	0.306770	0.808370
H411	H41	0.030330	0.105370	0.695770
H421	H42	0.087830	0.130970	0.795470
O131	O13	0.474520	0.446640	0.067200
O141	O14	0.489040	0.432660	0.977300
C551	C55	0.475430	0.421730	0.028100
C561	C56	0.459640	0.375000	0.045700
C571	C57	0.457380	0.344290	0.005100
H431	H43	0.464900	0.352000	0.965700
C581	C58	0.443490	0.301380	0.024600
H441	H44	0.444300	0.281700	0.997700
C591	C59	0.429440	0.287170	0.077900
C601	C60	0.432250	0.318470	0.120000
H451	H45	0.424800	0.310800	0.159500
C611	C61	0.446720	0.361570	0.100000
H461	H46	0.447100	0.381800	0.127000
C621	C62	0.410830	0.240280	0.096300
C631	C63	0.373040	0.220530	0.131000
H471	H47	0.359900	0.236900	0.141700
H481	H48	0.561300	0.258300	0.029100
H491	H49	0.535700	0.290200	0.128800
O151	O15	0.141190	0.779970	0.400530
O161	O16	0.155710	0.765990	0.310630
C641	C64	0.142100	0.755060	0.361430
C651	C65	0.126310	0.708330	0.379030
C661	C66	0.124050	0.677620	0.338430
H501	H50	0.131570	0.685330	0.299030
C671	C67	0.110160	0.634710	0.357930
H511	H51	0.110970	0.615030	0.331030
C681	C68	0.096110	0.620500	0.411230
C691	C69	0.098920	0.651800	0.453330
H521	H52	0.091470	0.644130	0.492830
C701	C70	0.113390	0.694900	0.433330
H531	H53	0.113770	0.715130	0.460330
C711	C71	0.077500	0.573610	0.429630
C721	C72	0.039710	0.553860	0.464330
H541	H54	0.026570	0.570230	0.475030
H551	H55	0.227970	0.591630	0.362430
H561	H56	0.202370	0.623530	0.462130
O171	O17	0.807850	0.113310	0.733870
O181	O18	0.822370	0.099330	0.643970
C731	C73	0.808760	0.088400	0.694770
C741	C74	0.792970	0.041670	0.712370
C751	C75	0.790710	0.010960	0.671770
H571	H57	0.798230	0.018670	0.632370
C761	C76	0.776820	0.968050	0.691270
H581	H58	0.777630	0.948370	0.664370
C771	C77	0.762770	0.953840	0.744570
C781	C78	0.765580	0.985140	0.786670
H591	H59	0.758130	0.977470	0.826170
C791	C79	0.780050	0.028240	0.766670
H601	H60	0.780430	0.048470	0.793670
C801	C80	0.744160	0.906950	0.762970
C811	C81	0.706370	0.887200	0.797670
H611	H61	0.693230	0.903570	0.808370
H621	H62	0.894630	0.924970	0.695770
H631	H63	0.869030	0.956870	0.795470
O191	O19	0.027880	0.553360	0.932800
O201	O20	0.056380	0.567340	0.022700
C821	C82	0.053700	0.578270	0.971900
C831	C83	0.084640	0.625000	0.954300
C841	C84	0.113090	0.655710	0.994900
H641	H64	0.112900	0.648000	0.034300
C851	C85	0.142110	0.698620	0.975400
H651	H65	0.162600	0.718300	0.002300
C861	C86	0.142270	0.712830	0.922100
C871	C87	0.113780	0.681530	0.880000
H661	H66	0.114000	0.689200	0.840500
C881	C88	0.085150	0.638430	0.900000
H671	H67	0.065300	0.618200	0.873000
C891	C89	0.170550	0.759720	0.903700
C901	C90	0.152510	0.779470	0.869000
H681	H68	0.123000	0.763100	0.858300
H691	H69	0.303000	0.741700	0.970900
H701	H70	0.245500	0.709800	0.871200
O211	O21	0.694550	0.886690	0.266130
O221	O22	0.723050	0.900670	0.356030
C911	C91	0.720370	0.911600	0.305230
C921	C92	0.751310	0.958330	0.287630
C931	C93	0.779760	0.989040	0.328230
H711	H71	0.779570	0.981330	0.367630
C941	C94	0.808780	0.031950	0.308730
H721	H72	0.829270	0.051630	0.335630
C951	C95	0.808940	0.046160	0.255430
C961	C96	0.780450	0.014860	0.213330
H731	H73	0.780670	0.022530	0.173830
C971	C97	0.751820	0.971760	0.233330
H741	H74	0.731970	0.951530	0.206330
C981	C98	0.837220	0.093050	0.237030
C991	C99	0.819180	0.112800	0.202330
H751	H75	0.789670	0.096430	0.191630
H761	H76	0.969670	0.075030	0.304230
H771	H77	0.912170	0.043130	0.204530
O231	O23	0.361210	0.220030	0.599470
O241	O24	0.389710	0.234010	0.689370
C1001	C100	0.387030	0.244940	0.638570
C1011	C101	0.417970	0.291670	0.620970
C1021	C102	0.446420	0.322380	0.661570
H781	H78	0.446230	0.314670	0.700970
C1031	C103	0.475440	0.365290	0.642070
H791	H79	0.495930	0.384970	0.668970
C1041	C104	0.475600	0.379500	0.588770
C1051	C105	0.447110	0.348200	0.546670
H801	H80	0.447330	0.355870	0.507170
C1061	C106	0.418480	0.305100	0.566670
H811	H81	0.398630	0.284870	0.539670
C1071	C107	0.503880	0.426390	0.570370
C1081	C108	0.485840	0.446140	0.535670
H821	H82	0.456330	0.429770	0.524970
H831	H83	0.636330	0.408370	0.637570
H841	H84	0.578830	0.376470	0.537870
O251	O25	0.525480	0.972120	0.932800
O261	O26	0.510960	0.943620	0.022700
C1091	C109	0.524570	0.946300	0.971900
C1101	C110	0.540360	0.915360	0.954300
C1111	C111	0.542620	0.886910	0.994900
H851	H85	0.535100	0.887100	0.034300
C1121	C112	0.556510	0.857890	0.975400
H861	H86	0.555700	0.837400	0.002300
C1131	C113	0.570560	0.857730	0.922100
C1141	C114	0.567750	0.886220	0.880000
H871	H87	0.575200	0.886000	0.840500
C1151	C115	0.553280	0.914850	0.900000
H881	H88	0.552900	0.934700	0.873000
C1161	C116	0.589170	0.829450	0.903700
C1171	C117	0.626960	0.847490	0.869000
H891	H89	0.640100	0.877000	0.858300
H901	H90	0.438700	0.697000	0.970900
H911	H91	0.464300	0.754500	0.871200
O271	O27	0.192150	0.305450	0.266130
O281	O28	0.177630	0.276950	0.356030
C1181	C118	0.191240	0.279630	0.305230
C1191	C119	0.207030	0.248690	0.287630
C1201	C120	0.209290	0.220240	0.328230
H921	H92	0.201770	0.220430	0.367630
C1211	C121	0.223180	0.191220	0.308730
H931	H93	0.222370	0.170730	0.335630
C1221	C122	0.237230	0.191060	0.255430
C1231	C123	0.234420	0.219550	0.213330
H941	H94	0.241870	0.219330	0.173830
C1241	C124	0.219950	0.248180	0.233330
H951	H95	0.219570	0.268030	0.206330
C1251	C125	0.255840	0.162780	0.237030
C1261	C126	0.293630	0.180820	0.202330
H961	H96	0.306770	0.210330	0.191630
H971	H97	0.105370	0.030330	0.304230
H981	H98	0.130970	0.087830	0.204530
O291	O29	0.858810	0.638790	0.599470
O301	O30	0.844290	0.610290	0.689370
C1271	C127	0.857900	0.612970	0.638570
C1281	C128	0.873690	0.582030	0.620970
C1291	C129	0.875950	0.553580	0.661570
H991	H99	0.868430	0.553770	0.700970
C1301	C130	0.889840	0.524560	0.642070
H1001	H100	0.889030	0.504070	0.668970
C1311	C131	0.903890	0.524400	0.588770
C1321	C132	0.901080	0.552890	0.546670
H1011	H101	0.908530	0.552670	0.507170
C1331	C133	0.886610	0.581520	0.566670
H1021	H102	0.886230	0.601370	0.539670
C1341	C134	0.922500	0.496120	0.570370
C1351	C135	0.960290	0.514160	0.535670
H1031	H103	0.973430	0.543670	0.524970
H1041	H104	0.772030	0.363670	0.637570
H1051	H105	0.797630	0.421170	0.537870
O311	O31	0.446640	0.474520	0.932800
O321	O32	0.432660	0.489040	0.022700
C1361	C136	0.421730	0.475430	0.971900
C1371	C137	0.375000	0.459640	0.954300
C1381	C138	0.344290	0.457380	0.994900
H1061	H106	0.352000	0.464900	0.034300
C1391	C139	0.301380	0.443490	0.975400
H1071	H107	0.281700	0.444300	0.002300
C1401	C140	0.287170	0.429440	0.922100
C1411	C141	0.318470	0.432250	0.880000
H1081	H108	0.310800	0.424800	0.840500
C1421	C142	0.361570	0.446720	0.900000
H1091	H109	0.381800	0.447100	0.873000
C1431	C143	0.240280	0.410830	0.903700
C1441	C144	0.220530	0.373040	0.869000
H1101	H110	0.236900	0.359900	0.858300
H1111	H111	0.258300	0.561300	0.970900
H1121	H112	0.290200	0.535700	0.871200
O331	O33	0.113310	0.807850	0.266130
O341	O34	0.099330	0.822370	0.356030
C1451	C145	0.088400	0.808760	0.305230
C1461	C146	0.041670	0.792970	0.287630
C1471	C147	0.010960	0.790710	0.328230
H1131	H113	0.018670	0.798230	0.367630
C1481	C148	0.968050	0.776820	0.308730
H1141	H114	0.948370	0.777630	0.335630
C1491	C149	0.953840	0.762770	0.255430
C1501	C150	0.985140	0.765580	0.213330
H1151	H115	0.977470	0.758130	0.173830
C1511	C151	0.028240	0.780050	0.233330
H1161	H116	0.048470	0.780430	0.206330
C1521	C152	0.906950	0.744160	0.237030
C1531	C153	0.887200	0.706370	0.202330
H1171	H117	0.903570	0.693230	0.191630
H1181	H118	0.924970	0.894630	0.304230
H1191	H119	0.956870	0.869030	0.204530
O351	O35	0.779970	0.141190	0.599470
O361	O36	0.765990	0.155710	0.689370
C1541	C154	0.755060	0.142100	0.638570
C1551	C155	0.708330	0.126310	0.620970
C1561	C156	0.677620	0.124050	0.661570
H1201	H120	0.685330	0.131570	0.700970
C1571	C157	0.634710	0.110160	0.642070
H1211	H121	0.615030	0.110970	0.668970
C1581	C158	0.620500	0.096110	0.588770
C1591	C159	0.651800	0.098920	0.546670
H1221	H122	0.644130	0.091470	0.507170
C1601	C160	0.694900	0.113390	0.566670
H1231	H123	0.715130	0.113770	0.539670
C1611	C161	0.573610	0.077500	0.570370
C1621	C162	0.553860	0.039710	0.535670
H1241	H124	0.570230	0.026570	0.524970
H1251	H125	0.591630	0.227970	0.637570
H1261	H126	0.623530	0.202370	0.537870
O371	O37	0.446640	0.972120	0.932800
O381	O38	0.432660	0.943620	0.022700
C1631	C163	0.421730	0.946300	0.971900
C1641	C164	0.375000	0.915360	0.954300
C1651	C165	0.344290	0.886910	0.994900
H1271	H127	0.352000	0.887100	0.034300
C1661	C166	0.301380	0.857890	0.975400
H1281	H128	0.281700	0.837400	0.002300
C1671	C167	0.287170	0.857730	0.922100
C1681	C168	0.318470	0.886220	0.880000
H1291	H129	0.310800	0.886000	0.840500
C1691	C169	0.361570	0.914850	0.900000
H1301	H130	0.381800	0.934700	0.873000
C1701	C170	0.240280	0.829450	0.903700
C1711	C171	0.220530	0.847490	0.869000
H1311	H131	0.236900	0.877000	0.858300
H1321	H132	0.258300	0.697000	0.970900
H1331	H133	0.290200	0.754500	0.871200
O391	O39	0.113310	0.305450	0.266130
O401	O40	0.099330	0.276950	0.356030
C1721	C172	0.088400	0.279630	0.305230
C1731	C173	0.041670	0.248690	0.287630
C1741	C174	0.010960	0.220240	0.328230
H1341	H134	0.018670	0.220430	0.367630
C1751	C175	0.968050	0.191220	0.308730
H1351	H135	0.948370	0.170730	0.335630
C1761	C176	0.953840	0.191060	0.255430
C1771	C177	0.985140	0.219550	0.213330
H1361	H136	0.977470	0.219330	0.173830
C1781	C178	0.028240	0.248180	0.233330
H1371	H137	0.048470	0.268030	0.206330
C1791	C179	0.906950	0.162780	0.237030
C1801	C180	0.887200	0.180820	0.202330
H1381	H138	0.903570	0.210330	0.191630
H1391	H139	0.924970	0.030330	0.304230
H1401	H140	0.956870	0.087830	0.204530
O411	O41	0.779970	0.638790	0.599470
O421	O42	0.765990	0.610290	0.689370
C1811	C181	0.755060	0.612970	0.638570
C1821	C182	0.708330	0.582030	0.620970
C1831	C183	0.677620	0.553580	0.661570
H1411	H141	0.685330	0.553770	0.700970
C1841	C184	0.634710	0.524560	0.642070
H1421	H142	0.615030	0.504070	0.668970
C1851	C185	0.620500	0.524400	0.588770
C1861	C186	0.651800	0.552890	0.546670
H1431	H143	0.644130	0.552670	0.507170
C1871	C187	0.694900	0.581520	0.566670
H1441	H144	0.715130	0.601370	0.539670
C1881	C188	0.573610	0.496120	0.570370
C1891	C189	0.553860	0.514160	0.535670
H1451	H145	0.570230	0.543670	0.524970
H1461	H146	0.591630	0.363670	0.637570
H1471	H147	0.623530	0.421170	0.537870
O431	O43	0.027880	0.474520	0.932800
O441	O44	0.056380	0.489040	0.022700
C1901	C190	0.053700	0.475430	0.971900
C1911	C191	0.084640	0.459640	0.954300
C1921	C192	0.113090	0.457380	0.994900
H1481	H148	0.112900	0.464900	0.034300
C1931	C193	0.142110	0.443490	0.975400
H1491	H149	0.162600	0.444300	0.002300
C1941	C194	0.142270	0.429440	0.922100
C1951	C195	0.113780	0.432250	0.880000
H1501	H150	0.114000	0.424800	0.840500
C1961	C196	0.085150	0.446720	0.900000
H1511	H151	0.065300	0.447100	0.873000
C1971	C197	0.170550	0.410830	0.903700
C1981	C198	0.152510	0.373040	0.869000
H1521	H152	0.123000	0.359900	0.858300
H1531	H153	0.303000	0.561300	0.970900
H1541	H154	0.245500	0.535700	0.871200
O451	O45	0.694550	0.807850	0.266130
O461	O46	0.723050	0.822370	0.356030
C1991	C199	0.720370	0.808760	0.305230
C2001	C200	0.751310	0.792970	0.287630
C2011	C201	0.779760	0.790710	0.328230
H1551	H155	0.779570	0.798230	0.367630
C2021	C202	0.808780	0.776820	0.308730
H1561	H156	0.829270	0.777630	0.335630
C2031	C203	0.808940	0.762770	0.255430
C2041	C204	0.780450	0.765580	0.213330
H1571	H157	0.780670	0.758130	0.173830
C2051	C205	0.751820	0.780050	0.233330
H1581	H158	0.731970	0.780430	0.206330
C2061	C206	0.837220	0.744160	0.237030
C2071	C207	0.819180	0.706370	0.202330
H1591	H159	0.789670	0.693230	0.191630
H1601	H160	0.969670	0.894630	0.304230
H1611	H161	0.912170	0.869030	0.204530
O471	O47	0.361210	0.141190	0.599470
O481	O48	0.389710	0.155710	0.689370
C2081	C208	0.387030	0.142100	0.638570
C2091	C209	0.417970	0.126310	0.620970
C2101	C210	0.446420	0.124050	0.661570
H1621	H162	0.446230	0.131570	0.700970
C2111	C211	0.475440	0.110160	0.642070
H1631	H163	0.495930	0.110970	0.668970
C2121	C212	0.475600	0.096110	0.588770
C2131	C213	0.447110	0.098920	0.546670
H1641	H164	0.447330	0.091470	0.507170
C2141	C214	0.418480	0.113390	0.566670
H1651	H165	0.398630	0.113770	0.539670
C2151	C215	0.503880	0.077500	0.570370
C2161	C216	0.485840	0.039710	0.535670
H1661	H166	0.456330	0.026570	0.524970
H1671	H167	0.636330	0.227970	0.637570
H1681	H168	0.578830	0.202370	0.537870
O491	O49	0.525480	0.553360	0.932800
O501	O50	0.510960	0.567340	0.022700
C2171	C217	0.524570	0.578270	0.971900
C2181	C218	0.540360	0.625000	0.954300
C2191	C219	0.542620	0.655710	0.994900
H1691	H169	0.535100	0.648000	0.034300
C2201	C220	0.556510	0.698620	0.975400
H1701	H170	0.555700	0.718300	0.002300
C2211	C221	0.570560	0.712830	0.922100
C2221	C222	0.567750	0.681530	0.880000
H1711	H171	0.575200	0.689200	0.840500
C2231	C223	0.553280	0.638430	0.900000
H1721	H172	0.552900	0.618200	0.873000
C2241	C224	0.589170	0.759720	0.903700
C2251	C225	0.626960	0.779470	0.869000
H1731	H173	0.640100	0.763100	0.858300
H1741	H174	0.438700	0.741700	0.970900
H1751	H175	0.464300	0.709800	0.871200
O511	O51	0.192150	0.886690	0.266130
O521	O52	0.177630	0.900670	0.356030
C2261	C226	0.191240	0.911600	0.305230
C2271	C227	0.207030	0.958330	0.287630
C2281	C228	0.209290	0.989040	0.328230
H1761	H176	0.201770	0.981330	0.367630
C2291	C229	0.223180	0.031950	0.308730
H1771	H177	0.222370	0.051630	0.335630
C2301	C230	0.237230	0.046160	0.255430
C2311	C231	0.234420	0.014860	0.213330
H1781	H178	0.241870	0.022530	0.173830
C2321	C232	0.219950	0.971760	0.233330
H1791	H179	0.219570	0.951530	0.206330
C2331	C233	0.255840	0.093050	0.237030
C2341	C234	0.293630	0.112800	0.202330
H1801	H180	0.306770	0.096430	0.191630
H1811	H181	0.105370	0.075030	0.304230
H1821	H182	0.130970	0.043130	0.204530
O531	O53	0.858810	0.220030	0.599470
O541	O54	0.844290	0.234010	0.689370
C2351	C235	0.857900	0.244940	0.638570
C2361	C236	0.873690	0.291670	0.620970
C2371	C237	0.875950	0.322380	0.661570
H1831	H183	0.868430	0.314670	0.700970
C2381	C238	0.889840	0.365290	0.642070
H1841	H184	0.889030	0.384970	0.668970
C2391	C239	0.903890	0.379500	0.588770
C2401	C240	0.901080	0.348200	0.546670
H1851	H185	0.908530	0.355870	0.507170
C2411	C241	0.886610	0.305100	0.566670
H1861	H186	0.886230	0.284870	0.539670
C2421	C242	0.922500	0.426390	0.570370
C2431	C243	0.960290	0.446140	0.535670
H1871	H187	0.973430	0.429770	0.524970
H1881	H188	0.772030	0.408370	0.637570
H1891	H189	0.797630	0.376470	0.537870
O551	O55	0.972120	0.446640	0.067200
O561	O56	0.943620	0.432660	0.977300
C2441	C244	0.946300	0.421730	0.028100
C2451	C245	0.915360	0.375000	0.045700
C2461	C246	0.886910	0.344290	0.005100
H1901	H190	0.887100	0.352000	0.965700
C2471	C247	0.857890	0.301380	0.024600
H1911	H191	0.837400	0.281700	0.997700
C2481	C248	0.857730	0.287170	0.077900
C2491	C249	0.886220	0.318470	0.120000
H1921	H192	0.886000	0.310800	0.159500
C2501	C250	0.914850	0.361570	0.100000
H1931	H193	0.934700	0.381800	0.127000
C2511	C251	0.829450	0.240280	0.096300
C2521	C252	0.847490	0.220530	0.131000
H1941	H194	0.877000	0.236900	0.141700
H1951	H195	0.697000	0.258300	0.029100
H1961	H196	0.754500	0.290200	0.128800
O571	O57	0.638790	0.779970	0.400530
O581	O58	0.610290	0.765990	0.310630
C2531	C253	0.612970	0.755060	0.361430
C2541	C254	0.582030	0.708330	0.379030
C2551	C255	0.553580	0.677620	0.338430
H1971	H197	0.553770	0.685330	0.299030
C2561	C256	0.524560	0.634710	0.357930
H1981	H198	0.504070	0.615030	0.331030
C2571	C257	0.524400	0.620500	0.411230
C2581	C258	0.552890	0.651800	0.453330
H1991	H199	0.552670	0.644130	0.492830
C2591	C259	0.581520	0.694900	0.433330
H2001	H200	0.601370	0.715130	0.460330
C2601	C260	0.496120	0.573610	0.429630
C2611	C261	0.514160	0.553860	0.464330
H2011	H201	0.543670	0.570230	0.475030
H2021	H202	0.363670	0.591630	0.362430
H2031	H203	0.421170	0.623530	0.462130
O591	O59	0.305450	0.113310	0.733870
O601	O60	0.276950	0.099330	0.643970
C2621	C262	0.279630	0.088400	0.694770
C2631	C263	0.248690	0.041670	0.712370
C2641	C264	0.220240	0.010960	0.671770
H2041	H204	0.220430	0.018670	0.632370
C2651	C265	0.191220	0.968050	0.691270
H2051	H205	0.170730	0.948370	0.664370
C2661	C266	0.191060	0.953840	0.744570
C2671	C267	0.219550	0.985140	0.786670
H2061	H206	0.219330	0.977470	0.826170
C2681	C268	0.248180	0.028240	0.766670
H2071	H207	0.268030	0.048470	0.793670
C2691	C269	0.162780	0.906950	0.762970
C2701	C270	0.180820	0.887200	0.797670
H2081	H208	0.210330	0.903570	0.808370
H2091	H209	0.030330	0.924970	0.695770
H2101	H210	0.087830	0.956870	0.795470
O611	O61	0.474520	0.027880	0.067200
O621	O62	0.489040	0.056380	0.977300
C2711	C271	0.475430	0.053700	0.028100
C2721	C272	0.459640	0.084640	0.045700
C2731	C273	0.457380	0.113090	0.005100
H2111	H211	0.464900	0.112900	0.965700
C2741	C274	0.443490	0.142110	0.024600
H2121	H212	0.444300	0.162600	0.997700
C2751	C275	0.429440	0.142270	0.077900
C2761	C276	0.432250	0.113780	0.120000
H2131	H213	0.424800	0.114000	0.159500
C2771	C277	0.446720	0.085150	0.100000
H2141	H214	0.447100	0.065300	0.127000
C2781	C278	0.410830	0.170550	0.096300
C2791	C279	0.373040	0.152510	0.131000
H2151	H215	0.359900	0.123000	0.141700
H2161	H216	0.561300	0.303000	0.029100
H2171	H217	0.535700	0.245500	0.128800
O631	O63	0.141190	0.361210	0.400530
O641	O64	0.155710	0.389710	0.310630
C2801	C280	0.142100	0.387030	0.361430
C2811	C281	0.126310	0.417970	0.379030
C2821	C282	0.124050	0.446420	0.338430
H2181	H218	0.131570	0.446230	0.299030
C2831	C283	0.110160	0.475440	0.357930
H2191	H219	0.110970	0.495930	0.331030
C2841	C284	0.096110	0.475600	0.411230
C2851	C285	0.098920	0.447110	0.453330
H2201	H220	0.091470	0.447330	0.492830
C2861	C286	0.113390	0.418480	0.433330
H2211	H221	0.113770	0.398630	0.460330
C2871	C287	0.077500	0.503880	0.429630
C2881	C288	0.039710	0.485840	0.464330
H2221	H222	0.026570	0.456330	0.475030
H2231	H223	0.227970	0.636330	0.362430
H2241	H224	0.202370	0.578830	0.462130
O651	O65	0.807850	0.694550	0.733870
O661	O66	0.822370	0.723050	0.643970
C2891	C289	0.808760	0.720370	0.694770
C2901	C290	0.792970	0.751310	0.712370
C2911	C291	0.790710	0.779760	0.671770
H2251	H225	0.798230	0.779570	0.632370
C2921	C292	0.776820	0.808780	0.691270
H2261	H226	0.777630	0.829270	0.664370
C2931	C293	0.762770	0.808940	0.744570
C2941	C294	0.765580	0.780450	0.786670
H2271	H227	0.758130	0.780670	0.826170
C2951	C295	0.780050	0.751820	0.766670
H2281	H228	0.780430	0.731970	0.793670
C2961	C296	0.744160	0.837220	0.762970
C2971	C297	0.706370	0.819180	0.797670
H2291	H229	0.693230	0.789670	0.808370
H2301	H230	0.894630	0.969670	0.695770
H2311	H231	0.869030	0.912170	0.795470
O671	O67	0.553360	0.525480	0.067200
O681	O68	0.567340	0.510960	0.977300
C2981	C298	0.578270	0.524570	0.028100
C2991	C299	0.625000	0.540360	0.045700
C3001	C300	0.655710	0.542620	0.005100
H2321	H232	0.648000	0.535100	0.965700
C3011	C301	0.698620	0.556510	0.024600
H2331	H233	0.718300	0.555700	0.997700
C3021	C302	0.712830	0.570560	0.077900
C3031	C303	0.681530	0.567750	0.120000
H2341	H234	0.689200	0.575200	0.159500
C3041	C304	0.638430	0.553280	0.100000
H2351	H235	0.618200	0.552900	0.127000
C3051	C305	0.759720	0.589170	0.096300
C3061	C306	0.779470	0.626960	0.131000
H2361	H236	0.763100	0.640100	0.141700
H2371	H237	0.741700	0.438700	0.029100
H2381	H238	0.709800	0.464300	0.128800
O691	O69	0.220030	0.858810	0.400530
O701	O70	0.234010	0.844290	0.310630
C3071	C307	0.244940	0.857900	0.361430
C3081	C308	0.291670	0.873690	0.379030
C3091	C309	0.322380	0.875950	0.338430
H2391	H239	0.314670	0.868430	0.299030
C3101	C310	0.365290	0.889840	0.357930
H2401	H240	0.384970	0.889030	0.331030
C3111	C311	0.379500	0.903890	0.411230
C3121	C312	0.348200	0.901080	0.453330
H2411	H241	0.355870	0.908530	0.492830
C3131	C313	0.305100	0.886610	0.433330
H2421	H242	0.284870	0.886230	0.460330
C3141	C314	0.426390	0.922500	0.429630
C3151	C315	0.446140	0.960290	0.464330
H2431	H243	0.429770	0.973430	0.475030
H2441	H244	0.408370	0.772030	0.362430
H2451	H245	0.376470	0.797630	0.462130
O711	O71	0.886690	0.192150	0.733870
O721	O72	0.900670	0.177630	0.643970
C3161	C316	0.911600	0.191240	0.694770
C3171	C317	0.958330	0.207030	0.712370
C3181	C318	0.989040	0.209290	0.671770
H2461	H246	0.981330	0.201770	0.632370
C3191	C319	0.031950	0.223180	0.691270
H2471	H247	0.051630	0.222370	0.664370
C3201	C320	0.046160	0.237230	0.744570
C3211	C321	0.014860	0.234420	0.786670
H2481	H248	0.022530	0.241870	0.826170
C3221	C322	0.971760	0.219950	0.766670
H2491	H249	0.951530	0.219570	0.793670
C3231	C323	0.093050	0.255840	0.762970
C3241	C324	0.112800	0.293630	0.797670
H2501	H250	0.096430	0.306770	0.808370
H2511	H251	0.075030	0.105370	0.695770
H2521	H252	0.043130	0.130970	0.795470
Cu11	Cu1	0.508440	0.016890	0.947320
Cu21	Cu2	0.175110	0.350220	0.280650
Cu31	Cu3	0.841780	0.683560	0.613990
Cu41	Cu4	0.983110	0.491560	0.947320
Cu51	Cu5	0.649780	0.824890	0.280650
Cu61	Cu6	0.316440	0.158220	0.613990
Cu71	Cu7	0.508440	0.491560	0.947320
Cu81	Cu8	0.175110	0.824890	0.280650
Cu91	Cu9	0.841780	0.158220	0.613990
Cu101	Cu10	0.016890	0.508440	0.052680
Cu111	Cu11	0.683560	0.841780	0.386010
Cu121	Cu12	0.350220	0.175110	0.719350
Cu131	Cu13	0.491560	0.983110	0.052680
Cu141	Cu14	0.158220	0.316440	0.386010
Cu151	Cu15	0.824890	0.649780	0.719350
Cu161	Cu16	0.491560	0.508450	0.052680
Cu171	Cu17	0.158220	0.841780	0.386010
Cu181	Cu18	0.824890	0.175110	0.719350
O731	O73	0.766720	0.233280	0.043200
C3251	C325	0.822850	0.177150	0.150400
C3261	C326	0.785150	0.214850	0.080200
C3271	C327	0.727800	0.272200	0.020100
H2531	H253	0.731600	0.268400	0.978800
C3281	C328	0.740900	0.259100	0.122100
H2541	H254	0.753200	0.246800	0.148700
C3291	C329	0.749300	0.250700	0.057700
O741	O74	0.433390	0.566610	0.376530
C3301	C330	0.489520	0.510480	0.483730
C3311	C331	0.451820	0.548180	0.413530
C3321	C332	0.394470	0.605530	0.353430
H2551	H255	0.398270	0.601730	0.312130
C3331	C333	0.407570	0.592430	0.455430
H2561	H256	0.419870	0.580130	0.482030
C3341	C334	0.415970	0.584030	0.391030
O751	O75	0.100050	0.899950	0.709870
C3351	C335	0.156180	0.843820	0.817070
C3361	C336	0.118480	0.881520	0.746870
C3371	C337	0.061130	0.938870	0.686770
H2571	H257	0.064930	0.935070	0.645470
C3381	C338	0.074230	0.925770	0.788770
H2581	H258	0.086530	0.913470	0.815370
C3391	C339	0.082630	0.917370	0.724370
O761	O76	0.766720	0.533440	0.043200
C3401	C340	0.822850	0.645700	0.150400
C3411	C341	0.785150	0.570300	0.080200
C3421	C342	0.727800	0.455600	0.020100
H2591	H259	0.731600	0.463200	0.978800
C3431	C343	0.740900	0.481800	0.122100
H2601	H260	0.753200	0.506400	0.148700
C3441	C344	0.749300	0.498600	0.057700
O771	O77	0.433390	0.866770	0.376530
C3451	C345	0.489520	0.979030	0.483730
C3461	C346	0.451820	0.903630	0.413530
C3471	C347	0.394470	0.788930	0.353430
H2611	H261	0.398270	0.796530	0.312130
C3481	C348	0.407570	0.815130	0.455430
H2621	H262	0.419870	0.839730	0.482030
C3491	C349	0.415970	0.831930	0.391030
O781	O78	0.100050	0.200110	0.709870
C3501	C350	0.156180	0.312370	0.817070
C3511	C351	0.118480	0.236970	0.746870
C3521	C352	0.061130	0.122270	0.686770
H2631	H263	0.064930	0.129870	0.645470
C3531	C353	0.074230	0.148470	0.788770
H2641	H264	0.086530	0.173070	0.815370
C3541	C354	0.082630	0.165270	0.724370
O791	O79	0.466560	0.233280	0.043200
C3551	C355	0.354300	0.177150	0.150400
C3561	C356	0.429700	0.214850	0.080200
C3571	C357	0.544400	0.272200	0.020100
H2651	H265	0.536800	0.268400	0.978800
C3581	C358	0.518200	0.259100	0.122100
H2661	H266	0.493600	0.246800	0.148700
C3591	C359	0.501400	0.250700	0.057700
O801	O80	0.133230	0.566610	0.376530
C3601	C360	0.020970	0.510480	0.483730
C3611	C361	0.096370	0.548180	0.413530
C3621	C362	0.211070	0.605530	0.353430
H2671	H267	0.203470	0.601730	0.312130
C3631	C363	0.184870	0.592430	0.455430
H2681	H268	0.160270	0.580130	0.482030
C3641	C364	0.168070	0.584030	0.391030
O811	O81	0.799890	0.899950	0.709870
C3651	C365	0.687630	0.843820	0.817070
C3661	C366	0.763030	0.881520	0.746870
C3671	C367	0.877730	0.938870	0.686770
H2691	H269	0.870130	0.935070	0.645470
C3681	C368	0.851530	0.925770	0.788770
H2701	H270	0.826930	0.913470	0.815370
C3691	C369	0.834730	0.917370	0.724370
O821	O82	0.233280	0.766720	0.956800
C3701	C370	0.177150	0.822850	0.849600
C3711	C371	0.214850	0.785150	0.919800
C3721	C372	0.272200	0.727800	0.979900
H2711	H271	0.268400	0.731600	0.021200
C3731	C373	0.259100	0.740900	0.877900
H2721	H272	0.246800	0.753200	0.851300
C3741	C374	0.250700	0.749300	0.942300
O831	O83	0.899950	0.100050	0.290130
C3751	C375	0.843820	0.156180	0.182930
C3761	C376	0.881520	0.118480	0.253130
C3771	C377	0.938870	0.061130	0.313230
H2731	H273	0.935070	0.064930	0.354530
C3781	C378	0.925770	0.074230	0.211230
H2741	H274	0.913470	0.086530	0.184630
C3791	C379	0.917370	0.082630	0.275630
O841	O84	0.566610	0.433390	0.623470
C3801	C380	0.510480	0.489520	0.516270
C3811	C381	0.548180	0.451820	0.586470
C3821	C382	0.605530	0.394470	0.646570
H2751	H275	0.601730	0.398270	0.687870
C3831	C383	0.592430	0.407570	0.544570
H2761	H276	0.580130	0.419870	0.517970
C3841	C384	0.584030	0.415970	0.608970
O851	O85	0.533440	0.766720	0.956800
C3851	C385	0.645700	0.822850	0.849600
C3861	C386	0.570300	0.785150	0.919800
C3871	C387	0.455600	0.727800	0.979900
H2771	H277	0.463200	0.731600	0.021200
C3881	C388	0.481800	0.740900	0.877900
H2781	H278	0.506400	0.753200	0.851300
C3891	C389	0.498600	0.749300	0.942300
O861	O86	0.200110	0.100050	0.290130
C3901	C390	0.312370	0.156180	0.182930
C3911	C391	0.236970	0.118480	0.253130
C3921	C392	0.122270	0.061130	0.313230
H2791	H279	0.129870	0.064930	0.354530
C3931	C393	0.148470	0.074230	0.211230
H2801	H280	0.173070	0.086530	0.184630
C3941	C394	0.165270	0.082630	0.275630
O871	O87	0.866770	0.433390	0.623470
C3951	C395	0.979030	0.489520	0.516270
C3961	C396	0.903630	0.451820	0.586470
C3971	C397	0.788930	0.394470	0.646570
H2811	H281	0.796530	0.398270	0.687870
C3981	C398	0.815130	0.407570	0.544570
H2821	H282	0.839730	0.419870	0.517970
C3991	C399	0.831930	0.415970	0.608970
O881	O88	0.233280	0.466560	0.956800
C4001	C400	0.177150	0.354300	0.849600
C4011	C401	0.214850	0.429700	0.919800
C4021	C402	0.272200	0.544400	0.979900
H2831	H283	0.268400	0.536800	0.021200
C4031	C403	0.259100	0.518200	0.877900
H2841	H284	0.246800	0.493600	0.851300
C4041	C404	0.250700	0.501400	0.942300
O891	O89	0.899950	0.799890	0.290130
C4051	C405	0.843820	0.687630	0.182930
C4061	C406	0.881520	0.763030	0.253130
C4071	C407	0.938870	0.877730	0.313230
H2851	H285	0.935070	0.870130	0.354530
C4081	C408	0.925770	0.851530	0.211230
H2861	H286	0.913470	0.826930	0.184630
C4091	C409	0.917370	0.834730	0.275630
O901	O90	0.566610	0.133230	0.623470
C4101	C410	0.510480	0.020970	0.516270
C4111	C411	0.548180	0.096370	0.586470
C4121	C412	0.605530	0.211070	0.646570
H2871	H287	0.601730	0.203470	0.687870
C4131	C413	0.592430	0.184870	0.544570
H2881	H288	0.580130	0.160270	0.517970
C4141	C414	0.584030	0.168070	0.608970
