data_UMOYOM17_clean_PM
_symmetry_space_group_name_H-M	'P1'
_cell_length_a	35.852000
_cell_length_b	35.852000
_cell_length_c	15.301000
_cell_angle_alpha	90.000000
_cell_angle_beta	90.000000
_cell_angle_gamma	120.000000
_symmetry_Int_Tables_number 1

loop_
_symmetry_equiv_pos_as_xyz
'x,y,z'

loop_
_atom_site_label
_atom_site_type_symbol
_atom_site_fract_x
_atom_site_fract_y
_atom_site_fract_z
O11	O1	0.223530	0.369330	0.414700
O21	O2	0.231190	0.384900	0.271200
C11	C1	0.245390	0.390930	0.347500
C21	C2	0.291430	0.421920	0.362700
C31	C3	0.318600	0.448800	0.295800
H11	H1	0.307300	0.448200	0.240700
C41	C4	0.361500	0.475800	0.311700
H21	H2	0.379600	0.491900	0.266100
C51	C5	0.378360	0.479390	0.393500
C61	C6	0.351300	0.455300	0.459200
H31	H3	0.362300	0.458100	0.515400
C71	C7	0.308600	0.427100	0.445000
H41	H4	0.291000	0.411300	0.491400
C81	C8	0.425810	0.506750	0.412700
C91	C9	0.445800	0.488150	0.453400
H51	H5	0.430100	0.458800	0.465500
O31	O3	0.890200	0.702660	0.748030
O41	O4	0.897860	0.718230	0.604530
C101	C10	0.912060	0.724260	0.680830
C111	C11	0.958100	0.755250	0.696030
C121	C12	0.985270	0.782130	0.629130
H61	H6	0.973970	0.781530	0.574030
C131	C13	0.028170	0.809130	0.645030
H71	H7	0.046270	0.825230	0.599430
C141	C14	0.045030	0.812720	0.726830
C151	C15	0.017970	0.788630	0.792530
H81	H8	0.028970	0.791430	0.848730
C161	C16	0.975270	0.760430	0.778330
H91	H9	0.957670	0.744630	0.824730
C171	C17	0.092480	0.840080	0.746030
C181	C18	0.112470	0.821480	0.786730
H101	H10	0.096770	0.792130	0.798830
O51	O5	0.556860	0.036000	0.081370
O61	O6	0.564520	0.051570	0.937870
C191	C19	0.578720	0.057600	0.014170
C201	C20	0.624760	0.088590	0.029370
C211	C21	0.651930	0.115470	0.962470
H111	H11	0.640630	0.114870	0.907370
C221	C22	0.694830	0.142470	0.978370
H121	H12	0.712930	0.158570	0.932770
C231	C23	0.711690	0.146060	0.060170
C241	C24	0.684630	0.121970	0.125870
H131	H13	0.695630	0.124770	0.182070
C251	C25	0.641930	0.093770	0.111670
H141	H14	0.624330	0.077970	0.158070
C261	C26	0.759140	0.173420	0.079370
C271	C27	0.779130	0.154820	0.120070
H151	H15	0.763430	0.125470	0.132170
O71	O7	0.630670	0.854200	0.414700
O81	O8	0.615100	0.846290	0.271200
C281	C28	0.609070	0.854460	0.347500
C291	C29	0.578080	0.869510	0.362700
C301	C30	0.551200	0.869800	0.295800
H161	H16	0.551800	0.859100	0.240700
C311	C31	0.524200	0.885700	0.311700
H171	H17	0.508100	0.887700	0.266100
C321	C32	0.520610	0.898970	0.393500
C331	C33	0.544700	0.896000	0.459200
H181	H18	0.541900	0.904200	0.515400
C341	C34	0.572900	0.881500	0.445000
H191	H19	0.588700	0.879700	0.491400
C351	C35	0.493250	0.919060	0.412700
C361	C36	0.511850	0.957650	0.453400
H201	H20	0.541200	0.971300	0.465500
O91	O9	0.297340	0.187530	0.748030
O101	O10	0.281770	0.179620	0.604530
C371	C37	0.275740	0.187790	0.680830
C381	C38	0.244750	0.202840	0.696030
C391	C39	0.217870	0.203130	0.629130
H211	H21	0.218470	0.192430	0.574030
C401	C40	0.190870	0.219030	0.645030
H221	H22	0.174770	0.221030	0.599430
C411	C41	0.187280	0.232300	0.726830
C421	C42	0.211370	0.229330	0.792530
H231	H23	0.208570	0.237530	0.848730
C431	C43	0.239570	0.214830	0.778330
H241	H24	0.255370	0.213030	0.824730
C441	C44	0.159920	0.252390	0.746030
C451	C45	0.178520	0.290980	0.786730
H251	H25	0.207870	0.304630	0.798830
O111	O11	0.964000	0.520870	0.081370
O121	O12	0.948430	0.512960	0.937870
C461	C46	0.942400	0.521130	0.014170
C471	C47	0.911410	0.536180	0.029370
C481	C48	0.884530	0.536470	0.962470
H261	H26	0.885130	0.525770	0.907370
C491	C49	0.857530	0.552370	0.978370
H271	H27	0.841430	0.554370	0.932770
C501	C50	0.853940	0.565640	0.060170
C511	C51	0.878030	0.562670	0.125870
H281	H28	0.875230	0.570870	0.182070
C521	C52	0.906230	0.548170	0.111670
H291	H29	0.922030	0.546370	0.158070
C531	C53	0.826580	0.585730	0.079370
C541	C54	0.845180	0.624320	0.120070
H301	H30	0.874530	0.637970	0.132170
O131	O13	0.145800	0.776470	0.414700
O141	O14	0.153710	0.768810	0.271200
C551	C55	0.145540	0.754610	0.347500
C561	C56	0.130490	0.708570	0.362700
C571	C57	0.130200	0.681400	0.295800
H311	H31	0.140900	0.692700	0.240700
C581	C58	0.114300	0.638500	0.311700
H321	H32	0.112300	0.620400	0.266100
C591	C59	0.101030	0.621640	0.393500
C601	C60	0.104000	0.648700	0.459200
H331	H33	0.095800	0.637700	0.515400
C611	C61	0.118500	0.691400	0.445000
H341	H34	0.120300	0.709000	0.491400
C621	C62	0.080940	0.574190	0.412700
C631	C63	0.042350	0.554200	0.453400
H351	H35	0.028700	0.569900	0.465500
O151	O15	0.812470	0.109800	0.748030
O161	O16	0.820380	0.102140	0.604530
C641	C64	0.812210	0.087940	0.680830
C651	C65	0.797160	0.041900	0.696030
C661	C66	0.796870	0.014730	0.629130
H361	H36	0.807570	0.026030	0.574030
C671	C67	0.780970	0.971830	0.645030
H371	H37	0.778970	0.953730	0.599430
C681	C68	0.767700	0.954970	0.726830
C691	C69	0.770670	0.982030	0.792530
H381	H38	0.762470	0.971030	0.848730
C701	C70	0.785170	0.024730	0.778330
H391	H39	0.786970	0.042330	0.824730
C711	C71	0.747610	0.907520	0.746030
C721	C72	0.709020	0.887530	0.786730
H401	H40	0.695370	0.903230	0.798830
O171	O17	0.479130	0.443140	0.081370
O181	O18	0.487040	0.435480	0.937870
C731	C73	0.478870	0.421280	0.014170
C741	C74	0.463820	0.375240	0.029370
C751	C75	0.463530	0.348070	0.962470
H411	H41	0.474230	0.359370	0.907370
C761	C76	0.447630	0.305170	0.978370
H421	H42	0.445630	0.287070	0.932770
C771	C77	0.434360	0.288310	0.060170
C781	C78	0.437330	0.315370	0.125870
H431	H43	0.429130	0.304370	0.182070
C791	C79	0.451830	0.358070	0.111670
H441	H44	0.453630	0.375670	0.158070
C801	C80	0.414270	0.240860	0.079370
C811	C81	0.375680	0.220870	0.120070
H451	H45	0.362030	0.236570	0.132170
O191	O19	0.369330	0.223530	0.585300
O201	O20	0.384900	0.231190	0.728800
C821	C82	0.390930	0.245390	0.652500
C831	C83	0.421920	0.291430	0.637300
C841	C84	0.448800	0.318600	0.704200
H461	H46	0.448200	0.307300	0.759300
C851	C85	0.475800	0.361500	0.688300
H471	H47	0.491900	0.379600	0.733900
C861	C86	0.479390	0.378360	0.606500
C871	C87	0.455300	0.351300	0.540800
H481	H48	0.458100	0.362300	0.484600
C881	C88	0.427100	0.308600	0.555000
H491	H49	0.411300	0.291000	0.508600
C891	C89	0.506750	0.425810	0.587300
C901	C90	0.488150	0.445800	0.546600
H501	H50	0.458800	0.430100	0.534500
O211	O21	0.036000	0.556860	0.918630
O221	O22	0.051570	0.564520	0.062130
C911	C91	0.057600	0.578720	0.985830
C921	C92	0.088590	0.624760	0.970630
C931	C93	0.115470	0.651930	0.037530
H511	H51	0.114870	0.640630	0.092630
C941	C94	0.142470	0.694830	0.021630
H521	H52	0.158570	0.712930	0.067230
C951	C95	0.146060	0.711690	0.939830
C961	C96	0.121970	0.684630	0.874130
H531	H53	0.124770	0.695630	0.817930
C971	C97	0.093770	0.641930	0.888330
H541	H54	0.077970	0.624330	0.841930
C981	C98	0.173420	0.759140	0.920630
C991	C99	0.154820	0.779130	0.879930
H551	H55	0.125470	0.763430	0.867830
O231	O23	0.702660	0.890200	0.251970
O241	O24	0.718230	0.897860	0.395470
C1001	C100	0.724260	0.912060	0.319170
C1011	C101	0.755250	0.958100	0.303970
C1021	C102	0.782130	0.985270	0.370870
H561	H56	0.781530	0.973970	0.425970
C1031	C103	0.809130	0.028170	0.354970
H571	H57	0.825230	0.046270	0.400570
C1041	C104	0.812720	0.045030	0.273170
C1051	C105	0.788630	0.017970	0.207470
H581	H58	0.791430	0.028970	0.151270
C1061	C106	0.760430	0.975270	0.221670
H591	H59	0.744630	0.957670	0.175270
C1071	C107	0.840080	0.092480	0.253970
C1081	C108	0.821480	0.112470	0.213270
H601	H60	0.792130	0.096770	0.201170
O251	O25	0.854200	0.630670	0.585300
O261	O26	0.846290	0.615100	0.728800
C1091	C109	0.854460	0.609070	0.652500
C1101	C110	0.869510	0.578080	0.637300
C1111	C111	0.869800	0.551200	0.704200
H611	H61	0.859100	0.551800	0.759300
C1121	C112	0.885700	0.524200	0.688300
H621	H62	0.887700	0.508100	0.733900
C1131	C113	0.898970	0.520610	0.606500
C1141	C114	0.896000	0.544700	0.540800
H631	H63	0.904200	0.541900	0.484600
C1151	C115	0.881500	0.572900	0.555000
H641	H64	0.879700	0.588700	0.508600
C1161	C116	0.919060	0.493250	0.587300
C1171	C117	0.957650	0.511850	0.546600
H651	H65	0.971300	0.541200	0.534500
O271	O27	0.520870	0.964000	0.918630
O281	O28	0.512960	0.948430	0.062130
C1181	C118	0.521130	0.942400	0.985830
C1191	C119	0.536180	0.911410	0.970630
C1201	C120	0.536470	0.884530	0.037530
H661	H66	0.525770	0.885130	0.092630
C1211	C121	0.552370	0.857530	0.021630
H671	H67	0.554370	0.841430	0.067230
C1221	C122	0.565640	0.853940	0.939830
C1231	C123	0.562670	0.878030	0.874130
H681	H68	0.570870	0.875230	0.817930
C1241	C124	0.548170	0.906230	0.888330
H691	H69	0.546370	0.922030	0.841930
C1251	C125	0.585730	0.826580	0.920630
C1261	C126	0.624320	0.845180	0.879930
H701	H70	0.637970	0.874530	0.867830
O291	O29	0.187530	0.297340	0.251970
O301	O30	0.179620	0.281770	0.395470
C1271	C127	0.187790	0.275740	0.319170
C1281	C128	0.202840	0.244750	0.303970
C1291	C129	0.203130	0.217870	0.370870
H711	H71	0.192430	0.218470	0.425970
C1301	C130	0.219030	0.190870	0.354970
H721	H72	0.221030	0.174770	0.400570
C1311	C131	0.232300	0.187280	0.273170
C1321	C132	0.229330	0.211370	0.207470
H731	H73	0.237530	0.208570	0.151270
C1331	C133	0.214830	0.239570	0.221670
H741	H74	0.213030	0.255370	0.175270
C1341	C134	0.252390	0.159920	0.253970
C1351	C135	0.290980	0.178520	0.213270
H751	H75	0.304630	0.207870	0.201170
O311	O31	0.776470	0.145800	0.585300
O321	O32	0.768810	0.153710	0.728800
C1361	C136	0.754610	0.145540	0.652500
C1371	C137	0.708570	0.130490	0.637300
C1381	C138	0.681400	0.130200	0.704200
H761	H76	0.692700	0.140900	0.759300
C1391	C139	0.638500	0.114300	0.688300
H771	H77	0.620400	0.112300	0.733900
C1401	C140	0.621640	0.101030	0.606500
C1411	C141	0.648700	0.104000	0.540800
H781	H78	0.637700	0.095800	0.484600
C1421	C142	0.691400	0.118500	0.555000
H791	H79	0.709000	0.120300	0.508600
C1431	C143	0.574190	0.080940	0.587300
C1441	C144	0.554200	0.042350	0.546600
H801	H80	0.569900	0.028700	0.534500
O331	O33	0.443140	0.479130	0.918630
O341	O34	0.435480	0.487040	0.062130
C1451	C145	0.421280	0.478870	0.985830
C1461	C146	0.375240	0.463820	0.970630
C1471	C147	0.348070	0.463530	0.037530
H811	H81	0.359370	0.474230	0.092630
C1481	C148	0.305170	0.447630	0.021630
H821	H82	0.287070	0.445630	0.067230
C1491	C149	0.288310	0.434360	0.939830
C1501	C150	0.315370	0.437330	0.874130
H831	H83	0.304370	0.429130	0.817930
C1511	C151	0.358070	0.451830	0.888330
H841	H84	0.375670	0.453630	0.841930
C1521	C152	0.240860	0.414270	0.920630
C1531	C153	0.220870	0.375680	0.879930
H851	H85	0.236570	0.362030	0.867830
O351	O35	0.109800	0.812470	0.251970
O361	O36	0.102140	0.820380	0.395470
C1541	C154	0.087940	0.812210	0.319170
C1551	C155	0.041900	0.797160	0.303970
C1561	C156	0.014730	0.796870	0.370870
H861	H86	0.026030	0.807570	0.425970
C1571	C157	0.971830	0.780970	0.354970
H871	H87	0.953730	0.778970	0.400570
C1581	C158	0.954970	0.767700	0.273170
C1591	C159	0.982030	0.770670	0.207470
H881	H88	0.971030	0.762470	0.151270
C1601	C160	0.024730	0.785170	0.221670
H891	H89	0.042330	0.786970	0.175270
C1611	C161	0.907520	0.747610	0.253970
C1621	C162	0.887530	0.709020	0.213270
H901	H90	0.903230	0.695370	0.201170
O371	O37	0.776470	0.630670	0.585300
O381	O38	0.768810	0.615100	0.728800
C1631	C163	0.754610	0.609070	0.652500
C1641	C164	0.708570	0.578080	0.637300
C1651	C165	0.681400	0.551200	0.704200
H911	H91	0.692700	0.551800	0.759300
C1661	C166	0.638500	0.524200	0.688300
H921	H92	0.620400	0.508100	0.733900
C1671	C167	0.621640	0.520610	0.606500
C1681	C168	0.648700	0.544700	0.540800
H931	H93	0.637700	0.541900	0.484600
C1691	C169	0.691400	0.572900	0.555000
H941	H94	0.709000	0.588700	0.508600
C1701	C170	0.574190	0.493250	0.587300
C1711	C171	0.554200	0.511850	0.546600
H951	H95	0.569900	0.541200	0.534500
O391	O39	0.443140	0.964000	0.918630
O401	O40	0.435480	0.948430	0.062130
C1721	C172	0.421280	0.942400	0.985830
C1731	C173	0.375240	0.911410	0.970630
C1741	C174	0.348070	0.884530	0.037530
H961	H96	0.359370	0.885130	0.092630
C1751	C175	0.305170	0.857530	0.021630
H971	H97	0.287070	0.841430	0.067230
C1761	C176	0.288310	0.853940	0.939830
C1771	C177	0.315370	0.878030	0.874130
H981	H98	0.304370	0.875230	0.817930
C1781	C178	0.358070	0.906230	0.888330
H991	H99	0.375670	0.922030	0.841930
C1791	C179	0.240860	0.826580	0.920630
C1801	C180	0.220870	0.845180	0.879930
H1001	H100	0.236570	0.874530	0.867830
O411	O41	0.109800	0.297340	0.251970
O421	O42	0.102140	0.281770	0.395470
C1811	C181	0.087940	0.275740	0.319170
C1821	C182	0.041900	0.244750	0.303970
C1831	C183	0.014730	0.217870	0.370870
H1011	H101	0.026030	0.218470	0.425970
C1841	C184	0.971830	0.190870	0.354970
H1021	H102	0.953730	0.174770	0.400570
C1851	C185	0.954970	0.187280	0.273170
C1861	C186	0.982030	0.211370	0.207470
H1031	H103	0.971030	0.208570	0.151270
C1871	C187	0.024730	0.239570	0.221670
H1041	H104	0.042330	0.255370	0.175270
C1881	C188	0.907520	0.159920	0.253970
C1891	C189	0.887530	0.178520	0.213270
H1051	H105	0.903230	0.207870	0.201170
O431	O43	0.369330	0.145800	0.585300
O441	O44	0.384900	0.153710	0.728800
C1901	C190	0.390930	0.145540	0.652500
C1911	C191	0.421920	0.130490	0.637300
C1921	C192	0.448800	0.130200	0.704200
H1061	H106	0.448200	0.140900	0.759300
C1931	C193	0.475800	0.114300	0.688300
H1071	H107	0.491900	0.112300	0.733900
C1941	C194	0.479390	0.101030	0.606500
C1951	C195	0.455300	0.104000	0.540800
H1081	H108	0.458100	0.095800	0.484600
C1961	C196	0.427100	0.118500	0.555000
H1091	H109	0.411300	0.120300	0.508600
C1971	C197	0.506750	0.080940	0.587300
C1981	C198	0.488150	0.042350	0.546600
H1101	H110	0.458800	0.028700	0.534500
O451	O45	0.036000	0.479130	0.918630
O461	O46	0.051570	0.487040	0.062130
C1991	C199	0.057600	0.478870	0.985830
C2001	C200	0.088590	0.463820	0.970630
C2011	C201	0.115470	0.463530	0.037530
H1111	H111	0.114870	0.474230	0.092630
C2021	C202	0.142470	0.447630	0.021630
H1121	H112	0.158570	0.445630	0.067230
C2031	C203	0.146060	0.434360	0.939830
C2041	C204	0.121970	0.437330	0.874130
H1131	H113	0.124770	0.429130	0.817930
C2051	C205	0.093770	0.451830	0.888330
H1141	H114	0.077970	0.453630	0.841930
C2061	C206	0.173420	0.414270	0.920630
C2071	C207	0.154820	0.375680	0.879930
H1151	H115	0.125470	0.362030	0.867830
O471	O47	0.702660	0.812470	0.251970
O481	O48	0.718230	0.820380	0.395470
C2081	C208	0.724260	0.812210	0.319170
C2091	C209	0.755250	0.797160	0.303970
C2101	C210	0.782130	0.796870	0.370870
H1161	H116	0.781530	0.807570	0.425970
C2111	C211	0.809130	0.780970	0.354970
H1171	H117	0.825230	0.778970	0.400570
C2121	C212	0.812720	0.767700	0.273170
C2131	C213	0.788630	0.770670	0.207470
H1181	H118	0.791430	0.762470	0.151270
C2141	C214	0.760430	0.785170	0.221670
H1191	H119	0.744630	0.786970	0.175270
C2151	C215	0.840080	0.747610	0.253970
C2161	C216	0.821480	0.709020	0.213270
H1201	H120	0.792130	0.695370	0.201170
O491	O49	0.854200	0.223530	0.585300
O501	O50	0.846290	0.231190	0.728800
C2171	C217	0.854460	0.245390	0.652500
C2181	C218	0.869510	0.291430	0.637300
C2191	C219	0.869800	0.318600	0.704200
H1211	H121	0.859100	0.307300	0.759300
C2201	C220	0.885700	0.361500	0.688300
H1221	H122	0.887700	0.379600	0.733900
C2211	C221	0.898970	0.378360	0.606500
C2221	C222	0.896000	0.351300	0.540800
H1231	H123	0.904200	0.362300	0.484600
C2231	C223	0.881500	0.308600	0.555000
H1241	H124	0.879700	0.291000	0.508600
C2241	C224	0.919060	0.425810	0.587300
C2251	C225	0.957650	0.445800	0.546600
H1251	H125	0.971300	0.430100	0.534500
O511	O51	0.520870	0.556860	0.918630
O521	O52	0.512960	0.564520	0.062130
C2261	C226	0.521130	0.578720	0.985830
C2271	C227	0.536180	0.624760	0.970630
C2281	C228	0.536470	0.651930	0.037530
H1261	H126	0.525770	0.640630	0.092630
C2291	C229	0.552370	0.694830	0.021630
H1271	H127	0.554370	0.712930	0.067230
C2301	C230	0.565640	0.711690	0.939830
C2311	C231	0.562670	0.684630	0.874130
H1281	H128	0.570870	0.695630	0.817930
C2321	C232	0.548170	0.641930	0.888330
H1291	H129	0.546370	0.624330	0.841930
C2331	C233	0.585730	0.759140	0.920630
C2341	C234	0.624320	0.779130	0.879930
H1301	H130	0.637970	0.763430	0.867830
O531	O53	0.187530	0.890200	0.251970
O541	O54	0.179620	0.897860	0.395470
C2351	C235	0.187790	0.912060	0.319170
C2361	C236	0.202840	0.958100	0.303970
C2371	C237	0.203130	0.985270	0.370870
H1311	H131	0.192430	0.973970	0.425970
C2381	C238	0.219030	0.028170	0.354970
H1321	H132	0.221030	0.046270	0.400570
C2391	C239	0.232300	0.045030	0.273170
C2401	C240	0.229330	0.017970	0.207470
H1331	H133	0.237530	0.028970	0.151270
C2411	C241	0.214830	0.975270	0.221670
H1341	H134	0.213030	0.957670	0.175270
C2421	C242	0.252390	0.092480	0.253970
C2431	C243	0.290980	0.112470	0.213270
H1351	H135	0.304630	0.096770	0.201170
O551	O55	0.630670	0.776470	0.414700
O561	O56	0.615100	0.768810	0.271200
C2441	C244	0.609070	0.754610	0.347500
C2451	C245	0.578080	0.708570	0.362700
C2461	C246	0.551200	0.681400	0.295800
H1361	H136	0.551800	0.692700	0.240700
C2471	C247	0.524200	0.638500	0.311700
H1371	H137	0.508100	0.620400	0.266100
C2481	C248	0.520610	0.621640	0.393500
C2491	C249	0.544700	0.648700	0.459200
H1381	H138	0.541900	0.637700	0.515400
C2501	C250	0.572900	0.691400	0.445000
H1391	H139	0.588700	0.709000	0.491400
C2511	C251	0.493250	0.574190	0.412700
C2521	C252	0.511850	0.554200	0.453400
H1401	H140	0.541200	0.569900	0.465500
O571	O57	0.297340	0.109800	0.748030
O581	O58	0.281770	0.102140	0.604530
C2531	C253	0.275740	0.087940	0.680830
C2541	C254	0.244750	0.041900	0.696030
C2551	C255	0.217870	0.014730	0.629130
H1411	H141	0.218470	0.026030	0.574030
C2561	C256	0.190870	0.971830	0.645030
H1421	H142	0.174770	0.953730	0.599430
C2571	C257	0.187280	0.954970	0.726830
C2581	C258	0.211370	0.982030	0.792530
H1431	H143	0.208570	0.971030	0.848730
C2591	C259	0.239570	0.024730	0.778330
H1441	H144	0.255370	0.042330	0.824730
C2601	C260	0.159920	0.907520	0.746030
C2611	C261	0.178520	0.887530	0.786730
H1451	H145	0.207870	0.903230	0.798830
O591	O59	0.964000	0.443140	0.081370
O601	O60	0.948430	0.435480	0.937870
C2621	C262	0.942400	0.421280	0.014170
C2631	C263	0.911410	0.375240	0.029370
C2641	C264	0.884530	0.348070	0.962470
H1461	H146	0.885130	0.359370	0.907370
C2651	C265	0.857530	0.305170	0.978370
H1471	H147	0.841430	0.287070	0.932770
C2661	C266	0.853940	0.288310	0.060170
C2671	C267	0.878030	0.315370	0.125870
H1481	H148	0.875230	0.304370	0.182070
C2681	C268	0.906230	0.358070	0.111670
H1491	H149	0.922030	0.375670	0.158070
C2691	C269	0.826580	0.240860	0.079370
C2701	C270	0.845180	0.220870	0.120070
H1501	H150	0.874530	0.236570	0.132170
O611	O61	0.145800	0.369330	0.414700
O621	O62	0.153710	0.384900	0.271200
C2711	C271	0.145540	0.390930	0.347500
C2721	C272	0.130490	0.421920	0.362700
C2731	C273	0.130200	0.448800	0.295800
H1511	H151	0.140900	0.448200	0.240700
C2741	C274	0.114300	0.475800	0.311700
H1521	H152	0.112300	0.491900	0.266100
C2751	C275	0.101030	0.479390	0.393500
C2761	C276	0.104000	0.455300	0.459200
H1531	H153	0.095800	0.458100	0.515400
C2771	C277	0.118500	0.427100	0.445000
H1541	H154	0.120300	0.411300	0.491400
C2781	C278	0.080940	0.506750	0.412700
C2791	C279	0.042350	0.488150	0.453400
H1551	H155	0.028700	0.458800	0.465500
O631	O63	0.812470	0.702660	0.748030
O641	O64	0.820380	0.718230	0.604530
C2801	C280	0.812210	0.724260	0.680830
C2811	C281	0.797160	0.755250	0.696030
C2821	C282	0.796870	0.782130	0.629130
H1561	H156	0.807570	0.781530	0.574030
C2831	C283	0.780970	0.809130	0.645030
H1571	H157	0.778970	0.825230	0.599430
C2841	C284	0.767700	0.812720	0.726830
C2851	C285	0.770670	0.788630	0.792530
H1581	H158	0.762470	0.791430	0.848730
C2861	C286	0.785170	0.760430	0.778330
H1591	H159	0.786970	0.744630	0.824730
C2871	C287	0.747610	0.840080	0.746030
C2881	C288	0.709020	0.821480	0.786730
H1601	H160	0.695370	0.792130	0.798830
O651	O65	0.479130	0.036000	0.081370
O661	O66	0.487040	0.051570	0.937870
C2891	C289	0.478870	0.057600	0.014170
C2901	C290	0.463820	0.088590	0.029370
C2911	C291	0.463530	0.115470	0.962470
H1611	H161	0.474230	0.114870	0.907370
C2921	C292	0.447630	0.142470	0.978370
H1621	H162	0.445630	0.158570	0.932770
C2931	C293	0.434360	0.146060	0.060170
C2941	C294	0.437330	0.121970	0.125870
H1631	H163	0.429130	0.124770	0.182070
C2951	C295	0.451830	0.093770	0.111670
H1641	H164	0.453630	0.077970	0.158070
C2961	C296	0.414270	0.173420	0.079370
C2971	C297	0.375680	0.154820	0.120070
H1651	H165	0.362030	0.125470	0.132170
O671	O67	0.223530	0.854200	0.414700
O681	O68	0.231190	0.846290	0.271200
C2981	C298	0.245390	0.854460	0.347500
C2991	C299	0.291430	0.869510	0.362700
C3001	C300	0.318600	0.869800	0.295800
H1661	H166	0.307300	0.859100	0.240700
C3011	C301	0.361500	0.885700	0.311700
H1671	H167	0.379600	0.887700	0.266100
C3021	C302	0.378360	0.898970	0.393500
C3031	C303	0.351300	0.896000	0.459200
H1681	H168	0.362300	0.904200	0.515400
C3041	C304	0.308600	0.881500	0.445000
H1691	H169	0.291000	0.879700	0.491400
C3051	C305	0.425810	0.919060	0.412700
C3061	C306	0.445800	0.957650	0.453400
H1701	H170	0.430100	0.971300	0.465500
O691	O69	0.890200	0.187530	0.748030
O701	O70	0.897860	0.179620	0.604530
C3071	C307	0.912060	0.187790	0.680830
C3081	C308	0.958100	0.202840	0.696030
C3091	C309	0.985270	0.203130	0.629130
H1711	H171	0.973970	0.192430	0.574030
C3101	C310	0.028170	0.219030	0.645030
H1721	H172	0.046270	0.221030	0.599430
C3111	C311	0.045030	0.232300	0.726830
C3121	C312	0.017970	0.229330	0.792530
H1731	H173	0.028970	0.237530	0.848730
C3131	C313	0.975270	0.214830	0.778330
H1741	H174	0.957670	0.213030	0.824730
C3141	C314	0.092480	0.252390	0.746030
C3151	C315	0.112470	0.290980	0.786730
H1751	H175	0.096770	0.304630	0.798830
O711	O71	0.556860	0.520870	0.081370
O721	O72	0.564520	0.512960	0.937870
C3161	C316	0.578720	0.521130	0.014170
C3171	C317	0.624760	0.536180	0.029370
C3181	C318	0.651930	0.536470	0.962470
H1761	H176	0.640630	0.525770	0.907370
C3191	C319	0.694830	0.552370	0.978370
H1771	H177	0.712930	0.554370	0.932770
C3201	C320	0.711690	0.565640	0.060170
C3211	C321	0.684630	0.562670	0.125870
H1781	H178	0.695630	0.570870	0.182070
C3221	C322	0.641930	0.548170	0.111670
H1791	H179	0.624330	0.546370	0.158070
C3231	C323	0.759140	0.585730	0.079370
C3241	C324	0.779130	0.624320	0.120070
H1801	H180	0.763430	0.637970	0.132170
Cu11	Cu1	0.162370	0.324740	0.417750
Cu21	Cu2	0.829040	0.658070	0.751080
Cu31	Cu3	0.495700	0.991410	0.084420
Cu41	Cu4	0.675260	0.837630	0.417750
Cu51	Cu5	0.341930	0.170960	0.751080
Cu61	Cu6	0.008590	0.504300	0.084420
Cu71	Cu7	0.162370	0.837630	0.417750
Cu81	Cu8	0.829040	0.170960	0.751080
Cu91	Cu9	0.495700	0.504300	0.084420
Cu101	Cu10	0.324740	0.162370	0.582250
Cu111	Cu11	0.991410	0.495700	0.915580
Cu121	Cu12	0.658070	0.829040	0.248920
Cu131	Cu13	0.837630	0.675260	0.582250
Cu141	Cu14	0.504300	0.008590	0.915580
Cu151	Cu15	0.170960	0.341930	0.248920
Cu161	Cu16	0.837630	0.162370	0.582250
Cu171	Cu17	0.504300	0.495700	0.915580
Cu181	Cu18	0.170960	0.829040	0.248920
O731	O73	0.430050	0.569950	0.347700
C3251	C325	0.489000	0.511000	0.478000
C3261	C326	0.450160	0.549840	0.389000
C3271	C327	0.409400	0.590600	0.383900
C3281	C328	0.390800	0.609200	0.322000
C3291	C329	0.404800	0.595200	0.477400
O741	O74	0.096720	0.903280	0.681030
C3301	C330	0.155670	0.844330	0.811330
C3311	C331	0.116830	0.883170	0.722330
C3321	C332	0.076070	0.923930	0.717230
C3331	C333	0.057470	0.942530	0.655330
C3341	C334	0.071470	0.928530	0.810730
O751	O75	0.763380	0.236620	0.014370
C3351	C335	0.822330	0.177670	0.144670
C3361	C336	0.783490	0.216510	0.055670
C3371	C337	0.742730	0.257270	0.050570
C3381	C338	0.724130	0.275870	0.988670
C3391	C339	0.738130	0.261870	0.144070
O761	O76	0.430050	0.860100	0.347700
C3401	C340	0.489000	0.978000	0.478000
C3411	C341	0.450160	0.900320	0.389000
C3421	C342	0.409400	0.818800	0.383900
C3431	C343	0.390800	0.781600	0.322000
C3441	C344	0.404800	0.809600	0.477400
O771	O77	0.096720	0.193430	0.681030
C3451	C345	0.155670	0.311330	0.811330
C3461	C346	0.116830	0.233650	0.722330
C3471	C347	0.076070	0.152130	0.717230
C3481	C348	0.057470	0.114930	0.655330
C3491	C349	0.071470	0.142930	0.810730
O781	O78	0.763380	0.526770	0.014370
C3501	C350	0.822330	0.644670	0.144670
C3511	C351	0.783490	0.566990	0.055670
C3521	C352	0.742730	0.485470	0.050570
C3531	C353	0.724130	0.448270	0.988670
C3541	C354	0.738130	0.476270	0.144070
O791	O79	0.139900	0.569950	0.347700
C3551	C355	0.022000	0.511000	0.478000
C3561	C356	0.099680	0.549840	0.389000
C3571	C357	0.181200	0.590600	0.383900
C3581	C358	0.218400	0.609200	0.322000
C3591	C359	0.190400	0.595200	0.477400
O801	O80	0.806570	0.903280	0.681030
C3601	C360	0.688670	0.844330	0.811330
C3611	C361	0.766350	0.883170	0.722330
C3621	C362	0.847870	0.923930	0.717230
C3631	C363	0.885070	0.942530	0.655330
C3641	C364	0.857070	0.928530	0.810730
O811	O81	0.473230	0.236620	0.014370
C3651	C365	0.355330	0.177670	0.144670
C3661	C366	0.433010	0.216510	0.055670
C3671	C367	0.514530	0.257270	0.050570
C3681	C368	0.551730	0.275870	0.988670
C3691	C369	0.523730	0.261870	0.144070
O821	O82	0.569950	0.430050	0.652300
C3701	C370	0.511000	0.489000	0.522000
C3711	C371	0.549840	0.450160	0.611000
C3721	C372	0.590600	0.409400	0.616100
C3731	C373	0.609200	0.390800	0.678000
C3741	C374	0.595200	0.404800	0.522600
O831	O83	0.236620	0.763380	0.985630
C3751	C375	0.177670	0.822330	0.855330
C3761	C376	0.216510	0.783490	0.944330
C3771	C377	0.257270	0.742730	0.949430
C3781	C378	0.275870	0.724130	0.011330
C3791	C379	0.261870	0.738130	0.855930
O841	O84	0.903280	0.096720	0.318970
C3801	C380	0.844330	0.155670	0.188670
C3811	C381	0.883170	0.116830	0.277670
C3821	C382	0.923930	0.076070	0.282770
C3831	C383	0.942530	0.057470	0.344670
C3841	C384	0.928530	0.071470	0.189270
O851	O85	0.860100	0.430050	0.652300
C3851	C385	0.978000	0.489000	0.522000
C3861	C386	0.900320	0.450160	0.611000
C3871	C387	0.818800	0.409400	0.616100
C3881	C388	0.781600	0.390800	0.678000
C3891	C389	0.809600	0.404800	0.522600
O861	O86	0.526770	0.763380	0.985630
C3901	C390	0.644670	0.822330	0.855330
C3911	C391	0.566990	0.783490	0.944330
C3921	C392	0.485470	0.742730	0.949430
C3931	C393	0.448270	0.724130	0.011330
C3941	C394	0.476270	0.738130	0.855930
O871	O87	0.193430	0.096720	0.318970
C3951	C395	0.311330	0.155670	0.188670
C3961	C396	0.233650	0.116830	0.277670
C3971	C397	0.152130	0.076070	0.282770
C3981	C398	0.114930	0.057470	0.344670
C3991	C399	0.142930	0.071470	0.189270
O881	O88	0.569950	0.139900	0.652300
C4001	C400	0.511000	0.022000	0.522000
C4011	C401	0.549840	0.099680	0.611000
C4021	C402	0.590600	0.181200	0.616100
C4031	C403	0.609200	0.218400	0.678000
C4041	C404	0.595200	0.190400	0.522600
O891	O89	0.236620	0.473230	0.985630
C4051	C405	0.177670	0.355330	0.855330
C4061	C406	0.216510	0.433010	0.944330
C4071	C407	0.257270	0.514530	0.949430
C4081	C408	0.275870	0.551730	0.011330
C4091	C409	0.261870	0.523730	0.855930
O901	O90	0.903280	0.806570	0.318970
C4101	C410	0.844330	0.688670	0.188670
C4111	C411	0.883170	0.766350	0.277670
C4121	C412	0.923930	0.847870	0.282770
C4131	C413	0.942530	0.885070	0.344670
C4141	C414	0.928530	0.857070	0.189270
