data_UMOZUT_clean_PM
_symmetry_space_group_name_H-M	'P1'
_cell_length_a	35.291900
_cell_length_b	35.291900
_cell_length_c	20.344500
_cell_angle_alpha	90.000000
_cell_angle_beta	90.000000
_cell_angle_gamma	120.000000
_symmetry_Int_Tables_number 1

loop_
_symmetry_equiv_pos_as_xyz
'x,y,z'

loop_
_atom_site_label
_atom_site_type_symbol
_atom_site_fract_x
_atom_site_fract_y
_atom_site_fract_z
O11	O1	0.446180	0.475790	0.425270
O21	O2	0.433390	0.488650	0.528850
C11	C1	0.422080	0.476860	0.470200
C21	C2	0.375710	0.462840	0.452180
C31	C3	0.347020	0.462170	0.499870
H11	H1	0.357100	0.471500	0.543400
C41	C4	0.303730	0.447830	0.483620
H21	H2	0.284300	0.447800	0.516000
C51	C5	0.288610	0.433610	0.420430
C61	C6	0.318200	0.435720	0.371970
H31	H3	0.308700	0.427800	0.327900
C71	C7	0.361170	0.449440	0.388900
H41	H4	0.380700	0.449600	0.356700
C81	C8	0.241350	0.413930	0.403230
C91	C9	0.221340	0.375440	0.368380
H51	H5	0.238200	0.362500	0.355900
H61	H6	0.232600	0.510700	0.388400
H71	H7	0.251700	0.548700	0.492700
O31	O3	0.112850	0.809120	0.758600
O41	O4	0.100060	0.821980	0.862180
C101	C10	0.088750	0.810190	0.803530
C111	C11	0.042380	0.796170	0.785510
C121	C12	0.013690	0.795500	0.833200
H81	H8	0.023770	0.804830	0.876730
C131	C13	0.970400	0.781160	0.816950
H91	H9	0.950970	0.781130	0.849330
C141	C14	0.955280	0.766940	0.753760
C151	C15	0.984870	0.769050	0.705300
H101	H10	0.975370	0.761130	0.661230
C161	C16	0.027840	0.782770	0.722230
H111	H11	0.047370	0.782930	0.690030
C171	C17	0.908020	0.747260	0.736560
C181	C18	0.888010	0.708770	0.701710
H121	H12	0.904870	0.695830	0.689230
H131	H13	0.899270	0.844030	0.721730
H141	H14	0.918370	0.882030	0.826030
O51	O5	0.779510	0.142460	0.091940
O61	O6	0.766720	0.155320	0.195520
C191	C19	0.755410	0.143530	0.136870
C201	C20	0.709040	0.129510	0.118850
C211	C21	0.680350	0.128840	0.166540
H151	H15	0.690430	0.138170	0.210070
C221	C22	0.637060	0.114500	0.150290
H161	H16	0.617630	0.114470	0.182670
C231	C23	0.621940	0.100280	0.087100
C241	C24	0.651530	0.102390	0.038640
H171	H17	0.642030	0.094470	0.994570
C251	C25	0.694500	0.116110	0.055570
H181	H18	0.714030	0.116270	0.023370
C261	C26	0.574680	0.080600	0.069900
C271	C27	0.554670	0.042110	0.035050
H191	H19	0.571530	0.029170	0.022570
H201	H20	0.565930	0.177370	0.055070
H211	H21	0.585030	0.215370	0.159370
O71	O7	0.524210	0.970390	0.425270
O81	O8	0.511350	0.944740	0.528850
C281	C28	0.523140	0.945220	0.470200
C291	C29	0.537160	0.912870	0.452180
C301	C30	0.537830	0.884850	0.499870
H221	H22	0.528500	0.885600	0.543400
C311	C31	0.552170	0.855900	0.483620
H231	H23	0.552200	0.836500	0.516000
C321	C32	0.566390	0.855000	0.420430
C331	C33	0.564280	0.882480	0.371970
H241	H24	0.572200	0.880900	0.327900
C341	C34	0.550560	0.911730	0.388900
H251	H25	0.550400	0.931100	0.356700
C351	C35	0.586070	0.827420	0.403230
C361	C36	0.624560	0.845900	0.368380
H261	H26	0.637500	0.875700	0.355900
H271	H27	0.489300	0.721900	0.388400
H281	H28	0.451300	0.703000	0.492700
O91	O9	0.190880	0.303720	0.758600
O101	O10	0.178020	0.278070	0.862180
C371	C37	0.189810	0.278550	0.803530
C381	C38	0.203830	0.246200	0.785510
C391	C39	0.204500	0.218180	0.833200
H291	H29	0.195170	0.218930	0.876730
C401	C40	0.218840	0.189230	0.816950
H301	H30	0.218870	0.169830	0.849330
C411	C41	0.233060	0.188330	0.753760
C421	C42	0.230950	0.215810	0.705300
H311	H31	0.238870	0.214230	0.661230
C431	C43	0.217230	0.245060	0.722230
H321	H32	0.217070	0.264430	0.690030
C441	C44	0.252740	0.160750	0.736560
C451	C45	0.291230	0.179230	0.701710
H331	H33	0.304170	0.209030	0.689230
H341	H34	0.155970	0.055230	0.721730
H351	H35	0.117970	0.036330	0.826030
O111	O11	0.857540	0.637060	0.091940
O121	O12	0.844680	0.611410	0.195520
C461	C46	0.856470	0.611890	0.136870
C471	C47	0.870490	0.579540	0.118850
C481	C48	0.871160	0.551520	0.166540
H361	H36	0.861830	0.552270	0.210070
C491	C49	0.885500	0.522570	0.150290
H371	H37	0.885530	0.503170	0.182670
C501	C50	0.899720	0.521670	0.087100
C511	C51	0.897610	0.549150	0.038640
H381	H38	0.905530	0.547570	0.994570
C521	C52	0.883890	0.578400	0.055570
H391	H39	0.883730	0.597770	0.023370
C531	C53	0.919400	0.494090	0.069900
C541	C54	0.957890	0.512570	0.035050
H401	H40	0.970830	0.542370	0.022570
H411	H41	0.822630	0.388570	0.055070
H421	H42	0.784630	0.369670	0.159370
O131	O13	0.029610	0.553820	0.425270
O141	O14	0.055260	0.566610	0.528850
C551	C55	0.054780	0.577920	0.470200
C561	C56	0.087130	0.624290	0.452180
C571	C57	0.115150	0.652980	0.499870
H431	H43	0.114400	0.642900	0.543400
C581	C58	0.144100	0.696270	0.483620
H441	H44	0.163500	0.715700	0.516000
C591	C59	0.145000	0.711390	0.420430
C601	C60	0.117520	0.681800	0.371970
H451	H45	0.119100	0.691300	0.327900
C611	C61	0.088270	0.638830	0.388900
H461	H46	0.068900	0.619300	0.356700
C621	C62	0.172580	0.758650	0.403230
C631	C63	0.154100	0.778660	0.368380
H471	H47	0.124300	0.761800	0.355900
H481	H48	0.278100	0.767400	0.388400
H491	H49	0.297000	0.748300	0.492700
O151	O15	0.696280	0.887150	0.758600
O161	O16	0.721930	0.899940	0.862180
C641	C64	0.721450	0.911250	0.803530
C651	C65	0.753800	0.957620	0.785510
C661	C66	0.781820	0.986310	0.833200
H501	H50	0.781070	0.976230	0.876730
C671	C67	0.810770	0.029600	0.816950
H511	H51	0.830170	0.049030	0.849330
C681	C68	0.811670	0.044720	0.753760
C691	C69	0.784190	0.015130	0.705300
H521	H52	0.785770	0.024630	0.661230
C701	C70	0.754940	0.972160	0.722230
H531	H53	0.735570	0.952630	0.690030
C711	C71	0.839250	0.091980	0.736560
C721	C72	0.820770	0.111990	0.701710
H541	H54	0.790970	0.095130	0.689230
H551	H55	0.944770	0.100730	0.721730
H561	H56	0.963670	0.081630	0.826030
O171	O17	0.362940	0.220490	0.091940
O181	O18	0.388590	0.233280	0.195520
C731	C73	0.388110	0.244590	0.136870
C741	C74	0.420460	0.290960	0.118850
C751	C75	0.448480	0.319650	0.166540
H571	H57	0.447730	0.309570	0.210070
C761	C76	0.477430	0.362940	0.150290
H581	H58	0.496830	0.382370	0.182670
C771	C77	0.478330	0.378060	0.087100
C781	C78	0.450850	0.348470	0.038640
H591	H59	0.452430	0.357970	0.994570
C791	C79	0.421600	0.305500	0.055570
H601	H60	0.402230	0.285970	0.023370
C801	C80	0.505910	0.425320	0.069900
C811	C81	0.487430	0.445330	0.035050
H611	H61	0.457630	0.428470	0.022570
H621	H62	0.611430	0.434070	0.055070
H631	H63	0.630330	0.414970	0.159370
O191	O19	0.475790	0.446180	0.574730
O201	O20	0.488650	0.433390	0.471150
C821	C82	0.476860	0.422080	0.529800
C831	C83	0.462840	0.375710	0.547820
C841	C84	0.462170	0.347020	0.500130
H641	H64	0.471500	0.357100	0.456600
C851	C85	0.447830	0.303730	0.516380
H651	H65	0.447800	0.284300	0.484000
C861	C86	0.433610	0.288610	0.579570
C871	C87	0.435720	0.318200	0.628030
H661	H66	0.427800	0.308700	0.672100
C881	C88	0.449440	0.361170	0.611100
H671	H67	0.449600	0.380700	0.643300
C891	C89	0.413930	0.241350	0.596770
C901	C90	0.375440	0.221340	0.631620
H681	H68	0.362500	0.238200	0.644100
H691	H69	0.510700	0.232600	0.611600
H701	H70	0.548700	0.251700	0.507300
O211	O21	0.142460	0.779510	0.908060
O221	O22	0.155320	0.766720	0.804480
C911	C91	0.143530	0.755410	0.863130
C921	C92	0.129510	0.709040	0.881150
C931	C93	0.128840	0.680350	0.833460
H711	H71	0.138170	0.690430	0.789930
C941	C94	0.114500	0.637060	0.849710
H721	H72	0.114470	0.617630	0.817330
C951	C95	0.100280	0.621940	0.912900
C961	C96	0.102390	0.651530	0.961360
H731	H73	0.094470	0.642030	0.005430
C971	C97	0.116110	0.694500	0.944430
H741	H74	0.116270	0.714030	0.976630
C981	C98	0.080600	0.574680	0.930100
C991	C99	0.042110	0.554670	0.964950
H751	H75	0.029170	0.571530	0.977430
H761	H76	0.177370	0.565930	0.944930
H771	H77	0.215370	0.585030	0.840630
O231	O23	0.809120	0.112850	0.241400
O241	O24	0.821980	0.100060	0.137820
C1001	C100	0.810190	0.088750	0.196470
C1011	C101	0.796170	0.042380	0.214490
C1021	C102	0.795500	0.013690	0.166800
H781	H78	0.804830	0.023770	0.123270
C1031	C103	0.781160	0.970400	0.183050
H791	H79	0.781130	0.950970	0.150670
C1041	C104	0.766940	0.955280	0.246240
C1051	C105	0.769050	0.984870	0.294700
H801	H80	0.761130	0.975370	0.338770
C1061	C106	0.782770	0.027840	0.277770
H811	H81	0.782930	0.047370	0.309970
C1071	C107	0.747260	0.908020	0.263440
C1081	C108	0.708770	0.888010	0.298290
H821	H82	0.695830	0.904870	0.310770
H831	H83	0.844030	0.899270	0.278270
H841	H84	0.882030	0.918370	0.173970
O251	O25	0.970390	0.524210	0.574730
O261	O26	0.944740	0.511350	0.471150
C1091	C109	0.945220	0.523140	0.529800
C1101	C110	0.912870	0.537160	0.547820
C1111	C111	0.884850	0.537830	0.500130
H851	H85	0.885600	0.528500	0.456600
C1121	C112	0.855900	0.552170	0.516380
H861	H86	0.836500	0.552200	0.484000
C1131	C113	0.855000	0.566390	0.579570
C1141	C114	0.882480	0.564280	0.628030
H871	H87	0.880900	0.572200	0.672100
C1151	C115	0.911730	0.550560	0.611100
H881	H88	0.931100	0.550400	0.643300
C1161	C116	0.827420	0.586070	0.596770
C1171	C117	0.845900	0.624560	0.631620
H891	H89	0.875700	0.637500	0.644100
H901	H90	0.721900	0.489300	0.611600
H911	H91	0.703000	0.451300	0.507300
O271	O27	0.637060	0.857540	0.908060
O281	O28	0.611410	0.844680	0.804480
C1181	C118	0.611890	0.856470	0.863130
C1191	C119	0.579540	0.870490	0.881150
C1201	C120	0.551520	0.871160	0.833460
H921	H92	0.552270	0.861830	0.789930
C1211	C121	0.522570	0.885500	0.849710
H931	H93	0.503170	0.885530	0.817330
C1221	C122	0.521670	0.899720	0.912900
C1231	C123	0.549150	0.897610	0.961360
H941	H94	0.547570	0.905530	0.005430
C1241	C124	0.578400	0.883890	0.944430
H951	H95	0.597770	0.883730	0.976630
C1251	C125	0.494090	0.919400	0.930100
C1261	C126	0.512570	0.957890	0.964950
H961	H96	0.542370	0.970830	0.977430
H971	H97	0.388570	0.822630	0.944930
H981	H98	0.369670	0.784630	0.840630
O291	O29	0.303720	0.190880	0.241400
O301	O30	0.278070	0.178020	0.137820
C1271	C127	0.278550	0.189810	0.196470
C1281	C128	0.246200	0.203830	0.214490
C1291	C129	0.218180	0.204500	0.166800
H991	H99	0.218930	0.195170	0.123270
C1301	C130	0.189230	0.218840	0.183050
H1001	H100	0.169830	0.218870	0.150670
C1311	C131	0.188330	0.233060	0.246240
C1321	C132	0.215810	0.230950	0.294700
H1011	H101	0.214230	0.238870	0.338770
C1331	C133	0.245060	0.217230	0.277770
H1021	H102	0.264430	0.217070	0.309970
C1341	C134	0.160750	0.252740	0.263440
C1351	C135	0.179230	0.291230	0.298290
H1031	H103	0.209030	0.304170	0.310770
H1041	H104	0.055230	0.155970	0.278270
H1051	H105	0.036330	0.117970	0.173970
O311	O31	0.553820	0.029610	0.574730
O321	O32	0.566610	0.055260	0.471150
C1361	C136	0.577920	0.054780	0.529800
C1371	C137	0.624290	0.087130	0.547820
C1381	C138	0.652980	0.115150	0.500130
H1061	H106	0.642900	0.114400	0.456600
C1391	C139	0.696270	0.144100	0.516380
H1071	H107	0.715700	0.163500	0.484000
C1401	C140	0.711390	0.145000	0.579570
C1411	C141	0.681800	0.117520	0.628030
H1081	H108	0.691300	0.119100	0.672100
C1421	C142	0.638830	0.088270	0.611100
H1091	H109	0.619300	0.068900	0.643300
C1431	C143	0.758650	0.172580	0.596770
C1441	C144	0.778660	0.154100	0.631620
H1101	H110	0.761800	0.124300	0.644100
H1111	H111	0.767400	0.278100	0.611600
H1121	H112	0.748300	0.297000	0.507300
O331	O33	0.220490	0.362940	0.908060
O341	O34	0.233280	0.388590	0.804480
C1451	C145	0.244590	0.388110	0.863130
C1461	C146	0.290960	0.420460	0.881150
C1471	C147	0.319650	0.448480	0.833460
H1131	H113	0.309570	0.447730	0.789930
C1481	C148	0.362940	0.477430	0.849710
H1141	H114	0.382370	0.496830	0.817330
C1491	C149	0.378060	0.478330	0.912900
C1501	C150	0.348470	0.450850	0.961360
H1151	H115	0.357970	0.452430	0.005430
C1511	C151	0.305500	0.421600	0.944430
H1161	H116	0.285970	0.402230	0.976630
C1521	C152	0.425320	0.505910	0.930100
C1531	C153	0.445330	0.487430	0.964950
H1171	H117	0.428470	0.457630	0.977430
H1181	H118	0.434070	0.611430	0.944930
H1191	H119	0.414970	0.630330	0.840630
O351	O35	0.887150	0.696280	0.241400
O361	O36	0.899940	0.721930	0.137820
C1541	C154	0.911250	0.721450	0.196470
C1551	C155	0.957620	0.753800	0.214490
C1561	C156	0.986310	0.781820	0.166800
H1201	H120	0.976230	0.781070	0.123270
C1571	C157	0.029600	0.810770	0.183050
H1211	H121	0.049030	0.830170	0.150670
C1581	C158	0.044720	0.811670	0.246240
C1591	C159	0.015130	0.784190	0.294700
H1221	H122	0.024630	0.785770	0.338770
C1601	C160	0.972160	0.754940	0.277770
H1231	H123	0.952630	0.735570	0.309970
C1611	C161	0.091980	0.839250	0.263440
C1621	C162	0.111990	0.820770	0.298290
H1241	H124	0.095130	0.790970	0.310770
H1251	H125	0.100730	0.944770	0.278270
H1261	H126	0.081630	0.963670	0.173970
O371	O37	0.553820	0.524210	0.574730
O381	O38	0.566610	0.511350	0.471150
C1631	C163	0.577920	0.523140	0.529800
C1641	C164	0.624290	0.537160	0.547820
C1651	C165	0.652980	0.537830	0.500130
H1271	H127	0.642900	0.528500	0.456600
C1661	C166	0.696270	0.552170	0.516380
H1281	H128	0.715700	0.552200	0.484000
C1671	C167	0.711390	0.566390	0.579570
C1681	C168	0.681800	0.564280	0.628030
H1291	H129	0.691300	0.572200	0.672100
C1691	C169	0.638830	0.550560	0.611100
H1301	H130	0.619300	0.550400	0.643300
C1701	C170	0.758650	0.586070	0.596770
C1711	C171	0.778660	0.624560	0.631620
H1311	H131	0.761800	0.637500	0.644100
H1321	H132	0.767400	0.489300	0.611600
H1331	H133	0.748300	0.451300	0.507300
O391	O39	0.220490	0.857540	0.908060
O401	O40	0.233280	0.844680	0.804480
C1721	C172	0.244590	0.856470	0.863130
C1731	C173	0.290960	0.870490	0.881150
C1741	C174	0.319650	0.871160	0.833460
H1341	H134	0.309570	0.861830	0.789930
C1751	C175	0.362940	0.885500	0.849710
H1351	H135	0.382370	0.885530	0.817330
C1761	C176	0.378060	0.899720	0.912900
C1771	C177	0.348470	0.897610	0.961360
H1361	H136	0.357970	0.905530	0.005430
C1781	C178	0.305500	0.883890	0.944430
H1371	H137	0.285970	0.883730	0.976630
C1791	C179	0.425320	0.919400	0.930100
C1801	C180	0.445330	0.957890	0.964950
H1381	H138	0.428470	0.970830	0.977430
H1391	H139	0.434070	0.822630	0.944930
H1401	H140	0.414970	0.784630	0.840630
O411	O41	0.887150	0.190880	0.241400
O421	O42	0.899940	0.178020	0.137820
C1811	C181	0.911250	0.189810	0.196470
C1821	C182	0.957620	0.203830	0.214490
C1831	C183	0.986310	0.204500	0.166800
H1411	H141	0.976230	0.195170	0.123270
C1841	C184	0.029600	0.218840	0.183050
H1421	H142	0.049030	0.218870	0.150670
C1851	C185	0.044720	0.233060	0.246240
C1861	C186	0.015130	0.230950	0.294700
H1431	H143	0.024630	0.238870	0.338770
C1871	C187	0.972160	0.217230	0.277770
H1441	H144	0.952630	0.217070	0.309970
C1881	C188	0.091980	0.252740	0.263440
C1891	C189	0.111990	0.291230	0.298290
H1451	H145	0.095130	0.304170	0.310770
H1461	H146	0.100730	0.155970	0.278270
H1471	H147	0.081630	0.117970	0.173970
O431	O43	0.475790	0.029610	0.574730
O441	O44	0.488650	0.055260	0.471150
C1901	C190	0.476860	0.054780	0.529800
C1911	C191	0.462840	0.087130	0.547820
C1921	C192	0.462170	0.115150	0.500130
H1481	H148	0.471500	0.114400	0.456600
C1931	C193	0.447830	0.144100	0.516380
H1491	H149	0.447800	0.163500	0.484000
C1941	C194	0.433610	0.145000	0.579570
C1951	C195	0.435720	0.117520	0.628030
H1501	H150	0.427800	0.119100	0.672100
C1961	C196	0.449440	0.088270	0.611100
H1511	H151	0.449600	0.068900	0.643300
C1971	C197	0.413930	0.172580	0.596770
C1981	C198	0.375440	0.154100	0.631620
H1521	H152	0.362500	0.124300	0.644100
H1531	H153	0.510700	0.278100	0.611600
H1541	H154	0.548700	0.297000	0.507300
O451	O45	0.142460	0.362940	0.908060
O461	O46	0.155320	0.388590	0.804480
C1991	C199	0.143530	0.388110	0.863130
C2001	C200	0.129510	0.420460	0.881150
C2011	C201	0.128840	0.448480	0.833460
H1551	H155	0.138170	0.447730	0.789930
C2021	C202	0.114500	0.477430	0.849710
H1561	H156	0.114470	0.496830	0.817330
C2031	C203	0.100280	0.478330	0.912900
C2041	C204	0.102390	0.450850	0.961360
H1571	H157	0.094470	0.452430	0.005430
C2051	C205	0.116110	0.421600	0.944430
H1581	H158	0.116270	0.402230	0.976630
C2061	C206	0.080600	0.505910	0.930100
C2071	C207	0.042110	0.487430	0.964950
H1591	H159	0.029170	0.457630	0.977430
H1601	H160	0.177370	0.611430	0.944930
H1611	H161	0.215370	0.630330	0.840630
O471	O47	0.809120	0.696280	0.241400
O481	O48	0.821980	0.721930	0.137820
C2081	C208	0.810190	0.721450	0.196470
C2091	C209	0.796170	0.753800	0.214490
C2101	C210	0.795500	0.781820	0.166800
H1621	H162	0.804830	0.781070	0.123270
C2111	C211	0.781160	0.810770	0.183050
H1631	H163	0.781130	0.830170	0.150670
C2121	C212	0.766940	0.811670	0.246240
C2131	C213	0.769050	0.784190	0.294700
H1641	H164	0.761130	0.785770	0.338770
C2141	C214	0.782770	0.754940	0.277770
H1651	H165	0.782930	0.735570	0.309970
C2151	C215	0.747260	0.839250	0.263440
C2161	C216	0.708770	0.820770	0.298290
H1661	H166	0.695830	0.790970	0.310770
H1671	H167	0.844030	0.944770	0.278270
H1681	H168	0.882030	0.963670	0.173970
O491	O49	0.970390	0.446180	0.574730
O501	O50	0.944740	0.433390	0.471150
C2171	C217	0.945220	0.422080	0.529800
C2181	C218	0.912870	0.375710	0.547820
C2191	C219	0.884850	0.347020	0.500130
H1691	H169	0.885600	0.357100	0.456600
C2201	C220	0.855900	0.303730	0.516380
H1701	H170	0.836500	0.284300	0.484000
C2211	C221	0.855000	0.288610	0.579570
C2221	C222	0.882480	0.318200	0.628030
H1711	H171	0.880900	0.308700	0.672100
C2231	C223	0.911730	0.361170	0.611100
H1721	H172	0.931100	0.380700	0.643300
C2241	C224	0.827420	0.241350	0.596770
C2251	C225	0.845900	0.221340	0.631620
H1731	H173	0.875700	0.238200	0.644100
H1741	H174	0.721900	0.232600	0.611600
H1751	H175	0.703000	0.251700	0.507300
O511	O51	0.637060	0.779510	0.908060
O521	O52	0.611410	0.766720	0.804480
C2261	C226	0.611890	0.755410	0.863130
C2271	C227	0.579540	0.709040	0.881150
C2281	C228	0.551520	0.680350	0.833460
H1761	H176	0.552270	0.690430	0.789930
C2291	C229	0.522570	0.637060	0.849710
H1771	H177	0.503170	0.617630	0.817330
C2301	C230	0.521670	0.621940	0.912900
C2311	C231	0.549150	0.651530	0.961360
H1781	H178	0.547570	0.642030	0.005430
C2321	C232	0.578400	0.694500	0.944430
H1791	H179	0.597770	0.714030	0.976630
C2331	C233	0.494090	0.574680	0.930100
C2341	C234	0.512570	0.554670	0.964950
H1801	H180	0.542370	0.571530	0.977430
H1811	H181	0.388570	0.565930	0.944930
H1821	H182	0.369670	0.585030	0.840630
O531	O53	0.303720	0.112850	0.241400
O541	O54	0.278070	0.100060	0.137820
C2351	C235	0.278550	0.088750	0.196470
C2361	C236	0.246200	0.042380	0.214490
C2371	C237	0.218180	0.013690	0.166800
H1831	H183	0.218930	0.023770	0.123270
C2381	C238	0.189230	0.970400	0.183050
H1841	H184	0.169830	0.950970	0.150670
C2391	C239	0.188330	0.955280	0.246240
C2401	C240	0.215810	0.984870	0.294700
H1851	H185	0.214230	0.975370	0.338770
C2411	C241	0.245060	0.027840	0.277770
H1861	H186	0.264430	0.047370	0.309970
C2421	C242	0.160750	0.908020	0.263440
C2431	C243	0.179230	0.888010	0.298290
H1871	H187	0.209030	0.904870	0.310770
H1881	H188	0.055230	0.899270	0.278270
H1891	H189	0.036330	0.918370	0.173970
O551	O55	0.524210	0.553820	0.425270
O561	O56	0.511350	0.566610	0.528850
C2441	C244	0.523140	0.577920	0.470200
C2451	C245	0.537160	0.624290	0.452180
C2461	C246	0.537830	0.652980	0.499870
H1901	H190	0.528500	0.642900	0.543400
C2471	C247	0.552170	0.696270	0.483620
H1911	H191	0.552200	0.715700	0.516000
C2481	C248	0.566390	0.711390	0.420430
C2491	C249	0.564280	0.681800	0.371970
H1921	H192	0.572200	0.691300	0.327900
C2501	C250	0.550560	0.638830	0.388900
H1931	H193	0.550400	0.619300	0.356700
C2511	C251	0.586070	0.758650	0.403230
C2521	C252	0.624560	0.778660	0.368380
H1941	H194	0.637500	0.761800	0.355900
H1951	H195	0.489300	0.767400	0.388400
H1961	H196	0.451300	0.748300	0.492700
O571	O57	0.190880	0.887150	0.758600
O581	O58	0.178020	0.899940	0.862180
C2531	C253	0.189810	0.911250	0.803530
C2541	C254	0.203830	0.957620	0.785510
C2551	C255	0.204500	0.986310	0.833200
H1971	H197	0.195170	0.976230	0.876730
C2561	C256	0.218840	0.029600	0.816950
H1981	H198	0.218870	0.049030	0.849330
C2571	C257	0.233060	0.044720	0.753760
C2581	C258	0.230950	0.015130	0.705300
H1991	H199	0.238870	0.024630	0.661230
C2591	C259	0.217230	0.972160	0.722230
H2001	H200	0.217070	0.952630	0.690030
C2601	C260	0.252740	0.091980	0.736560
C2611	C261	0.291230	0.111990	0.701710
H2011	H201	0.304170	0.095130	0.689230
H2021	H202	0.155970	0.100730	0.721730
H2031	H203	0.117970	0.081630	0.826030
O591	O59	0.857540	0.220490	0.091940
O601	O60	0.844680	0.233280	0.195520
C2621	C262	0.856470	0.244590	0.136870
C2631	C263	0.870490	0.290960	0.118850
C2641	C264	0.871160	0.319650	0.166540
H2041	H204	0.861830	0.309570	0.210070
C2651	C265	0.885500	0.362940	0.150290
H2051	H205	0.885530	0.382370	0.182670
C2661	C266	0.899720	0.378060	0.087100
C2671	C267	0.897610	0.348470	0.038640
H2061	H206	0.905530	0.357970	0.994570
C2681	C268	0.883890	0.305500	0.055570
H2071	H207	0.883730	0.285970	0.023370
C2691	C269	0.919400	0.425320	0.069900
C2701	C270	0.957890	0.445330	0.035050
H2081	H208	0.970830	0.428470	0.022570
H2091	H209	0.822630	0.434070	0.055070
H2101	H210	0.784630	0.414970	0.159370
O611	O61	0.029610	0.475790	0.425270
O621	O62	0.055260	0.488650	0.528850
C2711	C271	0.054780	0.476860	0.470200
C2721	C272	0.087130	0.462840	0.452180
C2731	C273	0.115150	0.462170	0.499870
H2111	H211	0.114400	0.471500	0.543400
C2741	C274	0.144100	0.447830	0.483620
H2121	H212	0.163500	0.447800	0.516000
C2751	C275	0.145000	0.433610	0.420430
C2761	C276	0.117520	0.435720	0.371970
H2131	H213	0.119100	0.427800	0.327900
C2771	C277	0.088270	0.449440	0.388900
H2141	H214	0.068900	0.449600	0.356700
C2781	C278	0.172580	0.413930	0.403230
C2791	C279	0.154100	0.375440	0.368380
H2151	H215	0.124300	0.362500	0.355900
H2161	H216	0.278100	0.510700	0.388400
H2171	H217	0.297000	0.548700	0.492700
O631	O63	0.696280	0.809120	0.758600
O641	O64	0.721930	0.821980	0.862180
C2801	C280	0.721450	0.810190	0.803530
C2811	C281	0.753800	0.796170	0.785510
C2821	C282	0.781820	0.795500	0.833200
H2181	H218	0.781070	0.804830	0.876730
C2831	C283	0.810770	0.781160	0.816950
H2191	H219	0.830170	0.781130	0.849330
C2841	C284	0.811670	0.766940	0.753760
C2851	C285	0.784190	0.769050	0.705300
H2201	H220	0.785770	0.761130	0.661230
C2861	C286	0.754940	0.782770	0.722230
H2211	H221	0.735570	0.782930	0.690030
C2871	C287	0.839250	0.747260	0.736560
C2881	C288	0.820770	0.708770	0.701710
H2221	H222	0.790970	0.695830	0.689230
H2231	H223	0.944770	0.844030	0.721730
H2241	H224	0.963670	0.882030	0.826030
O651	O65	0.362940	0.142460	0.091940
O661	O66	0.388590	0.155320	0.195520
C2891	C289	0.388110	0.143530	0.136870
C2901	C290	0.420460	0.129510	0.118850
C2911	C291	0.448480	0.128840	0.166540
H2251	H225	0.447730	0.138170	0.210070
C2921	C292	0.477430	0.114500	0.150290
H2261	H226	0.496830	0.114470	0.182670
C2931	C293	0.478330	0.100280	0.087100
C2941	C294	0.450850	0.102390	0.038640
H2271	H227	0.452430	0.094470	0.994570
C2951	C295	0.421600	0.116110	0.055570
H2281	H228	0.402230	0.116270	0.023370
C2961	C296	0.505910	0.080600	0.069900
C2971	C297	0.487430	0.042110	0.035050
H2291	H229	0.457630	0.029170	0.022570
H2301	H230	0.611430	0.177370	0.055070
H2311	H231	0.630330	0.215370	0.159370
O671	O67	0.446180	0.970390	0.425270
O681	O68	0.433390	0.944740	0.528850
C2981	C298	0.422080	0.945220	0.470200
C2991	C299	0.375710	0.912870	0.452180
C3001	C300	0.347020	0.884850	0.499870
H2321	H232	0.357100	0.885600	0.543400
C3011	C301	0.303730	0.855900	0.483620
H2331	H233	0.284300	0.836500	0.516000
C3021	C302	0.288610	0.855000	0.420430
C3031	C303	0.318200	0.882480	0.371970
H2341	H234	0.308700	0.880900	0.327900
C3041	C304	0.361170	0.911730	0.388900
H2351	H235	0.380700	0.931100	0.356700
C3051	C305	0.241350	0.827420	0.403230
C3061	C306	0.221340	0.845900	0.368380
H2361	H236	0.238200	0.875700	0.355900
H2371	H237	0.232600	0.721900	0.388400
H2381	H238	0.251700	0.703000	0.492700
O691	O69	0.112850	0.303720	0.758600
O701	O70	0.100060	0.278070	0.862180
C3071	C307	0.088750	0.278550	0.803530
C3081	C308	0.042380	0.246200	0.785510
C3091	C309	0.013690	0.218180	0.833200
H2391	H239	0.023770	0.218930	0.876730
C3101	C310	0.970400	0.189230	0.816950
H2401	H240	0.950970	0.169830	0.849330
C3111	C311	0.955280	0.188330	0.753760
C3121	C312	0.984870	0.215810	0.705300
H2411	H241	0.975370	0.214230	0.661230
C3131	C313	0.027840	0.245060	0.722230
H2421	H242	0.047370	0.264430	0.690030
C3141	C314	0.908020	0.160750	0.736560
C3151	C315	0.888010	0.179230	0.701710
H2431	H243	0.904870	0.209030	0.689230
H2441	H244	0.899270	0.055230	0.721730
H2451	H245	0.918370	0.036330	0.826030
O711	O71	0.779510	0.637060	0.091940
O721	O72	0.766720	0.611410	0.195520
C3161	C316	0.755410	0.611890	0.136870
C3171	C317	0.709040	0.579540	0.118850
C3181	C318	0.680350	0.551520	0.166540
H2461	H246	0.690430	0.552270	0.210070
C3191	C319	0.637060	0.522570	0.150290
H2471	H247	0.617630	0.503170	0.182670
C3201	C320	0.621940	0.521670	0.087100
C3211	C321	0.651530	0.549150	0.038640
H2481	H248	0.642030	0.547570	0.994570
C3221	C322	0.694500	0.578400	0.055570
H2491	H249	0.714030	0.597770	0.023370
C3231	C323	0.574680	0.494090	0.069900
C3241	C324	0.554670	0.512570	0.035050
H2501	H250	0.571530	0.542370	0.022570
H2511	H251	0.565930	0.388570	0.055070
H2521	H252	0.585030	0.369670	0.159370
Cu11	Cu1	0.507450	0.492550	0.439210
Cu21	Cu2	0.174120	0.825880	0.772540
Cu31	Cu3	0.840780	0.159220	0.105880
Cu41	Cu4	0.507450	0.014900	0.439210
Cu51	Cu5	0.174120	0.348230	0.772540
Cu61	Cu6	0.840780	0.681570	0.105880
Cu71	Cu7	0.985100	0.492550	0.439210
Cu81	Cu8	0.651770	0.825880	0.772540
Cu91	Cu9	0.318430	0.159220	0.105880
Cu101	Cu10	0.492550	0.507450	0.560790
Cu111	Cu11	0.159220	0.840780	0.894120
Cu121	Cu12	0.825880	0.174120	0.227460
Cu131	Cu13	0.014900	0.507450	0.560790
Cu141	Cu14	0.681570	0.840780	0.894120
Cu151	Cu15	0.348230	0.174120	0.227460
Cu161	Cu16	0.492550	0.985100	0.560790
Cu171	Cu17	0.159220	0.318430	0.894120
Cu181	Cu18	0.825880	0.651770	0.227460
O731	O73	0.236200	0.472400	0.456130
C3251	C325	0.177260	0.354530	0.350400
C3261	C326	0.216840	0.433690	0.421540
C3271	C327	0.255040	0.510080	0.416700
C3281	C328	0.274900	0.549800	0.465000
H2531	H253	0.288600	0.577200	0.439700
O741	O74	0.902870	0.805730	0.789460
C3291	C329	0.843930	0.687860	0.683730
C3301	C330	0.883510	0.767020	0.754870
C3311	C331	0.921710	0.843410	0.750030
C3321	C332	0.941570	0.883130	0.798330
H2541	H254	0.955270	0.910530	0.773030
O751	O75	0.569530	0.139070	0.122800
C3331	C333	0.510600	0.021200	0.017070
C3341	C334	0.550180	0.100360	0.088210
C3351	C335	0.588370	0.176750	0.083370
C3361	C336	0.608230	0.216470	0.131670
H2551	H255	0.621930	0.243870	0.106370
O761	O76	0.527600	0.763800	0.456130
C3371	C337	0.645470	0.822740	0.350400
C3381	C338	0.566310	0.783160	0.421540
C3391	C339	0.489920	0.744960	0.416700
C3401	C340	0.450200	0.725100	0.465000
H2561	H256	0.422800	0.711400	0.439700
O771	O77	0.194270	0.097130	0.789460
C3411	C341	0.312140	0.156070	0.683730
C3421	C342	0.232980	0.116490	0.754870
C3431	C343	0.156590	0.078290	0.750030
C3441	C344	0.116870	0.058430	0.798330
H2571	H257	0.089470	0.044730	0.773030
O781	O78	0.860930	0.430470	0.122800
C3451	C345	0.978800	0.489400	0.017070
C3461	C346	0.899640	0.449820	0.088210
C3471	C347	0.823250	0.411630	0.083370
C3481	C348	0.783530	0.391770	0.131670
H2581	H258	0.756130	0.378070	0.106370
O791	O79	0.236200	0.763800	0.456130
C3491	C349	0.177260	0.822740	0.350400
C3501	C350	0.216840	0.783160	0.421540
C3511	C351	0.255040	0.744960	0.416700
C3521	C352	0.274900	0.725100	0.465000
H2591	H259	0.288600	0.711400	0.439700
O801	O80	0.902870	0.097130	0.789460
C3531	C353	0.843930	0.156070	0.683730
C3541	C354	0.883510	0.116490	0.754870
C3551	C355	0.921710	0.078290	0.750030
C3561	C356	0.941570	0.058430	0.798330
H2601	H260	0.955270	0.044730	0.773030
O811	O81	0.569530	0.430470	0.122800
C3571	C357	0.510600	0.489400	0.017070
C3581	C358	0.550180	0.449820	0.088210
C3591	C359	0.588370	0.411630	0.083370
C3601	C360	0.608230	0.391770	0.131670
H2611	H261	0.621930	0.378070	0.106370
O821	O82	0.472400	0.236200	0.543870
C3611	C361	0.354530	0.177260	0.649600
C3621	C362	0.433690	0.216840	0.578460
C3631	C363	0.510080	0.255040	0.583300
C3641	C364	0.549800	0.274900	0.535000
H2621	H262	0.577200	0.288600	0.560300
O831	O83	0.139070	0.569530	0.877200
C3651	C365	0.021200	0.510600	0.982930
C3661	C366	0.100360	0.550180	0.911790
C3671	C367	0.176750	0.588370	0.916630
C3681	C368	0.216470	0.608230	0.868330
H2631	H263	0.243870	0.621930	0.893630
O841	O84	0.805730	0.902870	0.210540
C3691	C369	0.687860	0.843930	0.316270
C3701	C370	0.767020	0.883510	0.245130
C3711	C371	0.843410	0.921710	0.249970
C3721	C372	0.883130	0.941570	0.201670
H2641	H264	0.910530	0.955270	0.226970
O851	O85	0.763800	0.527600	0.543870
C3731	C373	0.822740	0.645470	0.649600
C3741	C374	0.783160	0.566310	0.578460
C3751	C375	0.744960	0.489920	0.583300
C3761	C376	0.725100	0.450200	0.535000
H2651	H265	0.711400	0.422800	0.560300
O861	O86	0.430470	0.860930	0.877200
C3771	C377	0.489400	0.978800	0.982930
C3781	C378	0.449820	0.899640	0.911790
C3791	C379	0.411630	0.823250	0.916630
C3801	C380	0.391770	0.783530	0.868330
H2661	H266	0.378070	0.756130	0.893630
O871	O87	0.097130	0.194270	0.210540
C3811	C381	0.156070	0.312140	0.316270
C3821	C382	0.116490	0.232980	0.245130
C3831	C383	0.078290	0.156590	0.249970
C3841	C384	0.058430	0.116870	0.201670
H2671	H267	0.044730	0.089470	0.226970
O881	O88	0.763800	0.236200	0.543870
C3851	C385	0.822740	0.177260	0.649600
C3861	C386	0.783160	0.216840	0.578460
C3871	C387	0.744960	0.255040	0.583300
C3881	C388	0.725100	0.274900	0.535000
H2681	H268	0.711400	0.288600	0.560300
O891	O89	0.430470	0.569530	0.877200
C3891	C389	0.489400	0.510600	0.982930
C3901	C390	0.449820	0.550180	0.911790
C3911	C391	0.411630	0.588370	0.916630
C3921	C392	0.391770	0.608230	0.868330
H2691	H269	0.378070	0.621930	0.893630
O901	O90	0.097130	0.902870	0.210540
C3931	C393	0.156070	0.843930	0.316270
C3941	C394	0.116490	0.883510	0.245130
C3951	C395	0.078290	0.921710	0.249970
C3961	C396	0.058430	0.941570	0.201670
H2701	H270	0.044730	0.955270	0.226970
