data_UMUBIP_clean_PM
_symmetry_space_group_name_H-M	'P1'
_cell_length_a	35.185200
_cell_length_b	35.185200
_cell_length_c	21.651700
_cell_angle_alpha	90.000000
_cell_angle_beta	90.000000
_cell_angle_gamma	120.000000
_symmetry_Int_Tables_number 1

loop_
_symmetry_equiv_pos_as_xyz
'x,y,z'

loop_
_atom_site_label
_atom_site_type_symbol
_atom_site_fract_x
_atom_site_fract_y
_atom_site_fract_z
O11	O1	0.362450	0.220380	0.096080
O21	O2	0.388880	0.233750	0.193200
C11	C1	0.387720	0.244860	0.138540
C21	C2	0.419430	0.291560	0.120690
C31	C3	0.447040	0.321430	0.165300
H11	H1	0.446200	0.312200	0.206300
C41	C4	0.475570	0.364550	0.149140
H21	H2	0.494400	0.384200	0.179200
C51	C5	0.476800	0.379250	0.089330
C61	C6	0.449840	0.348940	0.044830
H31	H3	0.451200	0.357900	0.003600
C71	C7	0.421120	0.305820	0.061320
H41	H4	0.402500	0.286000	0.031300
C81	C8	0.504770	0.426110	0.071820
C91	C9	0.486770	0.445810	0.036750
H51	H5	0.457200	0.428900	0.024700
H61	H6	0.611500	0.434000	0.061600
H71	H7	0.625900	0.419100	0.165200
O31	O3	0.029120	0.553710	0.429410
O41	O4	0.055550	0.567080	0.526530
C101	C10	0.054390	0.578190	0.471870
C111	C11	0.086100	0.624890	0.454020
C121	C12	0.113710	0.654760	0.498630
H81	H8	0.112870	0.645530	0.539630
C131	C13	0.142240	0.697880	0.482470
H91	H9	0.161070	0.717530	0.512530
C141	C14	0.143470	0.712580	0.422660
C151	C15	0.116510	0.682270	0.378160
H101	H10	0.117870	0.691230	0.336930
C161	C16	0.087790	0.639150	0.394650
H111	H11	0.069170	0.619330	0.364630
C171	C17	0.171440	0.759440	0.405150
C181	C18	0.153440	0.779140	0.370080
H121	H12	0.123870	0.762230	0.358030
H131	H13	0.278170	0.767330	0.394930
H141	H14	0.292570	0.752430	0.498530
O51	O5	0.695780	0.887050	0.762750
O61	O6	0.722210	0.900420	0.859870
C191	C19	0.721050	0.911530	0.805210
C201	C20	0.752760	0.958230	0.787360
C211	C21	0.780370	0.988100	0.831970
H151	H15	0.779530	0.978870	0.872970
C221	C22	0.808900	0.031220	0.815810
H161	H16	0.827730	0.050870	0.845870
C231	C23	0.810130	0.045920	0.756000
C241	C24	0.783170	0.015610	0.711500
H171	H17	0.784530	0.024570	0.670270
C251	C25	0.754450	0.972490	0.727990
H181	H18	0.735830	0.952670	0.697970
C261	C26	0.838100	0.092780	0.738490
C271	C27	0.820100	0.112480	0.703420
H191	H19	0.790530	0.095570	0.691370
H201	H20	0.944830	0.100670	0.728270
H211	H21	0.959230	0.085770	0.831870
O71	O7	0.779620	0.142070	0.096080
O81	O8	0.766250	0.155130	0.193200
C281	C28	0.755140	0.142860	0.138540
C291	C29	0.708440	0.127870	0.120690
C301	C30	0.678570	0.125610	0.165300
H221	H22	0.687800	0.134000	0.206300
C311	C31	0.635450	0.111020	0.149140
H231	H23	0.615800	0.110200	0.179200
C321	C32	0.620750	0.097550	0.089330
C331	C33	0.651060	0.100900	0.044830
H241	H24	0.642100	0.093300	0.003600
C341	C34	0.694180	0.115300	0.061320
H251	H25	0.714000	0.116500	0.031300
C351	C35	0.573890	0.078660	0.071820
C361	C36	0.554190	0.040960	0.036750
H261	H26	0.571100	0.028300	0.024700
H271	H27	0.566000	0.177500	0.061600
H281	H28	0.580900	0.206800	0.165200
O91	O9	0.446290	0.475400	0.429410
O101	O10	0.432920	0.488460	0.526530
C371	C37	0.421810	0.476190	0.471870
C381	C38	0.375110	0.461200	0.454020
C391	C39	0.345240	0.458940	0.498630
H291	H29	0.354470	0.467330	0.539630
C401	C40	0.302120	0.444350	0.482470
H301	H30	0.282470	0.443530	0.512530
C411	C41	0.287420	0.430880	0.422660
C421	C42	0.317730	0.434230	0.378160
H311	H31	0.308770	0.426630	0.336930
C431	C43	0.360850	0.448630	0.394650
H321	H32	0.380670	0.449830	0.364630
C441	C44	0.240560	0.411990	0.405150
C451	C45	0.220860	0.374290	0.370080
H331	H33	0.237770	0.361630	0.358030
H341	H34	0.232670	0.510830	0.394930
H351	H35	0.247570	0.540130	0.498530
O111	O11	0.112950	0.808740	0.762750
O121	O12	0.099580	0.821800	0.859870
C461	C46	0.088470	0.809530	0.805210
C471	C47	0.041770	0.794540	0.787360
C481	C48	0.011900	0.792280	0.831970
H361	H36	0.021130	0.800670	0.872970
C491	C49	0.968780	0.777690	0.815810
H371	H37	0.949130	0.776870	0.845870
C501	C50	0.954080	0.764220	0.756000
C511	C51	0.984390	0.767570	0.711500
H381	H38	0.975430	0.759970	0.670270
C521	C52	0.027510	0.781970	0.727990
H391	H39	0.047330	0.783170	0.697970
C531	C53	0.907220	0.745330	0.738490
C541	C54	0.887520	0.707630	0.703420
H401	H40	0.904430	0.694970	0.691370
H411	H41	0.899330	0.844170	0.728270
H421	H42	0.914230	0.873470	0.831870
O131	O13	0.857930	0.637550	0.096080
O141	O14	0.844870	0.611120	0.193200
C551	C55	0.857140	0.612280	0.138540
C561	C56	0.872130	0.580570	0.120690
C571	C57	0.874390	0.552960	0.165300
H431	H43	0.866000	0.553800	0.206300
C581	C58	0.888980	0.524430	0.149140
H441	H44	0.889800	0.505600	0.179200
C591	C59	0.902450	0.523200	0.089330
C601	C60	0.899100	0.550160	0.044830
H451	H45	0.906700	0.548800	0.003600
C611	C61	0.884700	0.578880	0.061320
H461	H46	0.883500	0.597500	0.031300
C621	C62	0.921340	0.495230	0.071820
C631	C63	0.959040	0.513230	0.036750
H471	H47	0.971700	0.542800	0.024700
H481	H48	0.822500	0.388500	0.061600
H491	H49	0.793200	0.374100	0.165200
O151	O15	0.524600	0.970880	0.429410
O161	O16	0.511540	0.944450	0.526530
C641	C64	0.523810	0.945610	0.471870
C651	C65	0.538800	0.913900	0.454020
C661	C66	0.541060	0.886290	0.498630
H501	H50	0.532670	0.887130	0.539630
C671	C67	0.555650	0.857760	0.482470
H511	H51	0.556470	0.838930	0.512530
C681	C68	0.569120	0.856530	0.422660
C691	C69	0.565770	0.883490	0.378160
H521	H52	0.573370	0.882130	0.336930
C701	C70	0.551370	0.912210	0.394650
H531	H53	0.550170	0.930830	0.364630
C711	C71	0.588010	0.828560	0.405150
C721	C72	0.625710	0.846560	0.370080
H541	H54	0.638370	0.876130	0.358030
H551	H55	0.489170	0.721830	0.394930
H561	H56	0.459870	0.707430	0.498530
O171	O17	0.191260	0.304220	0.762750
O181	O18	0.178200	0.277790	0.859870
C731	C73	0.190470	0.278950	0.805210
C741	C74	0.205460	0.247240	0.787360
C751	C75	0.207720	0.219630	0.831970
H571	H57	0.199330	0.220470	0.872970
C761	C76	0.222310	0.191100	0.815810
H581	H58	0.223130	0.172270	0.845870
C771	C77	0.235780	0.189870	0.756000
C781	C78	0.232430	0.216830	0.711500
H591	H59	0.240030	0.215470	0.670270
C791	C79	0.218030	0.245550	0.727990
H601	H60	0.216830	0.264170	0.697970
C801	C80	0.254670	0.161900	0.738490
C811	C81	0.292370	0.179900	0.703420
H611	H61	0.305030	0.209470	0.691370
H621	H62	0.155830	0.055170	0.728270
H631	H63	0.126530	0.040770	0.831870
O191	O19	0.220380	0.362450	0.903920
O201	O20	0.233750	0.388880	0.806800
C821	C82	0.244860	0.387720	0.861460
C831	C83	0.291560	0.419430	0.879310
C841	C84	0.321430	0.447040	0.834700
H641	H64	0.312200	0.446200	0.793700
C851	C85	0.364550	0.475570	0.850860
H651	H65	0.384200	0.494400	0.820800
C861	C86	0.379250	0.476800	0.910670
C871	C87	0.348940	0.449840	0.955170
H661	H66	0.357900	0.451200	0.996400
C881	C88	0.305820	0.421120	0.938680
H671	H67	0.286000	0.402500	0.968700
C891	C89	0.426110	0.504770	0.928180
C901	C90	0.445810	0.486770	0.963250
H681	H68	0.428900	0.457200	0.975300
H691	H69	0.434000	0.611500	0.938400
H701	H70	0.419100	0.625900	0.834800
O211	O21	0.887050	0.695780	0.237250
O221	O22	0.900420	0.722210	0.140130
C911	C91	0.911530	0.721050	0.194790
C921	C92	0.958230	0.752760	0.212640
C931	C93	0.988100	0.780370	0.168030
H711	H71	0.978870	0.779530	0.127030
C941	C94	0.031220	0.808900	0.184190
H721	H72	0.050870	0.827730	0.154130
C951	C95	0.045920	0.810130	0.244000
C961	C96	0.015610	0.783170	0.288500
H731	H73	0.024570	0.784530	0.329730
C971	C97	0.972490	0.754450	0.272010
H741	H74	0.952670	0.735830	0.302030
C981	C98	0.092780	0.838100	0.261510
C991	C99	0.112480	0.820100	0.296580
H751	H75	0.095570	0.790530	0.308630
H761	H76	0.100670	0.944830	0.271730
H771	H77	0.085770	0.959230	0.168130
O231	O23	0.553710	0.029120	0.570590
O241	O24	0.567080	0.055550	0.473470
C1001	C100	0.578190	0.054390	0.528130
C1011	C101	0.624890	0.086100	0.545980
C1021	C102	0.654760	0.113710	0.501370
H781	H78	0.645530	0.112870	0.460370
C1031	C103	0.697880	0.142240	0.517530
H791	H79	0.717530	0.161070	0.487470
C1041	C104	0.712580	0.143470	0.577340
C1051	C105	0.682270	0.116510	0.621840
H801	H80	0.691230	0.117870	0.663070
C1061	C106	0.639150	0.087790	0.605350
H811	H81	0.619330	0.069170	0.635370
C1071	C107	0.759440	0.171440	0.594850
C1081	C108	0.779140	0.153440	0.629920
H821	H82	0.762230	0.123870	0.641970
H831	H83	0.767330	0.278170	0.605070
H841	H84	0.752430	0.292570	0.501470
O251	O25	0.142070	0.779620	0.903920
O261	O26	0.155130	0.766250	0.806800
C1091	C109	0.142860	0.755140	0.861460
C1101	C110	0.127870	0.708440	0.879310
C1111	C111	0.125610	0.678570	0.834700
H851	H85	0.134000	0.687800	0.793700
C1121	C112	0.111020	0.635450	0.850860
H861	H86	0.110200	0.615800	0.820800
C1131	C113	0.097550	0.620750	0.910670
C1141	C114	0.100900	0.651060	0.955170
H871	H87	0.093300	0.642100	0.996400
C1151	C115	0.115300	0.694180	0.938680
H881	H88	0.116500	0.714000	0.968700
C1161	C116	0.078660	0.573890	0.928180
C1171	C117	0.040960	0.554190	0.963250
H891	H89	0.028300	0.571100	0.975300
H901	H90	0.177500	0.566000	0.938400
H911	H91	0.206800	0.580900	0.834800
O271	O27	0.808740	0.112950	0.237250
O281	O28	0.821800	0.099580	0.140130
C1181	C118	0.809530	0.088470	0.194790
C1191	C119	0.794540	0.041770	0.212640
C1201	C120	0.792280	0.011900	0.168030
H921	H92	0.800670	0.021130	0.127030
C1211	C121	0.777690	0.968780	0.184190
H931	H93	0.776870	0.949130	0.154130
C1221	C122	0.764220	0.954080	0.244000
C1231	C123	0.767570	0.984390	0.288500
H941	H94	0.759970	0.975430	0.329730
C1241	C124	0.781970	0.027510	0.272010
H951	H95	0.783170	0.047330	0.302030
C1251	C125	0.745330	0.907220	0.261510
C1261	C126	0.707630	0.887520	0.296580
H961	H96	0.694970	0.904430	0.308630
H971	H97	0.844170	0.899330	0.271730
H981	H98	0.873470	0.914230	0.168130
O291	O29	0.475400	0.446290	0.570590
O301	O30	0.488460	0.432920	0.473470
C1271	C127	0.476190	0.421810	0.528130
C1281	C128	0.461200	0.375110	0.545980
C1291	C129	0.458940	0.345240	0.501370
H991	H99	0.467330	0.354470	0.460370
C1301	C130	0.444350	0.302120	0.517530
H1001	H100	0.443530	0.282470	0.487470
C1311	C131	0.430880	0.287420	0.577340
C1321	C132	0.434230	0.317730	0.621840
H1011	H101	0.426630	0.308770	0.663070
C1331	C133	0.448630	0.360850	0.605350
H1021	H102	0.449830	0.380670	0.635370
C1341	C134	0.411990	0.240560	0.594850
C1351	C135	0.374290	0.220860	0.629920
H1031	H103	0.361630	0.237770	0.641970
H1041	H104	0.510830	0.232670	0.605070
H1051	H105	0.540130	0.247570	0.501470
O311	O31	0.637550	0.857930	0.903920
O321	O32	0.611120	0.844870	0.806800
C1361	C136	0.612280	0.857140	0.861460
C1371	C137	0.580570	0.872130	0.879310
C1381	C138	0.552960	0.874390	0.834700
H1061	H106	0.553800	0.866000	0.793700
C1391	C139	0.524430	0.888980	0.850860
H1071	H107	0.505600	0.889800	0.820800
C1401	C140	0.523200	0.902450	0.910670
C1411	C141	0.550160	0.899100	0.955170
H1081	H108	0.548800	0.906700	0.996400
C1421	C142	0.578880	0.884700	0.938680
H1091	H109	0.597500	0.883500	0.968700
C1431	C143	0.495230	0.921340	0.928180
C1441	C144	0.513230	0.959040	0.963250
H1101	H110	0.542800	0.971700	0.975300
H1111	H111	0.388500	0.822500	0.938400
H1121	H112	0.374100	0.793200	0.834800
O331	O33	0.304220	0.191260	0.237250
O341	O34	0.277790	0.178200	0.140130
C1451	C145	0.278950	0.190470	0.194790
C1461	C146	0.247240	0.205460	0.212640
C1471	C147	0.219630	0.207720	0.168030
H1131	H113	0.220470	0.199330	0.127030
C1481	C148	0.191100	0.222310	0.184190
H1141	H114	0.172270	0.223130	0.154130
C1491	C149	0.189870	0.235780	0.244000
C1501	C150	0.216830	0.232430	0.288500
H1151	H115	0.215470	0.240030	0.329730
C1511	C151	0.245550	0.218030	0.272010
H1161	H116	0.264170	0.216830	0.302030
C1521	C152	0.161900	0.254670	0.261510
C1531	C153	0.179900	0.292370	0.296580
H1171	H117	0.209470	0.305030	0.308630
H1181	H118	0.055170	0.155830	0.271730
H1191	H119	0.040770	0.126530	0.168130
O351	O35	0.970880	0.524600	0.570590
O361	O36	0.944450	0.511540	0.473470
C1541	C154	0.945610	0.523810	0.528130
C1551	C155	0.913900	0.538800	0.545980
C1561	C156	0.886290	0.541060	0.501370
H1201	H120	0.887130	0.532670	0.460370
C1571	C157	0.857760	0.555650	0.517530
H1211	H121	0.838930	0.556470	0.487470
C1581	C158	0.856530	0.569120	0.577340
C1591	C159	0.883490	0.565770	0.621840
H1221	H122	0.882130	0.573370	0.663070
C1601	C160	0.912210	0.551370	0.605350
H1231	H123	0.930830	0.550170	0.635370
C1611	C161	0.828560	0.588010	0.594850
C1621	C162	0.846560	0.625710	0.629920
H1241	H124	0.876130	0.638370	0.641970
H1251	H125	0.721830	0.489170	0.605070
H1261	H126	0.707430	0.459870	0.501470
O371	O37	0.637550	0.779620	0.903920
O381	O38	0.611120	0.766250	0.806800
C1631	C163	0.612280	0.755140	0.861460
C1641	C164	0.580570	0.708440	0.879310
C1651	C165	0.552960	0.678570	0.834700
H1271	H127	0.553800	0.687800	0.793700
C1661	C166	0.524430	0.635450	0.850860
H1281	H128	0.505600	0.615800	0.820800
C1671	C167	0.523200	0.620750	0.910670
C1681	C168	0.550160	0.651060	0.955170
H1291	H129	0.548800	0.642100	0.996400
C1691	C169	0.578880	0.694180	0.938680
H1301	H130	0.597500	0.714000	0.968700
C1701	C170	0.495230	0.573890	0.928180
C1711	C171	0.513230	0.554190	0.963250
H1311	H131	0.542800	0.571100	0.975300
H1321	H132	0.388500	0.566000	0.938400
H1331	H133	0.374100	0.580900	0.834800
O391	O39	0.304220	0.112950	0.237250
O401	O40	0.277790	0.099580	0.140130
C1721	C172	0.278950	0.088470	0.194790
C1731	C173	0.247240	0.041770	0.212640
C1741	C174	0.219630	0.011900	0.168030
H1341	H134	0.220470	0.021130	0.127030
C1751	C175	0.191100	0.968780	0.184190
H1351	H135	0.172270	0.949130	0.154130
C1761	C176	0.189870	0.954080	0.244000
C1771	C177	0.216830	0.984390	0.288500
H1361	H136	0.215470	0.975430	0.329730
C1781	C178	0.245550	0.027510	0.272010
H1371	H137	0.264170	0.047330	0.302030
C1791	C179	0.161900	0.907220	0.261510
C1801	C180	0.179900	0.887520	0.296580
H1381	H138	0.209470	0.904430	0.308630
H1391	H139	0.055170	0.899330	0.271730
H1401	H140	0.040770	0.914230	0.168130
O411	O41	0.970880	0.446290	0.570590
O421	O42	0.944450	0.432920	0.473470
C1811	C181	0.945610	0.421810	0.528130
C1821	C182	0.913900	0.375110	0.545980
C1831	C183	0.886290	0.345240	0.501370
H1411	H141	0.887130	0.354470	0.460370
C1841	C184	0.857760	0.302120	0.517530
H1421	H142	0.838930	0.282470	0.487470
C1851	C185	0.856530	0.287420	0.577340
C1861	C186	0.883490	0.317730	0.621840
H1431	H143	0.882130	0.308770	0.663070
C1871	C187	0.912210	0.360850	0.605350
H1441	H144	0.930830	0.380670	0.635370
C1881	C188	0.828560	0.240560	0.594850
C1891	C189	0.846560	0.220860	0.629920
H1451	H145	0.876130	0.237770	0.641970
H1461	H146	0.721830	0.232670	0.605070
H1471	H147	0.707430	0.247570	0.501470
O431	O43	0.220380	0.857930	0.903920
O441	O44	0.233750	0.844870	0.806800
C1901	C190	0.244860	0.857140	0.861460
C1911	C191	0.291560	0.872130	0.879310
C1921	C192	0.321430	0.874390	0.834700
H1481	H148	0.312200	0.866000	0.793700
C1931	C193	0.364550	0.888980	0.850860
H1491	H149	0.384200	0.889800	0.820800
C1941	C194	0.379250	0.902450	0.910670
C1951	C195	0.348940	0.899100	0.955170
H1501	H150	0.357900	0.906700	0.996400
C1961	C196	0.305820	0.884700	0.938680
H1511	H151	0.286000	0.883500	0.968700
C1971	C197	0.426110	0.921340	0.928180
C1981	C198	0.445810	0.959040	0.963250
H1521	H152	0.428900	0.971700	0.975300
H1531	H153	0.434000	0.822500	0.938400
H1541	H154	0.419100	0.793200	0.834800
O451	O45	0.887050	0.191260	0.237250
O461	O46	0.900420	0.178200	0.140130
C1991	C199	0.911530	0.190470	0.194790
C2001	C200	0.958230	0.205460	0.212640
C2011	C201	0.988100	0.207720	0.168030
H1551	H155	0.978870	0.199330	0.127030
C2021	C202	0.031220	0.222310	0.184190
H1561	H156	0.050870	0.223130	0.154130
C2031	C203	0.045920	0.235780	0.244000
C2041	C204	0.015610	0.232430	0.288500
H1571	H157	0.024570	0.240030	0.329730
C2051	C205	0.972490	0.218030	0.272010
H1581	H158	0.952670	0.216830	0.302030
C2061	C206	0.092780	0.254670	0.261510
C2071	C207	0.112480	0.292370	0.296580
H1591	H159	0.095570	0.305030	0.308630
H1601	H160	0.100670	0.155830	0.271730
H1611	H161	0.085770	0.126530	0.168130
O471	O47	0.553710	0.524600	0.570590
O481	O48	0.567080	0.511540	0.473470
C2081	C208	0.578190	0.523810	0.528130
C2091	C209	0.624890	0.538800	0.545980
C2101	C210	0.654760	0.541060	0.501370
H1621	H162	0.645530	0.532670	0.460370
C2111	C211	0.697880	0.555650	0.517530
H1631	H163	0.717530	0.556470	0.487470
C2121	C212	0.712580	0.569120	0.577340
C2131	C213	0.682270	0.565770	0.621840
H1641	H164	0.691230	0.573370	0.663070
C2141	C214	0.639150	0.551370	0.605350
H1651	H165	0.619330	0.550170	0.635370
C2151	C215	0.759440	0.588010	0.594850
C2161	C216	0.779140	0.625710	0.629920
H1661	H166	0.762230	0.638370	0.641970
H1671	H167	0.767330	0.489170	0.605070
H1681	H168	0.752430	0.459870	0.501470
O491	O49	0.142070	0.362450	0.903920
O501	O50	0.155130	0.388880	0.806800
C2171	C217	0.142860	0.387720	0.861460
C2181	C218	0.127870	0.419430	0.879310
C2191	C219	0.125610	0.447040	0.834700
H1691	H169	0.134000	0.446200	0.793700
C2201	C220	0.111020	0.475570	0.850860
H1701	H170	0.110200	0.494400	0.820800
C2211	C221	0.097550	0.476800	0.910670
C2221	C222	0.100900	0.449840	0.955170
H1711	H171	0.093300	0.451200	0.996400
C2231	C223	0.115300	0.421120	0.938680
H1721	H172	0.116500	0.402500	0.968700
C2241	C224	0.078660	0.504770	0.928180
C2251	C225	0.040960	0.486770	0.963250
H1731	H173	0.028300	0.457200	0.975300
H1741	H174	0.177500	0.611500	0.938400
H1751	H175	0.206800	0.625900	0.834800
O511	O51	0.808740	0.695780	0.237250
O521	O52	0.821800	0.722210	0.140130
C2261	C226	0.809530	0.721050	0.194790
C2271	C227	0.794540	0.752760	0.212640
C2281	C228	0.792280	0.780370	0.168030
H1761	H176	0.800670	0.779530	0.127030
C2291	C229	0.777690	0.808900	0.184190
H1771	H177	0.776870	0.827730	0.154130
C2301	C230	0.764220	0.810130	0.244000
C2311	C231	0.767570	0.783170	0.288500
H1781	H178	0.759970	0.784530	0.329730
C2321	C232	0.781970	0.754450	0.272010
H1791	H179	0.783170	0.735830	0.302030
C2331	C233	0.745330	0.838100	0.261510
C2341	C234	0.707630	0.820100	0.296580
H1801	H180	0.694970	0.790530	0.308630
H1811	H181	0.844170	0.944830	0.271730
H1821	H182	0.873470	0.959230	0.168130
O531	O53	0.475400	0.029120	0.570590
O541	O54	0.488460	0.055550	0.473470
C2351	C235	0.476190	0.054390	0.528130
C2361	C236	0.461200	0.086100	0.545980
C2371	C237	0.458940	0.113710	0.501370
H1831	H183	0.467330	0.112870	0.460370
C2381	C238	0.444350	0.142240	0.517530
H1841	H184	0.443530	0.161070	0.487470
C2391	C239	0.430880	0.143470	0.577340
C2401	C240	0.434230	0.116510	0.621840
H1851	H185	0.426630	0.117870	0.663070
C2411	C241	0.448630	0.087790	0.605350
H1861	H186	0.449830	0.069170	0.635370
C2421	C242	0.411990	0.171440	0.594850
C2431	C243	0.374290	0.153440	0.629920
H1871	H187	0.361630	0.123870	0.641970
H1881	H188	0.510830	0.278170	0.605070
H1891	H189	0.540130	0.292570	0.501470
O551	O55	0.779620	0.637550	0.096080
O561	O56	0.766250	0.611120	0.193200
C2441	C244	0.755140	0.612280	0.138540
C2451	C245	0.708440	0.580570	0.120690
C2461	C246	0.678570	0.552960	0.165300
H1901	H190	0.687800	0.553800	0.206300
C2471	C247	0.635450	0.524430	0.149140
H1911	H191	0.615800	0.505600	0.179200
C2481	C248	0.620750	0.523200	0.089330
C2491	C249	0.651060	0.550160	0.044830
H1921	H192	0.642100	0.548800	0.003600
C2501	C250	0.694180	0.578880	0.061320
H1931	H193	0.714000	0.597500	0.031300
C2511	C251	0.573890	0.495230	0.071820
C2521	C252	0.554190	0.513230	0.036750
H1941	H194	0.571100	0.542800	0.024700
H1951	H195	0.566000	0.388500	0.061600
H1961	H196	0.580900	0.374100	0.165200
O571	O57	0.446290	0.970880	0.429410
O581	O58	0.432920	0.944450	0.526530
C2531	C253	0.421810	0.945610	0.471870
C2541	C254	0.375110	0.913900	0.454020
C2551	C255	0.345240	0.886290	0.498630
H1971	H197	0.354470	0.887130	0.539630
C2561	C256	0.302120	0.857760	0.482470
H1981	H198	0.282470	0.838930	0.512530
C2571	C257	0.287420	0.856530	0.422660
C2581	C258	0.317730	0.883490	0.378160
H1991	H199	0.308770	0.882130	0.336930
C2591	C259	0.360850	0.912210	0.394650
H2001	H200	0.380670	0.930830	0.364630
C2601	C260	0.240560	0.828560	0.405150
C2611	C261	0.220860	0.846560	0.370080
H2011	H201	0.237770	0.876130	0.358030
H2021	H202	0.232670	0.721830	0.394930
H2031	H203	0.247570	0.707430	0.498530
O591	O59	0.112950	0.304220	0.762750
O601	O60	0.099580	0.277790	0.859870
C2621	C262	0.088470	0.278950	0.805210
C2631	C263	0.041770	0.247240	0.787360
C2641	C264	0.011900	0.219630	0.831970
H2041	H204	0.021130	0.220470	0.872970
C2651	C265	0.968780	0.191100	0.815810
H2051	H205	0.949130	0.172270	0.845870
C2661	C266	0.954080	0.189870	0.756000
C2671	C267	0.984390	0.216830	0.711500
H2061	H206	0.975430	0.215470	0.670270
C2681	C268	0.027510	0.245550	0.727990
H2071	H207	0.047330	0.264170	0.697970
C2691	C269	0.907220	0.161900	0.738490
C2701	C270	0.887520	0.179900	0.703420
H2081	H208	0.904430	0.209470	0.691370
H2091	H209	0.899330	0.055170	0.728270
H2101	H210	0.914230	0.040770	0.831870
O611	O61	0.857930	0.220380	0.096080
O621	O62	0.844870	0.233750	0.193200
C2711	C271	0.857140	0.244860	0.138540
C2721	C272	0.872130	0.291560	0.120690
C2731	C273	0.874390	0.321430	0.165300
H2111	H211	0.866000	0.312200	0.206300
C2741	C274	0.888980	0.364550	0.149140
H2121	H212	0.889800	0.384200	0.179200
C2751	C275	0.902450	0.379250	0.089330
C2761	C276	0.899100	0.348940	0.044830
H2131	H213	0.906700	0.357900	0.003600
C2771	C277	0.884700	0.305820	0.061320
H2141	H214	0.883500	0.286000	0.031300
C2781	C278	0.921340	0.426110	0.071820
C2791	C279	0.959040	0.445810	0.036750
H2151	H215	0.971700	0.428900	0.024700
H2161	H216	0.822500	0.434000	0.061600
H2171	H217	0.793200	0.419100	0.165200
O631	O63	0.524600	0.553710	0.429410
O641	O64	0.511540	0.567080	0.526530
C2801	C280	0.523810	0.578190	0.471870
C2811	C281	0.538800	0.624890	0.454020
C2821	C282	0.541060	0.654760	0.498630
H2181	H218	0.532670	0.645530	0.539630
C2831	C283	0.555650	0.697880	0.482470
H2191	H219	0.556470	0.717530	0.512530
C2841	C284	0.569120	0.712580	0.422660
C2851	C285	0.565770	0.682270	0.378160
H2201	H220	0.573370	0.691230	0.336930
C2861	C286	0.551370	0.639150	0.394650
H2211	H221	0.550170	0.619330	0.364630
C2871	C287	0.588010	0.759440	0.405150
C2881	C288	0.625710	0.779140	0.370080
H2221	H222	0.638370	0.762230	0.358030
H2231	H223	0.489170	0.767330	0.394930
H2241	H224	0.459870	0.752430	0.498530
O651	O65	0.191260	0.887050	0.762750
O661	O66	0.178200	0.900420	0.859870
C2891	C289	0.190470	0.911530	0.805210
C2901	C290	0.205460	0.958230	0.787360
C2911	C291	0.207720	0.988100	0.831970
H2251	H225	0.199330	0.978870	0.872970
C2921	C292	0.222310	0.031220	0.815810
H2261	H226	0.223130	0.050870	0.845870
C2931	C293	0.235780	0.045920	0.756000
C2941	C294	0.232430	0.015610	0.711500
H2271	H227	0.240030	0.024570	0.670270
C2951	C295	0.218030	0.972490	0.727990
H2281	H228	0.216830	0.952670	0.697970
C2961	C296	0.254670	0.092780	0.738490
C2971	C297	0.292370	0.112480	0.703420
H2291	H229	0.305030	0.095570	0.691370
H2301	H230	0.155830	0.100670	0.728270
H2311	H231	0.126530	0.085770	0.831870
O671	O67	0.362450	0.142070	0.096080
O681	O68	0.388880	0.155130	0.193200
C2981	C298	0.387720	0.142860	0.138540
C2991	C299	0.419430	0.127870	0.120690
C3001	C300	0.447040	0.125610	0.165300
H2321	H232	0.446200	0.134000	0.206300
C3011	C301	0.475570	0.111020	0.149140
H2331	H233	0.494400	0.110200	0.179200
C3021	C302	0.476800	0.097550	0.089330
C3031	C303	0.449840	0.100900	0.044830
H2341	H234	0.451200	0.093300	0.003600
C3041	C304	0.421120	0.115300	0.061320
H2351	H235	0.402500	0.116500	0.031300
C3051	C305	0.504770	0.078660	0.071820
C3061	C306	0.486770	0.040960	0.036750
H2361	H236	0.457200	0.028300	0.024700
H2371	H237	0.611500	0.177500	0.061600
H2381	H238	0.625900	0.206800	0.165200
O691	O69	0.029120	0.475400	0.429410
O701	O70	0.055550	0.488460	0.526530
C3071	C307	0.054390	0.476190	0.471870
C3081	C308	0.086100	0.461200	0.454020
C3091	C309	0.113710	0.458940	0.498630
H2391	H239	0.112870	0.467330	0.539630
C3101	C310	0.142240	0.444350	0.482470
H2401	H240	0.161070	0.443530	0.512530
C3111	C311	0.143470	0.430880	0.422660
C3121	C312	0.116510	0.434230	0.378160
H2411	H241	0.117870	0.426630	0.336930
C3131	C313	0.087790	0.448630	0.394650
H2421	H242	0.069170	0.449830	0.364630
C3141	C314	0.171440	0.411990	0.405150
C3151	C315	0.153440	0.374290	0.370080
H2431	H243	0.123870	0.361630	0.358030
H2441	H244	0.278170	0.510830	0.394930
H2451	H245	0.292570	0.540130	0.498530
O711	O71	0.695780	0.808740	0.762750
O721	O72	0.722210	0.821800	0.859870
C3161	C316	0.721050	0.809530	0.805210
C3171	C317	0.752760	0.794540	0.787360
C3181	C318	0.780370	0.792280	0.831970
H2461	H246	0.779530	0.800670	0.872970
C3191	C319	0.808900	0.777690	0.815810
H2471	H247	0.827730	0.776870	0.845870
C3201	C320	0.810130	0.764220	0.756000
C3211	C321	0.783170	0.767570	0.711500
H2481	H248	0.784530	0.759970	0.670270
C3221	C322	0.754450	0.781970	0.727990
H2491	H249	0.735830	0.783170	0.697970
C3231	C323	0.838100	0.745330	0.738490
C3241	C324	0.820100	0.707630	0.703420
H2501	H250	0.790530	0.694970	0.691370
H2511	H251	0.944830	0.844170	0.728270
H2521	H252	0.959230	0.873470	0.831870
Cu11	Cu1	0.317940	0.158970	0.109580
Cu21	Cu2	0.984610	0.492300	0.442910
Cu31	Cu3	0.651270	0.825640	0.776250
Cu41	Cu4	0.841030	0.158970	0.109580
Cu51	Cu5	0.507700	0.492300	0.442910
Cu61	Cu6	0.174360	0.825640	0.776250
Cu71	Cu7	0.841030	0.682060	0.109580
Cu81	Cu8	0.507700	0.015390	0.442910
Cu91	Cu9	0.174360	0.348730	0.776250
Cu101	Cu10	0.158970	0.317940	0.890420
Cu111	Cu11	0.825640	0.651270	0.223750
Cu121	Cu12	0.492300	0.984610	0.557090
Cu131	Cu13	0.158970	0.841030	0.890420
Cu141	Cu14	0.825640	0.174360	0.223750
Cu151	Cu15	0.492300	0.507700	0.557090
Cu161	Cu16	0.682060	0.841030	0.890420
Cu171	Cu17	0.348730	0.174360	0.223750
Cu181	Cu18	0.015390	0.507700	0.557090
O731	O73	0.567710	0.432290	0.125260
C3251	C325	0.510220	0.489780	0.018240
C3261	C326	0.548800	0.451200	0.089140
C3271	C327	0.587700	0.412300	0.087500
C3281	C328	0.605250	0.394750	0.139800
H2531	H253	0.619800	0.380200	0.121700
O741	O74	0.234380	0.765620	0.458590
C3291	C329	0.176890	0.823110	0.351570
C3301	C330	0.215470	0.784530	0.422470
C3311	C331	0.254370	0.745630	0.420830
C3321	C332	0.271920	0.728080	0.473130
H2541	H254	0.286470	0.713530	0.455030
O751	O75	0.901040	0.098960	0.791930
C3331	C333	0.843550	0.156450	0.684910
C3341	C334	0.882130	0.117870	0.755810
C3351	C335	0.921030	0.078970	0.754170
C3361	C336	0.938580	0.061420	0.806470
H2551	H255	0.953130	0.046870	0.788370
O761	O76	0.567710	0.135420	0.125260
C3371	C337	0.510220	0.020440	0.018240
C3381	C338	0.548800	0.097600	0.089140
C3391	C339	0.587700	0.175400	0.087500
C3401	C340	0.605250	0.210500	0.139800
H2561	H256	0.619800	0.239600	0.121700
O771	O77	0.234380	0.468750	0.458590
C3411	C341	0.176890	0.353770	0.351570
C3421	C342	0.215470	0.430930	0.422470
C3431	C343	0.254370	0.508730	0.420830
C3441	C344	0.271920	0.543830	0.473130
H2571	H257	0.286470	0.572930	0.455030
O781	O78	0.901040	0.802090	0.791930
C3451	C345	0.843550	0.687110	0.684910
C3461	C346	0.882130	0.764270	0.755810
C3471	C347	0.921030	0.842070	0.754170
C3481	C348	0.938580	0.877170	0.806470
H2581	H258	0.953130	0.906270	0.788370
O791	O79	0.864580	0.432290	0.125260
C3491	C349	0.979560	0.489780	0.018240
C3501	C350	0.902400	0.451200	0.089140
C3511	C351	0.824600	0.412300	0.087500
C3521	C352	0.789500	0.394750	0.139800
H2591	H259	0.760400	0.380200	0.121700
O801	O80	0.531250	0.765620	0.458590
C3531	C353	0.646230	0.823110	0.351570
C3541	C354	0.569070	0.784530	0.422470
C3551	C355	0.491270	0.745630	0.420830
C3561	C356	0.456170	0.728080	0.473130
H2601	H260	0.427070	0.713530	0.455030
O811	O81	0.197910	0.098960	0.791930
C3571	C357	0.312890	0.156450	0.684910
C3581	C358	0.235730	0.117870	0.755810
C3591	C359	0.157930	0.078970	0.754170
C3601	C360	0.122830	0.061420	0.806470
H2611	H261	0.093730	0.046870	0.788370
O821	O82	0.432290	0.567710	0.874740
C3611	C361	0.489780	0.510220	0.981760
C3621	C362	0.451200	0.548800	0.910860
C3631	C363	0.412300	0.587700	0.912500
C3641	C364	0.394750	0.605250	0.860200
H2621	H262	0.380200	0.619800	0.878300
O831	O83	0.098960	0.901040	0.208070
C3651	C365	0.156450	0.843550	0.315090
C3661	C366	0.117870	0.882130	0.244190
C3671	C367	0.078970	0.921030	0.245830
C3681	C368	0.061420	0.938580	0.193530
H2631	H263	0.046870	0.953130	0.211630
O841	O84	0.765620	0.234380	0.541410
C3691	C369	0.823110	0.176890	0.648430
C3701	C370	0.784530	0.215470	0.577530
C3711	C371	0.745630	0.254370	0.579170
C3721	C372	0.728080	0.271920	0.526870
H2641	H264	0.713530	0.286470	0.544970
O851	O85	0.135420	0.567710	0.874740
C3731	C373	0.020440	0.510220	0.981760
C3741	C374	0.097600	0.548800	0.910860
C3751	C375	0.175400	0.587700	0.912500
C3761	C376	0.210500	0.605250	0.860200
H2651	H265	0.239600	0.619800	0.878300
O861	O86	0.802090	0.901040	0.208070
C3771	C377	0.687110	0.843550	0.315090
C3781	C378	0.764270	0.882130	0.244190
C3791	C379	0.842070	0.921030	0.245830
C3801	C380	0.877170	0.938580	0.193530
H2661	H266	0.906270	0.953130	0.211630
O871	O87	0.468750	0.234380	0.541410
C3811	C381	0.353770	0.176890	0.648430
C3821	C382	0.430930	0.215470	0.577530
C3831	C383	0.508730	0.254370	0.579170
C3841	C384	0.543830	0.271920	0.526870
H2671	H267	0.572930	0.286470	0.544970
O881	O88	0.432290	0.864580	0.874740
C3851	C385	0.489780	0.979560	0.981760
C3861	C386	0.451200	0.902400	0.910860
C3871	C387	0.412300	0.824600	0.912500
C3881	C388	0.394750	0.789500	0.860200
H2681	H268	0.380200	0.760400	0.878300
O891	O89	0.098960	0.197910	0.208070
C3891	C389	0.156450	0.312890	0.315090
C3901	C390	0.117870	0.235730	0.244190
C3911	C391	0.078970	0.157930	0.245830
C3921	C392	0.061420	0.122830	0.193530
H2691	H269	0.046870	0.093730	0.211630
O901	O90	0.765620	0.531250	0.541410
C3931	C393	0.823110	0.646230	0.648430
C3941	C394	0.784530	0.569070	0.577530
C3951	C395	0.745630	0.491270	0.579170
C3961	C396	0.728080	0.456170	0.526870
H2701	H270	0.713530	0.427070	0.544970
