data_UMUBAH_clean_PM
_symmetry_space_group_name_H-M	'P1'
_cell_length_a	35.287900
_cell_length_b	35.287900
_cell_length_c	20.324100
_cell_angle_alpha	90.000000
_cell_angle_beta	90.000000
_cell_angle_gamma	120.000000
_symmetry_Int_Tables_number 1

loop_
_symmetry_equiv_pos_as_xyz
'x,y,z'

loop_
_atom_site_label
_atom_site_type_symbol
_atom_site_fract_x
_atom_site_fract_y
_atom_site_fract_z
O11	O1	0.363190	0.220580	0.591970
O21	O2	0.388640	0.233260	0.695520
C11	C1	0.388080	0.244610	0.637310
C21	C2	0.420400	0.290990	0.619270
C31	C3	0.448280	0.319780	0.667150
H11	H1	0.447500	0.309800	0.710800
C41	C4	0.477090	0.363020	0.650860
H21	H2	0.496400	0.382400	0.683400
C51	C5	0.478090	0.378290	0.588120
C61	C6	0.450880	0.348740	0.539490
H31	H3	0.452400	0.358300	0.495400
C71	C7	0.421890	0.305670	0.556430
H41	H4	0.402800	0.286000	0.524000
C81	C8	0.505480	0.425680	0.571340
C91	C9	0.487330	0.445500	0.535110
H51	H5	0.457600	0.428500	0.521800
H61	H6	0.611200	0.434300	0.556800
H71	H7	0.631500	0.413800	0.662700
O31	O3	0.029860	0.553910	0.925300
O41	O4	0.055310	0.566590	0.028850
C101	C10	0.054750	0.577940	0.970640
C111	C11	0.087070	0.624320	0.952600
C121	C12	0.114950	0.653110	0.000480
H81	H8	0.114170	0.643130	0.044130
C131	C13	0.143760	0.696350	0.984190
H91	H9	0.163070	0.715730	0.016730
C141	C14	0.144760	0.711620	0.921450
C151	C15	0.117550	0.682070	0.872820
H101	H10	0.119070	0.691630	0.828730
C161	C16	0.088560	0.639000	0.889760
H111	H11	0.069470	0.619330	0.857330
C171	C17	0.172150	0.759010	0.904670
C181	C18	0.154000	0.778830	0.868440
H121	H12	0.124270	0.761830	0.855130
H131	H13	0.277870	0.767630	0.890130
H141	H14	0.298170	0.747130	0.996030
O51	O5	0.696520	0.887250	0.258640
O61	O6	0.721970	0.899930	0.362190
C191	C19	0.721410	0.911280	0.303980
C201	C20	0.753730	0.957660	0.285940
C211	C21	0.781610	0.986450	0.333820
H151	H15	0.780830	0.976470	0.377470
C221	C22	0.810420	0.029690	0.317530
H161	H16	0.829730	0.049070	0.350070
C231	C23	0.811420	0.044960	0.254790
C241	C24	0.784210	0.015410	0.206160
H171	H17	0.785730	0.024970	0.162070
C251	C25	0.755220	0.972340	0.223100
H181	H18	0.736130	0.952670	0.190670
C261	C26	0.838810	0.092350	0.238010
C271	C27	0.820660	0.112170	0.201780
H191	H19	0.790930	0.095170	0.188470
H201	H20	0.944530	0.100970	0.223470
H211	H21	0.964830	0.080470	0.329370
O71	O7	0.779420	0.142610	0.591970
O81	O8	0.766740	0.155380	0.695520
C281	C28	0.755390	0.143470	0.637310
C291	C29	0.709010	0.129410	0.619270
C301	C30	0.680220	0.128500	0.667150
H221	H22	0.690200	0.137700	0.710800
C311	C31	0.636980	0.114070	0.650860
H231	H23	0.617600	0.114000	0.683400
C321	C32	0.621710	0.099800	0.588120
C331	C33	0.651260	0.102140	0.539490
H241	H24	0.641700	0.094100	0.495400
C341	C34	0.694330	0.116220	0.556430
H251	H25	0.714000	0.116800	0.524000
C351	C35	0.574320	0.079800	0.571340
C361	C36	0.554500	0.041830	0.535110
H261	H26	0.571500	0.029100	0.521800
H271	H27	0.565700	0.176900	0.556800
H281	H28	0.586200	0.217700	0.662700
O91	O9	0.446090	0.475940	0.925300
O101	O10	0.433410	0.488710	0.028850
C371	C37	0.422060	0.476800	0.970640
C381	C38	0.375680	0.462740	0.952600
C391	C39	0.346890	0.461830	0.000480
H291	H29	0.356870	0.471030	0.044130
C401	C40	0.303650	0.447400	0.984190
H301	H30	0.284270	0.447330	0.016730
C411	C41	0.288380	0.433130	0.921450
C421	C42	0.317930	0.435470	0.872820
H311	H31	0.308370	0.427430	0.828730
C431	C43	0.361000	0.449550	0.889760
H321	H32	0.380670	0.450130	0.857330
C441	C44	0.240990	0.413130	0.904670
C451	C45	0.221170	0.375160	0.868440
H331	H33	0.238170	0.362430	0.855130
H341	H34	0.232370	0.510230	0.890130
H351	H35	0.252870	0.551030	0.996030
O111	O11	0.112750	0.809280	0.258640
O121	O12	0.100070	0.822050	0.362190
C461	C46	0.088720	0.810140	0.303980
C471	C47	0.042340	0.796080	0.285940
C481	C48	0.013550	0.795170	0.333820
H361	H36	0.023530	0.804370	0.377470
C491	C49	0.970310	0.780740	0.317530
H371	H37	0.950930	0.780670	0.350070
C501	C50	0.955040	0.766470	0.254790
C511	C51	0.984590	0.768810	0.206160
H381	H38	0.975030	0.760770	0.162070
C521	C52	0.027660	0.782890	0.223100
H391	H39	0.047330	0.783470	0.190670
C531	C53	0.907650	0.746470	0.238010
C541	C54	0.887830	0.708500	0.201780
H401	H40	0.904830	0.695770	0.188470
H411	H41	0.899030	0.843570	0.223470
H421	H42	0.919530	0.884370	0.329370
O131	O13	0.857390	0.636810	0.591970
O141	O14	0.844620	0.611360	0.695520
C551	C55	0.856530	0.611920	0.637310
C561	C56	0.870590	0.579600	0.619270
C571	C57	0.871500	0.551720	0.667150
H431	H43	0.862300	0.552500	0.710800
C581	C58	0.885930	0.522910	0.650860
H441	H44	0.886000	0.503600	0.683400
C591	C59	0.900200	0.521910	0.588120
C601	C60	0.897860	0.549120	0.539490
H451	H45	0.905900	0.547600	0.495400
C611	C61	0.883780	0.578110	0.556430
H461	H46	0.883200	0.597200	0.524000
C621	C62	0.920200	0.494520	0.571340
C631	C63	0.958170	0.512670	0.535110
H471	H47	0.970900	0.542400	0.521800
H481	H48	0.823100	0.388800	0.556800
H491	H49	0.782300	0.368500	0.662700
O151	O15	0.524060	0.970140	0.925300
O161	O16	0.511290	0.944690	0.028850
C641	C64	0.523200	0.945250	0.970640
C651	C65	0.537260	0.912930	0.952600
C661	C66	0.538170	0.885050	0.000480
H501	H50	0.528970	0.885830	0.044130
C671	C67	0.552600	0.856240	0.984190
H511	H51	0.552670	0.836930	0.016730
C681	C68	0.566870	0.855240	0.921450
C691	C69	0.564530	0.882450	0.872820
H521	H52	0.572570	0.880930	0.828730
C701	C70	0.550450	0.911440	0.889760
H531	H53	0.549870	0.930530	0.857330
C711	C71	0.586870	0.827850	0.904670
C721	C72	0.624840	0.846000	0.868440
H541	H54	0.637570	0.875730	0.855130
H551	H55	0.489770	0.722130	0.890130
H561	H56	0.448970	0.701830	0.996030
O171	O17	0.190720	0.303480	0.258640
O181	O18	0.177950	0.278030	0.362190
C731	C73	0.189860	0.278590	0.303980
C741	C74	0.203920	0.246270	0.285940
C751	C75	0.204830	0.218390	0.333820
H571	H57	0.195630	0.219170	0.377470
C761	C76	0.219260	0.189580	0.317530
H581	H58	0.219330	0.170270	0.350070
C771	C77	0.233530	0.188580	0.254790
C781	C78	0.231190	0.215790	0.206160
H591	H59	0.239230	0.214270	0.162070
C791	C79	0.217110	0.244780	0.223100
H601	H60	0.216530	0.263870	0.190670
C801	C80	0.253530	0.161190	0.238010
C811	C81	0.291500	0.179340	0.201780
H611	H61	0.304230	0.209070	0.188470
H621	H62	0.156430	0.055470	0.223470
H631	H63	0.115630	0.035170	0.329370
O191	O19	0.220580	0.363190	0.408030
O201	O20	0.233260	0.388640	0.304480
C821	C82	0.244610	0.388080	0.362690
C831	C83	0.290990	0.420400	0.380730
C841	C84	0.319780	0.448280	0.332850
H641	H64	0.309800	0.447500	0.289200
C851	C85	0.363020	0.477090	0.349140
H651	H65	0.382400	0.496400	0.316600
C861	C86	0.378290	0.478090	0.411880
C871	C87	0.348740	0.450880	0.460510
H661	H66	0.358300	0.452400	0.504600
C881	C88	0.305670	0.421890	0.443570
H671	H67	0.286000	0.402800	0.476000
C891	C89	0.425680	0.505480	0.428660
C901	C90	0.445500	0.487330	0.464890
H681	H68	0.428500	0.457600	0.478200
H691	H69	0.434300	0.611200	0.443200
H701	H70	0.413800	0.631500	0.337300
O211	O21	0.887250	0.696520	0.741360
O221	O22	0.899930	0.721970	0.637810
C911	C91	0.911280	0.721410	0.696020
C921	C92	0.957660	0.753730	0.714060
C931	C93	0.986450	0.781610	0.666180
H711	H71	0.976470	0.780830	0.622530
C941	C94	0.029690	0.810420	0.682470
H721	H72	0.049070	0.829730	0.649930
C951	C95	0.044960	0.811420	0.745210
C961	C96	0.015410	0.784210	0.793840
H731	H73	0.024970	0.785730	0.837930
C971	C97	0.972340	0.755220	0.776900
H741	H74	0.952670	0.736130	0.809330
C981	C98	0.092350	0.838810	0.761990
C991	C99	0.112170	0.820660	0.798220
H751	H75	0.095170	0.790930	0.811530
H761	H76	0.100970	0.944530	0.776530
H771	H77	0.080470	0.964830	0.670630
O231	O23	0.553910	0.029860	0.074700
O241	O24	0.566590	0.055310	0.971150
C1001	C100	0.577940	0.054750	0.029360
C1011	C101	0.624320	0.087070	0.047400
C1021	C102	0.653110	0.114950	0.999520
H781	H78	0.643130	0.114170	0.955870
C1031	C103	0.696350	0.143760	0.015810
H791	H79	0.715730	0.163070	0.983270
C1041	C104	0.711620	0.144760	0.078550
C1051	C105	0.682070	0.117550	0.127180
H801	H80	0.691630	0.119070	0.171270
C1061	C106	0.639000	0.088560	0.110240
H811	H81	0.619330	0.069470	0.142670
C1071	C107	0.759010	0.172150	0.095330
C1081	C108	0.778830	0.154000	0.131560
H821	H82	0.761830	0.124270	0.144870
H831	H83	0.767630	0.277870	0.109870
H841	H84	0.747130	0.298170	0.003970
O251	O25	0.142610	0.779420	0.408030
O261	O26	0.155380	0.766740	0.304480
C1091	C109	0.143470	0.755390	0.362690
C1101	C110	0.129410	0.709010	0.380730
C1111	C111	0.128500	0.680220	0.332850
H851	H85	0.137700	0.690200	0.289200
C1121	C112	0.114070	0.636980	0.349140
H861	H86	0.114000	0.617600	0.316600
C1131	C113	0.099800	0.621710	0.411880
C1141	C114	0.102140	0.651260	0.460510
H871	H87	0.094100	0.641700	0.504600
C1151	C115	0.116220	0.694330	0.443570
H881	H88	0.116800	0.714000	0.476000
C1161	C116	0.079800	0.574320	0.428660
C1171	C117	0.041830	0.554500	0.464890
H891	H89	0.029100	0.571500	0.478200
H901	H90	0.176900	0.565700	0.443200
H911	H91	0.217700	0.586200	0.337300
O271	O27	0.809280	0.112750	0.741360
O281	O28	0.822050	0.100070	0.637810
C1181	C118	0.810140	0.088720	0.696020
C1191	C119	0.796080	0.042340	0.714060
C1201	C120	0.795170	0.013550	0.666180
H921	H92	0.804370	0.023530	0.622530
C1211	C121	0.780740	0.970310	0.682470
H931	H93	0.780670	0.950930	0.649930
C1221	C122	0.766470	0.955040	0.745210
C1231	C123	0.768810	0.984590	0.793840
H941	H94	0.760770	0.975030	0.837930
C1241	C124	0.782890	0.027660	0.776900
H951	H95	0.783470	0.047330	0.809330
C1251	C125	0.746470	0.907650	0.761990
C1261	C126	0.708500	0.887830	0.798220
H961	H96	0.695770	0.904830	0.811530
H971	H97	0.843570	0.899030	0.776530
H981	H98	0.884370	0.919530	0.670630
O291	O29	0.475940	0.446090	0.074700
O301	O30	0.488710	0.433410	0.971150
C1271	C127	0.476800	0.422060	0.029360
C1281	C128	0.462740	0.375680	0.047400
C1291	C129	0.461830	0.346890	0.999520
H991	H99	0.471030	0.356870	0.955870
C1301	C130	0.447400	0.303650	0.015810
H1001	H100	0.447330	0.284270	0.983270
C1311	C131	0.433130	0.288380	0.078550
C1321	C132	0.435470	0.317930	0.127180
H1011	H101	0.427430	0.308370	0.171270
C1331	C133	0.449550	0.361000	0.110240
H1021	H102	0.450130	0.380670	0.142670
C1341	C134	0.413130	0.240990	0.095330
C1351	C135	0.375160	0.221170	0.131560
H1031	H103	0.362430	0.238170	0.144870
H1041	H104	0.510230	0.232370	0.109870
H1051	H105	0.551030	0.252870	0.003970
O311	O31	0.636810	0.857390	0.408030
O321	O32	0.611360	0.844620	0.304480
C1361	C136	0.611920	0.856530	0.362690
C1371	C137	0.579600	0.870590	0.380730
C1381	C138	0.551720	0.871500	0.332850
H1061	H106	0.552500	0.862300	0.289200
C1391	C139	0.522910	0.885930	0.349140
H1071	H107	0.503600	0.886000	0.316600
C1401	C140	0.521910	0.900200	0.411880
C1411	C141	0.549120	0.897860	0.460510
H1081	H108	0.547600	0.905900	0.504600
C1421	C142	0.578110	0.883780	0.443570
H1091	H109	0.597200	0.883200	0.476000
C1431	C143	0.494520	0.920200	0.428660
C1441	C144	0.512670	0.958170	0.464890
H1101	H110	0.542400	0.970900	0.478200
H1111	H111	0.388800	0.823100	0.443200
H1121	H112	0.368500	0.782300	0.337300
O331	O33	0.303480	0.190720	0.741360
O341	O34	0.278030	0.177950	0.637810
C1451	C145	0.278590	0.189860	0.696020
C1461	C146	0.246270	0.203920	0.714060
C1471	C147	0.218390	0.204830	0.666180
H1131	H113	0.219170	0.195630	0.622530
C1481	C148	0.189580	0.219260	0.682470
H1141	H114	0.170270	0.219330	0.649930
C1491	C149	0.188580	0.233530	0.745210
C1501	C150	0.215790	0.231190	0.793840
H1151	H115	0.214270	0.239230	0.837930
C1511	C151	0.244780	0.217110	0.776900
H1161	H116	0.263870	0.216530	0.809330
C1521	C152	0.161190	0.253530	0.761990
C1531	C153	0.179340	0.291500	0.798220
H1171	H117	0.209070	0.304230	0.811530
H1181	H118	0.055470	0.156430	0.776530
H1191	H119	0.035170	0.115630	0.670630
O351	O35	0.970140	0.524060	0.074700
O361	O36	0.944690	0.511290	0.971150
C1541	C154	0.945250	0.523200	0.029360
C1551	C155	0.912930	0.537260	0.047400
C1561	C156	0.885050	0.538170	0.999520
H1201	H120	0.885830	0.528970	0.955870
C1571	C157	0.856240	0.552600	0.015810
H1211	H121	0.836930	0.552670	0.983270
C1581	C158	0.855240	0.566870	0.078550
C1591	C159	0.882450	0.564530	0.127180
H1221	H122	0.880930	0.572570	0.171270
C1601	C160	0.911440	0.550450	0.110240
H1231	H123	0.930530	0.549870	0.142670
C1611	C161	0.827850	0.586870	0.095330
C1621	C162	0.846000	0.624840	0.131560
H1241	H124	0.875730	0.637570	0.144870
H1251	H125	0.722130	0.489770	0.109870
H1261	H126	0.701830	0.448970	0.003970
O371	O37	0.636810	0.779420	0.408030
O381	O38	0.611360	0.766740	0.304480
C1631	C163	0.611920	0.755390	0.362690
C1641	C164	0.579600	0.709010	0.380730
C1651	C165	0.551720	0.680220	0.332850
H1271	H127	0.552500	0.690200	0.289200
C1661	C166	0.522910	0.636980	0.349140
H1281	H128	0.503600	0.617600	0.316600
C1671	C167	0.521910	0.621710	0.411880
C1681	C168	0.549120	0.651260	0.460510
H1291	H129	0.547600	0.641700	0.504600
C1691	C169	0.578110	0.694330	0.443570
H1301	H130	0.597200	0.714000	0.476000
C1701	C170	0.494520	0.574320	0.428660
C1711	C171	0.512670	0.554500	0.464890
H1311	H131	0.542400	0.571500	0.478200
H1321	H132	0.388800	0.565700	0.443200
H1331	H133	0.368500	0.586200	0.337300
O391	O39	0.303480	0.112750	0.741360
O401	O40	0.278030	0.100070	0.637810
C1721	C172	0.278590	0.088720	0.696020
C1731	C173	0.246270	0.042340	0.714060
C1741	C174	0.218390	0.013550	0.666180
H1341	H134	0.219170	0.023530	0.622530
C1751	C175	0.189580	0.970310	0.682470
H1351	H135	0.170270	0.950930	0.649930
C1761	C176	0.188580	0.955040	0.745210
C1771	C177	0.215790	0.984590	0.793840
H1361	H136	0.214270	0.975030	0.837930
C1781	C178	0.244780	0.027660	0.776900
H1371	H137	0.263870	0.047330	0.809330
C1791	C179	0.161190	0.907650	0.761990
C1801	C180	0.179340	0.887830	0.798220
H1381	H138	0.209070	0.904830	0.811530
H1391	H139	0.055470	0.899030	0.776530
H1401	H140	0.035170	0.919530	0.670630
O411	O41	0.970140	0.446090	0.074700
O421	O42	0.944690	0.433410	0.971150
C1811	C181	0.945250	0.422060	0.029360
C1821	C182	0.912930	0.375680	0.047400
C1831	C183	0.885050	0.346890	0.999520
H1411	H141	0.885830	0.356870	0.955870
C1841	C184	0.856240	0.303650	0.015810
H1421	H142	0.836930	0.284270	0.983270
C1851	C185	0.855240	0.288380	0.078550
C1861	C186	0.882450	0.317930	0.127180
H1431	H143	0.880930	0.308370	0.171270
C1871	C187	0.911440	0.361000	0.110240
H1441	H144	0.930530	0.380670	0.142670
C1881	C188	0.827850	0.240990	0.095330
C1891	C189	0.846000	0.221170	0.131560
H1451	H145	0.875730	0.238170	0.144870
H1461	H146	0.722130	0.232370	0.109870
H1471	H147	0.701830	0.252870	0.003970
O431	O43	0.220580	0.857390	0.408030
O441	O44	0.233260	0.844620	0.304480
C1901	C190	0.244610	0.856530	0.362690
C1911	C191	0.290990	0.870590	0.380730
C1921	C192	0.319780	0.871500	0.332850
H1481	H148	0.309800	0.862300	0.289200
C1931	C193	0.363020	0.885930	0.349140
H1491	H149	0.382400	0.886000	0.316600
C1941	C194	0.378290	0.900200	0.411880
C1951	C195	0.348740	0.897860	0.460510
H1501	H150	0.358300	0.905900	0.504600
C1961	C196	0.305670	0.883780	0.443570
H1511	H151	0.286000	0.883200	0.476000
C1971	C197	0.425680	0.920200	0.428660
C1981	C198	0.445500	0.958170	0.464890
H1521	H152	0.428500	0.970900	0.478200
H1531	H153	0.434300	0.823100	0.443200
H1541	H154	0.413800	0.782300	0.337300
O451	O45	0.887250	0.190720	0.741360
O461	O46	0.899930	0.177950	0.637810
C1991	C199	0.911280	0.189860	0.696020
C2001	C200	0.957660	0.203920	0.714060
C2011	C201	0.986450	0.204830	0.666180
H1551	H155	0.976470	0.195630	0.622530
C2021	C202	0.029690	0.219260	0.682470
H1561	H156	0.049070	0.219330	0.649930
C2031	C203	0.044960	0.233530	0.745210
C2041	C204	0.015410	0.231190	0.793840
H1571	H157	0.024970	0.239230	0.837930
C2051	C205	0.972340	0.217110	0.776900
H1581	H158	0.952670	0.216530	0.809330
C2061	C206	0.092350	0.253530	0.761990
C2071	C207	0.112170	0.291500	0.798220
H1591	H159	0.095170	0.304230	0.811530
H1601	H160	0.100970	0.156430	0.776530
H1611	H161	0.080470	0.115630	0.670630
O471	O47	0.553910	0.524060	0.074700
O481	O48	0.566590	0.511290	0.971150
C2081	C208	0.577940	0.523200	0.029360
C2091	C209	0.624320	0.537260	0.047400
C2101	C210	0.653110	0.538170	0.999520
H1621	H162	0.643130	0.528970	0.955870
C2111	C211	0.696350	0.552600	0.015810
H1631	H163	0.715730	0.552670	0.983270
C2121	C212	0.711620	0.566870	0.078550
C2131	C213	0.682070	0.564530	0.127180
H1641	H164	0.691630	0.572570	0.171270
C2141	C214	0.639000	0.550450	0.110240
H1651	H165	0.619330	0.549870	0.142670
C2151	C215	0.759010	0.586870	0.095330
C2161	C216	0.778830	0.624840	0.131560
H1661	H166	0.761830	0.637570	0.144870
H1671	H167	0.767630	0.489770	0.109870
H1681	H168	0.747130	0.448970	0.003970
O491	O49	0.142610	0.363190	0.408030
O501	O50	0.155380	0.388640	0.304480
C2171	C217	0.143470	0.388080	0.362690
C2181	C218	0.129410	0.420400	0.380730
C2191	C219	0.128500	0.448280	0.332850
H1691	H169	0.137700	0.447500	0.289200
C2201	C220	0.114070	0.477090	0.349140
H1701	H170	0.114000	0.496400	0.316600
C2211	C221	0.099800	0.478090	0.411880
C2221	C222	0.102140	0.450880	0.460510
H1711	H171	0.094100	0.452400	0.504600
C2231	C223	0.116220	0.421890	0.443570
H1721	H172	0.116800	0.402800	0.476000
C2241	C224	0.079800	0.505480	0.428660
C2251	C225	0.041830	0.487330	0.464890
H1731	H173	0.029100	0.457600	0.478200
H1741	H174	0.176900	0.611200	0.443200
H1751	H175	0.217700	0.631500	0.337300
O511	O51	0.809280	0.696520	0.741360
O521	O52	0.822050	0.721970	0.637810
C2261	C226	0.810140	0.721410	0.696020
C2271	C227	0.796080	0.753730	0.714060
C2281	C228	0.795170	0.781610	0.666180
H1761	H176	0.804370	0.780830	0.622530
C2291	C229	0.780740	0.810420	0.682470
H1771	H177	0.780670	0.829730	0.649930
C2301	C230	0.766470	0.811420	0.745210
C2311	C231	0.768810	0.784210	0.793840
H1781	H178	0.760770	0.785730	0.837930
C2321	C232	0.782890	0.755220	0.776900
H1791	H179	0.783470	0.736130	0.809330
C2331	C233	0.746470	0.838810	0.761990
C2341	C234	0.708500	0.820660	0.798220
H1801	H180	0.695770	0.790930	0.811530
H1811	H181	0.843570	0.944530	0.776530
H1821	H182	0.884370	0.964830	0.670630
O531	O53	0.475940	0.029860	0.074700
O541	O54	0.488710	0.055310	0.971150
C2351	C235	0.476800	0.054750	0.029360
C2361	C236	0.462740	0.087070	0.047400
C2371	C237	0.461830	0.114950	0.999520
H1831	H183	0.471030	0.114170	0.955870
C2381	C238	0.447400	0.143760	0.015810
H1841	H184	0.447330	0.163070	0.983270
C2391	C239	0.433130	0.144760	0.078550
C2401	C240	0.435470	0.117550	0.127180
H1851	H185	0.427430	0.119070	0.171270
C2411	C241	0.449550	0.088560	0.110240
H1861	H186	0.450130	0.069470	0.142670
C2421	C242	0.413130	0.172150	0.095330
C2431	C243	0.375160	0.154000	0.131560
H1871	H187	0.362430	0.124270	0.144870
H1881	H188	0.510230	0.277870	0.109870
H1891	H189	0.551030	0.298170	0.003970
O551	O55	0.779420	0.636810	0.591970
O561	O56	0.766740	0.611360	0.695520
C2441	C244	0.755390	0.611920	0.637310
C2451	C245	0.709010	0.579600	0.619270
C2461	C246	0.680220	0.551720	0.667150
H1901	H190	0.690200	0.552500	0.710800
C2471	C247	0.636980	0.522910	0.650860
H1911	H191	0.617600	0.503600	0.683400
C2481	C248	0.621710	0.521910	0.588120
C2491	C249	0.651260	0.549120	0.539490
H1921	H192	0.641700	0.547600	0.495400
C2501	C250	0.694330	0.578110	0.556430
H1931	H193	0.714000	0.597200	0.524000
C2511	C251	0.574320	0.494520	0.571340
C2521	C252	0.554500	0.512670	0.535110
H1941	H194	0.571500	0.542400	0.521800
H1951	H195	0.565700	0.388800	0.556800
H1961	H196	0.586200	0.368500	0.662700
O571	O57	0.446090	0.970140	0.925300
O581	O58	0.433410	0.944690	0.028850
C2531	C253	0.422060	0.945250	0.970640
C2541	C254	0.375680	0.912930	0.952600
C2551	C255	0.346890	0.885050	0.000480
H1971	H197	0.356870	0.885830	0.044130
C2561	C256	0.303650	0.856240	0.984190
H1981	H198	0.284270	0.836930	0.016730
C2571	C257	0.288380	0.855240	0.921450
C2581	C258	0.317930	0.882450	0.872820
H1991	H199	0.308370	0.880930	0.828730
C2591	C259	0.361000	0.911440	0.889760
H2001	H200	0.380670	0.930530	0.857330
C2601	C260	0.240990	0.827850	0.904670
C2611	C261	0.221170	0.846000	0.868440
H2011	H201	0.238170	0.875730	0.855130
H2021	H202	0.232370	0.722130	0.890130
H2031	H203	0.252870	0.701830	0.996030
O591	O59	0.112750	0.303480	0.258640
O601	O60	0.100070	0.278030	0.362190
C2621	C262	0.088720	0.278590	0.303980
C2631	C263	0.042340	0.246270	0.285940
C2641	C264	0.013550	0.218390	0.333820
H2041	H204	0.023530	0.219170	0.377470
C2651	C265	0.970310	0.189580	0.317530
H2051	H205	0.950930	0.170270	0.350070
C2661	C266	0.955040	0.188580	0.254790
C2671	C267	0.984590	0.215790	0.206160
H2061	H206	0.975030	0.214270	0.162070
C2681	C268	0.027660	0.244780	0.223100
H2071	H207	0.047330	0.263870	0.190670
C2691	C269	0.907650	0.161190	0.238010
C2701	C270	0.887830	0.179340	0.201780
H2081	H208	0.904830	0.209070	0.188470
H2091	H209	0.899030	0.055470	0.223470
H2101	H210	0.919530	0.035170	0.329370
O611	O61	0.857390	0.220580	0.591970
O621	O62	0.844620	0.233260	0.695520
C2711	C271	0.856530	0.244610	0.637310
C2721	C272	0.870590	0.290990	0.619270
C2731	C273	0.871500	0.319780	0.667150
H2111	H211	0.862300	0.309800	0.710800
C2741	C274	0.885930	0.363020	0.650860
H2121	H212	0.886000	0.382400	0.683400
C2751	C275	0.900200	0.378290	0.588120
C2761	C276	0.897860	0.348740	0.539490
H2131	H213	0.905900	0.358300	0.495400
C2771	C277	0.883780	0.305670	0.556430
H2141	H214	0.883200	0.286000	0.524000
C2781	C278	0.920200	0.425680	0.571340
C2791	C279	0.958170	0.445500	0.535110
H2151	H215	0.970900	0.428500	0.521800
H2161	H216	0.823100	0.434300	0.556800
H2171	H217	0.782300	0.413800	0.662700
O631	O63	0.524060	0.553910	0.925300
O641	O64	0.511290	0.566590	0.028850
C2801	C280	0.523200	0.577940	0.970640
C2811	C281	0.537260	0.624320	0.952600
C2821	C282	0.538170	0.653110	0.000480
H2181	H218	0.528970	0.643130	0.044130
C2831	C283	0.552600	0.696350	0.984190
H2191	H219	0.552670	0.715730	0.016730
C2841	C284	0.566870	0.711620	0.921450
C2851	C285	0.564530	0.682070	0.872820
H2201	H220	0.572570	0.691630	0.828730
C2861	C286	0.550450	0.639000	0.889760
H2211	H221	0.549870	0.619330	0.857330
C2871	C287	0.586870	0.759010	0.904670
C2881	C288	0.624840	0.778830	0.868440
H2221	H222	0.637570	0.761830	0.855130
H2231	H223	0.489770	0.767630	0.890130
H2241	H224	0.448970	0.747130	0.996030
O651	O65	0.190720	0.887250	0.258640
O661	O66	0.177950	0.899930	0.362190
C2891	C289	0.189860	0.911280	0.303980
C2901	C290	0.203920	0.957660	0.285940
C2911	C291	0.204830	0.986450	0.333820
H2251	H225	0.195630	0.976470	0.377470
C2921	C292	0.219260	0.029690	0.317530
H2261	H226	0.219330	0.049070	0.350070
C2931	C293	0.233530	0.044960	0.254790
C2941	C294	0.231190	0.015410	0.206160
H2271	H227	0.239230	0.024970	0.162070
C2951	C295	0.217110	0.972340	0.223100
H2281	H228	0.216530	0.952670	0.190670
C2961	C296	0.253530	0.092350	0.238010
C2971	C297	0.291500	0.112170	0.201780
H2291	H229	0.304230	0.095170	0.188470
H2301	H230	0.156430	0.100970	0.223470
H2311	H231	0.115630	0.080470	0.329370
O671	O67	0.363190	0.142610	0.591970
O681	O68	0.388640	0.155380	0.695520
C2981	C298	0.388080	0.143470	0.637310
C2991	C299	0.420400	0.129410	0.619270
C3001	C300	0.448280	0.128500	0.667150
H2321	H232	0.447500	0.137700	0.710800
C3011	C301	0.477090	0.114070	0.650860
H2331	H233	0.496400	0.114000	0.683400
C3021	C302	0.478090	0.099800	0.588120
C3031	C303	0.450880	0.102140	0.539490
H2341	H234	0.452400	0.094100	0.495400
C3041	C304	0.421890	0.116220	0.556430
H2351	H235	0.402800	0.116800	0.524000
C3051	C305	0.505480	0.079800	0.571340
C3061	C306	0.487330	0.041830	0.535110
H2361	H236	0.457600	0.029100	0.521800
H2371	H237	0.611200	0.176900	0.556800
H2381	H238	0.631500	0.217700	0.662700
O691	O69	0.029860	0.475940	0.925300
O701	O70	0.055310	0.488710	0.028850
C3071	C307	0.054750	0.476800	0.970640
C3081	C308	0.087070	0.462740	0.952600
C3091	C309	0.114950	0.461830	0.000480
H2391	H239	0.114170	0.471030	0.044130
C3101	C310	0.143760	0.447400	0.984190
H2401	H240	0.163070	0.447330	0.016730
C3111	C311	0.144760	0.433130	0.921450
C3121	C312	0.117550	0.435470	0.872820
H2411	H241	0.119070	0.427430	0.828730
C3131	C313	0.088560	0.449550	0.889760
H2421	H242	0.069470	0.450130	0.857330
C3141	C314	0.172150	0.413130	0.904670
C3151	C315	0.154000	0.375160	0.868440
H2431	H243	0.124270	0.362430	0.855130
H2441	H244	0.277870	0.510230	0.890130
H2451	H245	0.298170	0.551030	0.996030
O711	O71	0.696520	0.809280	0.258640
O721	O72	0.721970	0.822050	0.362190
C3161	C316	0.721410	0.810140	0.303980
C3171	C317	0.753730	0.796080	0.285940
C3181	C318	0.781610	0.795170	0.333820
H2461	H246	0.780830	0.804370	0.377470
C3191	C319	0.810420	0.780740	0.317530
H2471	H247	0.829730	0.780670	0.350070
C3201	C320	0.811420	0.766470	0.254790
C3211	C321	0.784210	0.768810	0.206160
H2481	H248	0.785730	0.760770	0.162070
C3221	C322	0.755220	0.782890	0.223100
H2491	H249	0.736130	0.783470	0.190670
C3231	C323	0.838810	0.746470	0.238010
C3241	C324	0.820660	0.708500	0.201780
H2501	H250	0.790930	0.695770	0.188470
H2511	H251	0.944530	0.843570	0.223470
H2521	H252	0.964830	0.884370	0.329370
Cu11	Cu1	0.318660	0.159330	0.605740
Cu21	Cu2	0.985330	0.492660	0.939070
Cu31	Cu3	0.651990	0.826000	0.272410
Cu41	Cu4	0.840670	0.159330	0.605740
Cu51	Cu5	0.507340	0.492660	0.939070
Cu61	Cu6	0.174000	0.826000	0.272410
Cu71	Cu7	0.840670	0.681340	0.605740
Cu81	Cu8	0.507340	0.014670	0.939070
Cu91	Cu9	0.174000	0.348010	0.272410
Cu101	Cu10	0.159330	0.318660	0.394260
Cu111	Cu11	0.826000	0.651990	0.727590
Cu121	Cu12	0.492660	0.985330	0.060930
Cu131	Cu13	0.159330	0.840670	0.394260
Cu141	Cu14	0.826000	0.174000	0.727590
Cu151	Cu15	0.492660	0.507340	0.060930
Cu161	Cu16	0.681340	0.840670	0.394260
Cu171	Cu17	0.348010	0.174000	0.727590
Cu181	Cu18	0.014670	0.507340	0.060930
O731	O73	0.569120	0.430880	0.624650
C3251	C325	0.510640	0.489360	0.517100
C3261	C326	0.549890	0.450110	0.589300
C3271	C327	0.588180	0.411820	0.585200
C3281	C328	0.609300	0.390700	0.634900
H2531	H253	0.622800	0.377200	0.609000
O741	O74	0.235790	0.764210	0.957980
C3291	C329	0.177310	0.822690	0.850430
C3301	C330	0.216560	0.783440	0.922630
C3311	C331	0.254850	0.745150	0.918530
C3321	C332	0.275970	0.724030	0.968230
H2541	H254	0.289470	0.710530	0.942330
O751	O75	0.902450	0.097550	0.291320
C3331	C333	0.843970	0.156030	0.183770
C3341	C334	0.883220	0.116780	0.255970
C3351	C335	0.921510	0.078490	0.251870
C3361	C336	0.942630	0.057370	0.301570
H2551	H255	0.956130	0.043870	0.275670
O761	O76	0.569120	0.138240	0.624650
C3371	C337	0.510640	0.021280	0.517100
C3381	C338	0.549890	0.099780	0.589300
C3391	C339	0.588180	0.176360	0.585200
C3401	C340	0.609300	0.218600	0.634900
H2561	H256	0.622800	0.245600	0.609000
O771	O77	0.235790	0.471570	0.957980
C3411	C341	0.177310	0.354610	0.850430
C3421	C342	0.216560	0.433110	0.922630
C3431	C343	0.254850	0.509690	0.918530
C3441	C344	0.275970	0.551930	0.968230
H2571	H257	0.289470	0.578930	0.942330
O781	O78	0.902450	0.804910	0.291320
C3451	C345	0.843970	0.687950	0.183770
C3461	C346	0.883220	0.766450	0.255970
C3471	C347	0.921510	0.843030	0.251870
C3481	C348	0.942630	0.885270	0.301570
H2581	H258	0.956130	0.912270	0.275670
O791	O79	0.861760	0.430880	0.624650
C3491	C349	0.978720	0.489360	0.517100
C3501	C350	0.900220	0.450110	0.589300
C3511	C351	0.823640	0.411820	0.585200
C3521	C352	0.781400	0.390700	0.634900
H2591	H259	0.754400	0.377200	0.609000
O801	O80	0.528430	0.764210	0.957980
C3531	C353	0.645390	0.822690	0.850430
C3541	C354	0.566890	0.783440	0.922630
C3551	C355	0.490310	0.745150	0.918530
C3561	C356	0.448070	0.724030	0.968230
H2601	H260	0.421070	0.710530	0.942330
O811	O81	0.195090	0.097550	0.291320
C3571	C357	0.312050	0.156030	0.183770
C3581	C358	0.233550	0.116780	0.255970
C3591	C359	0.156970	0.078490	0.251870
C3601	C360	0.114730	0.057370	0.301570
H2611	H261	0.087730	0.043870	0.275670
O821	O82	0.430880	0.569120	0.375350
C3611	C361	0.489360	0.510640	0.482900
C3621	C362	0.450110	0.549890	0.410700
C3631	C363	0.411820	0.588180	0.414800
C3641	C364	0.390700	0.609300	0.365100
H2621	H262	0.377200	0.622800	0.391000
O831	O83	0.097550	0.902450	0.708680
C3651	C365	0.156030	0.843970	0.816230
C3661	C366	0.116780	0.883220	0.744030
C3671	C367	0.078490	0.921510	0.748130
C3681	C368	0.057370	0.942630	0.698430
H2631	H263	0.043870	0.956130	0.724330
O841	O84	0.764210	0.235790	0.042020
C3691	C369	0.822690	0.177310	0.149570
C3701	C370	0.783440	0.216560	0.077370
C3711	C371	0.745150	0.254850	0.081470
C3721	C372	0.724030	0.275970	0.031770
H2641	H264	0.710530	0.289470	0.057670
O851	O85	0.138240	0.569120	0.375350
C3731	C373	0.021280	0.510640	0.482900
C3741	C374	0.099780	0.549890	0.410700
C3751	C375	0.176360	0.588180	0.414800
C3761	C376	0.218600	0.609300	0.365100
H2651	H265	0.245600	0.622800	0.391000
O861	O86	0.804910	0.902450	0.708680
C3771	C377	0.687950	0.843970	0.816230
C3781	C378	0.766450	0.883220	0.744030
C3791	C379	0.843030	0.921510	0.748130
C3801	C380	0.885270	0.942630	0.698430
H2661	H266	0.912270	0.956130	0.724330
O871	O87	0.471570	0.235790	0.042020
C3811	C381	0.354610	0.177310	0.149570
C3821	C382	0.433110	0.216560	0.077370
C3831	C383	0.509690	0.254850	0.081470
C3841	C384	0.551930	0.275970	0.031770
H2671	H267	0.578930	0.289470	0.057670
O881	O88	0.430880	0.861760	0.375350
C3851	C385	0.489360	0.978720	0.482900
C3861	C386	0.450110	0.900220	0.410700
C3871	C387	0.411820	0.823640	0.414800
C3881	C388	0.390700	0.781400	0.365100
H2681	H268	0.377200	0.754400	0.391000
O891	O89	0.097550	0.195090	0.708680
C3891	C389	0.156030	0.312050	0.816230
C3901	C390	0.116780	0.233550	0.744030
C3911	C391	0.078490	0.156970	0.748130
C3921	C392	0.057370	0.114730	0.698430
H2691	H269	0.043870	0.087730	0.724330
O901	O90	0.764210	0.528430	0.042020
C3931	C393	0.822690	0.645390	0.149570
C3941	C394	0.783440	0.566890	0.077370
C3951	C395	0.745150	0.490310	0.081470
C3961	C396	0.724030	0.448070	0.031770
H2701	H270	0.710530	0.421070	0.057670
