data_UMUBEL_clean_PM
_symmetry_space_group_name_H-M	'P1'
_cell_length_a	35.269600
_cell_length_b	35.269600
_cell_length_c	20.742400
_cell_angle_alpha	90.000000
_cell_angle_beta	90.000000
_cell_angle_gamma	120.000000
_symmetry_Int_Tables_number 1

loop_
_symmetry_equiv_pos_as_xyz
'x,y,z'

loop_
_atom_site_label
_atom_site_type_symbol
_atom_site_fract_x
_atom_site_fract_y
_atom_site_fract_z
O11	O1	0.524710	0.971130	0.924960
O21	O2	0.511410	0.944710	0.026380
C11	C1	0.523060	0.945610	0.968260
C21	C2	0.537420	0.913220	0.950310
C31	C3	0.538140	0.885280	0.996690
H11	H1	0.528700	0.885800	0.039400
C41	C4	0.552870	0.856230	0.980520
H21	H2	0.553700	0.837400	0.012500
C51	C5	0.566070	0.854840	0.918690
C61	C6	0.563250	0.881970	0.871080
H31	H3	0.570600	0.880000	0.827600
C71	C7	0.549780	0.911450	0.887760
H41	H4	0.549000	0.930500	0.856000
C81	C8	0.584950	0.826770	0.901410
C91	C9	0.624400	0.845760	0.867120
H51	H5	0.637500	0.875800	0.855500
H61	H6	0.492800	0.723600	0.890000
H71	H7	0.451000	0.748100	0.993500
O31	O3	0.191380	0.304460	0.258290
O41	O4	0.178080	0.278040	0.359710
C101	C10	0.189730	0.278940	0.301590
C111	C11	0.204090	0.246550	0.283640
C121	C12	0.204810	0.218610	0.330020
H81	H8	0.195370	0.219130	0.372730
C131	C13	0.219540	0.189560	0.313850
H91	H9	0.220370	0.170730	0.345830
C141	C14	0.232740	0.188170	0.252020
C151	C15	0.229920	0.215300	0.204410
H101	H10	0.237270	0.213330	0.160930
C161	C16	0.216450	0.244780	0.221090
H111	H11	0.215670	0.263830	0.189330
C171	C17	0.251620	0.160100	0.234740
C181	C18	0.291070	0.179090	0.200450
H121	H12	0.304170	0.209130	0.188830
H131	H13	0.159470	0.056930	0.223330
H141	H14	0.117670	0.081430	0.326830
O51	O5	0.858040	0.637800	0.591630
O61	O6	0.844740	0.611380	0.693050
C191	C19	0.856390	0.612280	0.634930
C201	C20	0.870750	0.579890	0.616980
C211	C21	0.871470	0.551950	0.663360
H151	H15	0.862030	0.552470	0.706070
C221	C22	0.886200	0.522900	0.647190
H161	H16	0.887030	0.504070	0.679170
C231	C23	0.899400	0.521510	0.585360
C241	C24	0.896580	0.548640	0.537750
H171	H17	0.903930	0.546670	0.494270
C251	C25	0.883110	0.578120	0.554430
H181	H18	0.882330	0.597170	0.522670
C261	C26	0.918280	0.493440	0.568080
C271	C27	0.957730	0.512430	0.533790
H191	H19	0.970830	0.542470	0.522170
H201	H20	0.826130	0.390270	0.556670
H211	H21	0.784330	0.414770	0.660170
O71	O7	0.028870	0.553580	0.924960
O81	O8	0.055290	0.566700	0.026380
C281	C28	0.054390	0.577450	0.968260
C291	C29	0.086780	0.624200	0.950310
C301	C30	0.114720	0.652860	0.996690
H221	H22	0.114200	0.642900	0.039400
C311	C31	0.143770	0.696640	0.980520
H231	H23	0.162600	0.716300	0.012500
C321	C32	0.145160	0.711230	0.918690
C331	C33	0.118030	0.681280	0.871080
H241	H24	0.120000	0.690600	0.827600
C341	C34	0.088550	0.638330	0.887760
H251	H25	0.069500	0.618500	0.856000
C351	C35	0.173230	0.758180	0.901410
C361	C36	0.154240	0.778640	0.867120
H261	H26	0.124200	0.761700	0.855500
H271	H27	0.276400	0.769200	0.890000
H281	H28	0.251900	0.702900	0.993500
O91	O9	0.695540	0.886910	0.258290
O101	O10	0.721960	0.900030	0.359710
C371	C37	0.721060	0.910780	0.301590
C381	C38	0.753450	0.957530	0.283640
C391	C39	0.781390	0.986190	0.330020
H291	H29	0.780870	0.976230	0.372730
C401	C40	0.810440	0.029970	0.313850
H301	H30	0.829270	0.049630	0.345830
C411	C41	0.811830	0.044560	0.252020
C421	C42	0.784700	0.014610	0.204410
H311	H31	0.786670	0.023930	0.160930
C431	C43	0.755220	0.971660	0.221090
H321	H32	0.736170	0.951830	0.189330
C441	C44	0.839900	0.091510	0.234740
C451	C45	0.820910	0.111970	0.200450
H331	H33	0.790870	0.095030	0.188830
H341	H34	0.943070	0.102530	0.223330
H351	H35	0.918570	0.036230	0.326830
O111	O11	0.362200	0.220250	0.591630
O121	O12	0.388620	0.233370	0.693050
C461	C46	0.387720	0.244120	0.634930
C471	C47	0.420110	0.290870	0.616980
C481	C48	0.448050	0.319530	0.663360
H361	H36	0.447530	0.309570	0.706070
C491	C49	0.477100	0.363310	0.647190
H371	H37	0.495930	0.382970	0.679170
C501	C50	0.478490	0.377900	0.585360
C511	C51	0.451360	0.347950	0.537750
H381	H38	0.453330	0.357270	0.494270
C521	C52	0.421880	0.305000	0.554430
H391	H39	0.402830	0.285170	0.522670
C531	C53	0.506560	0.424850	0.568080
C541	C54	0.487570	0.445310	0.533790
H401	H40	0.457530	0.428370	0.522170
H411	H41	0.609730	0.435870	0.556670
H421	H42	0.585230	0.369570	0.660170
O131	O13	0.446420	0.475290	0.924960
O141	O14	0.433300	0.488590	0.026380
C551	C55	0.422550	0.476940	0.968260
C561	C56	0.375800	0.462580	0.950310
C571	C57	0.347140	0.461860	0.996690
H431	H43	0.357100	0.471300	0.039400
C581	C58	0.303360	0.447130	0.980520
H441	H44	0.283700	0.446300	0.012500
C591	C59	0.288770	0.433930	0.918690
C601	C60	0.318720	0.436750	0.871080
H451	H45	0.309400	0.429400	0.827600
C611	C61	0.361670	0.450220	0.887760
H461	H46	0.381500	0.451000	0.856000
C621	C62	0.241820	0.415050	0.901410
C631	C63	0.221360	0.375600	0.867120
H471	H47	0.238300	0.362500	0.855500
H481	H48	0.230800	0.507200	0.890000
H491	H49	0.297100	0.549000	0.993500
O151	O15	0.113090	0.808620	0.258290
O161	O16	0.099970	0.821920	0.359710
C641	C64	0.089220	0.810270	0.301590
C651	C65	0.042470	0.795910	0.283640
C661	C66	0.013810	0.795190	0.330020
H501	H50	0.023770	0.804630	0.372730
C671	C67	0.970030	0.780460	0.313850
H511	H51	0.950370	0.779630	0.345830
C681	C68	0.955440	0.767260	0.252020
C691	C69	0.985390	0.770080	0.204410
H521	H52	0.976070	0.762730	0.160930
C701	C70	0.028340	0.783550	0.221090
H531	H53	0.048170	0.784330	0.189330
C711	C71	0.908490	0.748380	0.234740
C721	C72	0.888030	0.708930	0.200450
H541	H54	0.904970	0.695830	0.188830
H551	H55	0.897470	0.840530	0.223330
H561	H56	0.963770	0.882330	0.326830
O171	O17	0.779750	0.141960	0.591630
O181	O18	0.766630	0.155260	0.693050
C731	C73	0.755880	0.143610	0.634930
C741	C74	0.709130	0.129250	0.616980
C751	C75	0.680470	0.128530	0.663360
H571	H57	0.690430	0.137970	0.706070
C761	C76	0.636690	0.113800	0.647190
H581	H58	0.617030	0.112970	0.679170
C771	C77	0.622100	0.100600	0.585360
C781	C78	0.652050	0.103420	0.537750
H591	H59	0.642730	0.096070	0.494270
C791	C79	0.695000	0.116890	0.554430
H601	H60	0.714830	0.117670	0.522670
C801	C80	0.575150	0.081720	0.568080
C811	C81	0.554690	0.042270	0.533790
H611	H61	0.571630	0.029170	0.522170
H621	H62	0.564130	0.173870	0.556670
H631	H63	0.630430	0.215670	0.660170
O191	O19	0.971130	0.524710	0.075040
O201	O20	0.944710	0.511410	0.973620
C821	C82	0.945610	0.523060	0.031740
C831	C83	0.913220	0.537420	0.049690
C841	C84	0.885280	0.538140	0.003310
H641	H64	0.885800	0.528700	0.960600
C851	C85	0.856230	0.552870	0.019480
H651	H65	0.837400	0.553700	0.987500
C861	C86	0.854840	0.566070	0.081310
C871	C87	0.881970	0.563250	0.128920
H661	H66	0.880000	0.570600	0.172400
C881	C88	0.911450	0.549780	0.112240
H671	H67	0.930500	0.549000	0.144000
C891	C89	0.826770	0.584950	0.098590
C901	C90	0.845760	0.624400	0.132880
H681	H68	0.875800	0.637500	0.144500
H691	H69	0.723600	0.492800	0.110000
H701	H70	0.748100	0.451000	0.006500
O211	O21	0.637800	0.858040	0.408370
O221	O22	0.611380	0.844740	0.306950
C911	C91	0.612280	0.856390	0.365070
C921	C92	0.579890	0.870750	0.383020
C931	C93	0.551950	0.871470	0.336640
H711	H71	0.552470	0.862030	0.293930
C941	C94	0.522900	0.886200	0.352810
H721	H72	0.504070	0.887030	0.320830
C951	C95	0.521510	0.899400	0.414640
C961	C96	0.548640	0.896580	0.462250
H731	H73	0.546670	0.903930	0.505730
C971	C97	0.578120	0.883110	0.445570
H741	H74	0.597170	0.882330	0.477330
C981	C98	0.493440	0.918280	0.431920
C991	C99	0.512430	0.957730	0.466210
H751	H75	0.542470	0.970830	0.477830
H761	H76	0.390270	0.826130	0.443330
H771	H77	0.414770	0.784330	0.339830
O231	O23	0.304460	0.191380	0.741710
O241	O24	0.278040	0.178080	0.640290
C1001	C100	0.278940	0.189730	0.698410
C1011	C101	0.246550	0.204090	0.716360
C1021	C102	0.218610	0.204810	0.669980
H781	H78	0.219130	0.195370	0.627270
C1031	C103	0.189560	0.219540	0.686150
H791	H79	0.170730	0.220370	0.654170
C1041	C104	0.188170	0.232740	0.747980
C1051	C105	0.215300	0.229920	0.795590
H801	H80	0.213330	0.237270	0.839070
C1061	C106	0.244780	0.216450	0.778910
H811	H81	0.263830	0.215670	0.810670
C1071	C107	0.160100	0.251620	0.765260
C1081	C108	0.179090	0.291070	0.799550
H821	H82	0.209130	0.304170	0.811170
H831	H83	0.056930	0.159470	0.776670
H841	H84	0.081430	0.117670	0.673170
O251	O25	0.553580	0.028870	0.075040
O261	O26	0.566700	0.055290	0.973620
C1091	C109	0.577450	0.054390	0.031740
C1101	C110	0.624200	0.086780	0.049690
C1111	C111	0.652860	0.114720	0.003310
H851	H85	0.642900	0.114200	0.960600
C1121	C112	0.696640	0.143770	0.019480
H861	H86	0.716300	0.162600	0.987500
C1131	C113	0.711230	0.145160	0.081310
C1141	C114	0.681280	0.118030	0.128920
H871	H87	0.690600	0.120000	0.172400
C1151	C115	0.638330	0.088550	0.112240
H881	H88	0.618500	0.069500	0.144000
C1161	C116	0.758180	0.173230	0.098590
C1171	C117	0.778640	0.154240	0.132880
H891	H89	0.761700	0.124200	0.144500
H901	H90	0.769200	0.276400	0.110000
H911	H91	0.702900	0.251900	0.006500
O271	O27	0.220250	0.362200	0.408370
O281	O28	0.233370	0.388620	0.306950
C1181	C118	0.244120	0.387720	0.365070
C1191	C119	0.290870	0.420110	0.383020
C1201	C120	0.319530	0.448050	0.336640
H921	H92	0.309570	0.447530	0.293930
C1211	C121	0.363310	0.477100	0.352810
H931	H93	0.382970	0.495930	0.320830
C1221	C122	0.377900	0.478490	0.414640
C1231	C123	0.347950	0.451360	0.462250
H941	H94	0.357270	0.453330	0.505730
C1241	C124	0.305000	0.421880	0.445570
H951	H95	0.285170	0.402830	0.477330
C1251	C125	0.424850	0.506560	0.431920
C1261	C126	0.445310	0.487570	0.466210
H961	H96	0.428370	0.457530	0.477830
H971	H97	0.435870	0.609730	0.443330
H981	H98	0.369570	0.585230	0.339830
O291	O29	0.886910	0.695540	0.741710
O301	O30	0.900030	0.721960	0.640290
C1271	C127	0.910780	0.721060	0.698410
C1281	C128	0.957530	0.753450	0.716360
C1291	C129	0.986190	0.781390	0.669980
H991	H99	0.976230	0.780870	0.627270
C1301	C130	0.029970	0.810440	0.686150
H1001	H100	0.049630	0.829270	0.654170
C1311	C131	0.044560	0.811830	0.747980
C1321	C132	0.014610	0.784700	0.795590
H1011	H101	0.023930	0.786670	0.839070
C1331	C133	0.971660	0.755220	0.778910
H1021	H102	0.951830	0.736170	0.810670
C1341	C134	0.091510	0.839900	0.765260
C1351	C135	0.111970	0.820910	0.799550
H1031	H103	0.095030	0.790870	0.811170
H1041	H104	0.102530	0.943070	0.776670
H1051	H105	0.036230	0.918570	0.673170
O311	O31	0.475290	0.446420	0.075040
O321	O32	0.488590	0.433300	0.973620
C1361	C136	0.476940	0.422550	0.031740
C1371	C137	0.462580	0.375800	0.049690
C1381	C138	0.461860	0.347140	0.003310
H1061	H106	0.471300	0.357100	0.960600
C1391	C139	0.447130	0.303360	0.019480
H1071	H107	0.446300	0.283700	0.987500
C1401	C140	0.433930	0.288770	0.081310
C1411	C141	0.436750	0.318720	0.128920
H1081	H108	0.429400	0.309400	0.172400
C1421	C142	0.450220	0.361670	0.112240
H1091	H109	0.451000	0.381500	0.144000
C1431	C143	0.415050	0.241820	0.098590
C1441	C144	0.375600	0.221360	0.132880
H1101	H110	0.362500	0.238300	0.144500
H1111	H111	0.507200	0.230800	0.110000
H1121	H112	0.549000	0.297100	0.006500
O331	O33	0.141960	0.779750	0.408370
O341	O34	0.155260	0.766630	0.306950
C1451	C145	0.143610	0.755880	0.365070
C1461	C146	0.129250	0.709130	0.383020
C1471	C147	0.128530	0.680470	0.336640
H1131	H113	0.137970	0.690430	0.293930
C1481	C148	0.113800	0.636690	0.352810
H1141	H114	0.112970	0.617030	0.320830
C1491	C149	0.100600	0.622100	0.414640
C1501	C150	0.103420	0.652050	0.462250
H1151	H115	0.096070	0.642730	0.505730
C1511	C151	0.116890	0.695000	0.445570
H1161	H116	0.117670	0.714830	0.477330
C1521	C152	0.081720	0.575150	0.431920
C1531	C153	0.042270	0.554690	0.466210
H1171	H117	0.029170	0.571630	0.477830
H1181	H118	0.173870	0.564130	0.443330
H1191	H119	0.215670	0.630430	0.339830
O351	O35	0.808620	0.113090	0.741710
O361	O36	0.821920	0.099970	0.640290
C1541	C154	0.810270	0.089220	0.698410
C1551	C155	0.795910	0.042470	0.716360
C1561	C156	0.795190	0.013810	0.669980
H1201	H120	0.804630	0.023770	0.627270
C1571	C157	0.780460	0.970030	0.686150
H1211	H121	0.779630	0.950370	0.654170
C1581	C158	0.767260	0.955440	0.747980
C1591	C159	0.770080	0.985390	0.795590
H1221	H122	0.762730	0.976070	0.839070
C1601	C160	0.783550	0.028340	0.778910
H1231	H123	0.784330	0.048170	0.810670
C1611	C161	0.748380	0.908490	0.765260
C1621	C162	0.708930	0.888030	0.799550
H1241	H124	0.695830	0.904970	0.811170
H1251	H125	0.840530	0.897470	0.776670
H1261	H126	0.882330	0.963770	0.673170
O371	O37	0.475290	0.028870	0.075040
O381	O38	0.488590	0.055290	0.973620
C1631	C163	0.476940	0.054390	0.031740
C1641	C164	0.462580	0.086780	0.049690
C1651	C165	0.461860	0.114720	0.003310
H1271	H127	0.471300	0.114200	0.960600
C1661	C166	0.447130	0.143770	0.019480
H1281	H128	0.446300	0.162600	0.987500
C1671	C167	0.433930	0.145160	0.081310
C1681	C168	0.436750	0.118030	0.128920
H1291	H129	0.429400	0.120000	0.172400
C1691	C169	0.450220	0.088550	0.112240
H1301	H130	0.451000	0.069500	0.144000
C1701	C170	0.415050	0.173230	0.098590
C1711	C171	0.375600	0.154240	0.132880
H1311	H131	0.362500	0.124200	0.144500
H1321	H132	0.507200	0.276400	0.110000
H1331	H133	0.549000	0.251900	0.006500
O391	O39	0.141960	0.362200	0.408370
O401	O40	0.155260	0.388620	0.306950
C1721	C172	0.143610	0.387720	0.365070
C1731	C173	0.129250	0.420110	0.383020
C1741	C174	0.128530	0.448050	0.336640
H1341	H134	0.137970	0.447530	0.293930
C1751	C175	0.113800	0.477100	0.352810
H1351	H135	0.112970	0.495930	0.320830
C1761	C176	0.100600	0.478490	0.414640
C1771	C177	0.103420	0.451360	0.462250
H1361	H136	0.096070	0.453330	0.505730
C1781	C178	0.116890	0.421880	0.445570
H1371	H137	0.117670	0.402830	0.477330
C1791	C179	0.081720	0.506560	0.431920
C1801	C180	0.042270	0.487570	0.466210
H1381	H138	0.029170	0.457530	0.477830
H1391	H139	0.173870	0.609730	0.443330
H1401	H140	0.215670	0.585230	0.339830
O411	O41	0.808620	0.695540	0.741710
O421	O42	0.821920	0.721960	0.640290
C1811	C181	0.810270	0.721060	0.698410
C1821	C182	0.795910	0.753450	0.716360
C1831	C183	0.795190	0.781390	0.669980
H1411	H141	0.804630	0.780870	0.627270
C1841	C184	0.780460	0.810440	0.686150
H1421	H142	0.779630	0.829270	0.654170
C1851	C185	0.767260	0.811830	0.747980
C1861	C186	0.770080	0.784700	0.795590
H1431	H143	0.762730	0.786670	0.839070
C1871	C187	0.783550	0.755220	0.778910
H1441	H144	0.784330	0.736170	0.810670
C1881	C188	0.748380	0.839900	0.765260
C1891	C189	0.708930	0.820910	0.799550
H1451	H145	0.695830	0.790870	0.811170
H1461	H146	0.840530	0.943070	0.776670
H1471	H147	0.882330	0.918570	0.673170
O431	O43	0.971130	0.446420	0.075040
O441	O44	0.944710	0.433300	0.973620
C1901	C190	0.945610	0.422550	0.031740
C1911	C191	0.913220	0.375800	0.049690
C1921	C192	0.885280	0.347140	0.003310
H1481	H148	0.885800	0.357100	0.960600
C1931	C193	0.856230	0.303360	0.019480
H1491	H149	0.837400	0.283700	0.987500
C1941	C194	0.854840	0.288770	0.081310
C1951	C195	0.881970	0.318720	0.128920
H1501	H150	0.880000	0.309400	0.172400
C1961	C196	0.911450	0.361670	0.112240
H1511	H151	0.930500	0.381500	0.144000
C1971	C197	0.826770	0.241820	0.098590
C1981	C198	0.845760	0.221360	0.132880
H1521	H152	0.875800	0.238300	0.144500
H1531	H153	0.723600	0.230800	0.110000
H1541	H154	0.748100	0.297100	0.006500
O451	O45	0.637800	0.779750	0.408370
O461	O46	0.611380	0.766630	0.306950
C1991	C199	0.612280	0.755880	0.365070
C2001	C200	0.579890	0.709130	0.383020
C2011	C201	0.551950	0.680470	0.336640
H1551	H155	0.552470	0.690430	0.293930
C2021	C202	0.522900	0.636690	0.352810
H1561	H156	0.504070	0.617030	0.320830
C2031	C203	0.521510	0.622100	0.414640
C2041	C204	0.548640	0.652050	0.462250
H1571	H157	0.546670	0.642730	0.505730
C2051	C205	0.578120	0.695000	0.445570
H1581	H158	0.597170	0.714830	0.477330
C2061	C206	0.493440	0.575150	0.431920
C2071	C207	0.512430	0.554690	0.466210
H1591	H159	0.542470	0.571630	0.477830
H1601	H160	0.390270	0.564130	0.443330
H1611	H161	0.414770	0.630430	0.339830
O471	O47	0.304460	0.113090	0.741710
O481	O48	0.278040	0.099970	0.640290
C2081	C208	0.278940	0.089220	0.698410
C2091	C209	0.246550	0.042470	0.716360
C2101	C210	0.218610	0.013810	0.669980
H1621	H162	0.219130	0.023770	0.627270
C2111	C211	0.189560	0.970030	0.686150
H1631	H163	0.170730	0.950370	0.654170
C2121	C212	0.188170	0.955440	0.747980
C2131	C213	0.215300	0.985390	0.795590
H1641	H164	0.213330	0.976070	0.839070
C2141	C214	0.244780	0.028340	0.778910
H1651	H165	0.263830	0.048170	0.810670
C2151	C215	0.160100	0.908490	0.765260
C2161	C216	0.179090	0.888030	0.799550
H1661	H166	0.209130	0.904970	0.811170
H1671	H167	0.056930	0.897470	0.776670
H1681	H168	0.081430	0.963770	0.673170
O491	O49	0.553580	0.524710	0.075040
O501	O50	0.566700	0.511410	0.973620
C2171	C217	0.577450	0.523060	0.031740
C2181	C218	0.624200	0.537420	0.049690
C2191	C219	0.652860	0.538140	0.003310
H1691	H169	0.642900	0.528700	0.960600
C2201	C220	0.696640	0.552870	0.019480
H1701	H170	0.716300	0.553700	0.987500
C2211	C221	0.711230	0.566070	0.081310
C2221	C222	0.681280	0.563250	0.128920
H1711	H171	0.690600	0.570600	0.172400
C2231	C223	0.638330	0.549780	0.112240
H1721	H172	0.618500	0.549000	0.144000
C2241	C224	0.758180	0.584950	0.098590
C2251	C225	0.778640	0.624400	0.132880
H1731	H173	0.761700	0.637500	0.144500
H1741	H174	0.769200	0.492800	0.110000
H1751	H175	0.702900	0.451000	0.006500
O511	O51	0.220250	0.858040	0.408370
O521	O52	0.233370	0.844740	0.306950
C2261	C226	0.244120	0.856390	0.365070
C2271	C227	0.290870	0.870750	0.383020
C2281	C228	0.319530	0.871470	0.336640
H1761	H176	0.309570	0.862030	0.293930
C2291	C229	0.363310	0.886200	0.352810
H1771	H177	0.382970	0.887030	0.320830
C2301	C230	0.377900	0.899400	0.414640
C2311	C231	0.347950	0.896580	0.462250
H1781	H178	0.357270	0.903930	0.505730
C2321	C232	0.305000	0.883110	0.445570
H1791	H179	0.285170	0.882330	0.477330
C2331	C233	0.424850	0.918280	0.431920
C2341	C234	0.445310	0.957730	0.466210
H1801	H180	0.428370	0.970830	0.477830
H1811	H181	0.435870	0.826130	0.443330
H1821	H182	0.369570	0.784330	0.339830
O531	O53	0.886910	0.191380	0.741710
O541	O54	0.900030	0.178080	0.640290
C2351	C235	0.910780	0.189730	0.698410
C2361	C236	0.957530	0.204090	0.716360
C2371	C237	0.986190	0.204810	0.669980
H1831	H183	0.976230	0.195370	0.627270
C2381	C238	0.029970	0.219540	0.686150
H1841	H184	0.049630	0.220370	0.654170
C2391	C239	0.044560	0.232740	0.747980
C2401	C240	0.014610	0.229920	0.795590
H1851	H185	0.023930	0.237270	0.839070
C2411	C241	0.971660	0.216450	0.778910
H1861	H186	0.951830	0.215670	0.810670
C2421	C242	0.091510	0.251620	0.765260
C2431	C243	0.111970	0.291070	0.799550
H1871	H187	0.095030	0.304170	0.811170
H1881	H188	0.102530	0.159470	0.776670
H1891	H189	0.036230	0.117670	0.673170
O551	O55	0.028870	0.475290	0.924960
O561	O56	0.055290	0.488590	0.026380
C2441	C244	0.054390	0.476940	0.968260
C2451	C245	0.086780	0.462580	0.950310
C2461	C246	0.114720	0.461860	0.996690
H1901	H190	0.114200	0.471300	0.039400
C2471	C247	0.143770	0.447130	0.980520
H1911	H191	0.162600	0.446300	0.012500
C2481	C248	0.145160	0.433930	0.918690
C2491	C249	0.118030	0.436750	0.871080
H1921	H192	0.120000	0.429400	0.827600
C2501	C250	0.088550	0.450220	0.887760
H1931	H193	0.069500	0.451000	0.856000
C2511	C251	0.173230	0.415050	0.901410
C2521	C252	0.154240	0.375600	0.867120
H1941	H194	0.124200	0.362500	0.855500
H1951	H195	0.276400	0.507200	0.890000
H1961	H196	0.251900	0.549000	0.993500
O571	O57	0.695540	0.808620	0.258290
O581	O58	0.721960	0.821920	0.359710
C2531	C253	0.721060	0.810270	0.301590
C2541	C254	0.753450	0.795910	0.283640
C2551	C255	0.781390	0.795190	0.330020
H1971	H197	0.780870	0.804630	0.372730
C2561	C256	0.810440	0.780460	0.313850
H1981	H198	0.829270	0.779630	0.345830
C2571	C257	0.811830	0.767260	0.252020
C2581	C258	0.784700	0.770080	0.204410
H1991	H199	0.786670	0.762730	0.160930
C2591	C259	0.755220	0.783550	0.221090
H2001	H200	0.736170	0.784330	0.189330
C2601	C260	0.839900	0.748380	0.234740
C2611	C261	0.820910	0.708930	0.200450
H2011	H201	0.790870	0.695830	0.188830
H2021	H202	0.943070	0.840530	0.223330
H2031	H203	0.918570	0.882330	0.326830
O591	O59	0.362200	0.141960	0.591630
O601	O60	0.388620	0.155260	0.693050
C2621	C262	0.387720	0.143610	0.634930
C2631	C263	0.420110	0.129250	0.616980
C2641	C264	0.448050	0.128530	0.663360
H2041	H204	0.447530	0.137970	0.706070
C2651	C265	0.477100	0.113800	0.647190
H2051	H205	0.495930	0.112970	0.679170
C2661	C266	0.478490	0.100600	0.585360
C2671	C267	0.451360	0.103420	0.537750
H2061	H206	0.453330	0.096070	0.494270
C2681	C268	0.421880	0.116890	0.554430
H2071	H207	0.402830	0.117670	0.522670
C2691	C269	0.506560	0.081720	0.568080
C2701	C270	0.487570	0.042270	0.533790
H2081	H208	0.457530	0.029170	0.522170
H2091	H209	0.609730	0.173870	0.556670
H2101	H210	0.585230	0.215670	0.660170
O611	O61	0.446420	0.971130	0.924960
O621	O62	0.433300	0.944710	0.026380
C2711	C271	0.422550	0.945610	0.968260
C2721	C272	0.375800	0.913220	0.950310
C2731	C273	0.347140	0.885280	0.996690
H2111	H211	0.357100	0.885800	0.039400
C2741	C274	0.303360	0.856230	0.980520
H2121	H212	0.283700	0.837400	0.012500
C2751	C275	0.288770	0.854840	0.918690
C2761	C276	0.318720	0.881970	0.871080
H2131	H213	0.309400	0.880000	0.827600
C2771	C277	0.361670	0.911450	0.887760
H2141	H214	0.381500	0.930500	0.856000
C2781	C278	0.241820	0.826770	0.901410
C2791	C279	0.221360	0.845760	0.867120
H2151	H215	0.238300	0.875800	0.855500
H2161	H216	0.230800	0.723600	0.890000
H2171	H217	0.297100	0.748100	0.993500
O631	O63	0.113090	0.304460	0.258290
O641	O64	0.099970	0.278040	0.359710
C2801	C280	0.089220	0.278940	0.301590
C2811	C281	0.042470	0.246550	0.283640
C2821	C282	0.013810	0.218610	0.330020
H2181	H218	0.023770	0.219130	0.372730
C2831	C283	0.970030	0.189560	0.313850
H2191	H219	0.950370	0.170730	0.345830
C2841	C284	0.955440	0.188170	0.252020
C2851	C285	0.985390	0.215300	0.204410
H2201	H220	0.976070	0.213330	0.160930
C2861	C286	0.028340	0.244780	0.221090
H2211	H221	0.048170	0.263830	0.189330
C2871	C287	0.908490	0.160100	0.234740
C2881	C288	0.888030	0.179090	0.200450
H2221	H222	0.904970	0.209130	0.188830
H2231	H223	0.897470	0.056930	0.223330
H2241	H224	0.963770	0.081430	0.326830
O651	O65	0.779750	0.637800	0.591630
O661	O66	0.766630	0.611380	0.693050
C2891	C289	0.755880	0.612280	0.634930
C2901	C290	0.709130	0.579890	0.616980
C2911	C291	0.680470	0.551950	0.663360
H2251	H225	0.690430	0.552470	0.706070
C2921	C292	0.636690	0.522900	0.647190
H2261	H226	0.617030	0.504070	0.679170
C2931	C293	0.622100	0.521510	0.585360
C2941	C294	0.652050	0.548640	0.537750
H2271	H227	0.642730	0.546670	0.494270
C2951	C295	0.695000	0.578120	0.554430
H2281	H228	0.714830	0.597170	0.522670
C2961	C296	0.575150	0.493440	0.568080
C2971	C297	0.554690	0.512430	0.533790
H2291	H229	0.571630	0.542470	0.522170
H2301	H230	0.564130	0.390270	0.556670
H2311	H231	0.630430	0.414770	0.660170
O671	O67	0.524710	0.553580	0.924960
O681	O68	0.511410	0.566700	0.026380
C2981	C298	0.523060	0.577450	0.968260
C2991	C299	0.537420	0.624200	0.950310
C3001	C300	0.538140	0.652860	0.996690
H2321	H232	0.528700	0.642900	0.039400
C3011	C301	0.552870	0.696640	0.980520
H2331	H233	0.553700	0.716300	0.012500
C3021	C302	0.566070	0.711230	0.918690
C3031	C303	0.563250	0.681280	0.871080
H2341	H234	0.570600	0.690600	0.827600
C3041	C304	0.549780	0.638330	0.887760
H2351	H235	0.549000	0.618500	0.856000
C3051	C305	0.584950	0.758180	0.901410
C3061	C306	0.624400	0.778640	0.867120
H2361	H236	0.637500	0.761700	0.855500
H2371	H237	0.492800	0.769200	0.890000
H2381	H238	0.451000	0.702900	0.993500
O691	O69	0.191380	0.886910	0.258290
O701	O70	0.178080	0.900030	0.359710
C3071	C307	0.189730	0.910780	0.301590
C3081	C308	0.204090	0.957530	0.283640
C3091	C309	0.204810	0.986190	0.330020
H2391	H239	0.195370	0.976230	0.372730
C3101	C310	0.219540	0.029970	0.313850
H2401	H240	0.220370	0.049630	0.345830
C3111	C311	0.232740	0.044560	0.252020
C3121	C312	0.229920	0.014610	0.204410
H2411	H241	0.237270	0.023930	0.160930
C3131	C313	0.216450	0.971660	0.221090
H2421	H242	0.215670	0.951830	0.189330
C3141	C314	0.251620	0.091510	0.234740
C3151	C315	0.291070	0.111970	0.200450
H2431	H243	0.304170	0.095030	0.188830
H2441	H244	0.159470	0.102530	0.223330
H2451	H245	0.117670	0.036230	0.326830
O711	O71	0.858040	0.220250	0.591630
O721	O72	0.844740	0.233370	0.693050
C3161	C316	0.856390	0.244120	0.634930
C3171	C317	0.870750	0.290870	0.616980
C3181	C318	0.871470	0.319530	0.663360
H2461	H246	0.862030	0.309570	0.706070
C3191	C319	0.886200	0.363310	0.647190
H2471	H247	0.887030	0.382970	0.679170
C3201	C320	0.899400	0.377900	0.585360
C3211	C321	0.896580	0.347950	0.537750
H2481	H248	0.903930	0.357270	0.494270
C3221	C322	0.883110	0.305000	0.554430
H2491	H249	0.882330	0.285170	0.522670
C3231	C323	0.918280	0.424850	0.568080
C3241	C324	0.957730	0.445310	0.533790
H2501	H250	0.970830	0.428370	0.522170
H2511	H251	0.826130	0.435870	0.556670
H2521	H252	0.784330	0.369570	0.660170
Cu11	Cu1	0.507680	0.015360	0.940490
Cu21	Cu2	0.174350	0.348690	0.273820
Cu31	Cu3	0.841010	0.682030	0.607160
Cu41	Cu4	0.984640	0.492320	0.940490
Cu51	Cu5	0.651310	0.825650	0.273820
Cu61	Cu6	0.317970	0.158990	0.607160
Cu71	Cu7	0.507680	0.492320	0.940490
Cu81	Cu8	0.174350	0.825650	0.273820
Cu91	Cu9	0.841010	0.158990	0.607160
Cu101	Cu10	0.015360	0.507680	0.059510
Cu111	Cu11	0.682030	0.841010	0.392840
Cu121	Cu12	0.348690	0.174350	0.726180
Cu131	Cu13	0.492320	0.984640	0.059510
Cu141	Cu14	0.158990	0.317970	0.392840
Cu151	Cu15	0.825650	0.651310	0.726180
Cu161	Cu16	0.492320	0.507680	0.059510
Cu171	Cu17	0.158990	0.841010	0.392840
Cu181	Cu18	0.825650	0.174350	0.726180
O731	O73	0.527730	0.763860	0.953850
C3251	C325	0.645410	0.822700	0.849200
C3261	C326	0.565070	0.782530	0.918200
C3271	C327	0.493200	0.746600	0.917900
C3281	C328	0.450300	0.725150	0.966100
H2531	H253	0.423400	0.711700	0.940200
O741	O74	0.194400	0.097200	0.287180
C3291	C329	0.312080	0.156040	0.182530
C3301	C330	0.231740	0.115870	0.251530
C3311	C331	0.159870	0.079930	0.251230
C3321	C332	0.116970	0.058480	0.299430
H2541	H254	0.090070	0.045030	0.273530
O751	O75	0.861060	0.430530	0.620520
C3331	C333	0.978740	0.489370	0.515870
C3341	C334	0.898400	0.449200	0.584870
C3351	C335	0.826530	0.413270	0.584570
C3361	C336	0.783630	0.391820	0.632770
H2551	H255	0.756730	0.378370	0.606870
O761	O76	0.236140	0.763860	0.953850
C3371	C337	0.177300	0.822700	0.849200
C3381	C338	0.217470	0.782530	0.918200
C3391	C339	0.253400	0.746600	0.917900
C3401	C340	0.274850	0.725150	0.966100
H2561	H256	0.288300	0.711700	0.940200
O771	O77	0.902800	0.097200	0.287180
C3411	C341	0.843960	0.156040	0.182530
C3421	C342	0.884130	0.115870	0.251530
C3431	C343	0.920070	0.079930	0.251230
C3441	C344	0.941520	0.058480	0.299430
H2571	H257	0.954970	0.045030	0.273530
O781	O78	0.569470	0.430530	0.620520
C3451	C345	0.510630	0.489370	0.515870
C3461	C346	0.550800	0.449200	0.584870
C3471	C347	0.586730	0.413270	0.584570
C3481	C348	0.608180	0.391820	0.632770
H2581	H258	0.621630	0.378370	0.606870
O791	O79	0.236140	0.472270	0.953850
C3491	C349	0.177300	0.354590	0.849200
C3501	C350	0.217470	0.434930	0.918200
C3511	C351	0.253400	0.506800	0.917900
C3521	C352	0.274850	0.549700	0.966100
H2591	H259	0.288300	0.576600	0.940200
O801	O80	0.902800	0.805600	0.287180
C3531	C353	0.843960	0.687920	0.182530
C3541	C354	0.884130	0.768260	0.251530
C3551	C355	0.920070	0.840130	0.251230
C3561	C356	0.941520	0.883030	0.299430
H2601	H260	0.954970	0.909930	0.273530
O811	O81	0.569470	0.138940	0.620520
C3571	C357	0.510630	0.021260	0.515870
C3581	C358	0.550800	0.101600	0.584870
C3591	C359	0.586730	0.173470	0.584570
C3601	C360	0.608180	0.216370	0.632770
H2611	H261	0.621630	0.243270	0.606870
O821	O82	0.763860	0.527730	0.046150
C3611	C361	0.822700	0.645410	0.150800
C3621	C362	0.782530	0.565070	0.081800
C3631	C363	0.746600	0.493200	0.082100
C3641	C364	0.725150	0.450300	0.033900
H2621	H262	0.711700	0.423400	0.059800
O831	O83	0.430530	0.861060	0.379480
C3651	C365	0.489370	0.978740	0.484130
C3661	C366	0.449200	0.898400	0.415130
C3671	C367	0.413270	0.826530	0.415430
C3681	C368	0.391820	0.783630	0.367230
H2631	H263	0.378370	0.756730	0.393130
O841	O84	0.097200	0.194400	0.712820
C3691	C369	0.156040	0.312080	0.817470
C3701	C370	0.115870	0.231740	0.748470
C3711	C371	0.079930	0.159870	0.748770
C3721	C372	0.058480	0.116970	0.700570
H2641	H264	0.045030	0.090070	0.726470
O851	O85	0.763860	0.236140	0.046150
C3731	C373	0.822700	0.177300	0.150800
C3741	C374	0.782530	0.217470	0.081800
C3751	C375	0.746600	0.253400	0.082100
C3761	C376	0.725150	0.274850	0.033900
H2651	H265	0.711700	0.288300	0.059800
O861	O86	0.430530	0.569470	0.379480
C3771	C377	0.489370	0.510630	0.484130
C3781	C378	0.449200	0.550800	0.415130
C3791	C379	0.413270	0.586730	0.415430
C3801	C380	0.391820	0.608180	0.367230
H2661	H266	0.378370	0.621630	0.393130
O871	O87	0.097200	0.902800	0.712820
C3811	C381	0.156040	0.843960	0.817470
C3821	C382	0.115870	0.884130	0.748470
C3831	C383	0.079930	0.920070	0.748770
C3841	C384	0.058480	0.941520	0.700570
H2671	H267	0.045030	0.954970	0.726470
O881	O88	0.472270	0.236140	0.046150
C3851	C385	0.354590	0.177300	0.150800
C3861	C386	0.434930	0.217470	0.081800
C3871	C387	0.506800	0.253400	0.082100
C3881	C388	0.549700	0.274850	0.033900
H2681	H268	0.576600	0.288300	0.059800
O891	O89	0.138940	0.569470	0.379480
C3891	C389	0.021260	0.510630	0.484130
C3901	C390	0.101600	0.550800	0.415130
C3911	C391	0.173470	0.586730	0.415430
C3921	C392	0.216370	0.608180	0.367230
H2691	H269	0.243270	0.621630	0.393130
O901	O90	0.805600	0.902800	0.712820
C3931	C393	0.687920	0.843960	0.817470
C3941	C394	0.768260	0.884130	0.748470
C3951	C395	0.840130	0.920070	0.748770
C3961	C396	0.883030	0.941520	0.700570
H2701	H270	0.909930	0.954970	0.726470
