data_UMUBOV_clean_PM
_symmetry_space_group_name_H-M	'P1'
_cell_length_a	35.348400
_cell_length_b	35.348400
_cell_length_c	20.088100
_cell_angle_alpha	90.000000
_cell_angle_beta	90.000000
_cell_angle_gamma	120.000000
_symmetry_Int_Tables_number 1

loop_
_symmetry_equiv_pos_as_xyz
'x,y,z'

loop_
_atom_site_label
_atom_site_type_symbol
_atom_site_fract_x
_atom_site_fract_y
_atom_site_fract_z
O11	O1	0.779350	0.636700	0.591600
C11	C1	0.755740	0.612210	0.636960
O21	O2	0.766930	0.611950	0.696840
C21	C2	0.708830	0.579780	0.620420
C31	C3	0.680090	0.552060	0.668440
H11	H1	0.690100	0.552700	0.712500
C41	C4	0.636560	0.523280	0.652340
H21	H2	0.617400	0.504000	0.685400
C51	C5	0.621390	0.522330	0.591130
C61	C6	0.650530	0.548570	0.539000
H31	H3	0.640800	0.546200	0.494300
C71	C7	0.694200	0.578070	0.556800
H41	H4	0.713900	0.597100	0.524100
C81	C8	0.574040	0.494690	0.573300
C91	C9	0.554520	0.512460	0.535000
H51	H5	0.571900	0.541800	0.520500
H61	H6	0.611700	0.433900	0.558700
H71	H7	0.629300	0.416000	0.665600
O31	O3	0.446020	0.970030	0.924930
C101	C10	0.422410	0.945540	0.970290
O41	O4	0.433600	0.945280	0.030170
C111	C11	0.375500	0.913110	0.953750
C121	C12	0.346760	0.885390	0.001770
H81	H8	0.356770	0.886030	0.045830
C131	C13	0.303230	0.856610	0.985670
H91	H9	0.284070	0.837330	0.018730
C141	C14	0.288060	0.855660	0.924460
C151	C15	0.317200	0.881900	0.872330
H101	H10	0.307470	0.879530	0.827630
C161	C16	0.360870	0.911400	0.890130
H111	H11	0.380570	0.930430	0.857430
C171	C17	0.240710	0.828020	0.906630
C181	C18	0.221190	0.845790	0.868330
H121	H12	0.238570	0.875130	0.853830
H131	H13	0.278370	0.767230	0.892030
H141	H14	0.295970	0.749330	0.998930
O51	O5	0.112680	0.303370	0.258270
C191	C19	0.089070	0.278880	0.303630
O61	O6	0.100260	0.278620	0.363510
C201	C20	0.042160	0.246450	0.287090
C211	C21	0.013420	0.218730	0.335110
H151	H15	0.023430	0.219370	0.379170
C221	C22	0.969890	0.189950	0.319010
H161	H16	0.950730	0.170670	0.352070
C231	C23	0.954720	0.189000	0.257800
C241	C24	0.983860	0.215240	0.205670
H171	H17	0.974130	0.212870	0.160970
C251	C25	0.027530	0.244740	0.223470
H181	H18	0.047230	0.263770	0.190770
C261	C26	0.907370	0.161360	0.239970
C271	C27	0.887850	0.179130	0.201670
H191	H19	0.905230	0.208470	0.187170
H201	H20	0.945030	0.100570	0.225370
H211	H21	0.962630	0.082670	0.332270
O71	O7	0.363300	0.142650	0.591600
C281	C28	0.387790	0.143530	0.636960
O81	O8	0.388050	0.154980	0.696840
C291	C29	0.420220	0.129050	0.620420
C301	C30	0.447940	0.128030	0.668440
H221	H22	0.447300	0.137400	0.712500
C311	C31	0.476720	0.113280	0.652340
H231	H23	0.496000	0.113400	0.685400
C321	C32	0.477670	0.099060	0.591130
C331	C33	0.451430	0.101960	0.539000
H241	H24	0.453800	0.094600	0.494300
C341	C34	0.421930	0.116130	0.556800
H251	H25	0.402900	0.116800	0.524100
C351	C35	0.505310	0.079350	0.573300
C361	C36	0.487540	0.042060	0.535000
H261	H26	0.458200	0.030100	0.520500
H271	H27	0.566100	0.177800	0.558700
H281	H28	0.584000	0.213300	0.665600
O91	O9	0.029970	0.475980	0.924930
C371	C37	0.054460	0.476860	0.970290
O101	O10	0.054720	0.488310	0.030170
C381	C38	0.086890	0.462380	0.953750
C391	C39	0.114610	0.461360	0.001770
H291	H29	0.113970	0.470730	0.045830
C401	C40	0.143390	0.446610	0.985670
H301	H30	0.162670	0.446730	0.018730
C411	C41	0.144340	0.432390	0.924460
C421	C42	0.118100	0.435290	0.872330
H311	H31	0.120470	0.427930	0.827630
C431	C43	0.088600	0.449460	0.890130
H321	H32	0.069570	0.450130	0.857430
C441	C44	0.171980	0.412680	0.906630
C451	C45	0.154210	0.375390	0.868330
H331	H33	0.124870	0.363430	0.853830
H341	H34	0.232770	0.511130	0.892030
H351	H35	0.250670	0.546630	0.998930
O111	O11	0.696630	0.809320	0.258270
C461	C46	0.721120	0.810200	0.303630
O121	O12	0.721380	0.821650	0.363510
C471	C47	0.753550	0.795720	0.287090
C481	C48	0.781270	0.794700	0.335110
H361	H36	0.780630	0.804070	0.379170
C491	C49	0.810050	0.779950	0.319010
H371	H37	0.829330	0.780070	0.352070
C501	C50	0.811000	0.765730	0.257800
C511	C51	0.784760	0.768630	0.205670
H381	H38	0.787130	0.761270	0.160970
C521	C52	0.755260	0.782800	0.223470
H391	H39	0.736230	0.783470	0.190770
C531	C53	0.838640	0.746020	0.239970
C541	C54	0.820870	0.708730	0.201670
H401	H40	0.791530	0.696770	0.187170
H411	H41	0.899430	0.844470	0.225370
H421	H42	0.917330	0.879970	0.332270
O131	O13	0.857350	0.220650	0.591600
C551	C55	0.856470	0.244260	0.636960
O141	O14	0.845020	0.233070	0.696840
C561	C56	0.870950	0.291170	0.620420
C571	C57	0.871970	0.319910	0.668440
H431	H43	0.862600	0.309900	0.712500
C581	C58	0.886720	0.363440	0.652340
H441	H44	0.886600	0.382600	0.685400
C591	C59	0.900940	0.378610	0.591130
C601	C60	0.898040	0.349470	0.539000
H451	H45	0.905400	0.359200	0.494300
C611	C61	0.883870	0.305800	0.556800
H461	H46	0.883200	0.286100	0.524100
C621	C62	0.920650	0.425960	0.573300
C631	C63	0.957940	0.445480	0.535000
H471	H47	0.969900	0.428100	0.520500
H481	H48	0.822200	0.388300	0.558700
H491	H49	0.786700	0.370700	0.665600
O151	O15	0.524020	0.553980	0.924930
C641	C64	0.523140	0.577590	0.970290
O161	O16	0.511690	0.566400	0.030170
C651	C65	0.537620	0.624500	0.953750
C661	C66	0.538640	0.653240	0.001770
H501	H50	0.529270	0.643230	0.045830
C671	C67	0.553390	0.696770	0.985670
H511	H51	0.553270	0.715930	0.018730
C681	C68	0.567610	0.711940	0.924460
C691	C69	0.564710	0.682800	0.872330
H521	H52	0.572070	0.692530	0.827630
C701	C70	0.550540	0.639130	0.890130
H531	H53	0.549870	0.619430	0.857430
C711	C71	0.587320	0.759290	0.906630
C721	C72	0.624610	0.778810	0.868330
H541	H54	0.636570	0.761430	0.853830
H551	H55	0.488870	0.721630	0.892030
H561	H56	0.453370	0.704030	0.998930
O171	O17	0.190680	0.887320	0.258270
C731	C73	0.189800	0.910930	0.303630
O181	O18	0.178350	0.899740	0.363510
C741	C74	0.204280	0.957840	0.287090
C751	C75	0.205300	0.986580	0.335110
H571	H57	0.195930	0.976570	0.379170
C761	C76	0.220050	0.030110	0.319010
H581	H58	0.219930	0.049270	0.352070
C771	C77	0.234270	0.045280	0.257800
C781	C78	0.231370	0.016140	0.205670
H591	H59	0.238730	0.025870	0.160970
C791	C79	0.217200	0.972470	0.223470
H601	H60	0.216530	0.952770	0.190770
C801	C80	0.253980	0.092630	0.239970
C811	C81	0.291270	0.112150	0.201670
H611	H61	0.303230	0.094770	0.187170
H621	H62	0.155530	0.054970	0.225370
H631	H63	0.120030	0.037370	0.332270
O191	O19	0.636700	0.779350	0.408400
C821	C82	0.612210	0.755740	0.363040
O201	O20	0.611950	0.766930	0.303160
C831	C83	0.579780	0.708830	0.379580
C841	C84	0.552060	0.680090	0.331560
H641	H64	0.552700	0.690100	0.287500
C851	C85	0.523280	0.636560	0.347660
H651	H65	0.504000	0.617400	0.314600
C861	C86	0.522330	0.621390	0.408870
C871	C87	0.548570	0.650530	0.461000
H661	H66	0.546200	0.640800	0.505700
C881	C88	0.578070	0.694200	0.443200
H671	H67	0.597100	0.713900	0.475900
C891	C89	0.494690	0.574040	0.426700
C901	C90	0.512460	0.554520	0.465000
H681	H68	0.541800	0.571900	0.479500
H691	H69	0.433900	0.611700	0.441300
H701	H70	0.416000	0.629300	0.334400
O211	O21	0.303370	0.112680	0.741730
C911	C91	0.278880	0.089070	0.696370
O221	O22	0.278620	0.100260	0.636490
C921	C92	0.246450	0.042160	0.712910
C931	C93	0.218730	0.013420	0.664890
H711	H71	0.219370	0.023430	0.620830
C941	C94	0.189950	0.969890	0.680990
H721	H72	0.170670	0.950730	0.647930
C951	C95	0.189000	0.954720	0.742200
C961	C96	0.215240	0.983860	0.794330
H731	H73	0.212870	0.974130	0.839030
C971	C97	0.244740	0.027530	0.776530
H741	H74	0.263770	0.047230	0.809230
C981	C98	0.161360	0.907370	0.760030
C991	C99	0.179130	0.887850	0.798330
H751	H75	0.208470	0.905230	0.812830
H761	H76	0.100570	0.945030	0.774630
H771	H77	0.082670	0.962630	0.667730
O231	O23	0.970030	0.446020	0.075070
C1001	C100	0.945540	0.422410	0.029710
O241	O24	0.945280	0.433600	0.969830
C1011	C101	0.913110	0.375500	0.046250
C1021	C102	0.885390	0.346760	0.998230
H781	H78	0.886030	0.356770	0.954170
C1031	C103	0.856610	0.303230	0.014330
H791	H79	0.837330	0.284070	0.981270
C1041	C104	0.855660	0.288060	0.075540
C1051	C105	0.881900	0.317200	0.127670
H801	H80	0.879530	0.307470	0.172370
C1061	C106	0.911400	0.360870	0.109870
H811	H81	0.930430	0.380570	0.142570
C1071	C107	0.828020	0.240710	0.093370
C1081	C108	0.845790	0.221190	0.131670
H821	H82	0.875130	0.238570	0.146170
H831	H83	0.767230	0.278370	0.107970
H841	H84	0.749330	0.295970	0.001070
O251	O25	0.142650	0.363300	0.408400
C1091	C109	0.143530	0.387790	0.363040
O261	O26	0.154980	0.388050	0.303160
C1101	C110	0.129050	0.420220	0.379580
C1111	C111	0.128030	0.447940	0.331560
H851	H85	0.137400	0.447300	0.287500
C1121	C112	0.113280	0.476720	0.347660
H861	H86	0.113400	0.496000	0.314600
C1131	C113	0.099060	0.477670	0.408870
C1141	C114	0.101960	0.451430	0.461000
H871	H87	0.094600	0.453800	0.505700
C1151	C115	0.116130	0.421930	0.443200
H881	H88	0.116800	0.402900	0.475900
C1161	C116	0.079350	0.505310	0.426700
C1171	C117	0.042060	0.487540	0.465000
H891	H89	0.030100	0.458200	0.479500
H901	H90	0.177800	0.566100	0.441300
H911	H91	0.213300	0.584000	0.334400
O271	O27	0.809320	0.696630	0.741730
C1181	C118	0.810200	0.721120	0.696370
O281	O28	0.821650	0.721380	0.636490
C1191	C119	0.795720	0.753550	0.712910
C1201	C120	0.794700	0.781270	0.664890
H921	H92	0.804070	0.780630	0.620830
C1211	C121	0.779950	0.810050	0.680990
H931	H93	0.780070	0.829330	0.647930
C1221	C122	0.765730	0.811000	0.742200
C1231	C123	0.768630	0.784760	0.794330
H941	H94	0.761270	0.787130	0.839030
C1241	C124	0.782800	0.755260	0.776530
H951	H95	0.783470	0.736230	0.809230
C1251	C125	0.746020	0.838640	0.760030
C1261	C126	0.708730	0.820870	0.798330
H961	H96	0.696770	0.791530	0.812830
H971	H97	0.844470	0.899430	0.774630
H981	H98	0.879970	0.917330	0.667730
O291	O29	0.475980	0.029970	0.075070
C1271	C127	0.476860	0.054460	0.029710
O301	O30	0.488310	0.054720	0.969830
C1281	C128	0.462380	0.086890	0.046250
C1291	C129	0.461360	0.114610	0.998230
H991	H99	0.470730	0.113970	0.954170
C1301	C130	0.446610	0.143390	0.014330
H1001	H100	0.446730	0.162670	0.981270
C1311	C131	0.432390	0.144340	0.075540
C1321	C132	0.435290	0.118100	0.127670
H1011	H101	0.427930	0.120470	0.172370
C1331	C133	0.449460	0.088600	0.109870
H1021	H102	0.450130	0.069570	0.142570
C1341	C134	0.412680	0.171980	0.093370
C1351	C135	0.375390	0.154210	0.131670
H1031	H103	0.363430	0.124870	0.146170
H1041	H104	0.511130	0.232770	0.107970
H1051	H105	0.546630	0.250670	0.001070
O311	O31	0.220650	0.857350	0.408400
C1361	C136	0.244260	0.856470	0.363040
O321	O32	0.233070	0.845020	0.303160
C1371	C137	0.291170	0.870950	0.379580
C1381	C138	0.319910	0.871970	0.331560
H1061	H106	0.309900	0.862600	0.287500
C1391	C139	0.363440	0.886720	0.347660
H1071	H107	0.382600	0.886600	0.314600
C1401	C140	0.378610	0.900940	0.408870
C1411	C141	0.349470	0.898040	0.461000
H1081	H108	0.359200	0.905400	0.505700
C1421	C142	0.305800	0.883870	0.443200
H1091	H109	0.286100	0.883200	0.475900
C1431	C143	0.425960	0.920650	0.426700
C1441	C144	0.445480	0.957940	0.465000
H1101	H110	0.428100	0.969900	0.479500
H1111	H111	0.388300	0.822200	0.441300
H1121	H112	0.370700	0.786700	0.334400
O331	O33	0.887320	0.190680	0.741730
C1451	C145	0.910930	0.189800	0.696370
O341	O34	0.899740	0.178350	0.636490
C1461	C146	0.957840	0.204280	0.712910
C1471	C147	0.986580	0.205300	0.664890
H1131	H113	0.976570	0.195930	0.620830
C1481	C148	0.030110	0.220050	0.680990
H1141	H114	0.049270	0.219930	0.647930
C1491	C149	0.045280	0.234270	0.742200
C1501	C150	0.016140	0.231370	0.794330
H1151	H115	0.025870	0.238730	0.839030
C1511	C151	0.972470	0.217200	0.776530
H1161	H116	0.952770	0.216530	0.809230
C1521	C152	0.092630	0.253980	0.760030
C1531	C153	0.112150	0.291270	0.798330
H1171	H117	0.094770	0.303230	0.812830
H1181	H118	0.054970	0.155530	0.774630
H1191	H119	0.037370	0.120030	0.667730
O351	O35	0.553980	0.524020	0.075070
C1541	C154	0.577590	0.523140	0.029710
O361	O36	0.566400	0.511690	0.969830
C1551	C155	0.624500	0.537620	0.046250
C1561	C156	0.653240	0.538640	0.998230
H1201	H120	0.643230	0.529270	0.954170
C1571	C157	0.696770	0.553390	0.014330
H1211	H121	0.715930	0.553270	0.981270
C1581	C158	0.711940	0.567610	0.075540
C1591	C159	0.682800	0.564710	0.127670
H1221	H122	0.692530	0.572070	0.172370
C1601	C160	0.639130	0.550540	0.109870
H1231	H123	0.619430	0.549870	0.142570
C1611	C161	0.759290	0.587320	0.093370
C1621	C162	0.778810	0.624610	0.131670
H1241	H124	0.761430	0.636570	0.146170
H1251	H125	0.721630	0.488870	0.107970
H1261	H126	0.704030	0.453370	0.001070
O371	O37	0.220650	0.363300	0.408400
C1631	C163	0.244260	0.387790	0.363040
O381	O38	0.233070	0.388050	0.303160
C1641	C164	0.291170	0.420220	0.379580
C1651	C165	0.319910	0.447940	0.331560
H1271	H127	0.309900	0.447300	0.287500
C1661	C166	0.363440	0.476720	0.347660
H1281	H128	0.382600	0.496000	0.314600
C1671	C167	0.378610	0.477670	0.408870
C1681	C168	0.349470	0.451430	0.461000
H1291	H129	0.359200	0.453800	0.505700
C1691	C169	0.305800	0.421930	0.443200
H1301	H130	0.286100	0.402900	0.475900
C1701	C170	0.425960	0.505310	0.426700
C1711	C171	0.445480	0.487540	0.465000
H1311	H131	0.428100	0.458200	0.479500
H1321	H132	0.388300	0.566100	0.441300
H1331	H133	0.370700	0.584000	0.334400
O391	O39	0.887320	0.696630	0.741730
C1721	C172	0.910930	0.721120	0.696370
O401	O40	0.899740	0.721380	0.636490
C1731	C173	0.957840	0.753550	0.712910
C1741	C174	0.986580	0.781270	0.664890
H1341	H134	0.976570	0.780630	0.620830
C1751	C175	0.030110	0.810050	0.680990
H1351	H135	0.049270	0.829330	0.647930
C1761	C176	0.045280	0.811000	0.742200
C1771	C177	0.016140	0.784760	0.794330
H1361	H136	0.025870	0.787130	0.839030
C1781	C178	0.972470	0.755260	0.776530
H1371	H137	0.952770	0.736230	0.809230
C1791	C179	0.092630	0.838640	0.760030
C1801	C180	0.112150	0.820870	0.798330
H1381	H138	0.094770	0.791530	0.812830
H1391	H139	0.054970	0.899430	0.774630
H1401	H140	0.037370	0.917330	0.667730
O411	O41	0.553980	0.029970	0.075070
C1811	C181	0.577590	0.054460	0.029710
O421	O42	0.566400	0.054720	0.969830
C1821	C182	0.624500	0.086890	0.046250
C1831	C183	0.653240	0.114610	0.998230
H1411	H141	0.643230	0.113970	0.954170
C1841	C184	0.696770	0.143390	0.014330
H1421	H142	0.715930	0.162670	0.981270
C1851	C185	0.711940	0.144340	0.075540
C1861	C186	0.682800	0.118100	0.127670
H1431	H143	0.692530	0.120470	0.172370
C1871	C187	0.639130	0.088600	0.109870
H1441	H144	0.619430	0.069570	0.142570
C1881	C188	0.759290	0.171980	0.093370
C1891	C189	0.778810	0.154210	0.131670
H1451	H145	0.761430	0.124870	0.146170
H1461	H146	0.721630	0.232770	0.107970
H1471	H147	0.704030	0.250670	0.001070
O431	O43	0.636700	0.857350	0.408400
C1901	C190	0.612210	0.856470	0.363040
O441	O44	0.611950	0.845020	0.303160
C1911	C191	0.579780	0.870950	0.379580
C1921	C192	0.552060	0.871970	0.331560
H1481	H148	0.552700	0.862600	0.287500
C1931	C193	0.523280	0.886720	0.347660
H1491	H149	0.504000	0.886600	0.314600
C1941	C194	0.522330	0.900940	0.408870
C1951	C195	0.548570	0.898040	0.461000
H1501	H150	0.546200	0.905400	0.505700
C1961	C196	0.578070	0.883870	0.443200
H1511	H151	0.597100	0.883200	0.475900
C1971	C197	0.494690	0.920650	0.426700
C1981	C198	0.512460	0.957940	0.465000
H1521	H152	0.541800	0.969900	0.479500
H1531	H153	0.433900	0.822200	0.441300
H1541	H154	0.416000	0.786700	0.334400
O451	O45	0.303370	0.190680	0.741730
C1991	C199	0.278880	0.189800	0.696370
O461	O46	0.278620	0.178350	0.636490
C2001	C200	0.246450	0.204280	0.712910
C2011	C201	0.218730	0.205300	0.664890
H1551	H155	0.219370	0.195930	0.620830
C2021	C202	0.189950	0.220050	0.680990
H1561	H156	0.170670	0.219930	0.647930
C2031	C203	0.189000	0.234270	0.742200
C2041	C204	0.215240	0.231370	0.794330
H1571	H157	0.212870	0.238730	0.839030
C2051	C205	0.244740	0.217200	0.776530
H1581	H158	0.263770	0.216530	0.809230
C2061	C206	0.161360	0.253980	0.760030
C2071	C207	0.179130	0.291270	0.798330
H1591	H159	0.208470	0.303230	0.812830
H1601	H160	0.100570	0.155530	0.774630
H1611	H161	0.082670	0.120030	0.667730
O471	O47	0.970030	0.524020	0.075070
C2081	C208	0.945540	0.523140	0.029710
O481	O48	0.945280	0.511690	0.969830
C2091	C209	0.913110	0.537620	0.046250
C2101	C210	0.885390	0.538640	0.998230
H1621	H162	0.886030	0.529270	0.954170
C2111	C211	0.856610	0.553390	0.014330
H1631	H163	0.837330	0.553270	0.981270
C2121	C212	0.855660	0.567610	0.075540
C2131	C213	0.881900	0.564710	0.127670
H1641	H164	0.879530	0.572070	0.172370
C2141	C214	0.911400	0.550540	0.109870
H1651	H165	0.930430	0.549870	0.142570
C2151	C215	0.828020	0.587320	0.093370
C2161	C216	0.845790	0.624610	0.131670
H1661	H166	0.875130	0.636570	0.146170
H1671	H167	0.767230	0.488870	0.107970
H1681	H168	0.749330	0.453370	0.001070
O491	O49	0.142650	0.779350	0.408400
C2171	C217	0.143530	0.755740	0.363040
O501	O50	0.154980	0.766930	0.303160
C2181	C218	0.129050	0.708830	0.379580
C2191	C219	0.128030	0.680090	0.331560
H1691	H169	0.137400	0.690100	0.287500
C2201	C220	0.113280	0.636560	0.347660
H1701	H170	0.113400	0.617400	0.314600
C2211	C221	0.099060	0.621390	0.408870
C2221	C222	0.101960	0.650530	0.461000
H1711	H171	0.094600	0.640800	0.505700
C2231	C223	0.116130	0.694200	0.443200
H1721	H172	0.116800	0.713900	0.475900
C2241	C224	0.079350	0.574040	0.426700
C2251	C225	0.042060	0.554520	0.465000
H1731	H173	0.030100	0.571900	0.479500
H1741	H174	0.177800	0.611700	0.441300
H1751	H175	0.213300	0.629300	0.334400
O511	O51	0.809320	0.112680	0.741730
C2261	C226	0.810200	0.089070	0.696370
O521	O52	0.821650	0.100260	0.636490
C2271	C227	0.795720	0.042160	0.712910
C2281	C228	0.794700	0.013420	0.664890
H1761	H176	0.804070	0.023430	0.620830
C2291	C229	0.779950	0.969890	0.680990
H1771	H177	0.780070	0.950730	0.647930
C2301	C230	0.765730	0.954720	0.742200
C2311	C231	0.768630	0.983860	0.794330
H1781	H178	0.761270	0.974130	0.839030
C2321	C232	0.782800	0.027530	0.776530
H1791	H179	0.783470	0.047230	0.809230
C2331	C233	0.746020	0.907370	0.760030
C2341	C234	0.708730	0.887850	0.798330
H1801	H180	0.696770	0.905230	0.812830
H1811	H181	0.844470	0.945030	0.774630
H1821	H182	0.879970	0.962630	0.667730
O531	O53	0.475980	0.446020	0.075070
C2351	C235	0.476860	0.422410	0.029710
O541	O54	0.488310	0.433600	0.969830
C2361	C236	0.462380	0.375500	0.046250
C2371	C237	0.461360	0.346760	0.998230
H1831	H183	0.470730	0.356770	0.954170
C2381	C238	0.446610	0.303230	0.014330
H1841	H184	0.446730	0.284070	0.981270
C2391	C239	0.432390	0.288060	0.075540
C2401	C240	0.435290	0.317200	0.127670
H1851	H185	0.427930	0.307470	0.172370
C2411	C241	0.449460	0.360870	0.109870
H1861	H186	0.450130	0.380570	0.142570
C2421	C242	0.412680	0.240710	0.093370
C2431	C243	0.375390	0.221190	0.131670
H1871	H187	0.363430	0.238570	0.146170
H1881	H188	0.511130	0.278370	0.107970
H1891	H189	0.546630	0.295970	0.001070
O551	O55	0.363300	0.220650	0.591600
C2441	C244	0.387790	0.244260	0.636960
O561	O56	0.388050	0.233070	0.696840
C2451	C245	0.420220	0.291170	0.620420
C2461	C246	0.447940	0.319910	0.668440
H1901	H190	0.447300	0.309900	0.712500
C2471	C247	0.476720	0.363440	0.652340
H1911	H191	0.496000	0.382600	0.685400
C2481	C248	0.477670	0.378610	0.591130
C2491	C249	0.451430	0.349470	0.539000
H1921	H192	0.453800	0.359200	0.494300
C2501	C250	0.421930	0.305800	0.556800
H1931	H193	0.402900	0.286100	0.524100
C2511	C251	0.505310	0.425960	0.573300
C2521	C252	0.487540	0.445480	0.535000
H1941	H194	0.458200	0.428100	0.520500
H1951	H195	0.566100	0.388300	0.558700
H1961	H196	0.584000	0.370700	0.665600
O571	O57	0.029970	0.553980	0.924930
C2531	C253	0.054460	0.577590	0.970290
O581	O58	0.054720	0.566400	0.030170
C2541	C254	0.086890	0.624500	0.953750
C2551	C255	0.114610	0.653240	0.001770
H1971	H197	0.113970	0.643230	0.045830
C2561	C256	0.143390	0.696770	0.985670
H1981	H198	0.162670	0.715930	0.018730
C2571	C257	0.144340	0.711940	0.924460
C2581	C258	0.118100	0.682800	0.872330
H1991	H199	0.120470	0.692530	0.827630
C2591	C259	0.088600	0.639130	0.890130
H2001	H200	0.069570	0.619430	0.857430
C2601	C260	0.171980	0.759290	0.906630
C2611	C261	0.154210	0.778810	0.868330
H2011	H201	0.124870	0.761430	0.853830
H2021	H202	0.232770	0.721630	0.892030
H2031	H203	0.250670	0.704030	0.998930
O591	O59	0.696630	0.887320	0.258270
C2621	C262	0.721120	0.910930	0.303630
O601	O60	0.721380	0.899740	0.363510
C2631	C263	0.753550	0.957840	0.287090
C2641	C264	0.781270	0.986580	0.335110
H2041	H204	0.780630	0.976570	0.379170
C2651	C265	0.810050	0.030110	0.319010
H2051	H205	0.829330	0.049270	0.352070
C2661	C266	0.811000	0.045280	0.257800
C2671	C267	0.784760	0.016140	0.205670
H2061	H206	0.787130	0.025870	0.160970
C2681	C268	0.755260	0.972470	0.223470
H2071	H207	0.736230	0.952770	0.190770
C2691	C269	0.838640	0.092630	0.239970
C2701	C270	0.820870	0.112150	0.201670
H2081	H208	0.791530	0.094770	0.187170
H2091	H209	0.899430	0.054970	0.225370
H2101	H210	0.917330	0.037370	0.332270
O611	O61	0.857350	0.636700	0.591600
C2711	C271	0.856470	0.612210	0.636960
O621	O62	0.845020	0.611950	0.696840
C2721	C272	0.870950	0.579780	0.620420
C2731	C273	0.871970	0.552060	0.668440
H2111	H211	0.862600	0.552700	0.712500
C2741	C274	0.886720	0.523280	0.652340
H2121	H212	0.886600	0.504000	0.685400
C2751	C275	0.900940	0.522330	0.591130
C2761	C276	0.898040	0.548570	0.539000
H2131	H213	0.905400	0.546200	0.494300
C2771	C277	0.883870	0.578070	0.556800
H2141	H214	0.883200	0.597100	0.524100
C2781	C278	0.920650	0.494690	0.573300
C2791	C279	0.957940	0.512460	0.535000
H2151	H215	0.969900	0.541800	0.520500
H2161	H216	0.822200	0.433900	0.558700
H2171	H217	0.786700	0.416000	0.665600
O631	O63	0.524020	0.970030	0.924930
C2801	C280	0.523140	0.945540	0.970290
O641	O64	0.511690	0.945280	0.030170
C2811	C281	0.537620	0.913110	0.953750
C2821	C282	0.538640	0.885390	0.001770
H2181	H218	0.529270	0.886030	0.045830
C2831	C283	0.553390	0.856610	0.985670
H2191	H219	0.553270	0.837330	0.018730
C2841	C284	0.567610	0.855660	0.924460
C2851	C285	0.564710	0.881900	0.872330
H2201	H220	0.572070	0.879530	0.827630
C2861	C286	0.550540	0.911400	0.890130
H2211	H221	0.549870	0.930430	0.857430
C2871	C287	0.587320	0.828020	0.906630
C2881	C288	0.624610	0.845790	0.868330
H2221	H222	0.636570	0.875130	0.853830
H2231	H223	0.488870	0.767230	0.892030
H2241	H224	0.453370	0.749330	0.998930
O651	O65	0.190680	0.303370	0.258270
C2891	C289	0.189800	0.278880	0.303630
O661	O66	0.178350	0.278620	0.363510
C2901	C290	0.204280	0.246450	0.287090
C2911	C291	0.205300	0.218730	0.335110
H2251	H225	0.195930	0.219370	0.379170
C2921	C292	0.220050	0.189950	0.319010
H2261	H226	0.219930	0.170670	0.352070
C2931	C293	0.234270	0.189000	0.257800
C2941	C294	0.231370	0.215240	0.205670
H2271	H227	0.238730	0.212870	0.160970
C2951	C295	0.217200	0.244740	0.223470
H2281	H228	0.216530	0.263770	0.190770
C2961	C296	0.253980	0.161360	0.239970
C2971	C297	0.291270	0.179130	0.201670
H2291	H229	0.303230	0.208470	0.187170
H2301	H230	0.155530	0.100570	0.225370
H2311	H231	0.120030	0.082670	0.332270
O671	O67	0.779350	0.142650	0.591600
C2981	C298	0.755740	0.143530	0.636960
O681	O68	0.766930	0.154980	0.696840
C2991	C299	0.708830	0.129050	0.620420
C3001	C300	0.680090	0.128030	0.668440
H2321	H232	0.690100	0.137400	0.712500
C3011	C301	0.636560	0.113280	0.652340
H2331	H233	0.617400	0.113400	0.685400
C3021	C302	0.621390	0.099060	0.591130
C3031	C303	0.650530	0.101960	0.539000
H2341	H234	0.640800	0.094600	0.494300
C3041	C304	0.694200	0.116130	0.556800
H2351	H235	0.713900	0.116800	0.524100
C3051	C305	0.574040	0.079350	0.573300
C3061	C306	0.554520	0.042060	0.535000
H2361	H236	0.571900	0.030100	0.520500
H2371	H237	0.611700	0.177800	0.558700
H2381	H238	0.629300	0.213300	0.665600
O691	O69	0.446020	0.475980	0.924930
C3071	C307	0.422410	0.476860	0.970290
O701	O70	0.433600	0.488310	0.030170
C3081	C308	0.375500	0.462380	0.953750
C3091	C309	0.346760	0.461360	0.001770
H2391	H239	0.356770	0.470730	0.045830
C3101	C310	0.303230	0.446610	0.985670
H2401	H240	0.284070	0.446730	0.018730
C3111	C311	0.288060	0.432390	0.924460
C3121	C312	0.317200	0.435290	0.872330
H2411	H241	0.307470	0.427930	0.827630
C3131	C313	0.360870	0.449460	0.890130
H2421	H242	0.380570	0.450130	0.857430
C3141	C314	0.240710	0.412680	0.906630
C3151	C315	0.221190	0.375390	0.868330
H2431	H243	0.238570	0.363430	0.853830
H2441	H244	0.278370	0.511130	0.892030
H2451	H245	0.295970	0.546630	0.998930
O711	O71	0.112680	0.809320	0.258270
C3161	C316	0.089070	0.810200	0.303630
O721	O72	0.100260	0.821650	0.363510
C3171	C317	0.042160	0.795720	0.287090
C3181	C318	0.013420	0.794700	0.335110
H2461	H246	0.023430	0.804070	0.379170
C3191	C319	0.969890	0.779950	0.319010
H2471	H247	0.950730	0.780070	0.352070
C3201	C320	0.954720	0.765730	0.257800
C3211	C321	0.983860	0.768630	0.205670
H2481	H248	0.974130	0.761270	0.160970
C3221	C322	0.027530	0.782800	0.223470
H2491	H249	0.047230	0.783470	0.190770
C3231	C323	0.907370	0.746020	0.239970
C3241	C324	0.887850	0.708730	0.201670
H2501	H250	0.905230	0.696770	0.187170
H2511	H251	0.945030	0.844470	0.225370
H2521	H252	0.962630	0.879970	0.332270
Cu11	Cu1	0.826200	0.652400	0.728310
Cu21	Cu2	0.492870	0.985730	0.061640
Cu31	Cu3	0.159530	0.319070	0.394980
Cu41	Cu4	0.347600	0.173800	0.728310
Cu51	Cu5	0.014270	0.507130	0.061640
Cu61	Cu6	0.680930	0.840470	0.394980
Cu71	Cu7	0.826200	0.173800	0.728310
Cu81	Cu8	0.492870	0.507130	0.061640
Cu91	Cu9	0.159530	0.840470	0.394980
Cu101	Cu10	0.652400	0.826200	0.271690
Cu111	Cu11	0.319070	0.159530	0.605020
Cu121	Cu12	0.985730	0.492870	0.938360
Cu131	Cu13	0.173800	0.347600	0.271690
Cu141	Cu14	0.840470	0.680930	0.605020
Cu151	Cu15	0.507130	0.014270	0.938360
Cu161	Cu16	0.173800	0.826200	0.271690
Cu171	Cu17	0.840470	0.159530	0.605020
Cu181	Cu18	0.507130	0.492870	0.938360
O731	O73	0.568980	0.431020	0.627800
C3251	C325	0.510360	0.489640	0.516200
C3261	C326	0.549550	0.450450	0.592500
C3271	C327	0.588400	0.411600	0.587300
C3281	C328	0.607530	0.392470	0.637600
H2531	H253	0.621400	0.378600	0.613400
O741	O74	0.235650	0.764350	0.961130
C3291	C329	0.177030	0.822970	0.849530
C3301	C330	0.216220	0.783780	0.925830
C3311	C331	0.255070	0.744930	0.920630
C3321	C332	0.274200	0.725800	0.970930
H2541	H254	0.288070	0.711930	0.946730
O751	O75	0.902310	0.097690	0.294470
C3331	C333	0.843690	0.156310	0.182870
C3341	C334	0.882880	0.117120	0.259170
C3351	C335	0.921730	0.078270	0.253970
C3361	C336	0.940860	0.059140	0.304270
H2551	H255	0.954730	0.045270	0.280070
O761	O76	0.568980	0.137960	0.627800
C3371	C337	0.510360	0.020720	0.516200
C3381	C338	0.549550	0.099100	0.592500
C3391	C339	0.588400	0.176800	0.587300
C3401	C340	0.607530	0.215060	0.637600
H2561	H256	0.621400	0.242800	0.613400
O771	O77	0.235650	0.471290	0.961130
C3411	C341	0.177030	0.354050	0.849530
C3421	C342	0.216220	0.432430	0.925830
C3431	C343	0.255070	0.510130	0.920630
C3441	C344	0.274200	0.548390	0.970930
H2571	H257	0.288070	0.576130	0.946730
O781	O78	0.902310	0.804630	0.294470
C3451	C345	0.843690	0.687390	0.182870
C3461	C346	0.882880	0.765770	0.259170
C3471	C347	0.921730	0.843470	0.253970
C3481	C348	0.940860	0.881730	0.304270
H2581	H258	0.954730	0.909470	0.280070
O791	O79	0.862040	0.431020	0.627800
C3491	C349	0.979280	0.489640	0.516200
C3501	C350	0.900900	0.450450	0.592500
C3511	C351	0.823200	0.411600	0.587300
C3521	C352	0.784940	0.392470	0.637600
H2591	H259	0.757200	0.378600	0.613400
O801	O80	0.528710	0.764350	0.961130
C3531	C353	0.645950	0.822970	0.849530
C3541	C354	0.567570	0.783780	0.925830
C3551	C355	0.489870	0.744930	0.920630
C3561	C356	0.451610	0.725800	0.970930
H2601	H260	0.423870	0.711930	0.946730
O811	O81	0.195370	0.097690	0.294470
C3571	C357	0.312610	0.156310	0.182870
C3581	C358	0.234230	0.117120	0.259170
C3591	C359	0.156530	0.078270	0.253970
C3601	C360	0.118270	0.059140	0.304270
H2611	H261	0.090530	0.045270	0.280070
O821	O82	0.431020	0.568980	0.372200
C3611	C361	0.489640	0.510360	0.483800
C3621	C362	0.450450	0.549550	0.407500
C3631	C363	0.411600	0.588400	0.412700
C3641	C364	0.392470	0.607530	0.362400
H2621	H262	0.378600	0.621400	0.386600
O831	O83	0.097690	0.902310	0.705530
C3651	C365	0.156310	0.843690	0.817130
C3661	C366	0.117120	0.882880	0.740830
C3671	C367	0.078270	0.921730	0.746030
C3681	C368	0.059140	0.940860	0.695730
H2631	H263	0.045270	0.954730	0.719930
O841	O84	0.764350	0.235650	0.038870
C3691	C369	0.822970	0.177030	0.150470
C3701	C370	0.783780	0.216220	0.074170
C3711	C371	0.744930	0.255070	0.079370
C3721	C372	0.725800	0.274200	0.029070
H2641	H264	0.711930	0.288070	0.053270
O851	O85	0.137960	0.568980	0.372200
C3731	C373	0.020720	0.510360	0.483800
C3741	C374	0.099100	0.549550	0.407500
C3751	C375	0.176800	0.588400	0.412700
C3761	C376	0.215060	0.607530	0.362400
H2651	H265	0.242800	0.621400	0.386600
O861	O86	0.804630	0.902310	0.705530
C3771	C377	0.687390	0.843690	0.817130
C3781	C378	0.765770	0.882880	0.740830
C3791	C379	0.843470	0.921730	0.746030
C3801	C380	0.881730	0.940860	0.695730
H2661	H266	0.909470	0.954730	0.719930
O871	O87	0.471290	0.235650	0.038870
C3811	C381	0.354050	0.177030	0.150470
C3821	C382	0.432430	0.216220	0.074170
C3831	C383	0.510130	0.255070	0.079370
C3841	C384	0.548390	0.274200	0.029070
H2671	H267	0.576130	0.288070	0.053270
O881	O88	0.431020	0.862040	0.372200
C3851	C385	0.489640	0.979280	0.483800
C3861	C386	0.450450	0.900900	0.407500
C3871	C387	0.411600	0.823200	0.412700
C3881	C388	0.392470	0.784940	0.362400
H2681	H268	0.378600	0.757200	0.386600
O891	O89	0.097690	0.195370	0.705530
C3891	C389	0.156310	0.312610	0.817130
C3901	C390	0.117120	0.234230	0.740830
C3911	C391	0.078270	0.156530	0.746030
C3921	C392	0.059140	0.118270	0.695730
H2691	H269	0.045270	0.090530	0.719930
O901	O90	0.764350	0.528710	0.038870
C3931	C393	0.822970	0.645950	0.150470
C3941	C394	0.783780	0.567570	0.074170
C3951	C395	0.744930	0.489870	0.079370
C3961	C396	0.725800	0.451610	0.029070
H2701	H270	0.711930	0.423870	0.053270
