data_UNABUH01_clean_PM
_symmetry_space_group_name_H-M	'P1'
_cell_length_a	8.404800
_cell_length_b	10.237900
_cell_length_c	17.667100
_cell_angle_alpha	90.000000
_cell_angle_beta	103.032000
_cell_angle_gamma	90.000000
_symmetry_Int_Tables_number 1

loop_
_symmetry_equiv_pos_as_xyz
'x,y,z'

loop_
_atom_site_label
_atom_site_type_symbol
_atom_site_fract_x
_atom_site_fract_y
_atom_site_fract_z
Cu11	Cu1	0.826290	0.557740	0.432040
Cu21	Cu2	0.326290	0.942260	0.932040
H11	H1	0.536900	0.770300	0.169600
H21	H2	0.645600	0.589200	0.984800
H31	H3	0.814200	0.448800	0.199800
H41	H4	0.894200	0.271100	0.863700
H51	H5	0.063400	0.109000	0.841800
H61	H6	0.235500	0.064400	0.064500
H71	H7	0.069300	0.225800	0.092100
H81	H8	0.864900	0.338100	0.096100
H91	H9	0.036900	0.729700	0.669600
H101	H10	0.145600	0.910800	0.484800
H111	H11	0.314200	0.051200	0.699800
H121	H12	0.394200	0.228900	0.363700
H131	H13	0.563400	0.391000	0.341800
H141	H14	0.735500	0.435600	0.564500
H151	H15	0.569300	0.274200	0.592100
H161	H16	0.364900	0.161900	0.596100
C11	C1	0.677500	0.610800	0.197600
C21	C2	0.588700	0.702800	0.149300
C31	C3	0.577000	0.694100	0.069700
C41	C4	0.654400	0.594400	0.038100
C51	C5	0.745500	0.502700	0.088200
C61	C6	0.754800	0.511100	0.166700
C71	C7	0.694700	0.619100	0.283900
C81	C8	0.486200	0.792900	0.016600
C91	C9	0.859200	0.382900	0.991200
C101	C10	0.964200	0.268300	0.981100
C111	C11	0.963700	0.230300	0.905400
C121	C12	0.065000	0.133500	0.892600
C131	C13	0.166000	0.107400	0.023700
C141	C14	0.066800	0.204100	0.040700
C151	C15	0.177500	0.889200	0.697600
C161	C16	0.088700	0.797200	0.649300
C171	C17	0.077000	0.805900	0.569700
C181	C18	0.154400	0.905600	0.538100
C191	C19	0.245500	0.997300	0.588200
C201	C20	0.254800	0.988900	0.666700
C211	C21	0.194700	0.880900	0.783900
C221	C22	0.986200	0.707100	0.516600
C231	C23	0.359200	0.117100	0.491200
C241	C24	0.464200	0.231700	0.481100
C251	C25	0.463700	0.269700	0.405400
C261	C26	0.565000	0.366500	0.392600
C271	C27	0.666000	0.392600	0.523700
C281	C28	0.566800	0.295900	0.540700
N11	N1	0.167100	0.072200	0.951000
N21	N2	0.829200	0.398400	0.062700
N31	N3	0.667100	0.427800	0.451000
N41	N4	0.329200	0.101600	0.562700
O11	O1	0.793120	0.536200	0.323620
O21	O2	0.618900	0.700700	0.312500
O31	O3	0.469680	0.784000	0.944180
O41	O4	0.420920	0.890600	0.041720
O51	O5	0.810350	0.457300	0.937450
O61	O6	0.293120	0.963800	0.823620
O71	O7	0.118900	0.799300	0.812500
O81	O8	0.969680	0.716000	0.444180
O91	O9	0.920920	0.609400	0.541720
O101	O10	0.310350	0.042700	0.437450
Cu31	Cu3	0.673710	0.057740	0.067960
Cu41	Cu4	0.173710	0.442260	0.567960
H171	H17	0.963100	0.270300	0.330400
H181	H18	0.854400	0.089200	0.515200
H191	H19	0.685800	0.948800	0.300200
H201	H20	0.605800	0.771100	0.636300
H211	H21	0.436600	0.609000	0.658200
H221	H22	0.264500	0.564400	0.435500
H231	H23	0.430700	0.725800	0.407900
H241	H24	0.635100	0.838100	0.403900
H251	H25	0.463100	0.229700	0.830400
H261	H26	0.354400	0.410800	0.015200
H271	H27	0.185800	0.551200	0.800200
H281	H28	0.105800	0.728900	0.136300
H291	H29	0.936600	0.891000	0.158200
H301	H30	0.764500	0.935600	0.935500
H311	H31	0.930700	0.774200	0.907900
H321	H32	0.135100	0.661900	0.903900
C291	C29	0.822500	0.110800	0.302400
C301	C30	0.911300	0.202800	0.350700
C311	C31	0.923000	0.194100	0.430300
C321	C32	0.845600	0.094400	0.461900
C331	C33	0.754500	0.002700	0.411800
C341	C34	0.745200	0.011100	0.333300
C351	C35	0.805300	0.119100	0.216100
C361	C36	0.013800	0.292900	0.483400
C371	C37	0.640800	0.882900	0.508800
C381	C38	0.535800	0.768300	0.518900
C391	C39	0.536300	0.730300	0.594600
C401	C40	0.435000	0.633500	0.607400
C411	C41	0.334000	0.607400	0.476300
C421	C42	0.433200	0.704100	0.459300
C431	C43	0.322500	0.389200	0.802400
C441	C44	0.411300	0.297200	0.850700
C451	C45	0.423000	0.305900	0.930300
C461	C46	0.345600	0.405600	0.961900
C471	C47	0.254500	0.497300	0.911800
C481	C48	0.245200	0.488900	0.833300
C491	C49	0.305300	0.380900	0.716100
C501	C50	0.513800	0.207100	0.983400
C511	C51	0.140800	0.617100	0.008800
C521	C52	0.035800	0.731700	0.018900
C531	C53	0.036300	0.769700	0.094600
C541	C54	0.935000	0.866500	0.107400
C551	C55	0.834000	0.892600	0.976300
C561	C56	0.933200	0.795900	0.959300
N51	N5	0.332900	0.572200	0.549000
N61	N6	0.670800	0.898400	0.437300
N71	N7	0.832900	0.927800	0.049000
N81	N8	0.170800	0.601600	0.937300
O111	O11	0.706880	0.036200	0.176380
O121	O12	0.881100	0.200700	0.187500
O131	O13	0.030320	0.284000	0.555820
O141	O14	0.079080	0.390600	0.458280
O151	O15	0.689650	0.957300	0.562550
O161	O16	0.206880	0.463800	0.676380
O171	O17	0.381100	0.299300	0.687500
O181	O18	0.530320	0.216000	0.055820
O191	O19	0.579080	0.109400	0.958280
O201	O20	0.189650	0.542700	0.062550
