data_UNADIX_clean_PM
_symmetry_space_group_name_H-M	'P1'
_cell_length_a	25.807000
_cell_length_b	29.405000
_cell_length_c	19.637000
_cell_angle_alpha	90.000000
_cell_angle_beta	90.000000
_cell_angle_gamma	90.000000
_symmetry_Int_Tables_number 1

loop_
_symmetry_equiv_pos_as_xyz
'x,y,z'

loop_
_atom_site_label
_atom_site_type_symbol
_atom_site_fract_x
_atom_site_fract_y
_atom_site_fract_z
Zn11	Zn1	0.828210	0.451230	0.335730
Zn21	Zn2	0.685660	0.435370	0.086140
Zn31	Zn3	0.745420	0.503380	0.967050
C11	C1	0.896700	0.651800	0.197700
C21	C2	0.817800	0.549000	0.369500
C31	C3	0.856700	0.602900	0.289100
H11	H1	0.855200	0.579500	0.257200
C41	C4	0.838400	0.595800	0.353900
C51	C5	0.837800	0.630600	0.401500
C61	C6	0.819300	0.624200	0.473900
C71	C7	0.869100	0.412000	0.138800
C81	C8	0.854200	0.441900	0.198900
C91	C9	0.902800	0.355900	0.032200
C101	C10	0.908500	0.379000	0.149400
H21	H2	0.923300	0.375900	0.192400
C111	C11	0.864900	0.388600	0.022400
H31	H3	0.851200	0.392500	0.979000
C121	C12	0.846600	0.415800	0.075400
C131	C13	0.916600	0.326600	0.972500
C141	C14	0.858500	0.672300	0.383600
H41	H4	0.858100	0.696200	0.414500
C151	C15	0.877700	0.645600	0.270900
C161	C16	0.879800	0.678400	0.319500
C171	C17	0.798700	0.443900	0.060200
C181	C18	0.925000	0.351400	0.096500
C191	C19	0.968000	0.319100	0.113100
C201	C20	0.913500	0.719300	0.304600
O11	O1	0.760500	0.435200	0.097000
O21	O2	0.801400	0.470000	0.012500
O31	O3	0.926600	0.285900	0.982200
O41	O4	0.914700	0.347000	0.916200
O51	O5	0.841600	0.593200	0.506400
O61	O6	0.783900	0.648500	0.495500
O71	O7	0.780600	0.545500	0.410800
O81	O8	0.839100	0.516000	0.339200
O91	O9	0.893900	0.687800	0.173100
O101	O10	0.860900	0.424900	0.256700
O111	O11	0.007300	0.320800	0.073800
O121	O12	0.963200	0.295300	0.163700
O131	O13	0.903900	0.753400	0.326600
O141	O14	0.954100	0.713400	0.269500
O151	O15	0.838600	0.480600	0.186300
O161	O16	0.914600	0.620400	0.167900
Zn41	Zn4	0.828210	0.951230	0.835730
Zn51	Zn5	0.685660	0.935370	0.586140
Zn61	Zn6	0.745420	0.003380	0.467050
C211	C21	0.896700	0.151800	0.697700
C221	C22	0.817800	0.049000	0.869500
C231	C23	0.856700	0.102900	0.789100
H51	H5	0.855200	0.079500	0.757200
C241	C24	0.838400	0.095800	0.853900
C251	C25	0.837800	0.130600	0.901500
C261	C26	0.819300	0.124200	0.973900
C271	C27	0.869100	0.912000	0.638800
C281	C28	0.854200	0.941900	0.698900
C291	C29	0.902800	0.855900	0.532200
C301	C30	0.908500	0.879000	0.649400
H61	H6	0.923300	0.875900	0.692400
C311	C31	0.864900	0.888600	0.522400
H71	H7	0.851200	0.892500	0.479000
C321	C32	0.846600	0.915800	0.575400
C331	C33	0.916600	0.826600	0.472500
C341	C34	0.858500	0.172300	0.883600
H81	H8	0.858100	0.196200	0.914500
C351	C35	0.877700	0.145600	0.770900
C361	C36	0.879800	0.178400	0.819500
C371	C37	0.798700	0.943900	0.560200
C381	C38	0.925000	0.851400	0.596500
C391	C39	0.968000	0.819100	0.613100
C401	C40	0.913500	0.219300	0.804600
O171	O17	0.760500	0.935200	0.597000
O181	O18	0.801400	0.970000	0.512500
O191	O19	0.926600	0.785900	0.482200
O201	O20	0.914700	0.847000	0.416200
O211	O21	0.841600	0.093200	0.006400
O221	O22	0.783900	0.148500	0.995500
O231	O23	0.780600	0.045500	0.910800
O241	O24	0.839100	0.016000	0.839200
O251	O25	0.893900	0.187800	0.673100
O261	O26	0.860900	0.924900	0.756700
O271	O27	0.007300	0.820800	0.573800
O281	O28	0.963200	0.795300	0.663700
O291	O29	0.903900	0.253400	0.826600
O301	O30	0.954100	0.213400	0.769500
O311	O31	0.838600	0.980600	0.686300
O321	O32	0.914600	0.120400	0.667900
Zn71	Zn7	0.328210	0.451230	0.835730
Zn81	Zn8	0.185660	0.435370	0.586140
Zn91	Zn9	0.245420	0.503380	0.467050
C411	C41	0.396700	0.651800	0.697700
C421	C42	0.317800	0.549000	0.869500
C431	C43	0.356700	0.602900	0.789100
H91	H9	0.355200	0.579500	0.757200
C441	C44	0.338400	0.595800	0.853900
C451	C45	0.337800	0.630600	0.901500
C461	C46	0.319300	0.624200	0.973900
C471	C47	0.369100	0.412000	0.638800
C481	C48	0.354200	0.441900	0.698900
C491	C49	0.402800	0.355900	0.532200
C501	C50	0.408500	0.379000	0.649400
H101	H10	0.423300	0.375900	0.692400
C511	C51	0.364900	0.388600	0.522400
H111	H11	0.351200	0.392500	0.479000
C521	C52	0.346600	0.415800	0.575400
C531	C53	0.416600	0.326600	0.472500
C541	C54	0.358500	0.672300	0.883600
H121	H12	0.358100	0.696200	0.914500
C551	C55	0.377700	0.645600	0.770900
C561	C56	0.379800	0.678400	0.819500
C571	C57	0.298700	0.443900	0.560200
C581	C58	0.425000	0.351400	0.596500
C591	C59	0.468000	0.319100	0.613100
C601	C60	0.413500	0.719300	0.804600
O331	O33	0.260500	0.435200	0.597000
O341	O34	0.301400	0.470000	0.512500
O351	O35	0.426600	0.285900	0.482200
O361	O36	0.414700	0.347000	0.416200
O371	O37	0.341600	0.593200	0.006400
O381	O38	0.283900	0.648500	0.995500
O391	O39	0.280600	0.545500	0.910800
O401	O40	0.339100	0.516000	0.839200
O411	O41	0.393900	0.687800	0.673100
O421	O42	0.360900	0.424900	0.756700
O431	O43	0.507300	0.320800	0.573800
O441	O44	0.463200	0.295300	0.663700
O451	O45	0.403900	0.753400	0.826600
O461	O46	0.454100	0.713400	0.769500
O471	O47	0.338600	0.480600	0.686300
O481	O48	0.414600	0.620400	0.667900
Zn101	Zn10	0.328210	0.951230	0.335730
Zn111	Zn11	0.185660	0.935370	0.086140
Zn121	Zn12	0.245420	0.003380	0.967050
C611	C61	0.396700	0.151800	0.197700
C621	C62	0.317800	0.049000	0.369500
C631	C63	0.356700	0.102900	0.289100
H131	H13	0.355200	0.079500	0.257200
C641	C64	0.338400	0.095800	0.353900
C651	C65	0.337800	0.130600	0.401500
C661	C66	0.319300	0.124200	0.473900
C671	C67	0.369100	0.912000	0.138800
C681	C68	0.354200	0.941900	0.198900
C691	C69	0.402800	0.855900	0.032200
C701	C70	0.408500	0.879000	0.149400
H141	H14	0.423300	0.875900	0.192400
C711	C71	0.364900	0.888600	0.022400
H151	H15	0.351200	0.892500	0.979000
C721	C72	0.346600	0.915800	0.075400
C731	C73	0.416600	0.826600	0.972500
C741	C74	0.358500	0.172300	0.383600
H161	H16	0.358100	0.196200	0.414500
C751	C75	0.377700	0.145600	0.270900
C761	C76	0.379800	0.178400	0.319500
C771	C77	0.298700	0.943900	0.060200
C781	C78	0.425000	0.851400	0.096500
C791	C79	0.468000	0.819100	0.113100
C801	C80	0.413500	0.219300	0.304600
O491	O49	0.260500	0.935200	0.097000
O501	O50	0.301400	0.970000	0.012500
O511	O51	0.426600	0.785900	0.982200
O521	O52	0.414700	0.847000	0.916200
O531	O53	0.341600	0.093200	0.506400
O541	O54	0.283900	0.148500	0.495500
O551	O55	0.280600	0.045500	0.410800
O561	O56	0.339100	0.016000	0.339200
O571	O57	0.393900	0.187800	0.173100
O581	O58	0.360900	0.924900	0.256700
O591	O59	0.507300	0.820800	0.073800
O601	O60	0.463200	0.795300	0.163700
O611	O61	0.403900	0.253400	0.326600
O621	O62	0.454100	0.213400	0.269500
O631	O63	0.338600	0.980600	0.186300
O641	O64	0.414600	0.120400	0.167900
Zn131	Zn13	0.171790	0.548770	0.335730
Zn141	Zn14	0.314340	0.564630	0.086140
Zn151	Zn15	0.254580	0.496620	0.967050
C811	C81	0.103300	0.348200	0.197700
C821	C82	0.182200	0.451000	0.369500
C831	C83	0.143300	0.397100	0.289100
H171	H17	0.144800	0.420500	0.257200
C841	C84	0.161600	0.404200	0.353900
C851	C85	0.162200	0.369400	0.401500
C861	C86	0.180700	0.375800	0.473900
C871	C87	0.130900	0.588000	0.138800
C881	C88	0.145800	0.558100	0.198900
C891	C89	0.097200	0.644100	0.032200
C901	C90	0.091500	0.621000	0.149400
H181	H18	0.076700	0.624100	0.192400
C911	C91	0.135100	0.611400	0.022400
H191	H19	0.148800	0.607500	0.979000
C921	C92	0.153400	0.584200	0.075400
C931	C93	0.083400	0.673400	0.972500
C941	C94	0.141500	0.327700	0.383600
H201	H20	0.141900	0.303800	0.414500
C951	C95	0.122300	0.354400	0.270900
C961	C96	0.120200	0.321600	0.319500
C971	C97	0.201300	0.556100	0.060200
C981	C98	0.075000	0.648600	0.096500
C991	C99	0.032000	0.680900	0.113100
C1001	C100	0.086500	0.280700	0.304600
O651	O65	0.239500	0.564800	0.097000
O661	O66	0.198600	0.530000	0.012500
O671	O67	0.073400	0.714100	0.982200
O681	O68	0.085300	0.653000	0.916200
O691	O69	0.158400	0.406800	0.506400
O701	O70	0.216100	0.351500	0.495500
O711	O71	0.219400	0.454500	0.410800
O721	O72	0.160900	0.484000	0.339200
O731	O73	0.106100	0.312200	0.173100
O741	O74	0.139100	0.575100	0.256700
O751	O75	0.992700	0.679200	0.073800
O761	O76	0.036800	0.704700	0.163700
O771	O77	0.096100	0.246600	0.326600
O781	O78	0.045900	0.286600	0.269500
O791	O79	0.161400	0.519400	0.186300
O801	O80	0.085400	0.379600	0.167900
Zn161	Zn16	0.171790	0.048770	0.835730
Zn171	Zn17	0.314340	0.064630	0.586140
Zn181	Zn18	0.254580	0.996620	0.467050
C1011	C101	0.103300	0.848200	0.697700
C1021	C102	0.182200	0.951000	0.869500
C1031	C103	0.143300	0.897100	0.789100
H211	H21	0.144800	0.920500	0.757200
C1041	C104	0.161600	0.904200	0.853900
C1051	C105	0.162200	0.869400	0.901500
C1061	C106	0.180700	0.875800	0.973900
C1071	C107	0.130900	0.088000	0.638800
C1081	C108	0.145800	0.058100	0.698900
C1091	C109	0.097200	0.144100	0.532200
C1101	C110	0.091500	0.121000	0.649400
H221	H22	0.076700	0.124100	0.692400
C1111	C111	0.135100	0.111400	0.522400
H231	H23	0.148800	0.107500	0.479000
C1121	C112	0.153400	0.084200	0.575400
C1131	C113	0.083400	0.173400	0.472500
C1141	C114	0.141500	0.827700	0.883600
H241	H24	0.141900	0.803800	0.914500
C1151	C115	0.122300	0.854400	0.770900
C1161	C116	0.120200	0.821600	0.819500
C1171	C117	0.201300	0.056100	0.560200
C1181	C118	0.075000	0.148600	0.596500
C1191	C119	0.032000	0.180900	0.613100
C1201	C120	0.086500	0.780700	0.804600
O811	O81	0.239500	0.064800	0.597000
O821	O82	0.198600	0.030000	0.512500
O831	O83	0.073400	0.214100	0.482200
O841	O84	0.085300	0.153000	0.416200
O851	O85	0.158400	0.906800	0.006400
O861	O86	0.216100	0.851500	0.995500
O871	O87	0.219400	0.954500	0.910800
O881	O88	0.160900	0.984000	0.839200
O891	O89	0.106100	0.812200	0.673100
O901	O90	0.139100	0.075100	0.756700
O911	O91	0.992700	0.179200	0.573800
O921	O92	0.036800	0.204700	0.663700
O931	O93	0.096100	0.746600	0.826600
O941	O94	0.045900	0.786600	0.769500
O951	O95	0.161400	0.019400	0.686300
O961	O96	0.085400	0.879600	0.667900
Zn191	Zn19	0.671790	0.548770	0.835730
Zn201	Zn20	0.814340	0.564630	0.586140
Zn211	Zn21	0.754580	0.496620	0.467050
C1211	C121	0.603300	0.348200	0.697700
C1221	C122	0.682200	0.451000	0.869500
C1231	C123	0.643300	0.397100	0.789100
H251	H25	0.644800	0.420500	0.757200
C1241	C124	0.661600	0.404200	0.853900
C1251	C125	0.662200	0.369400	0.901500
C1261	C126	0.680700	0.375800	0.973900
C1271	C127	0.630900	0.588000	0.638800
C1281	C128	0.645800	0.558100	0.698900
C1291	C129	0.597200	0.644100	0.532200
C1301	C130	0.591500	0.621000	0.649400
H261	H26	0.576700	0.624100	0.692400
C1311	C131	0.635100	0.611400	0.522400
H271	H27	0.648800	0.607500	0.479000
C1321	C132	0.653400	0.584200	0.575400
C1331	C133	0.583400	0.673400	0.472500
C1341	C134	0.641500	0.327700	0.883600
H281	H28	0.641900	0.303800	0.914500
C1351	C135	0.622300	0.354400	0.770900
C1361	C136	0.620200	0.321600	0.819500
C1371	C137	0.701300	0.556100	0.560200
C1381	C138	0.575000	0.648600	0.596500
C1391	C139	0.532000	0.680900	0.613100
C1401	C140	0.586500	0.280700	0.804600
O971	O97	0.739500	0.564800	0.597000
O981	O98	0.698600	0.530000	0.512500
O991	O99	0.573400	0.714100	0.482200
O1001	O100	0.585300	0.653000	0.416200
O1011	O101	0.658400	0.406800	0.006400
O1021	O102	0.716100	0.351500	0.995500
O1031	O103	0.719400	0.454500	0.910800
O1041	O104	0.660900	0.484000	0.839200
O1051	O105	0.606100	0.312200	0.673100
O1061	O106	0.639100	0.575100	0.756700
O1071	O107	0.492700	0.679200	0.573800
O1081	O108	0.536800	0.704700	0.663700
O1091	O109	0.596100	0.246600	0.826600
O1101	O110	0.545900	0.286600	0.769500
O1111	O111	0.661400	0.519400	0.686300
O1121	O112	0.585400	0.379600	0.667900
Zn221	Zn22	0.671790	0.048770	0.335730
Zn231	Zn23	0.814340	0.064630	0.086140
Zn241	Zn24	0.754580	0.996620	0.967050
C1411	C141	0.603300	0.848200	0.197700
C1421	C142	0.682200	0.951000	0.369500
C1431	C143	0.643300	0.897100	0.289100
H291	H29	0.644800	0.920500	0.257200
C1441	C144	0.661600	0.904200	0.353900
C1451	C145	0.662200	0.869400	0.401500
C1461	C146	0.680700	0.875800	0.473900
C1471	C147	0.630900	0.088000	0.138800
C1481	C148	0.645800	0.058100	0.198900
C1491	C149	0.597200	0.144100	0.032200
C1501	C150	0.591500	0.121000	0.149400
H301	H30	0.576700	0.124100	0.192400
C1511	C151	0.635100	0.111400	0.022400
H311	H31	0.648800	0.107500	0.979000
C1521	C152	0.653400	0.084200	0.075400
C1531	C153	0.583400	0.173400	0.972500
C1541	C154	0.641500	0.827700	0.383600
H321	H32	0.641900	0.803800	0.414500
C1551	C155	0.622300	0.854400	0.270900
C1561	C156	0.620200	0.821600	0.319500
C1571	C157	0.701300	0.056100	0.060200
C1581	C158	0.575000	0.148600	0.096500
C1591	C159	0.532000	0.180900	0.113100
C1601	C160	0.586500	0.780700	0.304600
O1131	O113	0.739500	0.064800	0.097000
O1141	O114	0.698600	0.030000	0.012500
O1151	O115	0.573400	0.214100	0.982200
O1161	O116	0.585300	0.153000	0.916200
O1171	O117	0.658400	0.906800	0.506400
O1181	O118	0.716100	0.851500	0.495500
O1191	O119	0.719400	0.954500	0.410800
O1201	O120	0.660900	0.984000	0.339200
O1211	O121	0.606100	0.812200	0.173100
O1221	O122	0.639100	0.075100	0.256700
O1231	O123	0.492700	0.179200	0.073800
O1241	O124	0.536800	0.204700	0.163700
O1251	O125	0.596100	0.746600	0.326600
O1261	O126	0.545900	0.786600	0.269500
O1271	O127	0.661400	0.019400	0.186300
O1281	O128	0.585400	0.879600	0.167900
Zn251	Zn25	0.078210	0.798770	0.585730
Zn261	Zn26	0.935660	0.814630	0.336140
Zn271	Zn27	0.995420	0.746620	0.217050
C1611	C161	0.146700	0.598200	0.447700
C1621	C162	0.067800	0.701000	0.619500
C1631	C163	0.106700	0.647100	0.539100
H331	H33	0.105200	0.670500	0.507200
C1641	C164	0.088400	0.654200	0.603900
C1651	C165	0.087800	0.619400	0.651500
C1661	C166	0.069300	0.625800	0.723900
C1671	C167	0.119100	0.838000	0.388800
C1681	C168	0.104200	0.808100	0.448900
C1691	C169	0.152800	0.894100	0.282200
C1701	C170	0.158500	0.871000	0.399400
H341	H34	0.173300	0.874100	0.442400
C1711	C171	0.114900	0.861400	0.272400
H351	H35	0.101200	0.857500	0.229000
C1721	C172	0.096600	0.834200	0.325400
C1731	C173	0.166600	0.923400	0.222500
C1741	C174	0.108500	0.577700	0.633600
H361	H36	0.108100	0.553800	0.664500
C1751	C175	0.127700	0.604400	0.520900
C1761	C176	0.129800	0.571600	0.569500
C1771	C177	0.048700	0.806100	0.310200
C1781	C178	0.175000	0.898600	0.346500
C1791	C179	0.218000	0.930900	0.363100
C1801	C180	0.163500	0.530700	0.554600
O1291	O129	0.010500	0.814800	0.347000
O1301	O130	0.051400	0.780000	0.262500
O1311	O131	0.176600	0.964100	0.232200
O1321	O132	0.164700	0.903000	0.166200
O1331	O133	0.091600	0.656800	0.756400
O1341	O134	0.033900	0.601500	0.745500
O1351	O135	0.030600	0.704500	0.660800
O1361	O136	0.089100	0.734000	0.589200
O1371	O137	0.143900	0.562200	0.423100
O1381	O138	0.110900	0.825100	0.506700
O1391	O139	0.257300	0.929200	0.323800
O1401	O140	0.213200	0.954700	0.413700
O1411	O141	0.153900	0.496600	0.576600
O1421	O142	0.204100	0.536600	0.519500
O1431	O143	0.088600	0.769400	0.436300
O1441	O144	0.164600	0.629600	0.417900
Zn281	Zn28	0.078210	0.298770	0.085730
Zn291	Zn29	0.935660	0.314630	0.836140
Zn301	Zn30	0.995420	0.246620	0.717050
C1811	C181	0.146700	0.098200	0.947700
C1821	C182	0.067800	0.201000	0.119500
C1831	C183	0.106700	0.147100	0.039100
H371	H37	0.105200	0.170500	0.007200
C1841	C184	0.088400	0.154200	0.103900
C1851	C185	0.087800	0.119400	0.151500
C1861	C186	0.069300	0.125800	0.223900
C1871	C187	0.119100	0.338000	0.888800
C1881	C188	0.104200	0.308100	0.948900
C1891	C189	0.152800	0.394100	0.782200
C1901	C190	0.158500	0.371000	0.899400
H381	H38	0.173300	0.374100	0.942400
C1911	C191	0.114900	0.361400	0.772400
H391	H39	0.101200	0.357500	0.729000
C1921	C192	0.096600	0.334200	0.825400
C1931	C193	0.166600	0.423400	0.722500
C1941	C194	0.108500	0.077700	0.133600
H401	H40	0.108100	0.053800	0.164500
C1951	C195	0.127700	0.104400	0.020900
C1961	C196	0.129800	0.071600	0.069500
C1971	C197	0.048700	0.306100	0.810200
C1981	C198	0.175000	0.398600	0.846500
C1991	C199	0.218000	0.430900	0.863100
C2001	C200	0.163500	0.030700	0.054600
O1451	O145	0.010500	0.314800	0.847000
O1461	O146	0.051400	0.280000	0.762500
O1471	O147	0.176600	0.464100	0.732200
O1481	O148	0.164700	0.403000	0.666200
O1491	O149	0.091600	0.156800	0.256400
O1501	O150	0.033900	0.101500	0.245500
O1511	O151	0.030600	0.204500	0.160800
O1521	O152	0.089100	0.234000	0.089200
O1531	O153	0.143900	0.062200	0.923100
O1541	O154	0.110900	0.325100	0.006700
O1551	O155	0.257300	0.429200	0.823800
O1561	O156	0.213200	0.454700	0.913700
O1571	O157	0.153900	0.996600	0.076600
O1581	O158	0.204100	0.036600	0.019500
O1591	O159	0.088600	0.269400	0.936300
O1601	O160	0.164600	0.129600	0.917900
Zn311	Zn31	0.578210	0.798770	0.085730
Zn321	Zn32	0.435660	0.814630	0.836140
Zn331	Zn33	0.495420	0.746620	0.717050
C2011	C201	0.646700	0.598200	0.947700
C2021	C202	0.567800	0.701000	0.119500
C2031	C203	0.606700	0.647100	0.039100
H411	H41	0.605200	0.670500	0.007200
C2041	C204	0.588400	0.654200	0.103900
C2051	C205	0.587800	0.619400	0.151500
C2061	C206	0.569300	0.625800	0.223900
C2071	C207	0.619100	0.838000	0.888800
C2081	C208	0.604200	0.808100	0.948900
C2091	C209	0.652800	0.894100	0.782200
C2101	C210	0.658500	0.871000	0.899400
H421	H42	0.673300	0.874100	0.942400
C2111	C211	0.614900	0.861400	0.772400
H431	H43	0.601200	0.857500	0.729000
C2121	C212	0.596600	0.834200	0.825400
C2131	C213	0.666600	0.923400	0.722500
C2141	C214	0.608500	0.577700	0.133600
H441	H44	0.608100	0.553800	0.164500
C2151	C215	0.627700	0.604400	0.020900
C2161	C216	0.629800	0.571600	0.069500
C2171	C217	0.548700	0.806100	0.810200
C2181	C218	0.675000	0.898600	0.846500
C2191	C219	0.718000	0.930900	0.863100
C2201	C220	0.663500	0.530700	0.054600
O1611	O161	0.510500	0.814800	0.847000
O1621	O162	0.551400	0.780000	0.762500
O1631	O163	0.676600	0.964100	0.732200
O1641	O164	0.664700	0.903000	0.666200
O1651	O165	0.591600	0.656800	0.256400
O1661	O166	0.533900	0.601500	0.245500
O1671	O167	0.530600	0.704500	0.160800
O1681	O168	0.589100	0.734000	0.089200
O1691	O169	0.643900	0.562200	0.923100
O1701	O170	0.610900	0.825100	0.006700
O1711	O171	0.757300	0.929200	0.823800
O1721	O172	0.713200	0.954700	0.913700
O1731	O173	0.653900	0.496600	0.076600
O1741	O174	0.704100	0.536600	0.019500
O1751	O175	0.588600	0.769400	0.936300
O1761	O176	0.664600	0.629600	0.917900
Zn341	Zn34	0.578210	0.298770	0.585730
Zn351	Zn35	0.435660	0.314630	0.336140
Zn361	Zn36	0.495420	0.246620	0.217050
C2211	C221	0.646700	0.098200	0.447700
C2221	C222	0.567800	0.201000	0.619500
C2231	C223	0.606700	0.147100	0.539100
H451	H45	0.605200	0.170500	0.507200
C2241	C224	0.588400	0.154200	0.603900
C2251	C225	0.587800	0.119400	0.651500
C2261	C226	0.569300	0.125800	0.723900
C2271	C227	0.619100	0.338000	0.388800
C2281	C228	0.604200	0.308100	0.448900
C2291	C229	0.652800	0.394100	0.282200
C2301	C230	0.658500	0.371000	0.399400
H461	H46	0.673300	0.374100	0.442400
C2311	C231	0.614900	0.361400	0.272400
H471	H47	0.601200	0.357500	0.229000
C2321	C232	0.596600	0.334200	0.325400
C2331	C233	0.666600	0.423400	0.222500
C2341	C234	0.608500	0.077700	0.633600
H481	H48	0.608100	0.053800	0.664500
C2351	C235	0.627700	0.104400	0.520900
C2361	C236	0.629800	0.071600	0.569500
C2371	C237	0.548700	0.306100	0.310200
C2381	C238	0.675000	0.398600	0.346500
C2391	C239	0.718000	0.430900	0.363100
C2401	C240	0.663500	0.030700	0.554600
O1771	O177	0.510500	0.314800	0.347000
O1781	O178	0.551400	0.280000	0.262500
O1791	O179	0.676600	0.464100	0.232200
O1801	O180	0.664700	0.403000	0.166200
O1811	O181	0.591600	0.156800	0.756400
O1821	O182	0.533900	0.101500	0.745500
O1831	O183	0.530600	0.204500	0.660800
O1841	O184	0.589100	0.234000	0.589200
O1851	O185	0.643900	0.062200	0.423100
O1861	O186	0.610900	0.325100	0.506700
O1871	O187	0.757300	0.429200	0.323800
O1881	O188	0.713200	0.454700	0.413700
O1891	O189	0.653900	0.996600	0.576600
O1901	O190	0.704100	0.036600	0.519500
O1911	O191	0.588600	0.269400	0.436300
O1921	O192	0.664600	0.129600	0.417900
Zn371	Zn37	0.421790	0.701230	0.585730
Zn381	Zn38	0.564340	0.685370	0.336140
Zn391	Zn39	0.504580	0.753380	0.217050
C2411	C241	0.353300	0.901800	0.447700
C2421	C242	0.432200	0.799000	0.619500
C2431	C243	0.393300	0.852900	0.539100
H491	H49	0.394800	0.829500	0.507200
C2441	C244	0.411600	0.845800	0.603900
C2451	C245	0.412200	0.880600	0.651500
C2461	C246	0.430700	0.874200	0.723900
C2471	C247	0.380900	0.662000	0.388800
C2481	C248	0.395800	0.691900	0.448900
C2491	C249	0.347200	0.605900	0.282200
C2501	C250	0.341500	0.629000	0.399400
H501	H50	0.326700	0.625900	0.442400
C2511	C251	0.385100	0.638600	0.272400
H511	H51	0.398800	0.642500	0.229000
C2521	C252	0.403400	0.665800	0.325400
C2531	C253	0.333400	0.576600	0.222500
C2541	C254	0.391500	0.922300	0.633600
H521	H52	0.391900	0.946200	0.664500
C2551	C255	0.372300	0.895600	0.520900
C2561	C256	0.370200	0.928400	0.569500
C2571	C257	0.451300	0.693900	0.310200
C2581	C258	0.325000	0.601400	0.346500
C2591	C259	0.282000	0.569100	0.363100
C2601	C260	0.336500	0.969300	0.554600
O1931	O193	0.489500	0.685200	0.347000
O1941	O194	0.448600	0.720000	0.262500
O1951	O195	0.323400	0.535900	0.232200
O1961	O196	0.335300	0.597000	0.166200
O1971	O197	0.408400	0.843200	0.756400
O1981	O198	0.466100	0.898500	0.745500
O1991	O199	0.469400	0.795500	0.660800
O2001	O200	0.410900	0.766000	0.589200
O2011	O201	0.356100	0.937800	0.423100
O2021	O202	0.389100	0.674900	0.506700
O2031	O203	0.242700	0.570800	0.323800
O2041	O204	0.286800	0.545300	0.413700
O2051	O205	0.346100	0.003400	0.576600
O2061	O206	0.295900	0.963400	0.519500
O2071	O207	0.411400	0.730600	0.436300
O2081	O208	0.335400	0.870400	0.417900
Zn401	Zn40	0.421790	0.201230	0.085730
Zn411	Zn41	0.564340	0.185370	0.836140
Zn421	Zn42	0.504580	0.253380	0.717050
C2611	C261	0.353300	0.401800	0.947700
C2621	C262	0.432200	0.299000	0.119500
C2631	C263	0.393300	0.352900	0.039100
H531	H53	0.394800	0.329500	0.007200
C2641	C264	0.411600	0.345800	0.103900
C2651	C265	0.412200	0.380600	0.151500
C2661	C266	0.430700	0.374200	0.223900
C2671	C267	0.380900	0.162000	0.888800
C2681	C268	0.395800	0.191900	0.948900
C2691	C269	0.347200	0.105900	0.782200
C2701	C270	0.341500	0.129000	0.899400
H541	H54	0.326700	0.125900	0.942400
C2711	C271	0.385100	0.138600	0.772400
H551	H55	0.398800	0.142500	0.729000
C2721	C272	0.403400	0.165800	0.825400
C2731	C273	0.333400	0.076600	0.722500
C2741	C274	0.391500	0.422300	0.133600
H561	H56	0.391900	0.446200	0.164500
C2751	C275	0.372300	0.395600	0.020900
C2761	C276	0.370200	0.428400	0.069500
C2771	C277	0.451300	0.193900	0.810200
C2781	C278	0.325000	0.101400	0.846500
C2791	C279	0.282000	0.069100	0.863100
C2801	C280	0.336500	0.469300	0.054600
O2091	O209	0.489500	0.185200	0.847000
O2101	O210	0.448600	0.220000	0.762500
O2111	O211	0.323400	0.035900	0.732200
O2121	O212	0.335300	0.097000	0.666200
O2131	O213	0.408400	0.343200	0.256400
O2141	O214	0.466100	0.398500	0.245500
O2151	O215	0.469400	0.295500	0.160800
O2161	O216	0.410900	0.266000	0.089200
O2171	O217	0.356100	0.437800	0.923100
O2181	O218	0.389100	0.174900	0.006700
O2191	O219	0.242700	0.070800	0.823800
O2201	O220	0.286800	0.045300	0.913700
O2211	O221	0.346100	0.503400	0.076600
O2221	O222	0.295900	0.463400	0.019500
O2231	O223	0.411400	0.230600	0.936300
O2241	O224	0.335400	0.370400	0.917900
Zn431	Zn43	0.921790	0.701230	0.085730
Zn441	Zn44	0.064340	0.685370	0.836140
Zn451	Zn45	0.004580	0.753380	0.717050
C2811	C281	0.853300	0.901800	0.947700
C2821	C282	0.932200	0.799000	0.119500
C2831	C283	0.893300	0.852900	0.039100
H571	H57	0.894800	0.829500	0.007200
C2841	C284	0.911600	0.845800	0.103900
C2851	C285	0.912200	0.880600	0.151500
C2861	C286	0.930700	0.874200	0.223900
C2871	C287	0.880900	0.662000	0.888800
C2881	C288	0.895800	0.691900	0.948900
C2891	C289	0.847200	0.605900	0.782200
C2901	C290	0.841500	0.629000	0.899400
H581	H58	0.826700	0.625900	0.942400
C2911	C291	0.885100	0.638600	0.772400
H591	H59	0.898800	0.642500	0.729000
C2921	C292	0.903400	0.665800	0.825400
C2931	C293	0.833400	0.576600	0.722500
C2941	C294	0.891500	0.922300	0.133600
H601	H60	0.891900	0.946200	0.164500
C2951	C295	0.872300	0.895600	0.020900
C2961	C296	0.870200	0.928400	0.069500
C2971	C297	0.951300	0.693900	0.810200
C2981	C298	0.825000	0.601400	0.846500
C2991	C299	0.782000	0.569100	0.863100
C3001	C300	0.836500	0.969300	0.054600
O2251	O225	0.989500	0.685200	0.847000
O2261	O226	0.948600	0.720000	0.762500
O2271	O227	0.823400	0.535900	0.732200
O2281	O228	0.835300	0.597000	0.666200
O2291	O229	0.908400	0.843200	0.256400
O2301	O230	0.966100	0.898500	0.245500
O2311	O231	0.969400	0.795500	0.160800
O2321	O232	0.910900	0.766000	0.089200
O2331	O233	0.856100	0.937800	0.923100
O2341	O234	0.889100	0.674900	0.006700
O2351	O235	0.742700	0.570800	0.823800
O2361	O236	0.786800	0.545300	0.913700
O2371	O237	0.846100	0.003400	0.076600
O2381	O238	0.795900	0.963400	0.019500
O2391	O239	0.911400	0.730600	0.936300
O2401	O240	0.835400	0.870400	0.917900
Zn461	Zn46	0.921790	0.201230	0.585730
Zn471	Zn47	0.064340	0.185370	0.336140
Zn481	Zn48	0.004580	0.253380	0.217050
C3011	C301	0.853300	0.401800	0.447700
C3021	C302	0.932200	0.299000	0.619500
C3031	C303	0.893300	0.352900	0.539100
H611	H61	0.894800	0.329500	0.507200
C3041	C304	0.911600	0.345800	0.603900
C3051	C305	0.912200	0.380600	0.651500
C3061	C306	0.930700	0.374200	0.723900
C3071	C307	0.880900	0.162000	0.388800
C3081	C308	0.895800	0.191900	0.448900
C3091	C309	0.847200	0.105900	0.282200
C3101	C310	0.841500	0.129000	0.399400
H621	H62	0.826700	0.125900	0.442400
C3111	C311	0.885100	0.138600	0.272400
H631	H63	0.898800	0.142500	0.229000
C3121	C312	0.903400	0.165800	0.325400
C3131	C313	0.833400	0.076600	0.222500
C3141	C314	0.891500	0.422300	0.633600
H641	H64	0.891900	0.446200	0.664500
C3151	C315	0.872300	0.395600	0.520900
C3161	C316	0.870200	0.428400	0.569500
C3171	C317	0.951300	0.193900	0.310200
C3181	C318	0.825000	0.101400	0.346500
C3191	C319	0.782000	0.069100	0.363100
C3201	C320	0.836500	0.469300	0.554600
O2411	O241	0.989500	0.185200	0.347000
O2421	O242	0.948600	0.220000	0.262500
O2431	O243	0.823400	0.035900	0.232200
O2441	O244	0.835300	0.097000	0.166200
O2451	O245	0.908400	0.343200	0.756400
O2461	O246	0.966100	0.398500	0.745500
O2471	O247	0.969400	0.295500	0.660800
O2481	O248	0.910900	0.266000	0.589200
O2491	O249	0.856100	0.437800	0.423100
O2501	O250	0.889100	0.174900	0.506700
O2511	O251	0.742700	0.070800	0.323800
O2521	O252	0.786800	0.045300	0.413700
O2531	O253	0.846100	0.503400	0.576600
O2541	O254	0.795900	0.463400	0.519500
O2551	O255	0.911400	0.230600	0.436300
O2561	O256	0.835400	0.370400	0.417900
