data_UNAGUN_clean_PM
_symmetry_space_group_name_H-M	'P1'
_cell_length_a	9.169900
_cell_length_b	15.605500
_cell_length_c	13.502600
_cell_angle_alpha	90.000000
_cell_angle_beta	107.162000
_cell_angle_gamma	90.000000
_symmetry_Int_Tables_number 1

loop_
_symmetry_equiv_pos_as_xyz
'x,y,z'

loop_
_atom_site_label
_atom_site_type_symbol
_atom_site_fract_x
_atom_site_fract_y
_atom_site_fract_z
Zn11	Zn1	0.619840	0.449000	0.750770
Zn21	Zn2	0.872830	0.253820	0.748730
O11	O1	0.969500	0.359120	0.818190
O21	O2	0.808440	0.447400	0.863330
C11	C1	0.069200	0.485400	0.907400
C21	C2	0.059500	0.545300	0.980900
H11	H1	0.971700	0.549400	0.001700
C31	C3	0.183300	0.599600	0.023500
C41	C4	0.313400	0.593600	0.990700
H21	H2	0.394600	0.630700	0.018200
C51	C5	0.324100	0.533400	0.917800
C61	C6	0.201300	0.478600	0.876800
H31	H3	0.207500	0.437100	0.828700
C71	C7	0.938800	0.425870	0.858700
O31	O3	0.058300	0.666370	0.135100
C81	C8	0.177200	0.663500	0.105100
O41	O4	0.288400	0.711320	0.143600
O51	O5	0.568100	0.579400	0.910300
C91	C9	0.464500	0.526400	0.882100
O61	O6	0.463200	0.463450	0.821160
O71	O7	0.522800	0.343900	0.681430
O81	O8	0.683210	0.254500	0.635650
C101	C10	0.420600	0.220900	0.588000
C111	C11	0.430100	0.159200	0.515800
H41	H4	0.518200	0.154800	0.495400
C121	C12	0.307700	0.104200	0.474000
C131	C13	0.176900	0.109700	0.506300
H51	H5	0.096700	0.071600	0.480200
C141	C14	0.166000	0.171900	0.577500
C151	C15	0.288400	0.227300	0.617500
H61	H6	0.281300	0.269300	0.664800
C161	C16	0.553300	0.277250	0.638800
O91	O9	0.434400	0.036770	0.362630
C171	C17	0.314300	0.038100	0.394700
O101	O10	0.206500	0.989080	0.358300
O111	O11	0.924100	0.124580	0.589100
C181	C18	0.027000	0.177600	0.615200
O121	O12	0.027500	0.240320	0.675820
Zn31	Zn3	0.380160	0.949000	0.249230
Zn41	Zn4	0.127170	0.753820	0.251270
O131	O13	0.030500	0.859120	0.181810
O141	O14	0.191560	0.947400	0.136670
C191	C19	0.930800	0.985400	0.092600
C201	C20	0.940500	0.045300	0.019100
H71	H7	0.028300	0.049400	0.998300
C211	C21	0.816700	0.099600	0.976500
C221	C22	0.686600	0.093600	0.009300
H81	H8	0.605400	0.130700	0.981800
C231	C23	0.675900	0.033400	0.082200
C241	C24	0.798700	0.978600	0.123200
H91	H9	0.792500	0.937100	0.171300
C251	C25	0.061200	0.925870	0.141300
O151	O15	0.941700	0.166370	0.864900
C261	C26	0.822800	0.163500	0.894900
O161	O16	0.711600	0.211320	0.856400
O171	O17	0.431900	0.079400	0.089700
C271	C27	0.535500	0.026400	0.117900
O181	O18	0.536800	0.963450	0.178840
O191	O19	0.477200	0.843900	0.318570
O201	O20	0.316790	0.754500	0.364350
C281	C28	0.579400	0.720900	0.412000
C291	C29	0.569900	0.659200	0.484200
H101	H10	0.481800	0.654800	0.504600
C301	C30	0.692300	0.604200	0.526000
C311	C31	0.823100	0.609700	0.493700
H111	H11	0.903300	0.571600	0.519800
C321	C32	0.834000	0.671900	0.422500
C331	C33	0.711600	0.727300	0.382500
H121	H12	0.718700	0.769300	0.335200
C341	C34	0.446700	0.777250	0.361200
O211	O21	0.565600	0.536770	0.637370
C351	C35	0.685700	0.538100	0.605300
O221	O22	0.793500	0.489080	0.641700
O231	O23	0.075900	0.624580	0.410900
C361	C36	0.973000	0.677600	0.384800
O241	O24	0.972500	0.740320	0.324180
