data_UNEBIZ_clean_PM
_symmetry_space_group_name_H-M	'P1'
_cell_length_a	13.663000
_cell_length_b	18.329000
_cell_length_c	22.173000
_cell_angle_alpha	67.204000
_cell_angle_beta	88.260000
_cell_angle_gamma	86.712000
_symmetry_Int_Tables_number 1

loop_
_symmetry_equiv_pos_as_xyz
'x,y,z'

loop_
_atom_site_label
_atom_site_type_symbol
_atom_site_fract_x
_atom_site_fract_y
_atom_site_fract_z
Mn11	Mn1	0.423180	0.213570	0.139600
Mn21	Mn2	0.217010	0.292770	0.194670
Mn31	Mn3	0.008920	0.370100	0.252230
Mn41	Mn4	0.582310	0.740210	0.072750
Mn51	Mn5	0.581740	0.998280	0.592110
Mn61	Mn6	0.871510	0.246290	0.850240
Mn71	Mn7	0.852570	0.842220	0.319610
Mn81	Mn8	0.854420	0.583920	0.800340
Mn91	Mn9	0.560470	0.337830	0.535730
H11	H1	0.303600	0.483100	0.088900
H21	H2	0.587200	0.439500	0.118400
H31	H3	0.317600	0.696600	0.112200
H41	H4	0.208300	0.713500	0.089400
H51	H5	0.241500	0.631000	0.142600
H61	H6	0.362900	0.737000	0.989700
H71	H7	0.314200	0.693000	0.951100
H81	H8	0.250100	0.749800	0.975700
H91	H9	0.174000	0.563600	0.076800
H101	H10	0.138700	0.647500	0.026600
H111	H11	0.202600	0.590000	0.002600
H121	H12	0.690900	0.531900	0.123700
H131	H13	0.768600	0.644300	0.164900
H141	H14	0.838800	0.547000	0.136400
H151	H15	0.851800	0.606000	0.063700
H161	H16	0.002800	0.591800	0.109800
H171	H17	0.958500	0.602500	0.172100
H181	H18	0.029500	0.717300	0.113000
H191	H19	0.982500	0.722500	0.047900
H201	H20	0.898700	0.815800	0.078400
H211	H21	0.881400	0.753300	0.149600
H221	H22	0.799000	0.749500	0.036300
H231	H23	0.765200	0.871700	0.096900
H241	H24	0.420200	0.055900	0.081000
H251	H25	0.706900	0.989900	0.097500
H261	H26	0.352300	0.813000	0.137900
H271	H27	0.309100	0.868100	0.172400
H281	H28	0.242800	0.845300	0.126600
H291	H29	0.366700	0.870000	0.013000
H301	H30	0.257000	0.901200	0.010500
H311	H31	0.338700	0.960200	0.974900
H321	H32	0.201200	0.986900	0.069100
H331	H33	0.274800	0.013000	0.108900
H341	H34	0.282400	0.045600	0.032400
H351	H35	0.269500	0.151300	0.380100
H361	H36	0.551400	0.118300	0.339400
H371	H37	0.295900	0.183900	0.532300
H381	H38	0.234600	0.121100	0.586800
H391	H39	0.346500	0.103200	0.578000
H401	H40	0.176400	0.183800	0.448300
H411	H41	0.156500	0.102400	0.444300
H421	H42	0.116700	0.121200	0.504100
H431	H43	0.200200	0.994900	0.580100
H441	H44	0.238800	0.977500	0.519500
H451	H45	0.312800	0.979500	0.571400
H461	H46	0.660700	0.053500	0.418800
H471	H47	0.738400	0.906600	0.532900
H481	H48	0.835000	0.045200	0.453000
H491	H49	0.799900	0.980800	0.429200
H501	H50	0.913100	0.888300	0.492800
H511	H51	0.969300	0.964400	0.452000
H521	H52	0.973900	0.998800	0.542700
H531	H53	0.020500	0.912500	0.561600
H541	H54	0.870700	0.859900	0.609800
H551	H55	0.909600	0.913500	0.643800
H561	H56	0.807200	0.021000	0.574700
H571	H57	0.785300	0.887800	0.706300
H581	H58	0.479900	0.856100	0.884300
H591	H59	0.742300	0.821700	0.816400
H601	H60	0.349100	0.949500	0.867400
H611	H61	0.254300	0.951600	0.828500
H621	H62	0.318500	0.872600	0.859500
H631	H63	0.262500	0.937200	0.720700
H641	H64	0.364800	0.928700	0.689300
H651	H65	0.327800	0.858700	0.751400
H661	H66	0.416400	0.059400	0.773600
H671	H67	0.420200	0.055700	0.704100
H681	H68	0.318900	0.064500	0.736400
H691	H69	0.033000	0.267300	0.053800
H701	H70	0.275100	0.206400	0.974700
H711	H71	0.347400	0.241800	0.874400
H721	H72	0.341800	0.150600	0.915300
H731	H73	0.356300	0.182300	0.839200
H741	H74	0.196600	0.078000	0.909700
H751	H75	0.111600	0.122300	0.861200
H761	H76	0.214500	0.106400	0.834100
H771	H77	0.208300	0.316000	0.795400
H781	H78	0.223900	0.253200	0.763700
H791	H79	0.120000	0.268100	0.790000
H801	H80	0.880800	0.283300	0.005400
H811	H81	0.713900	0.222600	0.970200
H821	H82	0.732500	0.310200	0.019800
H831	H83	0.722700	0.382200	0.952100
H841	H84	0.572800	0.369900	0.003200
H851	H85	0.573900	0.279500	0.016900
H861	H86	0.467900	0.341500	0.935700
H871	H87	0.543900	0.403800	0.896600
H881	H88	0.551200	0.244300	0.911400
H891	H89	0.536200	0.318300	0.845200
H901	H90	0.694800	0.358300	0.853200
H911	H91	0.612400	0.252100	0.795500
H921	H92	0.799400	0.100500	0.651200
H931	H93	0.587100	0.209600	0.714300
H941	H94	0.006400	0.222600	0.647900
H951	H95	0.017500	0.208600	0.721800
H961	H96	0.091800	0.166200	0.689100
H971	H97	0.979600	0.082700	0.806100
H981	H98	0.953700	0.012400	0.786800
H991	H99	0.059400	0.044500	0.773500
H1001	H100	0.961800	0.112500	0.617000
H1011	H101	0.048200	0.060400	0.660300
H1021	H102	0.941600	0.029900	0.672200
H1031	H103	0.846200	0.145600	0.271100
H1041	H104	0.134900	0.096000	0.306600
H1051	H105	0.297600	0.943900	0.360300
H1061	H106	0.257100	0.022400	0.305100
H1071	H107	0.228600	0.003900	0.378400
H1081	H108	0.188500	0.837200	0.418700
H1091	H109	0.120700	0.897200	0.437500
H1101	H110	0.076500	0.847300	0.402200
H1111	H111	0.236200	0.864200	0.305600
H1121	H112	0.126200	0.874000	0.284500
H1131	H113	0.197700	0.941700	0.248500
H1141	H114	0.743100	0.047700	0.279900
H1151	H115	0.645600	0.887100	0.352500
H1161	H116	0.598600	0.016700	0.234700
H1171	H117	0.592200	0.021000	0.304300
H1181	H118	0.439300	0.997100	0.274500
H1191	H119	0.476100	0.926800	0.337800
H1201	H120	0.408600	0.875300	0.271600
H1211	H121	0.474900	0.924800	0.212400
H1221	H122	0.547600	0.796400	0.255900
H1231	H123	0.543900	0.795800	0.326900
H1241	H124	0.662200	0.893500	0.223800
H1251	H125	0.673800	0.722600	0.279200
H1261	H126	0.008400	0.525700	0.313700
H1271	H127	0.727500	0.592900	0.291700
H1281	H128	0.155500	0.570500	0.280500
H1291	H129	0.230000	0.592700	0.322400
H1301	H130	0.147100	0.534600	0.357000
H1311	H131	0.069100	0.708900	0.379700
H1321	H132	0.096700	0.618400	0.416900
H1331	H133	0.178400	0.677200	0.381200
H1341	H134	0.110100	0.708000	0.217800
H1351	H135	0.079500	0.766200	0.252200
H1361	H136	0.187900	0.731800	0.256500
H1371	H137	0.163600	0.437900	0.014200
H1381	H138	0.881600	0.467600	0.053900
H1391	H139	0.200600	0.607200	0.868400
H1401	H140	0.246900	0.580000	0.814500
H1411	H141	0.134600	0.603700	0.813100
H1421	H142	0.090000	0.463000	0.816300
H1431	H143	0.203500	0.449900	0.809400
H1441	H144	0.145800	0.388900	0.867600
H1451	H145	0.284900	0.483800	0.946300
H1461	H146	0.263500	0.401800	0.944000
H1471	H147	0.319800	0.464200	0.886000
H1481	H148	0.765600	0.519800	0.973600
H1491	H149	0.645700	0.530700	0.851800
H1501	H150	0.611200	0.511900	0.960300
H1511	H151	0.625400	0.602100	0.944000
H1521	H152	0.455200	0.582600	0.940200
H1531	H153	0.476000	0.545100	0.888000
H1541	H154	0.418900	0.673700	0.836600
H1551	H155	0.501700	0.703000	0.868000
H1561	H156	0.550400	0.728400	0.759100
H1571	H157	0.534400	0.640200	0.768500
H1581	H158	0.680000	0.689100	0.831200
H1591	H159	0.660400	0.717100	0.689200
H1601	H160	0.955500	0.713600	0.509900
H1611	H161	0.691600	0.751100	0.577900
H1621	H162	0.026600	0.533000	0.694800
H1631	H163	0.029500	0.525200	0.626900
H1641	H164	0.127500	0.526600	0.661300
H1651	H165	0.113700	0.729800	0.632800
H1661	H166	0.082400	0.661000	0.697600
H1671	H167	0.179100	0.651100	0.661000
H1681	H168	0.111700	0.719600	0.528500
H1691	H169	0.177500	0.641000	0.556100
H1701	H170	0.076800	0.642100	0.523500
H1711	H171	0.156500	0.380100	0.411700
H1721	H172	0.398000	0.315500	0.336600
H1731	H173	0.078300	0.409800	0.549300
H1741	H174	0.093300	0.440500	0.473300
H1751	H175	0.082300	0.349900	0.514400
H1761	H176	0.325700	0.456400	0.531600
H1771	H177	0.240100	0.503900	0.484700
H1781	H178	0.223800	0.470700	0.560700
H1791	H179	0.306800	0.309500	0.597400
H1801	H180	0.205500	0.332400	0.622100
H1811	H181	0.211200	0.272100	0.587500
H1821	H182	0.547700	0.289400	0.388300
H1831	H183	0.691100	0.218000	0.503200
H1841	H184	0.686400	0.217100	0.398800
H1851	H185	0.729200	0.301600	0.369200
H1861	H186	0.832100	0.163800	0.456900
H1871	H187	0.857800	0.206000	0.382200
H1881	H188	0.965500	0.243600	0.446000
H1891	H189	0.905400	0.318200	0.398300
H1901	H190	0.899600	0.324000	0.503700
H1911	H191	0.860500	0.238200	0.535100
H1921	H192	0.755200	0.372300	0.445900
H1931	H193	0.821900	0.345400	0.577200
H1941	H194	0.635100	0.474200	0.744100
H1951	H195	0.848400	0.373400	0.669100
H1961	H196	0.342700	0.412900	0.702100
H1971	H197	0.417500	0.367300	0.672500
H1981	H198	0.429100	0.359900	0.744800
H1991	H199	0.381100	0.547400	0.610300
H2001	H200	0.489500	0.573800	0.599100
H2011	H201	0.457600	0.506800	0.577600
H2021	H202	0.395300	0.526200	0.726100
H2031	H203	0.481100	0.471900	0.768500
H2041	H204	0.503300	0.553300	0.712200
C11	C1	0.431800	0.366100	0.120600
C21	C2	0.443300	0.446900	0.106000
C31	C3	0.365400	0.501700	0.089400
C41	C4	0.371300	0.582700	0.073400
C51	C5	0.466200	0.608800	0.081300
C61	C6	0.548400	0.551800	0.099200
C71	C7	0.533100	0.475100	0.109000
C81	C8	0.285300	0.642600	0.050000
C91	C9	0.260900	0.673800	0.103500
C101	C10	0.305000	0.712100	0.985600
C111	C11	0.191300	0.607600	0.037900
C121	C12	0.643100	0.572900	0.108800
C131	C13	0.771400	0.654600	0.118100
C141	C14	0.851600	0.601400	0.108700
C151	C15	0.952700	0.620600	0.125000
C161	C16	0.970700	0.707700	0.094400
C171	C17	0.886100	0.760600	0.103900
C181	C18	0.790600	0.740800	0.082700
C191	C19	0.703900	0.855300	0.091700
C201	C20	0.588500	0.109400	0.098000
C211	C21	0.621500	0.907600	0.089500
C221	C22	0.525100	0.891600	0.082800
C231	C23	0.449700	0.947200	0.079600
C241	C24	0.470600	0.018700	0.083100
C251	C25	0.567000	0.034800	0.089800
C261	C26	0.642400	0.979200	0.093000
C271	C27	0.339000	0.928900	0.075900
C281	C28	0.308000	0.857400	0.133400
C291	C29	0.323900	0.913600	0.012500
C301	C30	0.267400	0.000500	0.071100
C311	C31	0.386500	0.167000	0.276800
C321	C32	0.408400	0.137800	0.346900
C331	C33	0.332500	0.131800	0.394600
C341	C34	0.349300	0.098200	0.461300
C351	C35	0.449600	0.070700	0.482200
C361	C36	0.520900	0.080000	0.435100
C371	C37	0.500500	0.112900	0.369400
C381	C38	0.263400	0.092800	0.509400
C391	C39	0.287100	0.128300	0.555600
C401	C40	0.169800	0.128200	0.473200
C411	C41	0.252800	0.002500	0.548900
C421	C42	0.617500	0.046800	0.453500
C431	C43	0.751400	0.962000	0.523400
C441	C44	0.825300	0.989000	0.466300
C451	C45	0.921400	0.942900	0.486800
C461	C46	0.960100	0.944900	0.549400
C471	C47	0.884400	0.913900	0.603200
C481	C48	0.790500	0.966300	0.584700
C491	C49	0.722000	0.908200	0.693500
C501	C50	0.649200	0.892600	0.744200
C511	C51	0.551200	0.928000	0.732900
C521	C52	0.485300	0.913900	0.786800
C531	C53	0.522000	0.866200	0.848500
C541	C54	0.615600	0.833400	0.859800
C551	C55	0.679200	0.845000	0.808800
C561	C56	0.647400	0.783000	0.929000
C571	C57	0.379900	0.951200	0.776000
C581	C58	0.320000	0.929200	0.838600
C591	C59	0.328600	0.915300	0.729700
C601	C60	0.384300	0.041000	0.744600
C611	C61	0.221400	0.229100	0.082600
C621	C62	0.161100	0.234100	0.024700
C631	C63	0.063800	0.252900	0.021800
C641	C64	0.008300	0.250300	0.968300
C651	C65	0.054400	0.231300	0.919500
C661	C66	0.156200	0.215800	0.921100
C671	C67	0.207700	0.217100	0.973200
C681	C68	0.214700	0.200000	0.865800
C691	C69	0.325300	0.193000	0.874500
C701	C70	0.181100	0.118800	0.867900
C711	C71	0.189300	0.265700	0.797100
C721	C72	0.904100	0.270100	0.970900
C731	C73	0.733800	0.276100	0.943100
C741	C74	0.702000	0.329000	0.977200
C751	C75	0.592200	0.330600	0.985300
C761	C76	0.536900	0.348600	0.924700
C771	C77	0.568600	0.298700	0.887300
C781	C78	0.681400	0.302400	0.877300
C791	C79	0.679500	0.239600	0.797800
C801	C80	0.718300	0.202900	0.756000
C811	C81	0.820500	0.184000	0.754600
C821	C82	0.854500	0.143200	0.710900
C831	C83	0.781900	0.131600	0.674900
C841	C84	0.682700	0.161400	0.669500
C851	C85	0.652700	0.193500	0.713100
C861	C86	0.613200	0.156900	0.619700
C871	C87	0.960400	0.116000	0.709300
C881	C88	0.024700	0.184400	0.690300
C891	C89	0.990900	0.058900	0.774600
C901	C90	0.979800	0.075900	0.660000
C911	C91	0.007000	0.222500	0.269200
C921	C92	0.993800	0.133100	0.284900
C931	C93	0.899900	0.109500	0.281900
C941	C94	0.889600	0.027800	0.296100
C951	C95	0.971200	0.974400	0.311500
C961	C96	0.064600	0.998700	0.317600
C971	C97	0.073600	0.078300	0.303500
C981	C98	0.154300	0.939300	0.339600
C991	C99	0.242400	0.981200	0.346500
C1001	C100	0.133100	0.874300	0.405600
C1011	C101	0.181100	0.901200	0.289800
C1021	C102	0.791600	0.007100	0.291900
C1031	C103	0.661700	0.917200	0.306400
C1041	C104	0.587100	0.986400	0.280900
C1051	C105	0.487700	0.953500	0.291100
C1061	C106	0.472600	0.897200	0.259500
C1071	C107	0.553100	0.829000	0.281100
C1081	C108	0.653400	0.862500	0.270700
C1091	C109	0.733800	0.735500	0.289900
C1101	C110	0.813000	0.677100	0.301300
C1111	C111	0.912100	0.693100	0.308300
C1121	C112	0.991100	0.633700	0.310700
C1131	C113	0.960100	0.565300	0.309200
C1141	C114	0.864100	0.547300	0.301700
C1151	C115	0.791900	0.602800	0.297300
C1161	C116	0.839400	0.473000	0.292000
C1171	C117	0.094800	0.651100	0.316800
C1181	C118	0.163300	0.580600	0.319400
C1191	C119	0.111300	0.665200	0.379500
C1201	C120	0.120400	0.720600	0.255200
C1211	C121	0.048800	0.418400	0.117000
C1221	C122	0.026100	0.448300	0.044200
C1231	C123	0.100300	0.454500	0.998800
C1241	C124	0.086200	0.483900	0.932100
C1251	C125	0.990300	0.508600	0.909400
C1261	C126	0.910100	0.502400	0.955600
C1271	C127	0.931600	0.471800	0.023500
C1281	C128	0.168400	0.493400	0.883300
C1291	C129	0.189600	0.579000	0.840900
C1301	C130	0.150100	0.443900	0.839800
C1311	C131	0.269000	0.457200	0.918300
C1321	C132	0.809700	0.525200	0.939500
C1331	C133	0.668100	0.569200	0.868500
C1341	C134	0.604900	0.564600	0.926300
C1351	C135	0.496900	0.584400	0.903600
C1361	C136	0.486600	0.663700	0.850800
C1371	C137	0.554700	0.673800	0.790100
C1381	C138	0.659100	0.650500	0.814200
C1391	C139	0.719700	0.687900	0.701400
C1401	C140	0.787800	0.692000	0.649900
C1411	C141	0.885100	0.662600	0.660600
C1421	C142	0.950000	0.670500	0.606000
C1431	C143	0.914500	0.708900	0.545300
C1441	C144	0.816000	0.743300	0.532300
C1451	C145	0.756500	0.731700	0.585100
C1461	C146	0.779500	0.787700	0.464700
C1471	C147	0.058900	0.640400	0.618000
C1481	C148	0.060800	0.547100	0.653700
C1491	C149	0.113000	0.673300	0.655400
C1501	C150	0.111300	0.662900	0.550000
C1511	C151	0.213800	0.359800	0.304600
C1521	C152	0.268400	0.354300	0.362500
C1531	C153	0.223700	0.368100	0.414100
C1541	C154	0.271600	0.365300	0.469400
C1551	C155	0.377300	0.348400	0.471100
C1561	C156	0.423700	0.327300	0.421600
C1571	C157	0.368000	0.330200	0.368700
C1581	C158	0.222600	0.385800	0.523800
C1591	C159	0.107900	0.397700	0.514300
C1601	C160	0.256000	0.460900	0.525400
C1611	C161	0.237900	0.319000	0.588400
C1621	C162	0.525100	0.304800	0.421800
C1631	C163	0.689500	0.269000	0.465900
C1641	C164	0.728900	0.252400	0.407500
C1651	C165	0.833000	0.214700	0.420400
C1661	C166	0.900300	0.268900	0.436100
C1671	C167	0.858900	0.286800	0.496100
C1681	C168	0.754100	0.321200	0.483200
C1691	C169	0.754000	0.351300	0.579500
C1701	C170	0.820100	0.429700	0.763500
C1711	C171	0.715400	0.378700	0.629700
C1721	C172	0.617600	0.403300	0.631700
C1731	C173	0.587600	0.439100	0.674600
C1741	C174	0.655300	0.450300	0.715400
C1751	C175	0.753000	0.425700	0.713300
C1761	C176	0.783100	0.389900	0.670500
C1771	C177	0.476000	0.467500	0.677100
C1781	C178	0.410000	0.395000	0.701400
C1791	C179	0.448500	0.529600	0.609800
C1801	C180	0.462700	0.508600	0.725500
N11	N1	0.670800	0.644200	0.098900
N21	N2	0.701500	0.787000	0.087200
N31	N3	0.655300	0.008200	0.511600
N41	N4	0.708500	0.947300	0.632800
N51	N5	0.841700	0.270500	0.927700
N61	N6	0.730500	0.257900	0.840300
N71	N7	0.765200	0.936700	0.303300
N81	N8	0.737100	0.803100	0.293000
N91	N9	0.777500	0.551800	0.882800
N101	N10	0.732500	0.648100	0.762200
N111	N11	0.587100	0.303700	0.462800
N121	N12	0.706900	0.334900	0.539300
O11	O1	0.347700	0.337500	0.129600
O21	O2	0.505300	0.319100	0.123000
O31	O3	0.472600	0.682400	0.074600
O41	O4	0.503100	0.822000	0.079600
O51	O5	0.299600	0.188000	0.256800
O61	O6	0.455000	0.169300	0.237100
O71	O7	0.465300	0.036600	0.545200
O81	O8	0.521000	0.969700	0.675100
O91	O9	0.592200	0.785800	0.973900
O101	O10	0.723100	0.743900	0.936600
O111	O11	0.176800	0.243800	0.126700
O121	O12	0.308500	0.207400	0.082800
O131	O13	0.005000	0.224500	0.872200
O141	O14	0.884200	0.201200	0.786500
O151	O15	0.549600	0.211200	0.600700
O161	O16	0.630400	0.106200	0.594100
O171	O17	0.089600	0.247900	0.257500
O181	O18	0.932300	0.264100	0.269800
O191	O19	0.960500	0.898700	0.322500
O201	O20	0.933300	0.758400	0.310400
O211	O21	0.911000	0.431500	0.287900
O221	O22	0.756500	0.460400	0.285400
O231	O23	0.975700	0.417300	0.153400
O241	O24	0.135000	0.398900	0.134300
O251	O25	0.971500	0.538300	0.846300
O261	O26	0.921500	0.624400	0.721800
O271	O27	0.835500	0.784000	0.419600
O281	O28	0.700200	0.826800	0.455700
O291	O29	0.121600	0.380100	0.304500
O301	O30	0.258800	0.344200	0.260600
O311	O31	0.429200	0.351800	0.519300
O321	O32	0.549600	0.387300	0.595700
O331	O33	0.887000	0.372100	0.789000
O341	O34	0.802800	0.485500	0.782500
O351	O35	0.518500	0.152700	0.103500
O361	O36	0.673700	0.126600	0.096700
