data_UNOJUD_clean_PM
_symmetry_space_group_name_H-M	'P1'
_cell_length_a	8.358500
_cell_length_b	12.386500
_cell_length_c	12.647400
_cell_angle_alpha	109.880000
_cell_angle_beta	97.148000
_cell_angle_gamma	105.321000
_symmetry_Int_Tables_number 1

loop_
_symmetry_equiv_pos_as_xyz
'x,y,z'

loop_
_atom_site_label
_atom_site_type_symbol
_atom_site_fract_x
_atom_site_fract_y
_atom_site_fract_z
Sr11	Sr1	0.522810	0.386680	0.836100
Sr21	Sr2	0.732550	0.970860	0.442990
S11	S1	0.861610	0.597710	0.498780
C11	C1	0.812200	0.508100	0.352300
C21	C2	0.694100	0.394400	0.329100
C31	C3	0.643900	0.381800	0.430200
C41	C4	0.726200	0.484200	0.527900
C51	C5	0.621900	0.298800	0.216900
N11	N1	0.561800	0.219300	0.128800
C61	C6	0.513800	0.269500	0.426400
H11	H1	0.456900	0.292300	0.490900
H21	H2	0.425500	0.233700	0.353000
C71	C7	0.593700	0.174200	0.435800
O11	O1	0.697400	0.149220	0.375460
O21	O2	0.549700	0.121300	0.502080
C81	C8	0.716500	0.512900	0.650200
O31	O3	0.640800	0.428560	0.678410
O41	O4	0.790500	0.623410	0.719480
N21	N2	0.887300	0.554290	0.280880
C91	C9	0.990300	0.682400	0.329500
H31	H3	0.085000	0.696400	0.393300
H41	H4	0.041500	0.702200	0.269100
C101	C10	0.890800	0.769700	0.376150
O51	O5	0.735600	0.741410	0.329360
O61	O6	0.974100	0.869590	0.458130
C111	C11	0.906300	0.475900	0.170320
H51	H5	0.020700	0.513000	0.160200
H61	H6	0.902300	0.396700	0.174100
C121	C12	0.773900	0.452500	0.064300
O71	O7	0.793100	0.390050	0.967510
O81	O8	0.653300	0.494640	0.074650
O91	O9	0.548600	0.168370	0.731570
H71	H7	0.608000	0.162000	0.686000
H81	H8	0.572000	0.129000	0.768000
Sr31	Sr3	0.477190	0.613320	0.163900
Sr41	Sr4	0.267450	0.029140	0.557010
S21	S2	0.138390	0.402290	0.501220
C131	C13	0.187800	0.491900	0.647700
C141	C14	0.305900	0.605600	0.670900
C151	C15	0.356100	0.618200	0.569800
C161	C16	0.273800	0.515800	0.472100
C171	C17	0.378100	0.701200	0.783100
N31	N3	0.438200	0.780700	0.871200
C181	C18	0.486200	0.730500	0.573600
H91	H9	0.543100	0.707700	0.509100
H101	H10	0.574500	0.766300	0.647000
C191	C19	0.406300	0.825800	0.564200
O101	O10	0.302600	0.850780	0.624540
O111	O11	0.450300	0.878700	0.497920
C201	C20	0.283500	0.487100	0.349800
O121	O12	0.359200	0.571440	0.321590
O131	O13	0.209500	0.376590	0.280520
N41	N4	0.112700	0.445710	0.719120
C211	C21	0.009700	0.317600	0.670500
H111	H11	0.915000	0.303600	0.606700
H121	H12	0.958500	0.297800	0.730900
C221	C22	0.109200	0.230300	0.623850
O141	O14	0.264400	0.258590	0.670640
O151	O15	0.025900	0.130410	0.541870
C231	C23	0.093700	0.524100	0.829680
H131	H13	0.979300	0.487000	0.839800
H141	H14	0.097700	0.603300	0.825900
C241	C24	0.226100	0.547500	0.935700
O161	O16	0.206900	0.609950	0.032490
O171	O17	0.346700	0.505360	0.925350
O181	O18	0.451400	0.831630	0.268430
H151	H15	0.392000	0.838000	0.314000
H161	H16	0.428000	0.871000	0.232000
