data_UQOWUU_clean_PM
_symmetry_space_group_name_H-M	'P1'
_cell_length_a	13.987600
_cell_length_b	13.987600
_cell_length_c	16.309300
_cell_angle_alpha	90.000000
_cell_angle_beta	90.000000
_cell_angle_gamma	120.000000
_symmetry_Int_Tables_number 1

loop_
_symmetry_equiv_pos_as_xyz
'x,y,z'

loop_
_atom_site_label
_atom_site_type_symbol
_atom_site_fract_x
_atom_site_fract_y
_atom_site_fract_z
Cu11	Cu1	0.373490	0.444620	0.559910
N11	N1	0.074400	0.421700	0.486300
N21	N2	0.126900	0.516900	0.530700
N31	N3	0.220900	0.529700	0.556500
N41	N4	0.233900	0.447900	0.530100
N51	N5	0.199900	0.645400	0.709900
N61	N6	0.102400	0.627900	0.683400
C11	C1	0.142700	0.381200	0.487300
C21	C2	0.119300	0.273300	0.448000
H11	H1	0.187700	0.277300	0.433400
H21	H2	0.075300	0.260400	0.399700
H31	H3	0.080000	0.213900	0.486100
Cu21	Cu2	0.555380	0.928870	0.559910
N71	N7	0.578300	0.652700	0.486300
N81	N8	0.483100	0.610000	0.530700
N91	N9	0.470300	0.691200	0.556500
N101	N10	0.552100	0.786000	0.530100
N111	N11	0.354600	0.554500	0.709900
N121	N12	0.372100	0.474500	0.683400
C31	C3	0.618800	0.761500	0.487300
C41	C4	0.726700	0.846000	0.448000
H41	H4	0.722700	0.910400	0.433400
H51	H5	0.739600	0.814900	0.399700
H61	H6	0.786100	0.866100	0.486100
Cu31	Cu3	0.071130	0.626510	0.559910
N131	N13	0.347300	0.925600	0.486300
N141	N14	0.390000	0.873100	0.530700
N151	N15	0.308800	0.779100	0.556500
N161	N16	0.214000	0.766100	0.530100
N171	N17	0.445500	0.800100	0.709900
N181	N18	0.525500	0.897600	0.683400
C51	C5	0.238500	0.857300	0.487300
C61	C6	0.154000	0.880700	0.448000
H71	H7	0.089600	0.812300	0.433400
H81	H8	0.185100	0.924700	0.399700
H91	H9	0.133900	0.920000	0.486100
Cu41	Cu4	0.626510	0.555380	0.059910
N191	N19	0.925600	0.578300	0.986300
N201	N20	0.873100	0.483100	0.030700
N211	N21	0.779100	0.470300	0.056500
N221	N22	0.766100	0.552100	0.030100
N231	N23	0.800100	0.354600	0.209900
N241	N24	0.897600	0.372100	0.183400
C71	C7	0.857300	0.618800	0.987300
C81	C8	0.880700	0.726700	0.948000
H101	H10	0.812300	0.722700	0.933400
H111	H11	0.924700	0.739600	0.899700
H121	H12	0.920000	0.786100	0.986100
Cu51	Cu5	0.444620	0.071130	0.059910
N251	N25	0.421700	0.347300	0.986300
N261	N26	0.516900	0.390000	0.030700
N271	N27	0.529700	0.308800	0.056500
N281	N28	0.447900	0.214000	0.030100
N291	N29	0.645400	0.445500	0.209900
N301	N30	0.627900	0.525500	0.183400
C91	C9	0.381200	0.238500	0.987300
C101	C10	0.273300	0.154000	0.948000
H131	H13	0.277300	0.089600	0.933400
H141	H14	0.260400	0.185100	0.899700
H151	H15	0.213900	0.133900	0.986100
Cu61	Cu6	0.928870	0.373490	0.059910
N311	N31	0.652700	0.074400	0.986300
N321	N32	0.610000	0.126900	0.030700
N331	N33	0.691200	0.220900	0.056500
N341	N34	0.786000	0.233900	0.030100
N351	N35	0.554500	0.199900	0.209900
N361	N36	0.474500	0.102400	0.183400
C111	C11	0.761500	0.142700	0.987300
C121	C12	0.846000	0.119300	0.948000
H161	H16	0.910400	0.187700	0.933400
H171	H17	0.814900	0.075300	0.899700
H181	H18	0.866100	0.080000	0.986100
Cu71	Cu7	0.626510	0.555380	0.440090
N371	N37	0.925600	0.578300	0.513700
N381	N38	0.873100	0.483100	0.469300
N391	N39	0.779100	0.470300	0.443500
N401	N40	0.766100	0.552100	0.469900
N411	N41	0.800100	0.354600	0.290100
N421	N42	0.897600	0.372100	0.316600
C131	C13	0.857300	0.618800	0.512700
C141	C14	0.880700	0.726700	0.552000
H191	H19	0.812300	0.722700	0.566600
H201	H20	0.924700	0.739600	0.600300
H211	H21	0.920000	0.786100	0.513900
Cu81	Cu8	0.444620	0.071130	0.440090
N431	N43	0.421700	0.347300	0.513700
N441	N44	0.516900	0.390000	0.469300
N451	N45	0.529700	0.308800	0.443500
N461	N46	0.447900	0.214000	0.469900
N471	N47	0.645400	0.445500	0.290100
N481	N48	0.627900	0.525500	0.316600
C151	C15	0.381200	0.238500	0.512700
C161	C16	0.273300	0.154000	0.552000
H221	H22	0.277300	0.089600	0.566600
H231	H23	0.260400	0.185100	0.600300
H241	H24	0.213900	0.133900	0.513900
Cu91	Cu9	0.928870	0.373490	0.440090
N491	N49	0.652700	0.074400	0.513700
N501	N50	0.610000	0.126900	0.469300
N511	N51	0.691200	0.220900	0.443500
N521	N52	0.786000	0.233900	0.469900
N531	N53	0.554500	0.199900	0.290100
N541	N54	0.474500	0.102400	0.316600
C171	C17	0.761500	0.142700	0.512700
C181	C18	0.846000	0.119300	0.552000
H251	H25	0.910400	0.187700	0.566600
H261	H26	0.814900	0.075300	0.600300
H271	H27	0.866100	0.080000	0.513900
Cu101	Cu10	0.373490	0.444620	0.940090
N551	N55	0.074400	0.421700	0.013700
N561	N56	0.126900	0.516900	0.969300
N571	N57	0.220900	0.529700	0.943500
N581	N58	0.233900	0.447900	0.969900
N591	N59	0.199900	0.645400	0.790100
N601	N60	0.102400	0.627900	0.816600
C191	C19	0.142700	0.381200	0.012700
C201	C20	0.119300	0.273300	0.052000
H281	H28	0.187700	0.277300	0.066600
H291	H29	0.075300	0.260400	0.100300
H301	H30	0.080000	0.213900	0.013900
Cu111	Cu11	0.555380	0.928870	0.940090
N611	N61	0.578300	0.652700	0.013700
N621	N62	0.483100	0.610000	0.969300
N631	N63	0.470300	0.691200	0.943500
N641	N64	0.552100	0.786000	0.969900
N651	N65	0.354600	0.554500	0.790100
N661	N66	0.372100	0.474500	0.816600
C211	C21	0.618800	0.761500	0.012700
C221	C22	0.726700	0.846000	0.052000
H311	H31	0.722700	0.910400	0.066600
H321	H32	0.739600	0.814900	0.100300
H331	H33	0.786100	0.866100	0.013900
Cu121	Cu12	0.071130	0.626510	0.940090
N671	N67	0.347300	0.925600	0.013700
N681	N68	0.390000	0.873100	0.969300
N691	N69	0.308800	0.779100	0.943500
N701	N70	0.214000	0.766100	0.969900
N711	N71	0.445500	0.800100	0.790100
N721	N72	0.525500	0.897600	0.816600
C231	C23	0.238500	0.857300	0.012700
C241	C24	0.154000	0.880700	0.052000
H341	H34	0.089600	0.812300	0.066600
H351	H35	0.185100	0.924700	0.100300
H361	H36	0.133900	0.920000	0.013900
Cu131	Cu13	0.333330	0.666670	0.630320
Cu141	Cu14	0.666670	0.333330	0.130320
Cu151	Cu15	0.666670	0.333330	0.369680
Cu161	Cu16	0.333330	0.666670	0.869680
C251	C25	0.045900	0.618000	0.750000
C261	C26	0.928700	0.600000	0.750000
C271	C27	0.382000	0.427900	0.750000
C281	C28	0.400000	0.328700	0.750000
C291	C29	0.572100	0.954100	0.750000
C301	C30	0.671300	0.071300	0.750000
C311	C31	0.954100	0.382000	0.250000
C321	C32	0.071300	0.400000	0.250000
C331	C33	0.618000	0.572100	0.250000
C341	C34	0.600000	0.671300	0.250000
C351	C35	0.427900	0.045900	0.250000
C361	C36	0.328700	0.928700	0.250000
