data_UQUCUG_clean_PM
_symmetry_space_group_name_H-M	'P1'
_cell_length_a	15.387300
_cell_length_b	15.387300
_cell_length_c	9.858200
_cell_angle_alpha	90.000000
_cell_angle_beta	90.000000
_cell_angle_gamma	90.000000
_symmetry_Int_Tables_number 1

loop_
_symmetry_equiv_pos_as_xyz
'x,y,z'

loop_
_atom_site_label
_atom_site_type_symbol
_atom_site_fract_x
_atom_site_fract_y
_atom_site_fract_z
O11	O1	0.469120	0.625750	0.876100
C11	C1	0.615600	0.756800	0.879900
H11	H1	0.590700	0.738000	0.799000
C21	C2	0.686700	0.806300	0.881600
H21	H2	0.710100	0.825700	0.800100
O21	O2	0.530880	0.374250	0.876100
C31	C3	0.384400	0.243200	0.879900
H31	H3	0.409300	0.262000	0.799000
C41	C4	0.313300	0.193700	0.881600
H41	H4	0.289900	0.174300	0.800100
O31	O3	0.374250	0.469120	0.876100
C51	C5	0.243200	0.615600	0.879900
H51	H5	0.262000	0.590700	0.799000
C61	C6	0.193700	0.686700	0.881600
H61	H6	0.174300	0.710100	0.800100
O41	O4	0.625750	0.530880	0.876100
C71	C7	0.756800	0.384400	0.879900
H71	H7	0.738000	0.409300	0.799000
C81	C8	0.806300	0.313300	0.881600
H81	H8	0.825700	0.289900	0.800100
O51	O5	0.530880	0.625750	0.623900
C91	C9	0.384400	0.756800	0.620100
H91	H9	0.409300	0.738000	0.701000
C101	C10	0.313300	0.806300	0.618400
H101	H10	0.289900	0.825700	0.699900
O61	O6	0.469120	0.374250	0.623900
C111	C11	0.615600	0.243200	0.620100
H111	H11	0.590700	0.262000	0.701000
C121	C12	0.686700	0.193700	0.618400
H121	H12	0.710100	0.174300	0.699900
O71	O7	0.625750	0.469120	0.623900
C131	C13	0.756800	0.615600	0.620100
H131	H13	0.738000	0.590700	0.701000
C141	C14	0.806300	0.686700	0.618400
H141	H14	0.825700	0.710100	0.699900
O81	O8	0.374250	0.530880	0.623900
C151	C15	0.243200	0.384400	0.620100
H151	H15	0.262000	0.409300	0.701000
C161	C16	0.193700	0.313300	0.618400
H161	H16	0.174300	0.289900	0.699900
O91	O9	0.530880	0.374250	0.123900
C171	C17	0.384400	0.243200	0.120100
H171	H17	0.409300	0.262000	0.201000
C181	C18	0.313300	0.193700	0.118400
H181	H18	0.289900	0.174300	0.199900
O101	O10	0.469120	0.625750	0.123900
C191	C19	0.615600	0.756800	0.120100
H191	H19	0.590700	0.738000	0.201000
C201	C20	0.686700	0.806300	0.118400
H201	H20	0.710100	0.825700	0.199900
O111	O11	0.625750	0.530880	0.123900
C211	C21	0.756800	0.384400	0.120100
H211	H21	0.738000	0.409300	0.201000
C221	C22	0.806300	0.313300	0.118400
H221	H22	0.825700	0.289900	0.199900
O121	O12	0.374250	0.469120	0.123900
C231	C23	0.243200	0.615600	0.120100
H231	H23	0.262000	0.590700	0.201000
C241	C24	0.193700	0.686700	0.118400
H241	H24	0.174300	0.710100	0.199900
O131	O13	0.469120	0.374250	0.376100
C251	C25	0.615600	0.243200	0.379900
H251	H25	0.590700	0.262000	0.299000
C261	C26	0.686700	0.193700	0.381600
H261	H26	0.710100	0.174300	0.300100
O141	O14	0.530880	0.625750	0.376100
C271	C27	0.384400	0.756800	0.379900
H271	H27	0.409300	0.738000	0.299000
C281	C28	0.313300	0.806300	0.381600
H281	H28	0.289900	0.825700	0.300100
O151	O15	0.374250	0.530880	0.376100
C291	C29	0.243200	0.384400	0.379900
H291	H29	0.262000	0.409300	0.299000
C301	C30	0.193700	0.313300	0.381600
H301	H30	0.174300	0.289900	0.300100
O161	O16	0.625750	0.469120	0.376100
C311	C31	0.756800	0.615600	0.379900
H311	H31	0.738000	0.590700	0.299000
C321	C32	0.806300	0.686700	0.381600
H321	H32	0.825700	0.710100	0.300100
Gd11	Gd1	0.500000	0.500000	0.750000
Gd21	Gd2	0.500000	0.500000	0.250000
S11	S1	0.474780	0.678900	0.000000
N11	N1	0.968000	0.870200	0.000000
O171	O17	0.414800	0.744800	0.000000
C331	C33	0.581900	0.735700	0.000000
C341	C34	0.725600	0.829100	0.000000
C351	C35	0.811900	0.880300	0.000000
C361	C36	0.884600	0.834300	0.000000
C371	C37	0.894200	0.738900	0.000000
H331	H33	0.849200	0.698500	0.000000
C381	C38	0.981900	0.720400	0.000000
H341	H34	0.007200	0.665500	0.000000
C391	C39	0.025700	0.800600	0.000000
S21	S2	0.525220	0.321100	0.000000
N21	N2	0.032000	0.129800	0.000000
O181	O18	0.585200	0.255200	0.000000
C401	C40	0.418100	0.264300	0.000000
C411	C41	0.274400	0.170900	0.000000
C421	C42	0.188100	0.119700	0.000000
C431	C43	0.115400	0.165700	0.000000
C441	C44	0.105800	0.261100	0.000000
H351	H35	0.150800	0.301500	0.000000
C451	C45	0.018100	0.279600	0.000000
H361	H36	0.992800	0.334500	0.000000
C461	C46	0.974300	0.199400	0.000000
S31	S3	0.321100	0.474780	0.000000
N31	N3	0.129800	0.968000	0.000000
O191	O19	0.255200	0.414800	0.000000
C471	C47	0.264300	0.581900	0.000000
C481	C48	0.170900	0.725600	0.000000
C491	C49	0.119700	0.811900	0.000000
C501	C50	0.165700	0.884600	0.000000
C511	C51	0.261100	0.894200	0.000000
H371	H37	0.301500	0.849200	0.000000
C521	C52	0.279600	0.981900	0.000000
H381	H38	0.334500	0.007200	0.000000
C531	C53	0.199400	0.025700	0.000000
S41	S4	0.678900	0.525220	0.000000
N41	N4	0.870200	0.032000	0.000000
O201	O20	0.744800	0.585200	0.000000
C541	C54	0.735700	0.418100	0.000000
C551	C55	0.829100	0.274400	0.000000
C561	C56	0.880300	0.188100	0.000000
C571	C57	0.834300	0.115400	0.000000
C581	C58	0.738900	0.105800	0.000000
H391	H39	0.698500	0.150800	0.000000
C591	C59	0.720400	0.018100	0.000000
H401	H40	0.665500	0.992800	0.000000
C601	C60	0.800600	0.974300	0.000000
S51	S5	0.525220	0.678900	0.500000
N51	N5	0.032000	0.870200	0.500000
O211	O21	0.585200	0.744800	0.500000
C611	C61	0.418100	0.735700	0.500000
C621	C62	0.274400	0.829100	0.500000
C631	C63	0.188100	0.880300	0.500000
C641	C64	0.115400	0.834300	0.500000
C651	C65	0.105800	0.738900	0.500000
H411	H41	0.150800	0.698500	0.500000
C661	C66	0.018100	0.720400	0.500000
H421	H42	0.992800	0.665500	0.500000
C671	C67	0.974300	0.800600	0.500000
S61	S6	0.474780	0.321100	0.500000
N61	N6	0.968000	0.129800	0.500000
O221	O22	0.414800	0.255200	0.500000
C681	C68	0.581900	0.264300	0.500000
C691	C69	0.725600	0.170900	0.500000
C701	C70	0.811900	0.119700	0.500000
C711	C71	0.884600	0.165700	0.500000
C721	C72	0.894200	0.261100	0.500000
H431	H43	0.849200	0.301500	0.500000
C731	C73	0.981900	0.279600	0.500000
H441	H44	0.007200	0.334500	0.500000
C741	C74	0.025700	0.199400	0.500000
S71	S7	0.678900	0.474780	0.500000
N71	N7	0.870200	0.968000	0.500000
O231	O23	0.744800	0.414800	0.500000
C751	C75	0.735700	0.581900	0.500000
C761	C76	0.829100	0.725600	0.500000
C771	C77	0.880300	0.811900	0.500000
C781	C78	0.834300	0.884600	0.500000
C791	C79	0.738900	0.894200	0.500000
H451	H45	0.698500	0.849200	0.500000
C801	C80	0.720400	0.981900	0.500000
H461	H46	0.665500	0.007200	0.500000
C811	C81	0.800600	0.025700	0.500000
S81	S8	0.321100	0.525220	0.500000
N81	N8	0.129800	0.032000	0.500000
O241	O24	0.255200	0.585200	0.500000
C821	C82	0.264300	0.418100	0.500000
C831	C83	0.170900	0.274400	0.500000
C841	C84	0.119700	0.188100	0.500000
C851	C85	0.165700	0.115400	0.500000
C861	C86	0.261100	0.105800	0.500000
H471	H47	0.301500	0.150800	0.500000
C871	C87	0.279600	0.018100	0.500000
H481	H48	0.334500	0.992800	0.500000
C881	C88	0.199400	0.974300	0.500000
