data_URUVUA_clean_PM
_symmetry_space_group_name_H-M	'P1'
_cell_length_a	18.899000
_cell_length_b	18.899000
_cell_length_c	31.690000
_cell_angle_alpha	90.000000
_cell_angle_beta	90.000000
_cell_angle_gamma	120.000000
_symmetry_Int_Tables_number 1

loop_
_symmetry_equiv_pos_as_xyz
'x,y,z'

loop_
_atom_site_label
_atom_site_type_symbol
_atom_site_fract_x
_atom_site_fract_y
_atom_site_fract_z
O11	O1	0.517500	0.626900	0.006910
O21	O2	0.554800	0.590300	0.947280
C11	C1	0.601300	0.739300	0.911200
H11	H1	0.612100	0.702400	0.897300
C21	C2	0.545700	0.640400	0.970800
C31	C3	0.567400	0.720900	0.951010
Cl11	Cl1	0.559000	0.846000	0.808960
O31	O3	0.184170	0.960230	0.340240
O41	O4	0.221470	0.923630	0.280610
C41	C4	0.267970	0.072630	0.244530
H21	H2	0.278770	0.035730	0.230630
C51	C5	0.212370	0.973730	0.304130
C61	C6	0.234070	0.054230	0.284340
Cl21	Cl2	0.225670	0.179330	0.142290
O51	O5	0.850830	0.293570	0.673580
O61	O6	0.888130	0.256970	0.613950
C71	C7	0.934630	0.405970	0.577870
H31	H3	0.945430	0.369070	0.563970
C81	C8	0.879030	0.307070	0.637470
C91	C9	0.900730	0.387570	0.617680
Cl31	Cl3	0.892330	0.512670	0.475630
O71	O7	0.373100	0.890600	0.006910
O81	O8	0.409700	0.964500	0.947280
C101	C10	0.260700	0.862000	0.911200
H41	H4	0.297600	0.909700	0.897300
C111	C11	0.359600	0.905300	0.970800
C121	C12	0.279100	0.846500	0.951010
Cl41	Cl4	0.154000	0.713000	0.808960
O91	O9	0.039770	0.223930	0.340240
O101	O10	0.076370	0.297830	0.280610
C131	C13	0.927370	0.195330	0.244530
H51	H5	0.964270	0.243030	0.230630
C141	C14	0.026270	0.238630	0.304130
C151	C15	0.945770	0.179830	0.284340
Cl51	Cl5	0.820670	0.046330	0.142290
O111	O11	0.706430	0.557270	0.673580
O121	O12	0.743030	0.631170	0.613950
C161	C16	0.594030	0.528670	0.577870
H61	H6	0.630930	0.576370	0.563970
C171	C17	0.692930	0.571970	0.637470
C181	C18	0.612430	0.513170	0.617680
Cl61	Cl6	0.487330	0.379670	0.475630
O131	O13	0.109400	0.482500	0.006910
O141	O14	0.035500	0.445200	0.947280
C191	C19	0.138000	0.398700	0.911200
H71	H7	0.090300	0.387900	0.897300
C201	C20	0.094700	0.454300	0.970800
C211	C21	0.153500	0.432600	0.951010
Cl71	Cl7	0.287000	0.441000	0.808960
O151	O15	0.776070	0.815830	0.340240
O161	O16	0.702170	0.778530	0.280610
C221	C22	0.804670	0.732030	0.244530
H81	H8	0.756970	0.721230	0.230630
C231	C23	0.761370	0.787630	0.304130
C241	C24	0.820170	0.765930	0.284340
Cl81	Cl8	0.953670	0.774330	0.142290
O171	O17	0.442730	0.149170	0.673580
O181	O18	0.368830	0.111870	0.613950
C251	C25	0.471330	0.065370	0.577870
H91	H9	0.423630	0.054570	0.563970
C261	C26	0.428030	0.120970	0.637470
C271	C27	0.486830	0.099270	0.617680
Cl91	Cl9	0.620330	0.107670	0.475630
O191	O19	0.626900	0.517500	0.993090
O201	O20	0.590300	0.554800	0.052720
C281	C28	0.739300	0.601300	0.088800
H101	H10	0.702400	0.612100	0.102700
C291	C29	0.640400	0.545700	0.029200
C301	C30	0.720900	0.567400	0.048990
Cl101	Cl10	0.846000	0.559000	0.191040
O211	O21	0.293570	0.850830	0.326420
O221	O22	0.256970	0.888130	0.386050
C311	C31	0.405970	0.934630	0.422130
H111	H11	0.369070	0.945430	0.436030
C321	C32	0.307070	0.879030	0.362530
C331	C33	0.387570	0.900730	0.382320
Cl111	Cl11	0.512670	0.892330	0.524370
O231	O23	0.960230	0.184170	0.659760
O241	O24	0.923630	0.221470	0.719390
C341	C34	0.072630	0.267970	0.755470
H121	H12	0.035730	0.278770	0.769370
C351	C35	0.973730	0.212370	0.695870
C361	C36	0.054230	0.234070	0.715660
Cl121	Cl12	0.179330	0.225670	0.857710
O251	O25	0.890600	0.373100	0.993090
O261	O26	0.964500	0.409700	0.052720
C371	C37	0.862000	0.260700	0.088800
H131	H13	0.909700	0.297600	0.102700
C381	C38	0.905300	0.359600	0.029200
C391	C39	0.846500	0.279100	0.048990
Cl131	Cl13	0.713000	0.154000	0.191040
O271	O27	0.557270	0.706430	0.326420
O281	O28	0.631170	0.743030	0.386050
C401	C40	0.528670	0.594030	0.422130
H141	H14	0.576370	0.630930	0.436030
C411	C41	0.571970	0.692930	0.362530
C421	C42	0.513170	0.612430	0.382320
Cl141	Cl14	0.379670	0.487330	0.524370
O291	O29	0.223930	0.039770	0.659760
O301	O30	0.297830	0.076370	0.719390
C431	C43	0.195330	0.927370	0.755470
H151	H15	0.243030	0.964270	0.769370
C441	C44	0.238630	0.026270	0.695870
C451	C45	0.179830	0.945770	0.715660
Cl151	Cl15	0.046330	0.820670	0.857710
O311	O31	0.482500	0.109400	0.993090
O321	O32	0.445200	0.035500	0.052720
C461	C46	0.398700	0.138000	0.088800
H161	H16	0.387900	0.090300	0.102700
C471	C47	0.454300	0.094700	0.029200
C481	C48	0.432600	0.153500	0.048990
Cl161	Cl16	0.441000	0.287000	0.191040
O331	O33	0.149170	0.442730	0.326420
O341	O34	0.111870	0.368830	0.386050
C491	C49	0.065370	0.471330	0.422130
H171	H17	0.054570	0.423630	0.436030
C501	C50	0.120970	0.428030	0.362530
C511	C51	0.099270	0.486830	0.382320
Cl171	Cl17	0.107670	0.620330	0.524370
O351	O35	0.815830	0.776070	0.659760
O361	O36	0.778530	0.702170	0.719390
C521	C52	0.732030	0.804670	0.755470
H181	H18	0.721230	0.756970	0.769370
C531	C53	0.787630	0.761370	0.695870
C541	C54	0.765930	0.820170	0.715660
Cl181	Cl18	0.774330	0.953670	0.857710
O371	O37	0.482500	0.373100	0.993090
O381	O38	0.445200	0.409700	0.052720
C551	C55	0.398700	0.260700	0.088800
H191	H19	0.387900	0.297600	0.102700
C561	C56	0.454300	0.359600	0.029200
C571	C57	0.432600	0.279100	0.048990
Cl191	Cl19	0.441000	0.154000	0.191040
O391	O39	0.149170	0.706430	0.326420
O401	O40	0.111870	0.743030	0.386050
C581	C58	0.065370	0.594030	0.422130
H201	H20	0.054570	0.630930	0.436030
C591	C59	0.120970	0.692930	0.362530
C601	C60	0.099270	0.612430	0.382320
Cl201	Cl20	0.107670	0.487330	0.524370
O411	O41	0.815830	0.039770	0.659760
O421	O42	0.778530	0.076370	0.719390
C611	C61	0.732030	0.927370	0.755470
H211	H21	0.721230	0.964270	0.769370
C621	C62	0.787630	0.026270	0.695870
C631	C63	0.765930	0.945770	0.715660
Cl211	Cl21	0.774330	0.820670	0.857710
O431	O43	0.626900	0.109400	0.993090
O441	O44	0.590300	0.035500	0.052720
C641	C64	0.739300	0.138000	0.088800
H221	H22	0.702400	0.090300	0.102700
C651	C65	0.640400	0.094700	0.029200
C661	C66	0.720900	0.153500	0.048990
Cl221	Cl22	0.846000	0.287000	0.191040
O451	O45	0.293570	0.442730	0.326420
O461	O46	0.256970	0.368830	0.386050
C671	C67	0.405970	0.471330	0.422130
H231	H23	0.369070	0.423630	0.436030
C681	C68	0.307070	0.428030	0.362530
C691	C69	0.387570	0.486830	0.382320
Cl231	Cl23	0.512670	0.620330	0.524370
O471	O47	0.960230	0.776070	0.659760
O481	O48	0.923630	0.702170	0.719390
C701	C70	0.072630	0.804670	0.755470
H241	H24	0.035730	0.756970	0.769370
C711	C71	0.973730	0.761370	0.695870
C721	C72	0.054230	0.820170	0.715660
Cl241	Cl24	0.179330	0.953670	0.857710
O491	O49	0.890600	0.517500	0.993090
O501	O50	0.964500	0.554800	0.052720
C731	C73	0.862000	0.601300	0.088800
H251	H25	0.909700	0.612100	0.102700
C741	C74	0.905300	0.545700	0.029200
C751	C75	0.846500	0.567400	0.048990
Cl251	Cl25	0.713000	0.559000	0.191040
O511	O51	0.557270	0.850830	0.326420
O521	O52	0.631170	0.888130	0.386050
C761	C76	0.528670	0.934630	0.422130
H261	H26	0.576370	0.945430	0.436030
C771	C77	0.571970	0.879030	0.362530
C781	C78	0.513170	0.900730	0.382320
Cl261	Cl26	0.379670	0.892330	0.524370
O531	O53	0.223930	0.184170	0.659760
O541	O54	0.297830	0.221470	0.719390
C791	C79	0.195330	0.267970	0.755470
H271	H27	0.243030	0.278770	0.769370
C801	C80	0.238630	0.212370	0.695870
C811	C81	0.179830	0.234070	0.715660
Cl271	Cl27	0.046330	0.225670	0.857710
O551	O55	0.373100	0.482500	0.006910
O561	O56	0.409700	0.445200	0.947280
C821	C82	0.260700	0.398700	0.911200
H281	H28	0.297600	0.387900	0.897300
C831	C83	0.359600	0.454300	0.970800
C841	C84	0.279100	0.432600	0.951010
Cl281	Cl28	0.154000	0.441000	0.808960
O571	O57	0.039770	0.815830	0.340240
O581	O58	0.076370	0.778530	0.280610
C851	C85	0.927370	0.732030	0.244530
H291	H29	0.964270	0.721230	0.230630
C861	C86	0.026270	0.787630	0.304130
C871	C87	0.945770	0.765930	0.284340
Cl291	Cl29	0.820670	0.774330	0.142290
O591	O59	0.706430	0.149170	0.673580
O601	O60	0.743030	0.111870	0.613950
C881	C88	0.594030	0.065370	0.577870
H301	H30	0.630930	0.054570	0.563970
C891	C89	0.692930	0.120970	0.637470
C901	C90	0.612430	0.099270	0.617680
Cl301	Cl30	0.487330	0.107670	0.475630
O611	O61	0.109400	0.626900	0.006910
O621	O62	0.035500	0.590300	0.947280
C911	C91	0.138000	0.739300	0.911200
H311	H31	0.090300	0.702400	0.897300
C921	C92	0.094700	0.640400	0.970800
C931	C93	0.153500	0.720900	0.951010
Cl311	Cl31	0.287000	0.846000	0.808960
O631	O63	0.776070	0.960230	0.340240
O641	O64	0.702170	0.923630	0.280610
C941	C94	0.804670	0.072630	0.244530
H321	H32	0.756970	0.035730	0.230630
C951	C95	0.761370	0.973730	0.304130
C961	C96	0.820170	0.054230	0.284340
Cl321	Cl32	0.953670	0.179330	0.142290
O651	O65	0.442730	0.293570	0.673580
O661	O66	0.368830	0.256970	0.613950
C971	C97	0.471330	0.405970	0.577870
H331	H33	0.423630	0.369070	0.563970
C981	C98	0.428030	0.307070	0.637470
C991	C99	0.486830	0.387570	0.617680
Cl331	Cl33	0.620330	0.512670	0.475630
O671	O67	0.517500	0.890600	0.006910
O681	O68	0.554800	0.964500	0.947280
C1001	C100	0.601300	0.862000	0.911200
H341	H34	0.612100	0.909700	0.897300
C1011	C101	0.545700	0.905300	0.970800
C1021	C102	0.567400	0.846500	0.951010
Cl341	Cl34	0.559000	0.713000	0.808960
O691	O69	0.184170	0.223930	0.340240
O701	O70	0.221470	0.297830	0.280610
C1031	C103	0.267970	0.195330	0.244530
H351	H35	0.278770	0.243030	0.230630
C1041	C104	0.212370	0.238630	0.304130
C1051	C105	0.234070	0.179830	0.284340
Cl351	Cl35	0.225670	0.046330	0.142290
O711	O71	0.850830	0.557270	0.673580
O721	O72	0.888130	0.631170	0.613950
C1061	C106	0.934630	0.528670	0.577870
H361	H36	0.945430	0.576370	0.563970
C1071	C107	0.879030	0.571970	0.637470
C1081	C108	0.900730	0.513170	0.617680
Cl361	Cl36	0.892330	0.379670	0.475630
Cu11	Cu1	0.478150	0.521850	0.035910
Cu21	Cu2	0.144820	0.855180	0.369240
Cu31	Cu3	0.811480	0.188520	0.702580
Cu41	Cu4	0.478150	0.956300	0.035910
Cu51	Cu5	0.144820	0.289630	0.369240
Cu61	Cu6	0.811480	0.622970	0.702580
Cu71	Cu7	0.043700	0.521850	0.035910
Cu81	Cu8	0.710370	0.855180	0.369240
Cu91	Cu9	0.377030	0.188520	0.702580
Cu101	Cu10	0.521850	0.478150	0.964090
Cu111	Cu11	0.188520	0.811480	0.297420
Cu121	Cu12	0.855180	0.144820	0.630760
Cu131	Cu13	0.956300	0.478150	0.964090
Cu141	Cu14	0.622970	0.811480	0.297420
Cu151	Cu15	0.289630	0.144820	0.630760
Cu161	Cu16	0.521850	0.043700	0.964090
Cu171	Cu17	0.188520	0.377030	0.297420
Cu181	Cu18	0.855180	0.710370	0.630760
Pd11	Pd1	0.666670	0.833330	0.833330
Pd21	Pd2	0.166670	0.833330	0.833330
Pd31	Pd3	0.166670	0.333330	0.833330
Pd41	Pd4	0.833330	0.666670	0.166670
Pd51	Pd5	0.500000	0.000000	0.500000
Pd61	Pd6	0.833330	0.166670	0.166670
Pd71	Pd7	0.500000	0.500000	0.500000
Pd81	Pd8	0.333330	0.166670	0.166670
Pd91	Pd9	0.000000	0.500000	0.500000
N11	N1	0.618900	0.809450	0.892100
C1091	C109	0.550700	0.775350	0.971100
H371	H37	0.528300	0.764150	0.998100
N21	N2	0.285570	0.142780	0.225430
C1101	C110	0.217370	0.108680	0.304430
H381	H38	0.194970	0.097480	0.331430
N31	N3	0.952230	0.476120	0.558770
C1111	C111	0.884030	0.442020	0.637770
H391	H39	0.861630	0.430820	0.664770
N41	N4	0.190550	0.809450	0.892100
C1121	C112	0.224650	0.775350	0.971100
H401	H40	0.235850	0.764150	0.998100
N51	N5	0.857220	0.142780	0.225430
C1131	C113	0.891320	0.108680	0.304430
H411	H41	0.902520	0.097480	0.331430
N61	N6	0.523880	0.476120	0.558770
C1141	C114	0.557980	0.442020	0.637770
H421	H42	0.569180	0.430820	0.664770
N71	N7	0.190550	0.381100	0.892100
C1151	C115	0.224650	0.449300	0.971100
H431	H43	0.235850	0.471700	0.998100
N81	N8	0.857220	0.714430	0.225430
C1161	C116	0.891320	0.782630	0.304430
H441	H44	0.902520	0.805030	0.331430
N91	N9	0.523880	0.047770	0.558770
C1171	C117	0.557980	0.115970	0.637770
H451	H45	0.569180	0.138370	0.664770
N101	N10	0.809450	0.618900	0.107900
C1181	C118	0.775350	0.550700	0.028900
H461	H46	0.764150	0.528300	0.001900
N111	N11	0.476120	0.952230	0.441230
C1191	C119	0.442020	0.884030	0.362230
H471	H47	0.430820	0.861630	0.335230
N121	N12	0.142780	0.285570	0.774570
C1201	C120	0.108680	0.217370	0.695570
H481	H48	0.097480	0.194970	0.668570
N131	N13	0.809450	0.190550	0.107900
C1211	C121	0.775350	0.224650	0.028900
H491	H49	0.764150	0.235850	0.001900
N141	N14	0.476120	0.523880	0.441230
C1221	C122	0.442020	0.557980	0.362230
H501	H50	0.430820	0.569180	0.335230
N151	N15	0.142780	0.857220	0.774570
C1231	C123	0.108680	0.891320	0.695570
H511	H51	0.097480	0.902520	0.668570
N161	N16	0.381100	0.190550	0.107900
C1241	C124	0.449300	0.224650	0.028900
H521	H52	0.471700	0.235850	0.001900
N171	N17	0.047770	0.523880	0.441230
C1251	C125	0.115970	0.557980	0.362230
H531	H53	0.138370	0.569180	0.335230
N181	N18	0.714430	0.857220	0.774570
C1261	C126	0.782630	0.891320	0.695570
H541	H54	0.805030	0.902520	0.668570
