data_URUWEL_clean_PM
_symmetry_space_group_name_H-M	'P1'
_cell_length_a	30.855700
_cell_length_b	18.879900
_cell_length_c	10.852200
_cell_angle_alpha	90.000000
_cell_angle_beta	93.251000
_cell_angle_gamma	90.000000
_symmetry_Int_Tables_number 1

loop_
_symmetry_equiv_pos_as_xyz
'x,y,z'

loop_
_atom_site_label
_atom_site_type_symbol
_atom_site_fract_x
_atom_site_fract_y
_atom_site_fract_z
Cu11	Cu1	0.438070	0.077350	0.524910
N11	N1	0.923120	0.505960	0.376440
N21	N2	0.942040	0.503080	0.269670
N31	N3	0.918700	0.466850	0.184340
N41	N4	0.782970	0.406370	0.474300
N51	N5	0.775290	0.360350	0.225600
N61	N6	0.642020	0.250650	0.290030
N71	N7	0.649650	0.287950	0.540390
N81	N8	0.519320	0.101800	0.391780
N91	N9	0.502430	0.097050	0.504420
N101	N10	0.523680	0.135610	0.589950
C11	C1	0.884700	0.468680	0.362930
C21	C2	0.881480	0.443620	0.237360
C31	C3	0.846080	0.405610	0.190580
H11	H1	0.844580	0.388140	0.108400
C41	C4	0.812390	0.394060	0.270330
C51	C5	0.816520	0.418070	0.396790
C61	C6	0.851750	0.456960	0.445610
H21	H2	0.853470	0.474260	0.527840
C71	C7	0.748520	0.373580	0.429000
C81	C8	0.742690	0.355220	0.300420
C91	C9	0.701700	0.321770	0.240450
C101	C10	0.671900	0.293150	0.336670
C111	C11	0.675480	0.313330	0.460250
C121	C12	0.710600	0.364250	0.512610
C131	C13	0.690410	0.434500	0.547040
H31	H3	0.675850	0.455850	0.473620
H41	H4	0.713330	0.466490	0.580210
H51	H5	0.669270	0.426550	0.609590
C141	C14	0.731150	0.327220	0.642680
H61	H6	0.705410	0.336930	0.698730
H71	H7	0.737660	0.285730	0.630420
H81	H8	0.753050	0.363720	0.670790
C151	C15	0.617650	0.240860	0.498450
C161	C16	0.613830	0.221780	0.369570
C171	C17	0.581420	0.174820	0.325220
H91	H9	0.579160	0.161070	0.241020
C181	C18	0.553360	0.149400	0.407050
C191	C19	0.556490	0.168500	0.531260
C201	C20	0.588440	0.216050	0.581210
H101	H10	0.589760	0.229990	0.665440
C211	C21	0.704330	0.283540	0.135970
H111	H11	0.711370	0.315050	0.068170
H121	H12	0.727180	0.247650	0.148220
H131	H13	0.676480	0.260200	0.115830
Cu21	Cu2	0.938070	0.577350	0.524910
N111	N11	0.423120	0.005960	0.376440
N121	N12	0.442040	0.003080	0.269670
N131	N13	0.418700	0.966850	0.184340
N141	N14	0.282970	0.906370	0.474300
N151	N15	0.275290	0.860350	0.225600
N161	N16	0.142020	0.750650	0.290030
N171	N17	0.149650	0.787950	0.540390
N181	N18	0.019320	0.601800	0.391780
N191	N19	0.002430	0.597050	0.504420
N201	N20	0.023680	0.635610	0.589950
C221	C22	0.384700	0.968680	0.362930
C231	C23	0.381480	0.943620	0.237360
C241	C24	0.346080	0.905610	0.190580
H141	H14	0.344580	0.888140	0.108400
C251	C25	0.312390	0.894060	0.270330
C261	C26	0.316520	0.918070	0.396790
C271	C27	0.351750	0.956960	0.445610
H151	H15	0.353470	0.974260	0.527840
C281	C28	0.248520	0.873580	0.429000
C291	C29	0.242690	0.855220	0.300420
C301	C30	0.201700	0.821770	0.240450
C311	C31	0.171900	0.793150	0.336670
C321	C32	0.175480	0.813330	0.460250
C331	C33	0.210600	0.864250	0.512610
C341	C34	0.190410	0.934500	0.547040
H161	H16	0.175850	0.955850	0.473620
H171	H17	0.213330	0.966490	0.580210
H181	H18	0.169270	0.926550	0.609590
C351	C35	0.231150	0.827220	0.642680
H191	H19	0.205410	0.836930	0.698730
H201	H20	0.237660	0.785730	0.630420
H211	H21	0.253050	0.863720	0.670790
C361	C36	0.117650	0.740860	0.498450
C371	C37	0.113830	0.721780	0.369570
C381	C38	0.081420	0.674820	0.325220
H221	H22	0.079160	0.661070	0.241020
C391	C39	0.053360	0.649400	0.407050
C401	C40	0.056490	0.668500	0.531260
C411	C41	0.088440	0.716050	0.581210
H231	H23	0.089760	0.729990	0.665440
C421	C42	0.204330	0.783540	0.135970
H241	H24	0.211370	0.815050	0.068170
H251	H25	0.227180	0.747650	0.148220
H261	H26	0.176480	0.760200	0.115830
Cu31	Cu3	0.561930	0.077350	0.975090
N211	N21	0.076880	0.505960	0.123560
N221	N22	0.057960	0.503080	0.230330
N231	N23	0.081300	0.466850	0.315660
N241	N24	0.217030	0.406370	0.025700
N251	N25	0.224710	0.360350	0.274400
N261	N26	0.357980	0.250650	0.209970
N271	N27	0.350350	0.287950	0.959610
N281	N28	0.480680	0.101800	0.108220
N291	N29	0.497570	0.097050	0.995580
N301	N30	0.476320	0.135610	0.910050
C431	C43	0.115300	0.468680	0.137070
C441	C44	0.118520	0.443620	0.262640
C451	C45	0.153920	0.405610	0.309420
H271	H27	0.155420	0.388140	0.391600
C461	C46	0.187610	0.394060	0.229670
C471	C47	0.183480	0.418070	0.103210
C481	C48	0.148250	0.456960	0.054390
H281	H28	0.146530	0.474260	0.972160
C491	C49	0.251480	0.373580	0.071000
C501	C50	0.257310	0.355220	0.199580
C511	C51	0.298300	0.321770	0.259550
C521	C52	0.328100	0.293150	0.163330
C531	C53	0.324520	0.313330	0.039750
C541	C54	0.289400	0.364250	0.987390
C551	C55	0.309590	0.434500	0.952960
H291	H29	0.324150	0.455850	0.026380
H301	H30	0.286670	0.466490	0.919790
H311	H31	0.330730	0.426550	0.890410
C561	C56	0.268850	0.327220	0.857320
H321	H32	0.294590	0.336930	0.801270
H331	H33	0.262340	0.285730	0.869580
H341	H34	0.246950	0.363720	0.829210
C571	C57	0.382350	0.240860	0.001550
C581	C58	0.386170	0.221780	0.130430
C591	C59	0.418580	0.174820	0.174780
H351	H35	0.420840	0.161070	0.258980
C601	C60	0.446640	0.149400	0.092950
C611	C61	0.443510	0.168500	0.968740
C621	C62	0.411560	0.216050	0.918790
H361	H36	0.410240	0.229990	0.834560
C631	C63	0.295670	0.283540	0.364030
H371	H37	0.288630	0.315050	0.431830
H381	H38	0.272820	0.247650	0.351780
H391	H39	0.323520	0.260200	0.384170
Cu41	Cu4	0.061930	0.577350	0.975090
N311	N31	0.576880	0.005960	0.123560
N321	N32	0.557960	0.003080	0.230330
N331	N33	0.581300	0.966850	0.315660
N341	N34	0.717030	0.906370	0.025700
N351	N35	0.724710	0.860350	0.274400
N361	N36	0.857980	0.750650	0.209970
N371	N37	0.850350	0.787950	0.959610
N381	N38	0.980680	0.601800	0.108220
N391	N39	0.997570	0.597050	0.995580
N401	N40	0.976320	0.635610	0.910050
C641	C64	0.615300	0.968680	0.137070
C651	C65	0.618520	0.943620	0.262640
C661	C66	0.653920	0.905610	0.309420
H401	H40	0.655420	0.888140	0.391600
C671	C67	0.687610	0.894060	0.229670
C681	C68	0.683480	0.918070	0.103210
C691	C69	0.648250	0.956960	0.054390
H411	H41	0.646530	0.974260	0.972160
C701	C70	0.751480	0.873580	0.071000
C711	C71	0.757310	0.855220	0.199580
C721	C72	0.798300	0.821770	0.259550
C731	C73	0.828100	0.793150	0.163330
C741	C74	0.824520	0.813330	0.039750
C751	C75	0.789400	0.864250	0.987390
C761	C76	0.809590	0.934500	0.952960
H421	H42	0.824150	0.955850	0.026380
H431	H43	0.786670	0.966490	0.919790
H441	H44	0.830730	0.926550	0.890410
C771	C77	0.768850	0.827220	0.857320
H451	H45	0.794590	0.836930	0.801270
H461	H46	0.762340	0.785730	0.869580
H471	H47	0.746950	0.863720	0.829210
C781	C78	0.882350	0.740860	0.001550
C791	C79	0.886170	0.721780	0.130430
C801	C80	0.918580	0.674820	0.174780
H481	H48	0.920840	0.661070	0.258980
C811	C81	0.946640	0.649400	0.092950
C821	C82	0.943510	0.668500	0.968740
C831	C83	0.911560	0.716050	0.918790
H491	H49	0.910240	0.729990	0.834560
C841	C84	0.795670	0.783540	0.364030
H501	H50	0.788630	0.815050	0.431830
H511	H51	0.772820	0.747650	0.351780
H521	H52	0.823520	0.760200	0.384170
Cu51	Cu5	0.561930	0.922650	0.475090
N411	N41	0.076880	0.494040	0.623560
N421	N42	0.057960	0.496920	0.730330
N431	N43	0.081300	0.533150	0.815660
N441	N44	0.217030	0.593630	0.525700
N451	N45	0.224710	0.639650	0.774400
N461	N46	0.357980	0.749350	0.709970
N471	N47	0.350350	0.712050	0.459610
N481	N48	0.480680	0.898200	0.608220
N491	N49	0.497570	0.902950	0.495580
N501	N50	0.476320	0.864390	0.410050
C851	C85	0.115300	0.531320	0.637070
C861	C86	0.118520	0.556380	0.762640
C871	C87	0.153920	0.594390	0.809420
H531	H53	0.155420	0.611860	0.891600
C881	C88	0.187610	0.605940	0.729670
C891	C89	0.183480	0.581930	0.603210
C901	C90	0.148250	0.543040	0.554390
H541	H54	0.146530	0.525740	0.472160
C911	C91	0.251480	0.626420	0.571000
C921	C92	0.257310	0.644780	0.699580
C931	C93	0.298300	0.678230	0.759550
C941	C94	0.328100	0.706850	0.663330
C951	C95	0.324520	0.686670	0.539750
C961	C96	0.289400	0.635750	0.487390
C971	C97	0.309590	0.565500	0.452960
H551	H55	0.324150	0.544150	0.526380
H561	H56	0.286670	0.533510	0.419790
H571	H57	0.330730	0.573450	0.390410
C981	C98	0.268850	0.672780	0.357320
H581	H58	0.294590	0.663070	0.301270
H591	H59	0.262340	0.714270	0.369580
H601	H60	0.246950	0.636280	0.329210
C991	C99	0.382350	0.759140	0.501550
C1001	C100	0.386170	0.778220	0.630430
C1011	C101	0.418580	0.825180	0.674780
H611	H61	0.420840	0.838930	0.758980
C1021	C102	0.446640	0.850600	0.592950
C1031	C103	0.443510	0.831500	0.468740
C1041	C104	0.411560	0.783950	0.418790
H621	H62	0.410240	0.770010	0.334560
C1051	C105	0.295670	0.716460	0.864030
H631	H63	0.288630	0.684950	0.931830
H641	H64	0.272820	0.752350	0.851780
H651	H65	0.323520	0.739800	0.884170
Cu61	Cu6	0.061930	0.422650	0.475090
N511	N51	0.576880	0.994040	0.623560
N521	N52	0.557960	0.996920	0.730330
N531	N53	0.581300	0.033150	0.815660
N541	N54	0.717030	0.093630	0.525700
N551	N55	0.724710	0.139650	0.774400
N561	N56	0.857980	0.249350	0.709970
N571	N57	0.850350	0.212050	0.459610
N581	N58	0.980680	0.398200	0.608220
N591	N59	0.997570	0.402950	0.495580
N601	N60	0.976320	0.364390	0.410050
C1061	C106	0.615300	0.031320	0.637070
C1071	C107	0.618520	0.056380	0.762640
C1081	C108	0.653920	0.094390	0.809420
H661	H66	0.655420	0.111860	0.891600
C1091	C109	0.687610	0.105940	0.729670
C1101	C110	0.683480	0.081930	0.603210
C1111	C111	0.648250	0.043040	0.554390
H671	H67	0.646530	0.025740	0.472160
C1121	C112	0.751480	0.126420	0.571000
C1131	C113	0.757310	0.144780	0.699580
C1141	C114	0.798300	0.178230	0.759550
C1151	C115	0.828100	0.206850	0.663330
C1161	C116	0.824520	0.186670	0.539750
C1171	C117	0.789400	0.135750	0.487390
C1181	C118	0.809590	0.065500	0.452960
H681	H68	0.824150	0.044150	0.526380
H691	H69	0.786670	0.033510	0.419790
H701	H70	0.830730	0.073450	0.390410
C1191	C119	0.768850	0.172780	0.357320
H711	H71	0.794590	0.163070	0.301270
H721	H72	0.762340	0.214270	0.369580
H731	H73	0.746950	0.136280	0.329210
C1201	C120	0.882350	0.259140	0.501550
C1211	C121	0.886170	0.278220	0.630430
C1221	C122	0.918580	0.325180	0.674780
H741	H74	0.920840	0.338930	0.758980
C1231	C123	0.946640	0.350600	0.592950
C1241	C124	0.943510	0.331500	0.468740
C1251	C125	0.911560	0.283950	0.418790
H751	H75	0.910240	0.270010	0.334560
C1261	C126	0.795670	0.216460	0.864030
H761	H76	0.788630	0.184950	0.931830
H771	H77	0.772820	0.252350	0.851780
H781	H78	0.823520	0.239800	0.884170
Cu71	Cu7	0.438070	0.922650	0.024910
N611	N61	0.923120	0.494040	0.876440
N621	N62	0.942040	0.496920	0.769670
N631	N63	0.918700	0.533150	0.684340
N641	N64	0.782970	0.593630	0.974300
N651	N65	0.775290	0.639650	0.725600
N661	N66	0.642020	0.749350	0.790030
N671	N67	0.649650	0.712050	0.040390
N681	N68	0.519320	0.898200	0.891780
N691	N69	0.502430	0.902950	0.004420
N701	N70	0.523680	0.864390	0.089950
C1271	C127	0.884700	0.531320	0.862930
C1281	C128	0.881480	0.556380	0.737360
C1291	C129	0.846080	0.594390	0.690580
H791	H79	0.844580	0.611860	0.608400
C1301	C130	0.812390	0.605940	0.770330
C1311	C131	0.816520	0.581930	0.896790
C1321	C132	0.851750	0.543040	0.945610
H801	H80	0.853470	0.525740	0.027840
C1331	C133	0.748520	0.626420	0.929000
C1341	C134	0.742690	0.644780	0.800420
C1351	C135	0.701700	0.678230	0.740450
C1361	C136	0.671900	0.706850	0.836670
C1371	C137	0.675480	0.686670	0.960250
C1381	C138	0.710600	0.635750	0.012610
C1391	C139	0.690410	0.565500	0.047040
H811	H81	0.675850	0.544150	0.973620
H821	H82	0.713330	0.533510	0.080210
H831	H83	0.669270	0.573450	0.109590
C1401	C140	0.731150	0.672780	0.142680
H841	H84	0.705410	0.663070	0.198730
H851	H85	0.737660	0.714270	0.130420
H861	H86	0.753050	0.636280	0.170790
C1411	C141	0.617650	0.759140	0.998450
C1421	C142	0.613830	0.778220	0.869570
C1431	C143	0.581420	0.825180	0.825220
H871	H87	0.579160	0.838930	0.741020
C1441	C144	0.553360	0.850600	0.907050
C1451	C145	0.556490	0.831500	0.031260
C1461	C146	0.588440	0.783950	0.081210
H881	H88	0.589760	0.770010	0.165440
C1471	C147	0.704330	0.716460	0.635970
H891	H89	0.711370	0.684950	0.568170
H901	H90	0.727180	0.752350	0.648220
H911	H91	0.676480	0.739800	0.615830
Cu81	Cu8	0.938070	0.422650	0.024910
N711	N71	0.423120	0.994040	0.876440
N721	N72	0.442040	0.996920	0.769670
N731	N73	0.418700	0.033150	0.684340
N741	N74	0.282970	0.093630	0.974300
N751	N75	0.275290	0.139650	0.725600
N761	N76	0.142020	0.249350	0.790030
N771	N77	0.149650	0.212050	0.040390
N781	N78	0.019320	0.398200	0.891780
N791	N79	0.002430	0.402950	0.004420
N801	N80	0.023680	0.364390	0.089950
C1481	C148	0.384700	0.031320	0.862930
C1491	C149	0.381480	0.056380	0.737360
C1501	C150	0.346080	0.094390	0.690580
H921	H92	0.344580	0.111860	0.608400
C1511	C151	0.312390	0.105940	0.770330
C1521	C152	0.316520	0.081930	0.896790
C1531	C153	0.351750	0.043040	0.945610
H931	H93	0.353470	0.025740	0.027840
C1541	C154	0.248520	0.126420	0.929000
C1551	C155	0.242690	0.144780	0.800420
C1561	C156	0.201700	0.178230	0.740450
C1571	C157	0.171900	0.206850	0.836670
C1581	C158	0.175480	0.186670	0.960250
C1591	C159	0.210600	0.135750	0.012610
C1601	C160	0.190410	0.065500	0.047040
H941	H94	0.175850	0.044150	0.973620
H951	H95	0.213330	0.033510	0.080210
H961	H96	0.169270	0.073450	0.109590
C1611	C161	0.231150	0.172780	0.142680
H971	H97	0.205410	0.163070	0.198730
H981	H98	0.237660	0.214270	0.130420
H991	H99	0.253050	0.136280	0.170790
C1621	C162	0.117650	0.259140	0.998450
C1631	C163	0.113830	0.278220	0.869570
C1641	C164	0.081420	0.325180	0.825220
H1001	H100	0.079160	0.338930	0.741020
C1651	C165	0.053360	0.350600	0.907050
C1661	C166	0.056490	0.331500	0.031260
C1671	C167	0.088440	0.283950	0.081210
H1011	H101	0.089760	0.270010	0.165440
C1681	C168	0.204330	0.216460	0.635970
H1021	H102	0.211370	0.184950	0.568170
H1031	H103	0.227180	0.252350	0.648220
H1041	H104	0.176480	0.239800	0.615830
Cu91	Cu9	0.500000	0.043200	0.250000
Cu101	Cu10	0.000000	0.543200	0.250000
Cu111	Cu11	0.500000	0.956800	0.750000
Cu121	Cu12	0.000000	0.456800	0.750000
Cu131	Cu13	0.500000	0.141440	0.750000
Cu141	Cu14	0.000000	0.641440	0.750000
Cu151	Cu15	0.500000	0.858560	0.250000
Cu161	Cu16	0.000000	0.358560	0.250000
