data_USATAL_clean_PM
_symmetry_space_group_name_H-M	'P1'
_cell_length_a	10.463000
_cell_length_b	11.846000
_cell_length_c	12.511000
_cell_angle_alpha	89.200000
_cell_angle_beta	75.080000
_cell_angle_gamma	73.360000
_symmetry_Int_Tables_number 1

loop_
_symmetry_equiv_pos_as_xyz
'x,y,z'

loop_
_atom_site_label
_atom_site_type_symbol
_atom_site_fract_x
_atom_site_fract_y
_atom_site_fract_z
C11	C1	0.031900	0.848200	0.093100
H11	H1	0.121700	0.818500	0.099900
C21	C2	0.840100	0.865600	0.055700
H21	H2	0.770900	0.849300	0.030100
C31	C3	0.828700	0.965700	0.107700
H31	H3	0.750700	0.031100	0.125200
C41	C4	0.982000	0.043300	0.192600
H41	H4	0.959800	0.118700	0.159800
H51	H5	0.080700	0.018700	0.186000
C51	C5	0.904700	0.058600	0.313800
C61	C6	0.819500	0.166800	0.360300
H61	H6	0.808300	0.230900	0.316200
C71	C7	0.750600	0.182300	0.470300
H71	H7	0.697100	0.257400	0.500600
C81	C8	0.759000	0.088100	0.537000
C91	C9	0.842000	0.978200	0.490100
H81	H8	0.849300	0.913700	0.533800
C101	C10	0.914300	0.962300	0.380000
H91	H9	0.969500	0.887500	0.349700
C111	C11	0.461600	0.270700	0.711900
H101	H10	0.499000	0.323600	0.738100
C121	C12	0.321800	0.194100	0.664600
H111	H11	0.241500	0.183700	0.653000
C131	C13	0.444300	0.112900	0.640800
H121	H12	0.465700	0.037400	0.608200
C141	C14	0.681200	0.107900	0.657800
H131	H13	0.696100	0.032900	0.691900
H141	H14	0.717200	0.158600	0.694700
C151	C15	0.092100	0.592600	0.226000
C161	C16	0.174000	0.561400	0.310600
C171	C17	0.105400	0.595400	0.421500
H151	H15	0.015900	0.646600	0.442000
C181	C18	0.176700	0.549500	0.501300
C191	C19	0.310400	0.471900	0.471100
H161	H16	0.356400	0.443500	0.524900
C201	C20	0.374300	0.437500	0.359700
C211	C21	0.309300	0.486200	0.278800
H171	H17	0.355500	0.468900	0.204100
C221	C22	0.982800	0.655200	0.648700
H181	H18	0.918400	0.623800	0.624100
H191	H19	0.981700	0.729900	0.615600
C231	C23	0.937800	0.675200	0.773400
C241	C24	0.576800	0.317500	0.227900
H201	H20	0.514100	0.327900	0.181000
H211	H21	0.625800	0.234000	0.223800
C251	C25	0.681100	0.385000	0.182900
Co11	Co1	0.055700	0.611350	0.992800
Co21	Co2	0.173060	0.447860	0.773540
N11	N1	0.970900	0.788900	0.045100
N21	N2	0.948900	0.956500	0.130900
N31	N3	0.533100	0.161900	0.673700
N41	N4	0.331900	0.296700	0.709200
O11	O1	0.126500	0.433800	0.938100
O21	O2	0.962000	0.627300	0.264500
O31	O3	0.154400	0.576700	0.124900
O41	O4	0.119300	0.574400	0.613000
O51	O5	0.825300	0.750300	0.812200
O61	O6	0.017400	0.614400	0.828100
O71	O7	0.497400	0.353500	0.339800
O81	O8	0.680100	0.468600	0.243100
O91	O9	0.760800	0.347300	0.090000
C261	C26	0.968100	0.151800	0.906900
H221	H22	0.878300	0.181500	0.900100
C271	C27	0.159900	0.134400	0.944300
H231	H23	0.229100	0.150700	0.969900
C281	C28	0.171300	0.034300	0.892300
H241	H24	0.249300	0.968900	0.874800
C291	C29	0.018000	0.956700	0.807400
H251	H25	0.040200	0.881300	0.840200
H261	H26	0.919300	0.981300	0.814000
C301	C30	0.095300	0.941400	0.686200
C311	C31	0.180500	0.833200	0.639700
H271	H27	0.191700	0.769100	0.683800
C321	C32	0.249400	0.817700	0.529700
H281	H28	0.302900	0.742600	0.499400
C331	C33	0.241000	0.911900	0.463000
C341	C34	0.158000	0.021800	0.509900
H291	H29	0.150700	0.086300	0.466200
C351	C35	0.085700	0.037700	0.620000
H301	H30	0.030500	0.112500	0.650300
C361	C36	0.538400	0.729300	0.288100
H311	H31	0.501000	0.676400	0.261900
C371	C37	0.678200	0.805900	0.335400
H321	H32	0.758500	0.816300	0.347000
C381	C38	0.555700	0.887100	0.359200
H331	H33	0.534300	0.962600	0.391800
C391	C39	0.318800	0.892100	0.342200
H341	H34	0.303900	0.967100	0.308100
H351	H35	0.282800	0.841400	0.305300
C401	C40	0.907900	0.407400	0.774000
C411	C41	0.826000	0.438600	0.689400
C421	C42	0.894600	0.404600	0.578500
H361	H36	0.984100	0.353400	0.558000
C431	C43	0.823300	0.450500	0.498700
C441	C44	0.689600	0.528100	0.528900
H371	H37	0.643600	0.556500	0.475100
C451	C45	0.625700	0.562500	0.640300
C461	C46	0.690700	0.513800	0.721200
H381	H38	0.644500	0.531100	0.795900
C471	C47	0.017200	0.344800	0.351300
H391	H39	0.081600	0.376200	0.375900
H401	H40	0.018300	0.270100	0.384400
C481	C48	0.062200	0.324800	0.226600
C491	C49	0.423200	0.682500	0.772100
H411	H41	0.485900	0.672100	0.819000
H421	H42	0.374200	0.766000	0.776200
C501	C50	0.318900	0.615000	0.817100
Co31	Co3	0.944300	0.388650	0.007200
Co41	Co4	0.826940	0.552140	0.226460
N51	N5	0.029100	0.211100	0.954900
N61	N6	0.051100	0.043500	0.869100
N71	N7	0.466900	0.838100	0.326300
N81	N8	0.668100	0.703300	0.290800
O101	O10	0.873500	0.566200	0.061900
O111	O11	0.038000	0.372700	0.735500
O121	O12	0.845600	0.423300	0.875100
O131	O13	0.880700	0.425600	0.387000
O141	O14	0.174700	0.249700	0.187800
O151	O15	0.982600	0.385600	0.171900
O161	O16	0.502600	0.646500	0.660200
O171	O17	0.319900	0.531400	0.756900
O181	O18	0.239200	0.652700	0.910000
