data_USORUR_clean_PM
_symmetry_space_group_name_H-M	'P1'
_cell_length_a	12.281300
_cell_length_b	27.320500
_cell_length_c	16.465000
_cell_angle_alpha	90.000000
_cell_angle_beta	102.863000
_cell_angle_gamma	90.000000
_symmetry_Int_Tables_number 1

loop_
_symmetry_equiv_pos_as_xyz
'x,y,z'

loop_
_atom_site_label
_atom_site_type_symbol
_atom_site_fract_x
_atom_site_fract_y
_atom_site_fract_z
Zn11	Zn1	0.057120	0.551430	0.002720
Zn21	Zn2	0.231320	0.464970	0.012870
C11	C1	0.272800	0.555370	0.934800
C21	C2	0.334100	0.583940	0.881000
C31	C3	0.440000	0.569840	0.873700
H11	H1	0.475200	0.542500	0.904400
C41	C4	0.494700	0.595290	0.821700
H21	H2	0.567200	0.585700	0.816700
C51	C5	0.441900	0.634840	0.777600
C61	C6	0.338200	0.650400	0.785600
H31	H3	0.304100	0.678100	0.755600
C71	C7	0.284100	0.624900	0.837900
H41	H4	0.212800	0.635500	0.844400
C81	C8	0.230500	0.510460	0.162700
C91	C9	0.261600	0.518530	0.255200
C101	C10	0.354700	0.495500	0.304900
H51	H5	0.398300	0.473500	0.280600
C111	C11	0.383300	0.505000	0.389700
H61	H6	0.446600	0.489600	0.423800
C121	C12	0.319300	0.536600	0.423900
C131	C13	0.227400	0.558800	0.377200
H71	H7	0.183500	0.580100	0.402500
C141	C14	0.198600	0.550100	0.292000
H81	H8	0.135100	0.565800	0.258800
C151	C15	0.757300	0.866200	0.536500
C161	C16	0.708700	0.815720	0.516500
C171	C17	0.599800	0.809900	0.471300
H91	H9	0.554900	0.837800	0.452900
C181	C18	0.556600	0.763300	0.452900
H101	H10	0.481500	0.759200	0.423100
C191	C19	0.622300	0.723600	0.477900
C201	C20	0.732000	0.728700	0.522000
H111	H11	0.777600	0.700700	0.537700
C211	C21	0.774100	0.775300	0.542700
H121	H12	0.847900	0.779300	0.575000
C221	C22	0.483300	0.642850	0.644700
C231	C23	0.420700	0.601830	0.616400
H131	H13	0.384400	0.583800	0.652100
C241	C24	0.412200	0.587620	0.534000
C251	C25	0.465000	0.612970	0.481100
H141	H14	0.458900	0.602800	0.425100
C261	C26	0.527600	0.653960	0.512900
C271	C27	0.537000	0.669850	0.593500
H151	H15	0.578800	0.698300	0.613500
O11	O1	0.187000	0.574850	0.950200
O21	O2	0.312700	0.514180	0.959600
O31	O3	0.496100	0.660700	0.724600
O41	O4	0.154900	0.536530	0.121900
O51	O5	0.284200	0.477940	0.133400
O61	O6	0.349100	0.546150	0.510100
O71	O7	0.845400	0.870440	0.589700
O81	O8	0.702900	0.901070	0.495100
O91	O9	0.579600	0.676660	0.457000
O101	O10	0.077300	0.479400	0.960650
Zn31	Zn3	0.942880	0.051430	0.497280
Zn41	Zn4	0.768680	0.964970	0.487130
C281	C28	0.727200	0.055370	0.565200
C291	C29	0.665900	0.083940	0.619000
C301	C30	0.560000	0.069840	0.626300
H161	H16	0.524800	0.042500	0.595600
C311	C31	0.505300	0.095290	0.678300
H171	H17	0.432800	0.085700	0.683300
C321	C32	0.558100	0.134840	0.722400
C331	C33	0.661800	0.150400	0.714400
H181	H18	0.695900	0.178100	0.744400
C341	C34	0.715900	0.124900	0.662100
H191	H19	0.787200	0.135500	0.655600
C351	C35	0.769500	0.010460	0.337300
C361	C36	0.738400	0.018530	0.244800
C371	C37	0.645300	0.995500	0.195100
H201	H20	0.601700	0.973500	0.219400
C381	C38	0.616700	0.005000	0.110300
H211	H21	0.553400	0.989600	0.076200
C391	C39	0.680700	0.036600	0.076100
C401	C40	0.772600	0.058800	0.122800
H221	H22	0.816500	0.080100	0.097500
C411	C41	0.801400	0.050100	0.208000
H231	H23	0.864900	0.065800	0.241200
C421	C42	0.242700	0.366200	0.963500
C431	C43	0.291300	0.315720	0.983500
C441	C44	0.400200	0.309900	0.028700
H241	H24	0.445100	0.337800	0.047100
C451	C45	0.443400	0.263300	0.047100
H251	H25	0.518500	0.259200	0.076900
C461	C46	0.377700	0.223600	0.022100
C471	C47	0.268000	0.228700	0.978000
H261	H26	0.222400	0.200700	0.962300
C481	C48	0.225900	0.275300	0.957300
H271	H27	0.152100	0.279300	0.925000
C491	C49	0.516700	0.142850	0.855300
C501	C50	0.579300	0.101830	0.883600
H281	H28	0.615600	0.083800	0.847900
C511	C51	0.587800	0.087620	0.966000
C521	C52	0.535000	0.112970	0.018900
H291	H29	0.541100	0.102800	0.074900
C531	C53	0.472400	0.153960	0.987100
C541	C54	0.463000	0.169850	0.906500
H301	H30	0.421200	0.198300	0.886500
O111	O11	0.813000	0.074850	0.549800
O121	O12	0.687300	0.014180	0.540400
O131	O13	0.503900	0.160700	0.775400
O141	O14	0.845100	0.036530	0.378100
O151	O15	0.715800	0.977940	0.366600
O161	O16	0.650900	0.046150	0.989900
O171	O17	0.154600	0.370440	0.910300
O181	O18	0.297100	0.401070	0.004900
O191	O19	0.420400	0.176660	0.043000
O201	O20	0.922700	0.979400	0.539350
Zn51	Zn5	0.942880	0.448570	0.997280
Zn61	Zn6	0.768680	0.535030	0.987130
C551	C55	0.727200	0.444630	0.065200
C561	C56	0.665900	0.416060	0.119000
C571	C57	0.560000	0.430160	0.126300
H311	H31	0.524800	0.457500	0.095600
C581	C58	0.505300	0.404710	0.178300
H321	H32	0.432800	0.414300	0.183300
C591	C59	0.558100	0.365160	0.222400
C601	C60	0.661800	0.349600	0.214400
H331	H33	0.695900	0.321900	0.244400
C611	C61	0.715900	0.375100	0.162100
H341	H34	0.787200	0.364500	0.155600
C621	C62	0.769500	0.489540	0.837300
C631	C63	0.738400	0.481470	0.744800
C641	C64	0.645300	0.504500	0.695100
H351	H35	0.601700	0.526500	0.719400
C651	C65	0.616700	0.495000	0.610300
H361	H36	0.553400	0.510400	0.576200
C661	C66	0.680700	0.463400	0.576100
C671	C67	0.772600	0.441200	0.622800
H371	H37	0.816500	0.419900	0.597500
C681	C68	0.801400	0.449900	0.708000
H381	H38	0.864900	0.434200	0.741200
C691	C69	0.242700	0.133800	0.463500
C701	C70	0.291300	0.184280	0.483500
C711	C71	0.400200	0.190100	0.528700
H391	H39	0.445100	0.162200	0.547100
C721	C72	0.443400	0.236700	0.547100
H401	H40	0.518500	0.240800	0.576900
C731	C73	0.377700	0.276400	0.522100
C741	C74	0.268000	0.271300	0.478000
H411	H41	0.222400	0.299300	0.462300
C751	C75	0.225900	0.224700	0.457300
H421	H42	0.152100	0.220700	0.425000
C761	C76	0.516700	0.357150	0.355300
C771	C77	0.579300	0.398170	0.383600
H431	H43	0.615600	0.416200	0.347900
C781	C78	0.587800	0.412380	0.466000
C791	C79	0.535000	0.387030	0.518900
H441	H44	0.541100	0.397200	0.574900
C801	C80	0.472400	0.346040	0.487100
C811	C81	0.463000	0.330150	0.406500
H451	H45	0.421200	0.301700	0.386500
O211	O21	0.813000	0.425150	0.049800
O221	O22	0.687300	0.485820	0.040400
O231	O23	0.503900	0.339300	0.275400
O241	O24	0.845100	0.463470	0.878100
O251	O25	0.715800	0.522060	0.866600
O261	O26	0.650900	0.453850	0.489900
O271	O27	0.154600	0.129560	0.410300
O281	O28	0.297100	0.098930	0.504900
O291	O29	0.420400	0.323340	0.543000
O301	O30	0.922700	0.520600	0.039350
Zn71	Zn7	0.057120	0.948570	0.502720
Zn81	Zn8	0.231320	0.035030	0.512870
C821	C82	0.272800	0.944630	0.434800
C831	C83	0.334100	0.916060	0.381000
C841	C84	0.440000	0.930160	0.373700
H461	H46	0.475200	0.957500	0.404400
C851	C85	0.494700	0.904710	0.321700
H471	H47	0.567200	0.914300	0.316700
C861	C86	0.441900	0.865160	0.277600
C871	C87	0.338200	0.849600	0.285600
H481	H48	0.304100	0.821900	0.255600
C881	C88	0.284100	0.875100	0.337900
H491	H49	0.212800	0.864500	0.344400
C891	C89	0.230500	0.989540	0.662700
C901	C90	0.261600	0.981470	0.755200
C911	C91	0.354700	0.004500	0.804900
H501	H50	0.398300	0.026500	0.780600
C921	C92	0.383300	0.995000	0.889700
H511	H51	0.446600	0.010400	0.923800
C931	C93	0.319300	0.963400	0.923900
C941	C94	0.227400	0.941200	0.877200
H521	H52	0.183500	0.919900	0.902500
C951	C95	0.198600	0.949900	0.792000
H531	H53	0.135100	0.934200	0.758800
C961	C96	0.757300	0.633800	0.036500
C971	C97	0.708700	0.684280	0.016500
C981	C98	0.599800	0.690100	0.971300
H541	H54	0.554900	0.662200	0.952900
C991	C99	0.556600	0.736700	0.952900
H551	H55	0.481500	0.740800	0.923100
C1001	C100	0.622300	0.776400	0.977900
C1011	C101	0.732000	0.771300	0.022000
H561	H56	0.777600	0.799300	0.037700
C1021	C102	0.774100	0.724700	0.042700
H571	H57	0.847900	0.720700	0.075000
C1031	C103	0.483300	0.857150	0.144700
C1041	C104	0.420700	0.898170	0.116400
H581	H58	0.384400	0.916200	0.152100
C1051	C105	0.412200	0.912380	0.034000
C1061	C106	0.465000	0.887030	0.981100
H591	H59	0.458900	0.897200	0.925100
C1071	C107	0.527600	0.846040	0.012900
C1081	C108	0.537000	0.830150	0.093500
H601	H60	0.578800	0.801700	0.113500
O311	O31	0.187000	0.925150	0.450200
O321	O32	0.312700	0.985820	0.459600
O331	O33	0.496100	0.839300	0.224600
O341	O34	0.154900	0.963470	0.621900
O351	O35	0.284200	0.022060	0.633400
O361	O36	0.349100	0.953850	0.010100
O371	O37	0.845400	0.629560	0.089700
O381	O38	0.702900	0.598930	0.995100
O391	O39	0.579600	0.823340	0.957000
O401	O40	0.077300	0.020600	0.460650
