data_USUQOQ_clean_PM
_symmetry_space_group_name_H-M	'P1'
_cell_length_a	9.784000
_cell_length_b	10.593400
_cell_length_c	13.945600
_cell_angle_alpha	95.606000
_cell_angle_beta	105.399000
_cell_angle_gamma	100.402000
_symmetry_Int_Tables_number 1

loop_
_symmetry_equiv_pos_as_xyz
'x,y,z'

loop_
_atom_site_label
_atom_site_type_symbol
_atom_site_fract_x
_atom_site_fract_y
_atom_site_fract_z
Nd11	Nd1	0.242590	0.014180	0.968550
Nd21	Nd2	0.138770	0.553990	0.638800
O11	O1	0.622000	0.029100	0.867100
O21	O2	0.853000	0.128300	0.900900
O31	O3	0.793300	0.212600	0.714500
O41	O4	0.942700	0.384100	0.632700
O51	O5	0.771300	0.328800	0.482500
O61	O6	0.242400	0.402900	0.762300
O71	O7	0.370900	0.602500	0.774400
O81	O8	0.461900	0.343900	0.904000
O91	O9	0.477600	0.150000	0.016000
O101	O10	0.719300	0.205800	0.065400
O111	O11	0.920800	0.604800	0.528100
O121	O12	0.694500	0.568200	0.430200
O131	O13	0.855100	0.741300	0.677000
O141	O14	0.838800	0.857600	0.919600
O151	O15	0.021300	0.891000	0.850200
C11	C1	0.724800	0.095100	0.842000
C21	C2	0.689800	0.129600	0.739000
C31	C3	0.570300	0.090100	0.661100
H11	H1	0.485700	0.032400	0.659500
C41	C4	0.598100	0.154300	0.580600
H21	H2	0.535400	0.146900	0.516200
C51	C5	0.733300	0.227400	0.616800
C61	C6	0.823300	0.320500	0.573300
C71	C7	0.358400	0.489500	0.797200
C81	C8	0.484500	0.459600	0.868700
C91	C9	0.624400	0.523000	0.907100
H31	H3	0.666100	0.603300	0.894400
C101	C10	0.695200	0.444000	0.970100
H41	H4	0.792700	0.461600	0.006800
C111	C11	0.592200	0.336300	0.966500
C121	C12	0.595400	0.223900	0.020100
C131	C13	0.788200	0.613700	0.512000
C141	C14	0.743100	0.675300	0.595400
C151	C15	0.613900	0.671600	0.613800
H51	H5	0.522700	0.632900	0.570300
C161	C16	0.645600	0.739400	0.713500
H61	H6	0.578500	0.753500	0.747600
C171	C17	0.791400	0.779100	0.748900
C181	C18	0.891600	0.849000	0.846300
Nd31	Nd3	0.757410	0.985820	0.031450
Nd41	Nd4	0.861230	0.446010	0.361200
O161	O16	0.378000	0.970900	0.132900
O171	O17	0.147000	0.871700	0.099100
O181	O18	0.206700	0.787400	0.285500
O191	O19	0.057300	0.615900	0.367300
O201	O20	0.228700	0.671200	0.517500
O211	O21	0.757600	0.597100	0.237700
O221	O22	0.629100	0.397500	0.225600
O231	O23	0.538100	0.656100	0.096000
O241	O24	0.522400	0.850000	0.984000
O251	O25	0.280700	0.794200	0.934600
O261	O26	0.079200	0.395200	0.471900
O271	O27	0.305500	0.431800	0.569800
O281	O28	0.144900	0.258700	0.323000
O291	O29	0.161200	0.142400	0.080400
O301	O30	0.978700	0.109000	0.149800
C191	C19	0.275200	0.904900	0.158000
C201	C20	0.310200	0.870400	0.261000
C211	C21	0.429700	0.909900	0.338900
H71	H7	0.514300	0.967600	0.340500
C221	C22	0.401900	0.845700	0.419400
H81	H8	0.464600	0.853100	0.483800
C231	C23	0.266700	0.772600	0.383200
C241	C24	0.176700	0.679500	0.426700
C251	C25	0.641600	0.510500	0.202800
C261	C26	0.515500	0.540400	0.131300
C271	C27	0.375600	0.477000	0.092900
H91	H9	0.333900	0.396700	0.105600
C281	C28	0.304800	0.556000	0.029900
H101	H10	0.207300	0.538400	0.993200
C291	C29	0.407800	0.663700	0.033500
C301	C30	0.404600	0.776100	0.979900
C311	C31	0.211800	0.386300	0.488000
C321	C32	0.256900	0.324700	0.404600
C331	C33	0.386100	0.328400	0.386200
H111	H11	0.477300	0.367100	0.429700
C341	C34	0.354400	0.260600	0.286500
H121	H12	0.421500	0.246500	0.252400
C351	C35	0.208600	0.220900	0.251100
C361	C36	0.108400	0.151000	0.153700
