data_UTACOJ_clean_PM
_symmetry_space_group_name_H-M	'P1'
_cell_length_a	17.700300
_cell_length_b	17.700300
_cell_length_c	13.920800
_cell_angle_alpha	90.000000
_cell_angle_beta	90.000000
_cell_angle_gamma	120.000000
_symmetry_Int_Tables_number 1

loop_
_symmetry_equiv_pos_as_xyz
'x,y,z'

loop_
_atom_site_label
_atom_site_type_symbol
_atom_site_fract_x
_atom_site_fract_y
_atom_site_fract_z
Cu11	Cu1	0.874580	0.433530	0.635460
Cu21	Cu2	0.873570	0.429280	0.390200
O11	O1	0.843500	0.374900	0.511500
H11	H1	0.839000	0.326000	0.511000
O21	O2	0.228400	0.548000	0.140500
O31	O3	0.296100	0.495600	0.228500
O41	O4	0.011500	0.560500	0.159400
O51	O5	0.773800	0.450500	0.386500
O61	O6	0.990200	0.436400	0.368000
O71	O7	0.705600	0.502700	0.297100
N11	N1	0.903500	0.499500	0.276500
N21	N2	0.097900	0.500300	0.251800
C11	C1	0.233700	0.509300	0.212800
C21	C2	0.155600	0.469500	0.284200
H21	H2	0.175500	0.488200	0.351700
C31	C3	0.109100	0.363400	0.272500
H31	H3	0.059800	0.335000	0.317000
H41	H4	0.151600	0.344900	0.287200
H51	H5	0.088300	0.346900	0.206500
C41	C4	0.975600	0.518300	0.235000
C51	C5	0.023700	0.481400	0.290300
C61	C6	0.767700	0.491600	0.311100
C71	C7	0.838500	0.518800	0.236100
H61	H6	0.865400	0.582400	0.221200
C81	C8	0.795600	0.460600	0.140700
H71	H7	0.839700	0.479900	0.089800
H81	H8	0.746800	0.467700	0.119200
H91	H9	0.774400	0.399100	0.155400
Cu31	Cu3	0.566470	0.441050	0.635460
Cu41	Cu4	0.570720	0.444290	0.390200
O81	O8	0.625100	0.468600	0.511500
H101	H10	0.674000	0.513000	0.511000
O91	O9	0.452000	0.680400	0.140500
O101	O10	0.504400	0.800500	0.228500
O111	O11	0.439500	0.451000	0.159400
O121	O12	0.549500	0.323300	0.386500
O131	O13	0.563600	0.553800	0.368000
O141	O14	0.497300	0.202900	0.297100
N31	N3	0.500500	0.404000	0.276500
N41	N4	0.499700	0.597600	0.251800
C91	C9	0.490700	0.724400	0.212800
C101	C10	0.530500	0.686100	0.284200
H111	H11	0.511800	0.687300	0.351700
C111	C11	0.636600	0.745700	0.272500
H121	H12	0.665000	0.724800	0.317000
H131	H13	0.655100	0.806700	0.287200
H141	H14	0.653100	0.741400	0.206500
C121	C12	0.481700	0.457300	0.235000
C131	C13	0.518600	0.542300	0.290300
C141	C14	0.508400	0.276100	0.311100
C151	C15	0.481200	0.319700	0.236100
H151	H15	0.417600	0.283000	0.221200
C161	C16	0.539400	0.335000	0.140700
H161	H16	0.520100	0.359800	0.089800
H171	H17	0.532300	0.279100	0.119200
H181	H18	0.600900	0.375300	0.155400
Cu51	Cu5	0.558950	0.125420	0.635460
Cu61	Cu6	0.555710	0.126430	0.390200
O151	O15	0.531400	0.156500	0.511500
H191	H19	0.487000	0.161000	0.511000
O161	O16	0.319600	0.771600	0.140500
O171	O17	0.199500	0.703900	0.228500
O181	O18	0.549000	0.988500	0.159400
O191	O19	0.676700	0.226200	0.386500
O201	O20	0.446200	0.009800	0.368000
O211	O21	0.797100	0.294400	0.297100
N51	N5	0.596000	0.096500	0.276500
N61	N6	0.402400	0.902100	0.251800
C171	C17	0.275600	0.766300	0.212800
C181	C18	0.313900	0.844400	0.284200
H201	H20	0.312700	0.824500	0.351700
C191	C19	0.254300	0.890900	0.272500
H211	H21	0.275200	0.940200	0.317000
H221	H22	0.193300	0.848400	0.287200
H231	H23	0.258600	0.911700	0.206500
C201	C20	0.542700	0.024400	0.235000
C211	C21	0.457700	0.976300	0.290300
C221	C22	0.723900	0.232300	0.311100
C231	C23	0.680300	0.161500	0.236100
H241	H24	0.717000	0.134600	0.221200
C241	C24	0.665000	0.204400	0.140700
H251	H25	0.640200	0.160300	0.089800
H261	H26	0.720900	0.253200	0.119200
H271	H27	0.624700	0.225600	0.155400
Cu71	Cu7	0.125420	0.566470	0.135460
Cu81	Cu8	0.126430	0.570720	0.890200
O221	O22	0.156500	0.625100	0.011500
H281	H28	0.161000	0.674000	0.011000
O231	O23	0.771600	0.452000	0.640500
O241	O24	0.703900	0.504400	0.728500
O251	O25	0.988500	0.439500	0.659400
O261	O26	0.226200	0.549500	0.886500
O271	O27	0.009800	0.563600	0.868000
O281	O28	0.294400	0.497300	0.797100
N71	N7	0.096500	0.500500	0.776500
N81	N8	0.902100	0.499700	0.751800
C251	C25	0.766300	0.490700	0.712800
C261	C26	0.844400	0.530500	0.784200
H291	H29	0.824500	0.511800	0.851700
C271	C27	0.890900	0.636600	0.772500
H301	H30	0.940200	0.665000	0.817000
H311	H31	0.848400	0.655100	0.787200
H321	H32	0.911700	0.653100	0.706500
C281	C28	0.024400	0.481700	0.735000
C291	C29	0.976300	0.518600	0.790300
C301	C30	0.232300	0.508400	0.811100
C311	C31	0.161500	0.481200	0.736100
H331	H33	0.134600	0.417600	0.721200
C321	C32	0.204400	0.539400	0.640700
H341	H34	0.160300	0.520100	0.589800
H351	H35	0.253200	0.532300	0.619200
H361	H36	0.225600	0.600900	0.655400
Cu91	Cu9	0.433530	0.558950	0.135460
Cu101	Cu10	0.429280	0.555710	0.890200
O291	O29	0.374900	0.531400	0.011500
H371	H37	0.326000	0.487000	0.011000
O301	O30	0.548000	0.319600	0.640500
O311	O31	0.495600	0.199500	0.728500
O321	O32	0.560500	0.549000	0.659400
O331	O33	0.450500	0.676700	0.886500
O341	O34	0.436400	0.446200	0.868000
O351	O35	0.502700	0.797100	0.797100
N91	N9	0.499500	0.596000	0.776500
N101	N10	0.500300	0.402400	0.751800
C331	C33	0.509300	0.275600	0.712800
C341	C34	0.469500	0.313900	0.784200
H381	H38	0.488200	0.312700	0.851700
C351	C35	0.363400	0.254300	0.772500
H391	H39	0.335000	0.275200	0.817000
H401	H40	0.344900	0.193300	0.787200
H411	H41	0.346900	0.258600	0.706500
C361	C36	0.518300	0.542700	0.735000
C371	C37	0.481400	0.457700	0.790300
C381	C38	0.491600	0.723900	0.811100
C391	C39	0.518800	0.680300	0.736100
H421	H42	0.582400	0.717000	0.721200
C401	C40	0.460600	0.665000	0.640700
H431	H43	0.479900	0.640200	0.589800
H441	H44	0.467700	0.720900	0.619200
H451	H45	0.399100	0.624700	0.655400
Cu111	Cu11	0.441050	0.874580	0.135460
Cu121	Cu12	0.444290	0.873570	0.890200
O361	O36	0.468600	0.843500	0.011500
H461	H46	0.513000	0.839000	0.011000
O371	O37	0.680400	0.228400	0.640500
O381	O38	0.800500	0.296100	0.728500
O391	O39	0.451000	0.011500	0.659400
O401	O40	0.323300	0.773800	0.886500
O411	O41	0.553800	0.990200	0.868000
O421	O42	0.202900	0.705600	0.797100
N111	N11	0.404000	0.903500	0.776500
N121	N12	0.597600	0.097900	0.751800
C411	C41	0.724400	0.233700	0.712800
C421	C42	0.686100	0.155600	0.784200
H471	H47	0.687300	0.175500	0.851700
C431	C43	0.745700	0.109100	0.772500
H481	H48	0.724800	0.059800	0.817000
H491	H49	0.806700	0.151600	0.787200
H501	H50	0.741400	0.088300	0.706500
C441	C44	0.457300	0.975600	0.735000
C451	C45	0.542300	0.023700	0.790300
C461	C46	0.276100	0.767700	0.811100
C471	C47	0.319700	0.838500	0.736100
H511	H51	0.283000	0.865400	0.721200
C481	C48	0.335000	0.795600	0.640700
H521	H52	0.359800	0.839700	0.589800
H531	H53	0.279100	0.746800	0.619200
H541	H54	0.375300	0.774400	0.655400
Ba11	Ba1	0.666670	0.333330	0.513770
Ba21	Ba2	0.333330	0.666670	0.013770
