data_UTODIR_clean_PM
_symmetry_space_group_name_H-M	'P1'
_cell_length_a	14.577900
_cell_length_b	14.577900
_cell_length_c	36.706100
_cell_angle_alpha	90.000000
_cell_angle_beta	90.000000
_cell_angle_gamma	90.000000
_symmetry_Int_Tables_number 1

loop_
_symmetry_equiv_pos_as_xyz
'x,y,z'

loop_
_atom_site_label
_atom_site_type_symbol
_atom_site_fract_x
_atom_site_fract_y
_atom_site_fract_z
La11	La1	0.138130	0.738940	0.094240
La21	La2	0.861870	0.261060	0.594240
La31	La3	0.761060	0.638130	0.344240
La41	La4	0.238940	0.361870	0.844240
La51	La5	0.361870	0.238940	0.155760
La61	La6	0.638130	0.761060	0.655760
La71	La7	0.738940	0.138130	0.905760
La81	La8	0.261060	0.861870	0.405760
H11	H1	0.312400	0.663200	0.156800
H21	H2	0.341300	0.692900	0.196200
H31	H3	0.298600	0.595600	0.189600
H41	H4	0.205100	0.669000	0.241800
H51	H5	0.003500	0.764000	0.278700
H61	H6	0.060600	0.673800	0.283900
H71	H7	0.108200	0.769600	0.288300
H81	H8	0.924800	0.813500	0.243700
H91	H9	0.952500	0.940200	0.205900
H101	H10	0.926800	0.882900	0.171200
H111	H11	0.799800	0.973900	0.188100
H121	H12	0.800100	0.930200	0.227200
H131	H13	0.687400	0.860800	0.191700
H141	H14	0.761200	0.833000	0.162600
H151	H15	0.883000	0.709100	0.180400
H161	H16	0.307000	0.889200	0.053200
H171	H17	0.331800	0.903400	0.012000
H181	H18	0.297900	0.986600	0.035500
H191	H19	0.193200	0.982600	0.977100
H201	H20	0.976100	0.957200	0.936700
H211	H21	0.042000	0.039200	0.945700
H221	H22	0.077600	0.955900	0.922700
H231	H23	0.898100	0.876600	0.961700
H241	H24	0.922800	0.721800	0.969800
H251	H25	0.912600	0.730900	0.012200
H261	H26	0.777200	0.670200	0.988900
H271	H27	0.767500	0.752700	0.961700
H281	H28	0.918400	0.444800	0.333900
H291	H29	0.929800	0.376100	0.301400
H301	H30	0.013100	0.436300	0.313900
H311	H31	0.993300	0.458400	0.243300
H321	H32	0.956900	0.603900	0.168700
H331	H33	0.041500	0.554300	0.186200
H341	H34	0.954400	0.497600	0.175200
H351	H35	0.752300	0.761200	0.234300
H361	H36	0.729700	0.705400	0.198800
H371	H37	0.050200	0.782500	0.190000
H381	H38	0.033200	0.839500	0.011000
H391	H39	0.854300	0.642700	0.248800
H401	H40	0.687600	0.336800	0.656800
H411	H41	0.658700	0.307100	0.696200
H421	H42	0.701400	0.404400	0.689600
H431	H43	0.794900	0.331000	0.741800
H441	H44	0.996500	0.236000	0.778700
H451	H45	0.939400	0.326200	0.783900
H461	H46	0.891800	0.230400	0.788300
H471	H47	0.075200	0.186500	0.743700
H481	H48	0.047500	0.059800	0.705900
H491	H49	0.073200	0.117100	0.671200
H501	H50	0.200200	0.026100	0.688100
H511	H51	0.199900	0.069800	0.727200
H521	H52	0.312600	0.139200	0.691700
H531	H53	0.238800	0.167000	0.662600
H541	H54	0.117000	0.290900	0.680400
H551	H55	0.693000	0.110800	0.553200
H561	H56	0.668200	0.096600	0.512000
H571	H57	0.702100	0.013400	0.535500
H581	H58	0.806800	0.017400	0.477100
H591	H59	0.023900	0.042800	0.436700
H601	H60	0.958000	0.960800	0.445700
H611	H61	0.922400	0.044100	0.422700
H621	H62	0.101900	0.123400	0.461700
H631	H63	0.077200	0.278200	0.469800
H641	H64	0.087400	0.269100	0.512200
H651	H65	0.222800	0.329800	0.488900
H661	H66	0.232500	0.247300	0.461700
H671	H67	0.081600	0.555200	0.833900
H681	H68	0.070200	0.623900	0.801400
H691	H69	0.986900	0.563700	0.813900
H701	H70	0.006700	0.541600	0.743300
H711	H71	0.043100	0.396100	0.668700
H721	H72	0.958500	0.445700	0.686200
H731	H73	0.045600	0.502400	0.675200
H741	H74	0.247700	0.238800	0.734300
H751	H75	0.270300	0.294600	0.698800
H761	H76	0.949800	0.217500	0.690000
H771	H77	0.966800	0.160500	0.511000
H781	H78	0.145700	0.357300	0.748800
H791	H79	0.836800	0.812400	0.406800
H801	H80	0.807100	0.841300	0.446200
H811	H81	0.904400	0.798600	0.439600
H821	H82	0.831000	0.705100	0.491800
H831	H83	0.736000	0.503500	0.528700
H841	H84	0.826200	0.560600	0.533900
H851	H85	0.730400	0.608200	0.538300
H861	H86	0.686500	0.424800	0.493700
H871	H87	0.559800	0.452500	0.455900
H881	H88	0.617100	0.426800	0.421200
H891	H89	0.526100	0.299800	0.438100
H901	H90	0.569800	0.300100	0.477200
H911	H91	0.639200	0.187400	0.441700
H921	H92	0.667000	0.261200	0.412600
H931	H93	0.790900	0.383000	0.430400
H941	H94	0.610800	0.807000	0.303200
H951	H95	0.596600	0.831800	0.262000
H961	H96	0.513400	0.797900	0.285500
H971	H97	0.517400	0.693200	0.227100
H981	H98	0.542800	0.476100	0.186700
H991	H99	0.460800	0.542000	0.195700
H1001	H100	0.544100	0.577600	0.172700
H1011	H101	0.623400	0.398100	0.211700
H1021	H102	0.778200	0.422800	0.219800
H1031	H103	0.769100	0.412600	0.262200
H1041	H104	0.829800	0.277200	0.238900
H1051	H105	0.747300	0.267500	0.211700
H1061	H106	0.055200	0.418400	0.583900
H1071	H107	0.123900	0.429800	0.551400
H1081	H108	0.063700	0.513100	0.563900
H1091	H109	0.041600	0.493300	0.493300
H1101	H110	0.896100	0.456900	0.418700
H1111	H111	0.945700	0.541500	0.436200
H1121	H112	0.002400	0.454400	0.425200
H1131	H113	0.738800	0.252300	0.484300
H1141	H114	0.794600	0.229700	0.448800
H1151	H115	0.717500	0.550200	0.440000
H1161	H116	0.660500	0.533200	0.261000
H1171	H117	0.857300	0.354300	0.498800
H1181	H118	0.163200	0.187600	0.906800
H1191	H119	0.192900	0.158700	0.946200
H1201	H120	0.095600	0.201400	0.939600
H1211	H121	0.169000	0.294900	0.991800
H1221	H122	0.264000	0.496500	0.028700
H1231	H123	0.173800	0.439400	0.033900
H1241	H124	0.269600	0.391800	0.038300
H1251	H125	0.313500	0.575200	0.993700
H1261	H126	0.440200	0.547500	0.955900
H1271	H127	0.382900	0.573200	0.921200
H1281	H128	0.473900	0.700200	0.938100
H1291	H129	0.430200	0.699900	0.977200
H1301	H130	0.360800	0.812600	0.941700
H1311	H131	0.333000	0.738800	0.912600
H1321	H132	0.209100	0.617000	0.930400
H1331	H133	0.389200	0.193000	0.803200
H1341	H134	0.403400	0.168200	0.762000
H1351	H135	0.486600	0.202100	0.785500
H1361	H136	0.482600	0.306800	0.727100
H1371	H137	0.457200	0.523900	0.686700
H1381	H138	0.539200	0.458000	0.695700
H1391	H139	0.455900	0.422400	0.672700
H1401	H140	0.376600	0.601900	0.711700
H1411	H141	0.221800	0.577200	0.719800
H1421	H142	0.230900	0.587400	0.762200
H1431	H143	0.170200	0.722800	0.738900
H1441	H144	0.252700	0.732500	0.711700
H1451	H145	0.944800	0.581600	0.083900
H1461	H146	0.876100	0.570200	0.051400
H1471	H147	0.936300	0.486900	0.063900
H1481	H148	0.958400	0.506700	0.993300
H1491	H149	0.103900	0.543100	0.918700
H1501	H150	0.054300	0.458500	0.936200
H1511	H151	0.997600	0.545600	0.925200
H1521	H152	0.261200	0.747700	0.984300
H1531	H153	0.205400	0.770300	0.948800
H1541	H154	0.282500	0.449800	0.940000
H1551	H155	0.339500	0.466800	0.761000
H1561	H156	0.142700	0.645700	0.998800
H1571	H157	0.187600	0.163200	0.093200
H1581	H158	0.158700	0.192900	0.053800
H1591	H159	0.201400	0.095600	0.060400
H1601	H160	0.294900	0.169000	0.008200
H1611	H161	0.496500	0.264000	0.971300
H1621	H162	0.439400	0.173800	0.966100
H1631	H163	0.391800	0.269600	0.961700
H1641	H164	0.575200	0.313500	0.006300
H1651	H165	0.547500	0.440200	0.044100
H1661	H166	0.573200	0.382900	0.078800
H1671	H167	0.700200	0.473900	0.061900
H1681	H168	0.699900	0.430200	0.022800
H1691	H169	0.812600	0.360800	0.058300
H1701	H170	0.738800	0.333000	0.087400
H1711	H171	0.617000	0.209100	0.069600
H1721	H172	0.193000	0.389200	0.196800
H1731	H173	0.168200	0.403400	0.238000
H1741	H174	0.202100	0.486600	0.214500
H1751	H175	0.306800	0.482600	0.272900
H1761	H176	0.523900	0.457200	0.313300
H1771	H177	0.458000	0.539200	0.304300
H1781	H178	0.422400	0.455900	0.327300
H1791	H179	0.601900	0.376600	0.288300
H1801	H180	0.577200	0.221800	0.280200
H1811	H181	0.587400	0.230900	0.237800
H1821	H182	0.722800	0.170200	0.261100
H1831	H183	0.732500	0.252700	0.288300
H1841	H184	0.581600	0.944800	0.916100
H1851	H185	0.570200	0.876100	0.948600
H1861	H186	0.486900	0.936300	0.936100
H1871	H187	0.506700	0.958400	0.006700
H1881	H188	0.543100	0.103900	0.081300
H1891	H189	0.458500	0.054300	0.063800
H1901	H190	0.545600	0.997600	0.074800
H1911	H191	0.747700	0.261200	0.015700
H1921	H192	0.770300	0.205400	0.051200
H1931	H193	0.449800	0.282500	0.060000
H1941	H194	0.466800	0.339500	0.239000
H1951	H195	0.645700	0.142700	0.001200
H1961	H196	0.812400	0.836800	0.593200
H1971	H197	0.841300	0.807100	0.553800
H1981	H198	0.798600	0.904400	0.560400
H1991	H199	0.705100	0.831000	0.508200
H2001	H200	0.503500	0.736000	0.471300
H2011	H201	0.560600	0.826200	0.466100
H2021	H202	0.608200	0.730400	0.461700
H2031	H203	0.424800	0.686500	0.506300
H2041	H204	0.452500	0.559800	0.544100
H2051	H205	0.426800	0.617100	0.578800
H2061	H206	0.299800	0.526100	0.561900
H2071	H207	0.300100	0.569800	0.522800
H2081	H208	0.187400	0.639200	0.558300
H2091	H209	0.261200	0.667000	0.587400
H2101	H210	0.383000	0.790900	0.569600
H2111	H211	0.807000	0.610800	0.696800
H2121	H212	0.831800	0.596600	0.738000
H2131	H213	0.797900	0.513400	0.714500
H2141	H214	0.693200	0.517400	0.772900
H2151	H215	0.476100	0.542800	0.813300
H2161	H216	0.542000	0.460800	0.804300
H2171	H217	0.577600	0.544100	0.827300
H2181	H218	0.398100	0.623400	0.788300
H2191	H219	0.422800	0.778200	0.780200
H2201	H220	0.412600	0.769100	0.737800
H2211	H221	0.277200	0.829800	0.761100
H2221	H222	0.267500	0.747300	0.788300
H2231	H223	0.418400	0.055200	0.416100
H2241	H224	0.429800	0.123900	0.448600
H2251	H225	0.513100	0.063700	0.436100
H2261	H226	0.493300	0.041600	0.506700
H2271	H227	0.456900	0.896100	0.581300
H2281	H228	0.541500	0.945700	0.563800
H2291	H229	0.454400	0.002400	0.574800
H2301	H230	0.252300	0.738800	0.515700
H2311	H231	0.229700	0.794600	0.551200
H2321	H232	0.550200	0.717500	0.560000
H2331	H233	0.533200	0.660500	0.739000
H2341	H234	0.354300	0.857300	0.501200
H2351	H235	0.663200	0.312400	0.843200
H2361	H236	0.692900	0.341300	0.803800
H2371	H237	0.595600	0.298600	0.810400
H2381	H238	0.669000	0.205100	0.758200
H2391	H239	0.764000	0.003500	0.721300
H2401	H240	0.673800	0.060600	0.716100
H2411	H241	0.769600	0.108200	0.711700
H2421	H242	0.813500	0.924800	0.756300
H2431	H243	0.940200	0.952500	0.794100
H2441	H244	0.882900	0.926800	0.828800
H2451	H245	0.973900	0.799800	0.811900
H2461	H246	0.930200	0.800100	0.772800
H2471	H247	0.860800	0.687400	0.808300
H2481	H248	0.833000	0.761200	0.837400
H2491	H249	0.709100	0.883000	0.819600
H2501	H250	0.889200	0.307000	0.946800
H2511	H251	0.903400	0.331800	0.988000
H2521	H252	0.986600	0.297900	0.964500
H2531	H253	0.982600	0.193200	0.022900
H2541	H254	0.957200	0.976100	0.063300
H2551	H255	0.039200	0.042000	0.054300
H2561	H256	0.955900	0.077600	0.077300
H2571	H257	0.876600	0.898100	0.038300
H2581	H258	0.721800	0.922800	0.030200
H2591	H259	0.730900	0.912600	0.987800
H2601	H260	0.670200	0.777200	0.011100
H2611	H261	0.752700	0.767500	0.038300
H2621	H262	0.444800	0.918400	0.666100
H2631	H263	0.376100	0.929800	0.698600
H2641	H264	0.436300	0.013100	0.686100
H2651	H265	0.458400	0.993300	0.756700
H2661	H266	0.603900	0.956900	0.831300
H2671	H267	0.554300	0.041500	0.813800
H2681	H268	0.497600	0.954400	0.824800
H2691	H269	0.761200	0.752300	0.765700
H2701	H270	0.705400	0.729700	0.801200
H2711	H271	0.782500	0.050200	0.810000
H2721	H272	0.839500	0.033200	0.989000
H2731	H273	0.642700	0.854300	0.751200
H2741	H274	0.336800	0.687600	0.343200
H2751	H275	0.307100	0.658700	0.303800
H2761	H276	0.404400	0.701400	0.310400
H2771	H277	0.331000	0.794900	0.258200
H2781	H278	0.236000	0.996500	0.221300
H2791	H279	0.326200	0.939400	0.216100
H2801	H280	0.230400	0.891800	0.211700
H2811	H281	0.186500	0.075200	0.256300
H2821	H282	0.059800	0.047500	0.294100
H2831	H283	0.117100	0.073200	0.328800
H2841	H284	0.026100	0.200200	0.311900
H2851	H285	0.069800	0.199900	0.272800
H2861	H286	0.139200	0.312600	0.308300
H2871	H287	0.167000	0.238800	0.337400
H2881	H288	0.290900	0.117000	0.319600
H2891	H289	0.110800	0.693000	0.446800
H2901	H290	0.096600	0.668200	0.488000
H2911	H291	0.013400	0.702100	0.464500
H2921	H292	0.017400	0.806800	0.522900
H2931	H293	0.042800	0.023900	0.563300
H2941	H294	0.960800	0.958000	0.554300
H2951	H295	0.044100	0.922400	0.577300
H2961	H296	0.123400	0.101900	0.538300
H2971	H297	0.278200	0.077200	0.530200
H2981	H298	0.269100	0.087400	0.487800
H2991	H299	0.329800	0.222800	0.511100
H3001	H300	0.247300	0.232500	0.538300
H3011	H301	0.555200	0.081600	0.166100
H3021	H302	0.623900	0.070200	0.198600
H3031	H303	0.563700	0.986900	0.186100
H3041	H304	0.541600	0.006700	0.256700
H3051	H305	0.396100	0.043100	0.331300
H3061	H306	0.445700	0.958500	0.313800
H3071	H307	0.502400	0.045600	0.324800
H3081	H308	0.238800	0.247700	0.265700
H3091	H309	0.294600	0.270300	0.301200
H3101	H310	0.217500	0.949800	0.310000
H3111	H311	0.160500	0.966800	0.489000
H3121	H312	0.357300	0.145700	0.251200
C11	C1	0.297400	0.658800	0.182210
C21	C2	0.202680	0.697610	0.188520
C31	C3	0.169280	0.697200	0.224050
C41	C4	0.085620	0.735900	0.235210
C51	C5	0.062400	0.735800	0.275180
C61	C6	0.933670	0.802300	0.217650
C71	C7	0.913500	0.891400	0.196830
C81	C8	0.812400	0.918200	0.201660
C91	C9	0.750900	0.842700	0.188460
C101	C10	0.869700	0.724900	0.205760
C111	C11	0.291500	0.921900	0.031370
C121	C12	0.194210	0.900710	0.020980
C131	C13	0.156400	0.941800	0.989950
C141	C14	0.067770	0.926450	0.976770
C151	C15	0.038200	0.974000	0.942360
C161	C16	0.912300	0.855600	0.986410
C171	C17	0.890600	0.754200	0.989050
C181	C18	0.788500	0.735300	0.985780
C191	C19	0.947700	0.434800	0.310840
C201	C20	0.919360	0.508440	0.284810
C211	C21	0.954280	0.506580	0.249260
C221	C22	0.935730	0.570650	0.222010
C231	C23	0.975800	0.555200	0.184630
C241	C24	0.768300	0.753400	0.208850
C251	C25	0.702600	0.341200	0.682210
C261	C26	0.797320	0.302390	0.688520
C271	C27	0.830720	0.302800	0.724050
C281	C28	0.914380	0.264100	0.735210
C291	C29	0.937600	0.264200	0.775180
C301	C30	0.066330	0.197700	0.717650
C311	C31	0.086500	0.108600	0.696830
C321	C32	0.187600	0.081800	0.701660
C331	C33	0.249100	0.157300	0.688460
C341	C34	0.130300	0.275100	0.705760
C351	C35	0.708500	0.078100	0.531370
C361	C36	0.805790	0.099290	0.520980
C371	C37	0.843600	0.058200	0.489950
C381	C38	0.932230	0.073550	0.476770
C391	C39	0.961800	0.026000	0.442360
C401	C40	0.087700	0.144400	0.486410
C411	C41	0.109400	0.245800	0.489050
C421	C42	0.211500	0.264700	0.485780
C431	C43	0.052300	0.565200	0.810840
C441	C44	0.080640	0.491560	0.784810
C451	C45	0.045720	0.493420	0.749260
C461	C46	0.064270	0.429350	0.722010
C471	C47	0.024200	0.444800	0.684630
C481	C48	0.231700	0.246600	0.708850
C491	C49	0.841200	0.797400	0.432210
C501	C50	0.802390	0.702680	0.438520
C511	C51	0.802800	0.669280	0.474050
C521	C52	0.764100	0.585620	0.485210
C531	C53	0.764200	0.562400	0.525180
C541	C54	0.697700	0.433670	0.467650
C551	C55	0.608600	0.413500	0.446830
C561	C56	0.581800	0.312400	0.451660
C571	C57	0.657300	0.250900	0.438460
C581	C58	0.775100	0.369700	0.455760
C591	C59	0.578100	0.791500	0.281370
C601	C60	0.599290	0.694210	0.270980
C611	C61	0.558200	0.656400	0.239950
C621	C62	0.573550	0.567770	0.226770
C631	C63	0.526000	0.538200	0.192360
C641	C64	0.644400	0.412300	0.236410
C651	C65	0.745800	0.390600	0.239050
C661	C66	0.764700	0.288500	0.235780
C671	C67	0.065200	0.447700	0.560840
C681	C68	0.991560	0.419360	0.534810
C691	C69	0.993420	0.454280	0.499260
C701	C70	0.929350	0.435730	0.472010
C711	C71	0.944800	0.475800	0.434630
C721	C72	0.746600	0.268300	0.458850
C731	C73	0.158800	0.202600	0.932210
C741	C74	0.197610	0.297320	0.938520
C751	C75	0.197200	0.330720	0.974050
C761	C76	0.235900	0.414380	0.985210
C771	C77	0.235800	0.437600	0.025180
C781	C78	0.302300	0.566330	0.967650
C791	C79	0.391400	0.586500	0.946830
C801	C80	0.418200	0.687600	0.951660
C811	C81	0.342700	0.749100	0.938460
C821	C82	0.224900	0.630300	0.955760
C831	C83	0.421900	0.208500	0.781370
C841	C84	0.400710	0.305790	0.770980
C851	C85	0.441800	0.343600	0.739950
C861	C86	0.426450	0.432230	0.726770
C871	C87	0.474000	0.461800	0.692360
C881	C88	0.355600	0.587700	0.736410
C891	C89	0.254200	0.609400	0.739050
C901	C90	0.235300	0.711500	0.735780
C911	C91	0.934800	0.552300	0.060840
C921	C92	0.008440	0.580640	0.034810
C931	C93	0.006580	0.545720	0.999260
C941	C94	0.070650	0.564270	0.972010
C951	C95	0.055200	0.524200	0.934630
C961	C96	0.253400	0.731700	0.958850
C971	C97	0.202600	0.158800	0.067790
C981	C98	0.297320	0.197610	0.061480
C991	C99	0.330720	0.197200	0.025950
C1001	C100	0.414380	0.235900	0.014790
C1011	C101	0.437600	0.235800	0.974820
C1021	C102	0.566330	0.302300	0.032350
C1031	C103	0.586500	0.391400	0.053170
C1041	C104	0.687600	0.418200	0.048340
C1051	C105	0.749100	0.342700	0.061540
C1061	C106	0.630300	0.224900	0.044240
C1071	C107	0.208500	0.421900	0.218630
C1081	C108	0.305790	0.400710	0.229020
C1091	C109	0.343600	0.441800	0.260050
C1101	C110	0.432230	0.426450	0.273230
C1111	C111	0.461800	0.474000	0.307640
C1121	C112	0.587700	0.355600	0.263590
C1131	C113	0.609400	0.254200	0.260950
C1141	C114	0.711500	0.235300	0.264220
C1151	C115	0.552300	0.934800	0.939160
C1161	C116	0.580640	0.008440	0.965190
C1171	C117	0.545720	0.006580	0.000740
C1181	C118	0.564270	0.070650	0.027990
C1191	C119	0.524200	0.055200	0.065370
C1201	C120	0.731700	0.253400	0.041150
C1211	C121	0.797400	0.841200	0.567790
C1221	C122	0.702680	0.802390	0.561480
C1231	C123	0.669280	0.802800	0.525950
C1241	C124	0.585620	0.764100	0.514790
C1251	C125	0.562400	0.764200	0.474820
C1261	C126	0.433670	0.697700	0.532350
C1271	C127	0.413500	0.608600	0.553170
C1281	C128	0.312400	0.581800	0.548340
C1291	C129	0.250900	0.657300	0.561540
C1301	C130	0.369700	0.775100	0.544240
C1311	C131	0.791500	0.578100	0.718630
C1321	C132	0.694210	0.599290	0.729020
C1331	C133	0.656400	0.558200	0.760050
C1341	C134	0.567770	0.573550	0.773230
C1351	C135	0.538200	0.526000	0.807640
C1361	C136	0.412300	0.644400	0.763590
C1371	C137	0.390600	0.745800	0.760950
C1381	C138	0.288500	0.764700	0.764220
C1391	C139	0.447700	0.065200	0.439160
C1401	C140	0.419360	0.991560	0.465190
C1411	C141	0.454280	0.993420	0.500740
C1421	C142	0.435730	0.929350	0.527990
C1431	C143	0.475800	0.944800	0.565370
C1441	C144	0.268300	0.746600	0.541150
C1451	C145	0.658800	0.297400	0.817790
C1461	C146	0.697610	0.202680	0.811480
C1471	C147	0.697200	0.169280	0.775950
C1481	C148	0.735900	0.085620	0.764790
C1491	C149	0.735800	0.062400	0.724820
C1501	C150	0.802300	0.933670	0.782350
C1511	C151	0.891400	0.913500	0.803170
C1521	C152	0.918200	0.812400	0.798340
C1531	C153	0.842700	0.750900	0.811540
C1541	C154	0.724900	0.869700	0.794240
C1551	C155	0.921900	0.291500	0.968630
C1561	C156	0.900710	0.194210	0.979020
C1571	C157	0.941800	0.156400	0.010050
C1581	C158	0.926450	0.067770	0.023230
C1591	C159	0.974000	0.038200	0.057640
C1601	C160	0.855600	0.912300	0.013590
C1611	C161	0.754200	0.890600	0.010950
C1621	C162	0.735300	0.788500	0.014220
C1631	C163	0.434800	0.947700	0.689160
C1641	C164	0.508440	0.919360	0.715190
C1651	C165	0.506580	0.954280	0.750740
C1661	C166	0.570650	0.935730	0.777990
C1671	C167	0.555200	0.975800	0.815370
C1681	C168	0.753400	0.768300	0.791150
C1691	C169	0.341200	0.702600	0.317790
C1701	C170	0.302390	0.797320	0.311480
C1711	C171	0.302800	0.830720	0.275950
C1721	C172	0.264100	0.914380	0.264790
C1731	C173	0.264200	0.937600	0.224820
C1741	C174	0.197700	0.066330	0.282350
C1751	C175	0.108600	0.086500	0.303170
C1761	C176	0.081800	0.187600	0.298340
C1771	C177	0.157300	0.249100	0.311540
C1781	C178	0.275100	0.130300	0.294240
C1791	C179	0.078100	0.708500	0.468630
C1801	C180	0.099290	0.805790	0.479020
C1811	C181	0.058200	0.843600	0.510050
C1821	C182	0.073550	0.932230	0.523230
C1831	C183	0.026000	0.961800	0.557640
C1841	C184	0.144400	0.087700	0.513590
C1851	C185	0.245800	0.109400	0.510950
C1861	C186	0.264700	0.211500	0.514220
C1871	C187	0.565200	0.052300	0.189160
C1881	C188	0.491560	0.080640	0.215190
C1891	C189	0.493420	0.045720	0.250740
C1901	C190	0.429350	0.064270	0.277990
C1911	C191	0.444800	0.024200	0.315370
C1921	C192	0.246600	0.231700	0.291150
N11	N1	0.028850	0.773650	0.211540
N21	N2	0.010210	0.871110	0.993440
N31	N3	0.149780	0.932750	0.129410
N41	N4	0.930350	0.761600	0.100750
N51	N5	0.332900	0.695850	0.066540
N61	N6	0.883760	0.643410	0.228510
N71	N7	0.971150	0.226350	0.711540
N81	N8	0.989790	0.128890	0.493440
N91	N9	0.850220	0.067250	0.629410
N101	N10	0.069650	0.238400	0.600750
N111	N11	0.667100	0.304150	0.566540
N121	N12	0.116240	0.356590	0.728510
N131	N13	0.726350	0.528850	0.461540
N141	N14	0.628890	0.510210	0.243440
N151	N15	0.567250	0.649780	0.379410
N161	N16	0.738400	0.430350	0.350750
N171	N17	0.804150	0.832900	0.316540
N181	N18	0.856590	0.383760	0.478510
N191	N19	0.273650	0.471150	0.961540
N201	N20	0.371110	0.489790	0.743440
N211	N21	0.432750	0.350220	0.879410
N221	N22	0.261600	0.569650	0.850750
N231	N23	0.195850	0.167100	0.816540
N241	N24	0.143410	0.616240	0.978510
N251	N25	0.471150	0.273650	0.038460
N261	N26	0.489790	0.371110	0.256560
N271	N27	0.350220	0.432750	0.120590
N281	N28	0.569650	0.261600	0.149250
N291	N29	0.167100	0.195850	0.183460
N301	N30	0.616240	0.143410	0.021490
N311	N31	0.528850	0.726350	0.538460
N321	N32	0.510210	0.628890	0.756560
N331	N33	0.649780	0.567250	0.620590
N341	N34	0.430350	0.738400	0.649250
N351	N35	0.832900	0.804150	0.683460
N361	N36	0.383760	0.856590	0.521490
N371	N37	0.773650	0.028850	0.788460
N381	N38	0.871110	0.010210	0.006560
N391	N39	0.932750	0.149780	0.870590
N401	N40	0.761600	0.930350	0.899250
N411	N41	0.695850	0.332900	0.933460
N421	N42	0.643410	0.883760	0.771490
N431	N43	0.226350	0.971150	0.288460
N441	N44	0.128890	0.989790	0.506560
N451	N45	0.067250	0.850220	0.370590
N461	N46	0.238400	0.069650	0.399250
N471	N47	0.304150	0.667100	0.433460
N481	N48	0.356590	0.116240	0.271490
O11	O1	0.159790	0.731070	0.161750
O21	O2	0.149470	0.844420	0.040920
O31	O3	0.220380	0.892180	0.117970
O41	O4	0.074210	0.892600	0.125310
O51	O5	0.973530	0.796070	0.074660
O61	O6	0.977240	0.713850	0.123500
O71	O7	0.319530	0.735160	0.097150
O81	O8	0.263170	0.668820	0.050290
O91	O9	0.863650	0.569820	0.295770
O101	O10	0.154850	0.008520	0.143960
O111	O11	0.848800	0.773500	0.104850
O121	O12	0.410200	0.687000	0.054240
O131	O13	0.840210	0.268930	0.661750
O141	O14	0.850530	0.155580	0.540920
O151	O15	0.779620	0.107820	0.617970
O161	O16	0.925790	0.107400	0.625310
O171	O17	0.026470	0.203930	0.574660
O181	O18	0.022760	0.286150	0.623500
O191	O19	0.680470	0.264840	0.597150
O201	O20	0.736830	0.331180	0.550290
O211	O21	0.136350	0.430180	0.795770
O221	O22	0.845150	0.991480	0.643960
O231	O23	0.151200	0.226500	0.604850
O241	O24	0.589800	0.313000	0.554240
O251	O25	0.768930	0.659790	0.411750
O261	O26	0.655580	0.649470	0.290920
O271	O27	0.607820	0.720380	0.367970
O281	O28	0.607400	0.574210	0.375310
O291	O29	0.703930	0.473530	0.324660
O301	O30	0.786150	0.477240	0.373500
O311	O31	0.764840	0.819530	0.347150
O321	O32	0.831180	0.763170	0.300290
O331	O33	0.930180	0.363650	0.545770
O341	O34	0.491480	0.654850	0.393960
O351	O35	0.726500	0.348800	0.354850
O361	O36	0.813000	0.910200	0.304240
O371	O37	0.231070	0.340210	0.911750
O381	O38	0.344420	0.350530	0.790920
O391	O39	0.392180	0.279620	0.867970
O401	O40	0.392600	0.425790	0.875310
O411	O41	0.296070	0.526470	0.824660
O421	O42	0.213850	0.522760	0.873500
O431	O43	0.235160	0.180470	0.847150
O441	O44	0.168820	0.236830	0.800290
O451	O45	0.069820	0.636350	0.045770
O461	O46	0.508520	0.345150	0.893960
O471	O47	0.273500	0.651200	0.854850
O481	O48	0.187000	0.089800	0.804240
O491	O49	0.340210	0.231070	0.088250
O501	O50	0.350530	0.344420	0.209080
O511	O51	0.279620	0.392180	0.132030
O521	O52	0.425790	0.392600	0.124690
O531	O53	0.526470	0.296070	0.175340
O541	O54	0.522760	0.213850	0.126500
O551	O55	0.180470	0.235160	0.152850
O561	O56	0.236830	0.168820	0.199710
O571	O57	0.636350	0.069820	0.954230
O581	O58	0.345150	0.508520	0.106040
O591	O59	0.651200	0.273500	0.145150
O601	O60	0.089800	0.187000	0.195760
O611	O61	0.659790	0.768930	0.588250
O621	O62	0.649470	0.655580	0.709080
O631	O63	0.720380	0.607820	0.632030
O641	O64	0.574210	0.607400	0.624690
O651	O65	0.473530	0.703930	0.675340
O661	O66	0.477240	0.786150	0.626500
O671	O67	0.819530	0.764840	0.652850
O681	O68	0.763170	0.831180	0.699710
O691	O69	0.363650	0.930180	0.454230
O701	O70	0.654850	0.491480	0.606040
O711	O71	0.348800	0.726500	0.645150
O721	O72	0.910200	0.813000	0.695760
O731	O73	0.731070	0.159790	0.838250
O741	O74	0.844420	0.149470	0.959080
O751	O75	0.892180	0.220380	0.882030
O761	O76	0.892600	0.074210	0.874690
O771	O77	0.796070	0.973530	0.925340
O781	O78	0.713850	0.977240	0.876500
O791	O79	0.735160	0.319530	0.902850
O801	O80	0.668820	0.263170	0.949710
O811	O81	0.569820	0.863650	0.704230
O821	O82	0.008520	0.154850	0.856040
O831	O83	0.773500	0.848800	0.895150
O841	O84	0.687000	0.410200	0.945760
O851	O85	0.268930	0.840210	0.338250
O861	O86	0.155580	0.850530	0.459080
O871	O87	0.107820	0.779620	0.382030
O881	O88	0.107400	0.925790	0.374690
O891	O89	0.203930	0.026470	0.425340
O901	O90	0.286150	0.022760	0.376500
O911	O91	0.264840	0.680470	0.402850
O921	O92	0.331180	0.736830	0.449710
O931	O93	0.430180	0.136350	0.204230
O941	O94	0.991480	0.845150	0.356040
O951	O95	0.226500	0.151200	0.395150
O961	O96	0.313000	0.589800	0.445760
