data_UTOTUT01_clean_PM
_symmetry_space_group_name_H-M	'P1'
_cell_length_a	6.402100
_cell_length_b	14.929500
_cell_length_c	15.890100
_cell_angle_alpha	90.000000
_cell_angle_beta	90.000000
_cell_angle_gamma	90.000000
_symmetry_Int_Tables_number 1

loop_
_symmetry_equiv_pos_as_xyz
'x,y,z'

loop_
_atom_site_label
_atom_site_type_symbol
_atom_site_fract_x
_atom_site_fract_y
_atom_site_fract_z
Cu11	Cu1	0.263380	0.408780	0.865240
Cu21	Cu2	0.514480	0.243750	0.994680
Cu31	Cu3	0.236620	0.591220	0.365240
Cu41	Cu4	0.985520	0.756250	0.494680
Cu51	Cu5	0.736620	0.908780	0.634760
Cu61	Cu6	0.485520	0.743750	0.505320
Cu71	Cu7	0.763380	0.091220	0.134760
Cu81	Cu8	0.014480	0.256250	0.005320
H11	H1	0.246300	0.247800	0.893100
H21	H2	0.650500	0.517400	0.747900
H31	H3	0.882100	0.502400	0.750700
H41	H4	0.270400	0.577200	0.102800
H51	H5	0.274900	0.847800	0.126700
H61	H6	0.281400	0.733400	0.893900
H71	H7	0.253700	0.752200	0.393100
H81	H8	0.849500	0.482600	0.247900
H91	H9	0.617900	0.497600	0.250700
H101	H10	0.229600	0.422800	0.602800
H111	H11	0.225100	0.152200	0.626700
H121	H12	0.218600	0.266600	0.393900
H131	H13	0.753700	0.747800	0.606900
H141	H14	0.349500	0.017400	0.752100
H151	H15	0.117900	0.002400	0.749300
H161	H16	0.729600	0.077200	0.397200
H171	H17	0.725100	0.347800	0.373300
H181	H18	0.718600	0.233400	0.606100
H191	H19	0.746300	0.252200	0.106900
H201	H20	0.150500	0.982600	0.252100
H211	H21	0.382100	0.997600	0.249300
H221	H22	0.770400	0.922800	0.897200
H231	H23	0.774900	0.652200	0.873300
H241	H24	0.781400	0.766600	0.106100
C11	C1	0.761500	0.432970	0.836000
C21	C2	0.276200	0.642710	0.990430
C31	C3	0.272400	0.634900	0.077680
C41	C4	0.271400	0.711160	0.128830
C51	C5	0.274900	0.795480	0.092760
C61	C6	0.278600	0.801600	0.005570
C71	C7	0.279100	0.727000	0.953370
C81	C8	0.275100	0.560950	0.935060
C91	C9	0.263900	0.700360	0.224070
C101	C10	0.738500	0.567030	0.336000
C111	C11	0.223800	0.357290	0.490430
C121	C12	0.227600	0.365100	0.577680
C131	C13	0.228600	0.288840	0.628830
C141	C14	0.225100	0.204520	0.592760
C151	C15	0.221400	0.198400	0.505570
C161	C16	0.220900	0.273000	0.453370
C171	C17	0.224900	0.439050	0.435060
C181	C18	0.236100	0.299640	0.724070
C191	C19	0.238500	0.932970	0.664000
C201	C20	0.723800	0.142710	0.509570
C211	C21	0.727600	0.134900	0.422320
C221	C22	0.728600	0.211160	0.371170
C231	C23	0.725100	0.295480	0.407240
C241	C24	0.721400	0.301600	0.494430
C251	C25	0.720900	0.227000	0.546630
C261	C26	0.724900	0.060950	0.564940
C271	C27	0.736100	0.200360	0.275930
C281	C28	0.261500	0.067030	0.164000
C291	C29	0.776200	0.857290	0.009570
C301	C30	0.772400	0.865100	0.922320
C311	C31	0.771400	0.788840	0.871170
C321	C32	0.774900	0.704520	0.907240
C331	C33	0.778600	0.698400	0.994430
C341	C34	0.779100	0.773000	0.046630
C351	C35	0.775100	0.939050	0.064940
C361	C36	0.763900	0.799640	0.775930
N11	N1	0.588000	0.395420	0.869170
N21	N2	0.661500	0.335220	0.924430
N31	N3	0.862700	0.336400	0.925220
N41	N4	0.934000	0.396810	0.870390
N51	N5	0.760900	0.501000	0.779400
N61	N6	0.278900	0.890750	0.966110
N71	N7	0.912000	0.604580	0.369170
N81	N8	0.838500	0.664780	0.424430
N91	N9	0.637300	0.663600	0.425220
N101	N10	0.566000	0.603190	0.370390
N111	N11	0.739100	0.499000	0.279400
N121	N12	0.221100	0.109250	0.466110
N131	N13	0.412000	0.895420	0.630830
N141	N14	0.338500	0.835220	0.575570
N151	N15	0.137300	0.836400	0.574780
N161	N16	0.066000	0.896810	0.629610
N171	N17	0.239100	0.001000	0.720600
N181	N18	0.721100	0.390750	0.533890
N191	N19	0.088000	0.104580	0.130830
N201	N20	0.161500	0.164780	0.075570
N211	N21	0.362700	0.163600	0.074780
N221	N22	0.434000	0.103190	0.129610
N231	N23	0.260900	0.999000	0.220600
N241	N24	0.778900	0.609250	0.033890
O11	O1	0.269700	0.483880	0.970010
O21	O2	0.281700	0.569360	0.857390
O31	O3	0.240700	0.619460	0.248420
O41	O4	0.279500	0.767210	0.269520
O51	O5	0.271500	0.956710	0.012740
O61	O6	0.286400	0.895640	0.889140
O71	O7	0.260800	0.276800	0.938780
O81	O8	0.230300	0.516120	0.470010
O91	O9	0.218300	0.430640	0.357390
O101	O10	0.259300	0.380540	0.748420
O111	O11	0.220500	0.232790	0.769520
O121	O12	0.228500	0.043290	0.512740
O131	O13	0.213600	0.104360	0.389140
O141	O14	0.239200	0.723200	0.438780
O151	O15	0.730300	0.983880	0.529990
O161	O16	0.718300	0.069360	0.642610
O171	O17	0.759300	0.119460	0.251580
O181	O18	0.720500	0.267210	0.230480
O191	O19	0.728500	0.456710	0.487260
O201	O20	0.713600	0.395640	0.610860
O211	O21	0.739200	0.776800	0.561220
O221	O22	0.769700	0.016120	0.029990
O231	O23	0.781700	0.930640	0.142610
O241	O24	0.740700	0.880540	0.751580
O251	O25	0.779500	0.732790	0.730480
O261	O26	0.771500	0.543290	0.987260
O271	O27	0.786400	0.604360	0.110860
O281	O28	0.760800	0.223200	0.061220
