data_UTULIF_clean_PM
_symmetry_space_group_name_H-M	'P1'
_cell_length_a	9.645600
_cell_length_b	23.187100
_cell_length_c	8.711300
_cell_angle_alpha	90.000000
_cell_angle_beta	90.000000
_cell_angle_gamma	90.000000
_symmetry_Int_Tables_number 1

loop_
_symmetry_equiv_pos_as_xyz
'x,y,z'

loop_
_atom_site_label
_atom_site_type_symbol
_atom_site_fract_x
_atom_site_fract_y
_atom_site_fract_z
Zn11	Zn1	0.558450	0.548480	0.220800
P11	P1	0.568740	0.685510	0.255020
H11	H1	0.457000	0.709200	0.187000
P21	P2	0.782440	0.496150	0.443930
H21	H2	0.785000	0.446600	0.537000
O11	O1	0.685200	0.687170	0.138700
O21	O2	0.531400	0.624520	0.300000
O31	O3	0.593300	0.721430	0.396200
O41	O4	0.634600	0.500730	0.385000
O51	O5	0.884900	0.489260	0.314900
O61	O6	0.818200	0.546630	0.546000
Zn21	Zn2	0.941550	0.951520	0.220800
P31	P3	0.931260	0.814490	0.255020
H31	H3	0.043000	0.790800	0.187000
P41	P4	0.717560	0.003850	0.443930
H41	H4	0.715000	0.053400	0.537000
O71	O7	0.814800	0.812830	0.138700
O81	O8	0.968600	0.875480	0.300000
O91	O9	0.906700	0.778570	0.396200
O101	O10	0.865400	0.999270	0.385000
O111	O11	0.615100	0.010740	0.314900
O121	O12	0.681800	0.953370	0.546000
Zn31	Zn3	0.441550	0.048480	0.279200
P51	P5	0.431260	0.185510	0.244980
H51	H5	0.543000	0.209200	0.313000
P61	P6	0.217560	0.996150	0.056070
H61	H6	0.215000	0.946600	0.963000
O131	O13	0.314800	0.187170	0.361300
O141	O14	0.468600	0.124520	0.200000
O151	O15	0.406700	0.221430	0.103800
O161	O16	0.365400	0.000730	0.115000
O171	O17	0.115100	0.989260	0.185100
O181	O18	0.181800	0.046630	0.954000
Zn41	Zn4	0.058450	0.451520	0.279200
P71	P7	0.068740	0.314490	0.244980
H71	H7	0.957000	0.290800	0.313000
P81	P8	0.282440	0.503850	0.056070
H81	H8	0.285000	0.553400	0.963000
O191	O19	0.185200	0.312830	0.361300
O201	O20	0.031400	0.375480	0.200000
O211	O21	0.093300	0.278570	0.103800
O221	O22	0.134600	0.499270	0.115000
O231	O23	0.384900	0.510740	0.185100
O241	O24	0.318200	0.453370	0.954000
Zn51	Zn5	0.441550	0.451520	0.779200
P91	P9	0.431260	0.314490	0.744980
H91	H9	0.543000	0.290800	0.813000
P101	P10	0.217560	0.503850	0.556070
H101	H10	0.215000	0.553400	0.463000
O251	O25	0.314800	0.312830	0.861300
O261	O26	0.468600	0.375480	0.700000
O271	O27	0.406700	0.278570	0.603800
O281	O28	0.365400	0.499270	0.615000
O291	O29	0.115100	0.510740	0.685100
O301	O30	0.181800	0.453370	0.454000
Zn61	Zn6	0.058450	0.048480	0.779200
P111	P11	0.068740	0.185510	0.744980
H111	H11	0.957000	0.209200	0.813000
P121	P12	0.282440	0.996150	0.556070
H121	H12	0.285000	0.946600	0.463000
O311	O31	0.185200	0.187170	0.861300
O321	O32	0.031400	0.124520	0.700000
O331	O33	0.093300	0.221430	0.603800
O341	O34	0.134600	0.000730	0.615000
O351	O35	0.384900	0.989260	0.685100
O361	O36	0.318200	0.046630	0.454000
Zn71	Zn7	0.558450	0.951520	0.720800
P131	P13	0.568740	0.814490	0.755020
H131	H13	0.457000	0.790800	0.687000
P141	P14	0.782440	0.003850	0.943930
H141	H14	0.785000	0.053400	0.037000
O371	O37	0.685200	0.812830	0.638700
O381	O38	0.531400	0.875480	0.800000
O391	O39	0.593300	0.778570	0.896200
O401	O40	0.634600	0.999270	0.885000
O411	O41	0.884900	0.010740	0.814900
O421	O42	0.818200	0.953370	0.046000
Zn81	Zn8	0.941550	0.548480	0.720800
P151	P15	0.931260	0.685510	0.755020
H151	H15	0.043000	0.709200	0.687000
P161	P16	0.717560	0.496150	0.943930
H161	H16	0.715000	0.446600	0.037000
O431	O43	0.814800	0.687170	0.638700
O441	O44	0.968600	0.624520	0.800000
O451	O45	0.906700	0.721430	0.896200
O461	O46	0.865400	0.500730	0.885000
O471	O47	0.615100	0.489260	0.814900
O481	O48	0.681800	0.546630	0.046000
Zn91	Zn9	0.750000	0.750000	0.509390
Zn101	Zn10	0.250000	0.250000	0.990610
Zn111	Zn11	0.250000	0.250000	0.490610
Zn121	Zn12	0.750000	0.750000	0.009390
