data_UTULUR_SL_part_PM
_symmetry_space_group_name_H-M	'P1'
_cell_length_a	22.251000
_cell_length_b	37.791000
_cell_length_c	8.239000
_cell_angle_alpha	90.000000
_cell_angle_beta	90.000000
_cell_angle_gamma	90.000000
_symmetry_Int_Tables_number 1

loop_
_symmetry_equiv_pos_as_xyz
'x,y,z'

loop_
_atom_site_label
_atom_site_type_symbol
_atom_site_fract_x
_atom_site_fract_y
_atom_site_fract_z
In11	In1	0.324850	0.642310	0.903060
In21	In2	0.177830	0.644830	0.169010
In31	In3	0.249730	0.607760	0.534590
C41	C4	0.251100	0.531700	0.950700
C51	C5	0.239600	0.532100	0.120900
C61	C6	0.264600	0.565300	0.858000
C71	C7	0.227200	0.565600	0.210700
C81	C8	0.055200	0.628700	0.586700
C91	C9	0.055300	0.637900	0.752200
C101	C10	0.111200	0.647500	0.842000
C111	C11	0.111900	0.622500	0.493400
C121	C12	0.445700	0.731700	0.803900
C131	C13	0.445700	0.767600	0.751100
C141	C14	0.387300	0.712100	0.825000
C151	C15	0.387800	0.788600	0.729000
C161	C16	0.445100	0.631100	0.315300
C171	C17	0.389200	0.640600	0.222300
C181	C18	0.387400	0.617100	0.573800
C191	C19	0.444900	0.622600	0.481500
O201	O20	0.247100	0.566400	0.357100
O211	O21	0.238700	0.649100	0.363700
O221	O22	0.264700	0.647600	0.705600
O231	O23	0.245100	0.566400	0.713400
O241	O24	0.251300	0.665100	0.032100
O251	O25	0.110900	0.629000	0.346100
O261	O26	0.154200	0.610200	0.573100
O271	O27	0.383200	0.623700	0.089400
O281	O28	0.117400	0.630300	0.977200
O291	O29	0.199200	0.589000	0.141000
O301	O30	0.296000	0.587600	0.928100
O311	O31	0.389300	0.622900	0.720300
O321	O32	0.344600	0.605400	0.493000
O331	O33	0.368200	0.805300	0.834500
O341	O34	0.385600	0.686800	0.907100
O351	O35	0.144100	0.670700	0.792000
O361	O36	0.341700	0.722900	0.746000
O371	O37	0.373500	0.793000	0.572000
O381	O38	0.356100	0.664400	0.270400
H391	H39	0.238700	0.675560	0.363700
H401	H40	0.235300	0.825940	0.294400
H411	H41	0.248700	0.808440	0.967900
In421	In42	0.675150	0.357690	0.903060
In431	In43	0.822170	0.355170	0.169010
In441	In44	0.750270	0.392240	0.534590
C451	C45	0.748900	0.468300	0.950700
C461	C46	0.760400	0.467900	0.120900
C471	C47	0.735400	0.434700	0.858000
C481	C48	0.772800	0.434400	0.210700
C491	C49	0.944800	0.371300	0.586700
C501	C50	0.944700	0.362100	0.752200
C511	C51	0.888800	0.352500	0.842000
C521	C52	0.888100	0.377500	0.493400
C531	C53	0.554300	0.268300	0.803900
C541	C54	0.554300	0.232400	0.751100
C551	C55	0.612700	0.287900	0.825000
C561	C56	0.612200	0.211400	0.729000
C571	C57	0.554900	0.368900	0.315300
C581	C58	0.610800	0.359400	0.222300
C591	C59	0.612600	0.382900	0.573800
C601	C60	0.555100	0.377400	0.481500
O611	O61	0.752900	0.433600	0.357100
O621	O62	0.761300	0.350900	0.363700
O631	O63	0.735300	0.352400	0.705600
O641	O64	0.754900	0.433600	0.713400
O651	O65	0.748700	0.334900	0.032100
O661	O66	0.889100	0.371000	0.346100
O671	O67	0.845800	0.389800	0.573100
O681	O68	0.616800	0.376300	0.089400
O691	O69	0.882600	0.369700	0.977200
O701	O70	0.800800	0.411000	0.141000
O711	O71	0.704000	0.412400	0.928100
O721	O72	0.610700	0.377100	0.720300
O731	O73	0.655400	0.394600	0.493000
O741	O74	0.631800	0.194700	0.834500
O751	O75	0.614400	0.313200	0.907100
O761	O76	0.855900	0.329300	0.792000
O771	O77	0.658300	0.277100	0.746000
O781	O78	0.626500	0.207000	0.572000
O791	O79	0.643900	0.335600	0.270400
H801	H80	0.761300	0.324440	0.363700
H811	H81	0.764700	0.174060	0.294400
H821	H82	0.751300	0.191560	0.967900
In831	In83	0.175150	0.142310	0.096940
In841	In84	0.322170	0.144830	0.830990
In851	In85	0.250270	0.107760	0.465410
C861	C86	0.248900	0.031700	0.049300
C871	C87	0.260400	0.032100	0.879100
C881	C88	0.235400	0.065300	0.142000
C891	C89	0.272800	0.065600	0.789300
C901	C90	0.444800	0.128700	0.413300
C911	C91	0.444700	0.137900	0.247800
C921	C92	0.388800	0.147500	0.158000
C931	C93	0.388100	0.122500	0.506600
C941	C94	0.054300	0.231700	0.196100
C951	C95	0.054300	0.267600	0.248900
C961	C96	0.112700	0.212100	0.175000
C971	C97	0.112200	0.288600	0.271000
C981	C98	0.054900	0.131100	0.684700
C991	C99	0.110800	0.140600	0.777700
C1001	C100	0.112600	0.117100	0.426200
C1011	C101	0.055100	0.122600	0.518500
O1021	O102	0.252900	0.066400	0.642900
O1031	O103	0.261300	0.149100	0.636300
O1041	O104	0.235300	0.147600	0.294400
O1051	O105	0.254900	0.066400	0.286600
O1061	O106	0.248700	0.165100	0.967900
O1071	O107	0.389100	0.129000	0.653900
O1081	O108	0.345800	0.110200	0.426900
O1091	O109	0.116800	0.123700	0.910600
O1101	O110	0.382600	0.130300	0.022800
O1111	O111	0.300800	0.089000	0.859000
O1121	O112	0.204000	0.087600	0.071900
O1131	O113	0.110700	0.122900	0.279700
O1141	O114	0.155400	0.105400	0.507000
O1151	O115	0.131800	0.305300	0.165500
O1161	O116	0.114400	0.186800	0.092900
O1171	O117	0.355900	0.170700	0.208000
O1181	O118	0.158300	0.222900	0.254000
O1191	O119	0.126500	0.293000	0.428000
O1201	O120	0.143900	0.164400	0.729600
H1211	H121	0.261300	0.175560	0.636300
H1221	H122	0.264700	0.325940	0.705600
H1231	H123	0.251300	0.308440	0.032100
In1241	In124	0.824850	0.857690	0.096940
In1251	In125	0.677830	0.855170	0.830990
In1261	In126	0.749730	0.892240	0.465410
C1271	C127	0.751100	0.968300	0.049300
C1281	C128	0.739600	0.967900	0.879100
C1291	C129	0.764600	0.934700	0.142000
C1301	C130	0.727200	0.934400	0.789300
C1311	C131	0.555200	0.871300	0.413300
C1321	C132	0.555300	0.862100	0.247800
C1331	C133	0.611200	0.852500	0.158000
C1341	C134	0.611900	0.877500	0.506600
C1351	C135	0.945700	0.768300	0.196100
C1361	C136	0.945700	0.732400	0.248900
C1371	C137	0.887300	0.787900	0.175000
C1381	C138	0.887800	0.711400	0.271000
C1391	C139	0.945100	0.868900	0.684700
C1401	C140	0.889200	0.859400	0.777700
C1411	C141	0.887400	0.882900	0.426200
C1421	C142	0.944900	0.877400	0.518500
O1431	O143	0.747100	0.933600	0.642900
O1441	O144	0.738700	0.850900	0.636300
O1451	O145	0.764700	0.852400	0.294400
O1461	O146	0.745100	0.933600	0.286600
O1471	O147	0.751300	0.834900	0.967900
O1481	O148	0.610900	0.871000	0.653900
O1491	O149	0.654200	0.889800	0.426900
O1501	O150	0.883200	0.876300	0.910600
O1511	O151	0.617400	0.869700	0.022800
O1521	O152	0.699200	0.911000	0.859000
O1531	O153	0.796000	0.912400	0.071900
O1541	O154	0.889300	0.877100	0.279700
O1551	O155	0.844600	0.894600	0.507000
O1561	O156	0.868200	0.694700	0.165500
O1571	O157	0.885600	0.813200	0.092900
O1581	O158	0.644100	0.829300	0.208000
O1591	O159	0.841700	0.777100	0.254000
O1601	O160	0.873500	0.707000	0.428000
O1611	O161	0.856100	0.835600	0.729600
H1621	H162	0.738700	0.824440	0.636300
H1631	H163	0.735300	0.674060	0.705600
H1641	H164	0.748700	0.691560	0.032100
In1651	In165	0.175150	0.857690	0.096940
In1661	In166	0.322170	0.855170	0.830990
In1671	In167	0.250270	0.892240	0.465410
C1681	C168	0.248900	0.968300	0.049300
C1691	C169	0.260400	0.967900	0.879100
C1701	C170	0.235400	0.934700	0.142000
C1711	C171	0.272800	0.934400	0.789300
C1721	C172	0.444800	0.871300	0.413300
C1731	C173	0.444700	0.862100	0.247800
C1741	C174	0.388800	0.852500	0.158000
C1751	C175	0.388100	0.877500	0.506600
C1761	C176	0.054300	0.768300	0.196100
C1771	C177	0.054300	0.732400	0.248900
C1781	C178	0.112700	0.787900	0.175000
C1791	C179	0.112200	0.711400	0.271000
C1801	C180	0.054900	0.868900	0.684700
C1811	C181	0.110800	0.859400	0.777700
C1821	C182	0.112600	0.882900	0.426200
C1831	C183	0.055100	0.877400	0.518500
O1841	O184	0.252900	0.933600	0.642900
O1851	O185	0.261300	0.850900	0.636300
O1861	O186	0.235300	0.852400	0.294400
O1871	O187	0.254900	0.933600	0.286600
O1881	O188	0.248700	0.834900	0.967900
O1891	O189	0.389100	0.871000	0.653900
O1901	O190	0.345800	0.889800	0.426900
O1911	O191	0.116800	0.876300	0.910600
O1921	O192	0.382600	0.869700	0.022800
O1931	O193	0.300800	0.911000	0.859000
O1941	O194	0.204000	0.912400	0.071900
O1951	O195	0.110700	0.877100	0.279700
O1961	O196	0.155400	0.894600	0.507000
O1971	O197	0.131800	0.694700	0.165500
O1981	O198	0.114400	0.813200	0.092900
O1991	O199	0.355900	0.829300	0.208000
O2001	O200	0.158300	0.777100	0.254000
O2011	O201	0.126500	0.707000	0.428000
O2021	O202	0.143900	0.835600	0.729600
H2031	H203	0.261300	0.824440	0.636300
H2041	H204	0.264700	0.674060	0.705600
H2051	H205	0.251300	0.691560	0.032100
In2061	In206	0.824850	0.142310	0.096940
In2071	In207	0.677830	0.144830	0.830990
In2081	In208	0.749730	0.107760	0.465410
C2091	C209	0.751100	0.031700	0.049300
C2101	C210	0.739600	0.032100	0.879100
C2111	C211	0.764600	0.065300	0.142000
C2121	C212	0.727200	0.065600	0.789300
C2131	C213	0.555200	0.128700	0.413300
C2141	C214	0.555300	0.137900	0.247800
C2151	C215	0.611200	0.147500	0.158000
C2161	C216	0.611900	0.122500	0.506600
C2171	C217	0.945700	0.231700	0.196100
C2181	C218	0.945700	0.267600	0.248900
C2191	C219	0.887300	0.212100	0.175000
C2201	C220	0.887800	0.288600	0.271000
C2211	C221	0.945100	0.131100	0.684700
C2221	C222	0.889200	0.140600	0.777700
C2231	C223	0.887400	0.117100	0.426200
C2241	C224	0.944900	0.122600	0.518500
O2251	O225	0.747100	0.066400	0.642900
O2261	O226	0.738700	0.149100	0.636300
O2271	O227	0.764700	0.147600	0.294400
O2281	O228	0.745100	0.066400	0.286600
O2291	O229	0.751300	0.165100	0.967900
O2301	O230	0.610900	0.129000	0.653900
O2311	O231	0.654200	0.110200	0.426900
O2321	O232	0.883200	0.123700	0.910600
O2331	O233	0.617400	0.130300	0.022800
O2341	O234	0.699200	0.089000	0.859000
O2351	O235	0.796000	0.087600	0.071900
O2361	O236	0.889300	0.122900	0.279700
O2371	O237	0.844600	0.105400	0.507000
O2381	O238	0.868200	0.305300	0.165500
O2391	O239	0.885600	0.186800	0.092900
O2401	O240	0.644100	0.170700	0.208000
O2411	O241	0.841700	0.222900	0.254000
O2421	O242	0.873500	0.293000	0.428000
O2431	O243	0.856100	0.164400	0.729600
H2441	H244	0.738700	0.175560	0.636300
H2451	H245	0.735300	0.325940	0.705600
H2461	H246	0.748700	0.308440	0.032100
In2471	In247	0.324850	0.357690	0.903060
In2481	In248	0.177830	0.355170	0.169010
In2491	In249	0.249730	0.392240	0.534590
C2501	C250	0.251100	0.468300	0.950700
C2511	C251	0.239600	0.467900	0.120900
C2521	C252	0.264600	0.434700	0.858000
C2531	C253	0.227200	0.434400	0.210700
C2541	C254	0.055200	0.371300	0.586700
C2551	C255	0.055300	0.362100	0.752200
C2561	C256	0.111200	0.352500	0.842000
C2571	C257	0.111900	0.377500	0.493400
C2581	C258	0.445700	0.268300	0.803900
C2591	C259	0.445700	0.232400	0.751100
C2601	C260	0.387300	0.287900	0.825000
C2611	C261	0.387800	0.211400	0.729000
C2621	C262	0.445100	0.368900	0.315300
C2631	C263	0.389200	0.359400	0.222300
C2641	C264	0.387400	0.382900	0.573800
C2651	C265	0.444900	0.377400	0.481500
O2661	O266	0.247100	0.433600	0.357100
O2671	O267	0.238700	0.350900	0.363700
O2681	O268	0.264700	0.352400	0.705600
O2691	O269	0.245100	0.433600	0.713400
O2701	O270	0.251300	0.334900	0.032100
O2711	O271	0.110900	0.371000	0.346100
O2721	O272	0.154200	0.389800	0.573100
O2731	O273	0.383200	0.376300	0.089400
O2741	O274	0.117400	0.369700	0.977200
O2751	O275	0.199200	0.411000	0.141000
O2761	O276	0.296000	0.412400	0.928100
O2771	O277	0.389300	0.377100	0.720300
O2781	O278	0.344600	0.394600	0.493000
O2791	O279	0.368200	0.194700	0.834500
O2801	O280	0.385600	0.313200	0.907100
O2811	O281	0.144100	0.329300	0.792000
O2821	O282	0.341700	0.277100	0.746000
O2831	O283	0.373500	0.207000	0.572000
O2841	O284	0.356100	0.335600	0.270400
H2851	H285	0.238700	0.324440	0.363700
H2861	H286	0.235300	0.174060	0.294400
H2871	H287	0.248700	0.191560	0.967900
In2881	In288	0.675150	0.642310	0.903060
In2891	In289	0.822170	0.644830	0.169010
In2901	In290	0.750270	0.607760	0.534590
C2911	C291	0.748900	0.531700	0.950700
C2921	C292	0.760400	0.532100	0.120900
C2931	C293	0.735400	0.565300	0.858000
C2941	C294	0.772800	0.565600	0.210700
C2951	C295	0.944800	0.628700	0.586700
C2961	C296	0.944700	0.637900	0.752200
C2971	C297	0.888800	0.647500	0.842000
C2981	C298	0.888100	0.622500	0.493400
C2991	C299	0.554300	0.731700	0.803900
C3001	C300	0.554300	0.767600	0.751100
C3011	C301	0.612700	0.712100	0.825000
C3021	C302	0.612200	0.788600	0.729000
C3031	C303	0.554900	0.631100	0.315300
C3041	C304	0.610800	0.640600	0.222300
C3051	C305	0.612600	0.617100	0.573800
C3061	C306	0.555100	0.622600	0.481500
O3071	O307	0.752900	0.566400	0.357100
O3081	O308	0.761300	0.649100	0.363700
O3091	O309	0.735300	0.647600	0.705600
O3101	O310	0.754900	0.566400	0.713400
O3111	O311	0.748700	0.665100	0.032100
O3121	O312	0.889100	0.629000	0.346100
O3131	O313	0.845800	0.610200	0.573100
O3141	O314	0.616800	0.623700	0.089400
O3151	O315	0.882600	0.630300	0.977200
O3161	O316	0.800800	0.589000	0.141000
O3171	O317	0.704000	0.587600	0.928100
O3181	O318	0.610700	0.622900	0.720300
O3191	O319	0.655400	0.605400	0.493000
O3201	O320	0.631800	0.805300	0.834500
O3211	O321	0.614400	0.686800	0.907100
O3221	O322	0.855900	0.670700	0.792000
O3231	O323	0.658300	0.722900	0.746000
O3241	O324	0.626500	0.793000	0.572000
O3251	O325	0.643900	0.664400	0.270400
H3261	H326	0.761300	0.675560	0.363700
H3271	H327	0.764700	0.825940	0.294400
H3281	H328	0.751300	0.808440	0.967900
H3291	H329	0.227000	0.500000	0.309100
H3301	H330	0.265400	0.500000	0.758700
C3311	C331	0.234400	0.500000	0.198000
C3321	C332	0.257200	0.500000	0.869400
H3331	H333	0.773000	0.500000	0.309100
H3341	H334	0.734600	0.500000	0.758700
C3351	C335	0.765600	0.500000	0.198000
C3361	C336	0.742800	0.500000	0.869400
H3371	H337	0.273000	0.000000	0.690900
H3381	H338	0.234600	0.000000	0.241300
C3391	C339	0.265600	0.000000	0.802000
C3401	C340	0.242800	0.000000	0.130600
H3411	H341	0.727000	0.000000	0.690900
H3421	H342	0.765400	0.000000	0.241300
C3431	C343	0.734400	0.000000	0.802000
C3441	C344	0.757200	0.000000	0.130600
H3451	H345	0.000000	0.647800	0.940000
H3461	H346	0.000000	0.618500	0.401800
C3471	C347	0.000000	0.642000	0.830000
C3481	C348	0.000000	0.624500	0.511000
H3491	H349	0.000000	0.352200	0.940000
H3501	H350	0.000000	0.381500	0.401800
C3511	C351	0.000000	0.358000	0.830000
C3521	C352	0.000000	0.375500	0.511000
H3531	H353	0.500000	0.147800	0.060000
H3541	H354	0.500000	0.118500	0.598200
C3551	C355	0.500000	0.142000	0.170000
C3561	C356	0.500000	0.124500	0.489000
H3571	H357	0.500000	0.852200	0.060000
H3581	H358	0.500000	0.881500	0.598200
C3591	C359	0.500000	0.858000	0.170000
C3601	C360	0.500000	0.875500	0.489000
H3611	H361	0.500000	0.691500	0.880000
H3621	H362	0.500000	0.807300	0.693900
H3631	H363	0.500000	0.640900	0.125600
H3641	H364	0.500000	0.615500	0.675000
C3651	C365	0.500000	0.714300	0.837000
C3661	C366	0.500000	0.783800	0.728000
C3671	C367	0.500000	0.635200	0.235000
C3681	C368	0.500000	0.619600	0.563700
H3691	H369	0.500000	0.308500	0.880000
H3701	H370	0.500000	0.192700	0.693900
H3711	H371	0.500000	0.359100	0.125600
H3721	H372	0.500000	0.384500	0.675000
C3731	C373	0.500000	0.285700	0.837000
C3741	C374	0.500000	0.216200	0.728000
C3751	C375	0.500000	0.364800	0.235000
C3761	C376	0.500000	0.380400	0.563700
H3771	H377	0.000000	0.191500	0.120000
H3781	H378	0.000000	0.307300	0.306100
H3791	H379	0.000000	0.140900	0.874400
H3801	H380	0.000000	0.115500	0.325000
C3811	C381	0.000000	0.214300	0.163000
C3821	C382	0.000000	0.283800	0.272000
C3831	C383	0.000000	0.135200	0.765000
C3841	C384	0.000000	0.119600	0.436300
H3851	H385	0.000000	0.808500	0.120000
H3861	H386	0.000000	0.692700	0.306100
H3871	H387	0.000000	0.859100	0.874400
H3881	H388	0.000000	0.884500	0.325000
C3891	C389	0.000000	0.785700	0.163000
C3901	C390	0.000000	0.716200	0.272000
C3911	C391	0.000000	0.864800	0.765000
C3921	C392	0.000000	0.880400	0.436300
