data_UVARIT_clean_PM
_symmetry_space_group_name_H-M	'P1'
_cell_length_a	8.409000
_cell_length_b	13.488000
_cell_length_c	14.130200
_cell_angle_alpha	61.492400
_cell_angle_beta	85.757400
_cell_angle_gamma	81.082900
_symmetry_Int_Tables_number 1

loop_
_symmetry_equiv_pos_as_xyz
'x,y,z'

loop_
_atom_site_label
_atom_site_type_symbol
_atom_site_fract_x
_atom_site_fract_y
_atom_site_fract_z
Zn11	Zn1	0.478110	0.617760	0.182400
Zn21	Zn2	0.978110	0.800160	0.817600
H11	H1	0.983600	0.465800	0.258600
H21	H2	0.222300	0.350400	0.333600
H31	H3	0.982900	0.145300	0.597000
H41	H4	0.742000	0.259300	0.521000
H51	H5	0.377300	0.190100	0.472000
H61	H6	0.215600	0.047000	0.651600
H71	H7	0.384000	0.910600	0.804400
H81	H8	0.630700	0.806300	0.877400
H91	H9	0.842000	0.968000	0.597600
H101	H10	0.603300	0.075900	0.518400
H111	H11	0.618100	0.964900	0.922600
H121	H12	0.700700	0.144800	0.860200
H131	H13	0.672100	0.103400	0.162800
H141	H14	0.587700	0.928600	0.224200
H151	H15	0.785200	0.289300	0.890000
H161	H16	0.747800	0.267200	0.094200
H171	H17	0.904300	0.435600	0.829800
H181	H18	0.983300	0.616400	0.766400
H191	H19	0.851100	0.616700	0.040800
H201	H20	0.783200	0.435400	0.111200
H211	H21	0.483600	0.724400	0.741400
H221	H22	0.722300	0.684000	0.666400
H231	H23	0.482900	0.742300	0.403000
H241	H24	0.242000	0.780300	0.479000
H251	H25	0.877300	0.662100	0.528000
H261	H26	0.715600	0.698600	0.348400
H271	H27	0.884000	0.715000	0.195600
H281	H28	0.130700	0.683700	0.122600
H291	H29	0.342000	0.565600	0.402400
H301	H30	0.103300	0.594300	0.481600
H311	H31	0.118100	0.887500	0.077400
H321	H32	0.200700	0.005000	0.139800
H331	H33	0.172100	0.266200	0.837200
H341	H34	0.087700	0.152800	0.775800
H351	H35	0.285200	0.179300	0.110000
H361	H36	0.247800	0.361400	0.905800
H371	H37	0.404300	0.265400	0.170200
H381	H38	0.483300	0.382800	0.233600
H391	H39	0.351100	0.657500	0.959200
H401	H40	0.283200	0.546600	0.888800
C11	C1	0.681700	0.446800	0.334400
C21	C2	0.838100	0.374500	0.382200
C31	C3	0.982900	0.400400	0.327400
C41	C4	0.124800	0.331700	0.372400
C51	C5	0.129800	0.236300	0.472400
C61	C6	0.983200	0.210200	0.528000
C71	C7	0.840000	0.278200	0.483000
C81	C8	0.285000	0.166100	0.515600
C91	C9	0.308300	0.072700	0.609400
C101	C10	0.464500	0.005200	0.653800
C111	C11	0.477200	0.924000	0.760200
C121	C12	0.625000	0.861600	0.803400
C131	C13	0.747100	0.956300	0.640200
C141	C14	0.605700	0.020800	0.592600
C151	C15	0.538600	0.813300	0.122600
C161	C16	0.592400	0.929600	0.079000
C171	C17	0.628200	0.993200	0.971600
C181	C18	0.679700	0.100200	0.934600
C191	C19	0.700100	0.140800	0.005200
C201	C20	0.662100	0.075400	0.113600
C211	C21	0.611000	0.972100	0.150000
C221	C22	0.757400	0.252000	0.964200
C231	C23	0.773800	0.304800	0.019800
C241	C24	0.828800	0.416900	0.977400
C251	C25	0.892400	0.471400	0.874200
C261	C26	0.938900	0.580100	0.836600
C271	C27	0.863500	0.579900	0.997200
C281	C28	0.819900	0.472200	0.038800
C291	C29	0.181700	0.781200	0.665600
C301	C30	0.338100	0.756700	0.617800
C311	C31	0.482900	0.727800	0.672600
C321	C32	0.624800	0.704100	0.627600
C331	C33	0.629800	0.708700	0.527600
C341	C34	0.483200	0.738200	0.472000
C351	C35	0.340000	0.761200	0.517000
C361	C36	0.785000	0.681700	0.484400
C371	C37	0.808300	0.682100	0.390600
C381	C38	0.964500	0.659000	0.346200
C391	C39	0.977200	0.684200	0.239800
C401	C40	0.125000	0.665000	0.196600
C411	C41	0.247100	0.596500	0.359800
C421	C42	0.105700	0.613400	0.407400
C431	C43	0.038600	0.935900	0.877400
C441	C44	0.092400	0.008600	0.921000
C451	C45	0.128200	0.964800	0.028400
C461	C46	0.179700	0.034800	0.065400
C471	C47	0.200100	0.146000	0.994800
C481	C48	0.162100	0.189000	0.886400
C491	C49	0.111000	0.122100	0.850000
C501	C50	0.257400	0.216200	0.035800
C511	C51	0.273800	0.324600	0.980200
C521	C52	0.328800	0.394300	0.022600
C531	C53	0.392400	0.345600	0.125800
C541	C54	0.438900	0.416700	0.163400
C551	C55	0.363500	0.577100	0.002800
C561	C56	0.319900	0.511000	0.961200
N11	N1	0.759300	0.876700	0.744600
N21	N2	0.922800	0.634500	0.896800
N31	N3	0.259300	0.621300	0.255400
N41	N4	0.422800	0.531300	0.103200
O11	O1	0.689200	0.529920	0.238160
O21	O2	0.554000	0.423360	0.383880
O31	O3	0.525000	0.773610	0.058180
O41	O4	0.515400	0.758500	0.221400
O51	O5	0.189200	0.768080	0.761840
O61	O6	0.054000	0.807240	0.616120
O71	O7	0.025000	0.831790	0.941820
O81	O8	0.015400	0.979900	0.778600
