data_UVARUF_clean_PM
_symmetry_space_group_name_H-M	'P1'
_cell_length_a	8.715000
_cell_length_b	12.934000
_cell_length_c	14.060500
_cell_angle_alpha	62.616700
_cell_angle_beta	83.686000
_cell_angle_gamma	76.165900
_symmetry_Int_Tables_number 1

loop_
_symmetry_equiv_pos_as_xyz
'x,y,z'

loop_
_atom_site_label
_atom_site_type_symbol
_atom_site_fract_x
_atom_site_fract_y
_atom_site_fract_z
Zn11	Zn1	0.367570	0.741150	0.822460
Zn21	Zn2	0.867570	0.563610	0.177540
H11	H1	0.093000	0.096300	0.468400
H21	H2	0.850100	0.200400	0.392200
H31	H3	0.643800	0.020400	0.664800
H41	H4	0.878500	0.919900	0.743200
H51	H5	0.475700	0.162300	0.515800
H61	H6	0.622800	0.316400	0.344000
H71	H7	0.248300	0.261400	0.459000
H81	H8	0.001500	0.373300	0.382800
H91	H9	0.208700	0.566000	0.125800
H101	H10	0.452400	0.473700	0.195800
H111	H11	0.239800	0.435400	0.778600
H121	H12	0.149700	0.261300	0.840400
H131	H13	0.145000	0.220400	0.138800
H141	H14	0.245700	0.392000	0.077400
H151	H15	0.051000	0.082000	0.106200
H161	H16	0.082600	0.094400	0.905000
H171	H17	0.057100	0.925500	0.889000
H181	H18	0.967500	0.748900	0.954400
H191	H19	0.858300	0.759100	0.229200
H201	H20	0.935500	0.930500	0.168200
H211	H21	0.593000	0.564700	0.531600
H221	H22	0.350100	0.592600	0.607800
H231	H23	0.143800	0.685200	0.335200
H241	H24	0.378500	0.663100	0.256800
H251	H25	0.975700	0.678100	0.484200
H261	H26	0.122800	0.660400	0.656000
H271	H27	0.748300	0.720400	0.541000
H281	H28	0.501500	0.756100	0.617200
H291	H29	0.708700	0.691800	0.874200
H301	H30	0.952400	0.669500	0.804200
H311	H31	0.739800	0.214000	0.221400
H321	H32	0.649700	0.101700	0.159600
H331	H33	0.645000	0.359200	0.861200
H341	H34	0.745700	0.469400	0.922600
H351	H35	0.551000	0.188200	0.893800
H361	H36	0.582600	0.999400	0.095000
H371	H37	0.557100	0.814500	0.111000
H381	H38	0.467500	0.703300	0.045600
H391	H39	0.358300	0.988300	0.770800
H401	H40	0.435500	0.098700	0.831800
C11	C1	0.165000	0.920500	0.663200
C21	C2	0.016800	0.993100	0.614800
C31	C3	0.002400	0.080200	0.509200
C41	C4	0.856400	0.143300	0.463600
C51	C5	0.719800	0.123300	0.521800
C61	C6	0.734900	0.037200	0.624800
C71	C7	0.875000	0.975600	0.671600
C81	C8	0.562700	0.190200	0.476800
C91	C9	0.535900	0.288600	0.383800
C101	C10	0.376800	0.356300	0.339800
C111	C11	0.242600	0.326600	0.391600
C121	C12	0.093000	0.393400	0.344800
C131	C13	0.215700	0.506400	0.196200
C141	C14	0.363600	0.450600	0.235800
C151	C15	0.301700	0.542100	0.878800
C161	C16	0.243700	0.432200	0.924600
C171	C17	0.219800	0.392600	0.851000
C181	C18	0.165700	0.288400	0.888600
C191	C19	0.135200	0.223800	0.995400
C201	C20	0.164000	0.263100	0.066200
C211	C21	0.222200	0.367800	0.028800
C221	C22	0.078000	0.116400	0.034200
C231	C23	0.058800	0.059700	0.977600
C241	C24	0.004700	0.950100	0.020600
C251	C25	0.016400	0.893100	0.958000
C261	C26	0.966000	0.784100	0.999400
C271	C27	0.900800	0.790600	0.160600
C281	C28	0.944900	0.894000	0.123600
C291	C29	0.665000	0.583700	0.336800
C301	C30	0.516800	0.607900	0.385200
C311	C31	0.502400	0.589400	0.490800
C321	C32	0.356400	0.606900	0.536400
C331	C33	0.219800	0.645100	0.478200
C341	C34	0.234900	0.662000	0.375200
C351	C35	0.375000	0.647200	0.328400
C361	C36	0.062700	0.667000	0.523200
C371	C37	0.035900	0.672400	0.616200
C381	C38	0.876800	0.696100	0.660200
C391	C39	0.742600	0.718200	0.608400
C401	C40	0.593000	0.738200	0.655200
C411	C41	0.715700	0.702600	0.803800
C421	C42	0.863600	0.686400	0.764200
C431	C43	0.801700	0.420900	0.121200
C441	C44	0.743700	0.356800	0.075400
C451	C45	0.719800	0.243600	0.149000
C461	C46	0.665700	0.177000	0.111400
C471	C47	0.635200	0.219200	0.004600
C481	C48	0.664000	0.329300	0.933800
C491	C49	0.722200	0.396600	0.971200
C501	C50	0.578000	0.150600	0.965800
C511	C51	0.558800	0.037300	0.022400
C521	C52	0.504700	0.970700	0.979400
C531	C53	0.516400	0.851100	0.042000
C541	C54	0.466000	0.783500	0.000600
C551	C55	0.400800	0.951200	0.839400
C561	C56	0.444900	0.017600	0.876400
N11	N1	0.081400	0.486400	0.245200
N21	N2	0.915400	0.728800	0.102200
N31	N3	0.581400	0.731600	0.754800
N41	N4	0.415400	0.831000	0.897800
O11	O1	0.163100	0.843000	0.760200
O21	O2	0.288600	0.942200	0.612000
O31	O3	0.316500	0.590000	0.942800
O41	O4	0.330700	0.599200	0.783000
O51	O5	0.663100	0.603200	0.239800
O61	O6	0.788600	0.554200	0.388000
O71	O7	0.816500	0.532800	0.057200
O81	O8	0.830700	0.382200	0.217000
