data_UVASAM_clean_PM
_symmetry_space_group_name_H-M	'P1'
_cell_length_a	8.406000
_cell_length_b	13.507000
_cell_length_c	14.136100
_cell_angle_alpha	61.461500
_cell_angle_beta	85.789200
_cell_angle_gamma	81.159100
_symmetry_Int_Tables_number 1

loop_
_symmetry_equiv_pos_as_xyz
'x,y,z'

loop_
_atom_site_label
_atom_site_type_symbol
_atom_site_fract_x
_atom_site_fract_y
_atom_site_fract_z
Zn11	Zn1	0.833620	0.920300	0.182740
Zn21	Zn2	0.333620	0.103040	0.817260
H11	H1	0.839900	0.024300	0.740600
H21	H2	0.079000	0.989600	0.665800
H31	H3	0.841200	0.042100	0.407400
H41	H4	0.599900	0.081900	0.480600
H51	H5	0.230800	0.966200	0.527200
H61	H6	0.074000	0.999700	0.349200
H71	H7	0.457400	0.894700	0.482200
H81	H8	0.697100	0.866200	0.402200
H91	H9	0.486700	0.990300	0.125000
H101	H10	0.240200	0.017200	0.196000
H111	H11	0.465800	0.194900	0.075200
H121	H12	0.551900	0.307200	0.138600
H131	H13	0.532700	0.567000	0.837200
H141	H14	0.446700	0.454900	0.776200
H151	H15	0.636400	0.484600	0.107600
H161	H16	0.606300	0.665800	0.906000
H171	H17	0.640500	0.847200	0.889200
H181	H18	0.705300	0.959700	0.961600
H191	H19	0.840200	0.686900	0.230200
H201	H20	0.758100	0.570600	0.169800
H211	H21	0.339900	0.764900	0.259400
H221	H22	0.579000	0.655400	0.334200
H231	H23	0.341200	0.449500	0.592600
H241	H24	0.099900	0.562500	0.519400
H251	H25	0.730800	0.493400	0.472800
H261	H26	0.574000	0.348900	0.650800
H271	H27	0.957400	0.376900	0.517800
H281	H28	0.197100	0.268400	0.597800
H291	H29	0.986700	0.115300	0.875000
H301	H30	0.740200	0.213200	0.804000
H311	H31	0.965800	0.270100	0.924800
H321	H32	0.051900	0.445800	0.861400
H331	H33	0.032700	0.404200	0.162800
H341	H34	0.946700	0.231100	0.223800
H351	H35	0.136400	0.592200	0.892400
H361	H36	0.106300	0.571800	0.094000
H371	H37	0.140500	0.736400	0.110800
H381	H38	0.205300	0.921300	0.038400
H391	H39	0.340200	0.917100	0.769800
H401	H40	0.258100	0.740400	0.830200
C11	C1	0.540500	0.082100	0.666000
C21	C2	0.694300	0.058500	0.618600
C31	C3	0.839800	0.029200	0.672800
C41	C4	0.983200	0.007200	0.628600
C51	C5	0.985500	0.011300	0.527000
C61	C6	0.841600	0.039100	0.474400
C71	C7	0.695500	0.063000	0.518400
C81	C8	0.140500	0.984600	0.484600
C91	C9	0.164300	0.984200	0.390800
C101	C10	0.323400	0.961300	0.346800
C111	C11	0.460800	0.914200	0.409600
C121	C12	0.603900	0.897100	0.360800
C131	C13	0.479800	0.969300	0.198000
C141	C14	0.331800	0.987800	0.239000
C151	C15	0.395400	0.240400	0.877400
C161	C16	0.447000	0.311000	0.920000
C171	C17	0.479400	0.269700	0.027000
C181	C18	0.532200	0.336700	0.065600
C191	C19	0.555000	0.447800	0.994000
C201	C20	0.520400	0.491900	0.885200
C211	C21	0.468400	0.424900	0.849000
C221	C22	0.611500	0.520200	0.034600
C231	C23	0.630300	0.629000	0.979200
C241	C24	0.686100	0.696700	0.023600
C251	C25	0.675500	0.813400	0.960000
C261	C26	0.718300	0.881000	0.003200
C271	C27	0.794700	0.720200	0.162000
C281	C28	0.747700	0.648900	0.125600
C291	C29	0.040500	0.748100	0.334000
C301	C30	0.194300	0.677100	0.381400
C311	C31	0.339800	0.702000	0.327200
C321	C32	0.483200	0.635800	0.371400
C331	C33	0.485500	0.538300	0.473000
C341	C34	0.341600	0.513500	0.525600
C351	C35	0.195500	0.581400	0.481600
C361	C36	0.640500	0.469200	0.515400
C371	C37	0.664300	0.375000	0.609200
C381	C38	0.823400	0.308100	0.653200
C391	C39	0.960800	0.323800	0.590400
C401	C40	0.103900	0.257900	0.639200
C411	C41	0.979800	0.167300	0.802000
C421	C42	0.831800	0.226800	0.761000
C431	C43	0.895400	0.117800	0.122600
C441	C44	0.947000	0.231000	0.080000
C451	C45	0.979400	0.296700	0.973000
C461	C46	0.032200	0.402300	0.934400
C471	C47	0.055000	0.441800	0.006000
C481	C48	0.020400	0.377100	0.114800
C491	C49	0.968400	0.273900	0.151000
C501	C50	0.111500	0.554800	0.965400
C511	C51	0.130300	0.608200	0.020800
C521	C52	0.186100	0.720300	0.976400
C531	C53	0.175500	0.773400	0.040000
C541	C54	0.218300	0.884200	0.996800
C551	C55	0.294700	0.882200	0.838000
C561	C56	0.247700	0.774500	0.874400
N11	N1	0.614200	0.923100	0.256400
N21	N2	0.777300	0.833100	0.103600
N31	N3	0.114200	0.179500	0.743600
N41	N4	0.277300	0.936700	0.896400
O11	O1	0.546500	0.070700	0.762400
O21	O2	0.410600	0.109800	0.616800
O31	O3	0.379200	0.135500	0.941800
O41	O4	0.371000	0.281400	0.778600
O51	O5	0.046500	0.833100	0.237600
O61	O6	0.910600	0.726600	0.383200
O71	O7	0.879200	0.077300	0.058200
O81	O8	0.871000	0.060000	0.221400
