data_UVEVAT_clean_PM
_symmetry_space_group_name_H-M	'P1'
_cell_length_a	12.286200
_cell_length_b	14.947100
_cell_length_c	20.895900
_cell_angle_alpha	90.000000
_cell_angle_beta	90.000000
_cell_angle_gamma	90.000000
_symmetry_Int_Tables_number 1

loop_
_symmetry_equiv_pos_as_xyz
'x,y,z'

loop_
_atom_site_label
_atom_site_type_symbol
_atom_site_fract_x
_atom_site_fract_y
_atom_site_fract_z
Mn11	Mn1	0.915690	0.624560	0.306330
Mn21	Mn2	0.584310	0.875440	0.806330
Mn31	Mn3	0.084310	0.624560	0.193670
Mn41	Mn4	0.415690	0.875440	0.693670
Mn51	Mn5	0.084310	0.375440	0.693670
Mn61	Mn6	0.415690	0.124560	0.193670
Mn71	Mn7	0.915690	0.375440	0.806330
Mn81	Mn8	0.584310	0.124560	0.306330
H11	H1	0.599900	0.619500	0.460000
H21	H2	0.916900	0.640000	0.464600
H31	H3	0.868200	0.529700	0.568800
H41	H4	0.745600	0.625600	0.733100
H51	H5	0.640500	0.723500	0.565300
H61	H6	0.900100	0.880500	0.960000
H71	H7	0.583100	0.860000	0.964600
H81	H8	0.631800	0.970300	0.068800
H91	H9	0.754400	0.874400	0.233100
H101	H10	0.859500	0.776500	0.065300
H111	H11	0.400100	0.619500	0.040000
H121	H12	0.083100	0.640000	0.035400
H131	H13	0.131800	0.529700	0.931200
H141	H14	0.254400	0.625600	0.766900
H151	H15	0.359500	0.723500	0.934700
H161	H16	0.099900	0.880500	0.540000
H171	H17	0.416900	0.860000	0.535400
H181	H18	0.368200	0.970300	0.431200
H191	H19	0.245600	0.874400	0.266900
H201	H20	0.140500	0.776500	0.434700
H211	H21	0.400100	0.380500	0.540000
H221	H22	0.083100	0.360000	0.535400
H231	H23	0.131800	0.470300	0.431200
H241	H24	0.254400	0.374400	0.266900
H251	H25	0.359500	0.276500	0.434700
H261	H26	0.099900	0.119500	0.040000
H271	H27	0.416900	0.140000	0.035400
H281	H28	0.368200	0.029700	0.931200
H291	H29	0.245600	0.125600	0.766900
H301	H30	0.140500	0.223500	0.934700
H311	H31	0.599900	0.380500	0.960000
H321	H32	0.916900	0.360000	0.964600
H331	H33	0.868200	0.470300	0.068800
H341	H34	0.745600	0.374400	0.233100
H351	H35	0.640500	0.276500	0.065300
H361	H36	0.900100	0.119500	0.460000
H371	H37	0.583100	0.140000	0.464600
H381	H38	0.631800	0.029700	0.568800
H391	H39	0.754400	0.125600	0.733100
H401	H40	0.859500	0.223500	0.565300
C11	C1	0.672600	0.618600	0.447500
C21	C2	0.846000	0.630800	0.450400
C31	C3	0.753700	0.623200	0.557100
C41	C4	0.820100	0.567200	0.590300
C51	C5	0.815000	0.566900	0.657500
C61	C6	0.748300	0.625800	0.688700
C71	C7	0.684200	0.686300	0.654100
C81	C8	0.612600	0.753100	0.689600
C91	C9	0.684600	0.684800	0.588600
C101	C10	0.880300	0.499000	0.693600
C111	C11	0.827400	0.881400	0.947500
C121	C12	0.654000	0.869200	0.950400
C131	C13	0.746300	0.876800	0.057100
C141	C14	0.679900	0.932800	0.090300
C151	C15	0.685000	0.933100	0.157500
C161	C16	0.751700	0.874200	0.188700
C171	C17	0.815800	0.813700	0.154100
C181	C18	0.887400	0.746900	0.189600
C191	C19	0.815400	0.815200	0.088600
C201	C20	0.619700	0.001000	0.193600
C211	C21	0.327400	0.618600	0.052500
C221	C22	0.154000	0.630800	0.049600
C231	C23	0.246300	0.623200	0.942900
C241	C24	0.179900	0.567200	0.909700
C251	C25	0.185000	0.566900	0.842500
C261	C26	0.251700	0.625800	0.811300
C271	C27	0.315800	0.686300	0.845900
C281	C28	0.387400	0.753100	0.810400
C291	C29	0.315400	0.684800	0.911400
C301	C30	0.119700	0.499000	0.806400
C311	C31	0.172600	0.881400	0.552500
C321	C32	0.346000	0.869200	0.549600
C331	C33	0.253700	0.876800	0.442900
C341	C34	0.320100	0.932800	0.409700
C351	C35	0.315000	0.933100	0.342500
C361	C36	0.248300	0.874200	0.311300
C371	C37	0.184200	0.813700	0.345900
C381	C38	0.112600	0.746900	0.310400
C391	C39	0.184600	0.815200	0.411400
C401	C40	0.380300	0.001000	0.306400
C411	C41	0.327400	0.381400	0.552500
C421	C42	0.154000	0.369200	0.549600
C431	C43	0.246300	0.376800	0.442900
C441	C44	0.179900	0.432800	0.409700
C451	C45	0.185000	0.433100	0.342500
C461	C46	0.251700	0.374200	0.311300
C471	C47	0.315800	0.313700	0.345900
C481	C48	0.387400	0.246900	0.310400
C491	C49	0.315400	0.315200	0.411400
C501	C50	0.119700	0.501000	0.306400
C511	C51	0.172600	0.118600	0.052500
C521	C52	0.346000	0.130800	0.049600
C531	C53	0.253700	0.123200	0.942900
C541	C54	0.320100	0.067200	0.909700
C551	C55	0.315000	0.066900	0.842500
C561	C56	0.248300	0.125800	0.811300
C571	C57	0.184200	0.186300	0.845900
C581	C58	0.112600	0.253100	0.810400
C591	C59	0.184600	0.184800	0.911400
C601	C60	0.380300	0.999000	0.806400
C611	C61	0.672600	0.381400	0.947500
C621	C62	0.846000	0.369200	0.950400
C631	C63	0.753700	0.376800	0.057100
C641	C64	0.820100	0.432800	0.090300
C651	C65	0.815000	0.433100	0.157500
C661	C66	0.748300	0.374200	0.188700
C671	C67	0.684200	0.313700	0.154100
C681	C68	0.612600	0.246900	0.189600
C691	C69	0.684600	0.315200	0.088600
C701	C70	0.880300	0.501000	0.193600
C711	C71	0.827400	0.118600	0.447500
C721	C72	0.654000	0.130800	0.450400
C731	C73	0.746300	0.123200	0.557100
C741	C74	0.679900	0.067200	0.590300
C751	C75	0.685000	0.066900	0.657500
C761	C76	0.751700	0.125800	0.688700
C771	C77	0.815800	0.186300	0.654100
C781	C78	0.887400	0.253100	0.689600
C791	C79	0.815400	0.184800	0.588600
C801	C80	0.619700	0.999000	0.693600
N11	N1	0.757100	0.623300	0.488600
N21	N2	0.816700	0.623200	0.390800
N31	N3	0.704600	0.612500	0.388800
N41	N4	0.742900	0.876700	0.988600
N51	N5	0.683300	0.876800	0.890800
N61	N6	0.795400	0.887500	0.888800
N71	N7	0.242900	0.623300	0.011400
N81	N8	0.183300	0.623200	0.109200
N91	N9	0.295400	0.612500	0.111200
N101	N10	0.257100	0.876700	0.511400
N111	N11	0.316700	0.876800	0.609200
N121	N12	0.204600	0.887500	0.611200
N131	N13	0.242900	0.376700	0.511400
N141	N14	0.183300	0.376800	0.609200
N151	N15	0.295400	0.387500	0.611200
N161	N16	0.257100	0.123300	0.011400
N171	N17	0.316700	0.123200	0.109200
N181	N18	0.204600	0.112500	0.111200
N191	N19	0.757100	0.376700	0.988600
N201	N20	0.816700	0.376800	0.890800
N211	N21	0.704600	0.387500	0.888800
N221	N22	0.742900	0.123300	0.488600
N231	N23	0.683300	0.123200	0.390800
N241	N24	0.795400	0.112500	0.388800
O11	O1	0.643500	0.776100	0.743300
O21	O2	0.530500	0.780600	0.660600
O31	O3	0.849200	0.477200	0.748300
O41	O4	0.962800	0.468700	0.665800
O51	O5	0.856500	0.723900	0.243300
O61	O6	0.969500	0.719400	0.160600
O71	O7	0.650800	0.022800	0.248300
O81	O8	0.537200	0.031300	0.165800
O91	O9	0.356500	0.776100	0.756700
O101	O10	0.469500	0.780600	0.839400
O111	O11	0.150800	0.477200	0.751700
O121	O12	0.037200	0.468700	0.834200
O131	O13	0.143500	0.723900	0.256700
O141	O14	0.030500	0.719400	0.339400
O151	O15	0.349200	0.022800	0.251700
O161	O16	0.462800	0.031300	0.334200
O171	O17	0.356500	0.223900	0.256700
O181	O18	0.469500	0.219400	0.339400
O191	O19	0.150800	0.522800	0.251700
O201	O20	0.037200	0.531300	0.334200
O211	O21	0.143500	0.276100	0.756700
O221	O22	0.030500	0.280600	0.839400
O231	O23	0.349200	0.977200	0.751700
O241	O24	0.462800	0.968700	0.834200
O251	O25	0.643500	0.223900	0.243300
O261	O26	0.530500	0.219400	0.160600
O271	O27	0.849200	0.522800	0.248300
O281	O28	0.962800	0.531300	0.165800
O291	O29	0.856500	0.276100	0.743300
O301	O30	0.969500	0.280600	0.660600
O311	O31	0.650800	0.977200	0.748300
O321	O32	0.537200	0.968700	0.665800
