data_UVEWIC01_clean_PM
_symmetry_space_group_name_H-M	'P1'
_cell_length_a	10.459000
_cell_length_b	10.460000
_cell_length_c	11.540000
_cell_angle_alpha	83.159000
_cell_angle_beta	82.120000
_cell_angle_gamma	88.964000
_symmetry_Int_Tables_number 1

loop_
_symmetry_equiv_pos_as_xyz
'x,y,z'

loop_
_atom_site_label
_atom_site_type_symbol
_atom_site_fract_x
_atom_site_fract_y
_atom_site_fract_z
Mn11	Mn1	0.251870	0.694910	0.883630
Mn21	Mn2	0.202480	0.764300	0.386540
Mn31	Mn3	0.748130	0.305090	0.116370
Mn41	Mn4	0.797520	0.235700	0.613460
Nb11	Nb1	0.224850	0.279520	0.247970
Nb21	Nb2	0.775150	0.720480	0.752030
C11	C1	0.272700	0.158400	0.097000
C21	C2	0.062200	0.257500	0.403600
C31	C3	0.198600	0.473900	0.308300
C41	C4	0.231500	0.073800	0.324600
C51	C5	0.435000	0.315900	0.187100
C61	C6	0.041400	0.260900	0.172000
C71	C7	0.231100	0.429900	0.088500
C81	C8	0.333400	0.274900	0.405500
C91	C9	0.727300	0.841600	0.903000
C101	C10	0.937800	0.742500	0.596400
C111	C11	0.801400	0.526100	0.691700
C121	C12	0.768500	0.926200	0.675400
C131	C13	0.565000	0.684100	0.812900
C141	C14	0.958600	0.739100	0.828000
C151	C15	0.768900	0.570100	0.911500
C161	C16	0.666600	0.725100	0.594500
N11	N1	0.400500	0.274300	0.475300
N21	N2	0.974900	0.244600	0.476200
N31	N3	0.231500	0.969200	0.370400
N41	N4	0.231000	0.517600	0.015700
N51	N5	0.951700	0.263100	0.123700
N61	N6	0.184700	0.568800	0.348300
N71	N7	0.541400	0.331100	0.152600
N81	N8	0.293500	0.084400	0.031200
N91	N9	0.599500	0.725700	0.524700
N101	N10	0.025100	0.755400	0.523800
N111	N11	0.768500	0.030800	0.629600
N121	N12	0.769000	0.482400	0.984300
N131	N13	0.048300	0.736900	0.876300
N141	N14	0.815300	0.431200	0.651700
N151	N15	0.458600	0.668900	0.847400
N161	N16	0.706500	0.915600	0.968800
