data_UVUDUM_clean_PM
_symmetry_space_group_name_H-M	'P1'
_cell_length_a	27.676500
_cell_length_b	27.676500
_cell_length_c	17.935300
_cell_angle_alpha	90.000000
_cell_angle_beta	90.000000
_cell_angle_gamma	120.000000
_symmetry_Int_Tables_number 1

loop_
_symmetry_equiv_pos_as_xyz
'x,y,z'

loop_
_atom_site_label
_atom_site_type_symbol
_atom_site_fract_x
_atom_site_fract_y
_atom_site_fract_z
C11	C1	0.275790	0.065330	0.557690
C21	C2	0.264390	0.093710	0.620740
C31	C3	0.269380	0.145780	0.609500
H11	H1	0.276400	0.161800	0.561100
C41	C4	0.263930	0.173980	0.669760
C51	C5	0.273520	0.231820	0.660090
C61	C6	0.251650	0.150120	0.741150
H21	H2	0.249100	0.170100	0.782500
C71	C7	0.243350	0.096670	0.750210
C81	C8	0.251100	0.068970	0.690700
H31	H3	0.247300	0.033200	0.697900
C91	C9	0.217130	0.093080	0.879460
H41	H4	0.190800	0.105900	0.865000
H51	H5	0.252000	0.125600	0.897800
C101	C10	0.191660	0.048590	0.939270
H61	H6	0.156000	0.017800	0.921500
H71	H7	0.185300	0.064600	0.984400
H81	H8	0.217100	0.034600	0.950600
C111	C11	0.359550	0.115540	0.281130
C121	C12	0.380360	0.169820	0.240680
C131	C13	0.365600	0.207940	0.265810
H91	H9	0.343600	0.200500	0.309500
C141	C14	0.383380	0.257310	0.226280
C151	C15	0.367480	0.299020	0.251660
C161	C16	0.415710	0.268310	0.162560
H101	H10	0.428400	0.302400	0.136500
C171	C17	0.429430	0.229080	0.136970
C181	C18	0.412720	0.180230	0.176520
H111	H11	0.423200	0.154100	0.160200
C191	C19	0.463540	0.198910	0.034250
H121	H12	0.426900	0.164100	0.032900
H131	H13	0.490500	0.191400	0.060800
C201	C20	0.483740	0.219160	0.956010
H141	H14	0.456800	0.226500	0.930400
H151	H15	0.487500	0.190600	0.928700
H161	H16	0.520000	0.253600	0.958200
O11	O1	0.289530	0.090530	0.495870
O21	O2	0.271220	0.018300	0.568950
O31	O3	0.269340	0.246860	0.594220
O41	O4	0.284980	0.262290	0.716370
O51	O5	0.228610	0.067760	0.816580
O61	O6	0.330640	0.108380	0.338690
O71	O7	0.372610	0.081340	0.254680
O81	O8	0.332730	0.285100	0.304610
O91	O9	0.389300	0.345090	0.218000
O101	O10	0.458710	0.242470	0.071380
Zn11	Zn1	0.333150	0.322550	0.398950
Zn21	Zn2	0.309080	0.053950	0.418120
C211	C21	0.942460	0.398660	0.891020
C221	C22	0.931060	0.427040	0.954070
C231	C23	0.936050	0.479110	0.942830
H171	H17	0.943070	0.495130	0.894430
C241	C24	0.930600	0.507310	0.003090
C251	C25	0.940190	0.565150	0.993420
C261	C26	0.918320	0.483450	0.074480
H181	H18	0.915770	0.503430	0.115830
C271	C27	0.910020	0.430000	0.083540
C281	C28	0.917770	0.402300	0.024030
H191	H19	0.913970	0.366530	0.031230
C291	C29	0.883800	0.426410	0.212790
H201	H20	0.857470	0.439230	0.198330
H211	H21	0.918670	0.458930	0.231130
C301	C30	0.858330	0.381920	0.272600
H221	H22	0.822670	0.351130	0.254830
H231	H23	0.851970	0.397930	0.317730
H241	H24	0.883770	0.367930	0.283930
C311	C31	0.026220	0.448870	0.614460
C321	C32	0.047030	0.503150	0.574010
C331	C33	0.032270	0.541270	0.599140
H251	H25	0.010270	0.533830	0.642830
C341	C34	0.050050	0.590640	0.559610
C351	C35	0.034150	0.632350	0.584990
C361	C36	0.082380	0.601640	0.495890
H261	H26	0.095070	0.635730	0.469830
C371	C37	0.096100	0.562410	0.470300
C381	C38	0.079390	0.513560	0.509850
H271	H27	0.089870	0.487430	0.493530
C391	C39	0.130210	0.532240	0.367580
H281	H28	0.093570	0.497430	0.366230
H291	H29	0.157170	0.524730	0.394130
C401	C40	0.150410	0.552490	0.289340
H301	H30	0.123470	0.559830	0.263730
H311	H31	0.154170	0.523930	0.262030
H321	H32	0.186670	0.586930	0.291530
O111	O11	0.956200	0.423860	0.829200
O121	O12	0.937890	0.351630	0.902280
O131	O13	0.936010	0.580190	0.927550
O141	O14	0.951650	0.595620	0.049700
O151	O15	0.895280	0.401090	0.149910
O161	O16	0.997310	0.441710	0.672020
O171	O17	0.039280	0.414670	0.588010
O181	O18	0.999400	0.618430	0.637940
O191	O19	0.055970	0.678420	0.551330
O201	O20	0.125380	0.575800	0.404710
Zn31	Zn3	0.999820	0.655880	0.732280
Zn41	Zn4	0.975750	0.387280	0.751450
C411	C41	0.609120	0.732000	0.224360
C421	C42	0.597720	0.760380	0.287410
C431	C43	0.602710	0.812450	0.276170
H331	H33	0.609730	0.828470	0.227770
C441	C44	0.597260	0.840650	0.336430
C451	C45	0.606850	0.898490	0.326760
C461	C46	0.584980	0.816790	0.407820
H341	H34	0.582430	0.836770	0.449170
C471	C47	0.576680	0.763340	0.416880
C481	C48	0.584430	0.735640	0.357370
H351	H35	0.580630	0.699870	0.364570
C491	C49	0.550460	0.759750	0.546130
H361	H36	0.524130	0.772570	0.531670
H371	H37	0.585330	0.792270	0.564470
C501	C50	0.524990	0.715260	0.605940
H381	H38	0.489330	0.684470	0.588170
H391	H39	0.518630	0.731270	0.651070
H401	H40	0.550430	0.701270	0.617270
C511	C51	0.692880	0.782210	0.947800
C521	C52	0.713690	0.836490	0.907350
C531	C53	0.698930	0.874610	0.932480
H411	H41	0.676930	0.867170	0.976170
C541	C54	0.716710	0.923980	0.892950
C551	C55	0.700810	0.965690	0.918330
C561	C56	0.749040	0.934980	0.829230
H421	H42	0.761730	0.969070	0.803170
C571	C57	0.762760	0.895750	0.803640
C581	C58	0.746050	0.846900	0.843190
H431	H43	0.756530	0.820770	0.826870
C591	C59	0.796870	0.865580	0.700920
H441	H44	0.760230	0.830770	0.699570
H451	H45	0.823830	0.858070	0.727470
C601	C60	0.817070	0.885830	0.622680
H461	H46	0.790130	0.893170	0.597070
H471	H47	0.820830	0.857270	0.595370
H481	H48	0.853330	0.920270	0.624870
O211	O21	0.622860	0.757200	0.162540
O221	O22	0.604550	0.684970	0.235620
O231	O23	0.602670	0.913530	0.260890
O241	O24	0.618310	0.928960	0.383040
O251	O25	0.561940	0.734430	0.483250
O261	O26	0.663970	0.775050	0.005360
O271	O27	0.705940	0.748010	0.921350
O281	O28	0.666060	0.951770	0.971280
O291	O29	0.722630	0.011760	0.884670
O301	O30	0.792040	0.909140	0.738050
Zn51	Zn5	0.666480	0.989220	0.065620
Zn61	Zn6	0.642410	0.720620	0.084790
C611	C61	0.934670	0.210460	0.557690
C621	C62	0.906290	0.170680	0.620740
C631	C63	0.854220	0.123600	0.609500
H491	H49	0.838200	0.114600	0.561100
C641	C64	0.826020	0.089950	0.669760
C651	C65	0.768180	0.041700	0.660090
C661	C66	0.849880	0.101530	0.741150
H501	H50	0.829900	0.079000	0.782500
C671	C67	0.903330	0.146680	0.750210
C681	C68	0.931030	0.182130	0.690700
H511	H51	0.966800	0.214100	0.697900
C691	C69	0.906920	0.124050	0.879460
H521	H52	0.894100	0.084900	0.865000
H531	H53	0.874400	0.126400	0.897800
C701	C70	0.951410	0.143070	0.939270
H541	H54	0.982200	0.138200	0.921500
H551	H55	0.935400	0.120700	0.984400
H561	H56	0.965400	0.182500	0.950600
C711	C71	0.884460	0.244010	0.281130
C721	C72	0.830180	0.210540	0.240680
C731	C73	0.792060	0.157660	0.265810
H571	H57	0.799500	0.143100	0.309500
C741	C74	0.742690	0.126070	0.226280
C751	C75	0.700980	0.068460	0.251660
C761	C76	0.731690	0.147400	0.162560
H581	H58	0.697600	0.126000	0.136500
C771	C77	0.770920	0.200350	0.136970
C781	C78	0.819770	0.232490	0.176520
H591	H59	0.845900	0.269100	0.160200
C791	C79	0.801090	0.264630	0.034250
H601	H60	0.835900	0.262800	0.032900
H611	H61	0.808600	0.299100	0.060800
C801	C80	0.780840	0.264580	0.956010
H621	H62	0.773500	0.230300	0.930400
H631	H63	0.809400	0.296900	0.928700
H641	H64	0.746400	0.266400	0.958200
O311	O31	0.909470	0.199000	0.495870
O321	O32	0.981700	0.252920	0.568950
O331	O33	0.753140	0.022480	0.594220
O341	O34	0.737710	0.022690	0.716370
O351	O35	0.932240	0.160850	0.816580
O361	O36	0.891620	0.222260	0.338690
O371	O37	0.918660	0.291270	0.254680
O381	O38	0.714900	0.047630	0.304610
O391	O39	0.654910	0.044210	0.218000
O401	O40	0.757530	0.216240	0.071380
Zn71	Zn7	0.677450	0.010600	0.398950
Zn81	Zn8	0.946050	0.255130	0.418120
C811	C81	0.601340	0.543790	0.891020
C821	C82	0.572960	0.504010	0.954070
C831	C83	0.520890	0.456930	0.942830
H651	H65	0.504870	0.447930	0.894430
C841	C84	0.492690	0.423280	0.003090
C851	C85	0.434850	0.375030	0.993420
C861	C86	0.516550	0.434860	0.074480
H661	H66	0.496570	0.412330	0.115830
C871	C87	0.570000	0.480010	0.083540
C881	C88	0.597700	0.515460	0.024030
H671	H67	0.633470	0.547430	0.031230
C891	C89	0.573590	0.457380	0.212790
H681	H68	0.560770	0.418230	0.198330
H691	H69	0.541070	0.459730	0.231130
C901	C90	0.618080	0.476400	0.272600
H701	H70	0.648870	0.471530	0.254830
H711	H71	0.602070	0.454030	0.317730
H721	H72	0.632070	0.515830	0.283930
C911	C91	0.551130	0.577340	0.614460
C921	C92	0.496850	0.543870	0.574010
C931	C93	0.458730	0.490990	0.599140
H731	H73	0.466170	0.476430	0.642830
C941	C94	0.409360	0.459400	0.559610
C951	C95	0.367650	0.401790	0.584990
C961	C96	0.398360	0.480730	0.495890
H741	H74	0.364270	0.459330	0.469830
C971	C97	0.437590	0.533680	0.470300
C981	C98	0.486440	0.565820	0.509850
H751	H75	0.512570	0.602430	0.493530
C991	C99	0.467760	0.597960	0.367580
H761	H76	0.502570	0.596130	0.366230
H771	H77	0.475270	0.632430	0.394130
C1001	C100	0.447510	0.597910	0.289340
H781	H78	0.440170	0.563630	0.263730
H791	H79	0.476070	0.630230	0.262030
H801	H80	0.413070	0.599730	0.291530
O411	O41	0.576140	0.532330	0.829200
O421	O42	0.648370	0.586250	0.902280
O431	O43	0.419810	0.355810	0.927550
O441	O44	0.404380	0.356020	0.049700
O451	O45	0.598910	0.494180	0.149910
O461	O46	0.558290	0.555590	0.672020
O471	O47	0.585330	0.624600	0.588010
O481	O48	0.381570	0.380960	0.637940
O491	O49	0.321580	0.377540	0.551330
O501	O50	0.424200	0.549570	0.404710
Zn91	Zn9	0.344120	0.343930	0.732280
Zn101	Zn10	0.612720	0.588460	0.751450
C1011	C101	0.268000	0.877130	0.224360
C1021	C102	0.239620	0.837350	0.287410
C1031	C103	0.187550	0.790270	0.276170
H811	H81	0.171530	0.781270	0.227770
C1041	C104	0.159350	0.756620	0.336430
C1051	C105	0.101510	0.708370	0.326760
C1061	C106	0.183210	0.768200	0.407820
H821	H82	0.163230	0.745670	0.449170
C1071	C107	0.236660	0.813350	0.416880
C1081	C108	0.264360	0.848800	0.357370
H831	H83	0.300130	0.880770	0.364570
C1091	C109	0.240250	0.790720	0.546130
H841	H84	0.227430	0.751570	0.531670
H851	H85	0.207730	0.793070	0.564470
C1101	C110	0.284740	0.809740	0.605940
H861	H86	0.315530	0.804870	0.588170
H871	H87	0.268730	0.787370	0.651070
H881	H88	0.298730	0.849170	0.617270
C1111	C111	0.217790	0.910680	0.947800
C1121	C112	0.163510	0.877210	0.907350
C1131	C113	0.125390	0.824330	0.932480
H891	H89	0.132830	0.809770	0.976170
C1141	C114	0.076020	0.792740	0.892950
C1151	C115	0.034310	0.735130	0.918330
C1161	C116	0.065020	0.814070	0.829230
H901	H90	0.030930	0.792670	0.803170
C1171	C117	0.104250	0.867020	0.803640
C1181	C118	0.153100	0.899160	0.843190
H911	H91	0.179230	0.935770	0.826870
C1191	C119	0.134420	0.931300	0.700920
H921	H92	0.169230	0.929470	0.699570
H931	H93	0.141930	0.965770	0.727470
C1201	C120	0.114170	0.931250	0.622680
H941	H94	0.106830	0.896970	0.597070
H951	H95	0.142730	0.963570	0.595370
H961	H96	0.079730	0.933070	0.624870
O511	O51	0.242800	0.865670	0.162540
O521	O52	0.315030	0.919590	0.235620
O531	O53	0.086470	0.689150	0.260890
O541	O54	0.071040	0.689360	0.383040
O551	O55	0.265570	0.827520	0.483250
O561	O56	0.224950	0.888930	0.005360
O571	O57	0.251990	0.957940	0.921350
O581	O58	0.048230	0.714300	0.971280
O591	O59	0.988240	0.710880	0.884670
O601	O60	0.090860	0.882910	0.738050
Zn111	Zn11	0.010780	0.677270	0.065620
Zn121	Zn12	0.279380	0.921800	0.084790
C1211	C121	0.789540	0.724210	0.557690
C1221	C122	0.829320	0.735610	0.620740
C1231	C123	0.876400	0.730620	0.609500
H971	H97	0.885400	0.723600	0.561100
C1241	C124	0.910050	0.736070	0.669760
C1251	C125	0.958300	0.726480	0.660090
C1261	C126	0.898470	0.748350	0.741150
H981	H98	0.921000	0.750900	0.782500
C1271	C127	0.853320	0.756650	0.750210
C1281	C128	0.817870	0.748900	0.690700
H991	H99	0.785900	0.752700	0.697900
C1291	C129	0.875950	0.782870	0.879460
H1001	H100	0.915100	0.809200	0.865000
H1011	H101	0.873600	0.748000	0.897800
C1301	C130	0.856930	0.808340	0.939270
H1021	H102	0.861800	0.844000	0.921500
H1031	H103	0.879300	0.814700	0.984400
H1041	H104	0.817500	0.782900	0.950600
C1311	C131	0.755990	0.640450	0.281130
C1321	C132	0.789460	0.619640	0.240680
C1331	C133	0.842340	0.634400	0.265810
H1051	H105	0.856900	0.656400	0.309500
C1341	C134	0.873930	0.616620	0.226280
C1351	C135	0.931540	0.632520	0.251660
C1361	C136	0.852600	0.584290	0.162560
H1061	H106	0.874000	0.571600	0.136500
C1371	C137	0.799650	0.570570	0.136970
C1381	C138	0.767510	0.587280	0.176520
H1071	H107	0.730900	0.576800	0.160200
C1391	C139	0.735370	0.536460	0.034250
H1081	H108	0.737200	0.573100	0.032900
H1091	H109	0.700900	0.509500	0.060800
C1401	C140	0.735420	0.516260	0.956010
H1101	H110	0.769700	0.543200	0.930400
H1111	H111	0.703100	0.512500	0.928700
H1121	H112	0.733600	0.480000	0.958200
O611	O61	0.801000	0.710470	0.495870
O621	O62	0.747080	0.728780	0.568950
O631	O63	0.977520	0.730660	0.594220
O641	O64	0.977310	0.715020	0.716370
O651	O65	0.839150	0.771390	0.816580
O661	O66	0.777740	0.669360	0.338690
O671	O67	0.708730	0.627390	0.254680
O681	O68	0.952370	0.667270	0.304610
O691	O69	0.955790	0.610700	0.218000
O701	O70	0.783760	0.541290	0.071380
Zn131	Zn13	0.989400	0.666850	0.398950
Zn141	Zn14	0.744870	0.690920	0.418120
C1411	C141	0.456210	0.057540	0.891020
C1421	C142	0.495990	0.068940	0.954070
C1431	C143	0.543070	0.063950	0.942830
H1131	H113	0.552070	0.056930	0.894430
C1441	C144	0.576720	0.069400	0.003090
C1451	C145	0.624970	0.059810	0.993420
C1461	C146	0.565140	0.081680	0.074480
H1141	H114	0.587670	0.084230	0.115830
C1471	C147	0.519990	0.089980	0.083540
C1481	C148	0.484540	0.082230	0.024030
H1151	H115	0.452570	0.086030	0.031230
C1491	C149	0.542620	0.116200	0.212790
H1161	H116	0.581770	0.142530	0.198330
H1171	H117	0.540270	0.081330	0.231130
C1501	C150	0.523600	0.141670	0.272600
H1181	H118	0.528470	0.177330	0.254830
H1191	H119	0.545970	0.148030	0.317730
H1201	H120	0.484170	0.116230	0.283930
C1511	C151	0.422660	0.973780	0.614460
C1521	C152	0.456130	0.952970	0.574010
C1531	C153	0.509010	0.967730	0.599140
H1211	H121	0.523570	0.989730	0.642830
C1541	C154	0.540600	0.949950	0.559610
C1551	C155	0.598210	0.965850	0.584990
C1561	C156	0.519270	0.917620	0.495890
H1221	H122	0.540670	0.904930	0.469830
C1571	C157	0.466320	0.903900	0.470300
C1581	C158	0.434180	0.920610	0.509850
H1231	H123	0.397570	0.910130	0.493530
C1591	C159	0.402040	0.869790	0.367580
H1241	H124	0.403870	0.906430	0.366230
H1251	H125	0.367570	0.842830	0.394130
C1601	C160	0.402090	0.849590	0.289340
H1261	H126	0.436370	0.876530	0.263730
H1271	H127	0.369770	0.845830	0.262030
H1281	H128	0.400270	0.813330	0.291530
O711	O71	0.467670	0.043800	0.829200
O721	O72	0.413750	0.062110	0.902280
O731	O73	0.644190	0.063990	0.927550
O741	O74	0.643980	0.048350	0.049700
O751	O75	0.505820	0.104720	0.149910
O761	O76	0.444410	0.002690	0.672020
O771	O77	0.375400	0.960720	0.588010
O781	O78	0.619040	0.000600	0.637940
O791	O79	0.622460	0.944030	0.551330
O801	O80	0.450430	0.874620	0.404710
Zn151	Zn15	0.656070	0.000180	0.732280
Zn161	Zn16	0.411540	0.024250	0.751450
C1611	C161	0.122870	0.390880	0.224360
C1621	C162	0.162650	0.402280	0.287410
C1631	C163	0.209730	0.397290	0.276170
H1291	H129	0.218730	0.390270	0.227770
C1641	C164	0.243380	0.402740	0.336430
C1651	C165	0.291630	0.393150	0.326760
C1661	C166	0.231800	0.415020	0.407820
H1301	H130	0.254330	0.417570	0.449170
C1671	C167	0.186650	0.423320	0.416880
C1681	C168	0.151200	0.415570	0.357370
H1311	H131	0.119230	0.419370	0.364570
C1691	C169	0.209280	0.449540	0.546130
H1321	H132	0.248430	0.475870	0.531670
H1331	H133	0.206930	0.414670	0.564470
C1701	C170	0.190260	0.475010	0.605940
H1341	H134	0.195130	0.510670	0.588170
H1351	H135	0.212630	0.481370	0.651070
H1361	H136	0.150830	0.449570	0.617270
C1711	C171	0.089320	0.307120	0.947800
C1721	C172	0.122790	0.286310	0.907350
C1731	C173	0.175670	0.301070	0.932480
H1371	H137	0.190230	0.323070	0.976170
C1741	C174	0.207260	0.283290	0.892950
C1751	C175	0.264870	0.299190	0.918330
C1761	C176	0.185930	0.250960	0.829230
H1381	H138	0.207330	0.238270	0.803170
C1771	C177	0.132980	0.237240	0.803640
C1781	C178	0.100840	0.253950	0.843190
H1391	H139	0.064230	0.243470	0.826870
C1791	C179	0.068700	0.203130	0.700920
H1401	H140	0.070530	0.239770	0.699570
H1411	H141	0.034230	0.176170	0.727470
C1801	C180	0.068750	0.182930	0.622680
H1421	H142	0.103030	0.209870	0.597070
H1431	H143	0.036430	0.179170	0.595370
H1441	H144	0.066930	0.146670	0.624870
O811	O81	0.134330	0.377140	0.162540
O821	O82	0.080410	0.395450	0.235620
O831	O83	0.310850	0.397330	0.260890
O841	O84	0.310640	0.381690	0.383040
O851	O85	0.172480	0.438060	0.483250
O861	O86	0.111070	0.336030	0.005360
O871	O87	0.042060	0.294060	0.921350
O881	O88	0.285700	0.333940	0.971280
O891	O89	0.289120	0.277370	0.884670
O901	O90	0.117090	0.207960	0.738050
Zn171	Zn17	0.322730	0.333520	0.065620
Zn181	Zn18	0.078200	0.357590	0.084790
C1811	C181	0.724210	0.934670	0.442310
C1821	C182	0.735610	0.906290	0.379260
C1831	C183	0.730620	0.854220	0.390500
H1451	H145	0.723600	0.838200	0.438900
C1841	C184	0.736070	0.826020	0.330240
C1851	C185	0.726480	0.768180	0.339910
C1861	C186	0.748350	0.849880	0.258850
H1461	H146	0.750900	0.829900	0.217500
C1871	C187	0.756650	0.903330	0.249790
C1881	C188	0.748900	0.931030	0.309300
H1471	H147	0.752700	0.966800	0.302100
C1891	C189	0.782870	0.906920	0.120540
H1481	H148	0.809200	0.894100	0.135000
H1491	H149	0.748000	0.874400	0.102200
C1901	C190	0.808340	0.951410	0.060730
H1501	H150	0.844000	0.982200	0.078500
H1511	H151	0.814700	0.935400	0.015600
H1521	H152	0.782900	0.965400	0.049400
C1911	C191	0.640450	0.884460	0.718870
C1921	C192	0.619640	0.830180	0.759320
C1931	C193	0.634400	0.792060	0.734190
H1531	H153	0.656400	0.799500	0.690500
C1941	C194	0.616620	0.742690	0.773720
C1951	C195	0.632520	0.700980	0.748340
C1961	C196	0.584290	0.731690	0.837440
H1541	H154	0.571600	0.697600	0.863500
C1971	C197	0.570570	0.770920	0.863030
C1981	C198	0.587280	0.819770	0.823480
H1551	H155	0.576800	0.845900	0.839800
C1991	C199	0.536460	0.801090	0.965750
H1561	H156	0.573100	0.835900	0.967100
H1571	H157	0.509500	0.808600	0.939200
C2001	C200	0.516260	0.780840	0.043990
H1581	H158	0.543200	0.773500	0.069600
H1591	H159	0.512500	0.809400	0.071300
H1601	H160	0.480000	0.746400	0.041800
O911	O91	0.710470	0.909470	0.504130
O921	O92	0.728780	0.981700	0.431050
O931	O93	0.730660	0.753140	0.405780
O941	O94	0.715020	0.737710	0.283630
O951	O95	0.771390	0.932240	0.183420
O961	O96	0.669360	0.891620	0.661310
O971	O97	0.627390	0.918660	0.745320
O981	O98	0.667270	0.714900	0.695390
O991	O99	0.610700	0.654910	0.782000
O1001	O100	0.541290	0.757530	0.928620
Zn191	Zn19	0.666850	0.677450	0.601050
Zn201	Zn20	0.690920	0.946050	0.581880
C2011	C201	0.390880	0.268000	0.775640
C2021	C202	0.402280	0.239620	0.712590
C2031	C203	0.397290	0.187550	0.723830
H1611	H161	0.390270	0.171530	0.772230
C2041	C204	0.402740	0.159350	0.663570
C2051	C205	0.393150	0.101510	0.673240
C2061	C206	0.415020	0.183210	0.592180
H1621	H162	0.417570	0.163230	0.550830
C2071	C207	0.423320	0.236660	0.583120
C2081	C208	0.415570	0.264360	0.642630
H1631	H163	0.419370	0.300130	0.635430
C2091	C209	0.449540	0.240250	0.453870
H1641	H164	0.475870	0.227430	0.468330
H1651	H165	0.414670	0.207730	0.435530
C2101	C210	0.475010	0.284740	0.394060
H1661	H166	0.510670	0.315530	0.411830
H1671	H167	0.481370	0.268730	0.348930
H1681	H168	0.449570	0.298730	0.382730
C2111	C211	0.307120	0.217790	0.052200
C2121	C212	0.286310	0.163510	0.092650
C2131	C213	0.301070	0.125390	0.067520
H1691	H169	0.323070	0.132830	0.023830
C2141	C214	0.283290	0.076020	0.107050
C2151	C215	0.299190	0.034310	0.081670
C2161	C216	0.250960	0.065020	0.170770
H1701	H170	0.238270	0.030930	0.196830
C2171	C217	0.237240	0.104250	0.196360
C2181	C218	0.253950	0.153100	0.156810
H1711	H171	0.243470	0.179230	0.173130
C2191	C219	0.203130	0.134420	0.299080
H1721	H172	0.239770	0.169230	0.300430
H1731	H173	0.176170	0.141930	0.272530
C2201	C220	0.182930	0.114170	0.377320
H1741	H174	0.209870	0.106830	0.402930
H1751	H175	0.179170	0.142730	0.404630
H1761	H176	0.146670	0.079730	0.375130
O1011	O101	0.377140	0.242800	0.837460
O1021	O102	0.395450	0.315030	0.764380
O1031	O103	0.397330	0.086470	0.739110
O1041	O104	0.381690	0.071040	0.616960
O1051	O105	0.438060	0.265570	0.516750
O1061	O106	0.336030	0.224950	0.994640
O1071	O107	0.294060	0.251990	0.078650
O1081	O108	0.333940	0.048230	0.028720
O1091	O109	0.277370	0.988240	0.115330
O1101	O110	0.207960	0.090860	0.261950
Zn211	Zn21	0.333520	0.010780	0.934380
Zn221	Zn22	0.357590	0.279380	0.915210
C2211	C221	0.057540	0.601340	0.108980
C2221	C222	0.068940	0.572960	0.045930
C2231	C223	0.063950	0.520890	0.057170
H1771	H177	0.056930	0.504870	0.105570
C2241	C224	0.069400	0.492690	0.996910
C2251	C225	0.059810	0.434850	0.006580
C2261	C226	0.081680	0.516550	0.925520
H1781	H178	0.084230	0.496570	0.884170
C2271	C227	0.089980	0.570000	0.916460
C2281	C228	0.082230	0.597700	0.975970
H1791	H179	0.086030	0.633470	0.968770
C2291	C229	0.116200	0.573590	0.787210
H1801	H180	0.142530	0.560770	0.801670
H1811	H181	0.081330	0.541070	0.768870
C2301	C230	0.141670	0.618080	0.727400
H1821	H182	0.177330	0.648870	0.745170
H1831	H183	0.148030	0.602070	0.682270
H1841	H184	0.116230	0.632070	0.716070
C2311	C231	0.973780	0.551130	0.385540
C2321	C232	0.952970	0.496850	0.425990
C2331	C233	0.967730	0.458730	0.400860
H1851	H185	0.989730	0.466170	0.357170
C2341	C234	0.949950	0.409360	0.440390
C2351	C235	0.965850	0.367650	0.415010
C2361	C236	0.917620	0.398360	0.504110
H1861	H186	0.904930	0.364270	0.530170
C2371	C237	0.903900	0.437590	0.529700
C2381	C238	0.920610	0.486440	0.490150
H1871	H187	0.910130	0.512570	0.506470
C2391	C239	0.869790	0.467760	0.632420
H1881	H188	0.906430	0.502570	0.633770
H1891	H189	0.842830	0.475270	0.605870
C2401	C240	0.849590	0.447510	0.710660
H1901	H190	0.876530	0.440170	0.736270
H1911	H191	0.845830	0.476070	0.737970
H1921	H192	0.813330	0.413070	0.708470
O1111	O111	0.043800	0.576140	0.170800
O1121	O112	0.062110	0.648370	0.097720
O1131	O113	0.063990	0.419810	0.072450
O1141	O114	0.048350	0.404380	0.950300
O1151	O115	0.104720	0.598910	0.850090
O1161	O116	0.002690	0.558290	0.327980
O1171	O117	0.960720	0.585330	0.411990
O1181	O118	0.000600	0.381570	0.362060
O1191	O119	0.944030	0.321580	0.448670
O1201	O120	0.874620	0.424200	0.595290
Zn231	Zn23	0.000180	0.344120	0.267720
Zn241	Zn24	0.024250	0.612720	0.248550
C2411	C241	0.065330	0.789540	0.442310
C2421	C242	0.093710	0.829320	0.379260
C2431	C243	0.145780	0.876400	0.390500
H1931	H193	0.161800	0.885400	0.438900
C2441	C244	0.173980	0.910050	0.330240
C2451	C245	0.231820	0.958300	0.339910
C2461	C246	0.150120	0.898470	0.258850
H1941	H194	0.170100	0.921000	0.217500
C2471	C247	0.096670	0.853320	0.249790
C2481	C248	0.068970	0.817870	0.309300
H1951	H195	0.033200	0.785900	0.302100
C2491	C249	0.093080	0.875950	0.120540
H1961	H196	0.105900	0.915100	0.135000
H1971	H197	0.125600	0.873600	0.102200
C2501	C250	0.048590	0.856930	0.060730
H1981	H198	0.017800	0.861800	0.078500
H1991	H199	0.064600	0.879300	0.015600
H2001	H200	0.034600	0.817500	0.049400
C2511	C251	0.115540	0.755990	0.718870
C2521	C252	0.169820	0.789460	0.759320
C2531	C253	0.207940	0.842340	0.734190
H2011	H201	0.200500	0.856900	0.690500
C2541	C254	0.257310	0.873930	0.773720
C2551	C255	0.299020	0.931540	0.748340
C2561	C256	0.268310	0.852600	0.837440
H2021	H202	0.302400	0.874000	0.863500
C2571	C257	0.229080	0.799650	0.863030
C2581	C258	0.180230	0.767510	0.823480
H2031	H203	0.154100	0.730900	0.839800
C2591	C259	0.198910	0.735370	0.965750
H2041	H204	0.164100	0.737200	0.967100
H2051	H205	0.191400	0.700900	0.939200
C2601	C260	0.219160	0.735420	0.043990
H2061	H206	0.226500	0.769700	0.069600
H2071	H207	0.190600	0.703100	0.071300
H2081	H208	0.253600	0.733600	0.041800
O1211	O121	0.090530	0.801000	0.504130
O1221	O122	0.018300	0.747080	0.431050
O1231	O123	0.246860	0.977520	0.405780
O1241	O124	0.262290	0.977310	0.283630
O1251	O125	0.067760	0.839150	0.183420
O1261	O126	0.108380	0.777740	0.661310
O1271	O127	0.081340	0.708730	0.745320
O1281	O128	0.285100	0.952370	0.695390
O1291	O129	0.345090	0.955790	0.782000
O1301	O130	0.242470	0.783760	0.928620
Zn251	Zn25	0.322550	0.989400	0.601050
Zn261	Zn26	0.053950	0.744870	0.581880
C2611	C261	0.732000	0.122870	0.775640
C2621	C262	0.760380	0.162650	0.712590
C2631	C263	0.812450	0.209730	0.723830
H2091	H209	0.828470	0.218730	0.772230
C2641	C264	0.840650	0.243380	0.663570
C2651	C265	0.898490	0.291630	0.673240
C2661	C266	0.816790	0.231800	0.592180
H2101	H210	0.836770	0.254330	0.550830
C2671	C267	0.763340	0.186650	0.583120
C2681	C268	0.735640	0.151200	0.642630
H2111	H211	0.699870	0.119230	0.635430
C2691	C269	0.759750	0.209280	0.453870
H2121	H212	0.772570	0.248430	0.468330
H2131	H213	0.792270	0.206930	0.435530
C2701	C270	0.715260	0.190260	0.394060
H2141	H214	0.684470	0.195130	0.411830
H2151	H215	0.731270	0.212630	0.348930
H2161	H216	0.701270	0.150830	0.382730
C2711	C271	0.782210	0.089320	0.052200
C2721	C272	0.836490	0.122790	0.092650
C2731	C273	0.874610	0.175670	0.067520
H2171	H217	0.867170	0.190230	0.023830
C2741	C274	0.923980	0.207260	0.107050
C2751	C275	0.965690	0.264870	0.081670
C2761	C276	0.934980	0.185930	0.170770
H2181	H218	0.969070	0.207330	0.196830
C2771	C277	0.895750	0.132980	0.196360
C2781	C278	0.846900	0.100840	0.156810
H2191	H219	0.820770	0.064230	0.173130
C2791	C279	0.865580	0.068700	0.299080
H2201	H220	0.830770	0.070530	0.300430
H2211	H221	0.858070	0.034230	0.272530
C2801	C280	0.885830	0.068750	0.377320
H2221	H222	0.893170	0.103030	0.402930
H2231	H223	0.857270	0.036430	0.404630
H2241	H224	0.920270	0.066930	0.375130
O1311	O131	0.757200	0.134330	0.837460
O1321	O132	0.684970	0.080410	0.764380
O1331	O133	0.913530	0.310850	0.739110
O1341	O134	0.928960	0.310640	0.616960
O1351	O135	0.734430	0.172480	0.516750
O1361	O136	0.775050	0.111070	0.994640
O1371	O137	0.748010	0.042060	0.078650
O1381	O138	0.951770	0.285700	0.028720
O1391	O139	0.011760	0.289120	0.115330
O1401	O140	0.909140	0.117090	0.261950
Zn271	Zn27	0.989220	0.322730	0.934380
Zn281	Zn28	0.720620	0.078200	0.915210
C2811	C281	0.398660	0.456210	0.108980
C2821	C282	0.427040	0.495990	0.045930
C2831	C283	0.479110	0.543070	0.057170
H2251	H225	0.495130	0.552070	0.105570
C2841	C284	0.507310	0.576720	0.996910
C2851	C285	0.565150	0.624970	0.006580
C2861	C286	0.483450	0.565140	0.925520
H2261	H226	0.503430	0.587670	0.884170
C2871	C287	0.430000	0.519990	0.916460
C2881	C288	0.402300	0.484540	0.975970
H2271	H227	0.366530	0.452570	0.968770
C2891	C289	0.426410	0.542620	0.787210
H2281	H228	0.439230	0.581770	0.801670
H2291	H229	0.458930	0.540270	0.768870
C2901	C290	0.381920	0.523600	0.727400
H2301	H230	0.351130	0.528470	0.745170
H2311	H231	0.397930	0.545970	0.682270
H2321	H232	0.367930	0.484170	0.716070
C2911	C291	0.448870	0.422660	0.385540
C2921	C292	0.503150	0.456130	0.425990
C2931	C293	0.541270	0.509010	0.400860
H2331	H233	0.533830	0.523570	0.357170
C2941	C294	0.590640	0.540600	0.440390
C2951	C295	0.632350	0.598210	0.415010
C2961	C296	0.601640	0.519270	0.504110
H2341	H234	0.635730	0.540670	0.530170
C2971	C297	0.562410	0.466320	0.529700
C2981	C298	0.513560	0.434180	0.490150
H2351	H235	0.487430	0.397570	0.506470
C2991	C299	0.532240	0.402040	0.632420
H2361	H236	0.497430	0.403870	0.633770
H2371	H237	0.524730	0.367570	0.605870
C3001	C300	0.552490	0.402090	0.710660
H2381	H238	0.559830	0.436370	0.736270
H2391	H239	0.523930	0.369770	0.737970
H2401	H240	0.586930	0.400270	0.708470
O1411	O141	0.423860	0.467670	0.170800
O1421	O142	0.351630	0.413750	0.097720
O1431	O143	0.580190	0.644190	0.072450
O1441	O144	0.595620	0.643980	0.950300
O1451	O145	0.401090	0.505820	0.850090
O1461	O146	0.441710	0.444410	0.327980
O1471	O147	0.414670	0.375400	0.411990
O1481	O148	0.618430	0.619040	0.362060
O1491	O149	0.678420	0.622460	0.448670
O1501	O150	0.575800	0.450430	0.595290
Zn291	Zn29	0.655880	0.656070	0.267720
Zn301	Zn30	0.387280	0.411540	0.248550
C3011	C301	0.210460	0.275790	0.442310
C3021	C302	0.170680	0.264390	0.379260
C3031	C303	0.123600	0.269380	0.390500
H2411	H241	0.114600	0.276400	0.438900
C3041	C304	0.089950	0.263930	0.330240
C3051	C305	0.041700	0.273520	0.339910
C3061	C306	0.101530	0.251650	0.258850
H2421	H242	0.079000	0.249100	0.217500
C3071	C307	0.146680	0.243350	0.249790
C3081	C308	0.182130	0.251100	0.309300
H2431	H243	0.214100	0.247300	0.302100
C3091	C309	0.124050	0.217130	0.120540
H2441	H244	0.084900	0.190800	0.135000
H2451	H245	0.126400	0.252000	0.102200
C3101	C310	0.143070	0.191660	0.060730
H2461	H246	0.138200	0.156000	0.078500
H2471	H247	0.120700	0.185300	0.015600
H2481	H248	0.182500	0.217100	0.049400
C3111	C311	0.244010	0.359550	0.718870
C3121	C312	0.210540	0.380360	0.759320
C3131	C313	0.157660	0.365600	0.734190
H2491	H249	0.143100	0.343600	0.690500
C3141	C314	0.126070	0.383380	0.773720
C3151	C315	0.068460	0.367480	0.748340
C3161	C316	0.147400	0.415710	0.837440
H2501	H250	0.126000	0.428400	0.863500
C3171	C317	0.200350	0.429430	0.863030
C3181	C318	0.232490	0.412720	0.823480
H2511	H251	0.269100	0.423200	0.839800
C3191	C319	0.264630	0.463540	0.965750
H2521	H252	0.262800	0.426900	0.967100
H2531	H253	0.299100	0.490500	0.939200
C3201	C320	0.264580	0.483740	0.043990
H2541	H254	0.230300	0.456800	0.069600
H2551	H255	0.296900	0.487500	0.071300
H2561	H256	0.266400	0.520000	0.041800
O1511	O151	0.199000	0.289530	0.504130
O1521	O152	0.252920	0.271220	0.431050
O1531	O153	0.022480	0.269340	0.405780
O1541	O154	0.022690	0.284980	0.283630
O1551	O155	0.160850	0.228610	0.183420
O1561	O156	0.222260	0.330640	0.661310
O1571	O157	0.291270	0.372610	0.745320
O1581	O158	0.047630	0.332730	0.695390
O1591	O159	0.044210	0.389300	0.782000
O1601	O160	0.216240	0.458710	0.928620
Zn311	Zn31	0.010600	0.333150	0.601050
Zn321	Zn32	0.255130	0.309080	0.581880
C3211	C321	0.877130	0.609120	0.775640
C3221	C322	0.837350	0.597720	0.712590
C3231	C323	0.790270	0.602710	0.723830
H2571	H257	0.781270	0.609730	0.772230
C3241	C324	0.756620	0.597260	0.663570
C3251	C325	0.708370	0.606850	0.673240
C3261	C326	0.768200	0.584980	0.592180
H2581	H258	0.745670	0.582430	0.550830
C3271	C327	0.813350	0.576680	0.583120
C3281	C328	0.848800	0.584430	0.642630
H2591	H259	0.880770	0.580630	0.635430
C3291	C329	0.790720	0.550460	0.453870
H2601	H260	0.751570	0.524130	0.468330
H2611	H261	0.793070	0.585330	0.435530
C3301	C330	0.809740	0.524990	0.394060
H2621	H262	0.804870	0.489330	0.411830
H2631	H263	0.787370	0.518630	0.348930
H2641	H264	0.849170	0.550430	0.382730
C3311	C331	0.910680	0.692880	0.052200
C3321	C332	0.877210	0.713690	0.092650
C3331	C333	0.824330	0.698930	0.067520
H2651	H265	0.809770	0.676930	0.023830
C3341	C334	0.792740	0.716710	0.107050
C3351	C335	0.735130	0.700810	0.081670
C3361	C336	0.814070	0.749040	0.170770
H2661	H266	0.792670	0.761730	0.196830
C3371	C337	0.867020	0.762760	0.196360
C3381	C338	0.899160	0.746050	0.156810
H2671	H267	0.935770	0.756530	0.173130
C3391	C339	0.931300	0.796870	0.299080
H2681	H268	0.929470	0.760230	0.300430
H2691	H269	0.965770	0.823830	0.272530
C3401	C340	0.931250	0.817070	0.377320
H2701	H270	0.896970	0.790130	0.402930
H2711	H271	0.963570	0.820830	0.404630
H2721	H272	0.933070	0.853330	0.375130
O1611	O161	0.865670	0.622860	0.837460
O1621	O162	0.919590	0.604550	0.764380
O1631	O163	0.689150	0.602670	0.739110
O1641	O164	0.689360	0.618310	0.616960
O1651	O165	0.827520	0.561940	0.516750
O1661	O166	0.888930	0.663970	0.994640
O1671	O167	0.957940	0.705940	0.078650
O1681	O168	0.714300	0.666060	0.028720
O1691	O169	0.710880	0.722630	0.115330
O1701	O170	0.882910	0.792040	0.261950
Zn331	Zn33	0.677270	0.666480	0.934380
Zn341	Zn34	0.921800	0.642410	0.915210
C3411	C341	0.543790	0.942460	0.108980
C3421	C342	0.504010	0.931060	0.045930
C3431	C343	0.456930	0.936050	0.057170
H2731	H273	0.447930	0.943070	0.105570
C3441	C344	0.423280	0.930600	0.996910
C3451	C345	0.375030	0.940190	0.006580
C3461	C346	0.434860	0.918320	0.925520
H2741	H274	0.412330	0.915770	0.884170
C3471	C347	0.480010	0.910020	0.916460
C3481	C348	0.515460	0.917770	0.975970
H2751	H275	0.547430	0.913970	0.968770
C3491	C349	0.457380	0.883800	0.787210
H2761	H276	0.418230	0.857470	0.801670
H2771	H277	0.459730	0.918670	0.768870
C3501	C350	0.476400	0.858330	0.727400
H2781	H278	0.471530	0.822670	0.745170
H2791	H279	0.454030	0.851970	0.682270
H2801	H280	0.515830	0.883770	0.716070
C3511	C351	0.577340	0.026220	0.385540
C3521	C352	0.543870	0.047030	0.425990
C3531	C353	0.490990	0.032270	0.400860
H2811	H281	0.476430	0.010270	0.357170
C3541	C354	0.459400	0.050050	0.440390
C3551	C355	0.401790	0.034150	0.415010
C3561	C356	0.480730	0.082380	0.504110
H2821	H282	0.459330	0.095070	0.530170
C3571	C357	0.533680	0.096100	0.529700
C3581	C358	0.565820	0.079390	0.490150
H2831	H283	0.602430	0.089870	0.506470
C3591	C359	0.597960	0.130210	0.632420
H2841	H284	0.596130	0.093570	0.633770
H2851	H285	0.632430	0.157170	0.605870
C3601	C360	0.597910	0.150410	0.710660
H2861	H286	0.563630	0.123470	0.736270
H2871	H287	0.630230	0.154170	0.737970
H2881	H288	0.599730	0.186670	0.708470
O1711	O171	0.532330	0.956200	0.170800
O1721	O172	0.586250	0.937890	0.097720
O1731	O173	0.355810	0.936010	0.072450
O1741	O174	0.356020	0.951650	0.950300
O1751	O175	0.494180	0.895280	0.850090
O1761	O176	0.555590	0.997310	0.327980
O1771	O177	0.624600	0.039280	0.411990
O1781	O178	0.380960	0.999400	0.362060
O1791	O179	0.377540	0.055970	0.448670
O1801	O180	0.549570	0.125380	0.595290
Zn351	Zn35	0.343930	0.999820	0.267720
Zn361	Zn36	0.588460	0.975750	0.248550
