data_UVUGAV_clean_PM
_symmetry_space_group_name_H-M	'P1'
_cell_length_a	27.638000
_cell_length_b	27.638000
_cell_length_c	17.949000
_cell_angle_alpha	90.000000
_cell_angle_beta	90.000000
_cell_angle_gamma	120.000000
_symmetry_Int_Tables_number 1

loop_
_symmetry_equiv_pos_as_xyz
'x,y,z'

loop_
_atom_site_label
_atom_site_type_symbol
_atom_site_fract_x
_atom_site_fract_y
_atom_site_fract_z
C11	C1	0.402090	0.034250	0.916000
C21	C2	0.459950	0.050290	0.940000
C31	C3	0.489850	0.030210	0.901500
H11	H1	0.473600	0.005900	0.860100
C41	C4	0.543800	0.046140	0.924400
C51	C5	0.576650	0.024880	0.883600
C61	C6	0.567300	0.081200	0.985400
H21	H2	0.604000	0.091500	0.001200
C71	C7	0.537200	0.101200	0.023100
C81	C8	0.483200	0.085600	0.000600
H31	H3	0.462400	0.099100	0.026600
C91	C9	0.536200	0.151000	0.130700
C101	C10	0.577500	0.183500	0.200700
C111	C11	0.585400	0.142700	0.238200
C121	C12	0.275390	0.064640	0.059300
C131	C13	0.263450	0.092870	0.122300
C141	C14	0.268740	0.145240	0.110200
H41	H4	0.276000	0.161000	0.061600
C151	C15	0.263310	0.173940	0.169900
C161	C16	0.273180	0.231550	0.159500
C171	C17	0.251580	0.150520	0.241200
H51	H5	0.249700	0.171100	0.282400
C181	C18	0.242680	0.096910	0.251400
C191	C19	0.250130	0.068680	0.192600
H61	H6	0.246100	0.032900	0.200400
C201	C20	0.216400	0.093800	0.380500
H71	H7	0.191500	0.108100	0.365000
H81	H8	0.251300	0.125300	0.400700
C211	C21	0.187700	0.048100	0.439700
C221	C22	0.128900	0.014000	0.420800
O11	O1	0.378640	0.057210	0.949060
O21	O2	0.379790	0.998330	0.864560
O31	O3	0.554250	0.994850	0.827050
O41	O4	0.624750	0.039210	0.908200
O51	O5	0.560300	0.135500	0.082700
O61	O6	0.270750	0.017630	0.070990
O71	O7	0.289400	0.089930	0.998230
O81	O8	0.269060	0.246400	0.093670
O91	O9	0.284810	0.262570	0.215660
O101	O10	0.228470	0.068780	0.318110
Zn11	Zn1	0.309210	0.053490	0.919820
Zn21	Zn2	0.344120	0.999750	0.769620
C231	C23	0.604500	0.141300	0.122500
C241	C24	0.614200	0.177300	0.192100
C251	C25	0.161000	0.060500	0.497400
C261	C26	0.068760	0.367580	0.249330
C271	C27	0.126620	0.383620	0.273330
C281	C28	0.156520	0.363540	0.234830
H91	H9	0.140270	0.339230	0.193430
C291	C29	0.210470	0.379470	0.257730
C301	C30	0.243320	0.358210	0.216930
C311	C31	0.233970	0.414530	0.318730
H101	H10	0.270670	0.424830	0.334530
C321	C32	0.203870	0.434530	0.356430
C331	C33	0.149870	0.418930	0.333930
H111	H11	0.129070	0.432430	0.359930
C341	C34	0.202870	0.484330	0.464030
C351	C35	0.244170	0.516830	0.534030
C361	C36	0.252070	0.476030	0.571530
C371	C37	0.942060	0.397970	0.392630
C381	C38	0.930120	0.426200	0.455630
C391	C39	0.935410	0.478570	0.443530
H121	H12	0.942670	0.494330	0.394930
C401	C40	0.929980	0.507270	0.503230
C411	C41	0.939850	0.564880	0.492830
C421	C42	0.918250	0.483850	0.574530
H131	H13	0.916370	0.504430	0.615730
C431	C43	0.909350	0.430240	0.584730
C441	C44	0.916800	0.402010	0.525930
H141	H14	0.912770	0.366230	0.533730
C451	C45	0.883070	0.427130	0.713830
H151	H15	0.858170	0.441430	0.698330
H161	H16	0.917970	0.458630	0.734030
C461	C46	0.854370	0.381430	0.773030
C471	C47	0.795570	0.347330	0.754130
O111	O11	0.045310	0.390540	0.282390
O121	O12	0.046460	0.331660	0.197890
O131	O13	0.220920	0.328180	0.160380
O141	O14	0.291420	0.372540	0.241530
O151	O15	0.226970	0.468830	0.416030
O161	O16	0.937420	0.350960	0.404320
O171	O17	0.956070	0.423260	0.331560
O181	O18	0.935730	0.579730	0.427000
O191	O19	0.951480	0.595900	0.548990
O201	O20	0.895140	0.402110	0.651440
Zn31	Zn3	0.975880	0.386820	0.253150
Zn41	Zn4	0.010790	0.333080	0.102950
C481	C48	0.271170	0.474630	0.455830
C491	C49	0.280870	0.510630	0.525430
C501	C50	0.827670	0.393830	0.830730
C511	C51	0.735420	0.700920	0.582670
C521	C52	0.793280	0.716960	0.606670
C531	C53	0.823180	0.696880	0.568170
H171	H17	0.806930	0.672570	0.526770
C541	C54	0.877130	0.712810	0.591070
C551	C55	0.909980	0.691550	0.550270
C561	C56	0.900630	0.747870	0.652070
H181	H18	0.937330	0.758170	0.667870
C571	C57	0.870530	0.767870	0.689770
C581	C58	0.816530	0.752270	0.667270
H191	H19	0.795730	0.765770	0.693270
C591	C59	0.869530	0.817670	0.797370
C601	C60	0.910830	0.850170	0.867370
C611	C61	0.918730	0.809370	0.904870
C621	C62	0.608720	0.731310	0.725970
C631	C63	0.596780	0.759540	0.788970
C641	C64	0.602070	0.811910	0.776870
H201	H20	0.609330	0.827670	0.728270
C651	C65	0.596640	0.840610	0.836570
C661	C66	0.606510	0.898220	0.826170
C671	C67	0.584910	0.817190	0.907870
H211	H21	0.583030	0.837770	0.949070
C681	C68	0.576010	0.763580	0.918070
C691	C69	0.583460	0.735350	0.859270
H221	H22	0.579430	0.699570	0.867070
C701	C70	0.549730	0.760470	0.047170
H231	H23	0.524830	0.774770	0.031670
H241	H24	0.584630	0.791970	0.067370
C711	C71	0.521030	0.714770	0.106370
C721	C72	0.462230	0.680670	0.087470
O211	O21	0.711970	0.723880	0.615730
O221	O22	0.713120	0.665000	0.531230
O231	O23	0.887580	0.661520	0.493720
O241	O24	0.958080	0.705880	0.574870
O251	O25	0.893630	0.802170	0.749370
O261	O26	0.604080	0.684300	0.737660
O271	O27	0.622730	0.756600	0.664900
O281	O28	0.602390	0.913070	0.760340
O291	O29	0.618140	0.929240	0.882330
O301	O30	0.561800	0.735450	0.984780
Zn51	Zn5	0.642540	0.720160	0.586490
Zn61	Zn6	0.677450	0.666420	0.436290
C731	C73	0.937830	0.807970	0.789170
C741	C74	0.947530	0.843970	0.858770
C751	C75	0.494330	0.727170	0.164070
C761	C76	0.965750	0.367840	0.916000
C771	C77	0.949710	0.409660	0.940000
C781	C78	0.969790	0.459640	0.901500
H251	H25	0.994100	0.467700	0.860100
C791	C79	0.953860	0.497660	0.924400
C801	C80	0.975120	0.551770	0.883600
C811	C81	0.918800	0.486100	0.985400
H261	H26	0.908500	0.512500	0.001200
C821	C82	0.898800	0.436000	0.023100
C831	C83	0.914400	0.397600	0.000600
H271	H27	0.900900	0.363300	0.026600
C841	C84	0.849000	0.385200	0.130700
C851	C85	0.816500	0.394000	0.200700
C861	C86	0.857300	0.442700	0.238200
C871	C87	0.935360	0.210750	0.059300
C881	C88	0.907130	0.170580	0.122300
C891	C89	0.854760	0.123500	0.110200
H281	H28	0.839000	0.115000	0.061600
C901	C90	0.826060	0.089370	0.169900
C911	C91	0.768450	0.041630	0.159500
C921	C92	0.849480	0.101060	0.241200
H291	H29	0.828900	0.078600	0.282400
C931	C93	0.903090	0.145770	0.251400
C941	C94	0.931320	0.181450	0.192600
H301	H30	0.967100	0.213200	0.200400
C951	C95	0.906200	0.122600	0.380500
H311	H31	0.891900	0.083400	0.365000
H321	H32	0.874700	0.126000	0.400700
C961	C96	0.951900	0.139600	0.439700
C971	C97	0.986000	0.114900	0.420800
O311	O31	0.942790	0.321430	0.949060
O321	O32	0.001670	0.381460	0.864560
O331	O33	0.005150	0.559400	0.827050
O341	O34	0.960790	0.585540	0.908200
O351	O35	0.864500	0.424800	0.082700
O361	O36	0.982370	0.253120	0.070990
O371	O37	0.910070	0.199470	0.998230
O381	O38	0.753600	0.022660	0.093670
O391	O39	0.737430	0.022240	0.215660
O401	O40	0.931220	0.159690	0.318110
Zn71	Zn7	0.946510	0.255720	0.919820
Zn81	Zn8	0.000250	0.344370	0.769620
C981	C98	0.858700	0.463200	0.122500
C991	C99	0.822700	0.436900	0.192100
C1001	C100	0.939500	0.100500	0.497400
C1011	C101	0.632420	0.701170	0.249330
C1021	C102	0.616380	0.742990	0.273330
C1031	C103	0.636460	0.792970	0.234830
H331	H33	0.660770	0.801030	0.193430
C1041	C104	0.620530	0.830990	0.257730
C1051	C105	0.641790	0.885100	0.216930
C1061	C106	0.585470	0.819430	0.318730
H341	H34	0.575170	0.845830	0.334530
C1071	C107	0.565470	0.769330	0.356430
C1081	C108	0.581070	0.730930	0.333930
H351	H35	0.567570	0.696630	0.359930
C1091	C109	0.515670	0.718530	0.464030
C1101	C110	0.483170	0.727330	0.534030
C1111	C111	0.523970	0.776030	0.571530
C1121	C112	0.602030	0.544080	0.392630
C1131	C113	0.573800	0.503910	0.455630
C1141	C114	0.521430	0.456830	0.443530
H361	H36	0.505670	0.448330	0.394930
C1151	C115	0.492730	0.422700	0.503230
C1161	C116	0.435120	0.374960	0.492830
C1171	C117	0.516150	0.434390	0.574530
H371	H37	0.495570	0.411930	0.615730
C1181	C118	0.569760	0.479100	0.584730
C1191	C119	0.597990	0.514780	0.525930
H381	H38	0.633770	0.546530	0.533730
C1201	C120	0.572870	0.455930	0.713830
H391	H39	0.558570	0.416730	0.698330
H401	H40	0.541370	0.459330	0.734030
C1211	C121	0.618570	0.472930	0.773030
C1221	C122	0.652670	0.448230	0.754130
O411	O41	0.609460	0.654760	0.282390
O421	O42	0.668340	0.714790	0.197890
O431	O43	0.671820	0.892730	0.160380
O441	O44	0.627460	0.918870	0.241530
O451	O45	0.531170	0.758130	0.416030
O461	O46	0.649040	0.586450	0.404320
O471	O47	0.576740	0.532800	0.331560
O481	O48	0.420270	0.355990	0.427000
O491	O49	0.404100	0.355570	0.548990
O501	O50	0.597890	0.493020	0.651440
Zn91	Zn9	0.613180	0.589050	0.253150
Zn101	Zn10	0.666920	0.677700	0.102950
C1231	C123	0.525370	0.796530	0.455830
C1241	C124	0.489370	0.770230	0.525430
C1251	C125	0.606170	0.433830	0.830730
C1261	C126	0.299080	0.034510	0.582670
C1271	C127	0.283040	0.076330	0.606670
C1281	C128	0.303120	0.126310	0.568170
H411	H41	0.327430	0.134370	0.526770
C1291	C129	0.287190	0.164330	0.591070
C1301	C130	0.308450	0.218440	0.550270
C1311	C131	0.252130	0.152770	0.652070
H421	H42	0.241830	0.179170	0.667870
C1321	C132	0.232130	0.102670	0.689770
C1331	C133	0.247730	0.064270	0.667270
H431	H43	0.234230	0.029970	0.693270
C1341	C134	0.182330	0.051870	0.797370
C1351	C135	0.149830	0.060670	0.867370
C1361	C136	0.190630	0.109370	0.904870
C1371	C137	0.268690	0.877420	0.725970
C1381	C138	0.240460	0.837250	0.788970
C1391	C139	0.188090	0.790170	0.776870
H441	H44	0.172330	0.781670	0.728270
C1401	C140	0.159390	0.756040	0.836570
C1411	C141	0.101780	0.708300	0.826170
C1421	C142	0.182810	0.767730	0.907870
H451	H45	0.162230	0.745270	0.949070
C1431	C143	0.236420	0.812440	0.918070
C1441	C144	0.264650	0.848120	0.859270
H461	H46	0.300430	0.879870	0.867070
C1451	C145	0.239530	0.789270	0.047170
H471	H47	0.225230	0.750070	0.031670
H481	H48	0.208030	0.792670	0.067370
C1461	C146	0.285230	0.806270	0.106370
C1471	C147	0.319330	0.781570	0.087470
O511	O51	0.276120	0.988100	0.615730
O521	O52	0.335000	0.048130	0.531230
O531	O53	0.338480	0.226070	0.493720
O541	O54	0.294120	0.252210	0.574870
O551	O55	0.197830	0.091470	0.749370
O561	O56	0.315700	0.919790	0.737660
O571	O57	0.243400	0.866140	0.664900
O581	O58	0.086930	0.689330	0.760340
O591	O59	0.070760	0.688910	0.882330
O601	O60	0.264550	0.826360	0.984780
Zn111	Zn11	0.279840	0.922390	0.586490
Zn121	Zn12	0.333580	0.011040	0.436290
C1481	C148	0.192030	0.129870	0.789170
C1491	C149	0.156030	0.103570	0.858770
C1501	C150	0.272830	0.767170	0.164070
C1511	C151	0.632160	0.597910	0.916000
C1521	C152	0.590340	0.540050	0.940000
C1531	C153	0.540360	0.510150	0.901500
H491	H49	0.532300	0.526400	0.860100
C1541	C154	0.502340	0.456200	0.924400
C1551	C155	0.448230	0.423350	0.883600
C1561	C156	0.513900	0.432700	0.985400
H501	H50	0.487500	0.396000	0.001200
C1571	C157	0.564000	0.462800	0.023100
C1581	C158	0.602400	0.516800	0.000600
H511	H51	0.636700	0.537600	0.026600
C1591	C159	0.614800	0.463800	0.130700
C1601	C160	0.606000	0.422500	0.200700
C1611	C161	0.557300	0.414600	0.238200
C1621	C162	0.789250	0.724610	0.059300
C1631	C163	0.829420	0.736550	0.122300
C1641	C164	0.876500	0.731260	0.110200
H521	H52	0.885000	0.724000	0.061600
C1651	C165	0.910630	0.736690	0.169900
C1661	C166	0.958370	0.726820	0.159500
C1671	C167	0.898940	0.748420	0.241200
H531	H53	0.921400	0.750300	0.282400
C1681	C168	0.854230	0.757320	0.251400
C1691	C169	0.818550	0.749870	0.192600
H541	H54	0.786800	0.753900	0.200400
C1701	C170	0.877400	0.783600	0.380500
H551	H55	0.916600	0.808500	0.365000
H561	H56	0.874000	0.748700	0.400700
C1711	C171	0.860400	0.812300	0.439700
C1721	C172	0.885100	0.871100	0.420800
O611	O61	0.678570	0.621360	0.949060
O621	O62	0.618540	0.620210	0.864560
O631	O63	0.440600	0.445750	0.827050
O641	O64	0.414460	0.375250	0.908200
O651	O65	0.575200	0.439700	0.082700
O661	O66	0.746880	0.729250	0.070990
O671	O67	0.800530	0.710600	0.998230
O681	O68	0.977340	0.730940	0.093670
O691	O69	0.977760	0.715190	0.215660
O701	O70	0.840310	0.771530	0.318110
Zn131	Zn13	0.744280	0.690790	0.919820
Zn141	Zn14	0.655630	0.655880	0.769620
C1731	C173	0.536800	0.395500	0.122500
C1741	C174	0.563100	0.385800	0.192100
C1751	C175	0.899500	0.839000	0.497400
C1761	C176	0.298830	0.931240	0.249330
C1771	C177	0.257010	0.873380	0.273330
C1781	C178	0.207030	0.843480	0.234830
H571	H57	0.198970	0.859730	0.193430
C1791	C179	0.169010	0.789530	0.257730
C1801	C180	0.114900	0.756680	0.216930
C1811	C181	0.180570	0.766030	0.318730
H581	H58	0.154170	0.729330	0.334530
C1821	C182	0.230670	0.796130	0.356430
C1831	C183	0.269070	0.850130	0.333930
H591	H59	0.303370	0.870930	0.359930
C1841	C184	0.281470	0.797130	0.464030
C1851	C185	0.272670	0.755830	0.534030
C1861	C186	0.223970	0.747930	0.571530
C1871	C187	0.455920	0.057940	0.392630
C1881	C188	0.496090	0.069880	0.455630
C1891	C189	0.543170	0.064590	0.443530
H601	H60	0.551670	0.057330	0.394930
C1901	C190	0.577300	0.070020	0.503230
C1911	C191	0.625040	0.060150	0.492830
C1921	C192	0.565610	0.081750	0.574530
H611	H61	0.588070	0.083630	0.615730
C1931	C193	0.520900	0.090650	0.584730
C1941	C194	0.485220	0.083200	0.525930
H621	H62	0.453470	0.087230	0.533730
C1951	C195	0.544070	0.116930	0.713830
H631	H63	0.583270	0.141830	0.698330
H641	H64	0.540670	0.082030	0.734030
C1961	C196	0.527070	0.145630	0.773030
C1971	C197	0.551770	0.204430	0.754130
O711	O71	0.345240	0.954690	0.282390
O721	O72	0.285210	0.953540	0.197890
O731	O73	0.107270	0.779080	0.160380
O741	O74	0.081130	0.708580	0.241530
O751	O75	0.241870	0.773030	0.416030
O761	O76	0.413550	0.062580	0.404320
O771	O77	0.467200	0.043930	0.331560
O781	O78	0.644010	0.064270	0.427000
O791	O79	0.644430	0.048520	0.548990
O801	O80	0.506980	0.104860	0.651440
Zn151	Zn15	0.410950	0.024120	0.253150
Zn161	Zn16	0.322300	0.989210	0.102950
C1981	C198	0.203470	0.728830	0.455830
C1991	C199	0.229770	0.719130	0.525430
C2001	C200	0.566170	0.172330	0.830730
C2011	C201	0.965490	0.264580	0.582670
C2021	C202	0.923670	0.206720	0.606670
C2031	C203	0.873690	0.176820	0.568170
H651	H65	0.865630	0.193070	0.526770
C2041	C204	0.835670	0.122870	0.591070
C2051	C205	0.781560	0.090020	0.550270
C2061	C206	0.847230	0.099370	0.652070
H661	H66	0.820830	0.062670	0.667870
C2071	C207	0.897330	0.129470	0.689770
C2081	C208	0.935730	0.183470	0.667270
H671	H67	0.970030	0.204270	0.693270
C2091	C209	0.948130	0.130470	0.797370
C2101	C210	0.939330	0.089170	0.867370
C2111	C211	0.890630	0.081270	0.904870
C2121	C212	0.122580	0.391280	0.725970
C2131	C213	0.162750	0.403220	0.788970
C2141	C214	0.209830	0.397930	0.776870
H681	H68	0.218330	0.390670	0.728270
C2151	C215	0.243960	0.403360	0.836570
C2161	C216	0.291700	0.393490	0.826170
C2171	C217	0.232270	0.415090	0.907870
H691	H69	0.254730	0.416970	0.949070
C2181	C218	0.187560	0.423990	0.918070
C2191	C219	0.151880	0.416540	0.859270
H701	H70	0.120130	0.420570	0.867070
C2201	C220	0.210730	0.450270	0.047170
H711	H71	0.249930	0.475170	0.031670
H721	H72	0.207330	0.415370	0.067370
C2211	C221	0.193730	0.478970	0.106370
C2221	C222	0.218430	0.537770	0.087470
O811	O81	0.011900	0.288030	0.615730
O821	O82	0.951870	0.286880	0.531230
O831	O83	0.773930	0.112420	0.493720
O841	O84	0.747790	0.041920	0.574870
O851	O85	0.908530	0.106370	0.749370
O861	O86	0.080210	0.395920	0.737660
O871	O87	0.133860	0.377270	0.664900
O881	O88	0.310670	0.397610	0.760340
O891	O89	0.311090	0.381860	0.882330
O901	O90	0.173640	0.438200	0.984780
Zn171	Zn17	0.077610	0.357460	0.586490
Zn181	Zn18	0.988960	0.322550	0.436290
C2231	C223	0.870130	0.062170	0.789170
C2241	C224	0.896430	0.052470	0.858770
C2251	C225	0.232830	0.505670	0.164070
C2261	C226	0.597910	0.965750	0.084000
C2271	C227	0.540050	0.949710	0.060000
C2281	C228	0.510150	0.969790	0.098500
H731	H73	0.526400	0.994100	0.139900
C2291	C229	0.456200	0.953860	0.075600
C2301	C230	0.423350	0.975120	0.116400
C2311	C231	0.432700	0.918800	0.014600
H741	H74	0.396000	0.908500	0.998800
C2321	C232	0.462800	0.898800	0.976900
C2331	C233	0.516800	0.914400	0.999400
H751	H75	0.537600	0.900900	0.973400
C2341	C234	0.463800	0.849000	0.869300
C2351	C235	0.422500	0.816500	0.799300
C2361	C236	0.414600	0.857300	0.761800
C2371	C237	0.724610	0.935360	0.940700
C2381	C238	0.736550	0.907130	0.877700
C2391	C239	0.731260	0.854760	0.889800
H761	H76	0.724000	0.839000	0.938400
C2401	C240	0.736690	0.826060	0.830100
C2411	C241	0.726820	0.768450	0.840500
C2421	C242	0.748420	0.849480	0.758800
H771	H77	0.750300	0.828900	0.717600
C2431	C243	0.757320	0.903090	0.748600
C2441	C244	0.749870	0.931320	0.807400
H781	H78	0.753900	0.967100	0.799600
C2451	C245	0.783600	0.906200	0.619500
H791	H79	0.808500	0.891900	0.635000
H801	H80	0.748700	0.874700	0.599300
C2461	C246	0.812300	0.951900	0.560300
C2471	C247	0.871100	0.986000	0.579200
O911	O91	0.621360	0.942790	0.050940
O921	O92	0.620210	0.001670	0.135440
O931	O93	0.445750	0.005150	0.172950
O941	O94	0.375250	0.960790	0.091800
O951	O95	0.439700	0.864500	0.917300
O961	O96	0.729250	0.982370	0.929010
O971	O97	0.710600	0.910070	0.001770
O981	O98	0.730940	0.753600	0.906330
O991	O99	0.715190	0.737430	0.784340
O1001	O100	0.771530	0.931220	0.681890
Zn191	Zn19	0.690790	0.946510	0.080180
Zn201	Zn20	0.655880	0.000250	0.230380
C2481	C248	0.395500	0.858700	0.877500
C2491	C249	0.385800	0.822700	0.807900
C2501	C250	0.839000	0.939500	0.502600
C2511	C251	0.264580	0.299080	0.417330
C2521	C252	0.206720	0.283040	0.393330
C2531	C253	0.176820	0.303120	0.431830
H811	H81	0.193070	0.327430	0.473230
C2541	C254	0.122870	0.287190	0.408930
C2551	C255	0.090020	0.308450	0.449730
C2561	C256	0.099370	0.252130	0.347930
H821	H82	0.062670	0.241830	0.332130
C2571	C257	0.129470	0.232130	0.310230
C2581	C258	0.183470	0.247730	0.332730
H831	H83	0.204270	0.234230	0.306730
C2591	C259	0.130470	0.182330	0.202630
C2601	C260	0.089170	0.149830	0.132630
C2611	C261	0.081270	0.190630	0.095130
C2621	C262	0.391280	0.268690	0.274030
C2631	C263	0.403220	0.240460	0.211030
C2641	C264	0.397930	0.188090	0.223130
H841	H84	0.390670	0.172330	0.271730
C2651	C265	0.403360	0.159390	0.163430
C2661	C266	0.393490	0.101780	0.173830
C2671	C267	0.415090	0.182810	0.092130
H851	H85	0.416970	0.162230	0.050930
C2681	C268	0.423990	0.236420	0.081930
C2691	C269	0.416540	0.264650	0.140730
H861	H86	0.420570	0.300430	0.132930
C2701	C270	0.450270	0.239530	0.952830
H871	H87	0.475170	0.225230	0.968330
H881	H88	0.415370	0.208030	0.932630
C2711	C271	0.478970	0.285230	0.893630
C2721	C272	0.537770	0.319330	0.912530
O1011	O101	0.288030	0.276120	0.384270
O1021	O102	0.286880	0.335000	0.468770
O1031	O103	0.112420	0.338480	0.506280
O1041	O104	0.041920	0.294120	0.425130
O1051	O105	0.106370	0.197830	0.250630
O1061	O106	0.395920	0.315700	0.262340
O1071	O107	0.377270	0.243400	0.335100
O1081	O108	0.397610	0.086930	0.239660
O1091	O109	0.381860	0.070760	0.117670
O1101	O110	0.438200	0.264550	0.015220
Zn211	Zn21	0.357460	0.279840	0.413510
Zn221	Zn22	0.322550	0.333580	0.563710
C2731	C273	0.062170	0.192030	0.210830
C2741	C274	0.052470	0.156030	0.141230
C2751	C275	0.505670	0.272830	0.835930
C2761	C276	0.931240	0.632420	0.750670
C2771	C277	0.873380	0.616380	0.726670
C2781	C278	0.843480	0.636460	0.765170
H891	H89	0.859730	0.660770	0.806570
C2791	C279	0.789530	0.620530	0.742270
C2801	C280	0.756680	0.641790	0.783070
C2811	C281	0.766030	0.585470	0.681270
H901	H90	0.729330	0.575170	0.665470
C2821	C282	0.796130	0.565470	0.643570
C2831	C283	0.850130	0.581070	0.666070
H911	H91	0.870930	0.567570	0.640070
C2841	C284	0.797130	0.515670	0.535970
C2851	C285	0.755830	0.483170	0.465970
C2861	C286	0.747930	0.523970	0.428470
C2871	C287	0.057940	0.602030	0.607370
C2881	C288	0.069880	0.573800	0.544370
C2891	C289	0.064590	0.521430	0.556470
H921	H92	0.057330	0.505670	0.605070
C2901	C290	0.070020	0.492730	0.496770
C2911	C291	0.060150	0.435120	0.507170
C2921	C292	0.081750	0.516150	0.425470
H931	H93	0.083630	0.495570	0.384270
C2931	C293	0.090650	0.569760	0.415270
C2941	C294	0.083200	0.597990	0.474070
H941	H94	0.087230	0.633770	0.466270
C2951	C295	0.116930	0.572870	0.286170
H951	H95	0.141830	0.558570	0.301670
H961	H96	0.082030	0.541370	0.265970
C2961	C296	0.145630	0.618570	0.226970
C2971	C297	0.204430	0.652670	0.245870
O1111	O111	0.954690	0.609460	0.717610
O1121	O112	0.953540	0.668340	0.802110
O1131	O113	0.779080	0.671820	0.839620
O1141	O114	0.708580	0.627460	0.758470
O1151	O115	0.773030	0.531170	0.583970
O1161	O116	0.062580	0.649040	0.595680
O1171	O117	0.043930	0.576740	0.668440
O1181	O118	0.064270	0.420270	0.573000
O1191	O119	0.048520	0.404100	0.451010
O1201	O120	0.104860	0.597890	0.348560
Zn231	Zn23	0.024120	0.613180	0.746850
Zn241	Zn24	0.989210	0.666920	0.897050
C2981	C298	0.728830	0.525370	0.544170
C2991	C299	0.719130	0.489370	0.474570
C3001	C300	0.172330	0.606170	0.169270
C3011	C301	0.034250	0.632160	0.084000
C3021	C302	0.050290	0.590340	0.060000
C3031	C303	0.030210	0.540360	0.098500
H971	H97	0.005900	0.532300	0.139900
C3041	C304	0.046140	0.502340	0.075600
C3051	C305	0.024880	0.448230	0.116400
C3061	C306	0.081200	0.513900	0.014600
H981	H98	0.091500	0.487500	0.998800
C3071	C307	0.101200	0.564000	0.976900
C3081	C308	0.085600	0.602400	0.999400
H991	H99	0.099100	0.636700	0.973400
C3091	C309	0.151000	0.614800	0.869300
C3101	C310	0.183500	0.606000	0.799300
C3111	C311	0.142700	0.557300	0.761800
C3121	C312	0.064640	0.789250	0.940700
C3131	C313	0.092870	0.829420	0.877700
C3141	C314	0.145240	0.876500	0.889800
H1001	H100	0.161000	0.885000	0.938400
C3151	C315	0.173940	0.910630	0.830100
C3161	C316	0.231550	0.958370	0.840500
C3171	C317	0.150520	0.898940	0.758800
H1011	H101	0.171100	0.921400	0.717600
C3181	C318	0.096910	0.854230	0.748600
C3191	C319	0.068680	0.818550	0.807400
H1021	H102	0.032900	0.786800	0.799600
C3201	C320	0.093800	0.877400	0.619500
H1031	H103	0.108100	0.916600	0.635000
H1041	H104	0.125300	0.874000	0.599300
C3211	C321	0.048100	0.860400	0.560300
C3221	C322	0.014000	0.885100	0.579200
O1211	O121	0.057210	0.678570	0.050940
O1221	O122	0.998330	0.618540	0.135440
O1231	O123	0.994850	0.440600	0.172950
O1241	O124	0.039210	0.414460	0.091800
O1251	O125	0.135500	0.575200	0.917300
O1261	O126	0.017630	0.746880	0.929010
O1271	O127	0.089930	0.800530	0.001770
O1281	O128	0.246400	0.977340	0.906330
O1291	O129	0.262570	0.977760	0.784340
O1301	O130	0.068780	0.840310	0.681890
Zn251	Zn25	0.053490	0.744280	0.080180
Zn261	Zn26	0.999750	0.655630	0.230380
C3231	C323	0.141300	0.536800	0.877500
C3241	C324	0.177300	0.563100	0.807900
C3251	C325	0.060500	0.899500	0.502600
C3261	C326	0.700920	0.965490	0.417330
C3271	C327	0.716960	0.923670	0.393330
C3281	C328	0.696880	0.873690	0.431830
H1051	H105	0.672570	0.865630	0.473230
C3291	C329	0.712810	0.835670	0.408930
C3301	C330	0.691550	0.781560	0.449730
C3311	C331	0.747870	0.847230	0.347930
H1061	H106	0.758170	0.820830	0.332130
C3321	C332	0.767870	0.897330	0.310230
C3331	C333	0.752270	0.935730	0.332730
H1071	H107	0.765770	0.970030	0.306730
C3341	C334	0.817670	0.948130	0.202630
C3351	C335	0.850170	0.939330	0.132630
C3361	C336	0.809370	0.890630	0.095130
C3371	C337	0.731310	0.122580	0.274030
C3381	C338	0.759540	0.162750	0.211030
C3391	C339	0.811910	0.209830	0.223130
H1081	H108	0.827670	0.218330	0.271730
C3401	C340	0.840610	0.243960	0.163430
C3411	C341	0.898220	0.291700	0.173830
C3421	C342	0.817190	0.232270	0.092130
H1091	H109	0.837770	0.254730	0.050930
C3431	C343	0.763580	0.187560	0.081930
C3441	C344	0.735350	0.151880	0.140730
H1101	H110	0.699570	0.120130	0.132930
C3451	C345	0.760470	0.210730	0.952830
H1111	H111	0.774770	0.249930	0.968330
H1121	H112	0.791970	0.207330	0.932630
C3461	C346	0.714770	0.193730	0.893630
C3471	C347	0.680670	0.218430	0.912530
O1311	O131	0.723880	0.011900	0.384270
O1321	O132	0.665000	0.951870	0.468770
O1331	O133	0.661520	0.773930	0.506280
O1341	O134	0.705880	0.747790	0.425130
O1351	O135	0.802170	0.908530	0.250630
O1361	O136	0.684300	0.080210	0.262340
O1371	O137	0.756600	0.133860	0.335100
O1381	O138	0.913070	0.310670	0.239660
O1391	O139	0.929240	0.311090	0.117670
O1401	O140	0.735450	0.173640	0.015220
Zn271	Zn27	0.720160	0.077610	0.413510
Zn281	Zn28	0.666420	0.988960	0.563710
C3481	C348	0.807970	0.870130	0.210830
C3491	C349	0.843970	0.896430	0.141230
C3501	C350	0.727170	0.232830	0.835930
C3511	C351	0.367580	0.298830	0.750670
C3521	C352	0.383620	0.257010	0.726670
C3531	C353	0.363540	0.207030	0.765170
H1131	H113	0.339230	0.198970	0.806570
C3541	C354	0.379470	0.169010	0.742270
C3551	C355	0.358210	0.114900	0.783070
C3561	C356	0.414530	0.180570	0.681270
H1141	H114	0.424830	0.154170	0.665470
C3571	C357	0.434530	0.230670	0.643570
C3581	C358	0.418930	0.269070	0.666070
H1151	H115	0.432430	0.303370	0.640070
C3591	C359	0.484330	0.281470	0.535970
C3601	C360	0.516830	0.272670	0.465970
C3611	C361	0.476030	0.223970	0.428470
C3621	C362	0.397970	0.455920	0.607370
C3631	C363	0.426200	0.496090	0.544370
C3641	C364	0.478570	0.543170	0.556470
H1161	H116	0.494330	0.551670	0.605070
C3651	C365	0.507270	0.577300	0.496770
C3661	C366	0.564880	0.625040	0.507170
C3671	C367	0.483850	0.565610	0.425470
H1171	H117	0.504430	0.588070	0.384270
C3681	C368	0.430240	0.520900	0.415270
C3691	C369	0.402010	0.485220	0.474070
H1181	H118	0.366230	0.453470	0.466270
C3701	C370	0.427130	0.544070	0.286170
H1191	H119	0.441430	0.583270	0.301670
H1201	H120	0.458630	0.540670	0.265970
C3711	C371	0.381430	0.527070	0.226970
C3721	C372	0.347330	0.551770	0.245870
O1411	O141	0.390540	0.345240	0.717610
O1421	O142	0.331660	0.285210	0.802110
O1431	O143	0.328180	0.107270	0.839620
O1441	O144	0.372540	0.081130	0.758470
O1451	O145	0.468830	0.241870	0.583970
O1461	O146	0.350960	0.413550	0.595680
O1471	O147	0.423260	0.467200	0.668440
O1481	O148	0.579730	0.644010	0.573000
O1491	O149	0.595900	0.644430	0.451010
O1501	O150	0.402110	0.506980	0.348560
Zn291	Zn29	0.386820	0.410950	0.746850
Zn301	Zn30	0.333080	0.322300	0.897050
C3731	C373	0.474630	0.203470	0.544170
C3741	C374	0.510630	0.229770	0.474570
C3751	C375	0.393830	0.566170	0.169270
C3761	C376	0.367840	0.402090	0.084000
C3771	C377	0.409660	0.459950	0.060000
C3781	C378	0.459640	0.489850	0.098500
H1211	H121	0.467700	0.473600	0.139900
C3791	C379	0.497660	0.543800	0.075600
C3801	C380	0.551770	0.576650	0.116400
C3811	C381	0.486100	0.567300	0.014600
H1221	H122	0.512500	0.604000	0.998800
C3821	C382	0.436000	0.537200	0.976900
C3831	C383	0.397600	0.483200	0.999400
H1231	H123	0.363300	0.462400	0.973400
C3841	C384	0.385200	0.536200	0.869300
C3851	C385	0.394000	0.577500	0.799300
C3861	C386	0.442700	0.585400	0.761800
C3871	C387	0.210750	0.275390	0.940700
C3881	C388	0.170580	0.263450	0.877700
C3891	C389	0.123500	0.268740	0.889800
H1241	H124	0.115000	0.276000	0.938400
C3901	C390	0.089370	0.263310	0.830100
C3911	C391	0.041630	0.273180	0.840500
C3921	C392	0.101060	0.251580	0.758800
H1251	H125	0.078600	0.249700	0.717600
C3931	C393	0.145770	0.242680	0.748600
C3941	C394	0.181450	0.250130	0.807400
H1261	H126	0.213200	0.246100	0.799600
C3951	C395	0.122600	0.216400	0.619500
H1271	H127	0.083400	0.191500	0.635000
H1281	H128	0.126000	0.251300	0.599300
C3961	C396	0.139600	0.187700	0.560300
C3971	C397	0.114900	0.128900	0.579200
O1511	O151	0.321430	0.378640	0.050940
O1521	O152	0.381460	0.379790	0.135440
O1531	O153	0.559400	0.554250	0.172950
O1541	O154	0.585540	0.624750	0.091800
O1551	O155	0.424800	0.560300	0.917300
O1561	O156	0.253120	0.270750	0.929010
O1571	O157	0.199470	0.289400	0.001770
O1581	O158	0.022660	0.269060	0.906330
O1591	O159	0.022240	0.284810	0.784340
O1601	O160	0.159690	0.228470	0.681890
Zn311	Zn31	0.255720	0.309210	0.080180
Zn321	Zn32	0.344370	0.344120	0.230380
C3981	C398	0.463200	0.604500	0.877500
C3991	C399	0.436900	0.614200	0.807900
C4001	C400	0.100500	0.161000	0.502600
C4011	C401	0.034510	0.735420	0.417330
C4021	C402	0.076330	0.793280	0.393330
C4031	C403	0.126310	0.823180	0.431830
H1291	H129	0.134370	0.806930	0.473230
C4041	C404	0.164330	0.877130	0.408930
C4051	C405	0.218440	0.909980	0.449730
C4061	C406	0.152770	0.900630	0.347930
H1301	H130	0.179170	0.937330	0.332130
C4071	C407	0.102670	0.870530	0.310230
C4081	C408	0.064270	0.816530	0.332730
H1311	H131	0.029970	0.795730	0.306730
C4091	C409	0.051870	0.869530	0.202630
C4101	C410	0.060670	0.910830	0.132630
C4111	C411	0.109370	0.918730	0.095130
C4121	C412	0.877420	0.608720	0.274030
C4131	C413	0.837250	0.596780	0.211030
C4141	C414	0.790170	0.602070	0.223130
H1321	H132	0.781670	0.609330	0.271730
C4151	C415	0.756040	0.596640	0.163430
C4161	C416	0.708300	0.606510	0.173830
C4171	C417	0.767730	0.584910	0.092130
H1331	H133	0.745270	0.583030	0.050930
C4181	C418	0.812440	0.576010	0.081930
C4191	C419	0.848120	0.583460	0.140730
H1341	H134	0.879870	0.579430	0.132930
C4201	C420	0.789270	0.549730	0.952830
H1351	H135	0.750070	0.524830	0.968330
H1361	H136	0.792670	0.584630	0.932630
C4211	C421	0.806270	0.521030	0.893630
C4221	C422	0.781570	0.462230	0.912530
O1611	O161	0.988100	0.711970	0.384270
O1621	O162	0.048130	0.713120	0.468770
O1631	O163	0.226070	0.887580	0.506280
O1641	O164	0.252210	0.958080	0.425130
O1651	O165	0.091470	0.893630	0.250630
O1661	O166	0.919790	0.604080	0.262340
O1671	O167	0.866140	0.622730	0.335100
O1681	O168	0.689330	0.602390	0.239660
O1691	O169	0.688910	0.618140	0.117670
O1701	O170	0.826360	0.561800	0.015220
Zn331	Zn33	0.922390	0.642540	0.413510
Zn341	Zn34	0.011040	0.677450	0.563710
C4231	C423	0.129870	0.937830	0.210830
C4241	C424	0.103570	0.947530	0.141230
C4251	C425	0.767170	0.494330	0.835930
C4261	C426	0.701170	0.068760	0.750670
C4271	C427	0.742990	0.126620	0.726670
C4281	C428	0.792970	0.156520	0.765170
H1371	H137	0.801030	0.140270	0.806570
C4291	C429	0.830990	0.210470	0.742270
C4301	C430	0.885100	0.243320	0.783070
C4311	C431	0.819430	0.233970	0.681270
H1381	H138	0.845830	0.270670	0.665470
C4321	C432	0.769330	0.203870	0.643570
C4331	C433	0.730930	0.149870	0.666070
H1391	H139	0.696630	0.129070	0.640070
C4341	C434	0.718530	0.202870	0.535970
C4351	C435	0.727330	0.244170	0.465970
C4361	C436	0.776030	0.252070	0.428470
C4371	C437	0.544080	0.942060	0.607370
C4381	C438	0.503910	0.930120	0.544370
C4391	C439	0.456830	0.935410	0.556470
H1401	H140	0.448330	0.942670	0.605070
C4401	C440	0.422700	0.929980	0.496770
C4411	C441	0.374960	0.939850	0.507170
C4421	C442	0.434390	0.918250	0.425470
H1411	H141	0.411930	0.916370	0.384270
C4431	C443	0.479100	0.909350	0.415270
C4441	C444	0.514780	0.916800	0.474070
H1421	H142	0.546530	0.912770	0.466270
C4451	C445	0.455930	0.883070	0.286170
H1431	H143	0.416730	0.858170	0.301670
H1441	H144	0.459330	0.917970	0.265970
C4461	C446	0.472930	0.854370	0.226970
C4471	C447	0.448230	0.795570	0.245870
O1711	O171	0.654760	0.045310	0.717610
O1721	O172	0.714790	0.046460	0.802110
O1731	O173	0.892730	0.220920	0.839620
O1741	O174	0.918870	0.291420	0.758470
O1751	O175	0.758130	0.226970	0.583970
O1761	O176	0.586450	0.937420	0.595680
O1771	O177	0.532800	0.956070	0.668440
O1781	O178	0.355990	0.935730	0.573000
O1791	O179	0.355570	0.951480	0.451010
O1801	O180	0.493020	0.895140	0.348560
Zn351	Zn35	0.589050	0.975880	0.746850
Zn361	Zn36	0.677700	0.010790	0.897050
C4481	C448	0.796530	0.271170	0.544170
C4491	C449	0.770230	0.280870	0.474570
C4501	C450	0.433830	0.827670	0.169270
