data_UWOWAF_clean_PM
_symmetry_space_group_name_H-M	'P1'
_cell_length_a	12.017800
_cell_length_b	12.017800
_cell_length_c	19.425000
_cell_angle_alpha	77.418600
_cell_angle_beta	77.418600
_cell_angle_gamma	77.689400
_symmetry_Int_Tables_number 1

loop_
_symmetry_equiv_pos_as_xyz
'x,y,z'

loop_
_atom_site_label
_atom_site_type_symbol
_atom_site_fract_x
_atom_site_fract_y
_atom_site_fract_z
Mn11	Mn1	0.675700	0.018040	0.322190
Mn21	Mn2	0.981960	0.324300	0.177810
Mn31	Mn3	0.324300	0.981960	0.677810
Mn41	Mn4	0.018040	0.675700	0.822190
Mn51	Mn5	0.500000	0.000000	0.500000
Mn61	Mn6	0.000000	0.500000	0.000000
H11	H1	0.789500	0.342300	0.405500
H21	H2	0.697900	0.514300	0.457500
H31	H3	0.298500	0.766300	0.437500
H41	H4	0.204000	0.672600	0.373000
H51	H5	0.751700	0.714900	0.589500
H61	H6	0.893100	0.535700	0.609200
H71	H7	0.657700	0.210500	0.094500
H81	H8	0.485700	0.302100	0.042500
H91	H9	0.233700	0.701500	0.062500
H101	H10	0.327400	0.796000	0.127000
H111	H11	0.285100	0.248300	0.910500
H121	H12	0.464300	0.106900	0.890800
H131	H13	0.210500	0.657700	0.594500
H141	H14	0.302100	0.485700	0.542500
H151	H15	0.701500	0.233700	0.562500
H161	H16	0.796000	0.327400	0.627000
H171	H17	0.248300	0.285100	0.410500
H181	H18	0.106900	0.464300	0.390800
H191	H19	0.342300	0.789500	0.905500
H201	H20	0.514300	0.697900	0.957500
H211	H21	0.766300	0.298500	0.937500
H221	H22	0.672600	0.204000	0.873000
H231	H23	0.714900	0.751700	0.089500
H241	H24	0.535700	0.893100	0.109200
C11	C1	0.659400	0.179000	0.395700
C21	C2	0.633300	0.288100	0.426700
C31	C3	0.711000	0.358200	0.424800
C41	C4	0.658400	0.457000	0.455200
C51	C5	0.540600	0.459200	0.481500
C61	C6	0.462200	0.904200	0.365800
C71	C7	0.385400	0.841200	0.344900
C81	C8	0.311800	0.775600	0.387800
C91	C9	0.256100	0.722100	0.350400
C101	C10	0.286500	0.750300	0.278400
C111	C11	0.739300	0.837900	0.449500
C121	C12	0.811700	0.729500	0.481200
C131	C13	0.803900	0.683100	0.553000
C141	C14	0.886900	0.579100	0.563800
C151	C15	0.955400	0.548600	0.504000
C161	C16	0.821000	0.340600	0.104300
C171	C17	0.711900	0.366700	0.073300
C181	C18	0.641800	0.289000	0.075200
C191	C19	0.543000	0.341600	0.044800
C201	C20	0.540800	0.459400	0.018500
C211	C21	0.095800	0.537800	0.134200
C221	C22	0.158800	0.614600	0.155100
C231	C23	0.224400	0.688200	0.112200
C241	C24	0.277900	0.743900	0.149600
C251	C25	0.249700	0.713500	0.221600
C261	C26	0.162100	0.260700	0.050500
C271	C27	0.270500	0.188300	0.018800
C281	C28	0.316900	0.196100	0.947000
C291	C29	0.420900	0.113100	0.936200
C301	C30	0.451400	0.044600	0.996000
C311	C31	0.340600	0.821000	0.604300
C321	C32	0.366700	0.711900	0.573300
C331	C33	0.289000	0.641800	0.575200
C341	C34	0.341600	0.543000	0.544800
C351	C35	0.459400	0.540800	0.518500
C361	C36	0.537800	0.095800	0.634200
C371	C37	0.614600	0.158800	0.655100
C381	C38	0.688200	0.224400	0.612200
C391	C39	0.743900	0.277900	0.649600
C401	C40	0.713500	0.249700	0.721600
C411	C41	0.260700	0.162100	0.550500
C421	C42	0.188300	0.270500	0.518800
C431	C43	0.196100	0.316900	0.447000
C441	C44	0.113100	0.420900	0.436200
C451	C45	0.044600	0.451400	0.496000
C461	C46	0.179000	0.659400	0.895700
C471	C47	0.288100	0.633300	0.926700
C481	C48	0.358200	0.711000	0.924800
C491	C49	0.457000	0.658400	0.955200
C501	C50	0.459200	0.540600	0.981500
C511	C51	0.904200	0.462200	0.865800
C521	C52	0.841200	0.385400	0.844900
C531	C53	0.775600	0.311800	0.887800
C541	C54	0.722100	0.256100	0.850400
C551	C55	0.750300	0.286500	0.778400
C561	C56	0.837900	0.739300	0.949500
C571	C57	0.729500	0.811700	0.981200
C581	C58	0.683100	0.803900	0.053000
C591	C59	0.579100	0.886900	0.063800
C601	C60	0.548600	0.955400	0.004000
S11	S1	0.498090	0.339530	0.465820
S21	S2	0.387930	0.838950	0.257490
S31	S3	0.917400	0.648860	0.429960
S41	S4	0.660470	0.501910	0.034180
S51	S5	0.161050	0.612070	0.242510
S61	S6	0.351140	0.082600	0.070040
S71	S7	0.501910	0.660470	0.534180
S81	S8	0.612070	0.161050	0.742510
S91	S9	0.082600	0.351140	0.570040
S101	S10	0.339530	0.498090	0.965820
S111	S11	0.838950	0.387930	0.757490
S121	S12	0.648860	0.917400	0.929960
O11	O1	0.577200	0.122800	0.408200
O21	O2	0.753200	0.151000	0.358000
O31	O3	0.539200	0.939600	0.317400
O41	O4	0.443800	0.919400	0.428700
O51	O5	0.761100	0.867500	0.384300
O61	O6	0.662000	0.886000	0.493900
O71	O7	0.877200	0.422800	0.091800
O81	O8	0.849000	0.246800	0.142000
O91	O9	0.060400	0.460800	0.182600
O101	O10	0.080600	0.556200	0.071300
O111	O11	0.132500	0.238900	0.115700
O121	O12	0.114000	0.338000	0.006100
O131	O13	0.422800	0.877200	0.591800
O141	O14	0.246800	0.849000	0.642000
O151	O15	0.460800	0.060400	0.682600
O161	O16	0.556200	0.080600	0.571300
O171	O17	0.238900	0.132500	0.615700
O181	O18	0.338000	0.114000	0.506100
O191	O19	0.122800	0.577200	0.908200
O201	O20	0.151000	0.753200	0.858000
O211	O21	0.939600	0.539200	0.817400
O221	O22	0.919400	0.443800	0.928700
O231	O23	0.867500	0.761100	0.884300
O241	O24	0.886000	0.662000	0.993900
