data_UWUKII_clean_PM
_symmetry_space_group_name_H-M	'P1'
_cell_length_a	20.893500
_cell_length_b	16.033200
_cell_length_c	28.169400
_cell_angle_alpha	90.000000
_cell_angle_beta	90.000000
_cell_angle_gamma	90.000000
_symmetry_Int_Tables_number 1

loop_
_symmetry_equiv_pos_as_xyz
'x,y,z'

loop_
_atom_site_label
_atom_site_type_symbol
_atom_site_fract_x
_atom_site_fract_y
_atom_site_fract_z
Co11	Co1	0.843150	0.248810	0.835130
N11	N1	0.796300	0.360000	0.817300
N21	N2	0.883900	0.248300	0.763700
O11	O1	0.897500	0.143100	0.847400
O21	O2	0.763700	0.185500	0.810900
O31	O3	0.810200	0.247300	0.905000
C11	C1	0.733900	0.384500	0.819100
N31	N3	0.827500	0.433400	0.811100
C21	C2	0.728900	0.469800	0.814600
H11	H1	0.868400	0.438100	0.809000
C31	C3	0.787500	0.496400	0.808700
C41	C4	0.671500	0.526300	0.822700
H21	H2	0.799100	0.551700	0.803700
N41	N4	0.616200	0.484800	0.828200
O41	O4	0.677600	0.600400	0.825500
C51	C5	0.555500	0.521200	0.836300
C61	C6	0.504900	0.461400	0.845600
C71	C7	0.543700	0.604600	0.841400
H31	H3	0.512600	0.404400	0.843500
C81	C8	0.444200	0.491300	0.857800
C91	C9	0.483700	0.631900	0.856500
H41	H4	0.575700	0.643200	0.834700
C101	C10	0.433300	0.572700	0.864000
C111	C11	0.390500	0.427600	0.866900
C121	C12	0.472000	0.723100	0.860500
H51	H5	0.393000	0.591000	0.873300
O51	O5	0.346700	0.448100	0.893600
O61	O6	0.425000	0.752400	0.883000
O71	O7	0.511400	0.772300	0.841400
Co21	Co2	0.276770	0.378020	0.924940
Co31	Co3	0.458320	0.878240	0.864090
Co41	Co4	0.391530	0.750590	0.954220
O81	O8	0.510300	0.971400	0.832800
O91	O9	0.387800	0.949900	0.895500
O101	O10	0.517600	0.889900	0.921600
C131	C13	0.502800	0.013500	0.796400
O111	O11	0.454200	0.017200	0.773200
C141	C14	0.559700	0.060400	0.778700
C151	C15	0.560400	0.095300	0.733900
C161	C16	0.611200	0.076200	0.810700
H61	H6	0.525200	0.088700	0.714100
C171	C17	0.612600	0.139600	0.718200
C181	C18	0.663800	0.121600	0.796100
H71	H7	0.609300	0.055800	0.841600
N51	N5	0.613900	0.170400	0.670900
C191	C19	0.666700	0.152100	0.748800
C201	C20	0.721400	0.141500	0.827600
O121	O12	0.715200	0.112600	0.868300
O131	O13	0.721000	0.033200	0.956500
O141	O14	0.727200	0.229300	0.950600
C211	C21	0.638900	0.242400	0.656100
H81	H8	0.703000	0.179700	0.737800
C221	C22	0.763500	0.277600	0.930300
O151	O15	0.658000	0.296400	0.686800
C231	C23	0.640800	0.261200	0.607800
C241	C24	0.753600	0.367900	0.934400
C251	C25	0.621100	0.217600	0.565300
C261	C26	0.674600	0.331200	0.589800
C271	C27	0.804600	0.422800	0.926100
C281	C28	0.695600	0.397400	0.949600
N61	N6	0.643400	0.253200	0.524200
H91	H9	0.595800	0.169900	0.565800
N71	N7	0.674100	0.324800	0.543100
H101	H10	0.693400	0.373500	0.607600
H111	H11	0.844900	0.403000	0.917800
C291	C29	0.792600	0.509500	0.930900
C301	C30	0.685000	0.482900	0.950900
H121	H12	0.663600	0.360500	0.958900
H131	H13	0.691500	0.361800	0.525100
C311	C31	0.732400	0.538400	0.946200
C321	C32	0.844500	0.573700	0.921100
N81	N8	0.623300	0.518100	0.965800
H141	H14	0.725700	0.594600	0.952800
O161	O16	0.837200	0.646200	0.940000
C331	C33	0.566500	0.478700	0.972500
O171	O17	0.562500	0.399100	0.972400
C341	C34	0.510300	0.530300	0.973600
C351	C35	0.448700	0.494700	0.972900
C361	C36	0.499600	0.618300	0.970600
N91	N9	0.408500	0.562300	0.972200
H151	H15	0.437800	0.438500	0.972900
N101	N10	0.439800	0.637900	0.968500
H161	H16	0.532500	0.657400	0.970300
H171	H17	0.367500	0.558000	0.974000
O181	O18	0.469800	0.813500	0.978800
C371	C37	0.517900	0.860700	0.962500
C381	C38	0.567800	0.880500	0.998600
C391	C39	0.620800	0.928000	0.980800
C401	C40	0.564400	0.852600	0.042200
H181	H18	0.621300	0.948900	0.950000
C411	C41	0.669700	0.940800	0.010900
C421	C42	0.610500	0.868300	0.076300
H191	H19	0.529100	0.820600	0.050800
C431	C43	0.668000	0.915400	0.056800
C441	C44	0.728400	0.990800	0.993800
N111	N11	0.611900	0.843700	0.121600
H201	H20	0.702500	0.926800	0.076600
O191	O19	0.780600	0.982000	0.016400
C451	C45	0.567100	0.795100	0.144100
O201	O20	0.524200	0.760700	0.121300
C461	C46	0.578600	0.768200	0.190700
C471	C47	0.535200	0.718900	0.217200
C481	C48	0.625100	0.785500	0.226300
N121	N12	0.562200	0.709000	0.257500
H211	H21	0.495700	0.698300	0.207500
H221	H22	0.659200	0.821900	0.221700
H231	H23	0.545700	0.678200	0.279300
Co51	Co5	0.156850	0.751190	0.335130
N131	N13	0.203700	0.640000	0.317300
N141	N14	0.116100	0.751700	0.263700
O211	O21	0.102500	0.856900	0.347400
O221	O22	0.236300	0.814500	0.310900
O231	O23	0.189800	0.752700	0.405000
C491	C49	0.266100	0.615500	0.319100
N151	N15	0.172500	0.566600	0.311100
C501	C50	0.271100	0.530200	0.314600
H241	H24	0.131600	0.561900	0.309000
C511	C51	0.212500	0.503600	0.308700
C521	C52	0.328500	0.473700	0.322700
H251	H25	0.200900	0.448300	0.303700
N161	N16	0.383800	0.515200	0.328200
O241	O24	0.322400	0.399600	0.325500
C531	C53	0.444500	0.478800	0.336300
C541	C54	0.495100	0.538600	0.345600
C551	C55	0.456300	0.395400	0.341400
H261	H26	0.487400	0.595600	0.343500
C561	C56	0.555800	0.508700	0.357800
C571	C57	0.516300	0.368100	0.356500
H271	H27	0.424300	0.356800	0.334700
C581	C58	0.566700	0.427300	0.364000
C591	C59	0.609500	0.572400	0.366900
C601	C60	0.528000	0.276900	0.360500
H281	H28	0.607000	0.409000	0.373300
O251	O25	0.653300	0.551900	0.393600
O261	O26	0.575000	0.247600	0.383000
O271	O27	0.488600	0.227700	0.341400
Co61	Co6	0.723230	0.621980	0.424940
Co71	Co7	0.541680	0.121760	0.364090
Co81	Co8	0.608470	0.249410	0.454220
O281	O28	0.489700	0.028600	0.332800
O291	O29	0.612200	0.050100	0.395500
O301	O30	0.482400	0.110100	0.421600
C611	C61	0.497200	0.986500	0.296400
O311	O31	0.545800	0.982800	0.273200
C621	C62	0.440300	0.939600	0.278700
C631	C63	0.439600	0.904700	0.233900
C641	C64	0.388800	0.923800	0.310700
H291	H29	0.474800	0.911300	0.214100
C651	C65	0.387400	0.860400	0.218200
C661	C66	0.336200	0.878400	0.296100
H301	H30	0.390700	0.944200	0.341600
N171	N17	0.386100	0.829600	0.170900
C671	C67	0.333300	0.847900	0.248800
C681	C68	0.278600	0.858500	0.327600
O321	O32	0.284800	0.887400	0.368300
O331	O33	0.279000	0.966800	0.456500
O341	O34	0.272800	0.770700	0.450600
C691	C69	0.361100	0.757600	0.156100
H311	H31	0.297000	0.820300	0.237800
C701	C70	0.236500	0.722400	0.430300
O351	O35	0.342000	0.703600	0.186800
C711	C71	0.359200	0.738800	0.107800
C721	C72	0.246400	0.632100	0.434400
C731	C73	0.378900	0.782400	0.065300
C741	C74	0.325400	0.668800	0.089800
C751	C75	0.195400	0.577200	0.426100
C761	C76	0.304400	0.602600	0.449600
N181	N18	0.356600	0.746800	0.024200
H321	H32	0.404200	0.830100	0.065800
N191	N19	0.325900	0.675200	0.043100
H331	H33	0.306600	0.626500	0.107600
H341	H34	0.155100	0.597000	0.417800
C771	C77	0.207400	0.490500	0.430900
C781	C78	0.315000	0.517100	0.450900
H351	H35	0.336400	0.639500	0.458900
H361	H36	0.308500	0.638200	0.025100
C791	C79	0.267600	0.461600	0.446200
C801	C80	0.155500	0.426300	0.421100
N201	N20	0.376700	0.481900	0.465800
H371	H37	0.274300	0.405400	0.452800
O361	O36	0.162800	0.353800	0.440000
C811	C81	0.433500	0.521300	0.472500
O371	O37	0.437500	0.600900	0.472400
C821	C82	0.489700	0.469700	0.473600
C831	C83	0.551300	0.505300	0.472900
C841	C84	0.500400	0.381700	0.470600
N211	N21	0.591500	0.437700	0.472200
H381	H38	0.562200	0.561500	0.472900
N221	N22	0.560200	0.362100	0.468500
H391	H39	0.467500	0.342600	0.470300
H401	H40	0.632500	0.442000	0.474000
O381	O38	0.530200	0.186500	0.478800
C851	C85	0.482100	0.139300	0.462500
C861	C86	0.432200	0.119500	0.498600
C871	C87	0.379200	0.072000	0.480800
C881	C88	0.435600	0.147400	0.542200
H411	H41	0.378700	0.051100	0.450000
C891	C89	0.330300	0.059200	0.510900
C901	C90	0.389500	0.131700	0.576300
H421	H42	0.470900	0.179400	0.550800
C911	C91	0.332000	0.084600	0.556800
C921	C92	0.271600	0.009200	0.493800
N231	N23	0.388100	0.156300	0.621600
H431	H43	0.297500	0.073200	0.576600
O391	O39	0.219400	0.018000	0.516400
C931	C93	0.432900	0.204900	0.644100
O401	O40	0.475800	0.239300	0.621300
C941	C94	0.421400	0.231800	0.690700
C951	C95	0.464800	0.281100	0.717200
C961	C96	0.374900	0.214500	0.726300
N241	N24	0.437800	0.291000	0.757500
H441	H44	0.504300	0.301700	0.707500
H451	H45	0.340800	0.178100	0.721700
H461	H46	0.454300	0.321800	0.779300
Co91	Co9	0.343150	0.251190	0.835130
N251	N25	0.296300	0.140000	0.817300
N261	N26	0.383900	0.251700	0.763700
O411	O41	0.397500	0.356900	0.847400
O421	O42	0.263700	0.314500	0.810900
O431	O43	0.310200	0.252700	0.905000
C971	C97	0.233900	0.115500	0.819100
N271	N27	0.327500	0.066600	0.811100
C981	C98	0.228900	0.030200	0.814600
H471	H47	0.368400	0.061900	0.809000
C991	C99	0.287500	0.003600	0.808700
C1001	C100	0.171500	0.973700	0.822700
H481	H48	0.299100	0.948300	0.803700
N281	N28	0.116200	0.015200	0.828200
O441	O44	0.177600	0.899600	0.825500
C1011	C101	0.055500	0.978800	0.836300
C1021	C102	0.004900	0.038600	0.845600
C1031	C103	0.043700	0.895400	0.841400
H491	H49	0.012600	0.095600	0.843500
C1041	C104	0.944200	0.008700	0.857800
C1051	C105	0.983700	0.868100	0.856500
H501	H50	0.075700	0.856800	0.834700
C1061	C106	0.933300	0.927300	0.864000
C1071	C107	0.890500	0.072400	0.866900
C1081	C108	0.972000	0.776900	0.860500
H511	H51	0.893000	0.909000	0.873300
O451	O45	0.846700	0.051900	0.893600
O461	O46	0.925000	0.747600	0.883000
O471	O47	0.011400	0.727700	0.841400
Co101	Co10	0.776770	0.121980	0.924940
Co111	Co11	0.958320	0.621760	0.864090
Co121	Co12	0.891530	0.749410	0.954220
O481	O48	0.010300	0.528600	0.832800
O491	O49	0.887800	0.550100	0.895500
O501	O50	0.017600	0.610100	0.921600
C1091	C109	0.002800	0.486500	0.796400
O511	O51	0.954200	0.482800	0.773200
C1101	C110	0.059700	0.439600	0.778700
C1111	C111	0.060400	0.404700	0.733900
C1121	C112	0.111200	0.423800	0.810700
H521	H52	0.025200	0.411300	0.714100
C1131	C113	0.112600	0.360400	0.718200
C1141	C114	0.163800	0.378400	0.796100
H531	H53	0.109300	0.444200	0.841600
N291	N29	0.113900	0.329600	0.670900
C1151	C115	0.166700	0.347900	0.748800
C1161	C116	0.221400	0.358500	0.827600
O521	O52	0.215200	0.387400	0.868300
O531	O53	0.221000	0.466800	0.956500
O541	O54	0.227200	0.270700	0.950600
C1171	C117	0.138900	0.257600	0.656100
H541	H54	0.203000	0.320300	0.737800
C1181	C118	0.263500	0.222400	0.930300
O551	O55	0.158000	0.203600	0.686800
C1191	C119	0.140800	0.238800	0.607800
C1201	C120	0.253600	0.132100	0.934400
C1211	C121	0.121100	0.282400	0.565300
C1221	C122	0.174600	0.168800	0.589800
C1231	C123	0.304600	0.077200	0.926100
C1241	C124	0.195600	0.102600	0.949600
N301	N30	0.143400	0.246800	0.524200
H551	H55	0.095800	0.330100	0.565800
N311	N31	0.174100	0.175200	0.543100
H561	H56	0.193400	0.126500	0.607600
H571	H57	0.344900	0.097000	0.917800
C1251	C125	0.292600	0.990500	0.930900
C1261	C126	0.185000	0.017100	0.950900
H581	H58	0.163600	0.139500	0.958900
H591	H59	0.191500	0.138200	0.525100
C1271	C127	0.232400	0.961600	0.946200
C1281	C128	0.344500	0.926300	0.921100
N321	N32	0.123300	0.981900	0.965800
H601	H60	0.225700	0.905400	0.952800
O561	O56	0.337200	0.853800	0.940000
C1291	C129	0.066500	0.021300	0.972500
O571	O57	0.062500	0.100900	0.972400
C1301	C130	0.010300	0.969700	0.973600
C1311	C131	0.948700	0.005300	0.972900
C1321	C132	0.999600	0.881700	0.970600
N331	N33	0.908500	0.937700	0.972200
H611	H61	0.937800	0.061500	0.972900
N341	N34	0.939800	0.862100	0.968500
H621	H62	0.032500	0.842600	0.970300
H631	H63	0.867500	0.942000	0.974000
O581	O58	0.969800	0.686500	0.978800
C1331	C133	0.017900	0.639300	0.962500
C1341	C134	0.067800	0.619500	0.998600
C1351	C135	0.120800	0.572000	0.980800
C1361	C136	0.064400	0.647400	0.042200
H641	H64	0.121300	0.551100	0.950000
C1371	C137	0.169700	0.559200	0.010900
C1381	C138	0.110500	0.631700	0.076300
H651	H65	0.029100	0.679400	0.050800
C1391	C139	0.168000	0.584600	0.056800
C1401	C140	0.228400	0.509200	0.993800
N351	N35	0.111900	0.656300	0.121600
H661	H66	0.202500	0.573200	0.076600
O591	O59	0.280600	0.518000	0.016400
C1411	C141	0.067100	0.704900	0.144100
O601	O60	0.024200	0.739300	0.121300
C1421	C142	0.078600	0.731800	0.190700
C1431	C143	0.035200	0.781100	0.217200
C1441	C144	0.125100	0.714500	0.226300
N361	N36	0.062200	0.791000	0.257500
H671	H67	0.995700	0.801700	0.207500
H681	H68	0.159200	0.678100	0.221700
H691	H69	0.045700	0.821800	0.279300
Co131	Co13	0.656850	0.748810	0.335130
N371	N37	0.703700	0.860000	0.317300
N381	N38	0.616100	0.748300	0.263700
O611	O61	0.602500	0.643100	0.347400
O621	O62	0.736300	0.685500	0.310900
O631	O63	0.689800	0.747300	0.405000
C1451	C145	0.766100	0.884500	0.319100
N391	N39	0.672500	0.933400	0.311100
C1461	C146	0.771100	0.969800	0.314600
H701	H70	0.631600	0.938100	0.309000
C1471	C147	0.712500	0.996400	0.308700
C1481	C148	0.828500	0.026300	0.322700
H711	H71	0.700900	0.051700	0.303700
N401	N40	0.883800	0.984800	0.328200
O641	O64	0.822400	0.100400	0.325500
C1491	C149	0.944500	0.021200	0.336300
C1501	C150	0.995100	0.961400	0.345600
C1511	C151	0.956300	0.104600	0.341400
H721	H72	0.987400	0.904400	0.343500
C1521	C152	0.055800	0.991300	0.357800
C1531	C153	0.016300	0.131900	0.356500
H731	H73	0.924300	0.143200	0.334700
C1541	C154	0.066700	0.072700	0.364000
C1551	C155	0.109500	0.927600	0.366900
C1561	C156	0.028000	0.223100	0.360500
H741	H74	0.107000	0.091000	0.373300
O651	O65	0.153300	0.948100	0.393600
O661	O66	0.075000	0.252400	0.383000
O671	O67	0.988600	0.272300	0.341400
Co141	Co14	0.223230	0.878020	0.424940
Co151	Co15	0.041680	0.378240	0.364090
Co161	Co16	0.108470	0.250590	0.454220
O681	O68	0.989700	0.471400	0.332800
O691	O69	0.112200	0.449900	0.395500
O701	O70	0.982400	0.389900	0.421600
C1571	C157	0.997200	0.513500	0.296400
O711	O71	0.045800	0.517200	0.273200
C1581	C158	0.940300	0.560400	0.278700
C1591	C159	0.939600	0.595300	0.233900
C1601	C160	0.888800	0.576200	0.310700
H751	H75	0.974800	0.588700	0.214100
C1611	C161	0.887400	0.639600	0.218200
C1621	C162	0.836200	0.621600	0.296100
H761	H76	0.890700	0.555800	0.341600
N411	N41	0.886100	0.670400	0.170900
C1631	C163	0.833300	0.652100	0.248800
C1641	C164	0.778600	0.641500	0.327600
O721	O72	0.784800	0.612600	0.368300
O731	O73	0.779000	0.533200	0.456500
O741	O74	0.772800	0.729300	0.450600
C1651	C165	0.861100	0.742400	0.156100
H771	H77	0.797000	0.679700	0.237800
C1661	C166	0.736500	0.777600	0.430300
O751	O75	0.842000	0.796400	0.186800
C1671	C167	0.859200	0.761200	0.107800
C1681	C168	0.746400	0.867900	0.434400
C1691	C169	0.878900	0.717600	0.065300
C1701	C170	0.825400	0.831200	0.089800
C1711	C171	0.695400	0.922800	0.426100
C1721	C172	0.804400	0.897400	0.449600
N421	N42	0.856600	0.753200	0.024200
H781	H78	0.904200	0.669900	0.065800
N431	N43	0.825900	0.824800	0.043100
H791	H79	0.806600	0.873500	0.107600
H801	H80	0.655100	0.903000	0.417800
C1731	C173	0.707400	0.009500	0.430900
C1741	C174	0.815000	0.982900	0.450900
H811	H81	0.836400	0.860500	0.458900
H821	H82	0.808500	0.861800	0.025100
C1751	C175	0.767600	0.038400	0.446200
C1761	C176	0.655500	0.073700	0.421100
N441	N44	0.876700	0.018100	0.465800
H831	H83	0.774300	0.094600	0.452800
O761	O76	0.662800	0.146200	0.440000
C1771	C177	0.933500	0.978700	0.472500
O771	O77	0.937500	0.899100	0.472400
C1781	C178	0.989700	0.030300	0.473600
C1791	C179	0.051300	0.994700	0.472900
C1801	C180	0.000400	0.118300	0.470600
N451	N45	0.091500	0.062300	0.472200
H841	H84	0.062200	0.938500	0.472900
N461	N46	0.060200	0.137900	0.468500
H851	H85	0.967500	0.157400	0.470300
H861	H86	0.132500	0.058000	0.474000
O781	O78	0.030200	0.313500	0.478800
C1811	C181	0.982100	0.360700	0.462500
C1821	C182	0.932200	0.380500	0.498600
C1831	C183	0.879200	0.428000	0.480800
C1841	C184	0.935600	0.352600	0.542200
H871	H87	0.878700	0.448900	0.450000
C1851	C185	0.830300	0.440800	0.510900
C1861	C186	0.889500	0.368300	0.576300
H881	H88	0.970900	0.320600	0.550800
C1871	C187	0.832000	0.415400	0.556800
C1881	C188	0.771600	0.490800	0.493800
N471	N47	0.888100	0.343700	0.621600
H891	H89	0.797500	0.426800	0.576600
O791	O79	0.719400	0.482000	0.516400
C1891	C189	0.932900	0.295100	0.644100
O801	O80	0.975800	0.260700	0.621300
C1901	C190	0.921400	0.268200	0.690700
C1911	C191	0.964800	0.218900	0.717200
C1921	C192	0.874900	0.285500	0.726300
N481	N48	0.937800	0.209000	0.757500
H901	H90	0.004300	0.198300	0.707500
H911	H91	0.840800	0.321900	0.721700
H921	H92	0.954300	0.178200	0.779300
