data_UXABOL_clean_PM
_symmetry_space_group_name_H-M	'P1'
_cell_length_a	6.767000
_cell_length_b	11.231000
_cell_length_c	19.742500
_cell_angle_alpha	106.525000
_cell_angle_beta	90.920300
_cell_angle_gamma	90.000000
_symmetry_Int_Tables_number 1

loop_
_symmetry_equiv_pos_as_xyz
'x,y,z'

loop_
_atom_site_label
_atom_site_type_symbol
_atom_site_fract_x
_atom_site_fract_y
_atom_site_fract_z
Er11	Er1	0.809840	0.920250	0.259040
Er21	Er2	0.690160	0.661210	0.740960
Er31	Er3	0.190160	0.079750	0.740960
Er41	Er4	0.309840	0.338790	0.259040
H11	H1	0.471600	0.833200	0.035800
H21	H2	0.594900	0.075000	0.062400
H31	H3	0.485100	0.248300	0.432800
H41	H4	0.629000	0.013100	0.426200
H51	H5	0.619600	0.227600	0.546200
H61	H6	0.827900	0.011000	0.530000
H71	H7	0.028400	0.797400	0.964200
H81	H8	0.905100	0.012600	0.937600
H91	H9	0.014900	0.815500	0.567200
H101	H10	0.871000	0.586900	0.573800
H111	H11	0.880400	0.681400	0.453800
H121	H12	0.672100	0.481000	0.470000
H131	H13	0.528400	0.166800	0.964200
H141	H14	0.405100	0.925000	0.937600
H151	H15	0.514900	0.751700	0.567200
H161	H16	0.371000	0.986900	0.573800
H171	H17	0.380400	0.772400	0.453800
H181	H18	0.172100	0.989000	0.470000
H191	H19	0.971600	0.202600	0.035800
H201	H20	0.094900	0.987400	0.062400
H211	H21	0.985100	0.184500	0.432800
H221	H22	0.129000	0.413100	0.426200
H231	H23	0.119600	0.318600	0.546200
H241	H24	0.327900	0.519000	0.530000
C11	C1	0.627600	0.910920	0.130240
C21	C2	0.534900	0.905980	0.061360
C31	C3	0.538800	0.001210	0.034820
C41	C4	0.462300	0.111980	0.335160
C51	C5	0.514600	0.165600	0.410600
C61	C6	0.604700	0.096650	0.448100
C71	C7	0.664700	0.149220	0.521840
C81	C8	0.781700	0.088820	0.555240
C91	C9	0.842800	0.138620	0.630640
C101	C10	0.872400	0.780680	0.869760
C111	C11	0.965100	0.844620	0.938640
C121	C12	0.961200	0.966390	0.965180
C131	C13	0.037700	0.776820	0.664840
C141	C14	0.985400	0.755000	0.589400
C151	C15	0.895300	0.648550	0.551900
C161	C16	0.835300	0.627380	0.478160
C171	C17	0.718300	0.533580	0.444760
C181	C18	0.657200	0.507980	0.369360
C191	C19	0.372400	0.089080	0.869760
C201	C20	0.465100	0.094020	0.938640
C211	C21	0.461200	0.998790	0.965180
C221	C22	0.537700	0.888020	0.664840
C231	C23	0.485400	0.834400	0.589400
C241	C24	0.395300	0.903350	0.551900
C251	C25	0.335300	0.850780	0.478160
C261	C26	0.218300	0.911180	0.444760
C271	C27	0.157200	0.861380	0.369360
C281	C28	0.127600	0.219320	0.130240
C291	C29	0.034900	0.155380	0.061360
C301	C30	0.038800	0.033610	0.034820
C311	C31	0.962300	0.223180	0.335160
C321	C32	0.014600	0.245000	0.410600
C331	C33	0.104700	0.351450	0.448100
C341	C34	0.164700	0.372620	0.521840
C351	C35	0.281700	0.466420	0.555240
C361	C36	0.342800	0.492020	0.630640
O11	O1	0.722700	0.005880	0.164760
O21	O2	0.613600	0.820250	0.155300
O31	O3	0.511000	0.002500	0.302200
O41	O4	0.370200	0.181600	0.307000
O51	O5	0.990800	0.084280	0.648760
O61	O6	0.757200	0.229620	0.669840
O71	O7	0.777300	0.841120	0.835240
O81	O8	0.886400	0.664950	0.844700
O91	O9	0.989000	0.700300	0.697800
O101	O10	0.129800	0.874600	0.693000
O111	O11	0.509200	0.435520	0.351240
O121	O12	0.742800	0.559780	0.330160
O131	O13	0.277300	0.994120	0.835240
O141	O14	0.386400	0.179750	0.844700
O151	O15	0.489000	0.997500	0.697800
O161	O16	0.629800	0.818400	0.693000
O171	O17	0.009200	0.915720	0.351240
O181	O18	0.242800	0.770380	0.330160
O191	O19	0.222700	0.158880	0.164760
O201	O20	0.113600	0.335050	0.155300
O211	O21	0.011000	0.299700	0.302200
O221	O22	0.870200	0.125400	0.307000
O231	O23	0.490800	0.564480	0.648760
O241	O24	0.257200	0.440220	0.669840
