data_UXEDUX_clean_PM
_symmetry_space_group_name_H-M	'P1'
_cell_length_a	6.697300
_cell_length_b	8.249700
_cell_length_c	20.382200
_cell_angle_alpha	90.000000
_cell_angle_beta	90.000000
_cell_angle_gamma	90.000000
_symmetry_Int_Tables_number 1

loop_
_symmetry_equiv_pos_as_xyz
'x,y,z'

loop_
_atom_site_label
_atom_site_type_symbol
_atom_site_fract_x
_atom_site_fract_y
_atom_site_fract_z
Er11	Er1	0.498610	0.434020	0.619150
O11	O1	0.520800	0.562600	0.723400
O21	O2	0.485700	0.720500	0.810960
O31	O3	0.336200	0.231600	0.558950
O41	O4	0.189600	0.107800	0.474900
O51	O5	0.169200	0.463500	0.652900
O61	O6	0.840700	0.447400	0.651200
O71	O7	0.541100	0.710800	0.595200
O81	O8	0.323500	0.600900	0.529000
C11	C1	0.431800	0.657200	0.758600
H11	H1	0.305100	0.686400	0.744200
C21	C2	0.253500	0.226600	0.505400
H21	H2	0.236200	0.326100	0.484700
C31	C3	0.003800	0.468900	0.624600
H31	H3	0.003900	0.491100	0.579900
C41	C4	0.420200	0.719700	0.547600
H41	H4	0.403900	0.818200	0.526100
Er21	Er2	0.001390	0.565980	0.119150
O91	O9	0.979200	0.437400	0.223400
O101	O10	0.014300	0.279500	0.310960
O111	O11	0.163800	0.768400	0.058950
O121	O12	0.310400	0.892200	0.974900
O131	O13	0.330800	0.536500	0.152900
O141	O14	0.659300	0.552600	0.151200
O151	O15	0.958900	0.289200	0.095200
O161	O16	0.176500	0.399100	0.029000
C51	C5	0.068200	0.342800	0.258600
H51	H5	0.194900	0.313600	0.244200
C61	C6	0.246500	0.773400	0.005400
H61	H6	0.263800	0.673900	0.984700
C71	C7	0.496200	0.531100	0.124600
H71	H7	0.496100	0.508900	0.079900
C81	C8	0.079800	0.280300	0.047600
H81	H8	0.096100	0.181800	0.026100
Er31	Er3	0.501390	0.934020	0.880850
O171	O17	0.479200	0.062600	0.776600
O181	O18	0.514300	0.220500	0.689040
O191	O19	0.663800	0.731600	0.941050
O201	O20	0.810400	0.607800	0.025100
O211	O21	0.830800	0.963500	0.847100
O221	O22	0.159300	0.947400	0.848800
O231	O23	0.458900	0.210800	0.904800
O241	O24	0.676500	0.100900	0.971000
C91	C9	0.568200	0.157200	0.741400
H91	H9	0.694900	0.186400	0.755800
C101	C10	0.746500	0.726600	0.994600
H101	H10	0.763800	0.826100	0.015300
C111	C11	0.996200	0.968900	0.875400
H111	H11	0.996100	0.991100	0.920100
C121	C12	0.579800	0.219700	0.952400
H121	H12	0.596100	0.318200	0.973900
Er41	Er4	0.998610	0.065980	0.380850
O251	O25	0.020800	0.937400	0.276600
O261	O26	0.985700	0.779500	0.189040
O271	O27	0.836200	0.268400	0.441050
O281	O28	0.689600	0.392200	0.525100
O291	O29	0.669200	0.036500	0.347100
O301	O30	0.340700	0.052600	0.348800
O311	O31	0.041100	0.789200	0.404800
O321	O32	0.823500	0.899100	0.471000
C131	C13	0.931800	0.842800	0.241400
H131	H13	0.805100	0.813600	0.255800
C141	C14	0.753500	0.273400	0.494600
H141	H14	0.736200	0.173900	0.515300
C151	C15	0.503800	0.031100	0.375400
H151	H15	0.503900	0.008900	0.420100
C161	C16	0.920200	0.780300	0.452400
H161	H16	0.903900	0.681800	0.473900
