data_UXEDEH_clean_PM
_symmetry_space_group_name_H-M	'P1'
_cell_length_a	6.611800
_cell_length_b	7.566200
_cell_length_c	9.275600
_cell_angle_alpha	90.000000
_cell_angle_beta	99.826700
_cell_angle_gamma	90.000000
_symmetry_Int_Tables_number 1

loop_
_symmetry_equiv_pos_as_xyz
'x,y,z'

loop_
_atom_site_label
_atom_site_type_symbol
_atom_site_fract_x
_atom_site_fract_y
_atom_site_fract_z
Er11	Er1	0.161540	0.271350	0.292990
O11	O1	0.387600	0.349800	0.520200
O21	O2	0.624700	0.521900	0.653600
O31	O3	0.473500	0.337900	0.224200
O41	O4	0.808600	0.363100	0.238000
O51	O5	0.115000	0.369700	0.042700
O61	O6	0.001900	0.533300	0.847100
O71	O7	0.134600	0.573300	0.334300
O81	O8	0.982500	0.633100	0.525100
C11	C1	0.528300	0.466100	0.536300
H11	H1	0.562300	0.514200	0.451300
C21	C2	0.651700	0.276800	0.242200
H21	H2	0.667200	0.156200	0.260200
C31	C3	0.012600	0.492200	0.979200
H31	H3	0.936600	0.560000	0.034300
C41	C4	0.070000	0.675400	0.421600
H41	H4	0.089200	0.795600	0.407900
Er21	Er2	0.838460	0.771350	0.707010
O91	O9	0.612400	0.849800	0.479800
O101	O10	0.375300	0.021900	0.346400
O111	O11	0.526500	0.837900	0.775800
O121	O12	0.191400	0.863100	0.762000
O131	O13	0.885000	0.869700	0.957300
O141	O14	0.998100	0.033300	0.152900
O151	O15	0.865400	0.073300	0.665700
O161	O16	0.017500	0.133100	0.474900
C51	C5	0.471700	0.966100	0.463700
H51	H5	0.437700	0.014200	0.548700
C61	C6	0.348300	0.776800	0.757800
H61	H6	0.332800	0.656200	0.739800
C71	C7	0.987400	0.992200	0.020800
H71	H7	0.063400	0.060000	0.965700
C81	C8	0.930000	0.175400	0.578400
H81	H8	0.910800	0.295600	0.592100
