data_UXEDIL03_clean_PM
_symmetry_space_group_name_H-M	'P1'
_cell_length_a	6.651400
_cell_length_b	18.347000
_cell_length_c	8.431100
_cell_angle_alpha	90.000000
_cell_angle_beta	90.000000
_cell_angle_gamma	90.000000
_symmetry_Int_Tables_number 1

loop_
_symmetry_equiv_pos_as_xyz
'x,y,z'

loop_
_atom_site_label
_atom_site_type_symbol
_atom_site_fract_x
_atom_site_fract_y
_atom_site_fract_z
O11	O1	0.987300	0.050100	0.430400
O21	O2	0.664700	0.095100	0.228600
O31	O3	0.319400	0.257900	0.847200
C11	C1	0.237000	0.244000	0.974900
H11	H1	0.219700	0.282600	0.045100
O41	O4	0.175100	0.183600	0.018200
O51	O5	0.487300	0.550100	0.430400
O61	O6	0.164700	0.595100	0.228600
O71	O7	0.819400	0.757900	0.847200
C21	C2	0.737000	0.744000	0.974900
H21	H2	0.719700	0.782600	0.045100
O81	O8	0.675100	0.683600	0.018200
O91	O9	0.012700	0.949900	0.930400
O101	O10	0.335300	0.904900	0.728600
O111	O11	0.680600	0.742100	0.347200
C31	C3	0.763000	0.756000	0.474900
H31	H3	0.780300	0.717400	0.545100
O121	O12	0.824900	0.816400	0.518200
O131	O13	0.512700	0.449900	0.930400
O141	O14	0.835300	0.404900	0.728600
O151	O15	0.180600	0.242100	0.347200
C41	C4	0.263000	0.256000	0.474900
H41	H4	0.280300	0.217400	0.545100
O161	O16	0.324900	0.316400	0.518200
O171	O17	0.012700	0.050100	0.069600
O181	O18	0.335300	0.095100	0.271400
O191	O19	0.680600	0.257900	0.652800
C51	C5	0.763000	0.244000	0.525100
H51	H5	0.780300	0.282600	0.454900
O201	O20	0.824900	0.183600	0.481800
O211	O21	0.512700	0.550100	0.069600
O221	O22	0.835300	0.595100	0.271400
O231	O23	0.180600	0.757900	0.652800
C61	C6	0.263000	0.744000	0.525100
H61	H6	0.280300	0.782600	0.454900
O241	O24	0.324900	0.683600	0.481800
O251	O25	0.987300	0.949900	0.569600
O261	O26	0.664700	0.904900	0.771400
O271	O27	0.319400	0.742100	0.152800
C71	C7	0.237000	0.756000	0.025100
H71	H7	0.219700	0.717400	0.954900
O281	O28	0.175100	0.816400	0.981800
O291	O29	0.487300	0.449900	0.569600
O301	O30	0.164700	0.404900	0.771400
O311	O31	0.819400	0.242100	0.152800
C81	C8	0.737000	0.256000	0.025100
H81	H8	0.719700	0.217400	0.954900
O321	O32	0.675100	0.316400	0.981800
Er11	Er1	0.000000	0.142720	0.250000
Er21	Er2	0.500000	0.642720	0.250000
Er31	Er3	0.000000	0.857280	0.750000
Er41	Er4	0.500000	0.357280	0.750000
C91	C9	0.075900	0.000000	0.500000
H91	H9	0.215700	0.000000	0.500000
C101	C10	0.575900	0.500000	0.500000
H101	H10	0.715700	0.500000	0.500000
C111	C11	0.924100	0.000000	0.000000
H111	H11	0.784300	0.000000	0.000000
C121	C12	0.424100	0.500000	0.000000
H121	H12	0.284300	0.500000	0.000000
C131	C13	0.500000	0.126300	0.250000
H131	H13	0.500000	0.177000	0.250000
C141	C14	0.000000	0.626300	0.250000
H141	H14	0.000000	0.677000	0.250000
C151	C15	0.500000	0.873700	0.750000
H151	H15	0.500000	0.823000	0.750000
C161	C16	0.000000	0.373700	0.750000
H161	H16	0.000000	0.323000	0.750000
