data_UXEDOR_clean_PM
_symmetry_space_group_name_H-M	'P1'
_cell_length_a	6.645600
_cell_length_b	8.089800
_cell_length_c	20.154900
_cell_angle_alpha	90.000000
_cell_angle_beta	90.000000
_cell_angle_gamma	90.000000
_symmetry_Int_Tables_number 1

loop_
_symmetry_equiv_pos_as_xyz
'x,y,z'

loop_
_atom_site_label
_atom_site_type_symbol
_atom_site_fract_x
_atom_site_fract_y
_atom_site_fract_z
Er11	Er1	0.492950	0.444710	0.619540
O11	O1	0.509100	0.586100	0.718600
O21	O2	0.499900	0.721300	0.813470
O31	O3	0.315800	0.232600	0.563100
O41	O4	0.166800	0.098000	0.480000
O51	O5	0.160000	0.457700	0.659600
O61	O6	0.827500	0.434400	0.655300
O71	O7	0.595800	0.722100	0.591000
O81	O8	0.324200	0.626900	0.543100
C11	C1	0.421000	0.666000	0.761300
H11	H1	0.285000	0.687400	0.754600
C21	C2	0.252900	0.225100	0.505800
H21	H2	0.268600	0.318100	0.479200
C31	C3	0.996500	0.468800	0.630800
H31	H3	0.998600	0.505900	0.587100
C41	C4	0.446400	0.737300	0.552800
H41	H4	0.428300	0.837500	0.531000
Er21	Er2	0.007050	0.555290	0.119540
O91	O9	0.990900	0.413900	0.218600
O101	O10	0.000100	0.278700	0.313470
O111	O11	0.184200	0.767400	0.063100
O121	O12	0.333200	0.902000	0.980000
O131	O13	0.340000	0.542300	0.159600
O141	O14	0.672500	0.565600	0.155300
O151	O15	0.904200	0.277900	0.091000
O161	O16	0.175800	0.373100	0.043100
C51	C5	0.079000	0.334000	0.261300
H51	H5	0.215000	0.312600	0.254600
C61	C6	0.247100	0.774900	0.005800
H61	H6	0.231400	0.681900	0.979200
C71	C7	0.503500	0.531200	0.130800
H71	H7	0.501400	0.494100	0.087100
C81	C8	0.053600	0.262700	0.052800
H81	H8	0.071700	0.162500	0.031000
Er31	Er3	0.507050	0.944710	0.880460
O171	O17	0.490900	0.086100	0.781400
O181	O18	0.500100	0.221300	0.686530
O191	O19	0.684200	0.732600	0.936900
O201	O20	0.833200	0.598000	0.020000
O211	O21	0.840000	0.957700	0.840400
O221	O22	0.172500	0.934400	0.844700
O231	O23	0.404200	0.222100	0.909000
O241	O24	0.675800	0.126900	0.956900
C91	C9	0.579000	0.166000	0.738700
H91	H9	0.715000	0.187400	0.745400
C101	C10	0.747100	0.725100	0.994200
H101	H10	0.731400	0.818100	0.020800
C111	C11	0.003500	0.968800	0.869200
H111	H11	0.001400	0.005900	0.912900
C121	C12	0.553600	0.237300	0.947200
H121	H12	0.571700	0.337500	0.969000
Er41	Er4	0.992950	0.055290	0.380460
O251	O25	0.009100	0.913900	0.281400
O261	O26	0.999900	0.778700	0.186530
O271	O27	0.815800	0.267400	0.436900
O281	O28	0.666800	0.402000	0.520000
O291	O29	0.660000	0.042300	0.340400
O301	O30	0.327500	0.065600	0.344700
O311	O31	0.095800	0.777900	0.409000
O321	O32	0.824200	0.873100	0.456900
C131	C13	0.921000	0.834000	0.238700
H131	H13	0.785000	0.812600	0.245400
C141	C14	0.752900	0.274900	0.494200
H141	H14	0.768600	0.181900	0.520800
C151	C15	0.496500	0.031200	0.369200
H151	H15	0.498600	0.994100	0.412900
C161	C16	0.946400	0.762700	0.447200
H161	H16	0.928300	0.662500	0.469000
