data_UXEFEJ_clean_PM
_symmetry_space_group_name_H-M	'P1'
_cell_length_a	6.624300
_cell_length_b	8.634500
_cell_length_c	9.754500
_cell_angle_alpha	90.000000
_cell_angle_beta	102.599000
_cell_angle_gamma	90.000000
_symmetry_Int_Tables_number 1

loop_
_symmetry_equiv_pos_as_xyz
'x,y,z'

loop_
_atom_site_label
_atom_site_type_symbol
_atom_site_fract_x
_atom_site_fract_y
_atom_site_fract_z
Er11	Er1	0.891180	0.769150	0.730550
O11	O1	0.925500	0.543300	0.871400
O21	O2	0.001800	0.381300	0.053000
O31	O3	0.877000	0.588500	0.561400
O41	O4	0.942800	0.434600	0.397500
O51	O5	0.572500	0.693700	0.766400
O61	O6	0.245300	0.704100	0.785200
O71	O7	0.620100	0.871700	0.519500
O81	O8	0.703600	0.015000	0.708900
C11	C1	0.027200	0.501600	0.991100
H11	H1	0.130700	0.568100	0.036600
C21	C2	0.954400	0.471500	0.522500
H21	H2	0.027100	0.405800	0.591500
C31	C3	0.388400	0.719300	0.730800
H31	H3	0.350400	0.760100	0.640600
C41	C4	0.603300	0.993200	0.585100
H41	H4	0.513800	0.070200	0.541200
Er21	Er2	0.108820	0.269150	0.269450
O91	O9	0.074500	0.043300	0.128600
O101	O10	0.998200	0.881300	0.947000
O111	O11	0.123000	0.088500	0.438600
O121	O12	0.057200	0.934600	0.602500
O131	O13	0.427500	0.193700	0.233600
O141	O14	0.754700	0.204100	0.214800
O151	O15	0.379900	0.371700	0.480500
O161	O16	0.296400	0.515000	0.291100
C51	C5	0.972800	0.001600	0.008900
H51	H5	0.869300	0.068100	0.963400
C61	C6	0.045600	0.971500	0.477500
H61	H6	0.972900	0.905800	0.408500
C71	C7	0.611600	0.219300	0.269200
H71	H7	0.649600	0.260100	0.359400
C81	C8	0.396700	0.493200	0.414900
H81	H8	0.486200	0.570200	0.458800
