data_UXEFAF_clean_PM
_symmetry_space_group_name_H-M	'P1'
_cell_length_a	6.634900
_cell_length_b	8.637100
_cell_length_c	9.672700
_cell_angle_alpha	90.000000
_cell_angle_beta	102.101000
_cell_angle_gamma	90.000000
_symmetry_Int_Tables_number 1

loop_
_symmetry_equiv_pos_as_xyz
'x,y,z'

loop_
_atom_site_label
_atom_site_type_symbol
_atom_site_fract_x
_atom_site_fract_y
_atom_site_fract_z
Er11	Er1	0.105570	0.230940	0.270760
O11	O1	0.073400	0.456100	0.126200
O21	O2	0.002100	0.617900	0.946500
O31	O3	0.142200	0.425300	0.432300
O41	O4	0.063400	0.586900	0.588300
O51	O5	0.423500	0.300700	0.228800
O61	O6	0.754200	0.305300	0.220800
O71	O7	0.374100	0.130500	0.479300
O81	O8	0.280700	0.979900	0.294200
C11	C1	0.979000	0.496800	0.010200
H11	H1	0.878500	0.429100	0.963800
C21	C2	0.041100	0.514100	0.482600
H21	H2	0.912300	0.530400	0.424400
C31	C3	0.599000	0.250900	0.239600
H31	H3	0.612800	0.148100	0.268700
C41	C4	0.383100	0.004300	0.416500
H41	H4	0.468600	0.926500	0.462300
Er21	Er2	0.894430	0.730940	0.729240
O91	O9	0.926600	0.956100	0.873800
O101	O10	0.997900	0.117900	0.053500
O111	O11	0.857800	0.925300	0.567700
O121	O12	0.936600	0.086900	0.411700
O131	O13	0.576500	0.800700	0.771200
O141	O14	0.245800	0.805300	0.779200
O151	O15	0.625900	0.630500	0.520700
O161	O16	0.719300	0.479900	0.705800
C51	C5	0.021000	0.996800	0.989800
H51	H5	0.121500	0.929100	0.036200
C61	C6	0.958900	0.014100	0.517400
H61	H6	0.087700	0.030400	0.575600
C71	C7	0.401000	0.750900	0.760400
H71	H7	0.387200	0.648100	0.731300
C81	C8	0.616900	0.504300	0.583500
H81	H8	0.531400	0.426500	0.537700
