data_UZANEP_clean_PM
_symmetry_space_group_name_H-M	'P1'
_cell_length_a	9.590300
_cell_length_b	10.180600
_cell_length_c	20.280500
_cell_angle_alpha	102.765000
_cell_angle_beta	90.000000
_cell_angle_gamma	90.000000
_symmetry_Int_Tables_number 1

loop_
_symmetry_equiv_pos_as_xyz
'x,y,z'

loop_
_atom_site_label
_atom_site_type_symbol
_atom_site_fract_x
_atom_site_fract_y
_atom_site_fract_z
Nd11	Nd1	0.430380	0.768850	0.797990
Nd21	Nd2	0.930380	0.731150	0.702010
Nd31	Nd3	0.569620	0.231150	0.202010
Nd41	Nd4	0.069620	0.268850	0.297990
Zn11	Zn1	0.861460	0.300990	0.663420
Zn21	Zn2	0.361460	0.199010	0.836580
Zn31	Zn3	0.138540	0.699010	0.336580
Zn41	Zn4	0.638540	0.800990	0.163420
H11	H1	0.006200	0.940800	0.152600
H21	H2	0.900200	0.820800	0.055900
H31	H3	0.019700	0.778600	0.954500
H41	H4	0.349700	0.982000	0.046800
H51	H5	0.624200	0.104200	0.721000
H61	H6	0.506200	0.559200	0.347400
H71	H7	0.400200	0.679200	0.444100
H81	H8	0.519700	0.721400	0.545500
H91	H9	0.849700	0.518000	0.453200
H101	H10	0.124200	0.395800	0.779000
H111	H11	0.993800	0.059200	0.847400
H121	H12	0.099800	0.179200	0.944100
H131	H13	0.980300	0.221400	0.045500
H141	H14	0.650300	0.018000	0.953200
H151	H15	0.375800	0.895800	0.279000
H161	H16	0.493800	0.440800	0.652600
H171	H17	0.599800	0.320800	0.555900
H181	H18	0.480300	0.278600	0.454500
H191	H19	0.150300	0.482000	0.546800
H201	H20	0.875800	0.604200	0.221000
C11	C1	0.188200	0.972900	0.110100
C21	C2	0.054400	0.924500	0.111800
C31	C3	0.990800	0.852400	0.054000
C41	C4	0.062000	0.827500	0.993500
C51	C5	0.196000	0.875080	0.990780
C61	C6	0.259800	0.948890	0.048890
C71	C7	0.274500	0.845460	0.925260
C81	C8	0.256500	0.050920	0.174120
C91	C9	0.706500	0.532930	0.738930
C101	C10	0.641200	0.411760	0.753160
C111	C11	0.538900	0.386840	0.796240
C121	C12	0.451900	0.473050	0.848550
C131	C13	0.613700	0.196300	0.737800
C141	C14	0.688200	0.527100	0.389900
C151	C15	0.554400	0.575500	0.388200
C161	C16	0.490800	0.647600	0.446000
C171	C17	0.562000	0.672500	0.506500
C181	C18	0.696000	0.624920	0.509220
C191	C19	0.759800	0.551110	0.451110
C201	C20	0.774500	0.654540	0.574740
C211	C21	0.756500	0.449080	0.325880
C221	C22	0.206500	0.967070	0.761070
C231	C23	0.141200	0.088240	0.746840
C241	C24	0.038900	0.113160	0.703760
C251	C25	0.951900	0.026950	0.651450
C261	C26	0.113700	0.303700	0.762200
C271	C27	0.811800	0.027100	0.889900
C281	C28	0.945600	0.075500	0.888200
C291	C29	0.009200	0.147600	0.946000
C301	C30	0.938000	0.172500	0.006500
C311	C31	0.804000	0.124920	0.009220
C321	C32	0.740200	0.051110	0.951110
C331	C33	0.725500	0.154540	0.074740
C341	C34	0.743500	0.949080	0.825880
C351	C35	0.293500	0.467070	0.261070
C361	C36	0.358800	0.588240	0.246840
C371	C37	0.461100	0.613160	0.203760
C381	C38	0.548100	0.526950	0.151450
C391	C39	0.386300	0.803700	0.262200
C401	C40	0.311800	0.472900	0.610100
C411	C41	0.445600	0.424500	0.611800
C421	C42	0.509200	0.352400	0.554000
C431	C43	0.438000	0.327500	0.493500
C441	C44	0.304000	0.375080	0.490780
C451	C45	0.240200	0.448890	0.548890
C461	C46	0.225500	0.345460	0.425260
C471	C47	0.243500	0.550920	0.674120
C481	C48	0.793500	0.032930	0.238930
C491	C49	0.858800	0.911760	0.253160
C501	C50	0.961100	0.886840	0.296240
C511	C51	0.048100	0.973050	0.348550
C521	C52	0.886300	0.696300	0.237800
N11	N1	0.687800	0.289440	0.716240
N21	N2	0.523000	0.249540	0.786040
N31	N3	0.187800	0.210560	0.783760
N41	N4	0.023000	0.250460	0.713960
N51	N5	0.312200	0.710560	0.283760
N61	N6	0.477000	0.750460	0.213960
N71	N7	0.812200	0.789440	0.216240
N81	N8	0.977000	0.749540	0.286040
O11	O1	0.218900	0.772280	0.873280
O21	O2	0.396300	0.892120	0.922020
O31	O3	0.382700	0.078110	0.171110
O41	O4	0.181900	0.082490	0.226690
O51	O5	0.659600	0.648420	0.759420
O61	O6	0.817500	0.510530	0.702830
O71	O7	0.471600	0.599260	0.862960
O81	O8	0.363500	0.414360	0.877760
O91	O9	0.718900	0.727720	0.626720
O101	O10	0.896300	0.607880	0.577980
O111	O11	0.882700	0.421890	0.328890
O121	O12	0.681900	0.417510	0.273310
O131	O13	0.159600	0.851580	0.740580
O141	O14	0.317500	0.989470	0.797170
O151	O15	0.971600	0.900740	0.637040
O161	O16	0.863500	0.085640	0.622240
O171	O17	0.781100	0.227720	0.126720
O181	O18	0.603700	0.107880	0.077980
O191	O19	0.617300	0.921890	0.828890
O201	O20	0.818100	0.917510	0.773310
O211	O21	0.340400	0.351580	0.240580
O221	O22	0.182500	0.489470	0.297170
O231	O23	0.528400	0.400740	0.137040
O241	O24	0.636500	0.585640	0.122240
O251	O25	0.281100	0.272280	0.373280
O261	O26	0.103700	0.392120	0.422020
O271	O27	0.117300	0.578110	0.671110
O281	O28	0.318100	0.582490	0.726690
O291	O29	0.840400	0.148420	0.259420
O301	O30	0.682500	0.010530	0.202830
O311	O31	0.028400	0.099260	0.362960
O321	O32	0.136500	0.914360	0.377760
