data_UZANOZ_clean_PM
_symmetry_space_group_name_H-M	'P1'
_cell_length_a	10.918000
_cell_length_b	11.231000
_cell_length_c	14.577000
_cell_angle_alpha	112.006000
_cell_angle_beta	107.771000
_cell_angle_gamma	90.509000
_symmetry_Int_Tables_number 1

loop_
_symmetry_equiv_pos_as_xyz
'x,y,z'

loop_
_atom_site_label
_atom_site_type_symbol
_atom_site_fract_x
_atom_site_fract_y
_atom_site_fract_z
Zn11	Zn1	0.936230	0.055280	0.097970
Zn21	Zn2	0.508780	0.986730	0.788070
Zn31	Zn3	0.660690	0.512550	0.502900
Zn41	Zn4	0.660660	0.507110	0.005560
O11	O1	0.464100	0.820500	0.117900
O21	O2	0.498800	0.622800	0.028000
O31	O3	0.588700	0.078500	0.137400
O41	O4	0.777100	0.130200	0.127200
O51	O5	0.893200	0.014500	0.942400
O61	O6	0.678500	0.972700	0.886400
O71	O7	0.491100	0.795200	0.683800
O81	O8	0.521700	0.602400	0.583500
N11	N1	0.738900	0.698800	0.047800
N21	N2	0.844200	0.892300	0.090100
N31	N3	0.183500	0.599600	0.006500
N41	N4	0.775800	0.670000	0.634300
N51	N5	0.918100	0.825600	0.775800
N61	N6	0.210100	0.572000	0.576200
C11	C1	0.531900	0.746700	0.074700
C21	C2	0.660800	0.791500	0.075500
C31	C3	0.725100	0.911500	0.100500
C41	C4	0.693400	0.048800	0.124100
C51	C5	0.849400	0.764800	0.058200
C61	C6	0.963700	0.707400	0.038700
C71	C7	0.083800	0.749000	0.116900
H11	H1	0.092600	0.814600	0.183600
C81	C8	0.190600	0.694300	0.097200
H21	H2	0.272900	0.725800	0.150900
C91	C9	0.068200	0.563500	0.927600
H31	H3	0.063500	0.501600	0.860500
C101	C10	0.956100	0.614300	0.941700
H41	H4	0.875700	0.585500	0.885600
C111	C11	0.783900	0.951700	0.872600
C121	C12	0.795100	0.846800	0.778000
C131	C13	0.708500	0.751400	0.693000
C141	C14	0.563600	0.717500	0.652700
C151	C15	0.901100	0.719300	0.688600
C161	C16	0.009600	0.668500	0.651700
C171	C17	0.035000	0.542700	0.637000
H51	H5	0.984900	0.488000	0.652500
C181	C18	0.135900	0.499000	0.599000
H61	H6	0.152900	0.413000	0.588600
C191	C19	0.186500	0.693900	0.592500
H71	H7	0.237900	0.746000	0.575700
C201	C20	0.091500	0.746900	0.632300
H81	H8	0.081300	0.835300	0.646600
Zn51	Zn5	0.063770	0.944720	0.902030
Zn61	Zn6	0.491220	0.013270	0.211930
Zn71	Zn7	0.339310	0.487450	0.497100
Zn81	Zn8	0.339340	0.492890	0.994440
O91	O9	0.535900	0.179500	0.882100
O101	O10	0.501200	0.377200	0.972000
O111	O11	0.411300	0.921500	0.862600
O121	O12	0.222900	0.869800	0.872800
O131	O13	0.106800	0.985500	0.057600
O141	O14	0.321500	0.027300	0.113600
O151	O15	0.508900	0.204800	0.316200
O161	O16	0.478300	0.397600	0.416500
N71	N7	0.261100	0.301200	0.952200
N81	N8	0.155800	0.107700	0.909900
N91	N9	0.816500	0.400400	0.993500
N101	N10	0.224200	0.330000	0.365700
N111	N11	0.081900	0.174400	0.224200
N121	N12	0.789900	0.428000	0.423800
C211	C21	0.468100	0.253300	0.925300
C221	C22	0.339200	0.208500	0.924500
C231	C23	0.274900	0.088500	0.899500
C241	C24	0.306600	0.951200	0.875900
C251	C25	0.150600	0.235200	0.941800
C261	C26	0.036300	0.292600	0.961300
C271	C27	0.916200	0.251000	0.883100
H91	H9	0.907400	0.185400	0.816400
C281	C28	0.809400	0.305700	0.902800
H101	H10	0.727100	0.274200	0.849100
C291	C29	0.931800	0.436500	0.072400
H111	H11	0.936500	0.498400	0.139500
C301	C30	0.043900	0.385700	0.058300
H121	H12	0.124300	0.414500	0.114400
C311	C31	0.216100	0.048300	0.127400
C321	C32	0.204900	0.153200	0.222000
C331	C33	0.291500	0.248600	0.307000
C341	C34	0.436400	0.282500	0.347300
C351	C35	0.098900	0.280700	0.311400
C361	C36	0.990400	0.331500	0.348300
C371	C37	0.965000	0.457300	0.363000
H131	H13	0.015100	0.512000	0.347500
C381	C38	0.864100	0.501000	0.401000
H141	H14	0.847100	0.587000	0.411400
C391	C39	0.813500	0.306100	0.407500
H151	H15	0.762100	0.254000	0.424300
C401	C40	0.908500	0.253100	0.367700
H161	H16	0.918700	0.164700	0.353400
