data_UZAROE_clean_PM
_symmetry_space_group_name_H-M	'P1'
_cell_length_a	29.030200
_cell_length_b	29.030200
_cell_length_c	29.030200
_cell_angle_alpha	90.000000
_cell_angle_beta	90.000000
_cell_angle_gamma	90.000000
_symmetry_Int_Tables_number 1

loop_
_symmetry_equiv_pos_as_xyz
'x,y,z'

loop_
_atom_site_label
_atom_site_type_symbol
_atom_site_fract_x
_atom_site_fract_y
_atom_site_fract_z
C11	C1	0.605600	0.974000	0.179900
H11	H1	0.605300	0.954600	0.154500
C21	C2	0.659500	0.874300	0.160200
H21	H2	0.676000	0.901700	0.159300
N11	N1	0.606000	0.962400	0.222500
N21	N2	0.631600	0.860600	0.194600
O11	O1	0.605200	0.963500	0.317400
O21	O2	0.574100	0.753800	0.193500
C31	C3	0.105600	0.474000	0.679900
H31	H3	0.105300	0.454600	0.654500
C41	C4	0.159500	0.374300	0.660200
H41	H4	0.176000	0.401700	0.659300
N31	N3	0.106000	0.462400	0.722500
N41	N4	0.131600	0.360600	0.694600
O31	O3	0.105200	0.463500	0.817400
O41	O4	0.074100	0.253800	0.693500
C51	C5	0.394400	0.026000	0.179900
H51	H5	0.394700	0.045400	0.154500
C61	C6	0.340500	0.125700	0.160200
H61	H6	0.324000	0.098300	0.159300
N51	N5	0.394000	0.037600	0.222500
N61	N6	0.368400	0.139400	0.194600
O51	O5	0.394800	0.036500	0.317400
O61	O6	0.425900	0.246200	0.193500
C71	C7	0.894400	0.526000	0.679900
H71	H7	0.894700	0.545400	0.654500
C81	C8	0.840500	0.625700	0.660200
H81	H8	0.824000	0.598300	0.659300
N71	N7	0.894000	0.537600	0.722500
N81	N8	0.868400	0.639400	0.694600
O71	O7	0.894800	0.536500	0.817400
O81	O8	0.925900	0.746200	0.693500
C91	C9	0.394400	0.974000	0.820100
H91	H9	0.394700	0.954600	0.845500
C101	C10	0.340500	0.874300	0.839800
H101	H10	0.324000	0.901700	0.840700
N91	N9	0.394000	0.962400	0.777500
N101	N10	0.368400	0.860600	0.805400
O91	O9	0.394800	0.963500	0.682600
O101	O10	0.425900	0.753800	0.806500
C111	C11	0.894400	0.474000	0.320100
H111	H11	0.894700	0.454600	0.345500
C121	C12	0.840500	0.374300	0.339800
H121	H12	0.824000	0.401700	0.340700
N111	N11	0.894000	0.462400	0.277500
N121	N12	0.868400	0.360600	0.305400
O111	O11	0.894800	0.463500	0.182600
O121	O12	0.925900	0.253800	0.306500
C131	C13	0.605600	0.026000	0.820100
H131	H13	0.605300	0.045400	0.845500
C141	C14	0.659500	0.125700	0.839800
H141	H14	0.676000	0.098300	0.840700
N131	N13	0.606000	0.037600	0.777500
N141	N14	0.631600	0.139400	0.805400
O131	O13	0.605200	0.036500	0.682600
O141	O14	0.574100	0.246200	0.806500
C151	C15	0.105600	0.526000	0.320100
H151	H15	0.105300	0.545400	0.345500
C161	C16	0.159500	0.625700	0.339800
H161	H16	0.176000	0.598300	0.340700
N151	N15	0.106000	0.537600	0.277500
N161	N16	0.131600	0.639400	0.305400
O151	O15	0.105200	0.536500	0.182600
O161	O16	0.074100	0.746200	0.306500
C171	C17	0.179900	0.605600	0.974000
H171	H17	0.154500	0.605300	0.954600
C181	C18	0.160200	0.659500	0.874300
H181	H18	0.159300	0.676000	0.901700
N171	N17	0.222500	0.606000	0.962400
N181	N18	0.194600	0.631600	0.860600
O171	O17	0.317400	0.605200	0.963500
O181	O18	0.193500	0.574100	0.753800
C191	C19	0.679900	0.105600	0.474000
H191	H19	0.654500	0.105300	0.454600
C201	C20	0.660200	0.159500	0.374300
H201	H20	0.659300	0.176000	0.401700
N191	N19	0.722500	0.106000	0.462400
N201	N20	0.694600	0.131600	0.360600
O191	O19	0.817400	0.105200	0.463500
O201	O20	0.693500	0.074100	0.253800
C211	C21	0.179900	0.394400	0.026000
H211	H21	0.154500	0.394700	0.045400
C221	C22	0.160200	0.340500	0.125700
H221	H22	0.159300	0.324000	0.098300
N211	N21	0.222500	0.394000	0.037600
N221	N22	0.194600	0.368400	0.139400
O211	O21	0.317400	0.394800	0.036500
O221	O22	0.193500	0.425900	0.246200
C231	C23	0.679900	0.894400	0.526000
H231	H23	0.654500	0.894700	0.545400
C241	C24	0.660200	0.840500	0.625700
H241	H24	0.659300	0.824000	0.598300
N231	N23	0.722500	0.894000	0.537600
N241	N24	0.694600	0.868400	0.639400
O231	O23	0.817400	0.894800	0.536500
O241	O24	0.693500	0.925900	0.746200
C251	C25	0.820100	0.394400	0.974000
H251	H25	0.845500	0.394700	0.954600
C261	C26	0.839800	0.340500	0.874300
H261	H26	0.840700	0.324000	0.901700
N251	N25	0.777500	0.394000	0.962400
N261	N26	0.805400	0.368400	0.860600
O251	O25	0.682600	0.394800	0.963500
O261	O26	0.806500	0.425900	0.753800
C271	C27	0.320100	0.894400	0.474000
H271	H27	0.345500	0.894700	0.454600
C281	C28	0.339800	0.840500	0.374300
H281	H28	0.340700	0.824000	0.401700
N271	N27	0.277500	0.894000	0.462400
N281	N28	0.305400	0.868400	0.360600
O271	O27	0.182600	0.894800	0.463500
O281	O28	0.306500	0.925900	0.253800
C291	C29	0.820100	0.605600	0.026000
H291	H29	0.845500	0.605300	0.045400
C301	C30	0.839800	0.659500	0.125700
H301	H30	0.840700	0.676000	0.098300
N291	N29	0.777500	0.606000	0.037600
N301	N30	0.805400	0.631600	0.139400
O291	O29	0.682600	0.605200	0.036500
O301	O30	0.806500	0.574100	0.246200
C311	C31	0.320100	0.105600	0.526000
H311	H31	0.345500	0.105300	0.545400
C321	C32	0.339800	0.159500	0.625700
H321	H32	0.340700	0.176000	0.598300
N311	N31	0.277500	0.106000	0.537600
N321	N32	0.305400	0.131600	0.639400
O311	O31	0.182600	0.105200	0.536500
O321	O32	0.306500	0.074100	0.746200
C331	C33	0.974000	0.179900	0.605600
H331	H33	0.954600	0.154500	0.605300
C341	C34	0.874300	0.160200	0.659500
H341	H34	0.901700	0.159300	0.676000
N331	N33	0.962400	0.222500	0.606000
N341	N34	0.860600	0.194600	0.631600
O331	O33	0.963500	0.317400	0.605200
O341	O34	0.753800	0.193500	0.574100
C351	C35	0.474000	0.679900	0.105600
H351	H35	0.454600	0.654500	0.105300
C361	C36	0.374300	0.660200	0.159500
H361	H36	0.401700	0.659300	0.176000
N351	N35	0.462400	0.722500	0.106000
N361	N36	0.360600	0.694600	0.131600
O351	O35	0.463500	0.817400	0.105200
O361	O36	0.253800	0.693500	0.074100
C371	C37	0.026000	0.179900	0.394400
H371	H37	0.045400	0.154500	0.394700
C381	C38	0.125700	0.160200	0.340500
H381	H38	0.098300	0.159300	0.324000
N371	N37	0.037600	0.222500	0.394000
N381	N38	0.139400	0.194600	0.368400
O371	O37	0.036500	0.317400	0.394800
O381	O38	0.246200	0.193500	0.425900
C391	C39	0.526000	0.679900	0.894400
H391	H39	0.545400	0.654500	0.894700
C401	C40	0.625700	0.660200	0.840500
H401	H40	0.598300	0.659300	0.824000
N391	N39	0.537600	0.722500	0.894000
N401	N40	0.639400	0.694600	0.868400
O391	O39	0.536500	0.817400	0.894800
O401	O40	0.746200	0.693500	0.925900
C411	C41	0.974000	0.820100	0.394400
H411	H41	0.954600	0.845500	0.394700
C421	C42	0.874300	0.839800	0.340500
H421	H42	0.901700	0.840700	0.324000
N411	N41	0.962400	0.777500	0.394000
N421	N42	0.860600	0.805400	0.368400
O411	O41	0.963500	0.682600	0.394800
O421	O42	0.753800	0.806500	0.425900
C431	C43	0.474000	0.320100	0.894400
H431	H43	0.454600	0.345500	0.894700
C441	C44	0.374300	0.339800	0.840500
H441	H44	0.401700	0.340700	0.824000
N431	N43	0.462400	0.277500	0.894000
N441	N44	0.360600	0.305400	0.868400
O431	O43	0.463500	0.182600	0.894800
O441	O44	0.253800	0.306500	0.925900
C451	C45	0.026000	0.820100	0.605600
H451	H45	0.045400	0.845500	0.605300
C461	C46	0.125700	0.839800	0.659500
H461	H46	0.098300	0.840700	0.676000
N451	N45	0.037600	0.777500	0.606000
N461	N46	0.139400	0.805400	0.631600
O451	O45	0.036500	0.682600	0.605200
O461	O46	0.246200	0.806500	0.574100
C471	C47	0.526000	0.320100	0.105600
H471	H47	0.545400	0.345500	0.105300
C481	C48	0.625700	0.339800	0.159500
H481	H48	0.598300	0.340700	0.176000
N471	N47	0.537600	0.277500	0.106000
N481	N48	0.639400	0.305400	0.131600
O471	O47	0.536500	0.182600	0.105200
O481	O48	0.746200	0.306500	0.074100
C491	C49	0.974000	0.605600	0.820100
H491	H49	0.954600	0.605300	0.845500
C501	C50	0.874300	0.659500	0.839800
H501	H50	0.901700	0.676000	0.840700
N491	N49	0.962400	0.606000	0.777500
N501	N50	0.860600	0.631600	0.805400
O491	O49	0.963500	0.605200	0.682600
O501	O50	0.753800	0.574100	0.806500
C511	C51	0.474000	0.105600	0.320100
H511	H51	0.454600	0.105300	0.345500
C521	C52	0.374300	0.159500	0.339800
H521	H52	0.401700	0.176000	0.340700
N511	N51	0.462400	0.106000	0.277500
N521	N52	0.360600	0.131600	0.305400
O511	O51	0.463500	0.105200	0.182600
O521	O52	0.253800	0.074100	0.306500
C531	C53	0.026000	0.394400	0.820100
H531	H53	0.045400	0.394700	0.845500
C541	C54	0.125700	0.340500	0.839800
H541	H54	0.098300	0.324000	0.840700
N531	N53	0.037600	0.394000	0.777500
N541	N54	0.139400	0.368400	0.805400
O531	O53	0.036500	0.394800	0.682600
O541	O54	0.246200	0.425900	0.806500
C551	C55	0.526000	0.894400	0.320100
H551	H55	0.545400	0.894700	0.345500
C561	C56	0.625700	0.840500	0.339800
H561	H56	0.598300	0.824000	0.340700
N551	N55	0.537600	0.894000	0.277500
N561	N56	0.639400	0.868400	0.305400
O551	O55	0.536500	0.894800	0.182600
O561	O56	0.746200	0.925900	0.306500
C571	C57	0.974000	0.394400	0.179900
H571	H57	0.954600	0.394700	0.154500
C581	C58	0.874300	0.340500	0.160200
H581	H58	0.901700	0.324000	0.159300
N571	N57	0.962400	0.394000	0.222500
N581	N58	0.860600	0.368400	0.194600
O571	O57	0.963500	0.394800	0.317400
O581	O58	0.753800	0.425900	0.193500
C591	C59	0.474000	0.894400	0.679900
H591	H59	0.454600	0.894700	0.654500
C601	C60	0.374300	0.840500	0.660200
H601	H60	0.401700	0.824000	0.659300
N591	N59	0.462400	0.894000	0.722500
N601	N60	0.360600	0.868400	0.694600
O591	O59	0.463500	0.894800	0.817400
O601	O60	0.253800	0.925900	0.693500
C611	C61	0.026000	0.605600	0.179900
H611	H61	0.045400	0.605300	0.154500
C621	C62	0.125700	0.659500	0.160200
H621	H62	0.098300	0.676000	0.159300
N611	N61	0.037600	0.606000	0.222500
N621	N62	0.139400	0.631600	0.194600
O611	O61	0.036500	0.605200	0.317400
O621	O62	0.246200	0.574100	0.193500
C631	C63	0.526000	0.105600	0.679900
H631	H63	0.545400	0.105300	0.654500
C641	C64	0.625700	0.159500	0.660200
H641	H64	0.598300	0.176000	0.659300
N631	N63	0.537600	0.106000	0.722500
N641	N64	0.639400	0.131600	0.694600
O631	O63	0.536500	0.105200	0.817400
O641	O64	0.746200	0.074100	0.693500
C651	C65	0.605600	0.179900	0.026000
H651	H65	0.605300	0.154500	0.045400
C661	C66	0.659500	0.160200	0.125700
H661	H66	0.676000	0.159300	0.098300
N651	N65	0.606000	0.222500	0.037600
N661	N66	0.631600	0.194600	0.139400
O651	O65	0.605200	0.317400	0.036500
O661	O66	0.574100	0.193500	0.246200
C671	C67	0.105600	0.679900	0.526000
H671	H67	0.105300	0.654500	0.545400
C681	C68	0.159500	0.660200	0.625700
H681	H68	0.176000	0.659300	0.598300
N671	N67	0.106000	0.722500	0.537600
N681	N68	0.131600	0.694600	0.639400
O671	O67	0.105200	0.817400	0.536500
O681	O68	0.074100	0.693500	0.746200
C691	C69	0.394400	0.179900	0.974000
H691	H69	0.394700	0.154500	0.954600
C701	C70	0.340500	0.160200	0.874300
H701	H70	0.324000	0.159300	0.901700
N691	N69	0.394000	0.222500	0.962400
N701	N70	0.368400	0.194600	0.860600
O691	O69	0.394800	0.317400	0.963500
O701	O70	0.425900	0.193500	0.753800
C711	C71	0.894400	0.679900	0.474000
H711	H71	0.894700	0.654500	0.454600
C721	C72	0.840500	0.660200	0.374300
H721	H72	0.824000	0.659300	0.401700
N711	N71	0.894000	0.722500	0.462400
N721	N72	0.868400	0.694600	0.360600
O711	O71	0.894800	0.817400	0.463500
O721	O72	0.925900	0.693500	0.253800
C731	C73	0.394400	0.820100	0.026000
H731	H73	0.394700	0.845500	0.045400
C741	C74	0.340500	0.839800	0.125700
H741	H74	0.324000	0.840700	0.098300
N731	N73	0.394000	0.777500	0.037600
N741	N74	0.368400	0.805400	0.139400
O731	O73	0.394800	0.682600	0.036500
O741	O74	0.425900	0.806500	0.246200
C751	C75	0.894400	0.320100	0.526000
H751	H75	0.894700	0.345500	0.545400
C761	C76	0.840500	0.339800	0.625700
H761	H76	0.824000	0.340700	0.598300
N751	N75	0.894000	0.277500	0.537600
N761	N76	0.868400	0.305400	0.639400
O751	O75	0.894800	0.182600	0.536500
O761	O76	0.925900	0.306500	0.746200
C771	C77	0.605600	0.820100	0.974000
H771	H77	0.605300	0.845500	0.954600
C781	C78	0.659500	0.839800	0.874300
H781	H78	0.676000	0.840700	0.901700
N771	N77	0.606000	0.777500	0.962400
N781	N78	0.631600	0.805400	0.860600
O771	O77	0.605200	0.682600	0.963500
O781	O78	0.574100	0.806500	0.753800
C791	C79	0.105600	0.320100	0.474000
H791	H79	0.105300	0.345500	0.454600
C801	C80	0.159500	0.339800	0.374300
H801	H80	0.176000	0.340700	0.401700
N791	N79	0.106000	0.277500	0.462400
N801	N80	0.131600	0.305400	0.360600
O791	O79	0.105200	0.182600	0.463500
O801	O80	0.074100	0.306500	0.253800
C811	C81	0.179900	0.974000	0.394400
H811	H81	0.154500	0.954600	0.394700
C821	C82	0.160200	0.874300	0.340500
H821	H82	0.159300	0.901700	0.324000
N811	N81	0.222500	0.962400	0.394000
N821	N82	0.194600	0.860600	0.368400
O811	O81	0.317400	0.963500	0.394800
O821	O82	0.193500	0.753800	0.425900
C831	C83	0.679900	0.474000	0.894400
H831	H83	0.654500	0.454600	0.894700
C841	C84	0.660200	0.374300	0.840500
H841	H84	0.659300	0.401700	0.824000
N831	N83	0.722500	0.462400	0.894000
N841	N84	0.694600	0.360600	0.868400
O831	O83	0.817400	0.463500	0.894800
O841	O84	0.693500	0.253800	0.925900
C851	C85	0.179900	0.026000	0.605600
H851	H85	0.154500	0.045400	0.605300
C861	C86	0.160200	0.125700	0.659500
H861	H86	0.159300	0.098300	0.676000
N851	N85	0.222500	0.037600	0.606000
N861	N86	0.194600	0.139400	0.631600
O851	O85	0.317400	0.036500	0.605200
O861	O86	0.193500	0.246200	0.574100
C871	C87	0.679900	0.526000	0.105600
H871	H87	0.654500	0.545400	0.105300
C881	C88	0.660200	0.625700	0.159500
H881	H88	0.659300	0.598300	0.176000
N871	N87	0.722500	0.537600	0.106000
N881	N88	0.694600	0.639400	0.131600
O871	O87	0.817400	0.536500	0.105200
O881	O88	0.693500	0.746200	0.074100
C891	C89	0.820100	0.974000	0.605600
H891	H89	0.845500	0.954600	0.605300
C901	C90	0.839800	0.874300	0.659500
H901	H90	0.840700	0.901700	0.676000
N891	N89	0.777500	0.962400	0.606000
N901	N90	0.805400	0.860600	0.631600
O891	O89	0.682600	0.963500	0.605200
O901	O90	0.806500	0.753800	0.574100
C911	C91	0.320100	0.474000	0.105600
H911	H91	0.345500	0.454600	0.105300
C921	C92	0.339800	0.374300	0.159500
H921	H92	0.340700	0.401700	0.176000
N911	N91	0.277500	0.462400	0.106000
N921	N92	0.305400	0.360600	0.131600
O911	O91	0.182600	0.463500	0.105200
O921	O92	0.306500	0.253800	0.074100
C931	C93	0.820100	0.026000	0.394400
H931	H93	0.845500	0.045400	0.394700
C941	C94	0.839800	0.125700	0.340500
H941	H94	0.840700	0.098300	0.324000
N931	N93	0.777500	0.037600	0.394000
N941	N94	0.805400	0.139400	0.368400
O931	O93	0.682600	0.036500	0.394800
O941	O94	0.806500	0.246200	0.425900
C951	C95	0.320100	0.526000	0.894400
H951	H95	0.345500	0.545400	0.894700
C961	C96	0.339800	0.625700	0.840500
H961	H96	0.340700	0.598300	0.824000
N951	N95	0.277500	0.537600	0.894000
N961	N96	0.305400	0.639400	0.868400
O951	O95	0.182600	0.536500	0.894800
O961	O96	0.306500	0.746200	0.925900
C971	C97	0.394400	0.026000	0.820100
H971	H97	0.394700	0.045400	0.845500
C981	C98	0.340500	0.125700	0.839800
H981	H98	0.324000	0.098300	0.840700
N971	N97	0.394000	0.037600	0.777500
N981	N98	0.368400	0.139400	0.805400
O971	O97	0.394800	0.036500	0.682600
O981	O98	0.425900	0.246200	0.806500
C991	C99	0.894400	0.526000	0.320100
H991	H99	0.894700	0.545400	0.345500
C1001	C100	0.840500	0.625700	0.339800
H1001	H100	0.824000	0.598300	0.340700
N991	N99	0.894000	0.537600	0.277500
N1001	N100	0.868400	0.639400	0.305400
O991	O99	0.894800	0.536500	0.182600
O1001	O100	0.925900	0.746200	0.306500
C1011	C101	0.605600	0.974000	0.820100
H1011	H101	0.605300	0.954600	0.845500
C1021	C102	0.659500	0.874300	0.839800
H1021	H102	0.676000	0.901700	0.840700
N1011	N101	0.606000	0.962400	0.777500
N1021	N102	0.631600	0.860600	0.805400
O1011	O101	0.605200	0.963500	0.682600
O1021	O102	0.574100	0.753800	0.806500
C1031	C103	0.105600	0.474000	0.320100
H1031	H103	0.105300	0.454600	0.345500
C1041	C104	0.159500	0.374300	0.339800
H1041	H104	0.176000	0.401700	0.340700
N1031	N103	0.106000	0.462400	0.277500
N1041	N104	0.131600	0.360600	0.305400
O1031	O103	0.105200	0.463500	0.182600
O1041	O104	0.074100	0.253800	0.306500
C1051	C105	0.605600	0.026000	0.179900
H1051	H105	0.605300	0.045400	0.154500
C1061	C106	0.659500	0.125700	0.160200
H1061	H106	0.676000	0.098300	0.159300
N1051	N105	0.606000	0.037600	0.222500
N1061	N106	0.631600	0.139400	0.194600
O1051	O105	0.605200	0.036500	0.317400
O1061	O106	0.574100	0.246200	0.193500
C1071	C107	0.105600	0.526000	0.679900
H1071	H107	0.105300	0.545400	0.654500
C1081	C108	0.159500	0.625700	0.660200
H1081	H108	0.176000	0.598300	0.659300
N1071	N107	0.106000	0.537600	0.722500
N1081	N108	0.131600	0.639400	0.694600
O1071	O107	0.105200	0.536500	0.817400
O1081	O108	0.074100	0.746200	0.693500
C1091	C109	0.394400	0.974000	0.179900
H1091	H109	0.394700	0.954600	0.154500
C1101	C110	0.340500	0.874300	0.160200
H1101	H110	0.324000	0.901700	0.159300
N1091	N109	0.394000	0.962400	0.222500
N1101	N110	0.368400	0.860600	0.194600
O1091	O109	0.394800	0.963500	0.317400
O1101	O110	0.425900	0.753800	0.193500
C1111	C111	0.894400	0.474000	0.679900
H1111	H111	0.894700	0.454600	0.654500
C1121	C112	0.840500	0.374300	0.660200
H1121	H112	0.824000	0.401700	0.659300
N1111	N111	0.894000	0.462400	0.722500
N1121	N112	0.868400	0.360600	0.694600
O1111	O111	0.894800	0.463500	0.817400
O1121	O112	0.925900	0.253800	0.693500
C1131	C113	0.820100	0.394400	0.026000
H1131	H113	0.845500	0.394700	0.045400
C1141	C114	0.839800	0.340500	0.125700
H1141	H114	0.840700	0.324000	0.098300
N1131	N113	0.777500	0.394000	0.037600
N1141	N114	0.805400	0.368400	0.139400
O1131	O113	0.682600	0.394800	0.036500
O1141	O114	0.806500	0.425900	0.246200
C1151	C115	0.320100	0.894400	0.526000
H1151	H115	0.345500	0.894700	0.545400
C1161	C116	0.339800	0.840500	0.625700
H1161	H116	0.340700	0.824000	0.598300
N1151	N115	0.277500	0.894000	0.537600
N1161	N116	0.305400	0.868400	0.639400
O1151	O115	0.182600	0.894800	0.536500
O1161	O116	0.306500	0.925900	0.746200
C1171	C117	0.820100	0.605600	0.974000
H1171	H117	0.845500	0.605300	0.954600
C1181	C118	0.839800	0.659500	0.874300
H1181	H118	0.840700	0.676000	0.901700
N1171	N117	0.777500	0.606000	0.962400
N1181	N118	0.805400	0.631600	0.860600
O1171	O117	0.682600	0.605200	0.963500
O1181	O118	0.806500	0.574100	0.753800
C1191	C119	0.320100	0.105600	0.474000
H1191	H119	0.345500	0.105300	0.454600
C1201	C120	0.339800	0.159500	0.374300
H1201	H120	0.340700	0.176000	0.401700
N1191	N119	0.277500	0.106000	0.462400
N1201	N120	0.305400	0.131600	0.360600
O1191	O119	0.182600	0.105200	0.463500
O1201	O120	0.306500	0.074100	0.253800
C1211	C121	0.179900	0.605600	0.026000
H1211	H121	0.154500	0.605300	0.045400
C1221	C122	0.160200	0.659500	0.125700
H1221	H122	0.159300	0.676000	0.098300
N1211	N121	0.222500	0.606000	0.037600
N1221	N122	0.194600	0.631600	0.139400
O1211	O121	0.317400	0.605200	0.036500
O1221	O122	0.193500	0.574100	0.246200
C1231	C123	0.679900	0.105600	0.526000
H1231	H123	0.654500	0.105300	0.545400
C1241	C124	0.660200	0.159500	0.625700
H1241	H124	0.659300	0.176000	0.598300
N1231	N123	0.722500	0.106000	0.537600
N1241	N124	0.694600	0.131600	0.639400
O1231	O123	0.817400	0.105200	0.536500
O1241	O124	0.693500	0.074100	0.746200
C1251	C125	0.179900	0.394400	0.974000
H1251	H125	0.154500	0.394700	0.954600
C1261	C126	0.160200	0.340500	0.874300
H1261	H126	0.159300	0.324000	0.901700
N1251	N125	0.222500	0.394000	0.962400
N1261	N126	0.194600	0.368400	0.860600
O1251	O125	0.317400	0.394800	0.963500
O1261	O126	0.193500	0.425900	0.753800
C1271	C127	0.679900	0.894400	0.474000
H1271	H127	0.654500	0.894700	0.454600
C1281	C128	0.660200	0.840500	0.374300
H1281	H128	0.659300	0.824000	0.401700
N1271	N127	0.722500	0.894000	0.462400
N1281	N128	0.694600	0.868400	0.360600
O1271	O127	0.817400	0.894800	0.463500
O1281	O128	0.693500	0.925900	0.253800
C1291	C129	0.026000	0.820100	0.394400
H1291	H129	0.045400	0.845500	0.394700
C1301	C130	0.125700	0.839800	0.340500
H1301	H130	0.098300	0.840700	0.324000
N1291	N129	0.037600	0.777500	0.394000
N1301	N130	0.139400	0.805400	0.368400
O1291	O129	0.036500	0.682600	0.394800
O1301	O130	0.246200	0.806500	0.425900
C1311	C131	0.526000	0.320100	0.894400
H1311	H131	0.545400	0.345500	0.894700
C1321	C132	0.625700	0.339800	0.840500
H1321	H132	0.598300	0.340700	0.824000
N1311	N131	0.537600	0.277500	0.894000
N1321	N132	0.639400	0.305400	0.868400
O1311	O131	0.536500	0.182600	0.894800
O1321	O132	0.746200	0.306500	0.925900
C1331	C133	0.974000	0.820100	0.605600
H1331	H133	0.954600	0.845500	0.605300
C1341	C134	0.874300	0.839800	0.659500
H1341	H134	0.901700	0.840700	0.676000
N1331	N133	0.962400	0.777500	0.606000
N1341	N134	0.860600	0.805400	0.631600
O1331	O133	0.963500	0.682600	0.605200
O1341	O134	0.753800	0.806500	0.574100
C1351	C135	0.474000	0.320100	0.105600
H1351	H135	0.454600	0.345500	0.105300
C1361	C136	0.374300	0.339800	0.159500
H1361	H136	0.401700	0.340700	0.176000
N1351	N135	0.462400	0.277500	0.106000
N1361	N136	0.360600	0.305400	0.131600
O1351	O135	0.463500	0.182600	0.105200
O1361	O136	0.253800	0.306500	0.074100
C1371	C137	0.026000	0.179900	0.605600
H1371	H137	0.045400	0.154500	0.605300
C1381	C138	0.125700	0.160200	0.659500
H1381	H138	0.098300	0.159300	0.676000
N1371	N137	0.037600	0.222500	0.606000
N1381	N138	0.139400	0.194600	0.631600
O1371	O137	0.036500	0.317400	0.605200
O1381	O138	0.246200	0.193500	0.574100
C1391	C139	0.526000	0.679900	0.105600
H1391	H139	0.545400	0.654500	0.105300
C1401	C140	0.625700	0.660200	0.159500
H1401	H140	0.598300	0.659300	0.176000
N1391	N139	0.537600	0.722500	0.106000
N1401	N140	0.639400	0.694600	0.131600
O1391	O139	0.536500	0.817400	0.105200
O1401	O140	0.746200	0.693500	0.074100
C1411	C141	0.974000	0.179900	0.394400
H1411	H141	0.954600	0.154500	0.394700
C1421	C142	0.874300	0.160200	0.340500
H1421	H142	0.901700	0.159300	0.324000
N1411	N141	0.962400	0.222500	0.394000
N1421	N142	0.860600	0.194600	0.368400
O1411	O141	0.963500	0.317400	0.394800
O1421	O142	0.753800	0.193500	0.425900
C1431	C143	0.474000	0.679900	0.894400
H1431	H143	0.454600	0.654500	0.894700
C1441	C144	0.374300	0.660200	0.840500
H1441	H144	0.401700	0.659300	0.824000
N1431	N143	0.462400	0.722500	0.894000
N1441	N144	0.360600	0.694600	0.868400
O1431	O143	0.463500	0.817400	0.894800
O1441	O144	0.253800	0.693500	0.925900
C1451	C145	0.026000	0.394400	0.179900
H1451	H145	0.045400	0.394700	0.154500
C1461	C146	0.125700	0.340500	0.160200
H1461	H146	0.098300	0.324000	0.159300
N1451	N145	0.037600	0.394000	0.222500
N1461	N146	0.139400	0.368400	0.194600
O1451	O145	0.036500	0.394800	0.317400
O1461	O146	0.246200	0.425900	0.193500
C1471	C147	0.526000	0.894400	0.679900
H1471	H147	0.545400	0.894700	0.654500
C1481	C148	0.625700	0.840500	0.660200
H1481	H148	0.598300	0.824000	0.659300
N1471	N147	0.537600	0.894000	0.722500
N1481	N148	0.639400	0.868400	0.694600
O1471	O147	0.536500	0.894800	0.817400
O1481	O148	0.746200	0.925900	0.693500
C1491	C149	0.974000	0.605600	0.179900
H1491	H149	0.954600	0.605300	0.154500
C1501	C150	0.874300	0.659500	0.160200
H1501	H150	0.901700	0.676000	0.159300
N1491	N149	0.962400	0.606000	0.222500
N1501	N150	0.860600	0.631600	0.194600
O1491	O149	0.963500	0.605200	0.317400
O1501	O150	0.753800	0.574100	0.193500
C1511	C151	0.474000	0.105600	0.679900
H1511	H151	0.454600	0.105300	0.654500
C1521	C152	0.374300	0.159500	0.660200
H1521	H152	0.401700	0.176000	0.659300
N1511	N151	0.462400	0.106000	0.722500
N1521	N152	0.360600	0.131600	0.694600
O1511	O151	0.463500	0.105200	0.817400
O1521	O152	0.253800	0.074100	0.693500
C1531	C153	0.026000	0.605600	0.820100
H1531	H153	0.045400	0.605300	0.845500
C1541	C154	0.125700	0.659500	0.839800
H1541	H154	0.098300	0.676000	0.840700
N1531	N153	0.037600	0.606000	0.777500
N1541	N154	0.139400	0.631600	0.805400
O1531	O153	0.036500	0.605200	0.682600
O1541	O154	0.246200	0.574100	0.806500
C1551	C155	0.526000	0.105600	0.320100
H1551	H155	0.545400	0.105300	0.345500
C1561	C156	0.625700	0.159500	0.339800
H1561	H156	0.598300	0.176000	0.340700
N1551	N155	0.537600	0.106000	0.277500
N1561	N156	0.639400	0.131600	0.305400
O1551	O155	0.536500	0.105200	0.182600
O1561	O156	0.746200	0.074100	0.306500
C1571	C157	0.974000	0.394400	0.820100
H1571	H157	0.954600	0.394700	0.845500
C1581	C158	0.874300	0.340500	0.839800
H1581	H158	0.901700	0.324000	0.840700
N1571	N157	0.962400	0.394000	0.777500
N1581	N158	0.860600	0.368400	0.805400
O1571	O157	0.963500	0.394800	0.682600
O1581	O158	0.753800	0.425900	0.806500
C1591	C159	0.474000	0.894400	0.320100
H1591	H159	0.454600	0.894700	0.345500
C1601	C160	0.374300	0.840500	0.339800
H1601	H160	0.401700	0.824000	0.340700
N1591	N159	0.462400	0.894000	0.277500
N1601	N160	0.360600	0.868400	0.305400
O1591	O159	0.463500	0.894800	0.182600
O1601	O160	0.253800	0.925900	0.306500
C1611	C161	0.394400	0.820100	0.974000
H1611	H161	0.394700	0.845500	0.954600
C1621	C162	0.340500	0.839800	0.874300
H1621	H162	0.324000	0.840700	0.901700
N1611	N161	0.394000	0.777500	0.962400
N1621	N162	0.368400	0.805400	0.860600
O1611	O161	0.394800	0.682600	0.963500
O1621	O162	0.425900	0.806500	0.753800
C1631	C163	0.894400	0.320100	0.474000
H1631	H163	0.894700	0.345500	0.454600
C1641	C164	0.840500	0.339800	0.374300
H1641	H164	0.824000	0.340700	0.401700
N1631	N163	0.894000	0.277500	0.462400
N1641	N164	0.868400	0.305400	0.360600
O1631	O163	0.894800	0.182600	0.463500
O1641	O164	0.925900	0.306500	0.253800
C1651	C165	0.605600	0.820100	0.026000
H1651	H165	0.605300	0.845500	0.045400
C1661	C166	0.659500	0.839800	0.125700
H1661	H166	0.676000	0.840700	0.098300
N1651	N165	0.606000	0.777500	0.037600
N1661	N166	0.631600	0.805400	0.139400
O1651	O165	0.605200	0.682600	0.036500
O1661	O166	0.574100	0.806500	0.246200
C1671	C167	0.105600	0.320100	0.526000
H1671	H167	0.105300	0.345500	0.545400
C1681	C168	0.159500	0.339800	0.625700
H1681	H168	0.176000	0.340700	0.598300
N1671	N167	0.106000	0.277500	0.537600
N1681	N168	0.131600	0.305400	0.639400
O1671	O167	0.105200	0.182600	0.536500
O1681	O168	0.074100	0.306500	0.746200
C1691	C169	0.605600	0.179900	0.974000
H1691	H169	0.605300	0.154500	0.954600
C1701	C170	0.659500	0.160200	0.874300
H1701	H170	0.676000	0.159300	0.901700
N1691	N169	0.606000	0.222500	0.962400
N1701	N170	0.631600	0.194600	0.860600
O1691	O169	0.605200	0.317400	0.963500
O1701	O170	0.574100	0.193500	0.753800
C1711	C171	0.105600	0.679900	0.474000
H1711	H171	0.105300	0.654500	0.454600
C1721	C172	0.159500	0.660200	0.374300
H1721	H172	0.176000	0.659300	0.401700
N1711	N171	0.106000	0.722500	0.462400
N1721	N172	0.131600	0.694600	0.360600
O1711	O171	0.105200	0.817400	0.463500
O1721	O172	0.074100	0.693500	0.253800
C1731	C173	0.394400	0.179900	0.026000
H1731	H173	0.394700	0.154500	0.045400
C1741	C174	0.340500	0.160200	0.125700
H1741	H174	0.324000	0.159300	0.098300
N1731	N173	0.394000	0.222500	0.037600
N1741	N174	0.368400	0.194600	0.139400
O1731	O173	0.394800	0.317400	0.036500
O1741	O174	0.425900	0.193500	0.246200
C1751	C175	0.894400	0.679900	0.526000
H1751	H175	0.894700	0.654500	0.545400
C1761	C176	0.840500	0.660200	0.625700
H1761	H176	0.824000	0.659300	0.598300
N1751	N175	0.894000	0.722500	0.537600
N1761	N176	0.868400	0.694600	0.639400
O1751	O175	0.894800	0.817400	0.536500
O1761	O176	0.925900	0.693500	0.746200
C1771	C177	0.820100	0.026000	0.605600
H1771	H177	0.845500	0.045400	0.605300
C1781	C178	0.839800	0.125700	0.659500
H1781	H178	0.840700	0.098300	0.676000
N1771	N177	0.777500	0.037600	0.606000
N1781	N178	0.805400	0.139400	0.631600
O1771	O177	0.682600	0.036500	0.605200
O1781	O178	0.806500	0.246200	0.574100
C1791	C179	0.320100	0.526000	0.105600
H1791	H179	0.345500	0.545400	0.105300
C1801	C180	0.339800	0.625700	0.159500
H1801	H180	0.340700	0.598300	0.176000
N1791	N179	0.277500	0.537600	0.106000
N1801	N180	0.305400	0.639400	0.131600
O1791	O179	0.182600	0.536500	0.105200
O1801	O180	0.306500	0.746200	0.074100
C1811	C181	0.820100	0.974000	0.394400
H1811	H181	0.845500	0.954600	0.394700
C1821	C182	0.839800	0.874300	0.340500
H1821	H182	0.840700	0.901700	0.324000
N1811	N181	0.777500	0.962400	0.394000
N1821	N182	0.805400	0.860600	0.368400
O1811	O181	0.682600	0.963500	0.394800
O1821	O182	0.806500	0.753800	0.425900
C1831	C183	0.320100	0.474000	0.894400
H1831	H183	0.345500	0.454600	0.894700
C1841	C184	0.339800	0.374300	0.840500
H1841	H184	0.340700	0.401700	0.824000
N1831	N183	0.277500	0.462400	0.894000
N1841	N184	0.305400	0.360600	0.868400
O1831	O183	0.182600	0.463500	0.894800
O1841	O184	0.306500	0.253800	0.925900
C1851	C185	0.179900	0.026000	0.394400
H1851	H185	0.154500	0.045400	0.394700
C1861	C186	0.160200	0.125700	0.340500
H1861	H186	0.159300	0.098300	0.324000
N1851	N185	0.222500	0.037600	0.394000
N1861	N186	0.194600	0.139400	0.368400
O1851	O185	0.317400	0.036500	0.394800
O1861	O186	0.193500	0.246200	0.425900
C1871	C187	0.679900	0.526000	0.894400
H1871	H187	0.654500	0.545400	0.894700
C1881	C188	0.660200	0.625700	0.840500
H1881	H188	0.659300	0.598300	0.824000
N1871	N187	0.722500	0.537600	0.894000
N1881	N188	0.694600	0.639400	0.868400
O1871	O187	0.817400	0.536500	0.894800
O1881	O188	0.693500	0.746200	0.925900
C1891	C189	0.179900	0.974000	0.605600
H1891	H189	0.154500	0.954600	0.605300
C1901	C190	0.160200	0.874300	0.659500
H1901	H190	0.159300	0.901700	0.676000
N1891	N189	0.222500	0.962400	0.606000
N1901	N190	0.194600	0.860600	0.631600
O1891	O189	0.317400	0.963500	0.605200
O1901	O190	0.193500	0.753800	0.574100
C1911	C191	0.679900	0.474000	0.105600
H1911	H191	0.654500	0.454600	0.105300
C1921	C192	0.660200	0.374300	0.159500
H1921	H192	0.659300	0.401700	0.176000
N1911	N191	0.722500	0.462400	0.106000
N1921	N192	0.694600	0.360600	0.131600
O1911	O191	0.817400	0.463500	0.105200
O1921	O192	0.693500	0.253800	0.074100
C1931	C193	0.615600	0.818700	0.181300
N1931	N193	0.586500	0.791000	0.209000
C1941	C194	0.115600	0.318700	0.681300
N1941	N194	0.086500	0.291000	0.709000
C1951	C195	0.384400	0.181300	0.181300
N1951	N195	0.413500	0.209000	0.209000
C1961	C196	0.884400	0.681300	0.681300
N1961	N196	0.913500	0.709000	0.709000
C1971	C197	0.384400	0.818700	0.818700
N1971	N197	0.413500	0.791000	0.791000
C1981	C198	0.884400	0.318700	0.318700
N1981	N198	0.913500	0.291000	0.291000
C1991	C199	0.615600	0.181300	0.818700
N1991	N199	0.586500	0.209000	0.791000
C2001	C200	0.115600	0.681300	0.318700
N2001	N200	0.086500	0.709000	0.291000
C2011	C201	0.181300	0.615600	0.818700
N2011	N201	0.209000	0.586500	0.791000
C2021	C202	0.681300	0.115600	0.318700
N2021	N202	0.709000	0.086500	0.291000
C2031	C203	0.181300	0.384400	0.181300
N2031	N203	0.209000	0.413500	0.209000
C2041	C204	0.681300	0.884400	0.681300
N2041	N204	0.709000	0.913500	0.709000
C2051	C205	0.818700	0.384400	0.818700
N2051	N205	0.791000	0.413500	0.791000
C2061	C206	0.318700	0.884400	0.318700
N2061	N206	0.291000	0.913500	0.291000
C2071	C207	0.818700	0.615600	0.181300
N2071	N207	0.791000	0.586500	0.209000
C2081	C208	0.318700	0.115600	0.681300
N2081	N208	0.291000	0.086500	0.709000
C2091	C209	0.818700	0.181300	0.615600
N2091	N209	0.791000	0.209000	0.586500
C2101	C210	0.318700	0.681300	0.115600
N2101	N210	0.291000	0.709000	0.086500
C2111	C211	0.181300	0.181300	0.384400
N2111	N211	0.209000	0.209000	0.413500
C2121	C212	0.681300	0.681300	0.884400
N2121	N212	0.709000	0.709000	0.913500
C2131	C213	0.818700	0.818700	0.384400
N2131	N213	0.791000	0.791000	0.413500
C2141	C214	0.318700	0.318700	0.884400
N2141	N214	0.291000	0.291000	0.913500
C2151	C215	0.181300	0.818700	0.615600
N2151	N215	0.209000	0.791000	0.586500
C2161	C216	0.681300	0.318700	0.115600
N2161	N216	0.709000	0.291000	0.086500
C2171	C217	0.818700	0.615600	0.818700
N2171	N217	0.791000	0.586500	0.791000
C2181	C218	0.318700	0.115600	0.318700
N2181	N218	0.291000	0.086500	0.291000
C2191	C219	0.181300	0.384400	0.818700
N2191	N219	0.209000	0.413500	0.791000
C2201	C220	0.681300	0.884400	0.318700
N2201	N220	0.709000	0.913500	0.291000
C2211	C221	0.818700	0.384400	0.181300
N2211	N221	0.791000	0.413500	0.209000
C2221	C222	0.318700	0.884400	0.681300
N2221	N222	0.291000	0.913500	0.709000
C2231	C223	0.181300	0.615600	0.181300
N2231	N223	0.209000	0.586500	0.209000
C2241	C224	0.681300	0.115600	0.681300
N2241	N224	0.709000	0.086500	0.709000
C2251	C225	0.615600	0.181300	0.181300
N2251	N225	0.586500	0.209000	0.209000
C2261	C226	0.115600	0.681300	0.681300
N2261	N226	0.086500	0.709000	0.709000
C2271	C227	0.384400	0.181300	0.818700
N2271	N227	0.413500	0.209000	0.791000
C2281	C228	0.884400	0.681300	0.318700
N2281	N228	0.913500	0.709000	0.291000
C2291	C229	0.384400	0.818700	0.181300
N2291	N229	0.413500	0.791000	0.209000
C2301	C230	0.884400	0.318700	0.681300
N2301	N230	0.913500	0.291000	0.709000
C2311	C231	0.615600	0.818700	0.818700
N2311	N231	0.586500	0.791000	0.791000
C2321	C232	0.115600	0.318700	0.318700
N2321	N232	0.086500	0.291000	0.291000
C2331	C233	0.181300	0.818700	0.384400
N2331	N233	0.209000	0.791000	0.413500
C2341	C234	0.681300	0.318700	0.884400
N2341	N234	0.709000	0.291000	0.913500
C2351	C235	0.181300	0.181300	0.615600
N2351	N235	0.209000	0.209000	0.586500
C2361	C236	0.681300	0.681300	0.115600
N2361	N236	0.709000	0.709000	0.086500
C2371	C237	0.818700	0.818700	0.615600
N2371	N237	0.791000	0.791000	0.586500
C2381	C238	0.318700	0.318700	0.115600
N2381	N238	0.291000	0.291000	0.086500
C2391	C239	0.818700	0.181300	0.384400
N2391	N239	0.791000	0.209000	0.413500
C2401	C240	0.318700	0.681300	0.884400
N2401	N240	0.291000	0.709000	0.913500
C2411	C241	0.606900	0.000000	0.250000
N2411	N241	0.607700	0.000000	0.295400
C2421	C242	0.106900	0.500000	0.750000
N2421	N242	0.107700	0.500000	0.795400
C2431	C243	0.393100	0.000000	0.250000
N2431	N243	0.392300	0.000000	0.295400
C2441	C244	0.893100	0.500000	0.750000
N2441	N244	0.892300	0.500000	0.795400
C2451	C245	0.393100	0.000000	0.750000
N2451	N245	0.392300	0.000000	0.704600
C2461	C246	0.893100	0.500000	0.250000
N2461	N246	0.892300	0.500000	0.204600
C2471	C247	0.606900	0.000000	0.750000
N2471	N247	0.607700	0.000000	0.704600
C2481	C248	0.106900	0.500000	0.250000
N2481	N248	0.107700	0.500000	0.204600
C2491	C249	0.250000	0.606900	0.000000
N2491	N249	0.295400	0.607700	0.000000
C2501	C250	0.750000	0.106900	0.500000
N2501	N250	0.795400	0.107700	0.500000
C2511	C251	0.250000	0.393100	0.000000
N2511	N251	0.295400	0.392300	0.000000
C2521	C252	0.750000	0.893100	0.500000
N2521	N252	0.795400	0.892300	0.500000
C2531	C253	0.750000	0.393100	0.000000
N2531	N253	0.704600	0.392300	0.000000
C2541	C254	0.250000	0.893100	0.500000
N2541	N254	0.204600	0.892300	0.500000
C2551	C255	0.750000	0.606900	0.000000
N2551	N255	0.704600	0.607700	0.000000
C2561	C256	0.250000	0.106900	0.500000
N2561	N256	0.204600	0.107700	0.500000
C2571	C257	0.000000	0.250000	0.606900
N2571	N257	0.000000	0.295400	0.607700
C2581	C258	0.500000	0.750000	0.106900
N2581	N258	0.500000	0.795400	0.107700
C2591	C259	0.000000	0.250000	0.393100
N2591	N259	0.000000	0.295400	0.392300
C2601	C260	0.500000	0.750000	0.893100
N2601	N260	0.500000	0.795400	0.892300
C2611	C261	0.000000	0.750000	0.393100
N2611	N261	0.000000	0.704600	0.392300
C2621	C262	0.500000	0.250000	0.893100
N2621	N262	0.500000	0.204600	0.892300
C2631	C263	0.000000	0.750000	0.606900
N2631	N263	0.000000	0.704600	0.607700
C2641	C264	0.500000	0.250000	0.106900
N2641	N264	0.500000	0.204600	0.107700
C2651	C265	0.000000	0.606900	0.750000
N2651	N265	0.000000	0.607700	0.704600
C2661	C266	0.500000	0.106900	0.250000
N2661	N266	0.500000	0.107700	0.204600
C2671	C267	0.000000	0.393100	0.750000
N2671	N267	0.000000	0.392300	0.704600
C2681	C268	0.500000	0.893100	0.250000
N2681	N268	0.500000	0.892300	0.204600
C2691	C269	0.000000	0.393100	0.250000
N2691	N269	0.000000	0.392300	0.295400
C2701	C270	0.500000	0.893100	0.750000
N2701	N270	0.500000	0.892300	0.795400
C2711	C271	0.000000	0.606900	0.250000
N2711	N271	0.000000	0.607700	0.295400
C2721	C272	0.500000	0.106900	0.750000
N2721	N272	0.500000	0.107700	0.795400
C2731	C273	0.606900	0.250000	0.000000
N2731	N273	0.607700	0.295400	0.000000
C2741	C274	0.106900	0.750000	0.500000
N2741	N274	0.107700	0.795400	0.500000
C2751	C275	0.393100	0.250000	0.000000
N2751	N275	0.392300	0.295400	0.000000
C2761	C276	0.893100	0.750000	0.500000
N2761	N276	0.892300	0.795400	0.500000
C2771	C277	0.393100	0.750000	0.000000
N2771	N277	0.392300	0.704600	0.000000
C2781	C278	0.893100	0.250000	0.500000
N2781	N278	0.892300	0.204600	0.500000
C2791	C279	0.606900	0.750000	0.000000
N2791	N279	0.607700	0.704600	0.000000
C2801	C280	0.106900	0.250000	0.500000
N2801	N280	0.107700	0.204600	0.500000
C2811	C281	0.250000	0.000000	0.393100
N2811	N281	0.295400	0.000000	0.392300
C2821	C282	0.750000	0.500000	0.893100
N2821	N282	0.795400	0.500000	0.892300
C2831	C283	0.250000	0.000000	0.606900
N2831	N283	0.295400	0.000000	0.607700
C2841	C284	0.750000	0.500000	0.106900
N2841	N284	0.795400	0.500000	0.107700
C2851	C285	0.750000	0.000000	0.606900
N2851	N285	0.704600	0.000000	0.607700
C2861	C286	0.250000	0.500000	0.106900
N2861	N286	0.204600	0.500000	0.107700
C2871	C287	0.750000	0.000000	0.393100
N2871	N287	0.704600	0.000000	0.392300
C2881	C288	0.250000	0.500000	0.893100
N2881	N288	0.204600	0.500000	0.892300
Co11	Co1	0.605000	0.895000	0.250000
Co21	Co2	0.395000	0.105000	0.250000
Co31	Co3	0.395000	0.895000	0.750000
Co41	Co4	0.605000	0.105000	0.750000
Co51	Co5	0.250000	0.605000	0.895000
Co61	Co6	0.250000	0.395000	0.105000
Co71	Co7	0.750000	0.395000	0.895000
Co81	Co8	0.750000	0.605000	0.105000
Co91	Co9	0.895000	0.250000	0.605000
Co101	Co10	0.105000	0.250000	0.395000
Co111	Co11	0.895000	0.750000	0.395000
Co121	Co12	0.105000	0.750000	0.605000
Co131	Co13	0.895000	0.605000	0.750000
Co141	Co14	0.105000	0.395000	0.750000
Co151	Co15	0.895000	0.395000	0.250000
Co161	Co16	0.105000	0.605000	0.250000
Co171	Co17	0.605000	0.250000	0.105000
Co181	Co18	0.395000	0.250000	0.895000
Co191	Co19	0.395000	0.750000	0.105000
Co201	Co20	0.605000	0.750000	0.895000
Co211	Co21	0.250000	0.895000	0.395000
Co221	Co22	0.250000	0.105000	0.605000
Co231	Co23	0.750000	0.895000	0.605000
Co241	Co24	0.750000	0.105000	0.395000
Co251	Co25	0.395000	0.105000	0.750000
Co261	Co26	0.605000	0.895000	0.750000
Co271	Co27	0.605000	0.105000	0.250000
Co281	Co28	0.395000	0.895000	0.250000
Co291	Co29	0.750000	0.395000	0.105000
Co301	Co30	0.750000	0.605000	0.895000
Co311	Co31	0.250000	0.605000	0.105000
Co321	Co32	0.250000	0.395000	0.895000
Co331	Co33	0.105000	0.750000	0.395000
Co341	Co34	0.895000	0.750000	0.605000
Co351	Co35	0.105000	0.250000	0.605000
Co361	Co36	0.895000	0.250000	0.395000
Co371	Co37	0.105000	0.395000	0.250000
Co381	Co38	0.895000	0.605000	0.250000
Co391	Co39	0.105000	0.605000	0.750000
Co401	Co40	0.895000	0.395000	0.750000
Co411	Co41	0.395000	0.750000	0.895000
Co421	Co42	0.605000	0.750000	0.105000
Co431	Co43	0.605000	0.250000	0.895000
Co441	Co44	0.395000	0.250000	0.105000
Co451	Co45	0.750000	0.105000	0.605000
Co461	Co46	0.750000	0.895000	0.395000
Co471	Co47	0.250000	0.105000	0.395000
Co481	Co48	0.250000	0.895000	0.605000
