data_UZATAR_clean_PM
_symmetry_space_group_name_H-M	'P1'
_cell_length_a	9.676200
_cell_length_b	10.994900
_cell_length_c	11.496000
_cell_angle_alpha	104.931000
_cell_angle_beta	90.785000
_cell_angle_gamma	114.247000
_symmetry_Int_Tables_number 1

loop_
_symmetry_equiv_pos_as_xyz
'x,y,z'

loop_
_atom_site_label
_atom_site_type_symbol
_atom_site_fract_x
_atom_site_fract_y
_atom_site_fract_z
Er11	Er1	0.017540	0.924420	0.829530
Er21	Er2	0.993260	0.492490	0.753220
Er31	Er3	0.982460	0.075580	0.170470
Er41	Er4	0.006740	0.507510	0.246780
H11	H1	0.505300	0.183000	0.155400
H21	H2	0.511900	0.717900	0.093000
H31	H3	0.408900	0.293400	0.344700
H41	H4	0.494700	0.817000	0.844600
H51	H5	0.488100	0.282100	0.907000
H61	H6	0.591100	0.706600	0.655300
C11	C1	0.228100	0.998000	0.101100
C21	C2	0.364100	0.993800	0.045700
C31	C3	0.503100	0.108900	0.092900
C41	C4	0.360500	0.883500	0.950900
C51	C5	0.759100	0.754100	0.991000
C61	C6	0.627300	0.620100	0.995000
C71	C7	0.506300	0.630100	0.055000
C81	C8	0.217300	0.750800	0.892600
C91	C9	0.707700	0.383700	0.398900
C101	C10	0.654800	0.564000	0.551200
C111	C11	0.446000	0.377200	0.406400
C121	C12	0.599400	0.441000	0.454300
C131	C13	0.814000	0.630900	0.613700
C141	C14	0.750100	0.469100	0.882700
C151	C15	0.621800	0.486800	0.940300
C161	C16	0.771900	0.002000	0.898900
C171	C17	0.635900	0.006200	0.954300
C181	C18	0.496900	0.891100	0.907100
C191	C19	0.639500	0.116500	0.049100
C201	C20	0.240900	0.245900	0.009000
C211	C21	0.372700	0.379900	0.005000
C221	C22	0.493700	0.369900	0.945000
C231	C23	0.782700	0.249200	0.107400
C241	C24	0.292300	0.616300	0.601100
C251	C25	0.345200	0.436000	0.448800
C261	C26	0.554000	0.622800	0.593600
C271	C27	0.400600	0.559000	0.545700
C281	C28	0.186000	0.369100	0.386300
C291	C29	0.249900	0.530900	0.117300
C301	C30	0.378200	0.513200	0.059700
O11	O1	0.724800	0.376100	0.784400
O21	O2	0.887000	0.548200	0.931400
O31	O3	0.819500	0.467200	0.362700
O41	O4	0.217600	0.638600	0.897500
O51	O5	0.106300	0.751200	0.833000
O61	O6	0.868700	0.549500	0.628700
O71	O7	0.884900	0.761200	0.646800
O81	O8	0.813800	0.758600	0.894100
O91	O9	0.794900	0.852200	0.087200
O101	O10	0.241100	0.057700	0.210600
O111	O11	0.098000	0.946400	0.033500
O121	O12	0.678900	0.260300	0.388300
O131	O13	0.275200	0.623900	0.215600
O141	O14	0.113000	0.451800	0.068600
O151	O15	0.180500	0.532800	0.637300
O161	O16	0.782400	0.361400	0.102500
O171	O17	0.893700	0.248800	0.167000
O181	O18	0.131300	0.450500	0.371300
O191	O19	0.115100	0.238800	0.353200
O201	O20	0.186200	0.241400	0.105900
O211	O21	0.205100	0.147800	0.912800
O221	O22	0.758900	0.942300	0.789400
O231	O23	0.902000	0.053600	0.966500
O241	O24	0.321100	0.739700	0.611700
