data_UZEKEQ_clean_PM
_symmetry_space_group_name_H-M	'P1'
_cell_length_a	17.857000
_cell_length_b	19.720000
_cell_length_c	7.923000
_cell_angle_alpha	90.000000
_cell_angle_beta	106.571000
_cell_angle_gamma	90.000000
_symmetry_Int_Tables_number 1

loop_
_symmetry_equiv_pos_as_xyz
'x,y,z'

loop_
_atom_site_label
_atom_site_type_symbol
_atom_site_fract_x
_atom_site_fract_y
_atom_site_fract_z
C11	C1	0.114800	0.258400	0.496400
H11	H1	0.066200	0.252600	0.414500
C21	C2	0.155200	0.210400	0.606300
H21	H2	0.139700	0.165700	0.612700
C31	C3	0.223100	0.304400	0.652400
H31	H3	0.262900	0.335700	0.696400
C41	C4	0.283500	0.207700	0.843700
C51	C5	0.270900	0.142200	0.895500
H41	H4	0.225100	0.118700	0.841700
C61	C6	0.330000	0.113100	0.031600
H51	H5	0.322500	0.069700	0.069600
C71	C7	0.397900	0.145700	0.110400
C81	C8	0.409400	0.210300	0.053000
H61	H6	0.456200	0.232800	0.104000
C91	C9	0.352700	0.241400	0.922100
H71	H7	0.360800	0.285000	0.885900
C101	C10	0.460100	0.112800	0.252500
Cu11	Cu1	0.128050	0.407770	0.424540
N11	N1	0.157900	0.317420	0.526400
N21	N2	0.223900	0.239600	0.708200
O11	O1	0.530040	0.130270	0.276500
O21	O2	0.437250	0.067430	0.341600
O31	O3	0.232180	0.439150	0.536000
C111	C11	0.614800	0.758400	0.496400
H81	H8	0.566200	0.752600	0.414500
C121	C12	0.655200	0.710400	0.606300
H91	H9	0.639700	0.665700	0.612700
C131	C13	0.723100	0.804400	0.652400
H101	H10	0.762900	0.835700	0.696400
C141	C14	0.783500	0.707700	0.843700
C151	C15	0.770900	0.642200	0.895500
H111	H11	0.725100	0.618700	0.841700
C161	C16	0.830000	0.613100	0.031600
H121	H12	0.822500	0.569700	0.069600
C171	C17	0.897900	0.645700	0.110400
C181	C18	0.909400	0.710300	0.053000
H131	H13	0.956200	0.732800	0.104000
C191	C19	0.852700	0.741400	0.922100
H141	H14	0.860800	0.785000	0.885900
C201	C20	0.960100	0.612800	0.252500
Cu21	Cu2	0.628050	0.907770	0.424540
N31	N3	0.657900	0.817420	0.526400
N41	N4	0.723900	0.739600	0.708200
O41	O4	0.030040	0.630270	0.276500
O51	O5	0.937250	0.567430	0.341600
O61	O6	0.732180	0.939150	0.536000
C211	C21	0.885200	0.258400	0.503600
H151	H15	0.933800	0.252600	0.585500
C221	C22	0.844800	0.210400	0.393700
H161	H16	0.860300	0.165700	0.387300
C231	C23	0.776900	0.304400	0.347600
H171	H17	0.737100	0.335700	0.303600
C241	C24	0.716500	0.207700	0.156300
C251	C25	0.729100	0.142200	0.104500
H181	H18	0.774900	0.118700	0.158300
C261	C26	0.670000	0.113100	0.968400
H191	H19	0.677500	0.069700	0.930400
C271	C27	0.602100	0.145700	0.889600
C281	C28	0.590600	0.210300	0.947000
H201	H20	0.543800	0.232800	0.896000
C291	C29	0.647300	0.241400	0.077900
H211	H21	0.639200	0.285000	0.114100
C301	C30	0.539900	0.112800	0.747500
Cu31	Cu3	0.871950	0.407770	0.575460
N51	N5	0.842100	0.317420	0.473600
N61	N6	0.776100	0.239600	0.291800
O71	O7	0.469960	0.130270	0.723500
O81	O8	0.562750	0.067430	0.658400
O91	O9	0.767820	0.439150	0.464000
C311	C31	0.385200	0.758400	0.503600
H221	H22	0.433800	0.752600	0.585500
C321	C32	0.344800	0.710400	0.393700
H231	H23	0.360300	0.665700	0.387300
C331	C33	0.276900	0.804400	0.347600
H241	H24	0.237100	0.835700	0.303600
C341	C34	0.216500	0.707700	0.156300
C351	C35	0.229100	0.642200	0.104500
H251	H25	0.274900	0.618700	0.158300
C361	C36	0.170000	0.613100	0.968400
H261	H26	0.177500	0.569700	0.930400
C371	C37	0.102100	0.645700	0.889600
C381	C38	0.090600	0.710300	0.947000
H271	H27	0.043800	0.732800	0.896000
C391	C39	0.147300	0.741400	0.077900
H281	H28	0.139200	0.785000	0.114100
C401	C40	0.039900	0.612800	0.747500
Cu41	Cu4	0.371950	0.907770	0.575460
N71	N7	0.342100	0.817420	0.473600
N81	N8	0.276100	0.739600	0.291800
O101	O10	0.969960	0.630270	0.723500
O111	O11	0.062750	0.567430	0.658400
O121	O12	0.267820	0.939150	0.464000
C411	C41	0.885200	0.741600	0.503600
H291	H29	0.933800	0.747400	0.585500
C421	C42	0.844800	0.789600	0.393700
H301	H30	0.860300	0.834300	0.387300
C431	C43	0.776900	0.695600	0.347600
H311	H31	0.737100	0.664300	0.303600
C441	C44	0.716500	0.792300	0.156300
C451	C45	0.729100	0.857800	0.104500
H321	H32	0.774900	0.881300	0.158300
C461	C46	0.670000	0.886900	0.968400
H331	H33	0.677500	0.930300	0.930400
C471	C47	0.602100	0.854300	0.889600
C481	C48	0.590600	0.789700	0.947000
H341	H34	0.543800	0.767200	0.896000
C491	C49	0.647300	0.758600	0.077900
H351	H35	0.639200	0.715000	0.114100
C501	C50	0.539900	0.887200	0.747500
Cu51	Cu5	0.871950	0.592230	0.575460
N91	N9	0.842100	0.682580	0.473600
N101	N10	0.776100	0.760400	0.291800
O131	O13	0.469960	0.869730	0.723500
O141	O14	0.562750	0.932570	0.658400
O151	O15	0.767820	0.560850	0.464000
C511	C51	0.385200	0.241600	0.503600
H361	H36	0.433800	0.247400	0.585500
C521	C52	0.344800	0.289600	0.393700
H371	H37	0.360300	0.334300	0.387300
C531	C53	0.276900	0.195600	0.347600
H381	H38	0.237100	0.164300	0.303600
C541	C54	0.216500	0.292300	0.156300
C551	C55	0.229100	0.357800	0.104500
H391	H39	0.274900	0.381300	0.158300
C561	C56	0.170000	0.386900	0.968400
H401	H40	0.177500	0.430300	0.930400
C571	C57	0.102100	0.354300	0.889600
C581	C58	0.090600	0.289700	0.947000
H411	H41	0.043800	0.267200	0.896000
C591	C59	0.147300	0.258600	0.077900
H421	H42	0.139200	0.215000	0.114100
C601	C60	0.039900	0.387200	0.747500
Cu61	Cu6	0.371950	0.092230	0.575460
N111	N11	0.342100	0.182580	0.473600
N121	N12	0.276100	0.260400	0.291800
O161	O16	0.969960	0.369730	0.723500
O171	O17	0.062750	0.432570	0.658400
O181	O18	0.267820	0.060850	0.464000
C611	C61	0.114800	0.741600	0.496400
H431	H43	0.066200	0.747400	0.414500
C621	C62	0.155200	0.789600	0.606300
H441	H44	0.139700	0.834300	0.612700
C631	C63	0.223100	0.695600	0.652400
H451	H45	0.262900	0.664300	0.696400
C641	C64	0.283500	0.792300	0.843700
C651	C65	0.270900	0.857800	0.895500
H461	H46	0.225100	0.881300	0.841700
C661	C66	0.330000	0.886900	0.031600
H471	H47	0.322500	0.930300	0.069600
C671	C67	0.397900	0.854300	0.110400
C681	C68	0.409400	0.789700	0.053000
H481	H48	0.456200	0.767200	0.104000
C691	C69	0.352700	0.758600	0.922100
H491	H49	0.360800	0.715000	0.885900
C701	C70	0.460100	0.887200	0.252500
Cu71	Cu7	0.128050	0.592230	0.424540
N131	N13	0.157900	0.682580	0.526400
N141	N14	0.223900	0.760400	0.708200
O191	O19	0.530040	0.869730	0.276500
O201	O20	0.437250	0.932570	0.341600
O211	O21	0.232180	0.560850	0.536000
C711	C71	0.614800	0.241600	0.496400
H501	H50	0.566200	0.247400	0.414500
C721	C72	0.655200	0.289600	0.606300
H511	H51	0.639700	0.334300	0.612700
C731	C73	0.723100	0.195600	0.652400
H521	H52	0.762900	0.164300	0.696400
C741	C74	0.783500	0.292300	0.843700
C751	C75	0.770900	0.357800	0.895500
H531	H53	0.725100	0.381300	0.841700
C761	C76	0.830000	0.386900	0.031600
H541	H54	0.822500	0.430300	0.069600
C771	C77	0.897900	0.354300	0.110400
C781	C78	0.909400	0.289700	0.053000
H551	H55	0.956200	0.267200	0.104000
C791	C79	0.852700	0.258600	0.922100
H561	H56	0.860800	0.215000	0.885900
C801	C80	0.960100	0.387200	0.252500
Cu81	Cu8	0.628050	0.092230	0.424540
N151	N15	0.657900	0.182580	0.526400
N161	N16	0.723900	0.260400	0.708200
O221	O22	0.030040	0.369730	0.276500
O231	O23	0.937250	0.432570	0.341600
O241	O24	0.732180	0.060850	0.536000
Cu91	Cu9	0.500000	0.000000	0.500000
Cu101	Cu10	0.000000	0.500000	0.500000
N171	N17	0.412300	0.000000	0.686100
N181	N18	0.446000	0.000000	0.854400
N191	N19	0.912300	0.500000	0.686100
N201	N20	0.946000	0.500000	0.854400
N211	N21	0.587700	0.000000	0.313900
N221	N22	0.554000	0.000000	0.145600
N231	N23	0.087700	0.500000	0.313900
N241	N24	0.054000	0.500000	0.145600
N251	N25	0.020000	0.500000	0.986800
N261	N26	0.520000	0.000000	0.986800
N271	N27	0.980000	0.500000	0.013200
N281	N28	0.480000	0.000000	0.013200
O251	O25	0.271500	0.500000	0.313100
O261	O26	0.350600	0.500000	0.618200
S11	S1	0.272350	0.500000	0.501200
O271	O27	0.771500	0.000000	0.313100
O281	O28	0.850600	0.000000	0.618200
S21	S2	0.772350	0.000000	0.501200
O291	O29	0.728500	0.500000	0.686900
O301	O30	0.649400	0.500000	0.381800
S31	S3	0.727650	0.500000	0.498800
O311	O31	0.228500	0.000000	0.686900
O321	O32	0.149400	0.000000	0.381800
S41	S4	0.227650	0.000000	0.498800
