data_UZIJUJ_clean_PM
_symmetry_space_group_name_H-M	'P1'
_cell_length_a	11.440000
_cell_length_b	12.288000
_cell_length_c	36.854000
_cell_angle_alpha	90.000000
_cell_angle_beta	90.000000
_cell_angle_gamma	117.642000
_symmetry_Int_Tables_number 1

loop_
_symmetry_equiv_pos_as_xyz
'x,y,z'

loop_
_atom_site_label
_atom_site_type_symbol
_atom_site_fract_x
_atom_site_fract_y
_atom_site_fract_z
Ce11	Ce1	0.130230	0.629990	0.536490
Ce21	Ce2	0.369770	0.370010	0.036490
Ce31	Ce3	0.869770	0.370010	0.463510
Ce41	Ce4	0.630230	0.629990	0.963510
H11	H1	0.451700	0.450600	0.171700
H21	H2	0.526800	0.182600	0.135300
H31	H3	0.575300	0.147800	0.193700
H41	H4	0.501200	0.416400	0.229900
H51	H5	0.541200	0.292500	0.271000
H61	H6	0.811200	0.067700	0.405000
H71	H7	0.454700	0.297400	0.370400
H81	H8	0.254000	0.273400	0.392400
H91	H9	0.686000	0.045900	0.300300
H101	H10	0.642600	0.113700	0.404900
H111	H11	0.020300	0.923800	0.477900
H121	H12	0.589500	0.312300	0.324800
H131	H13	0.952000	0.048300	0.447200
H141	H14	0.788800	0.640800	0.415800
H151	H15	0.720300	0.764200	0.384400
H161	H16	0.478300	0.577300	0.474800
H171	H17	0.583000	0.480300	0.445900
H181	H18	0.146800	0.362900	0.425400
H191	H19	0.048300	0.549400	0.671700
H201	H20	0.973200	0.817400	0.635300
H211	H21	0.924700	0.852200	0.693700
H221	H22	0.998800	0.583600	0.729900
H231	H23	0.958800	0.707500	0.771000
H241	H24	0.688800	0.932300	0.905000
H251	H25	0.045300	0.702600	0.870400
H261	H26	0.246000	0.726600	0.892400
H271	H27	0.814000	0.954100	0.800300
H281	H28	0.857400	0.886300	0.904900
H291	H29	0.479700	0.076200	0.977900
H301	H30	0.910500	0.687700	0.824800
H311	H31	0.548000	0.951700	0.947200
H321	H32	0.711200	0.359200	0.915800
H331	H33	0.779700	0.235800	0.884400
H341	H34	0.021700	0.422700	0.974800
H351	H35	0.917000	0.519700	0.945900
H361	H36	0.353200	0.637100	0.925400
H371	H37	0.548300	0.549400	0.828300
H381	H38	0.473200	0.817400	0.864700
H391	H39	0.424700	0.852200	0.806300
H401	H40	0.498800	0.583600	0.770100
H411	H41	0.458800	0.707500	0.729000
H421	H42	0.188800	0.932300	0.595000
H431	H43	0.545300	0.702600	0.629600
H441	H44	0.746000	0.726600	0.607600
H451	H45	0.314000	0.954100	0.699700
H461	H46	0.357400	0.886300	0.595100
H471	H47	0.979700	0.076200	0.522100
H481	H48	0.410500	0.687700	0.675200
H491	H49	0.048000	0.951700	0.552800
H501	H50	0.211200	0.359200	0.584200
H511	H51	0.279700	0.235800	0.615600
H521	H52	0.521700	0.422700	0.525200
H531	H53	0.417000	0.519700	0.554100
H541	H54	0.853200	0.637100	0.574600
H551	H55	0.951700	0.450600	0.328300
H561	H56	0.026800	0.182600	0.364700
H571	H57	0.075300	0.147800	0.306300
H581	H58	0.001200	0.416400	0.270100
H591	H59	0.041200	0.292500	0.229000
H601	H60	0.311200	0.067700	0.095000
H611	H61	0.954700	0.297400	0.129600
H621	H62	0.754000	0.273400	0.107600
H631	H63	0.186000	0.045900	0.199700
H641	H64	0.142600	0.113700	0.095100
H651	H65	0.520300	0.923800	0.022100
H661	H66	0.089500	0.312300	0.175200
H671	H67	0.452000	0.048300	0.052800
H681	H68	0.288800	0.640800	0.084200
H691	H69	0.220300	0.764200	0.115600
H701	H70	0.978300	0.577300	0.025200
H711	H71	0.083000	0.480300	0.054100
H721	H72	0.646800	0.362900	0.074600
C11	C1	0.447200	0.338900	0.109670
C21	C2	0.482300	0.318200	0.147170
C31	C3	0.476000	0.389300	0.175990
C41	C4	0.520700	0.229500	0.154320
C51	C5	0.550300	0.208700	0.189360
C61	C6	0.505900	0.368900	0.210830
C71	C7	0.542600	0.278500	0.217620
C81	C8	0.595600	0.302000	0.398050
C91	C9	0.432000	0.376900	0.413900
C101	C10	0.300900	0.336500	0.408700
C111	C11	0.680500	0.073400	0.353880
C121	C12	0.670200	0.093100	0.317470
C131	C13	0.301800	0.485000	0.452010
C141	C14	0.234100	0.546400	0.472170
C151	C15	0.910200	0.768600	0.450240
C161	C16	0.951700	0.683400	0.469400
C171	C17	0.622500	0.233200	0.369010
C181	C18	0.647700	0.135400	0.380600
C191	C19	0.959200	0.891100	0.459190
C201	C20	0.612500	0.252300	0.332090
C211	C21	0.828300	0.918700	0.412740
C221	C22	0.918500	0.966100	0.440710
C231	C23	0.636300	0.183300	0.306130
C241	C24	0.821900	0.723000	0.422300
C251	C25	0.780300	0.796900	0.403300
C261	C26	0.431400	0.516100	0.458000
C271	C27	0.714900	0.973900	0.364250
C281	C28	0.496400	0.460300	0.440000
C291	C29	0.629600	0.198600	0.266050
C301	C30	0.237000	0.391800	0.428600
C311	C31	0.052800	0.661100	0.609670
C321	C32	0.017700	0.681800	0.647170
C331	C33	0.024000	0.610700	0.675990
C341	C34	0.979300	0.770500	0.654320
C351	C35	0.949700	0.791300	0.689360
C361	C36	0.994100	0.631100	0.710830
C371	C37	0.957400	0.721500	0.717620
C381	C38	0.904400	0.698000	0.898050
C391	C39	0.068000	0.623100	0.913900
C401	C40	0.199100	0.663500	0.908700
C411	C41	0.819500	0.926600	0.853880
C421	C42	0.829800	0.906900	0.817470
C431	C43	0.198200	0.515000	0.952010
C441	C44	0.265900	0.453600	0.972170
C451	C45	0.589800	0.231400	0.950240
C461	C46	0.548300	0.316600	0.969400
C471	C47	0.877500	0.766800	0.869010
C481	C48	0.852300	0.864600	0.880600
C491	C49	0.540800	0.108900	0.959190
C501	C50	0.887500	0.747700	0.832090
C511	C51	0.671700	0.081300	0.912740
C521	C52	0.581500	0.033900	0.940710
C531	C53	0.863700	0.816700	0.806130
C541	C54	0.678100	0.277000	0.922300
C551	C55	0.719700	0.203100	0.903300
C561	C56	0.068600	0.483900	0.958000
C571	C57	0.785100	0.026100	0.864250
C581	C58	0.003600	0.539700	0.940000
C591	C59	0.870400	0.801400	0.766050
C601	C60	0.263000	0.608200	0.928600
C611	C61	0.552800	0.661100	0.890330
C621	C62	0.517700	0.681800	0.852830
C631	C63	0.524000	0.610700	0.824010
C641	C64	0.479300	0.770500	0.845680
C651	C65	0.449700	0.791300	0.810640
C661	C66	0.494100	0.631100	0.789170
C671	C67	0.457400	0.721500	0.782380
C681	C68	0.404400	0.698000	0.601950
C691	C69	0.568000	0.623100	0.586100
C701	C70	0.699100	0.663500	0.591300
C711	C71	0.319500	0.926600	0.646120
C721	C72	0.329800	0.906900	0.682530
C731	C73	0.698200	0.515000	0.547990
C741	C74	0.765900	0.453600	0.527830
C751	C75	0.089800	0.231400	0.549760
C761	C76	0.048300	0.316600	0.530600
C771	C77	0.377500	0.766800	0.630990
C781	C78	0.352300	0.864600	0.619400
C791	C79	0.040800	0.108900	0.540810
C801	C80	0.387500	0.747700	0.667910
C811	C81	0.171700	0.081300	0.587260
C821	C82	0.081500	0.033900	0.559290
C831	C83	0.363700	0.816700	0.693870
C841	C84	0.178100	0.277000	0.577700
C851	C85	0.219700	0.203100	0.596700
C861	C86	0.568600	0.483900	0.542000
C871	C87	0.285100	0.026100	0.635750
C881	C88	0.503600	0.539700	0.560000
C891	C89	0.370400	0.801400	0.733950
C901	C90	0.763000	0.608200	0.571400
C911	C91	0.947200	0.338900	0.390330
C921	C92	0.982300	0.318200	0.352830
C931	C93	0.976000	0.389300	0.324010
C941	C94	0.020700	0.229500	0.345680
C951	C95	0.050300	0.208700	0.310640
C961	C96	0.005900	0.368900	0.289170
C971	C97	0.042600	0.278500	0.282380
C981	C98	0.095600	0.302000	0.101950
C991	C99	0.932000	0.376900	0.086100
C1001	C100	0.800900	0.336500	0.091300
C1011	C101	0.180500	0.073400	0.146120
C1021	C102	0.170200	0.093100	0.182530
C1031	C103	0.801800	0.485000	0.047990
C1041	C104	0.734100	0.546400	0.027830
C1051	C105	0.410200	0.768600	0.049760
C1061	C106	0.451700	0.683400	0.030600
C1071	C107	0.122500	0.233200	0.130990
C1081	C108	0.147700	0.135400	0.119400
C1091	C109	0.459200	0.891100	0.040810
C1101	C110	0.112500	0.252300	0.167910
C1111	C111	0.328300	0.918700	0.087260
C1121	C112	0.418500	0.966100	0.059290
C1131	C113	0.136300	0.183300	0.193870
C1141	C114	0.321900	0.723000	0.077700
C1151	C115	0.280300	0.796900	0.096700
C1161	C116	0.931400	0.516100	0.042000
C1171	C117	0.214900	0.973900	0.135750
C1181	C118	0.996400	0.460300	0.060000
C1191	C119	0.129600	0.198600	0.233950
C1201	C120	0.737000	0.391800	0.071400
N11	N1	0.568500	0.260000	0.254570
N21	N2	0.787500	0.997200	0.395090
N31	N3	0.491000	0.321600	0.391310
N41	N4	0.931500	0.740000	0.754570
N51	N5	0.712500	0.002800	0.895090
N61	N6	0.009000	0.678400	0.891310
N71	N7	0.431500	0.740000	0.745430
N81	N8	0.212500	0.002800	0.604910
N91	N9	0.509000	0.678400	0.608690
N101	N10	0.068500	0.260000	0.245430
N111	N11	0.287500	0.997200	0.104910
N121	N12	0.991000	0.321600	0.108690
O11	O1	0.038700	0.726200	0.493670
O21	O2	0.658300	0.331700	0.426670
O31	O3	0.435600	0.432700	0.102430
O41	O4	0.424800	0.255400	0.085760
O51	O5	0.894600	0.574100	0.458710
O61	O6	0.111100	0.507900	0.468370
O71	O7	0.686700	0.162100	0.245400
O81	O8	0.300500	0.632500	0.493220
O91	O9	0.678400	0.881800	0.346100
O101	O10	0.461300	0.273800	0.993670
O111	O11	0.841700	0.668300	0.926670
O121	O12	0.064400	0.567300	0.602430
O131	O13	0.075200	0.744600	0.585760
O141	O14	0.605400	0.425900	0.958710
O151	O15	0.388900	0.492100	0.968370
O161	O16	0.813300	0.837900	0.745400
O171	O17	0.199500	0.367500	0.993220
O181	O18	0.821600	0.118200	0.846100
O191	O19	0.961300	0.273800	0.506330
O201	O20	0.341700	0.668300	0.573330
O211	O21	0.564400	0.567300	0.897570
O221	O22	0.575200	0.744600	0.914240
O231	O23	0.105400	0.425900	0.541290
O241	O24	0.888900	0.492100	0.531630
O251	O25	0.313300	0.837900	0.754600
O261	O26	0.699500	0.367500	0.506780
O271	O27	0.321600	0.118200	0.653900
O281	O28	0.538700	0.726200	0.006330
O291	O29	0.158300	0.331700	0.073330
O301	O30	0.935600	0.432700	0.397570
O311	O31	0.924800	0.255400	0.414240
O321	O32	0.394600	0.574100	0.041290
O331	O33	0.611100	0.507900	0.031630
O341	O34	0.186700	0.162100	0.254600
O351	O35	0.800500	0.632500	0.006780
O361	O36	0.178400	0.881800	0.153900
