data_UZIZUZ_clean_PM
_symmetry_space_group_name_H-M	'P1'
_cell_length_a	26.280000
_cell_length_b	47.800000
_cell_length_c	9.585000
_cell_angle_alpha	90.000000
_cell_angle_beta	90.000000
_cell_angle_gamma	90.000000
_symmetry_Int_Tables_number 1

loop_
_symmetry_equiv_pos_as_xyz
'x,y,z'

loop_
_atom_site_label
_atom_site_type_symbol
_atom_site_fract_x
_atom_site_fract_y
_atom_site_fract_z
N11	N1	0.141000	0.232490	0.701300
C11	C1	0.104400	0.252500	0.732600
H11	H1	0.079700	0.248800	0.799500
C21	C2	0.104700	0.278110	0.663900
H21	H2	0.080100	0.291500	0.684800
C31	C3	0.141600	0.283710	0.563900
C41	C4	0.178200	0.263700	0.532600
H31	H3	0.202900	0.267400	0.465700
C51	C5	0.177900	0.238090	0.601300
H41	H4	0.202500	0.224700	0.580300
C61	C6	0.146400	0.310100	0.473000
C71	C7	0.173000	0.329400	0.423000
C81	C8	0.140400	0.352900	0.359700
C91	C9	0.173700	0.357700	0.249700
H51	H5	0.199900	0.345200	0.231800
C101	C10	0.167900	0.381300	0.166500
H61	H6	0.190200	0.384500	0.092900
N21	N2	0.128700	0.400100	0.193300
C111	C11	0.095400	0.395300	0.303300
H71	H7	0.069200	0.407900	0.321200
C121	C12	0.101200	0.371700	0.386500
H81	H8	0.078900	0.368500	0.460100
C131	C13	0.370200	0.198000	0.042000
H91	H9	0.370600	0.213300	0.102200
N31	N3	0.222200	0.190530	0.857000
C141	C14	0.237200	0.211660	0.947700
H101	H10	0.214200	0.225500	0.973900
C151	C15	0.286700	0.212150	0.999400
H111	H11	0.296700	0.226300	0.060100
C161	C16	0.321100	0.191500	0.960200
C171	C17	0.306100	0.170400	0.869500
H121	H12	0.329100	0.156600	0.843300
C181	C18	0.256700	0.169890	0.817800
H131	H13	0.246600	0.155800	0.757100
C191	C19	0.409500	0.183600	0.029000
H141	H14	0.406600	0.169800	0.961200
C201	C20	0.455000	0.183500	0.093200
C211	C21	0.463500	0.199000	0.213900
H151	H15	0.436700	0.208500	0.256100
C221	C22	0.512000	0.200200	0.271500
H161	H16	0.517700	0.210500	0.352300
N41	N4	0.552000	0.186000	0.208500
C231	C23	0.543500	0.170500	0.087800
H171	H17	0.570200	0.161000	0.045600
C241	C24	0.495000	0.169300	0.030200
H181	H18	0.489300	0.159000	0.949400
Cd11	Cd1	0.135380	0.188270	0.800900
C251	C25	0.119300	0.331500	0.465000
N51	N5	0.141000	0.732490	0.201300
C261	C26	0.104400	0.752500	0.232600
H191	H19	0.079700	0.748800	0.299500
C271	C27	0.104700	0.778110	0.163900
H201	H20	0.080100	0.791500	0.184800
C281	C28	0.141600	0.783710	0.063900
C291	C29	0.178200	0.763700	0.032600
H211	H21	0.202900	0.767400	0.965700
C301	C30	0.177900	0.738090	0.101300
H221	H22	0.202500	0.724700	0.080300
C311	C31	0.146400	0.810100	0.973000
C321	C32	0.173000	0.829400	0.923000
C331	C33	0.140400	0.852900	0.859700
C341	C34	0.173700	0.857700	0.749700
H231	H23	0.199900	0.845200	0.731800
C351	C35	0.167900	0.881300	0.666500
H241	H24	0.190200	0.884500	0.592900
N61	N6	0.128700	0.900100	0.693300
C361	C36	0.095400	0.895300	0.803300
H251	H25	0.069200	0.907900	0.821200
C371	C37	0.101200	0.871700	0.886500
H261	H26	0.078900	0.868500	0.960100
C381	C38	0.370200	0.698000	0.542000
H271	H27	0.370600	0.713300	0.602200
N71	N7	0.222200	0.690530	0.357000
C391	C39	0.237200	0.711660	0.447700
H281	H28	0.214200	0.725500	0.473900
C401	C40	0.286700	0.712150	0.499400
H291	H29	0.296700	0.726300	0.560100
C411	C41	0.321100	0.691500	0.460200
C421	C42	0.306100	0.670400	0.369500
H301	H30	0.329100	0.656600	0.343300
C431	C43	0.256700	0.669890	0.317800
H311	H31	0.246600	0.655800	0.257100
C441	C44	0.409500	0.683600	0.529000
H321	H32	0.406600	0.669800	0.461200
C451	C45	0.455000	0.683500	0.593200
C461	C46	0.463500	0.699000	0.713900
H331	H33	0.436700	0.708500	0.756100
C471	C47	0.512000	0.700200	0.771500
H341	H34	0.517700	0.710500	0.852300
N81	N8	0.552000	0.686000	0.708500
C481	C48	0.543500	0.670500	0.587800
H351	H35	0.570200	0.661000	0.545600
C491	C49	0.495000	0.669300	0.530200
H361	H36	0.489300	0.659000	0.449400
Cd21	Cd2	0.135380	0.688270	0.300900
C501	C50	0.119300	0.831500	0.965000
N91	N9	0.641000	0.232490	0.201300
C511	C51	0.604400	0.252500	0.232600
H371	H37	0.579700	0.248800	0.299500
C521	C52	0.604700	0.278110	0.163900
H381	H38	0.580100	0.291500	0.184800
C531	C53	0.641600	0.283710	0.063900
C541	C54	0.678200	0.263700	0.032600
H391	H39	0.702900	0.267400	0.965700
C551	C55	0.677900	0.238090	0.101300
H401	H40	0.702500	0.224700	0.080300
C561	C56	0.646400	0.310100	0.973000
C571	C57	0.673000	0.329400	0.923000
C581	C58	0.640400	0.352900	0.859700
C591	C59	0.673700	0.357700	0.749700
H411	H41	0.699900	0.345200	0.731800
C601	C60	0.667900	0.381300	0.666500
H421	H42	0.690200	0.384500	0.592900
N101	N10	0.628700	0.400100	0.693300
C611	C61	0.595400	0.395300	0.803300
H431	H43	0.569200	0.407900	0.821200
C621	C62	0.601200	0.371700	0.886500
H441	H44	0.578900	0.368500	0.960100
C631	C63	0.870200	0.198000	0.542000
H451	H45	0.870600	0.213300	0.602200
N111	N11	0.722200	0.190530	0.357000
C641	C64	0.737200	0.211660	0.447700
H461	H46	0.714200	0.225500	0.473900
C651	C65	0.786700	0.212150	0.499400
H471	H47	0.796700	0.226300	0.560100
C661	C66	0.821100	0.191500	0.460200
C671	C67	0.806100	0.170400	0.369500
H481	H48	0.829100	0.156600	0.343300
C681	C68	0.756700	0.169890	0.317800
H491	H49	0.746600	0.155800	0.257100
C691	C69	0.909500	0.183600	0.529000
H501	H50	0.906600	0.169800	0.461200
C701	C70	0.955000	0.183500	0.593200
C711	C71	0.963500	0.199000	0.713900
H511	H51	0.936700	0.208500	0.756100
C721	C72	0.012000	0.200200	0.771500
H521	H52	0.017700	0.210500	0.852300
N121	N12	0.052000	0.186000	0.708500
C731	C73	0.043500	0.170500	0.587800
H531	H53	0.070200	0.161000	0.545600
C741	C74	0.995000	0.169300	0.530200
H541	H54	0.989300	0.159000	0.449400
Cd31	Cd3	0.635380	0.188270	0.300900
C751	C75	0.619300	0.331500	0.965000
N131	N13	0.641000	0.732490	0.701300
C761	C76	0.604400	0.752500	0.732600
H551	H55	0.579700	0.748800	0.799500
C771	C77	0.604700	0.778110	0.663900
H561	H56	0.580100	0.791500	0.684800
C781	C78	0.641600	0.783710	0.563900
C791	C79	0.678200	0.763700	0.532600
H571	H57	0.702900	0.767400	0.465700
C801	C80	0.677900	0.738090	0.601300
H581	H58	0.702500	0.724700	0.580300
C811	C81	0.646400	0.810100	0.473000
C821	C82	0.673000	0.829400	0.423000
C831	C83	0.640400	0.852900	0.359700
C841	C84	0.673700	0.857700	0.249700
H591	H59	0.699900	0.845200	0.231800
C851	C85	0.667900	0.881300	0.166500
H601	H60	0.690200	0.884500	0.092900
N141	N14	0.628700	0.900100	0.193300
C861	C86	0.595400	0.895300	0.303300
H611	H61	0.569200	0.907900	0.321200
C871	C87	0.601200	0.871700	0.386500
H621	H62	0.578900	0.868500	0.460100
C881	C88	0.870200	0.698000	0.042000
H631	H63	0.870600	0.713300	0.102200
N151	N15	0.722200	0.690530	0.857000
C891	C89	0.737200	0.711660	0.947700
H641	H64	0.714200	0.725500	0.973900
C901	C90	0.786700	0.712150	0.999400
H651	H65	0.796700	0.726300	0.060100
C911	C91	0.821100	0.691500	0.960200
C921	C92	0.806100	0.670400	0.869500
H661	H66	0.829100	0.656600	0.843300
C931	C93	0.756700	0.669890	0.817800
H671	H67	0.746600	0.655800	0.757100
C941	C94	0.909500	0.683600	0.029000
H681	H68	0.906600	0.669800	0.961200
C951	C95	0.955000	0.683500	0.093200
C961	C96	0.963500	0.699000	0.213900
H691	H69	0.936700	0.708500	0.256100
C971	C97	0.012000	0.700200	0.271500
H701	H70	0.017700	0.710500	0.352300
N161	N16	0.052000	0.686000	0.208500
C981	C98	0.043500	0.670500	0.087800
H711	H71	0.070200	0.661000	0.045600
C991	C99	0.995000	0.669300	0.030200
H721	H72	0.989300	0.659000	0.949400
Cd41	Cd4	0.635380	0.688270	0.800900
C1001	C100	0.619300	0.831500	0.465000
N171	N17	0.109000	0.482490	0.951300
C1011	C101	0.145600	0.502500	0.982600
H731	H73	0.170300	0.498800	0.049500
C1021	C102	0.145300	0.528110	0.913900
H741	H74	0.169900	0.541500	0.934800
C1031	C103	0.108400	0.533710	0.813900
C1041	C104	0.071800	0.513700	0.782600
H751	H75	0.047100	0.517400	0.715700
C1051	C105	0.072100	0.488090	0.851300
H761	H76	0.047500	0.474700	0.830300
C1061	C106	0.103600	0.560100	0.723000
C1071	C107	0.077000	0.579400	0.673000
C1081	C108	0.109600	0.602900	0.609700
C1091	C109	0.076300	0.607700	0.499700
H771	H77	0.050100	0.595200	0.481800
C1101	C110	0.082100	0.631300	0.416500
H781	H78	0.059800	0.634500	0.342900
N181	N18	0.121300	0.650100	0.443300
C1111	C111	0.154600	0.645300	0.553300
H791	H79	0.180800	0.657900	0.571200
C1121	C112	0.148800	0.621700	0.636500
H801	H80	0.171100	0.618500	0.710100
C1131	C113	0.879800	0.448000	0.292000
H811	H81	0.879400	0.463300	0.352200
N191	N19	0.027800	0.440530	0.107000
C1141	C114	0.012800	0.461660	0.197700
H821	H82	0.035800	0.475500	0.223900
C1151	C115	0.963300	0.462150	0.249400
H831	H83	0.953300	0.476300	0.310100
C1161	C116	0.928900	0.441500	0.210200
C1171	C117	0.943900	0.420400	0.119500
H841	H84	0.920900	0.406600	0.093300
C1181	C118	0.993300	0.419890	0.067800
H851	H85	0.003400	0.405800	0.007100
C1191	C119	0.840500	0.433600	0.279000
H861	H86	0.843400	0.419800	0.211200
C1201	C120	0.795000	0.433500	0.343200
C1211	C121	0.786500	0.449000	0.463900
H871	H87	0.813300	0.458500	0.506100
C1221	C122	0.738000	0.450200	0.521500
H881	H88	0.732300	0.460500	0.602300
N201	N20	0.698000	0.436000	0.458500
C1231	C123	0.706500	0.420500	0.337800
H891	H89	0.679800	0.411000	0.295600
C1241	C124	0.755000	0.419300	0.280200
H901	H90	0.760700	0.409000	0.199400
Cd51	Cd5	0.114620	0.438270	0.050900
C1251	C125	0.130700	0.581500	0.715000
N211	N21	0.109000	0.982490	0.451300
C1261	C126	0.145600	0.002500	0.482600
H911	H91	0.170300	0.998800	0.549500
C1271	C127	0.145300	0.028110	0.413900
H921	H92	0.169900	0.041500	0.434800
C1281	C128	0.108400	0.033710	0.313900
C1291	C129	0.071800	0.013700	0.282600
H931	H93	0.047100	0.017400	0.215700
C1301	C130	0.072100	0.988090	0.351300
H941	H94	0.047500	0.974700	0.330300
C1311	C131	0.103600	0.060100	0.223000
C1321	C132	0.077000	0.079400	0.173000
C1331	C133	0.109600	0.102900	0.109700
C1341	C134	0.076300	0.107700	0.999700
H951	H95	0.050100	0.095200	0.981800
C1351	C135	0.082100	0.131300	0.916500
H961	H96	0.059800	0.134500	0.842900
N221	N22	0.121300	0.150100	0.943300
C1361	C136	0.154600	0.145300	0.053300
H971	H97	0.180800	0.157900	0.071200
C1371	C137	0.148800	0.121700	0.136500
H981	H98	0.171100	0.118500	0.210100
C1381	C138	0.879800	0.948000	0.792000
H991	H99	0.879400	0.963300	0.852200
N231	N23	0.027800	0.940530	0.607000
C1391	C139	0.012800	0.961660	0.697700
H1001	H100	0.035800	0.975500	0.723900
C1401	C140	0.963300	0.962150	0.749400
H1011	H101	0.953300	0.976300	0.810100
C1411	C141	0.928900	0.941500	0.710200
C1421	C142	0.943900	0.920400	0.619500
H1021	H102	0.920900	0.906600	0.593300
C1431	C143	0.993300	0.919890	0.567800
H1031	H103	0.003400	0.905800	0.507100
C1441	C144	0.840500	0.933600	0.779000
H1041	H104	0.843400	0.919800	0.711200
C1451	C145	0.795000	0.933500	0.843200
C1461	C146	0.786500	0.949000	0.963900
H1051	H105	0.813300	0.958500	0.006100
C1471	C147	0.738000	0.950200	0.021500
H1061	H106	0.732300	0.960500	0.102300
N241	N24	0.698000	0.936000	0.958500
C1481	C148	0.706500	0.920500	0.837800
H1071	H107	0.679800	0.911000	0.795600
C1491	C149	0.755000	0.919300	0.780200
H1081	H108	0.760700	0.909000	0.699400
Cd61	Cd6	0.114620	0.938270	0.550900
C1501	C150	0.130700	0.081500	0.215000
N251	N25	0.609000	0.482490	0.451300
C1511	C151	0.645600	0.502500	0.482600
H1091	H109	0.670300	0.498800	0.549500
C1521	C152	0.645300	0.528110	0.413900
H1101	H110	0.669900	0.541500	0.434800
C1531	C153	0.608400	0.533710	0.313900
C1541	C154	0.571800	0.513700	0.282600
H1111	H111	0.547100	0.517400	0.215700
C1551	C155	0.572100	0.488090	0.351300
H1121	H112	0.547500	0.474700	0.330300
C1561	C156	0.603600	0.560100	0.223000
C1571	C157	0.577000	0.579400	0.173000
C1581	C158	0.609600	0.602900	0.109700
C1591	C159	0.576300	0.607700	0.999700
H1131	H113	0.550100	0.595200	0.981800
C1601	C160	0.582100	0.631300	0.916500
H1141	H114	0.559800	0.634500	0.842900
N261	N26	0.621300	0.650100	0.943300
C1611	C161	0.654600	0.645300	0.053300
H1151	H115	0.680800	0.657900	0.071200
C1621	C162	0.648800	0.621700	0.136500
H1161	H116	0.671100	0.618500	0.210100
C1631	C163	0.379800	0.448000	0.792000
H1171	H117	0.379400	0.463300	0.852200
N271	N27	0.527800	0.440530	0.607000
C1641	C164	0.512800	0.461660	0.697700
H1181	H118	0.535800	0.475500	0.723900
C1651	C165	0.463300	0.462150	0.749400
H1191	H119	0.453300	0.476300	0.810100
C1661	C166	0.428900	0.441500	0.710200
C1671	C167	0.443900	0.420400	0.619500
H1201	H120	0.420900	0.406600	0.593300
C1681	C168	0.493300	0.419890	0.567800
H1211	H121	0.503400	0.405800	0.507100
C1691	C169	0.340500	0.433600	0.779000
H1221	H122	0.343400	0.419800	0.711200
C1701	C170	0.295000	0.433500	0.843200
C1711	C171	0.286500	0.449000	0.963900
H1231	H123	0.313300	0.458500	0.006100
C1721	C172	0.238000	0.450200	0.021500
H1241	H124	0.232300	0.460500	0.102300
N281	N28	0.198000	0.436000	0.958500
C1731	C173	0.206500	0.420500	0.837800
H1251	H125	0.179800	0.411000	0.795600
C1741	C174	0.255000	0.419300	0.780200
H1261	H126	0.260700	0.409000	0.699400
Cd71	Cd7	0.614620	0.438270	0.550900
C1751	C175	0.630700	0.581500	0.215000
N291	N29	0.609000	0.982490	0.951300
C1761	C176	0.645600	0.002500	0.982600
H1271	H127	0.670300	0.998800	0.049500
C1771	C177	0.645300	0.028110	0.913900
H1281	H128	0.669900	0.041500	0.934800
C1781	C178	0.608400	0.033710	0.813900
C1791	C179	0.571800	0.013700	0.782600
H1291	H129	0.547100	0.017400	0.715700
C1801	C180	0.572100	0.988090	0.851300
H1301	H130	0.547500	0.974700	0.830300
C1811	C181	0.603600	0.060100	0.723000
C1821	C182	0.577000	0.079400	0.673000
C1831	C183	0.609600	0.102900	0.609700
C1841	C184	0.576300	0.107700	0.499700
H1311	H131	0.550100	0.095200	0.481800
C1851	C185	0.582100	0.131300	0.416500
H1321	H132	0.559800	0.134500	0.342900
N301	N30	0.621300	0.150100	0.443300
C1861	C186	0.654600	0.145300	0.553300
H1331	H133	0.680800	0.157900	0.571200
C1871	C187	0.648800	0.121700	0.636500
H1341	H134	0.671100	0.118500	0.710100
C1881	C188	0.379800	0.948000	0.292000
H1351	H135	0.379400	0.963300	0.352200
N311	N31	0.527800	0.940530	0.107000
C1891	C189	0.512800	0.961660	0.197700
H1361	H136	0.535800	0.975500	0.223900
C1901	C190	0.463300	0.962150	0.249400
H1371	H137	0.453300	0.976300	0.310100
C1911	C191	0.428900	0.941500	0.210200
C1921	C192	0.443900	0.920400	0.119500
H1381	H138	0.420900	0.906600	0.093300
C1931	C193	0.493300	0.919890	0.067800
H1391	H139	0.503400	0.905800	0.007100
C1941	C194	0.340500	0.933600	0.279000
H1401	H140	0.343400	0.919800	0.211200
C1951	C195	0.295000	0.933500	0.343200
C1961	C196	0.286500	0.949000	0.463900
H1411	H141	0.313300	0.958500	0.506100
C1971	C197	0.238000	0.950200	0.521500
H1421	H142	0.232300	0.960500	0.602300
N321	N32	0.198000	0.936000	0.458500
C1981	C198	0.206500	0.920500	0.337800
H1431	H143	0.179800	0.911000	0.295600
C1991	C199	0.255000	0.919300	0.280200
H1441	H144	0.260700	0.909000	0.199400
Cd81	Cd8	0.614620	0.938270	0.050900
C2001	C200	0.630700	0.081500	0.715000
N331	N33	0.859000	0.767510	0.701300
C2011	C201	0.895600	0.747500	0.732600
H1451	H145	0.920300	0.751200	0.799500
C2021	C202	0.895300	0.721890	0.663900
H1461	H146	0.919900	0.708500	0.684800
C2031	C203	0.858400	0.716290	0.563900
C2041	C204	0.821800	0.736300	0.532600
H1471	H147	0.797100	0.732600	0.465700
C2051	C205	0.822100	0.761910	0.601300
H1481	H148	0.797500	0.775300	0.580300
C2061	C206	0.853600	0.689900	0.473000
C2071	C207	0.827000	0.670600	0.423000
C2081	C208	0.859600	0.647100	0.359700
C2091	C209	0.826300	0.642300	0.249700
H1491	H149	0.800100	0.654800	0.231800
C2101	C210	0.832100	0.618700	0.166500
H1501	H150	0.809800	0.615500	0.092900
N341	N34	0.871300	0.599900	0.193300
C2111	C211	0.904600	0.604700	0.303300
H1511	H151	0.930800	0.592100	0.321200
C2121	C212	0.898800	0.628300	0.386500
H1521	H152	0.921100	0.631500	0.460100
C2131	C213	0.629800	0.802000	0.042000
H1531	H153	0.629400	0.786700	0.102200
N351	N35	0.777800	0.809470	0.857000
C2141	C214	0.762800	0.788340	0.947700
H1541	H154	0.785800	0.774500	0.973900
C2151	C215	0.713300	0.787850	0.999400
H1551	H155	0.703300	0.773700	0.060100
C2161	C216	0.678900	0.808500	0.960200
C2171	C217	0.693900	0.829600	0.869500
H1561	H156	0.670900	0.843400	0.843300
C2181	C218	0.743300	0.830110	0.817800
H1571	H157	0.753400	0.844200	0.757100
C2191	C219	0.590500	0.816400	0.029000
H1581	H158	0.593400	0.830200	0.961200
C2201	C220	0.545000	0.816500	0.093200
C2211	C221	0.536500	0.801000	0.213900
H1591	H159	0.563300	0.791500	0.256100
C2221	C222	0.488000	0.799800	0.271500
H1601	H160	0.482300	0.789500	0.352300
N361	N36	0.448000	0.814000	0.208500
C2231	C223	0.456500	0.829500	0.087800
H1611	H161	0.429800	0.839000	0.045600
C2241	C224	0.505000	0.830700	0.030200
H1621	H162	0.510700	0.841000	0.949400
Cd91	Cd9	0.864620	0.811730	0.800900
C2251	C225	0.880700	0.668500	0.465000
N371	N37	0.859000	0.267510	0.201300
C2261	C226	0.895600	0.247500	0.232600
H1631	H163	0.920300	0.251200	0.299500
C2271	C227	0.895300	0.221890	0.163900
H1641	H164	0.919900	0.208500	0.184800
C2281	C228	0.858400	0.216290	0.063900
C2291	C229	0.821800	0.236300	0.032600
H1651	H165	0.797100	0.232600	0.965700
C2301	C230	0.822100	0.261910	0.101300
H1661	H166	0.797500	0.275300	0.080300
C2311	C231	0.853600	0.189900	0.973000
C2321	C232	0.827000	0.170600	0.923000
C2331	C233	0.859600	0.147100	0.859700
C2341	C234	0.826300	0.142300	0.749700
H1671	H167	0.800100	0.154800	0.731800
C2351	C235	0.832100	0.118700	0.666500
H1681	H168	0.809800	0.115500	0.592900
N381	N38	0.871300	0.099900	0.693300
C2361	C236	0.904600	0.104700	0.803300
H1691	H169	0.930800	0.092100	0.821200
C2371	C237	0.898800	0.128300	0.886500
H1701	H170	0.921100	0.131500	0.960100
C2381	C238	0.629800	0.302000	0.542000
H1711	H171	0.629400	0.286700	0.602200
N391	N39	0.777800	0.309470	0.357000
C2391	C239	0.762800	0.288340	0.447700
H1721	H172	0.785800	0.274500	0.473900
C2401	C240	0.713300	0.287850	0.499400
H1731	H173	0.703300	0.273700	0.560100
C2411	C241	0.678900	0.308500	0.460200
C2421	C242	0.693900	0.329600	0.369500
H1741	H174	0.670900	0.343400	0.343300
C2431	C243	0.743300	0.330110	0.317800
H1751	H175	0.753400	0.344200	0.257100
C2441	C244	0.590500	0.316400	0.529000
H1761	H176	0.593400	0.330200	0.461200
C2451	C245	0.545000	0.316500	0.593200
C2461	C246	0.536500	0.301000	0.713900
H1771	H177	0.563300	0.291500	0.756100
C2471	C247	0.488000	0.299800	0.771500
H1781	H178	0.482300	0.289500	0.852300
N401	N40	0.448000	0.314000	0.708500
C2481	C248	0.456500	0.329500	0.587800
H1791	H179	0.429800	0.339000	0.545600
C2491	C249	0.505000	0.330700	0.530200
H1801	H180	0.510700	0.341000	0.449400
Cd101	Cd10	0.864620	0.311730	0.300900
C2501	C250	0.880700	0.168500	0.965000
N411	N41	0.359000	0.767510	0.201300
C2511	C251	0.395600	0.747500	0.232600
H1811	H181	0.420300	0.751200	0.299500
C2521	C252	0.395300	0.721890	0.163900
H1821	H182	0.419900	0.708500	0.184800
C2531	C253	0.358400	0.716290	0.063900
C2541	C254	0.321800	0.736300	0.032600
H1831	H183	0.297100	0.732600	0.965700
C2551	C255	0.322100	0.761910	0.101300
H1841	H184	0.297500	0.775300	0.080300
C2561	C256	0.353600	0.689900	0.973000
C2571	C257	0.327000	0.670600	0.923000
C2581	C258	0.359600	0.647100	0.859700
C2591	C259	0.326300	0.642300	0.749700
H1851	H185	0.300100	0.654800	0.731800
C2601	C260	0.332100	0.618700	0.666500
H1861	H186	0.309800	0.615500	0.592900
N421	N42	0.371300	0.599900	0.693300
C2611	C261	0.404600	0.604700	0.803300
H1871	H187	0.430800	0.592100	0.821200
C2621	C262	0.398800	0.628300	0.886500
H1881	H188	0.421100	0.631500	0.960100
C2631	C263	0.129800	0.802000	0.542000
H1891	H189	0.129400	0.786700	0.602200
N431	N43	0.277800	0.809470	0.357000
C2641	C264	0.262800	0.788340	0.447700
H1901	H190	0.285800	0.774500	0.473900
C2651	C265	0.213300	0.787850	0.499400
H1911	H191	0.203300	0.773700	0.560100
C2661	C266	0.178900	0.808500	0.460200
C2671	C267	0.193900	0.829600	0.369500
H1921	H192	0.170900	0.843400	0.343300
C2681	C268	0.243300	0.830110	0.317800
H1931	H193	0.253400	0.844200	0.257100
C2691	C269	0.090500	0.816400	0.529000
H1941	H194	0.093400	0.830200	0.461200
C2701	C270	0.045000	0.816500	0.593200
C2711	C271	0.036500	0.801000	0.713900
H1951	H195	0.063300	0.791500	0.756100
C2721	C272	0.988000	0.799800	0.771500
H1961	H196	0.982300	0.789500	0.852300
N441	N44	0.948000	0.814000	0.708500
C2731	C273	0.956500	0.829500	0.587800
H1971	H197	0.929800	0.839000	0.545600
C2741	C274	0.005000	0.830700	0.530200
H1981	H198	0.010700	0.841000	0.449400
Cd111	Cd11	0.364620	0.811730	0.300900
C2751	C275	0.380700	0.668500	0.965000
N451	N45	0.359000	0.267510	0.701300
C2761	C276	0.395600	0.247500	0.732600
H1991	H199	0.420300	0.251200	0.799500
C2771	C277	0.395300	0.221890	0.663900
H2001	H200	0.419900	0.208500	0.684800
C2781	C278	0.358400	0.216290	0.563900
C2791	C279	0.321800	0.236300	0.532600
H2011	H201	0.297100	0.232600	0.465700
C2801	C280	0.322100	0.261910	0.601300
H2021	H202	0.297500	0.275300	0.580300
C2811	C281	0.353600	0.189900	0.473000
C2821	C282	0.327000	0.170600	0.423000
C2831	C283	0.359600	0.147100	0.359700
C2841	C284	0.326300	0.142300	0.249700
H2031	H203	0.300100	0.154800	0.231800
C2851	C285	0.332100	0.118700	0.166500
H2041	H204	0.309800	0.115500	0.092900
N461	N46	0.371300	0.099900	0.193300
C2861	C286	0.404600	0.104700	0.303300
H2051	H205	0.430800	0.092100	0.321200
C2871	C287	0.398800	0.128300	0.386500
H2061	H206	0.421100	0.131500	0.460100
C2881	C288	0.129800	0.302000	0.042000
H2071	H207	0.129400	0.286700	0.102200
N471	N47	0.277800	0.309470	0.857000
C2891	C289	0.262800	0.288340	0.947700
H2081	H208	0.285800	0.274500	0.973900
C2901	C290	0.213300	0.287850	0.999400
H2091	H209	0.203300	0.273700	0.060100
C2911	C291	0.178900	0.308500	0.960200
C2921	C292	0.193900	0.329600	0.869500
H2101	H210	0.170900	0.343400	0.843300
C2931	C293	0.243300	0.330110	0.817800
H2111	H211	0.253400	0.344200	0.757100
C2941	C294	0.090500	0.316400	0.029000
H2121	H212	0.093400	0.330200	0.961200
C2951	C295	0.045000	0.316500	0.093200
C2961	C296	0.036500	0.301000	0.213900
H2131	H213	0.063300	0.291500	0.256100
C2971	C297	0.988000	0.299800	0.271500
H2141	H214	0.982300	0.289500	0.352300
N481	N48	0.948000	0.314000	0.208500
C2981	C298	0.956500	0.329500	0.087800
H2151	H215	0.929800	0.339000	0.045600
C2991	C299	0.005000	0.330700	0.030200
H2161	H216	0.010700	0.341000	0.949400
Cd121	Cd12	0.364620	0.311730	0.800900
C3001	C300	0.380700	0.168500	0.465000
N491	N49	0.391000	0.017510	0.951300
C3011	C301	0.354400	0.997500	0.982600
H2171	H217	0.329700	0.001200	0.049500
C3021	C302	0.354700	0.971890	0.913900
H2181	H218	0.330100	0.958500	0.934800
C3031	C303	0.391600	0.966290	0.813900
C3041	C304	0.428200	0.986300	0.782600
H2191	H219	0.452900	0.982600	0.715700
C3051	C305	0.427900	0.011910	0.851300
H2201	H220	0.452500	0.025300	0.830300
C3061	C306	0.396400	0.939900	0.723000
C3071	C307	0.423000	0.920600	0.673000
C3081	C308	0.390400	0.897100	0.609700
C3091	C309	0.423700	0.892300	0.499700
H2211	H221	0.449900	0.904800	0.481800
C3101	C310	0.417900	0.868700	0.416500
H2221	H222	0.440200	0.865500	0.342900
N501	N50	0.378700	0.849900	0.443300
C3111	C311	0.345400	0.854700	0.553300
H2231	H223	0.319200	0.842100	0.571200
C3121	C312	0.351200	0.878300	0.636500
H2241	H224	0.328900	0.881500	0.710100
C3131	C313	0.620200	0.052000	0.292000
H2251	H225	0.620600	0.036700	0.352200
N511	N51	0.472200	0.059470	0.107000
C3141	C314	0.487200	0.038340	0.197700
H2261	H226	0.464200	0.024500	0.223900
C3151	C315	0.536700	0.037850	0.249400
H2271	H227	0.546700	0.023700	0.310100
C3161	C316	0.571100	0.058500	0.210200
C3171	C317	0.556100	0.079600	0.119500
H2281	H228	0.579100	0.093400	0.093300
C3181	C318	0.506700	0.080110	0.067800
H2291	H229	0.496600	0.094200	0.007100
C3191	C319	0.659500	0.066400	0.279000
H2301	H230	0.656600	0.080200	0.211200
C3201	C320	0.705000	0.066500	0.343200
C3211	C321	0.713500	0.051000	0.463900
H2311	H231	0.686700	0.041500	0.506100
C3221	C322	0.762000	0.049800	0.521500
H2321	H232	0.767700	0.039500	0.602300
N521	N52	0.802000	0.064000	0.458500
C3231	C323	0.793500	0.079500	0.337800
H2331	H233	0.820200	0.089000	0.295600
C3241	C324	0.745000	0.080700	0.280200
H2341	H234	0.739300	0.091000	0.199400
Cd131	Cd13	0.385380	0.061730	0.050900
C3251	C325	0.369300	0.918500	0.715000
N531	N53	0.391000	0.517510	0.451300
C3261	C326	0.354400	0.497500	0.482600
H2351	H235	0.329700	0.501200	0.549500
C3271	C327	0.354700	0.471890	0.413900
H2361	H236	0.330100	0.458500	0.434800
C3281	C328	0.391600	0.466290	0.313900
C3291	C329	0.428200	0.486300	0.282600
H2371	H237	0.452900	0.482600	0.215700
C3301	C330	0.427900	0.511910	0.351300
H2381	H238	0.452500	0.525300	0.330300
C3311	C331	0.396400	0.439900	0.223000
C3321	C332	0.423000	0.420600	0.173000
C3331	C333	0.390400	0.397100	0.109700
C3341	C334	0.423700	0.392300	0.999700
H2391	H239	0.449900	0.404800	0.981800
C3351	C335	0.417900	0.368700	0.916500
H2401	H240	0.440200	0.365500	0.842900
N541	N54	0.378700	0.349900	0.943300
C3361	C336	0.345400	0.354700	0.053300
H2411	H241	0.319200	0.342100	0.071200
C3371	C337	0.351200	0.378300	0.136500
H2421	H242	0.328900	0.381500	0.210100
C3381	C338	0.620200	0.552000	0.792000
H2431	H243	0.620600	0.536700	0.852200
N551	N55	0.472200	0.559470	0.607000
C3391	C339	0.487200	0.538340	0.697700
H2441	H244	0.464200	0.524500	0.723900
C3401	C340	0.536700	0.537850	0.749400
H2451	H245	0.546700	0.523700	0.810100
C3411	C341	0.571100	0.558500	0.710200
C3421	C342	0.556100	0.579600	0.619500
H2461	H246	0.579100	0.593400	0.593300
C3431	C343	0.506700	0.580110	0.567800
H2471	H247	0.496600	0.594200	0.507100
C3441	C344	0.659500	0.566400	0.779000
H2481	H248	0.656600	0.580200	0.711200
C3451	C345	0.705000	0.566500	0.843200
C3461	C346	0.713500	0.551000	0.963900
H2491	H249	0.686700	0.541500	0.006100
C3471	C347	0.762000	0.549800	0.021500
H2501	H250	0.767700	0.539500	0.102300
N561	N56	0.802000	0.564000	0.958500
C3481	C348	0.793500	0.579500	0.837800
H2511	H251	0.820200	0.589000	0.795600
C3491	C349	0.745000	0.580700	0.780200
H2521	H252	0.739300	0.591000	0.699400
Cd141	Cd14	0.385380	0.561730	0.550900
C3501	C350	0.369300	0.418500	0.215000
N571	N57	0.891000	0.017510	0.451300
C3511	C351	0.854400	0.997500	0.482600
H2531	H253	0.829700	0.001200	0.549500
C3521	C352	0.854700	0.971890	0.413900
H2541	H254	0.830100	0.958500	0.434800
C3531	C353	0.891600	0.966290	0.313900
C3541	C354	0.928200	0.986300	0.282600
H2551	H255	0.952900	0.982600	0.215700
C3551	C355	0.927900	0.011910	0.351300
H2561	H256	0.952500	0.025300	0.330300
C3561	C356	0.896400	0.939900	0.223000
C3571	C357	0.923000	0.920600	0.173000
C3581	C358	0.890400	0.897100	0.109700
C3591	C359	0.923700	0.892300	0.999700
H2571	H257	0.949900	0.904800	0.981800
C3601	C360	0.917900	0.868700	0.916500
H2581	H258	0.940200	0.865500	0.842900
N581	N58	0.878700	0.849900	0.943300
C3611	C361	0.845400	0.854700	0.053300
H2591	H259	0.819200	0.842100	0.071200
C3621	C362	0.851200	0.878300	0.136500
H2601	H260	0.828900	0.881500	0.210100
C3631	C363	0.120200	0.052000	0.792000
H2611	H261	0.120600	0.036700	0.852200
N591	N59	0.972200	0.059470	0.607000
C3641	C364	0.987200	0.038340	0.697700
H2621	H262	0.964200	0.024500	0.723900
C3651	C365	0.036700	0.037850	0.749400
H2631	H263	0.046700	0.023700	0.810100
C3661	C366	0.071100	0.058500	0.710200
C3671	C367	0.056100	0.079600	0.619500
H2641	H264	0.079100	0.093400	0.593300
C3681	C368	0.006700	0.080110	0.567800
H2651	H265	0.996600	0.094200	0.507100
C3691	C369	0.159500	0.066400	0.779000
H2661	H266	0.156600	0.080200	0.711200
C3701	C370	0.205000	0.066500	0.843200
C3711	C371	0.213500	0.051000	0.963900
H2671	H267	0.186700	0.041500	0.006100
C3721	C372	0.262000	0.049800	0.021500
H2681	H268	0.267700	0.039500	0.102300
N601	N60	0.302000	0.064000	0.958500
C3731	C373	0.293500	0.079500	0.837800
H2691	H269	0.320200	0.089000	0.795600
C3741	C374	0.245000	0.080700	0.780200
H2701	H270	0.239300	0.091000	0.699400
Cd151	Cd15	0.885380	0.061730	0.550900
C3751	C375	0.869300	0.918500	0.215000
N611	N61	0.891000	0.517510	0.951300
C3761	C376	0.854400	0.497500	0.982600
H2711	H271	0.829700	0.501200	0.049500
C3771	C377	0.854700	0.471890	0.913900
H2721	H272	0.830100	0.458500	0.934800
C3781	C378	0.891600	0.466290	0.813900
C3791	C379	0.928200	0.486300	0.782600
H2731	H273	0.952900	0.482600	0.715700
C3801	C380	0.927900	0.511910	0.851300
H2741	H274	0.952500	0.525300	0.830300
C3811	C381	0.896400	0.439900	0.723000
C3821	C382	0.923000	0.420600	0.673000
C3831	C383	0.890400	0.397100	0.609700
C3841	C384	0.923700	0.392300	0.499700
H2751	H275	0.949900	0.404800	0.481800
C3851	C385	0.917900	0.368700	0.416500
H2761	H276	0.940200	0.365500	0.342900
N621	N62	0.878700	0.349900	0.443300
C3861	C386	0.845400	0.354700	0.553300
H2771	H277	0.819200	0.342100	0.571200
C3871	C387	0.851200	0.378300	0.636500
H2781	H278	0.828900	0.381500	0.710100
C3881	C388	0.120200	0.552000	0.292000
H2791	H279	0.120600	0.536700	0.352200
N631	N63	0.972200	0.559470	0.107000
C3891	C389	0.987200	0.538340	0.197700
H2801	H280	0.964200	0.524500	0.223900
C3901	C390	0.036700	0.537850	0.249400
H2811	H281	0.046700	0.523700	0.310100
C3911	C391	0.071100	0.558500	0.210200
C3921	C392	0.056100	0.579600	0.119500
H2821	H282	0.079100	0.593400	0.093300
C3931	C393	0.006700	0.580110	0.067800
H2831	H283	0.996600	0.594200	0.007100
C3941	C394	0.159500	0.566400	0.279000
H2841	H284	0.156600	0.580200	0.211200
C3951	C395	0.205000	0.566500	0.343200
C3961	C396	0.213500	0.551000	0.463900
H2851	H285	0.186700	0.541500	0.506100
C3971	C397	0.262000	0.549800	0.521500
H2861	H286	0.267700	0.539500	0.602300
N641	N64	0.302000	0.564000	0.458500
C3981	C398	0.293500	0.579500	0.337800
H2871	H287	0.320200	0.589000	0.295600
C3991	C399	0.245000	0.580700	0.280200
H2881	H288	0.239300	0.591000	0.199400
Cd161	Cd16	0.885380	0.561730	0.050900
C4001	C400	0.869300	0.418500	0.715000
