data_UZUNAF_clean_PM
_symmetry_space_group_name_H-M	'P1'
_cell_length_a	8.646200
_cell_length_b	13.159800
_cell_length_c	15.321800
_cell_angle_alpha	115.433000
_cell_angle_beta	94.906900
_cell_angle_gamma	90.000000
_symmetry_Int_Tables_number 1

loop_
_symmetry_equiv_pos_as_xyz
'x,y,z'

loop_
_atom_site_label
_atom_site_type_symbol
_atom_site_fract_x
_atom_site_fract_y
_atom_site_fract_z
Cu11	Cu1	0.961890	0.493900	0.578980
Cu21	Cu2	0.538110	0.914920	0.421020
Cu31	Cu3	0.038110	0.506100	0.421020
Cu41	Cu4	0.461890	0.085080	0.578980
H11	H1	0.823400	0.636400	0.772000
H21	H2	0.682900	0.622000	0.884800
H31	H3	0.728500	0.290500	0.754400
H41	H4	0.868200	0.314500	0.645400
H51	H5	0.596100	0.363300	0.902600
H61	H6	0.706900	0.241000	0.409000
H71	H7	0.599200	0.170700	0.314400
H81	H8	0.488400	0.353000	0.474800
H91	H9	0.394200	0.288300	0.373000
H101	H10	0.495000	0.459300	0.384800
H111	H11	0.568300	0.359600	0.301400
H121	H12	0.676600	0.864400	0.228000
H131	H13	0.817100	0.737200	0.115200
H141	H14	0.771500	0.536100	0.245600
H151	H15	0.631800	0.669100	0.354600
H161	H16	0.903900	0.460700	0.097400
H171	H17	0.793100	0.832000	0.591000
H181	H18	0.900800	0.856300	0.685600
H191	H19	0.011600	0.878200	0.525200
H201	H20	0.105800	0.915300	0.627000
H211	H21	0.005000	0.074500	0.615200
H221	H22	0.931700	0.058200	0.698600
H231	H23	0.176600	0.363600	0.228000
H241	H24	0.317100	0.378000	0.115200
H251	H25	0.271500	0.709500	0.245600
H261	H26	0.131800	0.685500	0.354600
H271	H27	0.403900	0.636700	0.097400
H281	H28	0.293100	0.759000	0.591000
H291	H29	0.400800	0.829300	0.685600
H301	H30	0.511600	0.647000	0.525200
H311	H31	0.605800	0.711700	0.627000
H321	H32	0.505000	0.540700	0.615200
H331	H33	0.431700	0.640400	0.698600
H341	H34	0.323400	0.135600	0.772000
H351	H35	0.182900	0.262800	0.884800
H361	H36	0.228500	0.463900	0.754400
H371	H37	0.368200	0.330900	0.645400
H381	H38	0.096100	0.539300	0.902600
H391	H39	0.206900	0.168000	0.409000
H401	H40	0.099200	0.143700	0.314400
H411	H41	0.988400	0.121800	0.474800
H421	H42	0.894200	0.084700	0.373000
H431	H43	0.995000	0.925500	0.384800
H441	H44	0.068300	0.941800	0.301400
C11	C1	0.803600	0.565200	0.768600
C21	C2	0.719300	0.557700	0.836600
C31	C3	0.689000	0.453600	0.832800
C41	C4	0.746600	0.362500	0.759400
C51	C5	0.830100	0.377400	0.694400
C61	C6	0.603000	0.434700	0.904400
C71	C7	0.557800	0.132600	0.425800
C81	C8	0.600900	0.212900	0.384200
C91	C9	0.497500	0.314600	0.405400
C101	C10	0.564200	0.397400	0.371200
C111	C11	0.726000	0.444600	0.419400
C121	C12	0.696400	0.796600	0.231400
C131	C13	0.780700	0.721100	0.163400
C141	C14	0.811000	0.620800	0.167200
C151	C15	0.753400	0.603100	0.240600
C161	C16	0.669900	0.683000	0.305600
C171	C17	0.897000	0.530300	0.095600
C181	C18	0.942200	0.706800	0.574200
C191	C19	0.899100	0.828700	0.615800
C201	C20	0.002500	0.909200	0.594600
C211	C21	0.935800	0.026200	0.628800
C221	C22	0.774000	0.025200	0.580600
C231	C23	0.196400	0.434800	0.231400
C241	C24	0.280700	0.442300	0.163400
C251	C25	0.311000	0.546400	0.167200
C261	C26	0.253400	0.637500	0.240600
C271	C27	0.169900	0.622600	0.305600
C281	C28	0.397000	0.565300	0.095600
C291	C29	0.442200	0.867400	0.574200
C301	C30	0.399100	0.787100	0.615800
C311	C31	0.502500	0.685400	0.594600
C321	C32	0.435800	0.602600	0.628800
C331	C33	0.274000	0.555400	0.580600
C341	C34	0.303600	0.203400	0.768600
C351	C35	0.219300	0.278900	0.836600
C361	C36	0.189000	0.379200	0.832800
C371	C37	0.246600	0.396900	0.759400
C381	C38	0.330100	0.317000	0.694400
C391	C39	0.103000	0.469700	0.904400
C401	C40	0.057800	0.293200	0.425800
C411	C41	0.100900	0.171300	0.384200
C421	C42	0.997500	0.090800	0.405400
C431	C43	0.064200	0.973800	0.371200
C441	C44	0.226000	0.974800	0.419400
N11	N1	0.859100	0.477800	0.698000
N21	N2	0.537900	0.517500	0.969600
N31	N3	0.640900	0.779800	0.302000
N41	N4	0.962100	0.547900	0.030400
N51	N5	0.140900	0.522200	0.302000
N61	N6	0.462100	0.482500	0.030400
N71	N7	0.359100	0.220200	0.698000
N81	N8	0.037900	0.452100	0.969600
O11	O1	0.515100	0.175200	0.510400
O21	O2	0.755300	0.458180	0.504360
O31	O3	0.573600	0.030400	0.375000
O41	O4	0.819500	0.462570	0.368340
O51	O5	0.984900	0.664800	0.489600
O61	O6	0.744700	0.953820	0.495640
O71	O7	0.926400	0.655400	0.625000
O81	O8	0.680500	0.094230	0.631660
O91	O9	0.484900	0.824800	0.489600
O101	O10	0.244700	0.541820	0.495640
O111	O11	0.426400	0.969600	0.625000
O121	O12	0.180500	0.537430	0.631660
O131	O13	0.015100	0.335200	0.510400
O141	O14	0.255300	0.046180	0.504360
O151	O15	0.073600	0.344600	0.375000
O161	O16	0.319500	0.905770	0.368340
