data_UZUZUL_clean_PM
_symmetry_space_group_name_H-M	'P1'
_cell_length_a	8.133100
_cell_length_b	14.655600
_cell_length_c	16.825700
_cell_angle_alpha	90.000000
_cell_angle_beta	90.000000
_cell_angle_gamma	90.000000
_symmetry_Int_Tables_number 1

loop_
_symmetry_equiv_pos_as_xyz
'x,y,z'

loop_
_atom_site_label
_atom_site_type_symbol
_atom_site_fract_x
_atom_site_fract_y
_atom_site_fract_z
Zn11	Zn1	0.439680	0.527470	0.045260
S11	S1	0.831090	0.864050	0.789700
O11	O1	0.531300	0.617650	0.969360
O21	O2	0.572700	0.483200	0.916530
O31	O3	0.975000	0.572260	0.609370
O41	O4	0.773000	0.473870	0.631380
O51	O5	0.863800	0.878660	0.874150
O61	O6	0.686100	0.910590	0.763170
O71	O7	0.974800	0.879370	0.740900
N11	N1	0.217700	0.490040	0.004620
N21	N2	0.027800	0.444300	0.922000
H11	H1	0.980000	0.422200	0.880600
C11	C1	0.666800	0.612800	0.844950
C21	C2	0.710900	0.562400	0.778180
H21	H2	0.682300	0.501100	0.775000
C31	C3	0.796300	0.602320	0.716800
C41	C4	0.836900	0.694820	0.720620
H31	H3	0.896500	0.722000	0.679800
C51	C5	0.787600	0.745720	0.785750
C61	C6	0.704400	0.705100	0.847750
H41	H4	0.673400	0.739700	0.891600
C71	C7	0.584900	0.567670	0.914250
C81	C8	0.848200	0.544040	0.646930
C91	C9	0.186800	0.451840	0.933570
H51	H5	0.266900	0.433300	0.897600
C101	C10	0.068700	0.505600	0.037560
H61	H6	0.052600	0.531500	0.087400
C111	C11	0.950600	0.479700	0.990600
H71	H7	0.838200	0.483700	0.000200
Zn21	Zn2	0.060320	0.472530	0.545260
S21	S2	0.668910	0.135950	0.289700
O81	O8	0.968700	0.382350	0.469360
O91	O9	0.927300	0.516800	0.416530
O101	O10	0.525000	0.427740	0.109370
O111	O11	0.727000	0.526130	0.131380
O121	O12	0.636200	0.121340	0.374150
O131	O13	0.813900	0.089410	0.263170
O141	O14	0.525200	0.120630	0.240900
N31	N3	0.282300	0.509960	0.504620
N41	N4	0.472200	0.555700	0.422000
H81	H8	0.520000	0.577800	0.380600
C121	C12	0.833200	0.387200	0.344950
C131	C13	0.789100	0.437600	0.278180
H91	H9	0.817700	0.498900	0.275000
C141	C14	0.703700	0.397680	0.216800
C151	C15	0.663100	0.305180	0.220620
H101	H10	0.603500	0.278000	0.179800
C161	C16	0.712400	0.254280	0.285750
C171	C17	0.795600	0.294900	0.347750
H111	H11	0.826600	0.260300	0.391600
C181	C18	0.915100	0.432330	0.414250
C191	C19	0.651800	0.455960	0.146930
C201	C20	0.313200	0.548160	0.433570
H121	H12	0.233100	0.566700	0.397600
C211	C21	0.431300	0.494400	0.537560
H131	H13	0.447400	0.468500	0.587400
C221	C22	0.549400	0.520300	0.490600
H141	H14	0.661800	0.516300	0.500200
Zn31	Zn3	0.560320	0.027470	0.454740
S31	S3	0.168910	0.364050	0.710300
O151	O15	0.468700	0.117650	0.530640
O161	O16	0.427300	0.983200	0.583470
O171	O17	0.025000	0.072260	0.890630
O181	O18	0.227000	0.973870	0.868620
O191	O19	0.136200	0.378660	0.625850
O201	O20	0.313900	0.410590	0.736830
O211	O21	0.025200	0.379370	0.759100
N51	N5	0.782300	0.990040	0.495380
N61	N6	0.972200	0.944300	0.578000
H151	H15	0.020000	0.922200	0.619400
C231	C23	0.333200	0.112800	0.655050
C241	C24	0.289100	0.062400	0.721820
H161	H16	0.317700	0.001100	0.725000
C251	C25	0.203700	0.102320	0.783200
C261	C26	0.163100	0.194820	0.779380
H171	H17	0.103500	0.222000	0.820200
C271	C27	0.212400	0.245720	0.714250
C281	C28	0.295600	0.205100	0.652250
H181	H18	0.326600	0.239700	0.608400
C291	C29	0.415100	0.067670	0.585750
C301	C30	0.151800	0.044040	0.853070
C311	C31	0.813200	0.951840	0.566430
H191	H19	0.733100	0.933300	0.602400
C321	C32	0.931300	0.005600	0.462440
H201	H20	0.947400	0.031500	0.412600
C331	C33	0.049400	0.979700	0.509400
H211	H21	0.161800	0.983700	0.499800
Zn41	Zn4	0.939680	0.972530	0.954740
S41	S4	0.331090	0.635950	0.210300
O221	O22	0.031300	0.882350	0.030640
O231	O23	0.072700	0.016800	0.083470
O241	O24	0.475000	0.927740	0.390630
O251	O25	0.273000	0.026130	0.368620
O261	O26	0.363800	0.621340	0.125850
O271	O27	0.186100	0.589410	0.236830
O281	O28	0.474800	0.620630	0.259100
N71	N7	0.717700	0.009960	0.995380
N81	N8	0.527800	0.055700	0.078000
H221	H22	0.480000	0.077800	0.119400
C341	C34	0.166800	0.887200	0.155050
C351	C35	0.210900	0.937600	0.221820
H231	H23	0.182300	0.998900	0.225000
C361	C36	0.296300	0.897680	0.283200
C371	C37	0.336900	0.805180	0.279380
H241	H24	0.396500	0.778000	0.320200
C381	C38	0.287600	0.754280	0.214250
C391	C39	0.204400	0.794900	0.152250
H251	H25	0.173400	0.760300	0.108400
C401	C40	0.084900	0.932330	0.085750
C411	C41	0.348200	0.955960	0.353070
C421	C42	0.686800	0.048160	0.066430
H261	H26	0.766900	0.066700	0.102400
C431	C43	0.568700	0.994400	0.962440
H271	H27	0.552600	0.968500	0.912600
C441	C44	0.450600	0.020300	0.009400
H281	H28	0.338200	0.016300	0.999800
