data_VABJIS_clean_PM
_symmetry_space_group_name_H-M	'P1'
_cell_length_a	15.078000
_cell_length_b	15.078000
_cell_length_c	5.700000
_cell_angle_alpha	90.000000
_cell_angle_beta	90.000000
_cell_angle_gamma	90.000000
_symmetry_Int_Tables_number 1

loop_
_symmetry_equiv_pos_as_xyz
'x,y,z'

loop_
_atom_site_label
_atom_site_type_symbol
_atom_site_fract_x
_atom_site_fract_y
_atom_site_fract_z
H11	H1	0.702200	0.302400	0.416500
H21	H2	0.202200	0.802400	0.916500
H31	H3	0.797800	0.697600	0.916500
H41	H4	0.297800	0.197600	0.416500
H51	H5	0.947600	0.452200	0.666500
H61	H6	0.447600	0.952200	0.166500
H71	H7	0.552400	0.547800	0.166500
H81	H8	0.052400	0.047800	0.666500
H91	H9	0.797800	0.302400	0.083500
H101	H10	0.297800	0.802400	0.583500
H111	H11	0.702200	0.697600	0.583500
H121	H12	0.202200	0.197600	0.083500
H131	H13	0.552400	0.452200	0.833500
H141	H14	0.052400	0.952200	0.333500
H151	H15	0.947600	0.547800	0.333500
H161	H16	0.447600	0.047800	0.833500
H171	H17	0.297800	0.697600	0.583500
H181	H18	0.797800	0.197600	0.083500
H191	H19	0.202200	0.302400	0.083500
H201	H20	0.702200	0.802400	0.583500
H211	H21	0.052400	0.547800	0.333500
H221	H22	0.552400	0.047800	0.833500
H231	H23	0.447600	0.452200	0.833500
H241	H24	0.947600	0.952200	0.333500
H251	H25	0.202200	0.697600	0.916500
H261	H26	0.702200	0.197600	0.416500
H271	H27	0.297800	0.302400	0.416500
H281	H28	0.797800	0.802400	0.916500
H291	H29	0.447600	0.547800	0.166500
H301	H30	0.947600	0.047800	0.666500
H311	H31	0.052400	0.452200	0.666500
H321	H32	0.552400	0.952200	0.166500
Ag11	Ag1	0.000000	0.250000	0.875000
Ag21	Ag2	0.500000	0.750000	0.375000
Ag31	Ag3	0.000000	0.750000	0.125000
Ag41	Ag4	0.500000	0.250000	0.625000
N11	N1	0.883000	0.250000	0.628000
C11	C1	0.823000	0.250000	0.500000
C21	C2	0.737000	0.250000	0.378000
N21	N2	0.617000	0.750000	0.128000
C31	C3	0.677000	0.750000	0.000000
C41	C4	0.763000	0.750000	0.878000
N31	N3	0.000000	0.633000	0.878000
C51	C5	0.000000	0.573000	0.750000
C61	C6	0.000000	0.487000	0.628000
N41	N4	0.500000	0.133000	0.378000
C71	C7	0.500000	0.073000	0.250000
C81	C8	0.500000	0.987000	0.128000
N51	N5	0.500000	0.367000	0.378000
C91	C9	0.500000	0.427000	0.250000
C101	C10	0.500000	0.513000	0.128000
N61	N6	0.000000	0.867000	0.878000
C111	C11	0.000000	0.927000	0.750000
C121	C12	0.000000	0.013000	0.628000
N71	N7	0.617000	0.250000	0.872000
C131	C13	0.677000	0.250000	0.000000
C141	C14	0.763000	0.250000	0.122000
N81	N8	0.883000	0.750000	0.372000
C151	C15	0.823000	0.750000	0.500000
C161	C16	0.737000	0.750000	0.622000
N91	N9	0.383000	0.250000	0.872000
C171	C17	0.323000	0.250000	0.000000
C181	C18	0.237000	0.250000	0.122000
N101	N10	0.500000	0.633000	0.622000
C191	C19	0.500000	0.573000	0.750000
C201	C20	0.500000	0.487000	0.872000
N111	N11	0.000000	0.133000	0.122000
C211	C21	0.000000	0.073000	0.250000
C221	C22	0.000000	0.987000	0.372000
N121	N12	0.000000	0.367000	0.122000
C231	C23	0.000000	0.427000	0.250000
C241	C24	0.000000	0.513000	0.372000
N131	N13	0.500000	0.867000	0.622000
C251	C25	0.500000	0.927000	0.750000
C261	C26	0.500000	0.013000	0.872000
N141	N14	0.117000	0.750000	0.372000
C271	C27	0.177000	0.750000	0.500000
C281	C28	0.263000	0.750000	0.622000
N151	N15	0.383000	0.750000	0.128000
C291	C29	0.323000	0.750000	0.000000
C301	C30	0.237000	0.750000	0.878000
N161	N16	0.117000	0.250000	0.628000
C311	C31	0.177000	0.250000	0.500000
C321	C32	0.263000	0.250000	0.378000
