data_VACFUB_clean_h_PM
_symmetry_space_group_name_H-M	'P1'
_cell_length_a	6.258000
_cell_length_b	15.526000
_cell_length_c	15.526000
_cell_angle_alpha	120.000000
_cell_angle_beta	90.000000
_cell_angle_gamma	90.000000
_symmetry_Int_Tables_number 1

loop_
_symmetry_equiv_pos_as_xyz
'x,y,z'

loop_
_atom_site_label
_atom_site_type_symbol
_atom_site_fract_x
_atom_site_fract_y
_atom_site_fract_z
Zn11	Zn1	0.951550	0.166730	0.333340
Zn21	Zn2	0.618220	0.166610	0.833270
Zn31	Zn3	0.284880	0.666660	0.833390
C11	C1	0.850100	0.981200	0.188900
C21	C2	0.848700	0.351700	0.477700
C31	C3	0.707900	0.902500	0.107200
C41	C4	0.390500	0.852700	0.010900
C51	C5	0.709300	0.430900	0.558400
C61	C6	0.788000	0.527800	0.619700
C71	C7	0.507600	0.927900	0.091400
C81	C8	0.507800	0.406600	0.575900
C91	C9	0.787400	0.805700	0.046600
C101	C10	0.389600	0.480200	0.654200
C111	C11	0.659500	0.736700	0.968700
C121	C12	0.660800	0.594600	0.696700
C131	C13	0.516770	0.207700	0.018800
C141	C14	0.515370	0.126000	0.648300
C151	C15	0.374570	0.204700	0.097500
C161	C16	0.057170	0.158200	0.147300
C171	C17	0.375970	0.127500	0.569100
C181	C18	0.454670	0.091900	0.472200
C191	C19	0.174270	0.163500	0.072100
C201	C20	0.174470	0.169300	0.593400
C211	C21	0.454070	0.240900	0.194300
C221	C22	0.056270	0.174000	0.519800
C231	C23	0.326170	0.232000	0.263300
C241	C24	0.327470	0.102100	0.405400
C251	C25	0.183430	0.811100	0.792300
C261	C26	0.182030	0.522300	0.874000
C271	C27	0.041230	0.892800	0.795300
C281	C28	0.723830	0.989100	0.841800
C291	C29	0.042630	0.441600	0.872500
C301	C30	0.121330	0.380300	0.908100
C311	C31	0.840930	0.908600	0.836500
C321	C32	0.841130	0.424100	0.830700
C331	C33	0.120730	0.953400	0.759100
C341	C34	0.722930	0.345800	0.826000
C351	C35	0.992830	0.031300	0.768000
C361	C36	0.994130	0.303300	0.897900
N11	N1	0.464600	0.761800	0.952800
N21	N2	0.465000	0.572200	0.714100
N31	N3	0.131270	0.191000	0.238200
N41	N4	0.131670	0.141900	0.427800
N51	N5	0.797930	0.047200	0.809000
N61	N6	0.798330	0.285900	0.858100
O11	O1	0.751900	0.271200	0.419200
O21	O2	0.751500	0.061500	0.247800
O31	O3	0.040000	0.368100	0.475900
O41	O4	0.040200	0.965600	0.190600
O51	O5	0.418570	0.148000	0.728800
O61	O6	0.418170	0.186300	0.938500
O71	O7	0.706670	0.107800	0.631900
O81	O8	0.706870	0.225000	0.034400
O91	O9	0.085230	0.580800	0.852000
O101	O10	0.084830	0.752200	0.813700
O111	O11	0.373330	0.524100	0.892200
O121	O12	0.373530	0.809400	0.775000
H11	H1	0.223500	0.869180	0.993520
H21	H2	0.952680	0.549100	0.604960
H31	H3	0.434500	0.004810	0.139160
H41	H4	0.442780	0.328210	0.526920
H51	H5	0.952580	0.785040	0.061530
H61	H6	0.221090	0.463380	0.669580
H71	H7	0.720650	0.657960	0.917750
H81	H8	0.721290	0.673110	0.749140
H91	H9	0.890170	0.124330	0.130820
H101	H10	0.619350	0.055860	0.450900
H111	H11	0.110420	0.135720	0.993790
H121	H12	0.109450	0.198700	0.671790
H131	H13	0.619250	0.276490	0.214960
H141	H14	0.887760	0.206200	0.536620
H151	H15	0.387320	0.259790	0.342040
H161	H16	0.387960	0.076030	0.326890
H171	H17	0.556830	0.006480	0.875670
H181	H18	0.286010	0.395040	0.944140
H191	H19	0.767830	0.860840	0.865650
H201	H20	0.776110	0.473080	0.801300
H211	H21	0.285910	0.938470	0.723510
H221	H22	0.554420	0.330420	0.793800
H231	H23	0.053980	0.082250	0.740210
H241	H24	0.054620	0.250860	0.923970
