data_VADWON_clean_PM
_symmetry_space_group_name_H-M	'P1'
_cell_length_a	9.334000
_cell_length_b	25.458000
_cell_length_c	19.822000
_cell_angle_alpha	90.000000
_cell_angle_beta	99.860000
_cell_angle_gamma	90.000000
_symmetry_Int_Tables_number 1

loop_
_symmetry_equiv_pos_as_xyz
'x,y,z'

loop_
_atom_site_label
_atom_site_type_symbol
_atom_site_fract_x
_atom_site_fract_y
_atom_site_fract_z
N11	N1	0.198200	0.048970	0.021240
N21	N2	0.349700	0.113780	0.057920
N31	N3	0.909000	0.038130	0.078810
N41	N4	0.839000	0.050660	0.177800
N51	N5	0.107000	0.940670	0.070090
N61	N6	0.170600	0.860800	0.107400
C11	C1	0.218900	0.092270	0.059180
H11	H1	0.151000	0.106000	0.083600
C21	C2	0.324700	0.043270	0.994820
H21	H2	0.343500	0.016200	0.966100
C31	C3	0.417700	0.083000	0.016980
H31	H3	0.509900	0.088200	0.006300
C41	C4	0.395800	0.165440	0.084130
H41	H4	0.499800	0.169000	0.085700
H51	H5	0.376700	0.168900	0.130500
C51	C5	0.317700	0.209010	0.040130
C61	C6	0.293100	0.205500	0.969410
H61	H6	0.322500	0.175700	0.948400
C71	C7	0.275200	0.253800	0.070590
H71	H7	0.292300	0.256800	0.118100
C81	C8	0.893100	0.016340	0.137110
H81	H8	0.916300	0.981600	0.148800
C91	C9	0.861400	0.088990	0.082700
H91	H9	0.858200	0.114100	0.048500
C101	C10	0.820400	0.096810	0.143300
H101	H10	0.785600	0.128000	0.158800
C111	C11	0.809400	0.039000	0.246540
H111	H11	0.856400	0.065200	0.278400
H121	H12	0.850400	0.005100	0.261100
C121	C12	0.647500	0.038610	0.248460
C131	C13	0.573400	0.085760	0.249900
H131	H13	0.623500	0.117400	0.250800
C141	C14	0.573000	0.991610	0.248700
H141	H14	0.622000	0.960000	0.247000
C151	C15	0.061700	0.892620	0.079070
H151	H15	0.965500	0.881900	0.067200
C161	C16	0.253800	0.939190	0.094480
H161	H16	0.316200	0.967700	0.095300
C171	C17	0.294900	0.890380	0.117210
H171	H17	0.388300	0.879300	0.135700
C181	C18	0.163900	0.803640	0.116920
H181	H18	0.065900	0.793600	0.121700
H191	H19	0.228900	0.793700	0.158500
C191	C19	0.207600	0.774810	0.055860
C201	C20	0.117500	0.775220	0.993450
H201	H20	0.027800	0.792000	0.988600
C211	C21	0.339800	0.749430	0.062710
H211	H21	0.400800	0.748700	0.105000
N71	N7	0.698200	0.548970	0.021240
N81	N8	0.849700	0.613780	0.057920
N91	N9	0.409000	0.538130	0.078810
N101	N10	0.339000	0.550660	0.177800
N111	N11	0.607000	0.440670	0.070090
N121	N12	0.670600	0.360800	0.107400
C221	C22	0.718900	0.592270	0.059180
H221	H22	0.651000	0.606000	0.083600
C231	C23	0.824700	0.543270	0.994820
H231	H23	0.843500	0.516200	0.966100
C241	C24	0.917700	0.583000	0.016980
H241	H24	0.009900	0.588200	0.006300
C251	C25	0.895800	0.665440	0.084130
H251	H25	0.999800	0.669000	0.085700
H261	H26	0.876700	0.668900	0.130500
C261	C26	0.817700	0.709010	0.040130
C271	C27	0.793100	0.705500	0.969410
H271	H27	0.822500	0.675700	0.948400
C281	C28	0.775200	0.753800	0.070590
H281	H28	0.792300	0.756800	0.118100
C291	C29	0.393100	0.516340	0.137110
H291	H29	0.416300	0.481600	0.148800
C301	C30	0.361400	0.588990	0.082700
H301	H30	0.358200	0.614100	0.048500
C311	C31	0.320400	0.596810	0.143300
H311	H31	0.285600	0.628000	0.158800
C321	C32	0.309400	0.539000	0.246540
H321	H32	0.356400	0.565200	0.278400
H331	H33	0.350400	0.505100	0.261100
C331	C33	0.147500	0.538610	0.248460
C341	C34	0.073400	0.585760	0.249900
H341	H34	0.123500	0.617400	0.250800
C351	C35	0.073000	0.491610	0.248700
H351	H35	0.122000	0.460000	0.247000
C361	C36	0.561700	0.392620	0.079070
H361	H36	0.465500	0.381900	0.067200
C371	C37	0.753800	0.439190	0.094480
H371	H37	0.816200	0.467700	0.095300
C381	C38	0.794900	0.390380	0.117210
H381	H38	0.888300	0.379300	0.135700
C391	C39	0.663900	0.303640	0.116920
H391	H39	0.565900	0.293600	0.121700
H401	H40	0.728900	0.293700	0.158500
C401	C40	0.707600	0.274810	0.055860
C411	C41	0.617500	0.275220	0.993450
H411	H41	0.527800	0.292000	0.988600
C421	C42	0.839800	0.249430	0.062710
H421	H42	0.900800	0.248700	0.105000
N131	N13	0.801800	0.048970	0.478760
N141	N14	0.650300	0.113780	0.442080
N151	N15	0.091000	0.038130	0.421190
N161	N16	0.161000	0.050660	0.322200
N171	N17	0.893000	0.940670	0.429910
N181	N18	0.829400	0.860800	0.392600
C431	C43	0.781100	0.092270	0.440820
H431	H43	0.849000	0.106000	0.416400
C441	C44	0.675300	0.043270	0.505180
H441	H44	0.656500	0.016200	0.533900
C451	C45	0.582300	0.083000	0.483020
H451	H45	0.490100	0.088200	0.493700
C461	C46	0.604200	0.165440	0.415870
H461	H46	0.500200	0.169000	0.414300
H471	H47	0.623300	0.168900	0.369500
C471	C47	0.682300	0.209010	0.459870
C481	C48	0.706900	0.205500	0.530590
H481	H48	0.677500	0.175700	0.551600
C491	C49	0.724800	0.253800	0.429410
H491	H49	0.707700	0.256800	0.381900
C501	C50	0.106900	0.016340	0.362890
H501	H50	0.083700	0.981600	0.351200
C511	C51	0.138600	0.088990	0.417300
H511	H51	0.141800	0.114100	0.451500
C521	C52	0.179600	0.096810	0.356700
H521	H52	0.214400	0.128000	0.341200
C531	C53	0.190600	0.039000	0.253460
H531	H53	0.143600	0.065200	0.221600
H541	H54	0.149600	0.005100	0.238900
C541	C54	0.352500	0.038610	0.251540
C551	C55	0.426600	0.085760	0.250100
H551	H55	0.376500	0.117400	0.249200
C561	C56	0.427000	0.991610	0.251300
H561	H56	0.378000	0.960000	0.253000
C571	C57	0.938300	0.892620	0.420930
H571	H57	0.034500	0.881900	0.432800
C581	C58	0.746200	0.939190	0.405520
H581	H58	0.683800	0.967700	0.404700
C591	C59	0.705100	0.890380	0.382790
H591	H59	0.611700	0.879300	0.364300
C601	C60	0.836100	0.803640	0.383080
H601	H60	0.934100	0.793600	0.378300
H611	H61	0.771100	0.793700	0.341500
C611	C61	0.792400	0.774810	0.444140
C621	C62	0.882500	0.775220	0.506550
H621	H62	0.972200	0.792000	0.511400
C631	C63	0.660200	0.749430	0.437290
H631	H63	0.599200	0.748700	0.395000
N191	N19	0.301800	0.548970	0.478760
N201	N20	0.150300	0.613780	0.442080
N211	N21	0.591000	0.538130	0.421190
N221	N22	0.661000	0.550660	0.322200
N231	N23	0.393000	0.440670	0.429910
N241	N24	0.329400	0.360800	0.392600
C641	C64	0.281100	0.592270	0.440820
H641	H64	0.349000	0.606000	0.416400
C651	C65	0.175300	0.543270	0.505180
H651	H65	0.156500	0.516200	0.533900
C661	C66	0.082300	0.583000	0.483020
H661	H66	0.990100	0.588200	0.493700
C671	C67	0.104200	0.665440	0.415870
H671	H67	0.000200	0.669000	0.414300
H681	H68	0.123300	0.668900	0.369500
C681	C68	0.182300	0.709010	0.459870
C691	C69	0.206900	0.705500	0.530590
H691	H69	0.177500	0.675700	0.551600
C701	C70	0.224800	0.753800	0.429410
H701	H70	0.207700	0.756800	0.381900
C711	C71	0.606900	0.516340	0.362890
H711	H71	0.583700	0.481600	0.351200
C721	C72	0.638600	0.588990	0.417300
H721	H72	0.641800	0.614100	0.451500
C731	C73	0.679600	0.596810	0.356700
H731	H73	0.714400	0.628000	0.341200
C741	C74	0.690600	0.539000	0.253460
H741	H74	0.643600	0.565200	0.221600
H751	H75	0.649600	0.505100	0.238900
C751	C75	0.852500	0.538610	0.251540
C761	C76	0.926600	0.585760	0.250100
H761	H76	0.876500	0.617400	0.249200
C771	C77	0.927000	0.491610	0.251300
H771	H77	0.878000	0.460000	0.253000
C781	C78	0.438300	0.392620	0.420930
H781	H78	0.534500	0.381900	0.432800
C791	C79	0.246200	0.439190	0.405520
H791	H79	0.183800	0.467700	0.404700
C801	C80	0.205100	0.390380	0.382790
H801	H80	0.111700	0.379300	0.364300
C811	C81	0.336100	0.303640	0.383080
H811	H81	0.434100	0.293600	0.378300
H821	H82	0.271100	0.293700	0.341500
C821	C82	0.292400	0.274810	0.444140
C831	C83	0.382500	0.275220	0.506550
H831	H83	0.472200	0.292000	0.511400
C841	C84	0.160200	0.249430	0.437290
H841	H84	0.099200	0.248700	0.395000
N251	N25	0.801800	0.951030	0.978760
N261	N26	0.650300	0.886220	0.942080
N271	N27	0.091000	0.961870	0.921190
N281	N28	0.161000	0.949340	0.822200
N291	N29	0.893000	0.059330	0.929910
N301	N30	0.829400	0.139200	0.892600
C851	C85	0.781100	0.907730	0.940820
H851	H85	0.849000	0.894000	0.916400
C861	C86	0.675300	0.956730	0.005180
H861	H86	0.656500	0.983800	0.033900
C871	C87	0.582300	0.917000	0.983020
H871	H87	0.490100	0.911800	0.993700
C881	C88	0.604200	0.834560	0.915870
H881	H88	0.500200	0.831000	0.914300
H891	H89	0.623300	0.831100	0.869500
C891	C89	0.682300	0.790990	0.959870
C901	C90	0.706900	0.794500	0.030590
H901	H90	0.677500	0.824300	0.051600
C911	C91	0.724800	0.746200	0.929410
H911	H91	0.707700	0.743200	0.881900
C921	C92	0.106900	0.983660	0.862890
H921	H92	0.083700	0.018400	0.851200
C931	C93	0.138600	0.911010	0.917300
H931	H93	0.141800	0.885900	0.951500
C941	C94	0.179600	0.903190	0.856700
H941	H94	0.214400	0.872000	0.841200
C951	C95	0.190600	0.961000	0.753460
H951	H95	0.143600	0.934800	0.721600
H961	H96	0.149600	0.994900	0.738900
C961	C96	0.352500	0.961390	0.751540
C971	C97	0.426600	0.914240	0.750100
H971	H97	0.376500	0.882600	0.749200
C981	C98	0.427000	0.008390	0.751300
H981	H98	0.378000	0.040000	0.753000
C991	C99	0.938300	0.107380	0.920930
H991	H99	0.034500	0.118100	0.932800
C1001	C100	0.746200	0.060810	0.905520
H1001	H100	0.683800	0.032300	0.904700
C1011	C101	0.705100	0.109620	0.882790
H1011	H101	0.611700	0.120700	0.864300
C1021	C102	0.836100	0.196360	0.883080
H1021	H102	0.934100	0.206400	0.878300
H1031	H103	0.771100	0.206300	0.841500
C1031	C103	0.792400	0.225190	0.944140
C1041	C104	0.882500	0.224780	0.006550
H1041	H104	0.972200	0.208000	0.011400
C1051	C105	0.660200	0.250570	0.937290
H1051	H105	0.599200	0.251300	0.895000
N311	N31	0.301800	0.451030	0.978760
N321	N32	0.150300	0.386220	0.942080
N331	N33	0.591000	0.461870	0.921190
N341	N34	0.661000	0.449340	0.822200
N351	N35	0.393000	0.559330	0.929910
N361	N36	0.329400	0.639200	0.892600
C1061	C106	0.281100	0.407730	0.940820
H1061	H106	0.349000	0.394000	0.916400
C1071	C107	0.175300	0.456730	0.005180
H1071	H107	0.156500	0.483800	0.033900
C1081	C108	0.082300	0.417000	0.983020
H1081	H108	0.990100	0.411800	0.993700
C1091	C109	0.104200	0.334560	0.915870
H1091	H109	0.000200	0.331000	0.914300
H1101	H110	0.123300	0.331100	0.869500
C1101	C110	0.182300	0.290990	0.959870
C1111	C111	0.206900	0.294500	0.030590
H1111	H111	0.177500	0.324300	0.051600
C1121	C112	0.224800	0.246200	0.929410
H1121	H112	0.207700	0.243200	0.881900
C1131	C113	0.606900	0.483660	0.862890
H1131	H113	0.583700	0.518400	0.851200
C1141	C114	0.638600	0.411010	0.917300
H1141	H114	0.641800	0.385900	0.951500
C1151	C115	0.679600	0.403190	0.856700
H1151	H115	0.714400	0.372000	0.841200
C1161	C116	0.690600	0.461000	0.753460
H1161	H116	0.643600	0.434800	0.721600
H1171	H117	0.649600	0.494900	0.738900
C1171	C117	0.852500	0.461390	0.751540
C1181	C118	0.926600	0.414240	0.750100
H1181	H118	0.876500	0.382600	0.749200
C1191	C119	0.927000	0.508390	0.751300
H1191	H119	0.878000	0.540000	0.753000
C1201	C120	0.438300	0.607380	0.920930
H1201	H120	0.534500	0.618100	0.932800
C1211	C121	0.246200	0.560810	0.905520
H1211	H121	0.183800	0.532300	0.904700
C1221	C122	0.205100	0.609620	0.882790
H1221	H122	0.111700	0.620700	0.864300
C1231	C123	0.336100	0.696360	0.883080
H1231	H123	0.434100	0.706400	0.878300
H1241	H124	0.271100	0.706300	0.841500
C1241	C124	0.292400	0.725190	0.944140
C1251	C125	0.382500	0.724780	0.006550
H1251	H125	0.472200	0.708000	0.011400
C1261	C126	0.160200	0.750570	0.937290
H1261	H126	0.099200	0.751300	0.895000
N371	N37	0.198200	0.951030	0.521240
N381	N38	0.349700	0.886220	0.557920
N391	N39	0.909000	0.961870	0.578810
N401	N40	0.839000	0.949340	0.677800
N411	N41	0.107000	0.059330	0.570090
N421	N42	0.170600	0.139200	0.607400
C1271	C127	0.218900	0.907730	0.559180
H1271	H127	0.151000	0.894000	0.583600
C1281	C128	0.324700	0.956730	0.494820
H1281	H128	0.343500	0.983800	0.466100
C1291	C129	0.417700	0.917000	0.516980
H1291	H129	0.509900	0.911800	0.506300
C1301	C130	0.395800	0.834560	0.584130
H1301	H130	0.499800	0.831000	0.585700
H1311	H131	0.376700	0.831100	0.630500
C1311	C131	0.317700	0.790990	0.540130
C1321	C132	0.293100	0.794500	0.469410
H1321	H132	0.322500	0.824300	0.448400
C1331	C133	0.275200	0.746200	0.570590
H1331	H133	0.292300	0.743200	0.618100
C1341	C134	0.893100	0.983660	0.637110
H1341	H134	0.916300	0.018400	0.648800
C1351	C135	0.861400	0.911010	0.582700
H1351	H135	0.858200	0.885900	0.548500
C1361	C136	0.820400	0.903190	0.643300
H1361	H136	0.785600	0.872000	0.658800
C1371	C137	0.809400	0.961000	0.746540
H1371	H137	0.856400	0.934800	0.778400
H1381	H138	0.850400	0.994900	0.761100
C1381	C138	0.647500	0.961390	0.748460
C1391	C139	0.573400	0.914240	0.749900
H1391	H139	0.623500	0.882600	0.750800
C1401	C140	0.573000	0.008390	0.748700
H1401	H140	0.622000	0.040000	0.747000
C1411	C141	0.061700	0.107380	0.579070
H1411	H141	0.965500	0.118100	0.567200
C1421	C142	0.253800	0.060810	0.594480
H1421	H142	0.316200	0.032300	0.595300
C1431	C143	0.294900	0.109620	0.617210
H1431	H143	0.388300	0.120700	0.635700
C1441	C144	0.163900	0.196360	0.616920
H1441	H144	0.065900	0.206400	0.621700
H1451	H145	0.228900	0.206300	0.658500
C1451	C145	0.207600	0.225190	0.555860
C1461	C146	0.117500	0.224780	0.493450
H1461	H146	0.027800	0.208000	0.488600
C1471	C147	0.339800	0.250570	0.562710
H1471	H147	0.400800	0.251300	0.605000
N431	N43	0.698200	0.451030	0.521240
N441	N44	0.849700	0.386220	0.557920
N451	N45	0.409000	0.461870	0.578810
N461	N46	0.339000	0.449340	0.677800
N471	N47	0.607000	0.559330	0.570090
N481	N48	0.670600	0.639200	0.607400
C1481	C148	0.718900	0.407730	0.559180
H1481	H148	0.651000	0.394000	0.583600
C1491	C149	0.824700	0.456730	0.494820
H1491	H149	0.843500	0.483800	0.466100
C1501	C150	0.917700	0.417000	0.516980
H1501	H150	0.009900	0.411800	0.506300
C1511	C151	0.895800	0.334560	0.584130
H1511	H151	0.999800	0.331000	0.585700
H1521	H152	0.876700	0.331100	0.630500
C1521	C152	0.817700	0.290990	0.540130
C1531	C153	0.793100	0.294500	0.469410
H1531	H153	0.822500	0.324300	0.448400
C1541	C154	0.775200	0.246200	0.570590
H1541	H154	0.792300	0.243200	0.618100
C1551	C155	0.393100	0.483660	0.637110
H1551	H155	0.416300	0.518400	0.648800
C1561	C156	0.361400	0.411010	0.582700
H1561	H156	0.358200	0.385900	0.548500
C1571	C157	0.320400	0.403190	0.643300
H1571	H157	0.285600	0.372000	0.658800
C1581	C158	0.309400	0.461000	0.746540
H1581	H158	0.356400	0.434800	0.778400
H1591	H159	0.350400	0.494900	0.761100
C1591	C159	0.147500	0.461390	0.748460
C1601	C160	0.073400	0.414240	0.749900
H1601	H160	0.123500	0.382600	0.750800
C1611	C161	0.073000	0.508390	0.748700
H1611	H161	0.122000	0.540000	0.747000
C1621	C162	0.561700	0.607380	0.579070
H1621	H162	0.465500	0.618100	0.567200
C1631	C163	0.753800	0.560810	0.594480
H1631	H163	0.816200	0.532300	0.595300
C1641	C164	0.794900	0.609620	0.617210
H1641	H164	0.888300	0.620700	0.635700
C1651	C165	0.663900	0.696360	0.616920
H1651	H165	0.565900	0.706400	0.621700
H1661	H166	0.728900	0.706300	0.658500
C1661	C166	0.707600	0.725190	0.555860
C1671	C167	0.617500	0.724780	0.493450
H1671	H167	0.527800	0.708000	0.488600
C1681	C168	0.839800	0.750570	0.562710
H1681	H168	0.900800	0.751300	0.605000
Co11	Co1	0.000000	0.000000	0.000000
Co21	Co2	0.500000	0.500000	0.000000
Co31	Co3	0.000000	0.000000	0.500000
Co41	Co4	0.500000	0.500000	0.500000
