data_VAGBEN_clean_PM
_symmetry_space_group_name_H-M	'P1'
_cell_length_a	8.526900
_cell_length_b	26.774000
_cell_length_c	12.050000
_cell_angle_alpha	90.000000
_cell_angle_beta	105.380000
_cell_angle_gamma	90.000000
_symmetry_Int_Tables_number 1

loop_
_symmetry_equiv_pos_as_xyz
'x,y,z'

loop_
_atom_site_label
_atom_site_type_symbol
_atom_site_fract_x
_atom_site_fract_y
_atom_site_fract_z
Gd11	Gd1	0.218170	0.481560	0.483230
Cu11	Cu1	0.905590	0.302120	0.989270
O11	O1	0.010600	0.440800	0.341900
O21	O2	0.782200	0.448400	0.399300
O31	O3	0.046500	0.456900	0.596300
O41	O4	0.823600	0.448700	0.651400
O51	O5	0.426700	0.468200	0.657800
O61	O6	0.588200	0.526000	0.618600
N11	N1	0.783700	0.337600	0.091200
N21	N2	0.032600	0.338500	0.890200
N31	N3	0.820100	0.537600	0.973100
C11	C1	0.858200	0.371000	0.174300
H11	H1	0.966600	0.378900	0.181500
C21	C2	0.780300	0.393400	0.247800
C31	C3	0.619300	0.381600	0.237700
H21	H2	0.562500	0.396900	0.284500
C41	C4	0.544400	0.346600	0.156500
H31	H3	0.437200	0.337400	0.150000
C51	C5	0.628300	0.325300	0.084800
H41	H4	0.576100	0.301800	0.030700
C61	C6	0.864800	0.430200	0.336400
C71	C7	0.963800	0.373400	0.811800
H51	H5	0.856500	0.382500	0.805100
C81	C8	0.046600	0.396500	0.740200
C91	C9	0.206100	0.382300	0.749800
H61	H6	0.264800	0.397100	0.703600
C101	C10	0.276800	0.346000	0.828400
H71	H7	0.382900	0.335400	0.835300
C111	C11	0.185700	0.325800	0.896500
H81	H8	0.234300	0.301700	0.950200
C121	C12	0.967800	0.436200	0.658100
C131	C13	0.742100	0.535800	0.856000
H91	H9	0.766600	0.559500	0.806900
C141	C14	0.631100	0.499900	0.812600
C151	C15	0.600100	0.465300	0.890100
H101	H10	0.520900	0.441200	0.861600
C161	C16	0.674000	0.464000	0.000400
H111	H11	0.655300	0.438600	0.047900
C171	C17	0.776000	0.500400	0.040400
H121	H12	0.822700	0.501600	0.119400
C181	C18	0.543300	0.497300	0.688700
Gd21	Gd2	0.781830	0.981560	0.516770
Cu21	Cu2	0.094410	0.802120	0.010730
O71	O7	0.989400	0.940800	0.658100
O81	O8	0.217800	0.948400	0.600700
O91	O9	0.953500	0.956900	0.403700
O101	O10	0.176400	0.948700	0.348600
O111	O11	0.573300	0.968200	0.342200
O121	O12	0.411800	0.026000	0.381400
N41	N4	0.216300	0.837600	0.908800
N51	N5	0.967400	0.838500	0.109800
N61	N6	0.179900	0.037600	0.026900
C191	C19	0.141800	0.871000	0.825700
H131	H13	0.033400	0.878900	0.818500
C201	C20	0.219700	0.893400	0.752200
C211	C21	0.380700	0.881600	0.762300
H141	H14	0.437500	0.896900	0.715500
C221	C22	0.455600	0.846600	0.843500
H151	H15	0.562800	0.837400	0.850000
C231	C23	0.371700	0.825300	0.915200
H161	H16	0.423900	0.801800	0.969300
C241	C24	0.135200	0.930200	0.663600
C251	C25	0.036200	0.873400	0.188200
H171	H17	0.143500	0.882500	0.194900
C261	C26	0.953400	0.896500	0.259800
C271	C27	0.793900	0.882300	0.250200
H181	H18	0.735200	0.897100	0.296400
C281	C28	0.723200	0.846000	0.171600
H191	H19	0.617100	0.835400	0.164700
C291	C29	0.814300	0.825800	0.103500
H201	H20	0.765700	0.801700	0.049800
C301	C30	0.032200	0.936200	0.341900
C311	C31	0.257900	0.035800	0.144000
H211	H21	0.233400	0.059500	0.193100
C321	C32	0.368900	0.999900	0.187400
C331	C33	0.399900	0.965300	0.109900
H221	H22	0.479100	0.941200	0.138400
C341	C34	0.326000	0.964000	0.999600
H231	H23	0.344700	0.938600	0.952100
C351	C35	0.224000	0.000400	0.959600
H241	H24	0.177300	0.001600	0.880600
C361	C36	0.456700	0.997300	0.311300
Gd31	Gd3	0.781830	0.518440	0.516770
Cu31	Cu3	0.094410	0.697880	0.010730
O131	O13	0.989400	0.559200	0.658100
O141	O14	0.217800	0.551600	0.600700
O151	O15	0.953500	0.543100	0.403700
O161	O16	0.176400	0.551300	0.348600
O171	O17	0.573300	0.531800	0.342200
O181	O18	0.411800	0.474000	0.381400
N71	N7	0.216300	0.662400	0.908800
N81	N8	0.967400	0.661500	0.109800
N91	N9	0.179900	0.462400	0.026900
C371	C37	0.141800	0.629000	0.825700
H251	H25	0.033400	0.621100	0.818500
C381	C38	0.219700	0.606600	0.752200
C391	C39	0.380700	0.618400	0.762300
H261	H26	0.437500	0.603100	0.715500
C401	C40	0.455600	0.653400	0.843500
H271	H27	0.562800	0.662600	0.850000
C411	C41	0.371700	0.674700	0.915200
H281	H28	0.423900	0.698200	0.969300
C421	C42	0.135200	0.569800	0.663600
C431	C43	0.036200	0.626600	0.188200
H291	H29	0.143500	0.617500	0.194900
C441	C44	0.953400	0.603500	0.259800
C451	C45	0.793900	0.617700	0.250200
H301	H30	0.735200	0.602900	0.296400
C461	C46	0.723200	0.654000	0.171600
H311	H31	0.617100	0.664600	0.164700
C471	C47	0.814300	0.674200	0.103500
H321	H32	0.765700	0.698300	0.049800
C481	C48	0.032200	0.563800	0.341900
C491	C49	0.257900	0.464200	0.144000
H331	H33	0.233400	0.440500	0.193100
C501	C50	0.368900	0.500100	0.187400
C511	C51	0.399900	0.534700	0.109900
H341	H34	0.479100	0.558800	0.138400
C521	C52	0.326000	0.536000	0.999600
H351	H35	0.344700	0.561400	0.952100
C531	C53	0.224000	0.499600	0.959600
H361	H36	0.177300	0.498400	0.880600
C541	C54	0.456700	0.502700	0.311300
Gd41	Gd4	0.218170	0.018440	0.483230
Cu41	Cu4	0.905590	0.197880	0.989270
O191	O19	0.010600	0.059200	0.341900
O201	O20	0.782200	0.051600	0.399300
O211	O21	0.046500	0.043100	0.596300
O221	O22	0.823600	0.051300	0.651400
O231	O23	0.426700	0.031800	0.657800
O241	O24	0.588200	0.974000	0.618600
N101	N10	0.783700	0.162400	0.091200
N111	N11	0.032600	0.161500	0.890200
N121	N12	0.820100	0.962400	0.973100
C551	C55	0.858200	0.129000	0.174300
H371	H37	0.966600	0.121100	0.181500
C561	C56	0.780300	0.106600	0.247800
C571	C57	0.619300	0.118400	0.237700
H381	H38	0.562500	0.103100	0.284500
C581	C58	0.544400	0.153400	0.156500
H391	H39	0.437200	0.162600	0.150000
C591	C59	0.628300	0.174700	0.084800
H401	H40	0.576100	0.198200	0.030700
C601	C60	0.864800	0.069800	0.336400
C611	C61	0.963800	0.126600	0.811800
H411	H41	0.856500	0.117500	0.805100
C621	C62	0.046600	0.103500	0.740200
C631	C63	0.206100	0.117700	0.749800
H421	H42	0.264800	0.102900	0.703600
C641	C64	0.276800	0.154000	0.828400
H431	H43	0.382900	0.164600	0.835300
C651	C65	0.185700	0.174200	0.896500
H441	H44	0.234300	0.198300	0.950200
C661	C66	0.967800	0.063800	0.658100
C671	C67	0.742100	0.964200	0.856000
H451	H45	0.766600	0.940500	0.806900
C681	C68	0.631100	0.000100	0.812600
C691	C69	0.600100	0.034700	0.890100
H461	H46	0.520900	0.058800	0.861600
C701	C70	0.674000	0.036000	0.000400
H471	H47	0.655300	0.061400	0.047900
C711	C71	0.776000	0.999600	0.040400
H481	H48	0.822700	0.998400	0.119400
C721	C72	0.543300	0.002700	0.688700
I11	I1	0.131660	0.250000	0.149250
I21	I2	0.682000	0.250000	0.831750
I31	I3	0.868340	0.750000	0.850750
I41	I4	0.318000	0.750000	0.168250
