data_VAGBOX_clean_PM
_symmetry_space_group_name_H-M	'P1'
_cell_length_a	46.009000
_cell_length_b	9.733300
_cell_length_c	20.715900
_cell_angle_alpha	90.000000
_cell_angle_beta	105.770000
_cell_angle_gamma	90.000000
_symmetry_Int_Tables_number 1

loop_
_symmetry_equiv_pos_as_xyz
'x,y,z'

loop_
_atom_site_label
_atom_site_type_symbol
_atom_site_fract_x
_atom_site_fract_y
_atom_site_fract_z
Gd11	Gd1	0.496610	0.751630	0.483420
Cu11	Cu1	0.216300	0.406740	0.362700
Cu21	Cu2	0.266340	0.331170	0.467050
Cu31	Cu3	0.253000	0.576670	0.331480
I11	I1	0.216580	0.421440	0.491330
I21	I2	0.267680	0.321800	0.337510
I31	I3	0.198960	0.654220	0.311260
O11	O1	0.456440	0.655100	0.529800
O21	O2	0.478240	0.845700	0.577300
O31	O3	0.451100	0.883200	0.436800
O41	O4	0.466500	0.091900	0.472200
O51	O5	0.521490	0.599600	0.565100
O61	O6	0.531610	0.387400	0.602800
N11	N1	0.300140	0.463000	0.510500
N21	N2	0.287360	0.705800	0.344800
N31	N3	0.683780	0.229800	0.818600
C11	C1	0.329170	0.422900	0.529300
H11	H1	0.333300	0.329400	0.529100
C21	C2	0.353400	0.513000	0.548900
H21	H2	0.373000	0.478900	0.562200
C31	C3	0.348500	0.651200	0.548800
C41	C4	0.318510	0.695700	0.530800
H31	H3	0.313900	0.788600	0.531500
C51	C5	0.296010	0.599300	0.512000
H41	H4	0.276200	0.631200	0.499300
C61	C6	0.373630	0.751800	0.566100
C71	C7	0.401780	0.716400	0.558200
H51	H5	0.404200	0.630900	0.540300
C81	C8	0.426510	0.804900	0.576300
C91	C9	0.422710	0.935300	0.601600
H61	H6	0.438800	0.996400	0.613400
C101	C10	0.394480	0.972500	0.608800
H71	H7	0.391800	0.058900	0.625400
C111	C11	0.370490	0.881600	0.591500
H81	H8	0.351900	0.907900	0.596900
C121	C12	0.455630	0.765300	0.561200
C131	C13	0.316450	0.665800	0.362600
H91	H9	0.320800	0.572300	0.364600
C141	C14	0.339880	0.757400	0.377600
H101	H10	0.359600	0.724300	0.389700
C151	C15	0.335190	0.896000	0.375400
C161	C16	0.305250	0.938000	0.356200
H111	H11	0.300600	0.031100	0.352800
C171	C17	0.282630	0.842200	0.342300
H121	H12	0.262800	0.873300	0.330300
C181	C18	0.360370	0.999300	0.395700
C191	C19	0.390520	0.960700	0.409600
H131	H13	0.395200	0.869100	0.404400
C201	C20	0.413470	0.052500	0.430700
C211	C21	0.406910	0.190500	0.437400
H141	H14	0.422400	0.254200	0.451600
C221	C22	0.377470	0.231000	0.422800
H151	H15	0.373000	0.323200	0.427000
C231	C23	0.354150	0.138200	0.401800
H161	H16	0.334200	0.168300	0.391800
C241	C24	0.445760	0.007500	0.447300
C251	C25	0.654980	0.191200	0.796600
H171	H17	0.650600	0.098500	0.799300
C261	C26	0.631260	0.279000	0.770200
H181	H18	0.611700	0.244700	0.755200
C271	C27	0.636500	0.417400	0.765900
C281	C28	0.666460	0.459600	0.788000
H191	H19	0.671400	0.551600	0.784800
C291	C29	0.688860	0.365500	0.814300
H201	H20	0.708600	0.397200	0.830000
C301	C30	0.611720	0.514000	0.737700
C311	C31	0.586220	0.473000	0.688500
H211	H21	0.584900	0.382600	0.673400
C321	C32	0.562840	0.562000	0.661500
C331	C33	0.564550	0.695700	0.684400
H221	H22	0.548900	0.756900	0.666400
C341	C34	0.589400	0.738600	0.734000
H231	H23	0.590100	0.827900	0.750300
C351	C35	0.613220	0.650300	0.759900
H241	H24	0.630200	0.681400	0.792000
C361	C36	0.536720	0.513900	0.605900
Gd21	Gd2	0.996610	0.251630	0.483420
Cu41	Cu4	0.716300	0.906740	0.362700
Cu51	Cu5	0.766340	0.831170	0.467050
Cu61	Cu6	0.753000	0.076670	0.331480
I41	I4	0.716580	0.921440	0.491330
I51	I5	0.767680	0.821800	0.337510
I61	I6	0.698960	0.154220	0.311260
O71	O7	0.956440	0.155100	0.529800
O81	O8	0.978240	0.345700	0.577300
O91	O9	0.951100	0.383200	0.436800
O101	O10	0.966500	0.591900	0.472200
O111	O11	0.021490	0.099600	0.565100
O121	O12	0.031610	0.887400	0.602800
N41	N4	0.800140	0.963000	0.510500
N51	N5	0.787360	0.205800	0.344800
N61	N6	0.183780	0.729800	0.818600
C371	C37	0.829170	0.922900	0.529300
H251	H25	0.833300	0.829400	0.529100
C381	C38	0.853400	0.013000	0.548900
H261	H26	0.873000	0.978900	0.562200
C391	C39	0.848500	0.151200	0.548800
C401	C40	0.818510	0.195700	0.530800
H271	H27	0.813900	0.288600	0.531500
C411	C41	0.796010	0.099300	0.512000
H281	H28	0.776200	0.131200	0.499300
C421	C42	0.873630	0.251800	0.566100
C431	C43	0.901780	0.216400	0.558200
H291	H29	0.904200	0.130900	0.540300
C441	C44	0.926510	0.304900	0.576300
C451	C45	0.922710	0.435300	0.601600
H301	H30	0.938800	0.496400	0.613400
C461	C46	0.894480	0.472500	0.608800
H311	H31	0.891800	0.558900	0.625400
C471	C47	0.870490	0.381600	0.591500
H321	H32	0.851900	0.407900	0.596900
C481	C48	0.955630	0.265300	0.561200
C491	C49	0.816450	0.165800	0.362600
H331	H33	0.820800	0.072300	0.364600
C501	C50	0.839880	0.257400	0.377600
H341	H34	0.859600	0.224300	0.389700
C511	C51	0.835190	0.396000	0.375400
C521	C52	0.805250	0.438000	0.356200
H351	H35	0.800600	0.531100	0.352800
C531	C53	0.782630	0.342200	0.342300
H361	H36	0.762800	0.373300	0.330300
C541	C54	0.860370	0.499300	0.395700
C551	C55	0.890520	0.460700	0.409600
H371	H37	0.895200	0.369100	0.404400
C561	C56	0.913470	0.552500	0.430700
C571	C57	0.906910	0.690500	0.437400
H381	H38	0.922400	0.754200	0.451600
C581	C58	0.877470	0.731000	0.422800
H391	H39	0.873000	0.823200	0.427000
C591	C59	0.854150	0.638200	0.401800
H401	H40	0.834200	0.668300	0.391800
C601	C60	0.945760	0.507500	0.447300
C611	C61	0.154980	0.691200	0.796600
H411	H41	0.150600	0.598500	0.799300
C621	C62	0.131260	0.779000	0.770200
H421	H42	0.111700	0.744700	0.755200
C631	C63	0.136500	0.917400	0.765900
C641	C64	0.166460	0.959600	0.788000
H431	H43	0.171400	0.051600	0.784800
C651	C65	0.188860	0.865500	0.814300
H441	H44	0.208600	0.897200	0.830000
C661	C66	0.111720	0.014000	0.737700
C671	C67	0.086220	0.973000	0.688500
H451	H45	0.084900	0.882600	0.673400
C681	C68	0.062840	0.062000	0.661500
C691	C69	0.064550	0.195700	0.684400
H461	H46	0.048900	0.256900	0.666400
C701	C70	0.089400	0.238600	0.734000
H471	H47	0.090100	0.327900	0.750300
C711	C71	0.113220	0.150300	0.759900
H481	H48	0.130200	0.181400	0.792000
C721	C72	0.036720	0.013900	0.605900
Gd31	Gd3	0.503390	0.751630	0.016580
Cu71	Cu7	0.783700	0.406740	0.137300
Cu81	Cu8	0.733660	0.331170	0.032950
Cu91	Cu9	0.747000	0.576670	0.168520
I71	I7	0.783420	0.421440	0.008670
I81	I8	0.732320	0.321800	0.162490
I91	I9	0.801040	0.654220	0.188740
O131	O13	0.543560	0.655100	0.970200
O141	O14	0.521760	0.845700	0.922700
O151	O15	0.548900	0.883200	0.063200
O161	O16	0.533500	0.091900	0.027800
O171	O17	0.478510	0.599600	0.934900
O181	O18	0.468390	0.387400	0.897200
N71	N7	0.699860	0.463000	0.989500
N81	N8	0.712640	0.705800	0.155200
N91	N9	0.316220	0.229800	0.681400
C731	C73	0.670830	0.422900	0.970700
H491	H49	0.666700	0.329400	0.970900
C741	C74	0.646600	0.513000	0.951100
H501	H50	0.627000	0.478900	0.937800
C751	C75	0.651500	0.651200	0.951200
C761	C76	0.681490	0.695700	0.969200
H511	H51	0.686100	0.788600	0.968500
C771	C77	0.703990	0.599300	0.988000
H521	H52	0.723800	0.631200	0.000700
C781	C78	0.626370	0.751800	0.933900
C791	C79	0.598220	0.716400	0.941800
H531	H53	0.595800	0.630900	0.959700
C801	C80	0.573490	0.804900	0.923700
C811	C81	0.577290	0.935300	0.898400
H541	H54	0.561200	0.996400	0.886600
C821	C82	0.605520	0.972500	0.891200
H551	H55	0.608200	0.058900	0.874600
C831	C83	0.629510	0.881600	0.908500
H561	H56	0.648100	0.907900	0.903100
C841	C84	0.544370	0.765300	0.938800
C851	C85	0.683550	0.665800	0.137400
H571	H57	0.679200	0.572300	0.135400
C861	C86	0.660120	0.757400	0.122400
H581	H58	0.640400	0.724300	0.110300
C871	C87	0.664810	0.896000	0.124600
C881	C88	0.694750	0.938000	0.143800
H591	H59	0.699400	0.031100	0.147200
C891	C89	0.717370	0.842200	0.157700
H601	H60	0.737200	0.873300	0.169700
C901	C90	0.639630	0.999300	0.104300
C911	C91	0.609480	0.960700	0.090400
H611	H61	0.604800	0.869100	0.095600
C921	C92	0.586530	0.052500	0.069300
C931	C93	0.593090	0.190500	0.062600
H621	H62	0.577600	0.254200	0.048400
C941	C94	0.622530	0.231000	0.077200
H631	H63	0.627000	0.323200	0.073000
C951	C95	0.645850	0.138200	0.098200
H641	H64	0.665800	0.168300	0.108200
C961	C96	0.554240	0.007500	0.052700
C971	C97	0.345020	0.191200	0.703400
H651	H65	0.349400	0.098500	0.700700
C981	C98	0.368740	0.279000	0.729800
H661	H66	0.388300	0.244700	0.744800
C991	C99	0.363500	0.417400	0.734100
C1001	C100	0.333540	0.459600	0.712000
H671	H67	0.328600	0.551600	0.715200
C1011	C101	0.311140	0.365500	0.685700
H681	H68	0.291400	0.397200	0.670000
C1021	C102	0.388280	0.514000	0.762300
C1031	C103	0.413780	0.473000	0.811500
H691	H69	0.415100	0.382600	0.826600
C1041	C104	0.437160	0.562000	0.838500
C1051	C105	0.435450	0.695700	0.815600
H701	H70	0.451100	0.756900	0.833600
C1061	C106	0.410600	0.738600	0.766000
H711	H71	0.409900	0.827900	0.749700
C1071	C107	0.386780	0.650300	0.740100
H721	H72	0.369800	0.681400	0.708000
C1081	C108	0.463280	0.513900	0.894100
Gd41	Gd4	0.003390	0.251630	0.016580
Cu101	Cu10	0.283700	0.906740	0.137300
Cu111	Cu11	0.233660	0.831170	0.032950
Cu121	Cu12	0.247000	0.076670	0.168520
I101	I10	0.283420	0.921440	0.008670
I111	I11	0.232320	0.821800	0.162490
I121	I12	0.301040	0.154220	0.188740
O191	O19	0.043560	0.155100	0.970200
O201	O20	0.021760	0.345700	0.922700
O211	O21	0.048900	0.383200	0.063200
O221	O22	0.033500	0.591900	0.027800
O231	O23	0.978510	0.099600	0.934900
O241	O24	0.968390	0.887400	0.897200
N101	N10	0.199860	0.963000	0.989500
N111	N11	0.212640	0.205800	0.155200
N121	N12	0.816220	0.729800	0.681400
C1091	C109	0.170830	0.922900	0.970700
H731	H73	0.166700	0.829400	0.970900
C1101	C110	0.146600	0.013000	0.951100
H741	H74	0.127000	0.978900	0.937800
C1111	C111	0.151500	0.151200	0.951200
C1121	C112	0.181490	0.195700	0.969200
H751	H75	0.186100	0.288600	0.968500
C1131	C113	0.203990	0.099300	0.988000
H761	H76	0.223800	0.131200	0.000700
C1141	C114	0.126370	0.251800	0.933900
C1151	C115	0.098220	0.216400	0.941800
H771	H77	0.095800	0.130900	0.959700
C1161	C116	0.073490	0.304900	0.923700
C1171	C117	0.077290	0.435300	0.898400
H781	H78	0.061200	0.496400	0.886600
C1181	C118	0.105520	0.472500	0.891200
H791	H79	0.108200	0.558900	0.874600
C1191	C119	0.129510	0.381600	0.908500
H801	H80	0.148100	0.407900	0.903100
C1201	C120	0.044370	0.265300	0.938800
C1211	C121	0.183550	0.165800	0.137400
H811	H81	0.179200	0.072300	0.135400
C1221	C122	0.160120	0.257400	0.122400
H821	H82	0.140400	0.224300	0.110300
C1231	C123	0.164810	0.396000	0.124600
C1241	C124	0.194750	0.438000	0.143800
H831	H83	0.199400	0.531100	0.147200
C1251	C125	0.217370	0.342200	0.157700
H841	H84	0.237200	0.373300	0.169700
C1261	C126	0.139630	0.499300	0.104300
C1271	C127	0.109480	0.460700	0.090400
H851	H85	0.104800	0.369100	0.095600
C1281	C128	0.086530	0.552500	0.069300
C1291	C129	0.093090	0.690500	0.062600
H861	H86	0.077600	0.754200	0.048400
C1301	C130	0.122530	0.731000	0.077200
H871	H87	0.127000	0.823200	0.073000
C1311	C131	0.145850	0.638200	0.098200
H881	H88	0.165800	0.668300	0.108200
C1321	C132	0.054240	0.507500	0.052700
C1331	C133	0.845020	0.691200	0.703400
H891	H89	0.849400	0.598500	0.700700
C1341	C134	0.868740	0.779000	0.729800
H901	H90	0.888300	0.744700	0.744800
C1351	C135	0.863500	0.917400	0.734100
C1361	C136	0.833540	0.959600	0.712000
H911	H91	0.828600	0.051600	0.715200
C1371	C137	0.811140	0.865500	0.685700
H921	H92	0.791400	0.897200	0.670000
C1381	C138	0.888280	0.014000	0.762300
C1391	C139	0.913780	0.973000	0.811500
H931	H93	0.915100	0.882600	0.826600
C1401	C140	0.937160	0.062000	0.838500
C1411	C141	0.935450	0.195700	0.815600
H941	H94	0.951100	0.256900	0.833600
C1421	C142	0.910600	0.238600	0.766000
H951	H95	0.909900	0.327900	0.749700
C1431	C143	0.886780	0.150300	0.740100
H961	H96	0.869800	0.181400	0.708000
C1441	C144	0.963280	0.013900	0.894100
Gd51	Gd5	0.503390	0.248370	0.516580
Cu131	Cu13	0.783700	0.593260	0.637300
Cu141	Cu14	0.733660	0.668830	0.532950
Cu151	Cu15	0.747000	0.423330	0.668520
I131	I13	0.783420	0.578560	0.508670
I141	I14	0.732320	0.678200	0.662490
I151	I15	0.801040	0.345780	0.688740
O251	O25	0.543560	0.344900	0.470200
O261	O26	0.521760	0.154300	0.422700
O271	O27	0.548900	0.116800	0.563200
O281	O28	0.533500	0.908100	0.527800
O291	O29	0.478510	0.400400	0.434900
O301	O30	0.468390	0.612600	0.397200
N131	N13	0.699860	0.537000	0.489500
N141	N14	0.712640	0.294200	0.655200
N151	N15	0.316220	0.770200	0.181400
C1451	C145	0.670830	0.577100	0.470700
H971	H97	0.666700	0.670600	0.470900
C1461	C146	0.646600	0.487000	0.451100
H981	H98	0.627000	0.521100	0.437800
C1471	C147	0.651500	0.348800	0.451200
C1481	C148	0.681490	0.304300	0.469200
H991	H99	0.686100	0.211400	0.468500
C1491	C149	0.703990	0.400700	0.488000
H1001	H100	0.723800	0.368800	0.500700
C1501	C150	0.626370	0.248200	0.433900
C1511	C151	0.598220	0.283600	0.441800
H1011	H101	0.595800	0.369100	0.459700
C1521	C152	0.573490	0.195100	0.423700
C1531	C153	0.577290	0.064700	0.398400
H1021	H102	0.561200	0.003600	0.386600
C1541	C154	0.605520	0.027500	0.391200
H1031	H103	0.608200	0.941100	0.374600
C1551	C155	0.629510	0.118400	0.408500
H1041	H104	0.648100	0.092100	0.403100
C1561	C156	0.544370	0.234700	0.438800
C1571	C157	0.683550	0.334200	0.637400
H1051	H105	0.679200	0.427700	0.635400
C1581	C158	0.660120	0.242600	0.622400
H1061	H106	0.640400	0.275700	0.610300
C1591	C159	0.664810	0.104000	0.624600
C1601	C160	0.694750	0.062000	0.643800
H1071	H107	0.699400	0.968900	0.647200
C1611	C161	0.717370	0.157800	0.657700
H1081	H108	0.737200	0.126700	0.669700
C1621	C162	0.639630	0.000700	0.604300
C1631	C163	0.609480	0.039300	0.590400
H1091	H109	0.604800	0.130900	0.595600
C1641	C164	0.586530	0.947500	0.569300
C1651	C165	0.593090	0.809500	0.562600
H1101	H110	0.577600	0.745800	0.548400
C1661	C166	0.622530	0.769000	0.577200
H1111	H111	0.627000	0.676800	0.573000
C1671	C167	0.645850	0.861800	0.598200
H1121	H112	0.665800	0.831700	0.608200
C1681	C168	0.554240	0.992500	0.552700
C1691	C169	0.345020	0.808800	0.203400
H1131	H113	0.349400	0.901500	0.200700
C1701	C170	0.368740	0.721000	0.229800
H1141	H114	0.388300	0.755300	0.244800
C1711	C171	0.363500	0.582600	0.234100
C1721	C172	0.333540	0.540400	0.212000
H1151	H115	0.328600	0.448400	0.215200
C1731	C173	0.311140	0.634500	0.185700
H1161	H116	0.291400	0.602800	0.170000
C1741	C174	0.388280	0.486000	0.262300
C1751	C175	0.413780	0.527000	0.311500
H1171	H117	0.415100	0.617400	0.326600
C1761	C176	0.437160	0.438000	0.338500
C1771	C177	0.435450	0.304300	0.315600
H1181	H118	0.451100	0.243100	0.333600
C1781	C178	0.410600	0.261400	0.266000
H1191	H119	0.409900	0.172100	0.249700
C1791	C179	0.386780	0.349700	0.240100
H1201	H120	0.369800	0.318600	0.208000
C1801	C180	0.463280	0.486100	0.394100
Gd61	Gd6	0.003390	0.748370	0.516580
Cu161	Cu16	0.283700	0.093260	0.637300
Cu171	Cu17	0.233660	0.168830	0.532950
Cu181	Cu18	0.247000	0.923330	0.668520
I161	I16	0.283420	0.078560	0.508670
I171	I17	0.232320	0.178200	0.662490
I181	I18	0.301040	0.845780	0.688740
O311	O31	0.043560	0.844900	0.470200
O321	O32	0.021760	0.654300	0.422700
O331	O33	0.048900	0.616800	0.563200
O341	O34	0.033500	0.408100	0.527800
O351	O35	0.978510	0.900400	0.434900
O361	O36	0.968390	0.112600	0.397200
N161	N16	0.199860	0.037000	0.489500
N171	N17	0.212640	0.794200	0.655200
N181	N18	0.816220	0.270200	0.181400
C1811	C181	0.170830	0.077100	0.470700
H1211	H121	0.166700	0.170600	0.470900
C1821	C182	0.146600	0.987000	0.451100
H1221	H122	0.127000	0.021100	0.437800
C1831	C183	0.151500	0.848800	0.451200
C1841	C184	0.181490	0.804300	0.469200
H1231	H123	0.186100	0.711400	0.468500
C1851	C185	0.203990	0.900700	0.488000
H1241	H124	0.223800	0.868800	0.500700
C1861	C186	0.126370	0.748200	0.433900
C1871	C187	0.098220	0.783600	0.441800
H1251	H125	0.095800	0.869100	0.459700
C1881	C188	0.073490	0.695100	0.423700
C1891	C189	0.077290	0.564700	0.398400
H1261	H126	0.061200	0.503600	0.386600
C1901	C190	0.105520	0.527500	0.391200
H1271	H127	0.108200	0.441100	0.374600
C1911	C191	0.129510	0.618400	0.408500
H1281	H128	0.148100	0.592100	0.403100
C1921	C192	0.044370	0.734700	0.438800
C1931	C193	0.183550	0.834200	0.637400
H1291	H129	0.179200	0.927700	0.635400
C1941	C194	0.160120	0.742600	0.622400
H1301	H130	0.140400	0.775700	0.610300
C1951	C195	0.164810	0.604000	0.624600
C1961	C196	0.194750	0.562000	0.643800
H1311	H131	0.199400	0.468900	0.647200
C1971	C197	0.217370	0.657800	0.657700
H1321	H132	0.237200	0.626700	0.669700
C1981	C198	0.139630	0.500700	0.604300
C1991	C199	0.109480	0.539300	0.590400
H1331	H133	0.104800	0.630900	0.595600
C2001	C200	0.086530	0.447500	0.569300
C2011	C201	0.093090	0.309500	0.562600
H1341	H134	0.077600	0.245800	0.548400
C2021	C202	0.122530	0.269000	0.577200
H1351	H135	0.127000	0.176800	0.573000
C2031	C203	0.145850	0.361800	0.598200
H1361	H136	0.165800	0.331700	0.608200
C2041	C204	0.054240	0.492500	0.552700
C2051	C205	0.845020	0.308800	0.203400
H1371	H137	0.849400	0.401500	0.200700
C2061	C206	0.868740	0.221000	0.229800
H1381	H138	0.888300	0.255300	0.244800
C2071	C207	0.863500	0.082600	0.234100
C2081	C208	0.833540	0.040400	0.212000
H1391	H139	0.828600	0.948400	0.215200
C2091	C209	0.811140	0.134500	0.185700
H1401	H140	0.791400	0.102800	0.170000
C2101	C210	0.888280	0.986000	0.262300
C2111	C211	0.913780	0.027000	0.311500
H1411	H141	0.915100	0.117400	0.326600
C2121	C212	0.937160	0.938000	0.338500
C2131	C213	0.935450	0.804300	0.315600
H1421	H142	0.951100	0.743100	0.333600
C2141	C214	0.910600	0.761400	0.266000
H1431	H143	0.909900	0.672100	0.249700
C2151	C215	0.886780	0.849700	0.240100
H1441	H144	0.869800	0.818600	0.208000
C2161	C216	0.963280	0.986100	0.394100
Gd71	Gd7	0.496610	0.248370	0.983420
Cu191	Cu19	0.216300	0.593260	0.862700
Cu201	Cu20	0.266340	0.668830	0.967050
Cu211	Cu21	0.253000	0.423330	0.831480
I191	I19	0.216580	0.578560	0.991330
I201	I20	0.267680	0.678200	0.837510
I211	I21	0.198960	0.345780	0.811260
O371	O37	0.456440	0.344900	0.029800
O381	O38	0.478240	0.154300	0.077300
O391	O39	0.451100	0.116800	0.936800
O401	O40	0.466500	0.908100	0.972200
O411	O41	0.521490	0.400400	0.065100
O421	O42	0.531610	0.612600	0.102800
N191	N19	0.300140	0.537000	0.010500
N201	N20	0.287360	0.294200	0.844800
N211	N21	0.683780	0.770200	0.318600
C2171	C217	0.329170	0.577100	0.029300
H1451	H145	0.333300	0.670600	0.029100
C2181	C218	0.353400	0.487000	0.048900
H1461	H146	0.373000	0.521100	0.062200
C2191	C219	0.348500	0.348800	0.048800
C2201	C220	0.318510	0.304300	0.030800
H1471	H147	0.313900	0.211400	0.031500
C2211	C221	0.296010	0.400700	0.012000
H1481	H148	0.276200	0.368800	0.999300
C2221	C222	0.373630	0.248200	0.066100
C2231	C223	0.401780	0.283600	0.058200
H1491	H149	0.404200	0.369100	0.040300
C2241	C224	0.426510	0.195100	0.076300
C2251	C225	0.422710	0.064700	0.101600
H1501	H150	0.438800	0.003600	0.113400
C2261	C226	0.394480	0.027500	0.108800
H1511	H151	0.391800	0.941100	0.125400
C2271	C227	0.370490	0.118400	0.091500
H1521	H152	0.351900	0.092100	0.096900
C2281	C228	0.455630	0.234700	0.061200
C2291	C229	0.316450	0.334200	0.862600
H1531	H153	0.320800	0.427700	0.864600
C2301	C230	0.339880	0.242600	0.877600
H1541	H154	0.359600	0.275700	0.889700
C2311	C231	0.335190	0.104000	0.875400
C2321	C232	0.305250	0.062000	0.856200
H1551	H155	0.300600	0.968900	0.852800
C2331	C233	0.282630	0.157800	0.842300
H1561	H156	0.262800	0.126700	0.830300
C2341	C234	0.360370	0.000700	0.895700
C2351	C235	0.390520	0.039300	0.909600
H1571	H157	0.395200	0.130900	0.904400
C2361	C236	0.413470	0.947500	0.930700
C2371	C237	0.406910	0.809500	0.937400
H1581	H158	0.422400	0.745800	0.951600
C2381	C238	0.377470	0.769000	0.922800
H1591	H159	0.373000	0.676800	0.927000
C2391	C239	0.354150	0.861800	0.901800
H1601	H160	0.334200	0.831700	0.891800
C2401	C240	0.445760	0.992500	0.947300
C2411	C241	0.654980	0.808800	0.296600
H1611	H161	0.650600	0.901500	0.299300
C2421	C242	0.631260	0.721000	0.270200
H1621	H162	0.611700	0.755300	0.255200
C2431	C243	0.636500	0.582600	0.265900
C2441	C244	0.666460	0.540400	0.288000
H1631	H163	0.671400	0.448400	0.284800
C2451	C245	0.688860	0.634500	0.314300
H1641	H164	0.708600	0.602800	0.330000
C2461	C246	0.611720	0.486000	0.237700
C2471	C247	0.586220	0.527000	0.188500
H1651	H165	0.584900	0.617400	0.173400
C2481	C248	0.562840	0.438000	0.161500
C2491	C249	0.564550	0.304300	0.184400
H1661	H166	0.548900	0.243100	0.166400
C2501	C250	0.589400	0.261400	0.234000
H1671	H167	0.590100	0.172100	0.250300
C2511	C251	0.613220	0.349700	0.259900
H1681	H168	0.630200	0.318600	0.292000
C2521	C252	0.536720	0.486100	0.105900
Gd81	Gd8	0.996610	0.748370	0.983420
Cu221	Cu22	0.716300	0.093260	0.862700
Cu231	Cu23	0.766340	0.168830	0.967050
Cu241	Cu24	0.753000	0.923330	0.831480
I221	I22	0.716580	0.078560	0.991330
I231	I23	0.767680	0.178200	0.837510
I241	I24	0.698960	0.845780	0.811260
O431	O43	0.956440	0.844900	0.029800
O441	O44	0.978240	0.654300	0.077300
O451	O45	0.951100	0.616800	0.936800
O461	O46	0.966500	0.408100	0.972200
O471	O47	0.021490	0.900400	0.065100
O481	O48	0.031610	0.112600	0.102800
N221	N22	0.800140	0.037000	0.010500
N231	N23	0.787360	0.794200	0.844800
N241	N24	0.183780	0.270200	0.318600
C2531	C253	0.829170	0.077100	0.029300
H1691	H169	0.833300	0.170600	0.029100
C2541	C254	0.853400	0.987000	0.048900
H1701	H170	0.873000	0.021100	0.062200
C2551	C255	0.848500	0.848800	0.048800
C2561	C256	0.818510	0.804300	0.030800
H1711	H171	0.813900	0.711400	0.031500
C2571	C257	0.796010	0.900700	0.012000
H1721	H172	0.776200	0.868800	0.999300
C2581	C258	0.873630	0.748200	0.066100
C2591	C259	0.901780	0.783600	0.058200
H1731	H173	0.904200	0.869100	0.040300
C2601	C260	0.926510	0.695100	0.076300
C2611	C261	0.922710	0.564700	0.101600
H1741	H174	0.938800	0.503600	0.113400
C2621	C262	0.894480	0.527500	0.108800
H1751	H175	0.891800	0.441100	0.125400
C2631	C263	0.870490	0.618400	0.091500
H1761	H176	0.851900	0.592100	0.096900
C2641	C264	0.955630	0.734700	0.061200
C2651	C265	0.816450	0.834200	0.862600
H1771	H177	0.820800	0.927700	0.864600
C2661	C266	0.839880	0.742600	0.877600
H1781	H178	0.859600	0.775700	0.889700
C2671	C267	0.835190	0.604000	0.875400
C2681	C268	0.805250	0.562000	0.856200
H1791	H179	0.800600	0.468900	0.852800
C2691	C269	0.782630	0.657800	0.842300
H1801	H180	0.762800	0.626700	0.830300
C2701	C270	0.860370	0.500700	0.895700
C2711	C271	0.890520	0.539300	0.909600
H1811	H181	0.895200	0.630900	0.904400
C2721	C272	0.913470	0.447500	0.930700
C2731	C273	0.906910	0.309500	0.937400
H1821	H182	0.922400	0.245800	0.951600
C2741	C274	0.877470	0.269000	0.922800
H1831	H183	0.873000	0.176800	0.927000
C2751	C275	0.854150	0.361800	0.901800
H1841	H184	0.834200	0.331700	0.891800
C2761	C276	0.945760	0.492500	0.947300
C2771	C277	0.154980	0.308800	0.296600
H1851	H185	0.150600	0.401500	0.299300
C2781	C278	0.131260	0.221000	0.270200
H1861	H186	0.111700	0.255300	0.255200
C2791	C279	0.136500	0.082600	0.265900
C2801	C280	0.166460	0.040400	0.288000
H1871	H187	0.171400	0.948400	0.284800
C2811	C281	0.188860	0.134500	0.314300
H1881	H188	0.208600	0.102800	0.330000
C2821	C282	0.111720	0.986000	0.237700
C2831	C283	0.086220	0.027000	0.188500
H1891	H189	0.084900	0.117400	0.173400
C2841	C284	0.062840	0.938000	0.161500
C2851	C285	0.064550	0.804300	0.184400
H1901	H190	0.048900	0.743100	0.166400
C2861	C286	0.089400	0.761400	0.234000
H1911	H191	0.090100	0.672100	0.250300
C2871	C287	0.113220	0.849700	0.259900
H1921	H192	0.130200	0.818600	0.292000
C2881	C288	0.036720	0.986100	0.105900
