data_VAGMAT_clean_PM
_symmetry_space_group_name_H-M	'P1'
_cell_length_a	17.219000
_cell_length_b	23.084700
_cell_length_c	23.084700
_cell_angle_alpha	60.540500
_cell_angle_beta	68.102100
_cell_angle_gamma	68.102200
_symmetry_Int_Tables_number 1

loop_
_symmetry_equiv_pos_as_xyz
'x,y,z'

loop_
_atom_site_label
_atom_site_type_symbol
_atom_site_fract_x
_atom_site_fract_y
_atom_site_fract_z
Zn11	Zn1	0.971750	0.470000	0.970000
Zn21	Zn2	0.411750	0.030000	0.530000
Zn31	Zn3	0.028250	0.530000	0.030000
Zn41	Zn4	0.588250	0.970000	0.470000
H11	H1	0.244800	0.577300	0.667700
H21	H2	0.230700	0.609600	0.852600
H31	H3	0.148300	0.533400	0.769600
H41	H4	0.333400	0.643100	0.754700
H51	H5	0.382800	0.674500	0.511300
H61	H6	0.453700	0.612300	0.444300
H71	H7	0.489800	0.922700	0.832300
H81	H8	0.692900	0.890400	0.647400
H91	H9	0.451300	0.966600	0.730400
H101	H10	0.731200	0.856900	0.745300
H111	H11	0.568600	0.825500	0.988700
H121	H12	0.510300	0.887700	0.055700
H131	H13	0.755200	0.832300	0.922700
H141	H14	0.769300	0.647400	0.890400
H151	H15	0.851700	0.730400	0.966600
H161	H16	0.666600	0.745300	0.856900
H171	H17	0.617200	0.988700	0.825500
H181	H18	0.546300	0.055700	0.887700
H191	H19	0.510200	0.667700	0.577300
H201	H20	0.307100	0.852600	0.609600
H211	H21	0.548700	0.769600	0.533400
H221	H22	0.268800	0.754700	0.643100
H231	H23	0.431400	0.511300	0.674500
H241	H24	0.489700	0.444300	0.612300
H251	H25	0.755200	0.422700	0.332300
H261	H26	0.769300	0.390400	0.147400
H271	H27	0.851700	0.466600	0.230400
H281	H28	0.666600	0.356900	0.245300
H291	H29	0.617200	0.325500	0.488700
H301	H30	0.546300	0.387700	0.555700
H311	H31	0.510200	0.077300	0.167700
H321	H32	0.307100	0.109600	0.352600
H331	H33	0.548700	0.033400	0.269600
H341	H34	0.268800	0.143100	0.254700
H351	H35	0.431400	0.174500	0.011300
H361	H36	0.489700	0.112300	0.944300
H371	H37	0.244800	0.167700	0.077300
H381	H38	0.230700	0.352600	0.109600
H391	H39	0.148300	0.269600	0.033400
H401	H40	0.333400	0.254700	0.143100
H411	H41	0.382800	0.011300	0.174500
H421	H42	0.453700	0.944300	0.112300
H431	H43	0.489800	0.332300	0.422700
H441	H44	0.692900	0.147400	0.390400
H451	H45	0.451300	0.230400	0.466600
H461	H46	0.731200	0.245300	0.356900
H471	H47	0.568600	0.488700	0.325500
H481	H48	0.510300	0.555700	0.387700
C11	C1	0.111930	0.543290	0.887250
C21	C2	0.242930	0.582830	0.705510
C31	C3	0.299540	0.615630	0.700090
C41	C4	0.233760	0.602090	0.815590
C51	C5	0.176290	0.569480	0.820940
C61	C6	0.183380	0.557920	0.766120
C71	C7	0.294220	0.622970	0.756590
C81	C8	0.406710	0.627900	0.531880
C91	C9	0.447890	0.590040	0.491380
C101	C10	0.542470	0.956710	0.612750
C111	C11	0.531270	0.917170	0.794490
C121	C12	0.615260	0.884370	0.799910
C131	C13	0.651440	0.897910	0.684410
C141	C14	0.566710	0.930520	0.679060
C151	C15	0.507420	0.942080	0.733880
C161	C16	0.673780	0.877030	0.743410
C171	C17	0.566490	0.872100	0.968120
C181	C18	0.529310	0.909960	0.008620
C191	C19	0.888070	0.612750	0.956710
C201	C20	0.757070	0.794490	0.917170
C211	C21	0.700460	0.799910	0.884370
C221	C22	0.766240	0.684410	0.897910
C231	C23	0.823710	0.679060	0.930520
C241	C24	0.816620	0.733880	0.942080
C251	C25	0.705780	0.743410	0.877030
C261	C26	0.593290	0.968120	0.872100
C271	C27	0.552110	0.008620	0.909960
C281	C28	0.457530	0.887250	0.543290
C291	C29	0.468730	0.705510	0.582830
C301	C30	0.384740	0.700090	0.615630
C311	C31	0.348560	0.815590	0.602090
C321	C32	0.433290	0.820940	0.569480
C331	C33	0.492580	0.766120	0.557920
C341	C34	0.326220	0.756590	0.622970
C351	C35	0.433510	0.531880	0.627900
C361	C36	0.470690	0.491380	0.590040
C371	C37	0.888070	0.456710	0.112750
C381	C38	0.757070	0.417170	0.294490
C391	C39	0.700460	0.384370	0.299910
C401	C40	0.766240	0.397910	0.184410
C411	C41	0.823710	0.430520	0.179060
C421	C42	0.816620	0.442080	0.233880
C431	C43	0.705780	0.377030	0.243410
C441	C44	0.593290	0.372100	0.468120
C451	C45	0.552110	0.409960	0.508620
C461	C46	0.457530	0.043290	0.387250
C471	C47	0.468730	0.082830	0.205510
C481	C48	0.384740	0.115630	0.200090
C491	C49	0.348560	0.102090	0.315590
C501	C50	0.433290	0.069480	0.320940
C511	C51	0.492580	0.057920	0.266120
C521	C52	0.326220	0.122970	0.256590
C531	C53	0.433510	0.127900	0.031880
C541	C54	0.470690	0.090040	0.991380
C551	C55	0.111930	0.387250	0.043290
C561	C56	0.242930	0.205510	0.082830
C571	C57	0.299540	0.200090	0.115630
C581	C58	0.233760	0.315590	0.102090
C591	C59	0.176290	0.320940	0.069480
C601	C60	0.183380	0.266120	0.057920
C611	C61	0.294220	0.256590	0.122970
C621	C62	0.406710	0.031880	0.127900
C631	C63	0.447890	0.991380	0.090040
C641	C64	0.542470	0.112750	0.456710
C651	C65	0.531270	0.294490	0.417170
C661	C66	0.615260	0.299910	0.384370
C671	C67	0.651440	0.184410	0.397910
C681	C68	0.566710	0.179060	0.430520
C691	C69	0.507420	0.233880	0.442080
C701	C70	0.673780	0.243410	0.377030
C711	C71	0.566490	0.468120	0.372100
C721	C72	0.529310	0.508620	0.409960
C731	C73	0.401560	0.598440	0.598440
C741	C74	0.479070	0.520930	0.520930
C751	C75	0.598440	0.901560	0.901560
C761	C76	0.520930	0.979070	0.979070
C771	C77	0.598440	0.401560	0.401560
C781	C78	0.520930	0.479070	0.479070
C791	C79	0.401560	0.098440	0.098440
C801	C80	0.479070	0.020930	0.020930
N11	N1	0.361530	0.638470	0.638470
N21	N2	0.638470	0.861530	0.861530
N31	N3	0.638470	0.361530	0.361530
N41	N4	0.361530	0.138470	0.138470
O11	O1	0.065420	0.511330	0.889390
O21	O2	0.108060	0.556930	0.934250
O31	O3	0.466140	0.988670	0.610610
O41	O4	0.599240	0.943070	0.565750
O51	O5	0.934580	0.610610	0.988670
O61	O6	0.891940	0.565750	0.943070
O71	O7	0.533860	0.889390	0.511330
O81	O8	0.400760	0.934250	0.556930
O91	O9	0.934580	0.488670	0.110610
O101	O10	0.891940	0.443070	0.065750
O111	O11	0.533860	0.011330	0.389390
O121	O12	0.400760	0.056930	0.434250
O131	O13	0.065420	0.389390	0.011330
O141	O14	0.108060	0.434250	0.056930
O151	O15	0.466140	0.110610	0.488670
O161	O16	0.599240	0.065750	0.443070
