data_VAGTAA01_clean_PM
_symmetry_space_group_name_H-M	'P1'
_cell_length_a	16.252000
_cell_length_b	11.873800
_cell_length_c	9.558500
_cell_angle_alpha	90.000000
_cell_angle_beta	114.588000
_cell_angle_gamma	90.000000
_symmetry_Int_Tables_number 1

loop_
_symmetry_equiv_pos_as_xyz
'x,y,z'

loop_
_atom_site_label
_atom_site_type_symbol
_atom_site_fract_x
_atom_site_fract_y
_atom_site_fract_z
O11	O1	0.408910	0.428210	0.801860
O21	O2	0.398560	0.496130	0.577510
O31	O3	0.350120	0.224420	0.812280
H11	H1	0.381800	0.281500	0.851900
C11	C1	0.312370	0.334500	0.576710
C21	C2	0.301470	0.242080	0.659010
C31	C3	0.260900	0.341030	0.418070
C41	C4	0.378620	0.426360	0.656780
O41	O4	0.265200	0.415000	0.314600
H21	H2	0.302900	0.465600	0.360500
O51	O5	0.908910	0.928210	0.801860
O61	O6	0.898560	0.996130	0.577510
O71	O7	0.850120	0.724420	0.812280
H31	H3	0.881800	0.781500	0.851900
C51	C5	0.812370	0.834500	0.576710
C61	C6	0.801470	0.742080	0.659010
C71	C7	0.760900	0.841030	0.418070
C81	C8	0.878620	0.926360	0.656780
O81	O8	0.765200	0.915000	0.314600
H41	H4	0.802900	0.965600	0.360500
O91	O9	0.591090	0.428210	0.698140
O101	O10	0.601440	0.496130	0.922490
O111	O11	0.649880	0.224420	0.687720
H51	H5	0.618200	0.281500	0.648100
C91	C9	0.687630	0.334500	0.923290
C101	C10	0.698530	0.242080	0.840990
C111	C11	0.739100	0.341030	0.081930
C121	C12	0.621380	0.426360	0.843220
O121	O12	0.734800	0.415000	0.185400
H61	H6	0.697100	0.465600	0.139500
O131	O13	0.091090	0.928210	0.698140
O141	O14	0.101440	0.996130	0.922490
O151	O15	0.149880	0.724420	0.687720
H71	H7	0.118200	0.781500	0.648100
C131	C13	0.187630	0.834500	0.923290
C141	C14	0.198530	0.742080	0.840990
C151	C15	0.239100	0.841030	0.081930
C161	C16	0.121380	0.926360	0.843220
O161	O16	0.234800	0.915000	0.185400
H81	H8	0.197100	0.965600	0.139500
O171	O17	0.591090	0.571790	0.198140
O181	O18	0.601440	0.503870	0.422490
O191	O19	0.649880	0.775580	0.187720
H91	H9	0.618200	0.718500	0.148100
C171	C17	0.687630	0.665500	0.423290
C181	C18	0.698530	0.757920	0.340990
C191	C19	0.739100	0.658970	0.581930
C201	C20	0.621380	0.573640	0.343220
O201	O20	0.734800	0.585000	0.685400
H101	H10	0.697100	0.534400	0.639500
O211	O21	0.091090	0.071790	0.198140
O221	O22	0.101440	0.003870	0.422490
O231	O23	0.149880	0.275580	0.187720
H111	H11	0.118200	0.218500	0.148100
C211	C21	0.187630	0.165500	0.423290
C221	C22	0.198530	0.257920	0.340990
C231	C23	0.239100	0.158970	0.581930
C241	C24	0.121380	0.073640	0.343220
O241	O24	0.234800	0.085000	0.685400
H121	H12	0.197100	0.034400	0.639500
O251	O25	0.408910	0.571790	0.301860
O261	O26	0.398560	0.503870	0.077510
O271	O27	0.350120	0.775580	0.312280
H131	H13	0.381800	0.718500	0.351900
C251	C25	0.312370	0.665500	0.076710
C261	C26	0.301470	0.757920	0.159010
C271	C27	0.260900	0.658970	0.918070
C281	C28	0.378620	0.573640	0.156780
O281	O28	0.265200	0.585000	0.814600
H141	H14	0.302900	0.534400	0.860500
O291	O29	0.908910	0.071790	0.301860
O301	O30	0.898560	0.003870	0.077510
O311	O31	0.850120	0.275580	0.312280
H151	H15	0.881800	0.218500	0.351900
C291	C29	0.812370	0.165500	0.076710
C301	C30	0.801470	0.257920	0.159010
C311	C31	0.760900	0.158970	0.918070
C321	C32	0.878620	0.073640	0.156780
O321	O32	0.765200	0.085000	0.814600
H161	H16	0.802900	0.034400	0.860500
Mg11	Mg1	0.500000	0.500000	0.000000
Mg21	Mg2	0.000000	0.000000	0.000000
Mg31	Mg3	0.500000	0.500000	0.500000
Mg41	Mg4	0.000000	0.000000	0.500000
