data_VAGTUU_clean_PM
_symmetry_space_group_name_H-M	'P1'
_cell_length_a	17.223700
_cell_length_b	17.234400
_cell_length_c	17.292300
_cell_angle_alpha	90.548000
_cell_angle_beta	90.000000
_cell_angle_gamma	90.000000
_symmetry_Int_Tables_number 1

loop_
_symmetry_equiv_pos_as_xyz
'x,y,z'

loop_
_atom_site_label
_atom_site_type_symbol
_atom_site_fract_x
_atom_site_fract_y
_atom_site_fract_z
Zn11	Zn1	0.431910	0.110100	0.075500
Zn21	Zn2	0.585550	0.172950	0.983800
Zn31	Zn3	0.424210	0.262460	0.978980
Zn41	Zn4	0.517990	0.260470	0.134030
Zn51	Zn5	0.436600	0.601130	0.413200
Zn61	Zn6	0.348170	0.757070	0.344340
Zn71	Zn7	0.789130	0.328450	0.506580
Zn81	Zn8	0.444600	0.766990	0.498060
Zn91	Zn9	0.931910	0.889900	0.924500
Zn101	Zn10	0.085550	0.827050	0.016200
Zn111	Zn11	0.924210	0.737540	0.021020
Zn121	Zn12	0.017990	0.739530	0.865970
Zn131	Zn13	0.936600	0.398870	0.586800
Zn141	Zn14	0.848170	0.242930	0.655660
Zn151	Zn15	0.289130	0.671550	0.493420
Zn161	Zn16	0.944600	0.233010	0.501940
H11	H1	0.693400	0.972900	0.976700
H21	H2	0.743400	0.750600	0.126600
H31	H3	0.679300	0.689400	0.220700
H41	H4	0.559100	0.714800	0.263700
H51	H5	0.482900	0.807700	0.234600
H61	H6	0.497200	0.902800	0.153600
H71	H7	0.631900	0.207400	0.763200
H81	H8	0.561800	0.328300	0.528500
H91	H9	0.454100	0.381400	0.486800
H101	H10	0.344700	0.397900	0.546100
H111	H11	0.306500	0.355900	0.656000
H121	H12	0.373600	0.296600	0.744900
H131	H13	0.712000	0.266600	0.278100
H141	H14	0.935800	0.114100	0.313500
H151	H15	0.993400	0.024400	0.243600
H161	H16	0.966100	0.982400	0.128600
H171	H17	0.876600	0.017900	0.051000
H181	H18	0.778000	0.099100	0.073400
H191	H19	0.399300	0.998300	0.270600
H201	H20	0.554600	0.950500	0.487000
H211	H21	0.649500	0.010400	0.545900
H221	H22	0.695100	0.129200	0.522400
H231	H23	0.660400	0.208200	0.428800
H241	H24	0.569400	0.196300	0.344800
H251	H25	0.453500	0.491200	0.215100
H261	H26	0.375900	0.477400	0.954600
H271	H27	0.332300	0.562000	0.869800
H281	H28	0.287000	0.681900	0.892600
H291	H29	0.302800	0.750300	0.995500
H301	H30	0.341100	0.719500	0.110100
H311	H31	0.658700	0.545600	0.475200
H321	H32	0.838800	0.572800	0.678100
H331	H33	0.862400	0.663900	0.764800
H341	H34	0.805400	0.777500	0.779900
H351	H35	0.708300	0.827100	0.714700
H361	H36	0.644500	0.776600	0.619000
H371	H37	0.193400	0.027100	0.023300
H381	H38	0.243400	0.249400	0.873400
H391	H39	0.179300	0.310600	0.779300
H401	H40	0.059100	0.285200	0.736300
H411	H41	0.982900	0.192300	0.765400
H421	H42	0.997200	0.097200	0.846400
H431	H43	0.131900	0.792600	0.236800
H441	H44	0.061800	0.671700	0.471500
H451	H45	0.954100	0.618600	0.513200
H461	H46	0.844700	0.602100	0.453900
H471	H47	0.806500	0.644100	0.344000
H481	H48	0.873600	0.703400	0.255100
H491	H49	0.212000	0.733400	0.721900
H501	H50	0.435800	0.885900	0.686500
H511	H51	0.493400	0.975600	0.756400
H521	H52	0.466100	0.017600	0.871400
H531	H53	0.376600	0.982100	0.949000
H541	H54	0.278000	0.900900	0.926600
H551	H55	0.899300	0.001700	0.729400
H561	H56	0.054600	0.049500	0.513000
H571	H57	0.149500	0.989600	0.454100
H581	H58	0.195100	0.870800	0.477600
H591	H59	0.160400	0.791800	0.571200
H601	H60	0.069400	0.803700	0.655200
H611	H61	0.953500	0.508800	0.784900
H621	H62	0.875900	0.522600	0.045400
H631	H63	0.832300	0.438000	0.130200
H641	H64	0.787000	0.318100	0.107400
H651	H65	0.802800	0.249700	0.004500
H661	H66	0.841100	0.280500	0.889900
H671	H67	0.158700	0.454400	0.524800
H681	H68	0.338800	0.427200	0.321900
H691	H69	0.362400	0.336100	0.235200
H701	H70	0.305400	0.222500	0.220100
H711	H71	0.208300	0.172900	0.285300
H721	H72	0.144500	0.223400	0.381000
C11	C1	0.549500	0.005600	0.037200
C21	C2	0.604400	0.943500	0.051400
C31	C3	0.675400	0.938100	0.013400
C41	C4	0.716100	0.871600	0.038700
C51	C5	0.670500	0.835400	0.095600
C61	C6	0.598200	0.880600	0.104300
C71	C7	0.694500	0.770300	0.138700
C81	C8	0.653900	0.731000	0.198000
C91	C9	0.578000	0.748700	0.226600
C101	C10	0.529700	0.807300	0.207700
C111	C11	0.537800	0.867200	0.154900
C121	C12	0.793300	0.848600	0.008400
C131	C13	0.493900	0.230000	0.838900
C141	C14	0.518800	0.246800	0.758400
C151	C15	0.594300	0.232300	0.734000
C161	C16	0.606100	0.260500	0.659200
C171	C17	0.535400	0.295500	0.633900
C181	C18	0.480000	0.285000	0.699800
C191	C19	0.520500	0.328500	0.563200
C201	C20	0.452100	0.362000	0.536700
C211	C21	0.381900	0.370700	0.573800
C221	C22	0.358200	0.346200	0.643900
C231	C23	0.400900	0.308400	0.700200
C241	C24	0.681200	0.259100	0.620700
C251	C25	0.670400	0.207900	0.134800
C261	C26	0.738500	0.192900	0.185800
C271	C27	0.746100	0.229600	0.258100
C281	C28	0.812100	0.202800	0.295600
C291	C29	0.847900	0.147300	0.247100
C301	C30	0.800400	0.141300	0.176600
C311	C31	0.913700	0.104000	0.265300
C321	C32	0.950500	0.047500	0.220600
C331	C33	0.933100	0.020800	0.147600
C341	C34	0.875900	0.041500	0.099500
C351	C35	0.814100	0.095000	0.113200
C361	C36	0.832400	0.230100	0.373700
C371	C37	0.456900	0.142100	0.235500
C381	C38	0.472000	0.087200	0.300100
C391	C39	0.437500	0.015800	0.304600
C401	C40	0.465800	0.973000	0.364900
C411	C41	0.521000	0.018200	0.403900
C421	C42	0.527700	0.091600	0.359700
C431	C43	0.566400	0.998800	0.466500
C441	C44	0.626400	0.037000	0.505400
C451	C45	0.655900	0.111400	0.489900
C461	C46	0.632900	0.161900	0.430900
C471	C47	0.576400	0.153300	0.376300
C481	C48	0.439100	0.895300	0.384400
C491	C49	0.436000	0.399000	0.083900
C501	C50	0.417700	0.481300	0.101100
C511	C51	0.430700	0.516100	0.173400
C521	C52	0.405400	0.592300	0.174500
C531	C53	0.405900	0.642000	0.243500
C541	C54	0.386100	0.537200	0.051400
C551	C55	0.367100	0.527000	0.974200
C561	C56	0.336500	0.580100	0.920500
C571	C57	0.311200	0.657300	0.933700
C581	C58	0.318600	0.698900	0.999900
C591	C59	0.344700	0.680500	0.072700
C601	C60	0.376300	0.609400	0.097000
C611	C61	0.577400	0.682400	0.500100
C621	C62	0.649500	0.645700	0.536400
C631	C63	0.677800	0.575800	0.515800
C641	C64	0.740000	0.554200	0.563400
C651	C65	0.750300	0.612400	0.618000
C661	C66	0.692200	0.673600	0.600600
C671	C67	0.806600	0.615900	0.675500
C681	C68	0.822300	0.674400	0.730400
C691	C69	0.785700	0.746400	0.740200
C701	C70	0.724200	0.777900	0.699100
C711	C71	0.684000	0.745500	0.638400
C721	C72	0.781900	0.481000	0.556600
C731	C73	0.049500	0.994400	0.962800
C741	C74	0.104400	0.056500	0.948600
C751	C75	0.175400	0.061900	0.986600
C761	C76	0.216100	0.128400	0.961300
C771	C77	0.170500	0.164600	0.904400
C781	C78	0.098200	0.119400	0.895700
C791	C79	0.194500	0.229700	0.861300
C801	C80	0.153900	0.269000	0.802000
C811	C81	0.078000	0.251300	0.773400
C821	C82	0.029700	0.192700	0.792300
C831	C83	0.037800	0.132800	0.845100
C841	C84	0.293300	0.151400	0.991600
C851	C85	0.993900	0.770000	0.161100
C861	C86	0.018800	0.753200	0.241600
C871	C87	0.094300	0.767700	0.266000
C881	C88	0.106100	0.739500	0.340800
C891	C89	0.035400	0.704500	0.366100
C901	C90	0.980000	0.715000	0.300200
C911	C91	0.020500	0.671500	0.436800
C921	C92	0.952100	0.638000	0.463300
C931	C93	0.881900	0.629300	0.426200
C941	C94	0.858200	0.653800	0.356100
C951	C95	0.900900	0.691600	0.299800
C961	C96	0.181200	0.740900	0.379300
C971	C97	0.170400	0.792100	0.865200
C981	C98	0.238500	0.807100	0.814200
C991	C99	0.246100	0.770400	0.741900
C1001	C100	0.312100	0.797200	0.704400
C1011	C101	0.347900	0.852700	0.752900
C1021	C102	0.300400	0.858700	0.823400
C1031	C103	0.413700	0.896000	0.734700
C1041	C104	0.450500	0.952500	0.779400
C1051	C105	0.433100	0.979200	0.852400
C1061	C106	0.375900	0.958500	0.900500
C1071	C107	0.314100	0.905000	0.886800
C1081	C108	0.332400	0.769900	0.626300
C1091	C109	0.956900	0.857900	0.764500
C1101	C110	0.972000	0.912800	0.699900
C1111	C111	0.937500	0.984200	0.695400
C1121	C112	0.965800	0.027000	0.635100
C1131	C113	0.021000	0.981800	0.596100
C1141	C114	0.027700	0.908400	0.640300
C1151	C115	0.066400	0.001200	0.533500
C1161	C116	0.126400	0.963000	0.494600
C1171	C117	0.155900	0.888600	0.510100
C1181	C118	0.132900	0.838100	0.569100
C1191	C119	0.076400	0.846700	0.623700
C1201	C120	0.939100	0.104700	0.615600
C1211	C121	0.936000	0.601000	0.916100
C1221	C122	0.917700	0.518700	0.898900
C1231	C123	0.930700	0.483900	0.826600
C1241	C124	0.905400	0.407700	0.825500
C1251	C125	0.905900	0.358000	0.756500
C1261	C126	0.886100	0.462800	0.948600
C1271	C127	0.867100	0.473000	0.025800
C1281	C128	0.836500	0.419900	0.079500
C1291	C129	0.811200	0.342700	0.066300
C1301	C130	0.818600	0.301100	0.000100
C1311	C131	0.844700	0.319500	0.927300
C1321	C132	0.876300	0.390600	0.903000
C1331	C133	0.077400	0.317600	0.499900
C1341	C134	0.149500	0.354300	0.463600
C1351	C135	0.177800	0.424200	0.484200
C1361	C136	0.240000	0.445800	0.436600
C1371	C137	0.250300	0.387600	0.382000
C1381	C138	0.192200	0.326400	0.399400
C1391	C139	0.306600	0.384100	0.324500
C1401	C140	0.322300	0.325600	0.269600
C1411	C141	0.285700	0.253600	0.259800
C1421	C142	0.224200	0.222100	0.300900
C1431	C143	0.184000	0.254500	0.361600
C1441	C144	0.281900	0.519000	0.443400
O11	O1	0.488600	0.199800	0.045000
O21	O2	0.489200	0.012600	0.080800
O31	O3	0.565300	0.053100	0.984300
O41	O4	0.829600	0.901200	0.972300
O51	O5	0.818200	0.781400	0.019300
O61	O6	0.524600	0.176500	0.874500
O71	O7	0.441400	0.276600	0.868300
O81	O8	0.736400	0.224600	0.658700
O91	O9	0.691200	0.292800	0.558200
O101	O10	0.657400	0.163000	0.079300
O111	O11	0.629300	0.267400	0.154000
O121	O12	0.891100	0.200800	0.406400
O131	O13	0.789300	0.282300	0.403200
O141	O14	0.495400	0.204500	0.230700
O151	O15	0.407200	0.120900	0.186900
O161	O16	0.464100	0.865300	0.446800
O171	O17	0.391800	0.862200	0.338300
O181	O18	0.473100	0.364000	0.136300
O191	O19	0.413900	0.369200	0.020800
O201	O20	0.450200	0.622800	0.296300
O211	O21	0.362000	0.702400	0.244200
O221	O22	0.379700	0.701600	0.435000
O231	O23	0.544000	0.737100	0.538400
O241	O24	0.552200	0.652000	0.438500
O251	O25	0.834500	0.463200	0.604100
O261	O26	0.759000	0.437000	0.501700
O271	O27	0.988600	0.800200	0.955000
O281	O28	0.989200	0.987400	0.919200
O291	O29	0.065300	0.946900	0.015700
O301	O30	0.329600	0.098800	0.027700
O311	O31	0.318200	0.218600	0.980700
O321	O32	0.024600	0.823500	0.125500
O331	O33	0.941400	0.723400	0.131700
O341	O34	0.236400	0.775400	0.341300
O351	O35	0.191200	0.707200	0.441800
O361	O36	0.157400	0.837000	0.920700
O371	O37	0.129300	0.732600	0.846000
O381	O38	0.391100	0.799200	0.593600
O391	O39	0.289300	0.717700	0.596800
O401	O40	0.995400	0.795500	0.769300
O411	O41	0.907200	0.879100	0.813100
O421	O42	0.964100	0.134700	0.553200
O431	O43	0.891800	0.137800	0.661700
O441	O44	0.973100	0.636000	0.863700
O451	O45	0.913900	0.630800	0.979200
O461	O46	0.950200	0.377200	0.703700
O471	O47	0.862000	0.297600	0.755800
O481	O48	0.879700	0.298400	0.565000
O491	O49	0.044000	0.262900	0.461600
O501	O50	0.052200	0.348000	0.561500
O511	O51	0.334500	0.536800	0.395900
O521	O52	0.259000	0.563000	0.498300
