data_VAHJIA_clean_PM
_symmetry_space_group_name_H-M	'P1'
_cell_length_a	11.543200
_cell_length_b	11.672300
_cell_length_c	11.841400
_cell_angle_alpha	65.440000
_cell_angle_beta	78.968000
_cell_angle_gamma	72.175000
_symmetry_Int_Tables_number 1

loop_
_symmetry_equiv_pos_as_xyz
'x,y,z'

loop_
_atom_site_label
_atom_site_type_symbol
_atom_site_fract_x
_atom_site_fract_y
_atom_site_fract_z
O11	O1	0.546500	0.401400	0.378400
O21	O2	0.539700	0.427500	0.183900
O31	O3	0.578800	0.652800	0.952100
O41	O4	0.549100	0.861400	0.915800
N11	N1	0.480900	0.657100	0.328800
N21	N2	0.483500	0.830300	0.152800
N31	N3	0.691200	0.504200	0.497300
N41	N4	0.696000	0.949700	0.033300
N51	N5	0.324500	0.622600	0.030800
C11	C1	0.534700	0.473800	0.262500
C21	C2	0.511900	0.615800	0.231700
C31	C3	0.514000	0.724400	0.121900
C41	C4	0.548900	0.745400	0.989100
C51	C5	0.464200	0.786500	0.277400
C61	C6	0.429600	0.871400	0.352000
H11	H1	0.470000	0.941700	0.312300
H21	H2	0.458600	0.820300	0.434500
C71	C7	0.292700	0.929100	0.364100
H31	H3	0.275900	0.983300	0.410900
H41	H4	0.252400	0.860000	0.406300
H51	H5	0.263500	0.980200	0.282700
C81	C8	0.781100	0.401800	0.502100
H61	H6	0.762500	0.329400	0.502800
C91	C9	0.903300	0.395000	0.506200
H71	H7	0.962900	0.318100	0.513600
C101	C10	0.935100	0.501700	0.499200
C111	C11	0.840500	0.605100	0.496200
H81	H8	0.855200	0.679200	0.496100
C121	C12	0.722700	0.602900	0.493300
H91	H9	0.661300	0.677900	0.488100
C131	C13	0.745100	0.862700	0.136900
H101	H10	0.693400	0.838900	0.208600
C141	C14	0.868500	0.804800	0.145700
H111	H11	0.897000	0.744600	0.222200
C151	C15	0.949800	0.834600	0.043300
C161	C16	0.899600	0.931300	0.936100
H121	H12	0.949200	0.959600	0.863700
C171	C17	0.774700	0.985900	0.937400
H131	H13	0.744200	0.053300	0.865000
C181	C18	0.081400	0.766300	0.043800
C191	C19	0.127500	0.647800	0.137800
H141	H14	0.077100	0.614100	0.207800
C201	C20	0.245900	0.580800	0.128100
H151	H15	0.273700	0.501700	0.192500
C211	C21	0.281400	0.739300	0.942900
H161	H16	0.334600	0.773000	0.875800
C221	C22	0.163000	0.812300	0.946300
H171	H17	0.138200	0.892900	0.882600
O51	O5	0.453500	0.598600	0.621600
O61	O6	0.460300	0.572500	0.816100
O71	O7	0.421200	0.347200	0.047900
O81	O8	0.450900	0.138600	0.084200
N61	N6	0.519100	0.342900	0.671200
N71	N7	0.516500	0.169700	0.847200
N81	N8	0.308800	0.495800	0.502700
N91	N9	0.304000	0.050300	0.966700
N101	N10	0.675500	0.377400	0.969200
C231	C23	0.465300	0.526200	0.737500
C241	C24	0.488100	0.384200	0.768300
C251	C25	0.486000	0.275600	0.878100
C261	C26	0.451100	0.254600	0.010900
C271	C27	0.535800	0.213500	0.722600
C281	C28	0.570400	0.128600	0.648000
H181	H18	0.530000	0.058300	0.687700
H191	H19	0.541400	0.179700	0.565500
C291	C29	0.707300	0.070900	0.635900
H201	H20	0.724100	0.016700	0.589100
H211	H21	0.747600	0.140000	0.593700
H221	H22	0.736500	0.019800	0.717300
C301	C30	0.218900	0.598200	0.497900
H231	H23	0.237500	0.670600	0.497200
C311	C31	0.096700	0.605000	0.493800
H241	H24	0.037100	0.681900	0.486400
C321	C32	0.064900	0.498300	0.500800
C331	C33	0.159500	0.394900	0.503800
H251	H25	0.144800	0.320800	0.503900
C341	C34	0.277300	0.397100	0.506700
H261	H26	0.338700	0.322100	0.511900
C351	C35	0.254900	0.137300	0.863100
H271	H27	0.306600	0.161100	0.791400
C361	C36	0.131500	0.195200	0.854300
H281	H28	0.103000	0.255400	0.777800
C371	C37	0.050200	0.165400	0.956700
C381	C38	0.100400	0.068700	0.063900
H291	H29	0.050800	0.040400	0.136300
C391	C39	0.225300	0.014100	0.062600
H301	H30	0.255800	0.946700	0.135000
C401	C40	0.918600	0.233700	0.956200
C411	C41	0.872500	0.352200	0.862200
H311	H31	0.922900	0.385900	0.792200
C421	C42	0.754100	0.419200	0.871900
H321	H32	0.726300	0.498300	0.807500
C431	C43	0.718600	0.260700	0.057100
H331	H33	0.665400	0.227000	0.124200
C441	C44	0.837000	0.187700	0.053700
H341	H34	0.861800	0.107100	0.117400
Co11	Co1	0.500000	0.500000	0.500000
Co21	Co2	0.500000	0.500000	0.000000
Co31	Co3	0.500000	0.000000	0.000000
