data_VAHPUR_clean_PM
_symmetry_space_group_name_H-M	'P1'
_cell_length_a	16.043000
_cell_length_b	19.722700
_cell_length_c	19.722700
_cell_angle_alpha	80.478500
_cell_angle_beta	66.001400
_cell_angle_gamma	66.001300
_symmetry_Int_Tables_number 1

loop_
_symmetry_equiv_pos_as_xyz
'x,y,z'

loop_
_atom_site_label
_atom_site_type_symbol
_atom_site_fract_x
_atom_site_fract_y
_atom_site_fract_z
Dy11	Dy1	0.959110	0.701620	0.884570
Dy21	Dy2	0.545290	0.298380	0.115440
Cu11	Cu1	0.612700	0.590710	0.187230
Cu21	Cu2	0.390640	0.409290	0.812770
H11	H1	0.119500	0.582600	0.067800
H21	H2	0.238500	0.557100	0.115900
H31	H3	0.223500	0.724800	0.924000
H41	H4	0.336400	0.702500	0.973700
H51	H5	0.415000	0.505700	0.102500
H61	H6	0.534200	0.492800	0.144800
H71	H7	0.359300	0.724100	0.079500
H81	H8	0.474500	0.704500	0.127700
H91	H9	0.843000	0.584700	0.767700
H101	H10	0.734300	0.546300	0.753100
H111	H11	0.683500	0.614600	0.984600
H121	H12	0.572400	0.575300	0.971500
H131	H13	0.570700	0.577000	0.753800
H141	H14	0.465600	0.531500	0.742300
H151	H15	0.539900	0.476700	0.949900
H161	H16	0.431400	0.436600	0.936200
H171	H17	0.110700	0.759600	0.628800
H181	H18	0.219600	0.736900	0.505900
H191	H19	0.276100	0.563300	0.687900
H201	H20	0.383500	0.542200	0.567000
H211	H21	0.286500	0.652000	0.399200
H221	H22	0.400600	0.627500	0.278500
H231	H23	0.511300	0.590700	0.465500
H241	H24	0.616500	0.573500	0.344900
H251	H25	0.827500	0.964600	0.921400
H261	H26	0.732500	0.088200	0.912200
H271	H27	0.687500	0.905100	0.832500
H281	H28	0.605500	0.028300	0.810900
H291	H29	0.573700	0.190600	0.946400
H301	H30	0.481700	0.309700	0.927100
H311	H31	0.618200	0.142100	0.742500
H321	H32	0.522700	0.262600	0.729800
H331	H33	0.769900	0.417400	0.932200
H341	H34	0.911500	0.442900	0.884100
H351	H35	0.872300	0.275200	0.076000
H361	H36	0.012600	0.297500	0.026300
H371	H37	0.023200	0.494300	0.897500
H381	H38	0.171800	0.507200	0.855200
H391	H39	0.162900	0.275900	0.920500
H401	H40	0.306700	0.295500	0.872300
H411	H41	0.195400	0.415300	0.232300
H421	H42	0.033700	0.453700	0.246900
H431	H43	0.282700	0.385400	0.015400
H441	H44	0.119200	0.424700	0.028500
H451	H45	0.901500	0.423000	0.246200
H461	H46	0.739400	0.468500	0.257700
H471	H47	0.966500	0.523300	0.050100
H481	H48	0.804200	0.563400	0.063800
H491	H49	0.499100	0.240400	0.371200
H501	H50	0.462400	0.263100	0.494100
H511	H51	0.527300	0.436700	0.312100
H521	H52	0.492700	0.457800	0.433000
H531	H53	0.337700	0.348000	0.600800
H541	H54	0.306600	0.372500	0.721500
H551	H55	0.567500	0.409300	0.534500
H561	H56	0.534900	0.426500	0.655100
H571	H57	0.713500	0.035400	0.078600
H581	H58	0.732900	0.911800	0.087800
H591	H59	0.425100	0.094900	0.167500
H601	H60	0.444700	0.971700	0.189100
H611	H61	0.710700	0.809400	0.053600
H621	H62	0.718500	0.690300	0.072900
H631	H63	0.502800	0.857900	0.257500
H641	H64	0.515100	0.737400	0.270200
C11	C1	0.083400	0.671800	0.956800
C21	C2	0.160500	0.653500	0.989500
C31	C3	0.164500	0.605800	0.047800
C41	C4	0.235000	0.591500	0.077700
C51	C5	0.226200	0.691000	0.962600
C61	C6	0.293100	0.677600	0.992800
C71	C7	0.300300	0.628200	0.051200
C81	C8	0.373200	0.617300	0.082900
C91	C9	0.427470	0.547100	0.105160
C101	C10	0.499300	0.539700	0.130900
C111	C11	0.393500	0.676200	0.092000
C121	C12	0.465000	0.663400	0.120000
C131	C13	0.849500	0.625200	0.884200
C141	C14	0.775340	0.601090	0.878030
C151	C15	0.788700	0.582200	0.808800
C161	C16	0.723100	0.559900	0.799900
C171	C17	0.694100	0.600100	0.938300
C181	C18	0.626600	0.577200	0.930000
C191	C19	0.639200	0.557300	0.860700
C201	C20	0.568100	0.532060	0.852940
C211	C21	0.544400	0.547600	0.791400
C221	C22	0.480900	0.519600	0.784600
C231	C23	0.525700	0.488800	0.907200
C241	C24	0.461500	0.463500	0.897900
C251	C25	0.107800	0.677500	0.748100
C261	C26	0.180800	0.663400	0.670800
C271	C27	0.165500	0.715400	0.616200
C281	C28	0.231400	0.702300	0.542500
C291	C29	0.264100	0.598400	0.651800
C301	C30	0.328600	0.586300	0.579300
C311	C31	0.314500	0.637400	0.524200
C321	C32	0.385500	0.623400	0.446200
C331	C33	0.353500	0.634900	0.389700
C341	C34	0.423300	0.620500	0.316700
C351	C35	0.486700	0.599200	0.428200
C361	C36	0.549500	0.588200	0.355600
C371	C37	0.818600	0.841700	0.894100
C381	C38	0.763100	0.922700	0.883100
C391	C39	0.779000	0.976900	0.902100
C401	C40	0.724700	0.051600	0.893800
C411	C41	0.698100	0.941900	0.847900
C421	C42	0.648200	0.016000	0.835600
C431	C43	0.660600	0.071100	0.859300
C441	C44	0.605700	0.150300	0.847100
C451	C45	0.564200	0.203500	0.901700
C461	C46	0.508800	0.275200	0.889600
C471	C47	0.590000	0.175000	0.781600
C481	C48	0.532900	0.248000	0.774000
C491	C49	0.712000	0.328200	0.043200
C501	C50	0.803500	0.346500	0.010500
C511	C51	0.818100	0.394200	0.952200
C521	C52	0.904200	0.408500	0.922300
C531	C53	0.879800	0.309000	0.037400
C541	C54	0.963500	0.322400	0.007200
C551	C55	0.979700	0.371800	0.948800
C561	C56	0.073400	0.382700	0.917100
C571	C57	0.079730	0.452900	0.894840
C581	C58	0.169900	0.460300	0.869100
C591	C59	0.161700	0.323800	0.908000
C601	C60	0.248400	0.336600	0.880000
C611	C61	0.358900	0.374800	0.115800
C621	C62	0.254460	0.398910	0.121970
C631	C63	0.179700	0.417800	0.191200
C641	C64	0.082900	0.440100	0.200100
C651	C65	0.232500	0.399900	0.061700
C661	C66	0.133800	0.422800	0.070000
C671	C67	0.057200	0.442700	0.139300
C681	C68	0.953100	0.467940	0.147060
C691	C69	0.883400	0.452400	0.208600
C701	C70	0.785100	0.480400	0.215400
C711	C71	0.921700	0.511200	0.092800
C721	C72	0.822900	0.536500	0.102100
C731	C73	0.533400	0.322500	0.251900
C741	C74	0.515000	0.336600	0.329200
C751	C75	0.497100	0.284600	0.383800
C761	C76	0.476200	0.297700	0.457500
C771	C77	0.514300	0.401600	0.348200
C781	C78	0.494200	0.413700	0.420700
C791	C79	0.476100	0.362600	0.475800
C801	C80	0.455100	0.376600	0.553800
C811	C81	0.378100	0.365100	0.610300
C821	C82	0.360500	0.379500	0.683300
C831	C83	0.514100	0.400800	0.571800
C841	C84	0.493300	0.411800	0.644400
C851	C85	0.554400	0.158300	0.105900
C861	C86	0.568900	0.077300	0.116900
C871	C87	0.658000	0.023100	0.097900
C881	C88	0.670100	0.948400	0.106200
C891	C89	0.487900	0.058100	0.152100
C901	C90	0.499800	0.984000	0.164400
C911	C91	0.591000	0.928900	0.140700
C921	C92	0.603100	0.849700	0.152900
C931	C93	0.669400	0.796500	0.098300
C941	C94	0.673600	0.724800	0.110400
C951	C95	0.546600	0.825000	0.218400
C961	C96	0.554900	0.752000	0.226000
N11	N1	0.521020	0.597300	0.136860
N21	N2	0.441040	0.476220	0.836100
N31	N3	0.520690	0.597160	0.298660
N41	N4	0.491600	0.298580	0.827020
N51	N5	0.255180	0.402700	0.863140
N61	N6	0.753360	0.523780	0.163900
N71	N7	0.416510	0.402840	0.701340
N81	N8	0.617200	0.701420	0.172980
O11	O1	0.075190	0.724770	0.911250
O21	O2	0.029600	0.635190	0.973810
O31	O3	0.837180	0.645940	0.946500
O41	O4	0.921370	0.626430	0.828230
O51	O5	0.115220	0.626260	0.796500
O61	O6	0.035610	0.739350	0.764430
O71	O7	0.816800	0.793600	0.862400
O81	O8	0.871010	0.823990	0.932990
O91	O9	0.711210	0.275230	0.088750
O101	O10	0.638600	0.364810	0.026190
O111	O11	0.429620	0.354060	0.053500
O121	O12	0.376030	0.373570	0.171770
O131	O13	0.537980	0.373740	0.203500
O141	O14	0.539390	0.260650	0.235570
O151	O15	0.472800	0.206400	0.137600
O161	O16	0.627990	0.176010	0.067010
Dy31	Dy3	0.156330	0.884560	0.298380
Dy41	Dy4	0.339260	0.115440	0.701630
Cu31	Cu3	0.200070	0.187230	0.409290
Cu41	Cu4	0.796590	0.812770	0.590710
H651	H65	0.812700	0.067800	0.417400
H661	H66	0.645600	0.115900	0.442900
H671	H67	0.852500	0.924000	0.275200
H681	H68	0.689900	0.973700	0.297500
H691	H69	0.482500	0.102500	0.494300
H701	H70	0.321000	0.144800	0.507200
H711	H71	0.561200	0.079500	0.275900
H721	H72	0.397800	0.127700	0.295500
H731	H73	0.389300	0.767700	0.415300
H741	H74	0.512600	0.753100	0.453700
H751	H75	0.331900	0.984600	0.385400
H761	H76	0.456100	0.971500	0.424700
H771	H77	0.675500	0.753800	0.423000
H781	H78	0.792100	0.742300	0.468500
H791	H79	0.510200	0.949900	0.523300
H801	H80	0.632400	0.936200	0.563400
H811	H81	0.260500	0.628800	0.240400
H821	H82	0.274500	0.505900	0.263100
H831	H83	0.036000	0.687900	0.436700
H841	H84	0.049500	0.567000	0.457800
H851	H85	0.314300	0.399200	0.348000
H861	H86	0.320900	0.278500	0.372500
H871	H87	0.023200	0.465500	0.409300
H881	H88	0.038600	0.344900	0.426500
H891	H89	0.251100	0.921400	0.035400
H901	H90	0.355300	0.912200	0.911800
H911	H91	0.480000	0.832500	0.094900
H921	H92	0.583600	0.810900	0.971700
H931	H93	0.479900	0.946400	0.809400
H941	H94	0.591200	0.927100	0.690300
H951	H95	0.639300	0.742500	0.857900
H961	H96	0.747500	0.729800	0.737400
H971	H97	0.297900	0.932200	0.582600
H981	H98	0.204400	0.884100	0.557100
H991	H99	0.051700	0.076000	0.724800
H1001	H100	0.961100	0.026300	0.702500
H1011	H101	0.079300	0.897500	0.505700
H1021	H102	0.973000	0.855200	0.492800
H1031	H103	0.916600	0.920500	0.724100
H1041	H104	0.821000	0.872300	0.704500
H1051	H105	0.572300	0.232300	0.584700
H1061	H106	0.719400	0.246900	0.546300
H1071	H107	0.701900	0.015400	0.614600
H1081	H108	0.852300	0.028500	0.575300
H1091	H109	0.852300	0.246200	0.577000
H1101	H110	0.002900	0.257700	0.531500
H1111	H111	0.983400	0.050100	0.476700
H1121	H112	0.132000	0.063800	0.436600
H1131	H113	0.129700	0.371200	0.759600
H1141	H114	0.043500	0.494100	0.736900
H1151	H115	0.160600	0.312100	0.563300
H1161	H116	0.074300	0.433000	0.542200
H1171	H117	0.061500	0.600800	0.652000
H1181	H118	0.971900	0.721500	0.627500
H1191	H119	0.898000	0.534500	0.590700
H1201	H120	0.810000	0.655100	0.573500
H1211	H121	0.207900	0.078600	0.964600
H1221	H122	0.179300	0.087800	0.088200
H1231	H123	0.407400	0.167500	0.905100
H1241	H124	0.366200	0.189100	0.028300
H1251	H125	0.235700	0.053600	0.190600
H1261	H126	0.208600	0.072900	0.309700
H1271	H127	0.239700	0.257500	0.142100
H1281	H128	0.214700	0.270200	0.262600
C971	C97	0.959800	0.956800	0.328200
C981	C98	0.850000	0.989500	0.346500
C991	C99	0.787700	0.047800	0.394200
C1001	C100	0.687300	0.077700	0.408500
C1011	C101	0.811200	0.962600	0.309000
C1021	C102	0.714100	0.992800	0.322400
C1031	C103	0.648500	0.051200	0.371800
C1041	C104	0.543900	0.082900	0.382700
C1051	C105	0.467370	0.105160	0.452900
C1061	C106	0.369800	0.130900	0.460300
C1071	C107	0.514500	0.092000	0.323800
C1081	C108	0.415000	0.120000	0.336600
C1091	C109	0.266300	0.884200	0.374800
C1101	C110	0.346630	0.878030	0.398910
C1111	C111	0.402500	0.808800	0.417800
C1121	C112	0.477000	0.799900	0.440100
C1131	C113	0.367600	0.938300	0.399900
C1141	C114	0.443400	0.930000	0.422800
C1151	C115	0.500100	0.860700	0.442700
C1161	C116	0.578960	0.852940	0.467940
C1171	C117	0.664200	0.791400	0.452400
C1181	C118	0.734500	0.784600	0.480400
C1191	C119	0.567100	0.907200	0.511200
C1201	C120	0.640600	0.897900	0.536500
C1211	C121	0.144100	0.748100	0.322500
C1221	C122	0.148400	0.670800	0.336600
C1231	C123	0.218300	0.616200	0.284600
C1241	C124	0.226100	0.542500	0.297700
C1251	C125	0.084100	0.651800	0.401600
C1261	C126	0.092100	0.579300	0.413700
C1271	C127	0.161300	0.524200	0.362600
C1281	C128	0.168300	0.446200	0.376600
C1291	C129	0.256800	0.389700	0.365100
C1301	C130	0.260000	0.316700	0.379500
C1311	C131	0.085100	0.428200	0.400800
C1321	C132	0.094900	0.355600	0.411800
C1331	C133	0.287300	0.894100	0.158300
C1341	C134	0.353800	0.883100	0.077300
C1351	C135	0.318900	0.902100	0.023100
C1361	C136	0.381500	0.893800	0.948400
C1371	C137	0.454000	0.847900	0.058100
C1381	C138	0.516200	0.835600	0.984000
C1391	C139	0.480100	0.859300	0.928900
C1401	C140	0.547200	0.847100	0.849700
C1411	C141	0.534100	0.901700	0.796500
C1421	C142	0.601600	0.889600	0.724800
C1431	C143	0.628400	0.781600	0.825000
C1441	C144	0.693100	0.774000	0.752000
C1451	C145	0.244800	0.043200	0.671800
C1461	C146	0.186000	0.010500	0.653500
C1471	C147	0.229700	0.952200	0.605800
C1481	C148	0.173500	0.922300	0.591500
C1491	C149	0.082800	0.037400	0.691000
C1501	C150	0.029300	0.007200	0.677600
C1511	C151	0.071500	0.948800	0.628200
C1521	C152	0.009500	0.917100	0.617300
C1531	C153	0.025430	0.894840	0.547100
C1541	C154	0.961000	0.869100	0.539700
C1551	C155	0.930300	0.908000	0.676200
C1561	C156	0.871600	0.880000	0.663400
C1571	C157	0.525300	0.115800	0.625200
C1581	C158	0.623570	0.121970	0.601090
C1591	C159	0.629100	0.191200	0.582200
C1601	C160	0.717000	0.200100	0.559900
C1611	C161	0.705800	0.061700	0.600100
C1621	C162	0.796200	0.070000	0.577200
C1631	C163	0.803500	0.139300	0.557300
C1641	C164	0.899840	0.147060	0.532060
C1651	C165	0.908000	0.208600	0.547600
C1661	C166	0.999500	0.215400	0.519600
C1671	C167	0.985500	0.092800	0.488800
C1681	C168	0.075000	0.102100	0.463500
C1691	C169	0.214700	0.251900	0.677500
C1701	C170	0.155800	0.329200	0.663400
C1711	C171	0.119100	0.383800	0.715400
C1721	C172	0.066300	0.457500	0.702300
C1731	C173	0.137500	0.348200	0.598400
C1741	C174	0.085100	0.420700	0.586300
C1751	C175	0.048100	0.475800	0.637400
C1761	C176	0.991100	0.553800	0.623400
C1771	C177	0.011600	0.610300	0.634900
C1781	C178	0.956200	0.683300	0.620500
C1791	C179	0.914100	0.571800	0.599200
C1801	C180	0.862300	0.644400	0.588200
C1811	C181	0.339700	0.105900	0.841700
C1821	C182	0.314200	0.116900	0.922700
C1831	C183	0.244100	0.097900	0.976900
C1841	C184	0.223700	0.106200	0.051600
C1851	C185	0.360000	0.152100	0.941900
C1861	C186	0.335800	0.164400	0.016000
C1871	C187	0.268300	0.140700	0.071100
C1881	C188	0.244000	0.152900	0.150300
C1891	C189	0.232300	0.098300	0.203500
C1901	C190	0.216000	0.110400	0.275200
C1911	C191	0.235000	0.218400	0.175000
C1921	C192	0.219100	0.226000	0.248000
N91	N9	0.342120	0.136860	0.402700
N101	N10	0.722860	0.836100	0.523780
N111	N11	0.180650	0.298660	0.402840
N121	N12	0.681380	0.827020	0.701420
N131	N13	0.881680	0.863140	0.597300
N141	N14	0.082740	0.163900	0.476220
N151	N15	0.882150	0.701340	0.597160
N161	N16	0.209820	0.172980	0.298580
O171	O17	0.013560	0.911250	0.275230
O181	O18	0.996590	0.973810	0.364810
O191	O19	0.216320	0.946500	0.354060
O201	O20	0.250400	0.828230	0.373570
O211	O21	0.088280	0.796500	0.373740
O221	O22	0.199960	0.764430	0.260650
O231	O23	0.320800	0.862400	0.206400
O241	O24	0.196000	0.932990	0.176010
O251	O25	0.200040	0.088750	0.724770
O261	O26	0.335210	0.026190	0.635190
O271	O27	0.516880	0.053500	0.645940
O281	O28	0.452200	0.171770	0.626430
O291	O29	0.258520	0.203500	0.626260
O301	O30	0.225040	0.235570	0.739350
O311	O31	0.389600	0.137600	0.793600
O321	O32	0.305000	0.067010	0.823990
