data_VAHTOQ_clean_PM
_symmetry_space_group_name_H-M	'P1'
_cell_length_a	40.592000
_cell_length_b	16.616000
_cell_length_c	12.998000
_cell_angle_alpha	90.000000
_cell_angle_beta	98.145000
_cell_angle_gamma	90.000000
_symmetry_Int_Tables_number 1

loop_
_symmetry_equiv_pos_as_xyz
'x,y,z'

loop_
_atom_site_label
_atom_site_type_symbol
_atom_site_fract_x
_atom_site_fract_y
_atom_site_fract_z
Sr11	Sr1	0.763870	0.404630	0.133390
Sr21	Sr2	0.740790	0.391410	0.829570
O11	O1	0.680860	0.354100	0.857200
O21	O2	0.270660	0.142200	0.400900
O31	O3	0.271820	0.018100	0.335500
O41	O4	0.820470	0.348900	0.113000
O51	O5	0.784400	0.336200	0.969300
O61	O6	0.216020	0.007700	0.488900
O71	O7	0.216270	0.141500	0.459200
C11	C1	0.659890	0.315000	0.010600
C21	C2	0.667360	0.292200	0.114800
H11	H1	0.688900	0.297700	0.149300
C31	C3	0.642570	0.261500	0.166600
H21	H2	0.647700	0.246600	0.236000
C41	C4	0.610200	0.252600	0.116400
C51	C5	0.603310	0.273800	0.011100
H31	H3	0.581900	0.267300	0.975900
C61	C6	0.627910	0.304000	0.959300
H41	H4	0.623000	0.317200	0.889300
C71	C7	0.582310	0.223500	0.171100
C81	C8	0.569640	0.145100	0.153100
C91	C9	0.539640	0.121300	0.192200
C101	C10	0.522840	0.176800	0.248600
C111	C11	0.536930	0.253000	0.273200
C121	C12	0.566870	0.276500	0.235200
C131	C13	0.580190	0.354200	0.262800
H51	H5	0.599700	0.369900	0.238900
C141	C14	0.565560	0.405200	0.322100
H61	H6	0.574700	0.455800	0.337700
C151	C15	0.536020	0.382000	0.360800
H71	H7	0.526100	0.416700	0.403300
C161	C16	0.522260	0.308400	0.335600
H81	H8	0.502600	0.294400	0.360200
C171	C17	0.527500	0.041800	0.170100
H91	H9	0.507800	0.025800	0.193000
C181	C18	0.544100	0.988600	0.115800
H101	H10	0.535600	0.937100	0.102100
C191	C19	0.573880	0.011100	0.080700
H111	H11	0.585400	0.974000	0.045900
C201	C20	0.586170	0.087700	0.097400
H121	H12	0.605600	0.102300	0.071900
C211	C21	0.489370	0.156200	0.275700
C221	C22	0.461380	0.163400	0.198300
C231	C23	0.428860	0.143800	0.221300
C241	C24	0.424650	0.120600	0.323500
C251	C25	0.452450	0.113300	0.399600
C261	C26	0.485260	0.130200	0.376200
C271	C27	0.512950	0.121900	0.455600
H131	H13	0.534300	0.130700	0.440100
C281	C28	0.508530	0.101200	0.555000
H141	H14	0.526800	0.097800	0.606800
C291	C29	0.476130	0.084900	0.578800
H151	H15	0.473300	0.070500	0.646100
C301	C30	0.449020	0.090100	0.503800
H161	H16	0.428000	0.078400	0.520500
C311	C31	0.400930	0.148700	0.140100
H171	H17	0.379900	0.134700	0.154300
C321	C32	0.404840	0.173600	0.042500
H181	H18	0.386700	0.175800	0.990300
C331	C33	0.437210	0.196400	0.021500
H191	H19	0.439800	0.215600	0.955900
C341	C34	0.464240	0.190400	0.095900
H201	H20	0.485100	0.204200	0.079600
C351	C35	0.390060	0.108100	0.345500
C361	C36	0.370500	0.175200	0.358000
H211	H21	0.380000	0.226200	0.359000
C371	C37	0.337120	0.167700	0.369100
H221	H22	0.324600	0.213200	0.379300
C381	C38	0.322230	0.091100	0.364900
C391	C39	0.341730	0.024000	0.355400
H231	H23	0.332300	0.973000	0.354200
C401	C40	0.375350	0.032500	0.347700
H241	H24	0.388300	0.986700	0.344000
C411	C41	0.285540	0.082300	0.366500
C421	C42	0.841370	0.302000	0.963600
C431	C43	0.873780	0.302300	0.014000
H251	H25	0.878400	0.320500	0.082200
C441	C44	0.899330	0.275400	0.962800
H261	H26	0.921100	0.276800	0.996600
C451	C45	0.893070	0.246400	0.862100
C461	C46	0.860510	0.245500	0.812300
H271	H27	0.855900	0.226300	0.744600
C471	C47	0.834600	0.272900	0.862600
H281	H28	0.812800	0.271800	0.828700
C481	C48	0.921570	0.218100	0.812000
C491	C49	0.934290	0.139400	0.833400
C501	C50	0.964770	0.115700	0.799000
C511	C51	0.981410	0.168600	0.740100
C521	C52	0.967350	0.243500	0.711400
C531	C53	0.937100	0.269500	0.748800
C541	C54	0.924010	0.347300	0.719800
H291	H29	0.905000	0.364700	0.745400
C551	C55	0.938250	0.395900	0.656800
H301	H30	0.929200	0.446300	0.639100
C561	C56	0.967090	0.370100	0.617700
H311	H31	0.976300	0.403200	0.571700
C571	C57	0.981830	0.298500	0.645000
H321	H32	0.001500	0.284700	0.620500
C581	C58	0.916800	0.083400	0.890400
H331	H33	0.897000	0.098500	0.913100
C591	C59	0.929370	0.008100	0.911100
H341	H34	0.917500	0.971800	0.946200
C601	C60	0.959610	0.984100	0.880900
H351	H35	0.967900	0.932700	0.897300
C611	C61	0.977200	0.036400	0.826800
H361	H36	0.997400	0.020200	0.807900
C621	C62	0.014450	0.146800	0.711100
C631	C63	0.043630	0.154600	0.783300
C641	C64	0.075560	0.137300	0.755000
C651	C65	0.078030	0.115900	0.649900
C661	C66	0.048860	0.110100	0.576100
C671	C67	0.016810	0.122700	0.606800
C681	C68	0.987940	0.113300	0.531900
H371	H37	0.966900	0.117700	0.551900
C691	C69	0.991040	0.098100	0.431700
H381	H38	0.972000	0.093500	0.383200
C701	C70	0.022480	0.088800	0.398700
H391	H39	0.024100	0.080000	0.329000
C711	C71	0.050320	0.092900	0.470100
H401	H40	0.070900	0.084200	0.448700
C721	C72	0.042520	0.181100	0.885700
H411	H41	0.022000	0.194000	0.905500
C731	C73	0.070410	0.188500	0.956600
H421	H42	0.068900	0.206700	0.023500
C741	C74	0.101910	0.168300	0.927400
H431	H43	0.120900	0.171600	0.976300
C751	C75	0.104430	0.144400	0.830100
H441	H44	0.125200	0.132500	0.811800
C761	C76	0.111020	0.104900	0.615300
C771	C77	0.123240	0.028200	0.594600
H451	H45	0.110900	0.982700	0.605700
C781	C78	0.153710	0.019400	0.557500
H461	H46	0.161800	0.968300	0.546100
C791	C79	0.172070	0.087000	0.537400
C801	C80	0.160510	0.162000	0.559400
H471	H47	0.172700	0.207600	0.547300
C811	C81	0.130880	0.170100	0.599300
H481	H48	0.124000	0.221200	0.616000
C821	C82	0.203860	0.076800	0.492100
O81	O8	0.714250	0.368500	0.005800
C831	C83	0.686820	0.348700	0.954000
C841	C84	0.813790	0.330400	0.019000
Cl11	Cl1	0.748790	0.270380	0.255700
Sr31	Sr3	0.236130	0.904630	0.366610
Sr41	Sr4	0.259210	0.891410	0.670430
O91	O9	0.319140	0.854100	0.642800
O101	O10	0.729340	0.642200	0.099100
O111	O11	0.728180	0.518100	0.164500
O121	O12	0.179530	0.848900	0.387000
O131	O13	0.215600	0.836200	0.530700
O141	O14	0.783980	0.507700	0.011100
O151	O15	0.783730	0.641500	0.040800
C851	C85	0.340110	0.815000	0.489400
C861	C86	0.332640	0.792200	0.385200
H491	H49	0.311100	0.797700	0.350700
C871	C87	0.357430	0.761500	0.333400
H501	H50	0.352300	0.746600	0.264000
C881	C88	0.389800	0.752600	0.383600
C891	C89	0.396690	0.773800	0.488900
H511	H51	0.418100	0.767300	0.524100
C901	C90	0.372090	0.804000	0.540700
H521	H52	0.377000	0.817200	0.610700
C911	C91	0.417690	0.723500	0.328900
C921	C92	0.430360	0.645100	0.346900
C931	C93	0.460360	0.621300	0.307800
C941	C94	0.477160	0.676800	0.251400
C951	C95	0.463070	0.753000	0.226800
C961	C96	0.433130	0.776500	0.264800
C971	C97	0.419810	0.854200	0.237200
H531	H53	0.400300	0.869900	0.261100
C981	C98	0.434440	0.905200	0.177900
H541	H54	0.425300	0.955800	0.162300
C991	C99	0.463980	0.882000	0.139200
H551	H55	0.473900	0.916700	0.096700
C1001	C100	0.477740	0.808400	0.164400
H561	H56	0.497400	0.794400	0.139800
C1011	C101	0.472500	0.541800	0.329900
H571	H57	0.492200	0.525800	0.307000
C1021	C102	0.455900	0.488600	0.384200
H581	H58	0.464400	0.437100	0.397900
C1031	C103	0.426120	0.511100	0.419300
H591	H59	0.414600	0.474000	0.454100
C1041	C104	0.413830	0.587700	0.402600
H601	H60	0.394400	0.602300	0.428100
C1051	C105	0.510630	0.656200	0.224300
C1061	C106	0.538620	0.663400	0.301700
C1071	C107	0.571140	0.643800	0.278700
C1081	C108	0.575350	0.620600	0.176500
C1091	C109	0.547550	0.613300	0.100400
C1101	C110	0.514740	0.630200	0.123800
C1111	C111	0.487050	0.621900	0.044400
H611	H61	0.465700	0.630700	0.059900
C1121	C112	0.491470	0.601200	0.945000
H621	H62	0.473200	0.597800	0.893200
C1131	C113	0.523870	0.584900	0.921200
H631	H63	0.526700	0.570500	0.853900
C1141	C114	0.550980	0.590100	0.996200
H641	H64	0.572000	0.578400	0.979500
C1151	C115	0.599070	0.648700	0.359900
H651	H65	0.620100	0.634700	0.345700
C1161	C116	0.595160	0.673600	0.457500
H661	H66	0.613300	0.675800	0.509700
C1171	C117	0.562790	0.696400	0.478500
H671	H67	0.560200	0.715600	0.544100
C1181	C118	0.535760	0.690400	0.404100
H681	H68	0.514900	0.704200	0.420400
C1191	C119	0.609940	0.608100	0.154500
C1201	C120	0.629500	0.675200	0.142000
H691	H69	0.620000	0.726200	0.141000
C1211	C121	0.662880	0.667700	0.130900
H701	H70	0.675400	0.713200	0.120700
C1221	C122	0.677770	0.591100	0.135100
C1231	C123	0.658270	0.524000	0.144600
H711	H71	0.667700	0.473000	0.145800
C1241	C124	0.624650	0.532500	0.152300
H721	H72	0.611700	0.486700	0.156000
C1251	C125	0.714460	0.582300	0.133500
C1261	C126	0.158630	0.802000	0.536400
C1271	C127	0.126220	0.802300	0.486000
H731	H73	0.121600	0.820500	0.417800
C1281	C128	0.100670	0.775400	0.537200
H741	H74	0.078900	0.776800	0.503400
C1291	C129	0.106930	0.746400	0.637900
C1301	C130	0.139490	0.745500	0.687700
H751	H75	0.144100	0.726300	0.755400
C1311	C131	0.165400	0.772900	0.637400
H761	H76	0.187200	0.771800	0.671300
C1321	C132	0.078430	0.718100	0.688000
C1331	C133	0.065710	0.639400	0.666600
C1341	C134	0.035230	0.615700	0.701000
C1351	C135	0.018590	0.668600	0.759900
C1361	C136	0.032650	0.743500	0.788600
C1371	C137	0.062900	0.769500	0.751200
C1381	C138	0.075990	0.847300	0.780200
H771	H77	0.095000	0.864700	0.754600
C1391	C139	0.061750	0.895900	0.843200
H781	H78	0.070800	0.946300	0.860900
C1401	C140	0.032910	0.870100	0.882300
H791	H79	0.023700	0.903200	0.928300
C1411	C141	0.018170	0.798500	0.855000
H801	H80	0.998500	0.784700	0.879500
C1421	C142	0.083200	0.583400	0.609600
H811	H81	0.103000	0.598500	0.586900
C1431	C143	0.070630	0.508100	0.588900
H821	H82	0.082500	0.471800	0.553800
C1441	C144	0.040390	0.484100	0.619100
H831	H83	0.032100	0.432700	0.602700
C1451	C145	0.022800	0.536400	0.673200
H841	H84	0.002600	0.520200	0.692100
C1461	C146	0.985550	0.646800	0.788900
C1471	C147	0.956370	0.654600	0.716700
C1481	C148	0.924440	0.637300	0.745000
C1491	C149	0.921970	0.615900	0.850100
C1501	C150	0.951140	0.610100	0.923900
C1511	C151	0.983190	0.622700	0.893200
C1521	C152	0.012060	0.613300	0.968100
H851	H85	0.033100	0.617700	0.948100
C1531	C153	0.008960	0.598100	0.068300
H861	H86	0.028000	0.593500	0.116800
C1541	C154	0.977520	0.588800	0.101300
H871	H87	0.975900	0.580000	0.171000
C1551	C155	0.949680	0.592900	0.029900
H881	H88	0.929100	0.584200	0.051300
C1561	C156	0.957480	0.681100	0.614300
H891	H89	0.978000	0.694000	0.594500
C1571	C157	0.929590	0.688500	0.543400
H901	H90	0.931100	0.706700	0.476500
C1581	C158	0.898090	0.668300	0.572600
H911	H91	0.879100	0.671600	0.523700
C1591	C159	0.895570	0.644400	0.669900
H921	H92	0.874800	0.632500	0.688200
C1601	C160	0.888980	0.604900	0.884700
C1611	C161	0.876760	0.528200	0.905400
H931	H93	0.889100	0.482700	0.894300
C1621	C162	0.846290	0.519400	0.942500
H941	H94	0.838200	0.468300	0.953900
C1631	C163	0.827930	0.587000	0.962600
C1641	C164	0.839490	0.662000	0.940600
H951	H95	0.827300	0.707600	0.952700
C1651	C165	0.869120	0.670100	0.900700
H961	H96	0.876000	0.721200	0.884000
C1661	C166	0.796140	0.576800	0.007900
O161	O16	0.285750	0.868500	0.494200
C1671	C167	0.313180	0.848700	0.546000
C1681	C168	0.186210	0.830400	0.481000
Cl21	Cl2	0.251210	0.770380	0.244300
Sr51	Sr5	0.236130	0.595370	0.866610
Sr61	Sr6	0.259210	0.608590	0.170430
O171	O17	0.319140	0.645900	0.142800
O181	O18	0.729340	0.857800	0.599100
O191	O19	0.728180	0.981900	0.664500
O201	O20	0.179530	0.651100	0.887000
O211	O21	0.215600	0.663800	0.030700
O221	O22	0.783980	0.992300	0.511100
O231	O23	0.783730	0.858500	0.540800
C1691	C169	0.340110	0.685000	0.989400
C1701	C170	0.332640	0.707800	0.885200
H971	H97	0.311100	0.702300	0.850700
C1711	C171	0.357430	0.738500	0.833400
H981	H98	0.352300	0.753400	0.764000
C1721	C172	0.389800	0.747400	0.883600
C1731	C173	0.396690	0.726200	0.988900
H991	H99	0.418100	0.732700	0.024100
C1741	C174	0.372090	0.696000	0.040700
H1001	H100	0.377000	0.682800	0.110700
C1751	C175	0.417690	0.776500	0.828900
C1761	C176	0.430360	0.854900	0.846900
C1771	C177	0.460360	0.878700	0.807800
C1781	C178	0.477160	0.823200	0.751400
C1791	C179	0.463070	0.747000	0.726800
C1801	C180	0.433130	0.723500	0.764800
C1811	C181	0.419810	0.645800	0.737200
H1011	H101	0.400300	0.630100	0.761100
C1821	C182	0.434440	0.594800	0.677900
H1021	H102	0.425300	0.544200	0.662300
C1831	C183	0.463980	0.618000	0.639200
H1031	H103	0.473900	0.583300	0.596700
C1841	C184	0.477740	0.691600	0.664400
H1041	H104	0.497400	0.705600	0.639800
C1851	C185	0.472500	0.958200	0.829900
H1051	H105	0.492200	0.974200	0.807000
C1861	C186	0.455900	0.011400	0.884200
H1061	H106	0.464400	0.062900	0.897900
C1871	C187	0.426120	0.988900	0.919300
H1071	H107	0.414600	0.026000	0.954100
C1881	C188	0.413830	0.912300	0.902600
H1081	H108	0.394400	0.897700	0.928100
C1891	C189	0.510630	0.843800	0.724300
C1901	C190	0.538620	0.836600	0.801700
C1911	C191	0.571140	0.856200	0.778700
C1921	C192	0.575350	0.879400	0.676500
C1931	C193	0.547550	0.886700	0.600400
C1941	C194	0.514740	0.869800	0.623800
C1951	C195	0.487050	0.878100	0.544400
H1091	H109	0.465700	0.869300	0.559900
C1961	C196	0.491470	0.898800	0.445000
H1101	H110	0.473200	0.902200	0.393200
C1971	C197	0.523870	0.915100	0.421200
H1111	H111	0.526700	0.929500	0.353900
C1981	C198	0.550980	0.909900	0.496200
H1121	H112	0.572000	0.921600	0.479500
C1991	C199	0.599070	0.851300	0.859900
H1131	H113	0.620100	0.865300	0.845700
C2001	C200	0.595160	0.826400	0.957500
H1141	H114	0.613300	0.824200	0.009700
C2011	C201	0.562790	0.803600	0.978500
H1151	H115	0.560200	0.784400	0.044100
C2021	C202	0.535760	0.809600	0.904100
H1161	H116	0.514900	0.795800	0.920400
C2031	C203	0.609940	0.891900	0.654500
C2041	C204	0.629500	0.824800	0.642000
H1171	H117	0.620000	0.773800	0.641000
C2051	C205	0.662880	0.832300	0.630900
H1181	H118	0.675400	0.786800	0.620700
C2061	C206	0.677770	0.908900	0.635100
C2071	C207	0.658270	0.976000	0.644600
H1191	H119	0.667700	0.027000	0.645800
C2081	C208	0.624650	0.967500	0.652300
H1201	H120	0.611700	0.013300	0.656000
C2091	C209	0.714460	0.917700	0.633500
C2101	C210	0.158630	0.698000	0.036400
C2111	C211	0.126220	0.697700	0.986000
H1211	H121	0.121600	0.679500	0.917800
C2121	C212	0.100670	0.724600	0.037200
H1221	H122	0.078900	0.723200	0.003400
C2131	C213	0.106930	0.753600	0.137900
C2141	C214	0.139490	0.754500	0.187700
H1231	H123	0.144100	0.773700	0.255400
C2151	C215	0.165400	0.727100	0.137400
H1241	H124	0.187200	0.728200	0.171300
C2161	C216	0.078430	0.781900	0.188000
C2171	C217	0.065710	0.860600	0.166600
C2181	C218	0.035230	0.884300	0.201000
C2191	C219	0.018590	0.831400	0.259900
C2201	C220	0.032650	0.756500	0.288600
C2211	C221	0.062900	0.730500	0.251200
C2221	C222	0.075990	0.652700	0.280200
H1251	H125	0.095000	0.635300	0.254600
C2231	C223	0.061750	0.604100	0.343200
H1261	H126	0.070800	0.553700	0.360900
C2241	C224	0.032910	0.629900	0.382300
H1271	H127	0.023700	0.596800	0.428300
C2251	C225	0.018170	0.701500	0.355000
H1281	H128	0.998500	0.715300	0.379500
C2261	C226	0.083200	0.916600	0.109600
H1291	H129	0.103000	0.901500	0.086900
C2271	C227	0.070630	0.991900	0.088900
H1301	H130	0.082500	0.028200	0.053800
C2281	C228	0.040390	0.015900	0.119100
H1311	H131	0.032100	0.067300	0.102700
C2291	C229	0.022800	0.963600	0.173200
H1321	H132	0.002600	0.979800	0.192100
C2301	C230	0.985550	0.853200	0.288900
C2311	C231	0.956370	0.845400	0.216700
C2321	C232	0.924440	0.862700	0.245000
C2331	C233	0.921970	0.884100	0.350100
C2341	C234	0.951140	0.889900	0.423900
C2351	C235	0.983190	0.877300	0.393200
C2361	C236	0.012060	0.886700	0.468100
H1331	H133	0.033100	0.882300	0.448100
C2371	C237	0.008960	0.901900	0.568300
H1341	H134	0.028000	0.906500	0.616800
C2381	C238	0.977520	0.911200	0.601300
H1351	H135	0.975900	0.920000	0.671000
C2391	C239	0.949680	0.907100	0.529900
H1361	H136	0.929100	0.915800	0.551300
C2401	C240	0.957480	0.818900	0.114300
H1371	H137	0.978000	0.806000	0.094500
C2411	C241	0.929590	0.811500	0.043400
H1381	H138	0.931100	0.793300	0.976500
C2421	C242	0.898090	0.831700	0.072600
H1391	H139	0.879100	0.828400	0.023700
C2431	C243	0.895570	0.855600	0.169900
H1401	H140	0.874800	0.867500	0.188200
C2441	C244	0.888980	0.895100	0.384700
C2451	C245	0.876760	0.971800	0.405400
H1411	H141	0.889100	0.017300	0.394300
C2461	C246	0.846290	0.980600	0.442500
H1421	H142	0.838200	0.031700	0.453900
C2471	C247	0.827930	0.913000	0.462600
C2481	C248	0.839490	0.838000	0.440600
H1431	H143	0.827300	0.792400	0.452700
C2491	C249	0.869120	0.829900	0.400700
H1441	H144	0.876000	0.778800	0.384000
C2501	C250	0.796140	0.923200	0.507900
O241	O24	0.285750	0.631500	0.994200
C2511	C251	0.313180	0.651300	0.046000
C2521	C252	0.186210	0.669600	0.981000
Cl31	Cl3	0.251210	0.729620	0.744300
Sr71	Sr7	0.763870	0.095370	0.633390
Sr81	Sr8	0.740790	0.108590	0.329570
O251	O25	0.680860	0.145900	0.357200
O261	O26	0.270660	0.357800	0.900900
O271	O27	0.271820	0.481900	0.835500
O281	O28	0.820470	0.151100	0.613000
O291	O29	0.784400	0.163800	0.469300
O301	O30	0.216020	0.492300	0.988900
O311	O31	0.216270	0.358500	0.959200
C2531	C253	0.659890	0.185000	0.510600
C2541	C254	0.667360	0.207800	0.614800
H1451	H145	0.688900	0.202300	0.649300
C2551	C255	0.642570	0.238500	0.666600
H1461	H146	0.647700	0.253400	0.736000
C2561	C256	0.610200	0.247400	0.616400
C2571	C257	0.603310	0.226200	0.511100
H1471	H147	0.581900	0.232700	0.475900
C2581	C258	0.627910	0.196000	0.459300
H1481	H148	0.623000	0.182800	0.389300
C2591	C259	0.582310	0.276500	0.671100
C2601	C260	0.569640	0.354900	0.653100
C2611	C261	0.539640	0.378700	0.692200
C2621	C262	0.522840	0.323200	0.748600
C2631	C263	0.536930	0.247000	0.773200
C2641	C264	0.566870	0.223500	0.735200
C2651	C265	0.580190	0.145800	0.762800
H1491	H149	0.599700	0.130100	0.738900
C2661	C266	0.565560	0.094800	0.822100
H1501	H150	0.574700	0.044200	0.837700
C2671	C267	0.536020	0.118000	0.860800
H1511	H151	0.526100	0.083300	0.903300
C2681	C268	0.522260	0.191600	0.835600
H1521	H152	0.502600	0.205600	0.860200
C2691	C269	0.527500	0.458200	0.670100
H1531	H153	0.507800	0.474200	0.693000
C2701	C270	0.544100	0.511400	0.615800
H1541	H154	0.535600	0.562900	0.602100
C2711	C271	0.573880	0.488900	0.580700
H1551	H155	0.585400	0.526000	0.545900
C2721	C272	0.586170	0.412300	0.597400
H1561	H156	0.605600	0.397700	0.571900
C2731	C273	0.489370	0.343800	0.775700
C2741	C274	0.461380	0.336600	0.698300
C2751	C275	0.428860	0.356200	0.721300
C2761	C276	0.424650	0.379400	0.823500
C2771	C277	0.452450	0.386700	0.899600
C2781	C278	0.485260	0.369800	0.876200
C2791	C279	0.512950	0.378100	0.955600
H1571	H157	0.534300	0.369300	0.940100
C2801	C280	0.508530	0.398800	0.055000
H1581	H158	0.526800	0.402200	0.106800
C2811	C281	0.476130	0.415100	0.078800
H1591	H159	0.473300	0.429500	0.146100
C2821	C282	0.449020	0.409900	0.003800
H1601	H160	0.428000	0.421600	0.020500
C2831	C283	0.400930	0.351300	0.640100
H1611	H161	0.379900	0.365300	0.654300
C2841	C284	0.404840	0.326400	0.542500
H1621	H162	0.386700	0.324200	0.490300
C2851	C285	0.437210	0.303600	0.521500
H1631	H163	0.439800	0.284400	0.455900
C2861	C286	0.464240	0.309600	0.595900
H1641	H164	0.485100	0.295800	0.579600
C2871	C287	0.390060	0.391900	0.845500
C2881	C288	0.370500	0.324800	0.858000
H1651	H165	0.380000	0.273800	0.859000
C2891	C289	0.337120	0.332300	0.869100
H1661	H166	0.324600	0.286800	0.879300
C2901	C290	0.322230	0.408900	0.864900
C2911	C291	0.341730	0.476000	0.855400
H1671	H167	0.332300	0.527000	0.854200
C2921	C292	0.375350	0.467500	0.847700
H1681	H168	0.388300	0.513300	0.844000
C2931	C293	0.285540	0.417700	0.866500
C2941	C294	0.841370	0.198000	0.463600
C2951	C295	0.873780	0.197700	0.514000
H1691	H169	0.878400	0.179500	0.582200
C2961	C296	0.899330	0.224600	0.462800
H1701	H170	0.921100	0.223200	0.496600
C2971	C297	0.893070	0.253600	0.362100
C2981	C298	0.860510	0.254500	0.312300
H1711	H171	0.855900	0.273700	0.244600
C2991	C299	0.834600	0.227100	0.362600
H1721	H172	0.812800	0.228200	0.328700
C3001	C300	0.921570	0.281900	0.312000
C3011	C301	0.934290	0.360600	0.333400
C3021	C302	0.964770	0.384300	0.299000
C3031	C303	0.981410	0.331400	0.240100
C3041	C304	0.967350	0.256500	0.211400
C3051	C305	0.937100	0.230500	0.248800
C3061	C306	0.924010	0.152700	0.219800
H1731	H173	0.905000	0.135300	0.245400
C3071	C307	0.938250	0.104100	0.156800
H1741	H174	0.929200	0.053700	0.139100
C3081	C308	0.967090	0.129900	0.117700
H1751	H175	0.976300	0.096800	0.071700
C3091	C309	0.981830	0.201500	0.145000
H1761	H176	0.001500	0.215300	0.120500
C3101	C310	0.916800	0.416600	0.390400
H1771	H177	0.897000	0.401500	0.413100
C3111	C311	0.929370	0.491900	0.411100
H1781	H178	0.917500	0.528200	0.446200
C3121	C312	0.959610	0.515900	0.380900
H1791	H179	0.967900	0.567300	0.397300
C3131	C313	0.977200	0.463600	0.326800
H1801	H180	0.997400	0.479800	0.307900
C3141	C314	0.014450	0.353200	0.211100
C3151	C315	0.043630	0.345400	0.283300
C3161	C316	0.075560	0.362700	0.255000
C3171	C317	0.078030	0.384100	0.149900
C3181	C318	0.048860	0.389900	0.076100
C3191	C319	0.016810	0.377300	0.106800
C3201	C320	0.987940	0.386700	0.031900
H1811	H181	0.966900	0.382300	0.051900
C3211	C321	0.991040	0.401900	0.931700
H1821	H182	0.972000	0.406500	0.883200
C3221	C322	0.022480	0.411200	0.898700
H1831	H183	0.024100	0.420000	0.829000
C3231	C323	0.050320	0.407100	0.970100
H1841	H184	0.070900	0.415800	0.948700
C3241	C324	0.042520	0.318900	0.385700
H1851	H185	0.022000	0.306000	0.405500
C3251	C325	0.070410	0.311500	0.456600
H1861	H186	0.068900	0.293300	0.523500
C3261	C326	0.101910	0.331700	0.427400
H1871	H187	0.120900	0.328400	0.476300
C3271	C327	0.104430	0.355600	0.330100
H1881	H188	0.125200	0.367500	0.311800
C3281	C328	0.111020	0.395100	0.115300
C3291	C329	0.123240	0.471800	0.094600
H1891	H189	0.110900	0.517300	0.105700
C3301	C330	0.153710	0.480600	0.057500
H1901	H190	0.161800	0.531700	0.046100
C3311	C331	0.172070	0.413000	0.037400
C3321	C332	0.160510	0.338000	0.059400
H1911	H191	0.172700	0.292400	0.047300
C3331	C333	0.130880	0.329900	0.099300
H1921	H192	0.124000	0.278800	0.116000
C3341	C334	0.203860	0.423200	0.992100
O321	O32	0.714250	0.131500	0.505800
C3351	C335	0.686820	0.151300	0.454000
C3361	C336	0.813790	0.169600	0.519000
Cl41	Cl4	0.748790	0.229620	0.755700
