data_VAHVOQ_clean_PM
_symmetry_space_group_name_H-M	'P1'
_cell_length_a	18.183600
_cell_length_b	10.012600
_cell_length_c	20.058900
_cell_angle_alpha	90.000000
_cell_angle_beta	106.080000
_cell_angle_gamma	90.000000
_symmetry_Int_Tables_number 1

loop_
_symmetry_equiv_pos_as_xyz
'x,y,z'

loop_
_atom_site_label
_atom_site_type_symbol
_atom_site_fract_x
_atom_site_fract_y
_atom_site_fract_z
Fe11	Fe1	0.187400	0.577700	0.161200
Fe21	Fe2	0.310700	0.315000	0.240000
Fe31	Fe3	0.424300	0.429300	0.997800
P11	P1	0.079000	0.827300	0.106900
P21	P2	0.141300	0.270800	0.132000
P31	P3	0.333700	0.484000	0.114600
O11	O1	0.251800	0.537300	0.101000
O21	O2	0.109900	0.686300	0.099700
O31	O3	0.123200	0.418400	0.138800
O41	O4	0.263200	0.487100	0.238900
F11	F1	0.145300	0.632500	0.241200
F21	F2	0.243600	0.751600	0.190800
O51	O5	0.355100	0.366700	0.165900
O61	O6	0.224100	0.238300	0.168100
O71	O7	0.096800	0.866900	0.184300
O81	O8	0.345500	0.447500	0.045400
O91	O9	0.116900	0.930600	0.070800
O101	O10	0.120900	0.228400	0.056000
F31	F3	0.489900	0.580400	0.048100
O111	O11	0.991000	0.819600	0.074800
O121	O12	0.087900	0.195000	0.169700
O131	O13	0.388500	0.602800	0.148100
Fe41	Fe4	0.687400	0.077700	0.161200
Fe51	Fe5	0.810700	0.815000	0.240000
Fe61	Fe6	0.924300	0.929300	0.997800
P41	P4	0.579000	0.327300	0.106900
P51	P5	0.641300	0.770800	0.132000
P61	P6	0.833700	0.984000	0.114600
O141	O14	0.751800	0.037300	0.101000
O151	O15	0.609900	0.186300	0.099700
O161	O16	0.623200	0.918400	0.138800
O171	O17	0.763200	0.987100	0.238900
F41	F4	0.645300	0.132500	0.241200
F51	F5	0.743600	0.251600	0.190800
O181	O18	0.855100	0.866700	0.165900
O191	O19	0.724100	0.738300	0.168100
O201	O20	0.596800	0.366900	0.184300
O211	O21	0.845500	0.947500	0.045400
O221	O22	0.616900	0.430600	0.070800
O231	O23	0.620900	0.728400	0.056000
F61	F6	0.989900	0.080400	0.048100
O241	O24	0.491000	0.319600	0.074800
O251	O25	0.587900	0.695000	0.169700
O261	O26	0.888500	0.102800	0.148100
Fe71	Fe7	0.812600	0.577700	0.338800
Fe81	Fe8	0.689300	0.315000	0.260000
Fe91	Fe9	0.575700	0.429300	0.502200
P71	P7	0.921000	0.827300	0.393100
P81	P8	0.858700	0.270800	0.368000
P91	P9	0.666300	0.484000	0.385400
O271	O27	0.748200	0.537300	0.399000
O281	O28	0.890100	0.686300	0.400300
O291	O29	0.876800	0.418400	0.361200
O301	O30	0.736800	0.487100	0.261100
F71	F7	0.854700	0.632500	0.258800
F81	F8	0.756400	0.751600	0.309200
O311	O31	0.644900	0.366700	0.334100
O321	O32	0.775900	0.238300	0.331900
O331	O33	0.903200	0.866900	0.315700
O341	O34	0.654500	0.447500	0.454600
O351	O35	0.883100	0.930600	0.429200
O361	O36	0.879100	0.228400	0.444000
F91	F9	0.510100	0.580400	0.451900
O371	O37	0.009000	0.819600	0.425200
O381	O38	0.912100	0.195000	0.330300
O391	O39	0.611500	0.602800	0.351900
Fe101	Fe10	0.312600	0.077700	0.338800
Fe111	Fe11	0.189300	0.815000	0.260000
Fe121	Fe12	0.075700	0.929300	0.502200
P101	P10	0.421000	0.327300	0.393100
P111	P11	0.358700	0.770800	0.368000
P121	P12	0.166300	0.984000	0.385400
O401	O40	0.248200	0.037300	0.399000
O411	O41	0.390100	0.186300	0.400300
O421	O42	0.376800	0.918400	0.361200
O431	O43	0.236800	0.987100	0.261100
F101	F10	0.354700	0.132500	0.258800
F111	F11	0.256400	0.251600	0.309200
O441	O44	0.144900	0.866700	0.334100
O451	O45	0.275900	0.738300	0.331900
O461	O46	0.403200	0.366900	0.315700
O471	O47	0.154500	0.947500	0.454600
O481	O48	0.383100	0.430600	0.429200
O491	O49	0.379100	0.728400	0.444000
F121	F12	0.010100	0.080400	0.451900
O501	O50	0.509000	0.319600	0.425200
O511	O51	0.412100	0.695000	0.330300
O521	O52	0.111500	0.102800	0.351900
Fe131	Fe13	0.812600	0.422300	0.838800
Fe141	Fe14	0.689300	0.685000	0.760000
Fe151	Fe15	0.575700	0.570700	0.002200
P131	P13	0.921000	0.172700	0.893100
P141	P14	0.858700	0.729200	0.868000
P151	P15	0.666300	0.516000	0.885400
O531	O53	0.748200	0.462700	0.899000
O541	O54	0.890100	0.313700	0.900300
O551	O55	0.876800	0.581600	0.861200
O561	O56	0.736800	0.512900	0.761100
F131	F13	0.854700	0.367500	0.758800
F141	F14	0.756400	0.248400	0.809200
O571	O57	0.644900	0.633300	0.834100
O581	O58	0.775900	0.761700	0.831900
O591	O59	0.903200	0.133100	0.815700
O601	O60	0.654500	0.552500	0.954600
O611	O61	0.883100	0.069400	0.929200
O621	O62	0.879100	0.771600	0.944000
F151	F15	0.510100	0.419600	0.951900
O631	O63	0.009000	0.180400	0.925200
O641	O64	0.912100	0.805000	0.830300
O651	O65	0.611500	0.397200	0.851900
Fe161	Fe16	0.312600	0.922300	0.838800
Fe171	Fe17	0.189300	0.185000	0.760000
Fe181	Fe18	0.075700	0.070700	0.002200
P161	P16	0.421000	0.672700	0.893100
P171	P17	0.358700	0.229200	0.868000
P181	P18	0.166300	0.016000	0.885400
O661	O66	0.248200	0.962700	0.899000
O671	O67	0.390100	0.813700	0.900300
O681	O68	0.376800	0.081600	0.861200
O691	O69	0.236800	0.012900	0.761100
F161	F16	0.354700	0.867500	0.758800
F171	F17	0.256400	0.748400	0.809200
O701	O70	0.144900	0.133300	0.834100
O711	O71	0.275900	0.261700	0.831900
O721	O72	0.403200	0.633100	0.815700
O731	O73	0.154500	0.052500	0.954600
O741	O74	0.383100	0.569400	0.929200
O751	O75	0.379100	0.271600	0.944000
F181	F18	0.010100	0.919600	0.951900
O761	O76	0.509000	0.680400	0.925200
O771	O77	0.412100	0.305000	0.830300
O781	O78	0.111500	0.897200	0.851900
Fe191	Fe19	0.187400	0.422300	0.661200
Fe201	Fe20	0.310700	0.685000	0.740000
Fe211	Fe21	0.424300	0.570700	0.497800
P191	P19	0.079000	0.172700	0.606900
P201	P20	0.141300	0.729200	0.632000
P211	P21	0.333700	0.516000	0.614600
O791	O79	0.251800	0.462700	0.601000
O801	O80	0.109900	0.313700	0.599700
O811	O81	0.123200	0.581600	0.638800
O821	O82	0.263200	0.512900	0.738900
F191	F19	0.145300	0.367500	0.741200
F201	F20	0.243600	0.248400	0.690800
O831	O83	0.355100	0.633300	0.665900
O841	O84	0.224100	0.761700	0.668100
O851	O85	0.096800	0.133100	0.684300
O861	O86	0.345500	0.552500	0.545400
O871	O87	0.116900	0.069400	0.570800
O881	O88	0.120900	0.771600	0.556000
F211	F21	0.489900	0.419600	0.548100
O891	O89	0.991000	0.180400	0.574800
O901	O90	0.087900	0.805000	0.669700
O911	O91	0.388500	0.397200	0.648100
Fe221	Fe22	0.687400	0.922300	0.661200
Fe231	Fe23	0.810700	0.185000	0.740000
Fe241	Fe24	0.924300	0.070700	0.497800
P221	P22	0.579000	0.672700	0.606900
P231	P23	0.641300	0.229200	0.632000
P241	P24	0.833700	0.016000	0.614600
O921	O92	0.751800	0.962700	0.601000
O931	O93	0.609900	0.813700	0.599700
O941	O94	0.623200	0.081600	0.638800
O951	O95	0.763200	0.012900	0.738900
F221	F22	0.645300	0.867500	0.741200
F231	F23	0.743600	0.748400	0.690800
O961	O96	0.855100	0.133300	0.665900
O971	O97	0.724100	0.261700	0.668100
O981	O98	0.596800	0.633100	0.684300
O991	O99	0.845500	0.052500	0.545400
O1001	O100	0.616900	0.569400	0.570800
O1011	O101	0.620900	0.271600	0.556000
F241	F24	0.989900	0.919600	0.548100
O1021	O102	0.491000	0.680400	0.574800
O1031	O103	0.587900	0.305000	0.669700
O1041	O104	0.888500	0.897200	0.648100
