data_VAHVOR_clean_PM
_symmetry_space_group_name_H-M	'P1'
_cell_length_a	13.476600
_cell_length_b	14.410100
_cell_length_c	15.989800
_cell_angle_alpha	116.782000
_cell_angle_beta	96.766400
_cell_angle_gamma	90.000000
_symmetry_Int_Tables_number 1

loop_
_symmetry_equiv_pos_as_xyz
'x,y,z'

loop_
_atom_site_label
_atom_site_type_symbol
_atom_site_fract_x
_atom_site_fract_y
_atom_site_fract_z
Dy11	Dy1	0.036730	0.523290	0.633440
Dy21	Dy2	0.463270	0.889850	0.366560
Dy31	Dy3	0.963270	0.476710	0.366560
Dy41	Dy4	0.536730	0.110150	0.633440
H11	H1	0.283400	0.298100	0.529200
H21	H2	0.424300	0.112000	0.312000
H31	H3	0.230600	0.309500	0.283600
H41	H4	0.408300	0.054400	0.030600
H51	H5	0.457900	0.023100	0.886400
H61	H6	0.403200	0.313600	0.934200
H71	H7	0.343400	0.340100	0.073400
H81	H8	0.216600	0.768900	0.470800
H91	H9	0.075700	0.800000	0.688000
H101	H10	0.269400	0.025900	0.716400
H111	H11	0.091700	0.023800	0.969400
H121	H12	0.042100	0.136700	0.113600
H131	H13	0.096800	0.379400	0.065800
H141	H14	0.156600	0.266700	0.926600
H151	H15	0.716600	0.701900	0.470800
H161	H16	0.575700	0.888000	0.688000
H171	H17	0.769400	0.690500	0.716400
H181	H18	0.591700	0.945600	0.969400
H191	H19	0.542100	0.976900	0.113600
H201	H20	0.596800	0.686400	0.065800
H211	H21	0.656600	0.659900	0.926600
H221	H22	0.783400	0.231100	0.529200
H231	H23	0.924300	0.200000	0.312000
H241	H24	0.730600	0.974100	0.283600
H251	H25	0.908300	0.976200	0.030600
H261	H26	0.957900	0.863300	0.886400
H271	H27	0.903200	0.620600	0.934200
H281	H28	0.843400	0.733300	0.073400
C11	C1	0.240700	0.313500	0.411400
C21	C2	0.293400	0.273400	0.466400
C31	C3	0.360900	0.196900	0.429400
C41	C4	0.378800	0.162900	0.337000
C51	C5	0.330900	0.202700	0.282600
C61	C6	0.261900	0.280400	0.320400
C71	C7	0.416000	0.156400	0.493800
C81	C8	0.165300	0.393000	0.449800
C91	C9	0.375700	0.204000	0.069200
C101	C10	0.407400	0.106900	0.011800
C111	C11	0.438200	0.088800	0.925800
C121	C12	0.439800	0.165300	0.898200
C131	C13	0.404400	0.261300	0.953200
C141	C14	0.370500	0.277200	0.037600
C151	C15	0.478600	0.147800	0.806400
C161	C16	0.259300	0.902100	0.588600
C171	C17	0.206600	0.807000	0.533600
C181	C18	0.139100	0.767500	0.570600
C191	C19	0.121200	0.825900	0.663000
C201	C20	0.169100	0.920100	0.717400
C211	C21	0.238100	0.960000	0.679600
C221	C22	0.084000	0.662600	0.506200
C231	C23	0.334700	0.943200	0.550200
C241	C24	0.124300	0.134800	0.930800
C251	C25	0.092600	0.095100	0.988200
C261	C26	0.061800	0.163000	0.074200
C271	C27	0.060200	0.267100	0.101800
C281	C28	0.095600	0.308100	0.046800
C291	C29	0.129500	0.239600	0.962400
C301	C30	0.021400	0.341400	0.193600
C311	C31	0.759300	0.686500	0.588600
C321	C32	0.706600	0.726600	0.533600
C331	C33	0.639100	0.803100	0.570600
C341	C34	0.621200	0.837100	0.663000
C351	C35	0.669100	0.797300	0.717400
C361	C36	0.738100	0.719600	0.679600
C371	C37	0.584000	0.843600	0.506200
C381	C38	0.834700	0.607000	0.550200
C391	C39	0.624300	0.796000	0.930800
C401	C40	0.592600	0.893100	0.988200
C411	C41	0.561800	0.911200	0.074200
C421	C42	0.560200	0.834700	0.101800
C431	C43	0.595600	0.738700	0.046800
C441	C44	0.629500	0.722800	0.962400
C451	C45	0.521400	0.852200	0.193600
C461	C46	0.740700	0.097900	0.411400
C471	C47	0.793400	0.193000	0.466400
C481	C48	0.860900	0.232500	0.429400
C491	C49	0.878800	0.174100	0.337000
C501	C50	0.830900	0.079900	0.282600
C511	C51	0.761900	0.040000	0.320400
C521	C52	0.916000	0.337400	0.493800
C531	C53	0.665300	0.056800	0.449800
C541	C54	0.875700	0.865200	0.069200
C551	C55	0.907400	0.904900	0.011800
C561	C56	0.938200	0.837000	0.925800
C571	C57	0.939800	0.732900	0.898200
C581	C58	0.904400	0.691900	0.953200
C591	C59	0.870500	0.760400	0.037600
C601	C60	0.978600	0.658600	0.806400
N11	N1	0.358500	0.170500	0.190000
N21	N2	0.345100	0.233900	0.159200
N31	N3	0.141500	0.980500	0.810000
N41	N4	0.154900	0.074700	0.840800
N51	N5	0.641500	0.829500	0.810000
N61	N6	0.654900	0.766100	0.840800
N71	N7	0.858500	0.019500	0.190000
N81	N8	0.845100	0.925300	0.159200
O11	O1	0.125000	0.430400	0.398800
O21	O2	0.148900	0.417410	0.533020
O31	O3	0.433600	0.212680	0.579760
O41	O4	0.446700	0.065480	0.455360
O51	O5	0.516700	0.063900	0.762200
O61	O6	0.468000	0.214200	0.778800
O71	O7	0.375000	0.031600	0.601200
O81	O8	0.351100	0.884390	0.466980
O91	O9	0.066400	0.632920	0.420240
O101	O10	0.053300	0.610120	0.544640
O111	O11	0.983300	0.301700	0.237800
O121	O12	0.032000	0.435400	0.221200
O131	O13	0.875000	0.569600	0.601200
O141	O14	0.851100	0.582590	0.466980
O151	O15	0.566400	0.787320	0.420240
O161	O16	0.553300	0.934520	0.544640
O171	O17	0.483300	0.936100	0.237800
O181	O18	0.532000	0.785800	0.221200
O191	O19	0.625000	0.968400	0.398800
O201	O20	0.648900	0.115610	0.533020
O211	O21	0.933600	0.367080	0.579760
O221	O22	0.946700	0.389880	0.455360
O231	O23	0.016700	0.698300	0.762200
O241	O24	0.968000	0.564600	0.778800
