data_VAKBIU_clean_PM
_symmetry_space_group_name_H-M	'P1'
_cell_length_a	10.016000
_cell_length_b	21.934000
_cell_length_c	21.934000
_cell_angle_alpha	87.011800
_cell_angle_beta	76.801800
_cell_angle_gamma	76.801700
_symmetry_Int_Tables_number 1

loop_
_symmetry_equiv_pos_as_xyz
'x,y,z'

loop_
_atom_site_label
_atom_site_type_symbol
_atom_site_fract_x
_atom_site_fract_y
_atom_site_fract_z
Mn11	Mn1	0.975950	0.566370	0.528630
Mn21	Mn2	0.570950	0.933630	0.971380
Mn31	Mn3	0.504580	0.471380	0.066360
Mn41	Mn4	0.542330	0.028620	0.433630
Mn51	Mn5	0.024050	0.433630	0.471370
Mn61	Mn6	0.429050	0.066370	0.028620
Mn71	Mn7	0.495420	0.528620	0.933640
Mn81	Mn8	0.457680	0.971380	0.566360
H11	H1	0.243700	0.656900	0.262900
H21	H2	0.286600	0.708100	0.299500
H31	H3	0.390100	0.640800	0.284400
H41	H4	0.440700	0.685200	0.363800
H51	H5	0.519100	0.694300	0.455100
H61	H6	0.401700	0.662200	0.549800
H71	H7	0.213200	0.626800	0.612000
H81	H8	0.871400	0.617100	0.764100
H91	H9	0.731100	0.602700	0.860700
H101	H10	0.609000	0.466700	0.795500
H111	H11	0.740300	0.478700	0.696100
H121	H12	0.718500	0.513700	0.456700
H131	H13	0.702200	0.524300	0.529900
H141	H14	0.701200	0.582500	0.482900
H151	H15	0.663500	0.843100	0.237100
H161	H16	0.794200	0.791900	0.200500
H171	H17	0.815300	0.859200	0.215600
H181	H18	0.989700	0.814800	0.136200
H191	H19	0.168500	0.805700	0.044900
H201	H20	0.113700	0.837800	0.950200
H211	H21	0.952000	0.873200	0.888000
H221	H22	0.752600	0.882900	0.735900
H231	H23	0.694500	0.897300	0.639300
H241	H24	0.371200	0.033300	0.704500
H251	H25	0.415100	0.021300	0.803900
H261	H26	0.188900	0.986300	0.043300
H271	H27	0.256400	0.975700	0.970100
H281	H28	0.266600	0.917500	0.017100
H291	H29	0.506600	0.737100	0.156900
H301	H30	0.586100	0.700500	0.208100
H311	H31	0.674500	0.715600	0.140800
H321	H32	0.804500	0.636200	0.185200
H331	H33	0.974200	0.544900	0.194300
H341	H34	0.951500	0.450200	0.162200
H351	H35	0.825200	0.388000	0.126800
H361	H36	0.635500	0.235900	0.117100
H371	H37	0.591800	0.139300	0.102700
H381	H38	0.404500	0.204500	0.966700
H391	H39	0.436400	0.303900	0.978700
H401	H40	0.175200	0.543300	0.013700
H411	H41	0.232100	0.470100	0.024300
H421	H42	0.184100	0.517100	0.082500
H431	H43	0.900600	0.762900	0.343100
H441	H44	0.994700	0.799500	0.291900
H451	H45	0.030900	0.784400	0.359200
H461	H46	0.125900	0.863800	0.314800
H471	H47	0.213400	0.955100	0.305700
H481	H48	0.063900	0.049800	0.337800
H491	H49	0.840000	0.112000	0.373200
H501	H50	0.488500	0.264100	0.382900
H511	H51	0.333800	0.360700	0.397300
H521	H52	0.075700	0.295500	0.533300
H531	H53	0.219000	0.196100	0.521300
H541	H54	0.232200	0.956700	0.486300
H551	H55	0.226500	0.029900	0.475700
H561	H56	0.283700	0.982900	0.417500
H571	H57	0.756300	0.343100	0.737100
H581	H58	0.713400	0.291900	0.700500
H591	H59	0.609900	0.359200	0.715600
H601	H60	0.559300	0.314800	0.636200
H611	H61	0.480900	0.305700	0.544900
H621	H62	0.598300	0.337800	0.450200
H631	H63	0.786800	0.373200	0.388000
H641	H64	0.128600	0.382900	0.235900
H651	H65	0.268900	0.397300	0.139300
H661	H66	0.391000	0.533300	0.204500
H671	H67	0.259700	0.521300	0.303900
H681	H68	0.281500	0.486300	0.543300
H691	H69	0.297800	0.475700	0.470100
H701	H70	0.298800	0.417500	0.517100
H711	H71	0.336500	0.156900	0.762900
H721	H72	0.205800	0.208100	0.799500
H731	H73	0.184700	0.140800	0.784400
H741	H74	0.010300	0.185200	0.863800
H751	H75	0.831500	0.194300	0.955100
H761	H76	0.886300	0.162200	0.049800
H771	H77	0.048000	0.126800	0.112000
H781	H78	0.247400	0.117100	0.264100
H791	H79	0.305500	0.102700	0.360700
H801	H80	0.628800	0.966700	0.295500
H811	H81	0.584900	0.978700	0.196100
H821	H82	0.811100	0.013700	0.956700
H831	H83	0.743600	0.024300	0.029900
H841	H84	0.733400	0.082500	0.982900
H851	H85	0.493400	0.262900	0.843100
H861	H86	0.413900	0.299500	0.791900
H871	H87	0.325500	0.284400	0.859200
H881	H88	0.195500	0.363800	0.814800
H891	H89	0.025800	0.455100	0.805700
H901	H90	0.048500	0.549800	0.837800
H911	H91	0.174800	0.612000	0.873200
H921	H92	0.364500	0.764100	0.882900
H931	H93	0.408200	0.860700	0.897300
H941	H94	0.595500	0.795500	0.033300
H951	H95	0.563600	0.696100	0.021300
H961	H96	0.824800	0.456700	0.986300
H971	H97	0.767900	0.529900	0.975700
H981	H98	0.815900	0.482900	0.917500
H991	H99	0.099400	0.237100	0.656900
H1001	H100	0.005300	0.200500	0.708100
H1011	H101	0.969100	0.215600	0.640800
H1021	H102	0.874100	0.136200	0.685200
H1031	H103	0.786600	0.044900	0.694300
H1041	H104	0.936100	0.950200	0.662200
H1051	H105	0.160000	0.888000	0.626800
H1061	H106	0.511500	0.735900	0.617100
H1071	H107	0.666200	0.639300	0.602700
H1081	H108	0.924300	0.704500	0.466700
H1091	H109	0.781000	0.803900	0.478700
H1101	H110	0.767800	0.043300	0.513700
H1111	H111	0.773500	0.970100	0.524300
H1121	H112	0.716300	0.017100	0.582500
C11	C1	0.291400	0.663380	0.295620
C21	C2	0.277250	0.647150	0.404750
C31	C3	0.392150	0.671790	0.402710
C41	C4	0.438950	0.677350	0.457150
C51	C5	0.369730	0.658470	0.512870
C61	C6	0.250240	0.633320	0.516400
C71	C7	0.203810	0.625400	0.462380
C81	C8	0.177720	0.618640	0.577320
C91	C9	0.901310	0.561140	0.655640
C101	C10	0.819040	0.550390	0.719130
C111	C11	0.816560	0.586340	0.769140
C121	C12	0.733260	0.577150	0.826730
C131	C13	0.661690	0.498350	0.788670
C141	C14	0.740150	0.504800	0.729300
C151	C15	0.741400	0.537910	0.487690
C161	C16	0.750400	0.836620	0.204380
C171	C17	0.829150	0.852850	0.095250
C181	C18	0.966650	0.828210	0.097290
C191	C19	0.073450	0.822650	0.042850
C201	C20	0.041070	0.841530	0.987130
C211	C21	0.899960	0.866680	0.983600
C221	C22	0.791590	0.874600	0.037620
C231	C23	0.873680	0.881360	0.922680
C241	C24	0.618090	0.938860	0.844360
C251	C25	0.588560	0.949610	0.780870
C261	C26	0.672040	0.913660	0.730860
C271	C27	0.637140	0.922850	0.673270
C281	C28	0.448710	0.001650	0.711330
C291	C29	0.474250	0.995200	0.770700
C301	C30	0.267000	0.962090	0.012310
C311	C31	0.587020	0.704380	0.163380
C321	C32	0.682000	0.595250	0.147150
C331	C33	0.794860	0.597290	0.171790
C341	C34	0.896100	0.542850	0.177350
C351	C35	0.882600	0.487130	0.158470
C361	C36	0.766640	0.483600	0.133320
C371	C37	0.666190	0.537620	0.125400
C381	C38	0.755040	0.422680	0.118640
C391	C39	0.556950	0.344360	0.061140
C401	C40	0.538170	0.280870	0.050390
C411	C41	0.585700	0.230860	0.086340
C421	C42	0.559990	0.173270	0.077150
C431	C43	0.450360	0.211330	0.998350
C441	C44	0.469450	0.270700	0.004800
C451	C45	0.229090	0.512310	0.037910
C461	C46	0.954780	0.795620	0.336620
C471	C47	0.924400	0.904750	0.352850
C481	C48	0.063940	0.902710	0.328210
C491	C49	0.116300	0.957150	0.322650
C501	C50	0.028200	0.012870	0.341530
C511	C51	0.883560	0.016400	0.366680
C521	C52	0.829210	0.962380	0.374600
C531	C53	0.796360	0.077320	0.381360
C541	C54	0.462450	0.155640	0.438860
C551	C55	0.369430	0.219130	0.449610
C561	C56	0.402900	0.269140	0.413660
C571	C57	0.310410	0.326730	0.422850
C581	C58	0.160040	0.288670	0.501650
C591	C59	0.244950	0.229300	0.495200
C601	C60	0.279310	0.987690	0.462090
C611	C61	0.708600	0.336620	0.704380
C621	C62	0.722750	0.352850	0.595250
C631	C63	0.607850	0.328210	0.597290
C641	C64	0.561050	0.322650	0.542850
C651	C65	0.630270	0.341530	0.487130
C661	C66	0.749760	0.366680	0.483600
C671	C67	0.796190	0.374600	0.537620
C681	C68	0.822280	0.381360	0.422680
C691	C69	0.098690	0.438860	0.344360
C701	C70	0.180960	0.449610	0.280870
C711	C71	0.183440	0.413660	0.230860
C721	C72	0.266740	0.422850	0.173270
C731	C73	0.338310	0.501650	0.211330
C741	C74	0.259850	0.495200	0.270700
C751	C75	0.258600	0.462090	0.512310
C761	C76	0.249600	0.163380	0.795620
C771	C77	0.170850	0.147150	0.904750
C781	C78	0.033350	0.171790	0.902710
C791	C79	0.926550	0.177350	0.957150
C801	C80	0.958930	0.158470	0.012870
C811	C81	0.100040	0.133320	0.016400
C821	C82	0.208410	0.125400	0.962380
C831	C83	0.126320	0.118640	0.077320
C841	C84	0.381910	0.061140	0.155640
C851	C85	0.411440	0.050390	0.219130
C861	C86	0.327960	0.086340	0.269140
C871	C87	0.362860	0.077150	0.326730
C881	C88	0.551290	0.998350	0.288670
C891	C89	0.525750	0.004800	0.229300
C901	C90	0.733000	0.037910	0.987690
C911	C91	0.412980	0.295620	0.836620
C921	C92	0.318000	0.404750	0.852850
C931	C93	0.205140	0.402710	0.828210
C941	C94	0.103900	0.457150	0.822650
C951	C95	0.117400	0.512870	0.841530
C961	C96	0.233360	0.516400	0.866680
C971	C97	0.333810	0.462380	0.874600
C981	C98	0.244960	0.577320	0.881360
C991	C99	0.443050	0.655640	0.938860
C1001	C100	0.461830	0.719130	0.949610
C1011	C101	0.414300	0.769140	0.913660
C1021	C102	0.440010	0.826730	0.922850
C1031	C103	0.549640	0.788670	0.001650
C1041	C104	0.530550	0.729300	0.995200
C1051	C105	0.770910	0.487690	0.962090
C1061	C106	0.045220	0.204380	0.663380
C1071	C107	0.075600	0.095250	0.647150
C1081	C108	0.936060	0.097290	0.671790
C1091	C109	0.883700	0.042850	0.677350
C1101	C110	0.971800	0.987130	0.658470
C1111	C111	0.116440	0.983600	0.633320
C1121	C112	0.170790	0.037620	0.625400
C1131	C113	0.203640	0.922680	0.618640
C1141	C114	0.537550	0.844360	0.561140
C1151	C115	0.630570	0.780870	0.550390
C1161	C116	0.597100	0.730860	0.586340
C1171	C117	0.689590	0.673270	0.577150
C1181	C118	0.839960	0.711330	0.498350
C1191	C119	0.755050	0.770700	0.504800
C1201	C120	0.720690	0.012310	0.537910
N11	N1	0.067960	0.595310	0.588770
N21	N2	0.006770	0.586920	0.652540
N31	N3	0.655450	0.534070	0.837230
N41	N4	0.752040	0.904690	0.911230
N51	N5	0.746230	0.913080	0.847460
N61	N6	0.526750	0.965930	0.662770
N71	N7	0.656730	0.411230	0.095310
N81	N8	0.659310	0.347460	0.086920
N91	N9	0.492680	0.162770	0.034070
N101	N10	0.663270	0.088770	0.404690
N111	N11	0.593690	0.152540	0.413080
N121	N12	0.189520	0.337230	0.465930
N131	N13	0.932040	0.404690	0.411230
N141	N14	0.993230	0.413080	0.347460
N151	N15	0.344550	0.465930	0.162770
N161	N16	0.247960	0.095310	0.088770
N171	N17	0.253770	0.086920	0.152540
N181	N18	0.473250	0.034070	0.337230
N191	N19	0.343270	0.588770	0.904690
N201	N20	0.340690	0.652540	0.913080
N211	N21	0.507320	0.837230	0.965930
N221	N22	0.336730	0.911230	0.595310
N231	N23	0.406310	0.847460	0.586920
N241	N24	0.810480	0.662770	0.534070
O11	O1	0.224290	0.640200	0.353820
O21	O2	0.096080	0.600350	0.461690
O31	O3	0.861710	0.544410	0.607570
O41	O4	0.888610	0.528110	0.478470
O51	O5	0.718310	0.859800	0.146180
O61	O6	0.658120	0.899650	0.038310
O71	O7	0.513690	0.955590	0.892430
O81	O8	0.395190	0.971890	0.021530
O91	O9	0.578110	0.646180	0.140200
O101	O10	0.557770	0.538310	0.100350
O111	O11	0.469280	0.392430	0.044410
O121	O12	0.367080	0.521530	0.028110
O131	O13	0.864490	0.853820	0.359800
O141	O14	0.696430	0.961690	0.399650
O151	O15	0.406120	0.107570	0.455590
O161	O16	0.416720	0.978470	0.471890
O171	O17	0.775710	0.359800	0.646180
O181	O18	0.903920	0.399650	0.538310
O191	O19	0.138290	0.455590	0.392430
O201	O20	0.111390	0.471890	0.521530
O211	O21	0.281690	0.140200	0.853820
O221	O22	0.341880	0.100350	0.961690
O231	O23	0.486310	0.044410	0.107570
O241	O24	0.604810	0.028110	0.978470
O251	O25	0.421890	0.353820	0.859800
O261	O26	0.442230	0.461690	0.899650
O271	O27	0.530720	0.607570	0.955590
O281	O28	0.632920	0.478470	0.971890
O291	O29	0.135510	0.146180	0.640200
O301	O30	0.303570	0.038310	0.600350
O311	O31	0.593880	0.892430	0.544410
O321	O32	0.583280	0.021530	0.528110
