data_VAKREG_charged_PM
_symmetry_space_group_name_H-M	'P1'
_cell_length_a	9.851000
_cell_length_b	17.327300
_cell_length_c	17.734100
_cell_angle_alpha	98.946700
_cell_angle_beta	90.000000
_cell_angle_gamma	106.515000
_symmetry_Int_Tables_number 1

loop_
_symmetry_equiv_pos_as_xyz
'x,y,z'

loop_
_atom_site_label
_atom_site_type_symbol
_atom_site_fract_x
_atom_site_fract_y
_atom_site_fract_z
Co11	Co1	0.671530	0.701300	0.034400
Co21	Co2	0.970230	0.298700	0.465600
Co31	Co3	0.328470	0.298700	0.965600
Co41	Co4	0.029770	0.701300	0.534400
Co51	Co5	0.500000	0.500000	0.000000
Co61	Co6	0.000000	0.500000	0.500000
H11	H1	0.374800	0.504000	0.229600
H21	H2	0.266900	0.514000	0.344500
H31	H3	0.315800	0.750400	0.343200
H41	H4	0.428300	0.741800	0.229900
H51	H5	0.049300	0.598400	0.108700
H61	H6	0.801300	0.481200	0.921500
H71	H7	0.050200	0.889000	0.926700
H81	H8	0.819800	0.978000	0.085500
H91	H9	0.870800	0.496000	0.270400
H101	H10	0.752900	0.486000	0.155500
H111	H11	0.565400	0.249600	0.156800
H121	H12	0.686500	0.258200	0.270100
H131	H13	0.450900	0.401600	0.391300
H141	H14	0.320100	0.518800	0.578500
H151	H15	0.161200	0.111000	0.573300
H161	H16	0.841800	0.022000	0.414500
H171	H17	0.625200	0.496000	0.770400
H181	H18	0.733100	0.486000	0.655500
H191	H19	0.684200	0.249600	0.656800
H201	H20	0.571700	0.258200	0.770100
H211	H21	0.950700	0.401600	0.891300
H221	H22	0.198700	0.518800	0.078500
H231	H23	0.949800	0.111000	0.073300
H241	H24	0.180200	0.022000	0.914500
H251	H25	0.129200	0.504000	0.729600
H261	H26	0.247100	0.514000	0.844500
H271	H27	0.434600	0.750400	0.843200
H281	H28	0.313500	0.741800	0.729900
H291	H29	0.549100	0.598400	0.608700
H301	H30	0.679900	0.481200	0.421500
H311	H31	0.838800	0.889000	0.426700
H321	H32	0.158200	0.978000	0.585500
C11	C1	0.414500	0.622400	0.218300
C21	C2	0.364200	0.553800	0.252600
C31	C3	0.298200	0.559800	0.321100
C41	C4	0.278100	0.632200	0.355100
C51	C5	0.327900	0.700800	0.320500
C61	C6	0.395300	0.695600	0.252700
C71	C7	0.487800	0.616800	0.144900
C81	C8	0.199000	0.636600	0.427200
C91	C9	0.029900	0.559000	0.064900
C101	C10	0.910900	0.549000	0.017800
C111	C11	0.881300	0.488800	0.952800
C121	C12	0.817900	0.602600	0.035800
C131	C13	0.029900	0.933400	0.956100
C141	C14	0.922100	0.921200	0.007400
C151	C15	0.891900	0.986600	0.051200
C161	C16	0.838100	0.836000	0.014500
C171	C17	0.792100	0.377600	0.281700
C181	C18	0.810400	0.446200	0.247400
C191	C19	0.738400	0.440200	0.178900
C201	C20	0.645900	0.367800	0.144900
C211	C21	0.627100	0.299200	0.179500
C221	C22	0.699700	0.304400	0.247300
C231	C23	0.871000	0.383200	0.355100
C241	C24	0.562400	0.363400	0.072800
C251	C25	0.470900	0.441000	0.435100
C261	C26	0.361900	0.451000	0.482200
C271	C27	0.392500	0.511200	0.547200
C281	C28	0.215300	0.397400	0.464200
C291	C29	0.096500	0.066600	0.543900
C301	C30	0.000900	0.078800	0.492600
C311	C31	0.905300	0.013400	0.448800
C321	C32	0.002100	0.164000	0.485500
C331	C33	0.585500	0.377600	0.781700
C341	C34	0.635800	0.446200	0.747400
C351	C35	0.701800	0.440200	0.678900
C361	C36	0.721900	0.367800	0.644900
C371	C37	0.672100	0.299200	0.679500
C381	C38	0.604700	0.304400	0.747300
C391	C39	0.512200	0.383200	0.855100
C401	C40	0.801000	0.363400	0.572800
C411	C41	0.970100	0.441000	0.935100
C421	C42	0.089100	0.451000	0.982200
C431	C43	0.118700	0.511200	0.047200
C441	C44	0.182100	0.397400	0.964200
C451	C45	0.970100	0.066600	0.043900
C461	C46	0.077900	0.078800	0.992600
C471	C47	0.108100	0.013400	0.948800
C481	C48	0.161900	0.164000	0.985500
C491	C49	0.207900	0.622400	0.718300
C501	C50	0.189600	0.553800	0.752600
C511	C51	0.261600	0.559800	0.821100
C521	C52	0.354100	0.632200	0.855100
C531	C53	0.372900	0.700800	0.820500
C541	C54	0.300300	0.695600	0.752700
C551	C55	0.129000	0.616800	0.644900
C561	C56	0.437600	0.636600	0.927200
C571	C57	0.529100	0.559000	0.564900
C581	C58	0.638100	0.549000	0.517800
C591	C59	0.607500	0.488800	0.452800
C601	C60	0.784700	0.602600	0.535800
C611	C61	0.903500	0.933400	0.456100
C621	C62	0.999100	0.921200	0.507400
C631	C63	0.094700	0.986600	0.551200
C641	C64	0.997900	0.836000	0.514500
O11	O1	0.549200	0.683600	0.122500
O21	O2	0.484510	0.547020	0.111400
O31	O3	0.162200	0.700000	0.448100
O41	O4	0.174000	0.575600	0.460800
O51	O5	0.849100	0.661800	0.088500
O61	O6	0.705530	0.589860	0.991900
O71	O7	0.848180	0.776960	0.967200
O81	O8	0.753770	0.825140	0.068300
O91	O9	0.865600	0.316400	0.377500
O101	O10	0.937490	0.452980	0.388600
O111	O11	0.462200	0.300000	0.051900
O121	O12	0.598400	0.424400	0.039200
O131	O13	0.187300	0.338200	0.411500
O141	O14	0.115670	0.410140	0.508100
O151	O15	0.071220	0.223040	0.532800
O161	O16	0.928630	0.174860	0.431700
O171	O17	0.450800	0.316400	0.877500
O181	O18	0.515490	0.452980	0.888600
O191	O19	0.837800	0.300000	0.551900
O201	O20	0.826000	0.424400	0.539200
O211	O21	0.150900	0.338200	0.911500
O221	O22	0.294470	0.410140	0.008100
O231	O23	0.151820	0.223040	0.032800
O241	O24	0.246230	0.174860	0.931700
O251	O25	0.134400	0.683600	0.622500
O261	O26	0.062510	0.547020	0.611400
O271	O27	0.537800	0.700000	0.948100
O281	O28	0.401600	0.575600	0.960800
O291	O29	0.812700	0.661800	0.588500
O301	O30	0.884330	0.589860	0.491900
O311	O31	0.928780	0.776960	0.467200
O321	O32	0.071370	0.825140	0.568300
H331	H33	0.476000	0.963400	0.302500
H341	H34	0.416600	0.875400	0.290700
H351	H35	0.654300	0.908800	0.276400
H361	H36	0.607500	0.863800	0.346400
H371	H37	0.671800	0.959000	0.359100
H381	H38	0.309800	0.929200	0.389200
H391	H39	0.456300	0.970000	0.433800
H401	H40	0.392100	0.875000	0.421100
C651	C65	0.613200	0.912400	0.325000
C661	C66	0.401700	0.923400	0.399000
N11	N1	0.469300	0.918600	0.323300
H411	H41	0.512600	0.036600	0.197500
H421	H42	0.541200	0.124600	0.209300
H431	H43	0.745500	0.091200	0.223600
H441	H44	0.743700	0.136200	0.153600
H451	H45	0.712800	0.041000	0.140900
H461	H46	0.380600	0.070800	0.110800
H471	H47	0.486300	0.030000	0.066200
H481	H48	0.517100	0.125000	0.078900
C671	C67	0.700800	0.087600	0.175000
C681	C68	0.478300	0.076600	0.101000
N21	N2	0.550700	0.081400	0.176700
H491	H49	0.524000	0.036600	0.697500
H501	H50	0.583400	0.124600	0.709300
H511	H51	0.345700	0.091200	0.723600
H521	H52	0.392500	0.136200	0.653600
H531	H53	0.328200	0.041000	0.640900
H541	H54	0.690200	0.070800	0.610800
H551	H55	0.543700	0.030000	0.566200
H561	H56	0.607900	0.125000	0.578900
C691	C69	0.386800	0.087600	0.675000
C701	C70	0.598300	0.076600	0.601000
N31	N3	0.530700	0.081400	0.676700
H571	H57	0.487400	0.963400	0.802500
H581	H58	0.458800	0.875400	0.790700
H591	H59	0.254500	0.908800	0.776400
H601	H60	0.256300	0.863800	0.846400
H611	H61	0.287200	0.959000	0.859100
H621	H62	0.619400	0.929200	0.889200
H631	H63	0.513700	0.970000	0.933800
H641	H64	0.482900	0.875000	0.921100
C711	C71	0.299200	0.912400	0.825000
C721	C72	0.521700	0.923400	0.899000
N41	N4	0.449300	0.918600	0.823300
