data_VALXOY_clean_PM
_symmetry_space_group_name_H-M	'P1'
_cell_length_a	21.969200
_cell_length_b	21.969200
_cell_length_c	21.969200
_cell_angle_alpha	90.000000
_cell_angle_beta	90.000000
_cell_angle_gamma	90.000000
_symmetry_Int_Tables_number 1

loop_
_symmetry_equiv_pos_as_xyz
'x,y,z'

loop_
_atom_site_label
_atom_site_type_symbol
_atom_site_fract_x
_atom_site_fract_y
_atom_site_fract_z
Mg11	Mg1	0.678260	0.259650	0.193530
C11	C1	0.791100	0.293700	0.125400
C21	C2	0.798900	0.286600	0.010200
H11	H1	0.757000	0.280800	0.008200
C31	C3	0.823900	0.295200	0.066700
C41	C4	0.831200	0.285900	0.955400
C51	C5	0.802200	0.280000	0.893200
C61	C6	0.921700	0.305400	0.015400
C71	C7	0.888400	0.303200	0.066800
H21	H2	0.908300	0.307000	0.104000
C81	C8	0.891700	0.299400	0.959000
H31	H3	0.913800	0.304700	0.923300
N11	N1	0.984400	0.308700	0.024200
O11	O1	0.750100	0.259400	0.893440
O21	O2	0.734900	0.276870	0.123870
O31	O3	0.835900	0.296200	0.849700
O41	O4	0.820000	0.309610	0.171800
Mg21	Mg2	0.321740	0.740350	0.193530
C91	C9	0.208900	0.706300	0.125400
C101	C10	0.201100	0.713400	0.010200
H41	H4	0.243000	0.719200	0.008200
C111	C11	0.176100	0.704800	0.066700
C121	C12	0.168800	0.714100	0.955400
C131	C13	0.197800	0.720000	0.893200
C141	C14	0.078300	0.694600	0.015400
C151	C15	0.111600	0.696800	0.066800
H51	H5	0.091700	0.693000	0.104000
C161	C16	0.108300	0.700600	0.959000
H61	H6	0.086200	0.695300	0.923300
N21	N2	0.015600	0.691300	0.024200
O51	O5	0.249900	0.740600	0.893440
O61	O6	0.265100	0.723130	0.123870
O71	O7	0.164100	0.703800	0.849700
O81	O8	0.180000	0.690390	0.171800
Mg31	Mg3	0.321740	0.259650	0.806470
C171	C17	0.208900	0.293700	0.874600
C181	C18	0.201100	0.286600	0.989800
H71	H7	0.243000	0.280800	0.991800
C191	C19	0.176100	0.295200	0.933300
C201	C20	0.168800	0.285900	0.044600
C211	C21	0.197800	0.280000	0.106800
C221	C22	0.078300	0.305400	0.984600
C231	C23	0.111600	0.303200	0.933200
H81	H8	0.091700	0.307000	0.896000
C241	C24	0.108300	0.299400	0.041000
H91	H9	0.086200	0.304700	0.076700
N31	N3	0.015600	0.308700	0.975800
O91	O9	0.249900	0.259400	0.106560
O101	O10	0.265100	0.276870	0.876130
O111	O11	0.164100	0.296200	0.150300
O121	O12	0.180000	0.309610	0.828200
Mg41	Mg4	0.678260	0.740350	0.806470
C251	C25	0.791100	0.706300	0.874600
C261	C26	0.798900	0.713400	0.989800
H101	H10	0.757000	0.719200	0.991800
C271	C27	0.823900	0.704800	0.933300
C281	C28	0.831200	0.714100	0.044600
C291	C29	0.802200	0.720000	0.106800
C301	C30	0.921700	0.694600	0.984600
C311	C31	0.888400	0.696800	0.933200
H111	H11	0.908300	0.693000	0.896000
C321	C32	0.891700	0.700600	0.041000
H121	H12	0.913800	0.695300	0.076700
N41	N4	0.984400	0.691300	0.975800
O131	O13	0.750100	0.740600	0.106560
O141	O14	0.734900	0.723130	0.876130
O151	O15	0.835900	0.703800	0.150300
O161	O16	0.820000	0.690390	0.828200
Mg51	Mg5	0.193530	0.678260	0.259650
C331	C33	0.125400	0.791100	0.293700
C341	C34	0.010200	0.798900	0.286600
H131	H13	0.008200	0.757000	0.280800
C351	C35	0.066700	0.823900	0.295200
C361	C36	0.955400	0.831200	0.285900
C371	C37	0.893200	0.802200	0.280000
C381	C38	0.015400	0.921700	0.305400
C391	C39	0.066800	0.888400	0.303200
H141	H14	0.104000	0.908300	0.307000
C401	C40	0.959000	0.891700	0.299400
H151	H15	0.923300	0.913800	0.304700
N51	N5	0.024200	0.984400	0.308700
O171	O17	0.893440	0.750100	0.259400
O181	O18	0.123870	0.734900	0.276870
O191	O19	0.849700	0.835900	0.296200
O201	O20	0.171800	0.820000	0.309610
Mg61	Mg6	0.193530	0.321740	0.740350
C411	C41	0.125400	0.208900	0.706300
C421	C42	0.010200	0.201100	0.713400
H161	H16	0.008200	0.243000	0.719200
C431	C43	0.066700	0.176100	0.704800
C441	C44	0.955400	0.168800	0.714100
C451	C45	0.893200	0.197800	0.720000
C461	C46	0.015400	0.078300	0.694600
C471	C47	0.066800	0.111600	0.696800
H171	H17	0.104000	0.091700	0.693000
C481	C48	0.959000	0.108300	0.700600
H181	H18	0.923300	0.086200	0.695300
N61	N6	0.024200	0.015600	0.691300
O211	O21	0.893440	0.249900	0.740600
O221	O22	0.123870	0.265100	0.723130
O231	O23	0.849700	0.164100	0.703800
O241	O24	0.171800	0.180000	0.690390
Mg71	Mg7	0.806470	0.321740	0.259650
C491	C49	0.874600	0.208900	0.293700
C501	C50	0.989800	0.201100	0.286600
H191	H19	0.991800	0.243000	0.280800
C511	C51	0.933300	0.176100	0.295200
C521	C52	0.044600	0.168800	0.285900
C531	C53	0.106800	0.197800	0.280000
C541	C54	0.984600	0.078300	0.305400
C551	C55	0.933200	0.111600	0.303200
H201	H20	0.896000	0.091700	0.307000
C561	C56	0.041000	0.108300	0.299400
H211	H21	0.076700	0.086200	0.304700
N71	N7	0.975800	0.015600	0.308700
O251	O25	0.106560	0.249900	0.259400
O261	O26	0.876130	0.265100	0.276870
O271	O27	0.150300	0.164100	0.296200
O281	O28	0.828200	0.180000	0.309610
Mg81	Mg8	0.806470	0.678260	0.740350
C571	C57	0.874600	0.791100	0.706300
C581	C58	0.989800	0.798900	0.713400
H221	H22	0.991800	0.757000	0.719200
C591	C59	0.933300	0.823900	0.704800
C601	C60	0.044600	0.831200	0.714100
C611	C61	0.106800	0.802200	0.720000
C621	C62	0.984600	0.921700	0.694600
C631	C63	0.933200	0.888400	0.696800
H231	H23	0.896000	0.908300	0.693000
C641	C64	0.041000	0.891700	0.700600
H241	H24	0.076700	0.913800	0.695300
N81	N8	0.975800	0.984400	0.691300
O291	O29	0.106560	0.750100	0.740600
O301	O30	0.876130	0.734900	0.723130
O311	O31	0.150300	0.835900	0.703800
O321	O32	0.828200	0.820000	0.690390
Mg91	Mg9	0.259650	0.193530	0.678260
C651	C65	0.293700	0.125400	0.791100
C661	C66	0.286600	0.010200	0.798900
H251	H25	0.280800	0.008200	0.757000
C671	C67	0.295200	0.066700	0.823900
C681	C68	0.285900	0.955400	0.831200
C691	C69	0.280000	0.893200	0.802200
C701	C70	0.305400	0.015400	0.921700
C711	C71	0.303200	0.066800	0.888400
H261	H26	0.307000	0.104000	0.908300
C721	C72	0.299400	0.959000	0.891700
H271	H27	0.304700	0.923300	0.913800
N91	N9	0.308700	0.024200	0.984400
O331	O33	0.259400	0.893440	0.750100
O341	O34	0.276870	0.123870	0.734900
O351	O35	0.296200	0.849700	0.835900
O361	O36	0.309610	0.171800	0.820000
Mg101	Mg10	0.740350	0.193530	0.321740
C731	C73	0.706300	0.125400	0.208900
C741	C74	0.713400	0.010200	0.201100
H281	H28	0.719200	0.008200	0.243000
C751	C75	0.704800	0.066700	0.176100
C761	C76	0.714100	0.955400	0.168800
C771	C77	0.720000	0.893200	0.197800
C781	C78	0.694600	0.015400	0.078300
C791	C79	0.696800	0.066800	0.111600
H291	H29	0.693000	0.104000	0.091700
C801	C80	0.700600	0.959000	0.108300
H301	H30	0.695300	0.923300	0.086200
N101	N10	0.691300	0.024200	0.015600
O371	O37	0.740600	0.893440	0.249900
O381	O38	0.723130	0.123870	0.265100
O391	O39	0.703800	0.849700	0.164100
O401	O40	0.690390	0.171800	0.180000
Mg111	Mg11	0.259650	0.806470	0.321740
C811	C81	0.293700	0.874600	0.208900
C821	C82	0.286600	0.989800	0.201100
H311	H31	0.280800	0.991800	0.243000
C831	C83	0.295200	0.933300	0.176100
C841	C84	0.285900	0.044600	0.168800
C851	C85	0.280000	0.106800	0.197800
C861	C86	0.305400	0.984600	0.078300
C871	C87	0.303200	0.933200	0.111600
H321	H32	0.307000	0.896000	0.091700
C881	C88	0.299400	0.041000	0.108300
H331	H33	0.304700	0.076700	0.086200
N111	N11	0.308700	0.975800	0.015600
O411	O41	0.259400	0.106560	0.249900
O421	O42	0.276870	0.876130	0.265100
O431	O43	0.296200	0.150300	0.164100
O441	O44	0.309610	0.828200	0.180000
Mg121	Mg12	0.740350	0.806470	0.678260
C891	C89	0.706300	0.874600	0.791100
C901	C90	0.713400	0.989800	0.798900
H341	H34	0.719200	0.991800	0.757000
C911	C91	0.704800	0.933300	0.823900
C921	C92	0.714100	0.044600	0.831200
C931	C93	0.720000	0.106800	0.802200
C941	C94	0.694600	0.984600	0.921700
C951	C95	0.696800	0.933200	0.888400
H351	H35	0.693000	0.896000	0.908300
C961	C96	0.700600	0.041000	0.891700
H361	H36	0.695300	0.076700	0.913800
N121	N12	0.691300	0.975800	0.984400
O451	O45	0.740600	0.106560	0.750100
O461	O46	0.723130	0.876130	0.734900
O471	O47	0.703800	0.150300	0.835900
O481	O48	0.690390	0.828200	0.820000
Mg131	Mg13	0.759650	0.178260	0.693530
C971	C97	0.793700	0.291100	0.625400
C981	C98	0.786600	0.298900	0.510200
H371	H37	0.780800	0.257000	0.508200
C991	C99	0.795200	0.323900	0.566700
C1001	C100	0.785900	0.331200	0.455400
C1011	C101	0.780000	0.302200	0.393200
C1021	C102	0.805400	0.421700	0.515400
C1031	C103	0.803200	0.388400	0.566800
H381	H38	0.807000	0.408300	0.604000
C1041	C104	0.799400	0.391700	0.459000
H391	H39	0.804700	0.413800	0.423300
N131	N13	0.808700	0.484400	0.524200
O491	O49	0.759400	0.250100	0.393440
O501	O50	0.776870	0.234900	0.623870
O511	O51	0.796200	0.335900	0.349700
O521	O52	0.809610	0.320000	0.671800
Mg141	Mg14	0.240350	0.821740	0.693530
C1051	C105	0.206300	0.708900	0.625400
C1061	C106	0.213400	0.701100	0.510200
H401	H40	0.219200	0.743000	0.508200
C1071	C107	0.204800	0.676100	0.566700
C1081	C108	0.214100	0.668800	0.455400
C1091	C109	0.220000	0.697800	0.393200
C1101	C110	0.194600	0.578300	0.515400
C1111	C111	0.196800	0.611600	0.566800
H411	H41	0.193000	0.591700	0.604000
C1121	C112	0.200600	0.608300	0.459000
H421	H42	0.195300	0.586200	0.423300
N141	N14	0.191300	0.515600	0.524200
O531	O53	0.240600	0.749900	0.393440
O541	O54	0.223130	0.765100	0.623870
O551	O55	0.203800	0.664100	0.349700
O561	O56	0.190390	0.680000	0.671800
Mg151	Mg15	0.759650	0.821740	0.306470
C1131	C113	0.793700	0.708900	0.374600
C1141	C114	0.786600	0.701100	0.489800
H431	H43	0.780800	0.743000	0.491800
C1151	C115	0.795200	0.676100	0.433300
C1161	C116	0.785900	0.668800	0.544600
C1171	C117	0.780000	0.697800	0.606800
C1181	C118	0.805400	0.578300	0.484600
C1191	C119	0.803200	0.611600	0.433200
H441	H44	0.807000	0.591700	0.396000
C1201	C120	0.799400	0.608300	0.541000
H451	H45	0.804700	0.586200	0.576700
N151	N15	0.808700	0.515600	0.475800
O571	O57	0.759400	0.749900	0.606560
O581	O58	0.776870	0.765100	0.376130
O591	O59	0.796200	0.664100	0.650300
O601	O60	0.809610	0.680000	0.328200
Mg161	Mg16	0.240350	0.178260	0.306470
C1211	C121	0.206300	0.291100	0.374600
C1221	C122	0.213400	0.298900	0.489800
H461	H46	0.219200	0.257000	0.491800
C1231	C123	0.204800	0.323900	0.433300
C1241	C124	0.214100	0.331200	0.544600
C1251	C125	0.220000	0.302200	0.606800
C1261	C126	0.194600	0.421700	0.484600
C1271	C127	0.196800	0.388400	0.433200
H471	H47	0.193000	0.408300	0.396000
C1281	C128	0.200600	0.391700	0.541000
H481	H48	0.195300	0.413800	0.576700
N161	N16	0.191300	0.484400	0.475800
O611	O61	0.240600	0.250100	0.606560
O621	O62	0.223130	0.234900	0.376130
O631	O63	0.203800	0.335900	0.650300
O641	O64	0.190390	0.320000	0.328200
Mg171	Mg17	0.178260	0.693530	0.759650
C1291	C129	0.291100	0.625400	0.793700
C1301	C130	0.298900	0.510200	0.786600
H491	H49	0.257000	0.508200	0.780800
C1311	C131	0.323900	0.566700	0.795200
C1321	C132	0.331200	0.455400	0.785900
C1331	C133	0.302200	0.393200	0.780000
C1341	C134	0.421700	0.515400	0.805400
C1351	C135	0.388400	0.566800	0.803200
H501	H50	0.408300	0.604000	0.807000
C1361	C136	0.391700	0.459000	0.799400
H511	H51	0.413800	0.423300	0.804700
N171	N17	0.484400	0.524200	0.808700
O651	O65	0.250100	0.393440	0.759400
O661	O66	0.234900	0.623870	0.776870
O671	O67	0.335900	0.349700	0.796200
O681	O68	0.320000	0.671800	0.809610
Mg181	Mg18	0.821740	0.693530	0.240350
C1371	C137	0.708900	0.625400	0.206300
C1381	C138	0.701100	0.510200	0.213400
H521	H52	0.743000	0.508200	0.219200
C1391	C139	0.676100	0.566700	0.204800
C1401	C140	0.668800	0.455400	0.214100
C1411	C141	0.697800	0.393200	0.220000
C1421	C142	0.578300	0.515400	0.194600
C1431	C143	0.611600	0.566800	0.196800
H531	H53	0.591700	0.604000	0.193000
C1441	C144	0.608300	0.459000	0.200600
H541	H54	0.586200	0.423300	0.195300
N181	N18	0.515600	0.524200	0.191300
O691	O69	0.749900	0.393440	0.240600
O701	O70	0.765100	0.623870	0.223130
O711	O71	0.664100	0.349700	0.203800
O721	O72	0.680000	0.671800	0.190390
Mg191	Mg19	0.821740	0.306470	0.759650
C1451	C145	0.708900	0.374600	0.793700
C1461	C146	0.701100	0.489800	0.786600
H551	H55	0.743000	0.491800	0.780800
C1471	C147	0.676100	0.433300	0.795200
C1481	C148	0.668800	0.544600	0.785900
C1491	C149	0.697800	0.606800	0.780000
C1501	C150	0.578300	0.484600	0.805400
C1511	C151	0.611600	0.433200	0.803200
H561	H56	0.591700	0.396000	0.807000
C1521	C152	0.608300	0.541000	0.799400
H571	H57	0.586200	0.576700	0.804700
N191	N19	0.515600	0.475800	0.808700
O731	O73	0.749900	0.606560	0.759400
O741	O74	0.765100	0.376130	0.776870
O751	O75	0.664100	0.650300	0.796200
O761	O76	0.680000	0.328200	0.809610
Mg201	Mg20	0.178260	0.306470	0.240350
C1531	C153	0.291100	0.374600	0.206300
C1541	C154	0.298900	0.489800	0.213400
H581	H58	0.257000	0.491800	0.219200
C1551	C155	0.323900	0.433300	0.204800
C1561	C156	0.331200	0.544600	0.214100
C1571	C157	0.302200	0.606800	0.220000
C1581	C158	0.421700	0.484600	0.194600
C1591	C159	0.388400	0.433200	0.196800
H591	H59	0.408300	0.396000	0.193000
C1601	C160	0.391700	0.541000	0.200600
H601	H60	0.413800	0.576700	0.195300
N201	N20	0.484400	0.475800	0.191300
O771	O77	0.250100	0.606560	0.240600
O781	O78	0.234900	0.376130	0.223130
O791	O79	0.335900	0.650300	0.203800
O801	O80	0.320000	0.328200	0.190390
Mg211	Mg21	0.693530	0.759650	0.178260
C1611	C161	0.625400	0.793700	0.291100
C1621	C162	0.510200	0.786600	0.298900
H611	H61	0.508200	0.780800	0.257000
C1631	C163	0.566700	0.795200	0.323900
C1641	C164	0.455400	0.785900	0.331200
C1651	C165	0.393200	0.780000	0.302200
C1661	C166	0.515400	0.805400	0.421700
C1671	C167	0.566800	0.803200	0.388400
H621	H62	0.604000	0.807000	0.408300
C1681	C168	0.459000	0.799400	0.391700
H631	H63	0.423300	0.804700	0.413800
N211	N21	0.524200	0.808700	0.484400
O811	O81	0.393440	0.759400	0.250100
O821	O82	0.623870	0.776870	0.234900
O831	O83	0.349700	0.796200	0.335900
O841	O84	0.671800	0.809610	0.320000
Mg221	Mg22	0.693530	0.240350	0.821740
C1691	C169	0.625400	0.206300	0.708900
C1701	C170	0.510200	0.213400	0.701100
H641	H64	0.508200	0.219200	0.743000
C1711	C171	0.566700	0.204800	0.676100
C1721	C172	0.455400	0.214100	0.668800
C1731	C173	0.393200	0.220000	0.697800
C1741	C174	0.515400	0.194600	0.578300
C1751	C175	0.566800	0.196800	0.611600
H651	H65	0.604000	0.193000	0.591700
C1761	C176	0.459000	0.200600	0.608300
H661	H66	0.423300	0.195300	0.586200
N221	N22	0.524200	0.191300	0.515600
O851	O85	0.393440	0.240600	0.749900
O861	O86	0.623870	0.223130	0.765100
O871	O87	0.349700	0.203800	0.664100
O881	O88	0.671800	0.190390	0.680000
Mg231	Mg23	0.306470	0.759650	0.821740
C1771	C177	0.374600	0.793700	0.708900
C1781	C178	0.489800	0.786600	0.701100
H671	H67	0.491800	0.780800	0.743000
C1791	C179	0.433300	0.795200	0.676100
C1801	C180	0.544600	0.785900	0.668800
C1811	C181	0.606800	0.780000	0.697800
C1821	C182	0.484600	0.805400	0.578300
C1831	C183	0.433200	0.803200	0.611600
H681	H68	0.396000	0.807000	0.591700
C1841	C184	0.541000	0.799400	0.608300
H691	H69	0.576700	0.804700	0.586200
N231	N23	0.475800	0.808700	0.515600
O891	O89	0.606560	0.759400	0.749900
O901	O90	0.376130	0.776870	0.765100
O911	O91	0.650300	0.796200	0.664100
O921	O92	0.328200	0.809610	0.680000
Mg241	Mg24	0.306470	0.240350	0.178260
C1851	C185	0.374600	0.206300	0.291100
C1861	C186	0.489800	0.213400	0.298900
H701	H70	0.491800	0.219200	0.257000
C1871	C187	0.433300	0.204800	0.323900
C1881	C188	0.544600	0.214100	0.331200
C1891	C189	0.606800	0.220000	0.302200
C1901	C190	0.484600	0.194600	0.421700
C1911	C191	0.433200	0.196800	0.388400
H711	H71	0.396000	0.193000	0.408300
C1921	C192	0.541000	0.200600	0.391700
H721	H72	0.576700	0.195300	0.413800
N241	N24	0.475800	0.191300	0.484400
O931	O93	0.606560	0.240600	0.250100
O941	O94	0.376130	0.223130	0.234900
O951	O95	0.650300	0.203800	0.335900
O961	O96	0.328200	0.190390	0.320000
O971	O97	0.740400	0.259600	0.259600
O981	O98	0.259600	0.740400	0.259600
O991	O99	0.259600	0.259600	0.740400
O1001	O100	0.740400	0.740400	0.740400
O1011	O101	0.759600	0.240400	0.759600
O1021	O102	0.240400	0.759600	0.759600
O1031	O103	0.759600	0.759600	0.240400
O1041	O104	0.240400	0.240400	0.240400
