data_VALXIS_clean_PM
_symmetry_space_group_name_H-M	'P1'
_cell_length_a	22.115200
_cell_length_b	22.115200
_cell_length_c	22.115200
_cell_angle_alpha	90.000000
_cell_angle_beta	90.000000
_cell_angle_gamma	90.000000
_symmetry_Int_Tables_number 1

loop_
_symmetry_equiv_pos_as_xyz
'x,y,z'

loop_
_atom_site_label
_atom_site_type_symbol
_atom_site_fract_x
_atom_site_fract_y
_atom_site_fract_z
Ni11	Ni1	0.239450	0.306660	0.177720
C11	C1	0.221400	0.604780	0.302590
C21	C2	0.207400	0.374070	0.291700
C31	C3	0.202400	0.431230	0.388800
H11	H1	0.198500	0.394200	0.408300
C41	C4	0.210000	0.539660	0.393090
H21	H2	0.212000	0.574900	0.415900
C51	C5	0.208200	0.433810	0.325900
C61	C6	0.202700	0.484200	0.421460
C71	C7	0.214100	0.542360	0.331220
C81	C8	0.215300	0.489780	0.297650
H31	H3	0.220800	0.491600	0.256000
O11	O1	0.190030	0.329880	0.321300
O21	O2	0.205780	0.648170	0.335430
O31	O3	0.242090	0.605920	0.250070
O41	O4	0.222760	0.376450	0.238120
N11	N1	0.201200	0.477280	0.486780
Ni21	Ni2	0.760550	0.693340	0.177720
C91	C9	0.778600	0.395220	0.302590
C101	C10	0.792600	0.625930	0.291700
C111	C11	0.797600	0.568770	0.388800
H41	H4	0.801500	0.605800	0.408300
C121	C12	0.790000	0.460340	0.393090
H51	H5	0.788000	0.425100	0.415900
C131	C13	0.791800	0.566190	0.325900
C141	C14	0.797300	0.515800	0.421460
C151	C15	0.785900	0.457640	0.331220
C161	C16	0.784700	0.510220	0.297650
H61	H6	0.779200	0.508400	0.256000
O51	O5	0.809970	0.670120	0.321300
O61	O6	0.794220	0.351830	0.335430
O71	O7	0.757910	0.394080	0.250070
O81	O8	0.777240	0.623550	0.238120
N21	N2	0.798800	0.522720	0.486780
Ni31	Ni3	0.760550	0.306660	0.822280
C171	C17	0.778600	0.604780	0.697410
C181	C18	0.792600	0.374070	0.708300
C191	C19	0.797600	0.431230	0.611200
H71	H7	0.801500	0.394200	0.591700
C201	C20	0.790000	0.539660	0.606910
H81	H8	0.788000	0.574900	0.584100
C211	C21	0.791800	0.433810	0.674100
C221	C22	0.797300	0.484200	0.578540
C231	C23	0.785900	0.542360	0.668780
C241	C24	0.784700	0.489780	0.702350
H91	H9	0.779200	0.491600	0.744000
O91	O9	0.809970	0.329880	0.678700
O101	O10	0.794220	0.648170	0.664570
O111	O11	0.757910	0.605920	0.749930
O121	O12	0.777240	0.376450	0.761880
N31	N3	0.798800	0.477280	0.513220
Ni41	Ni4	0.239450	0.693340	0.822280
C251	C25	0.221400	0.395220	0.697410
C261	C26	0.207400	0.625930	0.708300
C271	C27	0.202400	0.568770	0.611200
H101	H10	0.198500	0.605800	0.591700
C281	C28	0.210000	0.460340	0.606910
H111	H11	0.212000	0.425100	0.584100
C291	C29	0.208200	0.566190	0.674100
C301	C30	0.202700	0.515800	0.578540
C311	C31	0.214100	0.457640	0.668780
C321	C32	0.215300	0.510220	0.702350
H121	H12	0.220800	0.508400	0.744000
O131	O13	0.190030	0.670120	0.678700
O141	O14	0.205780	0.351830	0.664570
O151	O15	0.242090	0.394080	0.749930
O161	O16	0.222760	0.623550	0.761880
N41	N4	0.201200	0.522720	0.513220
Ni51	Ni5	0.177720	0.239450	0.306660
C331	C33	0.302590	0.221400	0.604780
C341	C34	0.291700	0.207400	0.374070
C351	C35	0.388800	0.202400	0.431230
H131	H13	0.408300	0.198500	0.394200
C361	C36	0.393090	0.210000	0.539660
H141	H14	0.415900	0.212000	0.574900
C371	C37	0.325900	0.208200	0.433810
C381	C38	0.421460	0.202700	0.484200
C391	C39	0.331220	0.214100	0.542360
C401	C40	0.297650	0.215300	0.489780
H151	H15	0.256000	0.220800	0.491600
O171	O17	0.321300	0.190030	0.329880
O181	O18	0.335430	0.205780	0.648170
O191	O19	0.250070	0.242090	0.605920
O201	O20	0.238120	0.222760	0.376450
N51	N5	0.486780	0.201200	0.477280
Ni61	Ni6	0.177720	0.760550	0.693340
C411	C41	0.302590	0.778600	0.395220
C421	C42	0.291700	0.792600	0.625930
C431	C43	0.388800	0.797600	0.568770
H161	H16	0.408300	0.801500	0.605800
C441	C44	0.393090	0.790000	0.460340
H171	H17	0.415900	0.788000	0.425100
C451	C45	0.325900	0.791800	0.566190
C461	C46	0.421460	0.797300	0.515800
C471	C47	0.331220	0.785900	0.457640
C481	C48	0.297650	0.784700	0.510220
H181	H18	0.256000	0.779200	0.508400
O211	O21	0.321300	0.809970	0.670120
O221	O22	0.335430	0.794220	0.351830
O231	O23	0.250070	0.757910	0.394080
O241	O24	0.238120	0.777240	0.623550
N61	N6	0.486780	0.798800	0.522720
Ni71	Ni7	0.822280	0.760550	0.306660
C491	C49	0.697410	0.778600	0.604780
C501	C50	0.708300	0.792600	0.374070
C511	C51	0.611200	0.797600	0.431230
H191	H19	0.591700	0.801500	0.394200
C521	C52	0.606910	0.790000	0.539660
H201	H20	0.584100	0.788000	0.574900
C531	C53	0.674100	0.791800	0.433810
C541	C54	0.578540	0.797300	0.484200
C551	C55	0.668780	0.785900	0.542360
C561	C56	0.702350	0.784700	0.489780
H211	H21	0.744000	0.779200	0.491600
O251	O25	0.678700	0.809970	0.329880
O261	O26	0.664570	0.794220	0.648170
O271	O27	0.749930	0.757910	0.605920
O281	O28	0.761880	0.777240	0.376450
N71	N7	0.513220	0.798800	0.477280
Ni81	Ni8	0.822280	0.239450	0.693340
C571	C57	0.697410	0.221400	0.395220
C581	C58	0.708300	0.207400	0.625930
C591	C59	0.611200	0.202400	0.568770
H221	H22	0.591700	0.198500	0.605800
C601	C60	0.606910	0.210000	0.460340
H231	H23	0.584100	0.212000	0.425100
C611	C61	0.674100	0.208200	0.566190
C621	C62	0.578540	0.202700	0.515800
C631	C63	0.668780	0.214100	0.457640
C641	C64	0.702350	0.215300	0.510220
H241	H24	0.744000	0.220800	0.508400
O291	O29	0.678700	0.190030	0.670120
O301	O30	0.664570	0.205780	0.351830
O311	O31	0.749930	0.242090	0.394080
O321	O32	0.761880	0.222760	0.623550
N81	N8	0.513220	0.201200	0.522720
Ni91	Ni9	0.306660	0.177720	0.239450
C651	C65	0.604780	0.302590	0.221400
C661	C66	0.374070	0.291700	0.207400
C671	C67	0.431230	0.388800	0.202400
H251	H25	0.394200	0.408300	0.198500
C681	C68	0.539660	0.393090	0.210000
H261	H26	0.574900	0.415900	0.212000
C691	C69	0.433810	0.325900	0.208200
C701	C70	0.484200	0.421460	0.202700
C711	C71	0.542360	0.331220	0.214100
C721	C72	0.489780	0.297650	0.215300
H271	H27	0.491600	0.256000	0.220800
O331	O33	0.329880	0.321300	0.190030
O341	O34	0.648170	0.335430	0.205780
O351	O35	0.605920	0.250070	0.242090
O361	O36	0.376450	0.238120	0.222760
N91	N9	0.477280	0.486780	0.201200
Ni101	Ni10	0.693340	0.177720	0.760550
C731	C73	0.395220	0.302590	0.778600
C741	C74	0.625930	0.291700	0.792600
C751	C75	0.568770	0.388800	0.797600
H281	H28	0.605800	0.408300	0.801500
C761	C76	0.460340	0.393090	0.790000
H291	H29	0.425100	0.415900	0.788000
C771	C77	0.566190	0.325900	0.791800
C781	C78	0.515800	0.421460	0.797300
C791	C79	0.457640	0.331220	0.785900
C801	C80	0.510220	0.297650	0.784700
H301	H30	0.508400	0.256000	0.779200
O371	O37	0.670120	0.321300	0.809970
O381	O38	0.351830	0.335430	0.794220
O391	O39	0.394080	0.250070	0.757910
O401	O40	0.623550	0.238120	0.777240
N101	N10	0.522720	0.486780	0.798800
Ni111	Ni11	0.306660	0.822280	0.760550
C811	C81	0.604780	0.697410	0.778600
C821	C82	0.374070	0.708300	0.792600
C831	C83	0.431230	0.611200	0.797600
H311	H31	0.394200	0.591700	0.801500
C841	C84	0.539660	0.606910	0.790000
H321	H32	0.574900	0.584100	0.788000
C851	C85	0.433810	0.674100	0.791800
C861	C86	0.484200	0.578540	0.797300
C871	C87	0.542360	0.668780	0.785900
C881	C88	0.489780	0.702350	0.784700
H331	H33	0.491600	0.744000	0.779200
O411	O41	0.329880	0.678700	0.809970
O421	O42	0.648170	0.664570	0.794220
O431	O43	0.605920	0.749930	0.757910
O441	O44	0.376450	0.761880	0.777240
N111	N11	0.477280	0.513220	0.798800
Ni121	Ni12	0.693340	0.822280	0.239450
C891	C89	0.395220	0.697410	0.221400
C901	C90	0.625930	0.708300	0.207400
C911	C91	0.568770	0.611200	0.202400
H341	H34	0.605800	0.591700	0.198500
C921	C92	0.460340	0.606910	0.210000
H351	H35	0.425100	0.584100	0.212000
C931	C93	0.566190	0.674100	0.208200
C941	C94	0.515800	0.578540	0.202700
C951	C95	0.457640	0.668780	0.214100
C961	C96	0.510220	0.702350	0.215300
H361	H36	0.508400	0.744000	0.220800
O451	O45	0.670120	0.678700	0.190030
O461	O46	0.351830	0.664570	0.205780
O471	O47	0.394080	0.749930	0.242090
O481	O48	0.623550	0.761880	0.222760
N121	N12	0.522720	0.513220	0.201200
Ni131	Ni13	0.806660	0.739450	0.677720
C971	C97	0.104780	0.721400	0.802590
C981	C98	0.874070	0.707400	0.791700
C991	C99	0.931230	0.702400	0.888800
H371	H37	0.894200	0.698500	0.908300
C1001	C100	0.039660	0.710000	0.893090
H381	H38	0.074900	0.712000	0.915900
C1011	C101	0.933810	0.708200	0.825900
C1021	C102	0.984200	0.702700	0.921460
C1031	C103	0.042360	0.714100	0.831220
C1041	C104	0.989780	0.715300	0.797650
H391	H39	0.991600	0.720800	0.756000
O491	O49	0.829880	0.690030	0.821300
O501	O50	0.148170	0.705780	0.835430
O511	O51	0.105920	0.742090	0.750070
O521	O52	0.876450	0.722760	0.738120
N131	N13	0.977280	0.701200	0.986780
Ni141	Ni14	0.193340	0.260550	0.677720
C1051	C105	0.895220	0.278600	0.802590
C1061	C106	0.125930	0.292600	0.791700
C1071	C107	0.068770	0.297600	0.888800
H401	H40	0.105800	0.301500	0.908300
C1081	C108	0.960340	0.290000	0.893090
H411	H41	0.925100	0.288000	0.915900
C1091	C109	0.066190	0.291800	0.825900
C1101	C110	0.015800	0.297300	0.921460
C1111	C111	0.957640	0.285900	0.831220
C1121	C112	0.010220	0.284700	0.797650
H421	H42	0.008400	0.279200	0.756000
O531	O53	0.170120	0.309970	0.821300
O541	O54	0.851830	0.294220	0.835430
O551	O55	0.894080	0.257910	0.750070
O561	O56	0.123550	0.277240	0.738120
N141	N14	0.022720	0.298800	0.986780
Ni151	Ni15	0.806660	0.260550	0.322280
C1131	C113	0.104780	0.278600	0.197410
C1141	C114	0.874070	0.292600	0.208300
C1151	C115	0.931230	0.297600	0.111200
H431	H43	0.894200	0.301500	0.091700
C1161	C116	0.039660	0.290000	0.106910
H441	H44	0.074900	0.288000	0.084100
C1171	C117	0.933810	0.291800	0.174100
C1181	C118	0.984200	0.297300	0.078540
C1191	C119	0.042360	0.285900	0.168780
C1201	C120	0.989780	0.284700	0.202350
H451	H45	0.991600	0.279200	0.244000
O571	O57	0.829880	0.309970	0.178700
O581	O58	0.148170	0.294220	0.164570
O591	O59	0.105920	0.257910	0.249930
O601	O60	0.876450	0.277240	0.261880
N151	N15	0.977280	0.298800	0.013220
Ni161	Ni16	0.193340	0.739450	0.322280
C1211	C121	0.895220	0.721400	0.197410
C1221	C122	0.125930	0.707400	0.208300
C1231	C123	0.068770	0.702400	0.111200
H461	H46	0.105800	0.698500	0.091700
C1241	C124	0.960340	0.710000	0.106910
H471	H47	0.925100	0.712000	0.084100
C1251	C125	0.066190	0.708200	0.174100
C1261	C126	0.015800	0.702700	0.078540
C1271	C127	0.957640	0.714100	0.168780
C1281	C128	0.010220	0.715300	0.202350
H481	H48	0.008400	0.720800	0.244000
O611	O61	0.170120	0.690030	0.178700
O621	O62	0.851830	0.705780	0.164570
O631	O63	0.894080	0.742090	0.249930
O641	O64	0.123550	0.722760	0.261880
N161	N16	0.022720	0.701200	0.013220
Ni171	Ni17	0.739450	0.677720	0.806660
C1291	C129	0.721400	0.802590	0.104780
C1301	C130	0.707400	0.791700	0.874070
C1311	C131	0.702400	0.888800	0.931230
H491	H49	0.698500	0.908300	0.894200
C1321	C132	0.710000	0.893090	0.039660
H501	H50	0.712000	0.915900	0.074900
C1331	C133	0.708200	0.825900	0.933810
C1341	C134	0.702700	0.921460	0.984200
C1351	C135	0.714100	0.831220	0.042360
C1361	C136	0.715300	0.797650	0.989780
H511	H51	0.720800	0.756000	0.991600
O651	O65	0.690030	0.821300	0.829880
O661	O66	0.705780	0.835430	0.148170
O671	O67	0.742090	0.750070	0.105920
O681	O68	0.722760	0.738120	0.876450
N171	N17	0.701200	0.986780	0.977280
Ni181	Ni18	0.260550	0.677720	0.193340
C1371	C137	0.278600	0.802590	0.895220
C1381	C138	0.292600	0.791700	0.125930
C1391	C139	0.297600	0.888800	0.068770
H521	H52	0.301500	0.908300	0.105800
C1401	C140	0.290000	0.893090	0.960340
H531	H53	0.288000	0.915900	0.925100
C1411	C141	0.291800	0.825900	0.066190
C1421	C142	0.297300	0.921460	0.015800
C1431	C143	0.285900	0.831220	0.957640
C1441	C144	0.284700	0.797650	0.010220
H541	H54	0.279200	0.756000	0.008400
O691	O69	0.309970	0.821300	0.170120
O701	O70	0.294220	0.835430	0.851830
O711	O71	0.257910	0.750070	0.894080
O721	O72	0.277240	0.738120	0.123550
N181	N18	0.298800	0.986780	0.022720
Ni191	Ni19	0.260550	0.322280	0.806660
C1451	C145	0.278600	0.197410	0.104780
C1461	C146	0.292600	0.208300	0.874070
C1471	C147	0.297600	0.111200	0.931230
H551	H55	0.301500	0.091700	0.894200
C1481	C148	0.290000	0.106910	0.039660
H561	H56	0.288000	0.084100	0.074900
C1491	C149	0.291800	0.174100	0.933810
C1501	C150	0.297300	0.078540	0.984200
C1511	C151	0.285900	0.168780	0.042360
C1521	C152	0.284700	0.202350	0.989780
H571	H57	0.279200	0.244000	0.991600
O731	O73	0.309970	0.178700	0.829880
O741	O74	0.294220	0.164570	0.148170
O751	O75	0.257910	0.249930	0.105920
O761	O76	0.277240	0.261880	0.876450
N191	N19	0.298800	0.013220	0.977280
Ni201	Ni20	0.739450	0.322280	0.193340
C1531	C153	0.721400	0.197410	0.895220
C1541	C154	0.707400	0.208300	0.125930
C1551	C155	0.702400	0.111200	0.068770
H581	H58	0.698500	0.091700	0.105800
C1561	C156	0.710000	0.106910	0.960340
H591	H59	0.712000	0.084100	0.925100
C1571	C157	0.708200	0.174100	0.066190
C1581	C158	0.702700	0.078540	0.015800
C1591	C159	0.714100	0.168780	0.957640
C1601	C160	0.715300	0.202350	0.010220
H601	H60	0.720800	0.244000	0.008400
O771	O77	0.690030	0.178700	0.170120
O781	O78	0.705780	0.164570	0.851830
O791	O79	0.742090	0.249930	0.894080
O801	O80	0.722760	0.261880	0.123550
N201	N20	0.701200	0.013220	0.022720
Ni211	Ni21	0.677720	0.806660	0.739450
C1611	C161	0.802590	0.104780	0.721400
C1621	C162	0.791700	0.874070	0.707400
C1631	C163	0.888800	0.931230	0.702400
H611	H61	0.908300	0.894200	0.698500
C1641	C164	0.893090	0.039660	0.710000
H621	H62	0.915900	0.074900	0.712000
C1651	C165	0.825900	0.933810	0.708200
C1661	C166	0.921460	0.984200	0.702700
C1671	C167	0.831220	0.042360	0.714100
C1681	C168	0.797650	0.989780	0.715300
H631	H63	0.756000	0.991600	0.720800
O811	O81	0.821300	0.829880	0.690030
O821	O82	0.835430	0.148170	0.705780
O831	O83	0.750070	0.105920	0.742090
O841	O84	0.738120	0.876450	0.722760
N211	N21	0.986780	0.977280	0.701200
Ni221	Ni22	0.677720	0.193340	0.260550
C1691	C169	0.802590	0.895220	0.278600
C1701	C170	0.791700	0.125930	0.292600
C1711	C171	0.888800	0.068770	0.297600
H641	H64	0.908300	0.105800	0.301500
C1721	C172	0.893090	0.960340	0.290000
H651	H65	0.915900	0.925100	0.288000
C1731	C173	0.825900	0.066190	0.291800
C1741	C174	0.921460	0.015800	0.297300
C1751	C175	0.831220	0.957640	0.285900
C1761	C176	0.797650	0.010220	0.284700
H661	H66	0.756000	0.008400	0.279200
O851	O85	0.821300	0.170120	0.309970
O861	O86	0.835430	0.851830	0.294220
O871	O87	0.750070	0.894080	0.257910
O881	O88	0.738120	0.123550	0.277240
N221	N22	0.986780	0.022720	0.298800
Ni231	Ni23	0.322280	0.806660	0.260550
C1771	C177	0.197410	0.104780	0.278600
C1781	C178	0.208300	0.874070	0.292600
C1791	C179	0.111200	0.931230	0.297600
H671	H67	0.091700	0.894200	0.301500
C1801	C180	0.106910	0.039660	0.290000
H681	H68	0.084100	0.074900	0.288000
C1811	C181	0.174100	0.933810	0.291800
C1821	C182	0.078540	0.984200	0.297300
C1831	C183	0.168780	0.042360	0.285900
C1841	C184	0.202350	0.989780	0.284700
H691	H69	0.244000	0.991600	0.279200
O891	O89	0.178700	0.829880	0.309970
O901	O90	0.164570	0.148170	0.294220
O911	O91	0.249930	0.105920	0.257910
O921	O92	0.261880	0.876450	0.277240
N231	N23	0.013220	0.977280	0.298800
Ni241	Ni24	0.322280	0.193340	0.739450
C1851	C185	0.197410	0.895220	0.721400
C1861	C186	0.208300	0.125930	0.707400
C1871	C187	0.111200	0.068770	0.702400
H701	H70	0.091700	0.105800	0.698500
C1881	C188	0.106910	0.960340	0.710000
H711	H71	0.084100	0.925100	0.712000
C1891	C189	0.174100	0.066190	0.708200
C1901	C190	0.078540	0.015800	0.702700
C1911	C191	0.168780	0.957640	0.714100
C1921	C192	0.202350	0.010220	0.715300
H721	H72	0.244000	0.008400	0.720800
O931	O93	0.178700	0.170120	0.690030
O941	O94	0.164570	0.851830	0.705780
O951	O95	0.249930	0.894080	0.742090
O961	O96	0.261880	0.123550	0.722760
N241	N24	0.013220	0.022720	0.701200
O971	O97	0.238430	0.238430	0.238430
O981	O98	0.761570	0.761570	0.238430
O991	O99	0.761570	0.238430	0.761570
O1001	O100	0.238430	0.761570	0.761570
O1011	O101	0.738430	0.738430	0.738430
O1021	O102	0.261570	0.261570	0.738430
O1031	O103	0.738430	0.261570	0.261570
O1041	O104	0.261570	0.738430	0.261570
