data_VAMQOS_clean_PM
_symmetry_space_group_name_H-M	'P1'
_cell_length_a	25.866000
_cell_length_b	25.866000
_cell_length_c	6.845700
_cell_angle_alpha	90.000000
_cell_angle_beta	90.000000
_cell_angle_gamma	120.000000
_symmetry_Int_Tables_number 1

loop_
_symmetry_equiv_pos_as_xyz
'x,y,z'

loop_
_atom_site_label
_atom_site_type_symbol
_atom_site_fract_x
_atom_site_fract_y
_atom_site_fract_z
Co11	Co1	0.970410	0.617870	0.143010
O11	O1	0.022010	0.607760	0.338400
O21	O2	0.993810	0.629450	0.696100
O31	O3	0.968380	0.562600	0.932200
C11	C1	0.010330	0.555610	0.422800
C21	C2	0.994150	0.540700	0.621500
C31	C3	0.984050	0.485470	0.692700
H11	H1	0.972900	0.475800	0.825600
C41	C4	0.984940	0.579410	0.760300
Co21	Co2	0.637080	0.951200	0.476340
O41	O4	0.688680	0.941090	0.671730
O51	O5	0.660480	0.962780	0.029430
O61	O6	0.635050	0.895930	0.265530
C51	C5	0.677000	0.888940	0.756130
C61	C6	0.660820	0.874030	0.954830
C71	C7	0.650720	0.818800	0.026030
H21	H2	0.639570	0.809130	0.158930
C81	C8	0.651610	0.912740	0.093630
Co31	Co3	0.303740	0.284540	0.809680
O71	O7	0.355340	0.274430	0.005070
O81	O8	0.327140	0.296120	0.362770
O91	O9	0.301710	0.229270	0.598870
C91	C9	0.343660	0.222280	0.089470
C101	C10	0.327480	0.207370	0.288170
C111	C11	0.317380	0.152140	0.359370
H31	H3	0.306230	0.142470	0.492270
C121	C12	0.318270	0.246080	0.426970
Co41	Co4	0.382130	0.352540	0.143010
O101	O10	0.392240	0.414250	0.338400
O111	O11	0.370550	0.364360	0.696100
O121	O12	0.437400	0.405780	0.932200
C131	C13	0.444390	0.454720	0.422800
C141	C14	0.459300	0.453450	0.621500
C151	C15	0.514530	0.498580	0.692700
H41	H4	0.524200	0.497100	0.825600
C161	C16	0.420590	0.405530	0.760300
Co51	Co5	0.048800	0.685870	0.476340
O131	O13	0.058910	0.747580	0.671730
O141	O14	0.037220	0.697690	0.029430
O151	O15	0.104070	0.739110	0.265530
C171	C17	0.111060	0.788050	0.756130
C181	C18	0.125970	0.786780	0.954830
C191	C19	0.181200	0.831910	0.026030
H51	H5	0.190870	0.830430	0.158930
C201	C20	0.087260	0.738860	0.093630
Co61	Co6	0.715460	0.019210	0.809680
O161	O16	0.725570	0.080920	0.005070
O171	O17	0.703880	0.031030	0.362770
O181	O18	0.770730	0.072450	0.598870
C211	C21	0.777720	0.121390	0.089470
C221	C22	0.792630	0.120120	0.288170
C231	C23	0.847860	0.165250	0.359370
H61	H6	0.857530	0.163770	0.492270
C241	C24	0.753920	0.072200	0.426970
Co71	Co7	0.647460	0.029590	0.143010
O191	O19	0.585750	0.977990	0.338400
O201	O20	0.635640	0.006190	0.696100
O211	O21	0.594220	0.031620	0.932200
C251	C25	0.545280	0.989670	0.422800
C261	C26	0.546550	0.005850	0.621500
C271	C27	0.501420	0.015950	0.692700
H71	H7	0.502900	0.027100	0.825600
C281	C28	0.594470	0.015060	0.760300
Co81	Co8	0.314130	0.362920	0.476340
O221	O22	0.252420	0.311320	0.671730
O231	O23	0.302310	0.339520	0.029430
O241	O24	0.260890	0.364950	0.265530
C291	C29	0.211950	0.323000	0.756130
C301	C30	0.213220	0.339180	0.954830
C311	C31	0.168090	0.349280	0.026030
H81	H8	0.169570	0.360430	0.158930
C321	C32	0.261140	0.348390	0.093630
Co91	Co9	0.980790	0.696260	0.809680
O251	O25	0.919080	0.644660	0.005070
O261	O26	0.968970	0.672860	0.362770
O271	O27	0.927550	0.698290	0.598870
C331	C33	0.878610	0.656340	0.089470
C341	C34	0.879880	0.672520	0.288170
C351	C35	0.834750	0.682620	0.359370
H91	H9	0.836230	0.693770	0.492270
C361	C36	0.927800	0.681730	0.426970
Co101	Co10	0.029590	0.382130	0.856990
O281	O28	0.977990	0.392240	0.661600
O291	O29	0.006190	0.370550	0.303900
O301	O30	0.031620	0.437400	0.067800
C371	C37	0.989670	0.444390	0.577200
C381	C38	0.005850	0.459300	0.378500
C391	C39	0.015950	0.514530	0.307300
H101	H10	0.027100	0.524200	0.174400
C401	C40	0.015060	0.420590	0.239700
Co111	Co11	0.696260	0.715460	0.190320
O311	O31	0.644660	0.725570	0.994930
O321	O32	0.672860	0.703880	0.637230
O331	O33	0.698290	0.770730	0.401130
C411	C41	0.656340	0.777720	0.910530
C421	C42	0.672520	0.792630	0.711830
C431	C43	0.682620	0.847860	0.640630
H111	H11	0.693770	0.857530	0.507730
C441	C44	0.681730	0.753920	0.573030
Co121	Co12	0.362920	0.048800	0.523660
O341	O34	0.311320	0.058910	0.328270
O351	O35	0.339520	0.037220	0.970570
O361	O36	0.364950	0.104070	0.734470
C451	C45	0.323000	0.111060	0.243870
C461	C46	0.339180	0.125970	0.045170
C471	C47	0.349280	0.181200	0.973970
H121	H12	0.360430	0.190870	0.841070
C481	C48	0.348390	0.087260	0.906370
Co131	Co13	0.617870	0.647460	0.856990
O371	O37	0.607760	0.585750	0.661600
O381	O38	0.629450	0.635640	0.303900
O391	O39	0.562600	0.594220	0.067800
C491	C49	0.555610	0.545280	0.577200
C501	C50	0.540700	0.546550	0.378500
C511	C51	0.485470	0.501420	0.307300
H131	H13	0.475800	0.502900	0.174400
C521	C52	0.579410	0.594470	0.239700
Co141	Co14	0.284540	0.980790	0.190320
O401	O40	0.274430	0.919080	0.994930
O411	O41	0.296120	0.968970	0.637230
O421	O42	0.229270	0.927550	0.401130
C531	C53	0.222280	0.878610	0.910530
C541	C54	0.207370	0.879880	0.711830
C551	C55	0.152140	0.834750	0.640630
H141	H14	0.142470	0.836230	0.507730
C561	C56	0.246080	0.927800	0.573030
Co151	Co15	0.951200	0.314130	0.523660
O431	O43	0.941090	0.252420	0.328270
O441	O44	0.962780	0.302310	0.970570
O451	O45	0.895930	0.260890	0.734470
C571	C57	0.888940	0.211950	0.243870
C581	C58	0.874030	0.213220	0.045170
C591	C59	0.818800	0.168090	0.973970
H151	H15	0.809130	0.169570	0.841070
C601	C60	0.912740	0.261140	0.906370
Co161	Co16	0.352540	0.970410	0.856990
O461	O46	0.414250	0.022010	0.661600
O471	O47	0.364360	0.993810	0.303900
O481	O48	0.405780	0.968380	0.067800
C611	C61	0.454720	0.010330	0.577200
C621	C62	0.453450	0.994150	0.378500
C631	C63	0.498580	0.984050	0.307300
H161	H16	0.497100	0.972900	0.174400
C641	C64	0.405530	0.984940	0.239700
Co171	Co17	0.019210	0.303740	0.190320
O491	O49	0.080920	0.355340	0.994930
O501	O50	0.031030	0.327140	0.637230
O511	O51	0.072450	0.301710	0.401130
C651	C65	0.121390	0.343660	0.910530
C661	C66	0.120120	0.327480	0.711830
C671	C67	0.165250	0.317380	0.640630
H171	H17	0.163770	0.306230	0.507730
C681	C68	0.072200	0.318270	0.573030
Co181	Co18	0.685870	0.637080	0.523660
O521	O52	0.747580	0.688680	0.328270
O531	O53	0.697690	0.660480	0.970570
O541	O54	0.739110	0.635050	0.734470
C691	C69	0.788050	0.677000	0.243870
C701	C70	0.786780	0.660820	0.045170
C711	C71	0.831910	0.650720	0.973970
H181	H18	0.830430	0.639570	0.841070
C721	C72	0.738860	0.651610	0.906370
