data_VANNIK_clean_PM
_symmetry_space_group_name_H-M	'P1'
_cell_length_a	32.094100
_cell_length_b	32.094100
_cell_length_c	32.094100
_cell_angle_alpha	90.000000
_cell_angle_beta	90.000000
_cell_angle_gamma	90.000000
_symmetry_Int_Tables_number 1

loop_
_symmetry_equiv_pos_as_xyz
'x,y,z'

loop_
_atom_site_label
_atom_site_type_symbol
_atom_site_fract_x
_atom_site_fract_y
_atom_site_fract_z
O11	O1	0.896500	0.517500	0.496200
O21	O2	0.913710	0.481410	0.440980
C11	C1	0.787600	0.404760	0.490900
C21	C2	0.796400	0.436000	0.519400
H11	H1	0.779800	0.438800	0.543700
C31	C3	0.854800	0.457700	0.478500
C41	C4	0.828700	0.462600	0.512800
H21	H2	0.833400	0.484900	0.531700
C51	C5	0.844600	0.427000	0.451000
H31	H3	0.860400	0.424700	0.426100
C61	C6	0.891700	0.487900	0.470900
C71	C7	0.813500	0.399900	0.457200
H41	H4	0.809400	0.377400	0.438300
O31	O3	0.396500	0.017500	0.996200
O41	O4	0.413710	0.981410	0.940980
C81	C8	0.287600	0.904760	0.990900
C91	C9	0.296400	0.936000	0.019400
H51	H5	0.279800	0.938800	0.043700
C101	C10	0.354800	0.957700	0.978500
C111	C11	0.328700	0.962600	0.012800
H61	H6	0.333400	0.984900	0.031700
C121	C12	0.344600	0.927000	0.951000
H71	H7	0.360400	0.924700	0.926100
C131	C13	0.391700	0.987900	0.970900
C141	C14	0.313500	0.899900	0.957200
H81	H8	0.309400	0.877400	0.938300
O51	O5	0.603500	0.482500	0.996200
O61	O6	0.586290	0.518590	0.940980
C151	C15	0.712400	0.595240	0.990900
C161	C16	0.703600	0.564000	0.019400
H91	H9	0.720200	0.561200	0.043700
C171	C17	0.645200	0.542300	0.978500
C181	C18	0.671300	0.537400	0.012800
H101	H10	0.666600	0.515100	0.031700
C191	C19	0.655400	0.573000	0.951000
H111	H11	0.639600	0.575300	0.926100
C201	C20	0.608300	0.512100	0.970900
C211	C21	0.686500	0.600100	0.957200
H121	H12	0.690600	0.622600	0.938300
O71	O7	0.103500	0.982500	0.496200
O81	O8	0.086290	0.018590	0.440980
C221	C22	0.212400	0.095240	0.490900
C231	C23	0.203600	0.064000	0.519400
H131	H13	0.220200	0.061200	0.543700
C241	C24	0.145200	0.042300	0.478500
C251	C25	0.171300	0.037400	0.512800
H141	H14	0.166600	0.015100	0.531700
C261	C26	0.155400	0.073000	0.451000
H151	H15	0.139600	0.075300	0.426100
C271	C27	0.108300	0.012100	0.470900
C281	C28	0.186500	0.100100	0.457200
H161	H16	0.190600	0.122600	0.438300
O91	O9	0.103500	0.017500	0.003800
O101	O10	0.086290	0.981410	0.059020
C291	C29	0.212400	0.904760	0.009100
C301	C30	0.203600	0.936000	0.980600
H171	H17	0.220200	0.938800	0.956300
C311	C31	0.145200	0.957700	0.021500
C321	C32	0.171300	0.962600	0.987200
H181	H18	0.166600	0.984900	0.968300
C331	C33	0.155400	0.927000	0.049000
H191	H19	0.139600	0.924700	0.073900
C341	C34	0.108300	0.987900	0.029100
C351	C35	0.186500	0.899900	0.042800
H201	H20	0.190600	0.877400	0.061700
O111	O11	0.603500	0.517500	0.503800
O121	O12	0.586290	0.481410	0.559020
C361	C36	0.712400	0.404760	0.509100
C371	C37	0.703600	0.436000	0.480600
H211	H21	0.720200	0.438800	0.456300
C381	C38	0.645200	0.457700	0.521500
C391	C39	0.671300	0.462600	0.487200
H221	H22	0.666600	0.484900	0.468300
C401	C40	0.655400	0.427000	0.549000
H231	H23	0.639600	0.424700	0.573900
C411	C41	0.608300	0.487900	0.529100
C421	C42	0.686500	0.399900	0.542800
H241	H24	0.690600	0.377400	0.561700
O131	O13	0.396500	0.982500	0.503800
O141	O14	0.413710	0.018590	0.559020
C431	C43	0.287600	0.095240	0.509100
C441	C44	0.296400	0.064000	0.480600
H251	H25	0.279800	0.061200	0.456300
C451	C45	0.354800	0.042300	0.521500
C461	C46	0.328700	0.037400	0.487200
H261	H26	0.333400	0.015100	0.468300
C471	C47	0.344600	0.073000	0.549000
H271	H27	0.360400	0.075300	0.573900
C481	C48	0.391700	0.012100	0.529100
C491	C49	0.313500	0.100100	0.542800
H281	H28	0.309400	0.122600	0.561700
O151	O15	0.896500	0.482500	0.003800
O161	O16	0.913710	0.518590	0.059020
C501	C50	0.787600	0.595240	0.009100
C511	C51	0.796400	0.564000	0.980600
H291	H29	0.779800	0.561200	0.956300
C521	C52	0.854800	0.542300	0.021500
C531	C53	0.828700	0.537400	0.987200
H301	H30	0.833400	0.515100	0.968300
C541	C54	0.844600	0.573000	0.049000
H311	H31	0.860400	0.575300	0.073900
C551	C55	0.891700	0.512100	0.029100
C561	C56	0.813500	0.600100	0.042800
H321	H32	0.809400	0.622600	0.061700
O171	O17	0.496200	0.896500	0.517500
O181	O18	0.440980	0.913710	0.481410
C571	C57	0.490900	0.787600	0.404760
C581	C58	0.519400	0.796400	0.436000
H331	H33	0.543700	0.779800	0.438800
C591	C59	0.478500	0.854800	0.457700
C601	C60	0.512800	0.828700	0.462600
H341	H34	0.531700	0.833400	0.484900
C611	C61	0.451000	0.844600	0.427000
H351	H35	0.426100	0.860400	0.424700
C621	C62	0.470900	0.891700	0.487900
C631	C63	0.457200	0.813500	0.399900
H361	H36	0.438300	0.809400	0.377400
O191	O19	0.996200	0.396500	0.017500
O201	O20	0.940980	0.413710	0.981410
C641	C64	0.990900	0.287600	0.904760
C651	C65	0.019400	0.296400	0.936000
H371	H37	0.043700	0.279800	0.938800
C661	C66	0.978500	0.354800	0.957700
C671	C67	0.012800	0.328700	0.962600
H381	H38	0.031700	0.333400	0.984900
C681	C68	0.951000	0.344600	0.927000
H391	H39	0.926100	0.360400	0.924700
C691	C69	0.970900	0.391700	0.987900
C701	C70	0.957200	0.313500	0.899900
H401	H40	0.938300	0.309400	0.877400
O211	O21	0.996200	0.603500	0.482500
O221	O22	0.940980	0.586290	0.518590
C711	C71	0.990900	0.712400	0.595240
C721	C72	0.019400	0.703600	0.564000
H411	H41	0.043700	0.720200	0.561200
C731	C73	0.978500	0.645200	0.542300
C741	C74	0.012800	0.671300	0.537400
H421	H42	0.031700	0.666600	0.515100
C751	C75	0.951000	0.655400	0.573000
H431	H43	0.926100	0.639600	0.575300
C761	C76	0.970900	0.608300	0.512100
C771	C77	0.957200	0.686500	0.600100
H441	H44	0.938300	0.690600	0.622600
O231	O23	0.496200	0.103500	0.982500
O241	O24	0.440980	0.086290	0.018590
C781	C78	0.490900	0.212400	0.095240
C791	C79	0.519400	0.203600	0.064000
H451	H45	0.543700	0.220200	0.061200
C801	C80	0.478500	0.145200	0.042300
C811	C81	0.512800	0.171300	0.037400
H461	H46	0.531700	0.166600	0.015100
C821	C82	0.451000	0.155400	0.073000
H471	H47	0.426100	0.139600	0.075300
C831	C83	0.470900	0.108300	0.012100
C841	C84	0.457200	0.186500	0.100100
H481	H48	0.438300	0.190600	0.122600
O251	O25	0.003800	0.103500	0.017500
O261	O26	0.059020	0.086290	0.981410
C851	C85	0.009100	0.212400	0.904760
C861	C86	0.980600	0.203600	0.936000
H491	H49	0.956300	0.220200	0.938800
C871	C87	0.021500	0.145200	0.957700
C881	C88	0.987200	0.171300	0.962600
H501	H50	0.968300	0.166600	0.984900
C891	C89	0.049000	0.155400	0.927000
H511	H51	0.073900	0.139600	0.924700
C901	C90	0.029100	0.108300	0.987900
C911	C91	0.042800	0.186500	0.899900
H521	H52	0.061700	0.190600	0.877400
O271	O27	0.503800	0.603500	0.517500
O281	O28	0.559020	0.586290	0.481410
C921	C92	0.509100	0.712400	0.404760
C931	C93	0.480600	0.703600	0.436000
H531	H53	0.456300	0.720200	0.438800
C941	C94	0.521500	0.645200	0.457700
C951	C95	0.487200	0.671300	0.462600
H541	H54	0.468300	0.666600	0.484900
C961	C96	0.549000	0.655400	0.427000
H551	H55	0.573900	0.639600	0.424700
C971	C97	0.529100	0.608300	0.487900
C981	C98	0.542800	0.686500	0.399900
H561	H56	0.561700	0.690600	0.377400
O291	O29	0.503800	0.396500	0.982500
O301	O30	0.559020	0.413710	0.018590
C991	C99	0.509100	0.287600	0.095240
C1001	C100	0.480600	0.296400	0.064000
H571	H57	0.456300	0.279800	0.061200
C1011	C101	0.521500	0.354800	0.042300
C1021	C102	0.487200	0.328700	0.037400
H581	H58	0.468300	0.333400	0.015100
C1031	C103	0.549000	0.344600	0.073000
H591	H59	0.573900	0.360400	0.075300
C1041	C104	0.529100	0.391700	0.012100
C1051	C105	0.542800	0.313500	0.100100
H601	H60	0.561700	0.309400	0.122600
O311	O31	0.003800	0.896500	0.482500
O321	O32	0.059020	0.913710	0.518590
C1061	C106	0.009100	0.787600	0.595240
C1071	C107	0.980600	0.796400	0.564000
H611	H61	0.956300	0.779800	0.561200
C1081	C108	0.021500	0.854800	0.542300
C1091	C109	0.987200	0.828700	0.537400
H621	H62	0.968300	0.833400	0.515100
C1101	C110	0.049000	0.844600	0.573000
H631	H63	0.073900	0.860400	0.575300
C1111	C111	0.029100	0.891700	0.512100
C1121	C112	0.042800	0.813500	0.600100
H641	H64	0.061700	0.809400	0.622600
O331	O33	0.517500	0.496200	0.896500
O341	O34	0.481410	0.440980	0.913710
C1131	C113	0.404760	0.490900	0.787600
C1141	C114	0.436000	0.519400	0.796400
H651	H65	0.438800	0.543700	0.779800
C1151	C115	0.457700	0.478500	0.854800
C1161	C116	0.462600	0.512800	0.828700
H661	H66	0.484900	0.531700	0.833400
C1171	C117	0.427000	0.451000	0.844600
H671	H67	0.424700	0.426100	0.860400
C1181	C118	0.487900	0.470900	0.891700
C1191	C119	0.399900	0.457200	0.813500
H681	H68	0.377400	0.438300	0.809400
O351	O35	0.017500	0.996200	0.396500
O361	O36	0.981410	0.940980	0.413710
C1201	C120	0.904760	0.990900	0.287600
C1211	C121	0.936000	0.019400	0.296400
H691	H69	0.938800	0.043700	0.279800
C1221	C122	0.957700	0.978500	0.354800
C1231	C123	0.962600	0.012800	0.328700
H701	H70	0.984900	0.031700	0.333400
C1241	C124	0.927000	0.951000	0.344600
H711	H71	0.924700	0.926100	0.360400
C1251	C125	0.987900	0.970900	0.391700
C1261	C126	0.899900	0.957200	0.313500
H721	H72	0.877400	0.938300	0.309400
O371	O37	0.482500	0.996200	0.603500
O381	O38	0.518590	0.940980	0.586290
C1271	C127	0.595240	0.990900	0.712400
C1281	C128	0.564000	0.019400	0.703600
H731	H73	0.561200	0.043700	0.720200
C1291	C129	0.542300	0.978500	0.645200
C1301	C130	0.537400	0.012800	0.671300
H741	H74	0.515100	0.031700	0.666600
C1311	C131	0.573000	0.951000	0.655400
H751	H75	0.575300	0.926100	0.639600
C1321	C132	0.512100	0.970900	0.608300
C1331	C133	0.600100	0.957200	0.686500
H761	H76	0.622600	0.938300	0.690600
O391	O39	0.982500	0.496200	0.103500
O401	O40	0.018590	0.440980	0.086290
C1341	C134	0.095240	0.490900	0.212400
C1351	C135	0.064000	0.519400	0.203600
H771	H77	0.061200	0.543700	0.220200
C1361	C136	0.042300	0.478500	0.145200
C1371	C137	0.037400	0.512800	0.171300
H781	H78	0.015100	0.531700	0.166600
C1381	C138	0.073000	0.451000	0.155400
H791	H79	0.075300	0.426100	0.139600
C1391	C139	0.012100	0.470900	0.108300
C1401	C140	0.100100	0.457200	0.186500
H801	H80	0.122600	0.438300	0.190600
O411	O41	0.017500	0.003800	0.103500
O421	O42	0.981410	0.059020	0.086290
C1411	C141	0.904760	0.009100	0.212400
C1421	C142	0.936000	0.980600	0.203600
H811	H81	0.938800	0.956300	0.220200
C1431	C143	0.957700	0.021500	0.145200
C1441	C144	0.962600	0.987200	0.171300
H821	H82	0.984900	0.968300	0.166600
C1451	C145	0.927000	0.049000	0.155400
H831	H83	0.924700	0.073900	0.139600
C1461	C146	0.987900	0.029100	0.108300
C1471	C147	0.899900	0.042800	0.186500
H841	H84	0.877400	0.061700	0.190600
O431	O43	0.517500	0.503800	0.603500
O441	O44	0.481410	0.559020	0.586290
C1481	C148	0.404760	0.509100	0.712400
C1491	C149	0.436000	0.480600	0.703600
H851	H85	0.438800	0.456300	0.720200
C1501	C150	0.457700	0.521500	0.645200
C1511	C151	0.462600	0.487200	0.671300
H861	H86	0.484900	0.468300	0.666600
C1521	C152	0.427000	0.549000	0.655400
H871	H87	0.424700	0.573900	0.639600
C1531	C153	0.487900	0.529100	0.608300
C1541	C154	0.399900	0.542800	0.686500
H881	H88	0.377400	0.561700	0.690600
O451	O45	0.982500	0.503800	0.396500
O461	O46	0.018590	0.559020	0.413710
C1551	C155	0.095240	0.509100	0.287600
C1561	C156	0.064000	0.480600	0.296400
H891	H89	0.061200	0.456300	0.279800
C1571	C157	0.042300	0.521500	0.354800
C1581	C158	0.037400	0.487200	0.328700
H901	H90	0.015100	0.468300	0.333400
C1591	C159	0.073000	0.549000	0.344600
H911	H91	0.075300	0.573900	0.360400
C1601	C160	0.012100	0.529100	0.391700
C1611	C161	0.100100	0.542800	0.313500
H921	H92	0.122600	0.561700	0.309400
O471	O47	0.482500	0.003800	0.896500
O481	O48	0.518590	0.059020	0.913710
C1621	C162	0.595240	0.009100	0.787600
C1631	C163	0.564000	0.980600	0.796400
H931	H93	0.561200	0.956300	0.779800
C1641	C164	0.542300	0.021500	0.854800
C1651	C165	0.537400	0.987200	0.828700
H941	H94	0.515100	0.968300	0.833400
C1661	C166	0.573000	0.049000	0.844600
H951	H95	0.575300	0.073900	0.860400
C1671	C167	0.512100	0.029100	0.891700
C1681	C168	0.600100	0.042800	0.813500
H961	H96	0.622600	0.061700	0.809400
O491	O49	0.767500	0.146500	0.746200
O501	O50	0.731410	0.163710	0.690980
C1691	C169	0.654760	0.037600	0.740900
C1701	C170	0.686000	0.046400	0.769400
H971	H97	0.688800	0.029800	0.793700
C1711	C171	0.707700	0.104800	0.728500
C1721	C172	0.712600	0.078700	0.762800
H981	H98	0.734900	0.083400	0.781700
C1731	C173	0.677000	0.094600	0.701000
H991	H99	0.674700	0.110400	0.676100
C1741	C174	0.737900	0.141700	0.720900
C1751	C175	0.649900	0.063500	0.707200
H1001	H100	0.627400	0.059400	0.688300
O511	O51	0.267500	0.646500	0.246200
O521	O52	0.231410	0.663710	0.190980
C1761	C176	0.154760	0.537600	0.240900
C1771	C177	0.186000	0.546400	0.269400
H1011	H101	0.188800	0.529800	0.293700
C1781	C178	0.207700	0.604800	0.228500
C1791	C179	0.212600	0.578700	0.262800
H1021	H102	0.234900	0.583400	0.281700
C1801	C180	0.177000	0.594600	0.201000
H1031	H103	0.174700	0.610400	0.176100
C1811	C181	0.237900	0.641700	0.220900
C1821	C182	0.149900	0.563500	0.207200
H1041	H104	0.127400	0.559400	0.188300
O531	O53	0.732500	0.853500	0.246200
O541	O54	0.768590	0.836290	0.190980
C1831	C183	0.845240	0.962400	0.240900
C1841	C184	0.814000	0.953600	0.269400
H1051	H105	0.811200	0.970200	0.293700
C1851	C185	0.792300	0.895200	0.228500
C1861	C186	0.787400	0.921300	0.262800
H1061	H106	0.765100	0.916600	0.281700
C1871	C187	0.823000	0.905400	0.201000
H1071	H107	0.825300	0.889600	0.176100
C1881	C188	0.762100	0.858300	0.220900
C1891	C189	0.850100	0.936500	0.207200
H1081	H108	0.872600	0.940600	0.188300
O551	O55	0.232500	0.353500	0.746200
O561	O56	0.268590	0.336290	0.690980
C1901	C190	0.345240	0.462400	0.740900
C1911	C191	0.314000	0.453600	0.769400
H1091	H109	0.311200	0.470200	0.793700
C1921	C192	0.292300	0.395200	0.728500
C1931	C193	0.287400	0.421300	0.762800
H1101	H110	0.265100	0.416600	0.781700
C1941	C194	0.323000	0.405400	0.701000
H1111	H111	0.325300	0.389600	0.676100
C1951	C195	0.262100	0.358300	0.720900
C1961	C196	0.350100	0.436500	0.707200
H1121	H112	0.372600	0.440600	0.688300
O571	O57	0.267500	0.353500	0.253800
O581	O58	0.231410	0.336290	0.309020
C1971	C197	0.154760	0.462400	0.259100
C1981	C198	0.186000	0.453600	0.230600
H1131	H113	0.188800	0.470200	0.206300
C1991	C199	0.207700	0.395200	0.271500
C2001	C200	0.212600	0.421300	0.237200
H1141	H114	0.234900	0.416600	0.218300
C2011	C201	0.177000	0.405400	0.299000
H1151	H115	0.174700	0.389600	0.323900
C2021	C202	0.237900	0.358300	0.279100
C2031	C203	0.149900	0.436500	0.292800
H1161	H116	0.127400	0.440600	0.311700
O591	O59	0.767500	0.853500	0.753800
O601	O60	0.731410	0.836290	0.809020
C2041	C204	0.654760	0.962400	0.759100
C2051	C205	0.686000	0.953600	0.730600
H1171	H117	0.688800	0.970200	0.706300
C2061	C206	0.707700	0.895200	0.771500
C2071	C207	0.712600	0.921300	0.737200
H1181	H118	0.734900	0.916600	0.718300
C2081	C208	0.677000	0.905400	0.799000
H1191	H119	0.674700	0.889600	0.823900
C2091	C209	0.737900	0.858300	0.779100
C2101	C210	0.649900	0.936500	0.792800
H1201	H120	0.627400	0.940600	0.811700
O611	O61	0.232500	0.646500	0.753800
O621	O62	0.268590	0.663710	0.809020
C2111	C211	0.345240	0.537600	0.759100
C2121	C212	0.314000	0.546400	0.730600
H1211	H121	0.311200	0.529800	0.706300
C2131	C213	0.292300	0.604800	0.771500
C2141	C214	0.287400	0.578700	0.737200
H1221	H122	0.265100	0.583400	0.718300
C2151	C215	0.323000	0.594600	0.799000
H1231	H123	0.325300	0.610400	0.823900
C2161	C216	0.262100	0.641700	0.779100
C2171	C217	0.350100	0.563500	0.792800
H1241	H124	0.372600	0.559400	0.811700
O631	O63	0.732500	0.146500	0.253800
O641	O64	0.768590	0.163710	0.309020
C2181	C218	0.845240	0.037600	0.259100
C2191	C219	0.814000	0.046400	0.230600
H1251	H125	0.811200	0.029800	0.206300
C2201	C220	0.792300	0.104800	0.271500
C2211	C221	0.787400	0.078700	0.237200
H1261	H126	0.765100	0.083400	0.218300
C2221	C222	0.823000	0.094600	0.299000
H1271	H127	0.825300	0.110400	0.323900
C2231	C223	0.762100	0.141700	0.279100
C2241	C224	0.850100	0.063500	0.292800
H1281	H128	0.872600	0.059400	0.311700
O651	O65	0.146500	0.746200	0.767500
O661	O66	0.163710	0.690980	0.731410
C2251	C225	0.037600	0.740900	0.654760
C2261	C226	0.046400	0.769400	0.686000
H1291	H129	0.029800	0.793700	0.688800
C2271	C227	0.104800	0.728500	0.707700
C2281	C228	0.078700	0.762800	0.712600
H1301	H130	0.083400	0.781700	0.734900
C2291	C229	0.094600	0.701000	0.677000
H1311	H131	0.110400	0.676100	0.674700
C2301	C230	0.141700	0.720900	0.737900
C2311	C231	0.063500	0.707200	0.649900
H1321	H132	0.059400	0.688300	0.627400
O671	O67	0.646500	0.246200	0.267500
O681	O68	0.663710	0.190980	0.231410
C2321	C232	0.537600	0.240900	0.154760
C2331	C233	0.546400	0.269400	0.186000
H1331	H133	0.529800	0.293700	0.188800
C2341	C234	0.604800	0.228500	0.207700
C2351	C235	0.578700	0.262800	0.212600
H1341	H134	0.583400	0.281700	0.234900
C2361	C236	0.594600	0.201000	0.177000
H1351	H135	0.610400	0.176100	0.174700
C2371	C237	0.641700	0.220900	0.237900
C2381	C238	0.563500	0.207200	0.149900
H1361	H136	0.559400	0.188300	0.127400
O691	O69	0.853500	0.246200	0.732500
O701	O70	0.836290	0.190980	0.768590
C2391	C239	0.962400	0.240900	0.845240
C2401	C240	0.953600	0.269400	0.814000
H1371	H137	0.970200	0.293700	0.811200
C2411	C241	0.895200	0.228500	0.792300
C2421	C242	0.921300	0.262800	0.787400
H1381	H138	0.916600	0.281700	0.765100
C2431	C243	0.905400	0.201000	0.823000
H1391	H139	0.889600	0.176100	0.825300
C2441	C244	0.858300	0.220900	0.762100
C2451	C245	0.936500	0.207200	0.850100
H1401	H140	0.940600	0.188300	0.872600
O711	O71	0.353500	0.746200	0.232500
O721	O72	0.336290	0.690980	0.268590
C2461	C246	0.462400	0.740900	0.345240
C2471	C247	0.453600	0.769400	0.314000
H1411	H141	0.470200	0.793700	0.311200
C2481	C248	0.395200	0.728500	0.292300
C2491	C249	0.421300	0.762800	0.287400
H1421	H142	0.416600	0.781700	0.265100
C2501	C250	0.405400	0.701000	0.323000
H1431	H143	0.389600	0.676100	0.325300
C2511	C251	0.358300	0.720900	0.262100
C2521	C252	0.436500	0.707200	0.350100
H1441	H144	0.440600	0.688300	0.372600
O731	O73	0.353500	0.253800	0.267500
O741	O74	0.336290	0.309020	0.231410
C2531	C253	0.462400	0.259100	0.154760
C2541	C254	0.453600	0.230600	0.186000
H1451	H145	0.470200	0.206300	0.188800
C2551	C255	0.395200	0.271500	0.207700
C2561	C256	0.421300	0.237200	0.212600
H1461	H146	0.416600	0.218300	0.234900
C2571	C257	0.405400	0.299000	0.177000
H1471	H147	0.389600	0.323900	0.174700
C2581	C258	0.358300	0.279100	0.237900
C2591	C259	0.436500	0.292800	0.149900
H1481	H148	0.440600	0.311700	0.127400
O751	O75	0.853500	0.753800	0.767500
O761	O76	0.836290	0.809020	0.731410
C2601	C260	0.962400	0.759100	0.654760
C2611	C261	0.953600	0.730600	0.686000
H1491	H149	0.970200	0.706300	0.688800
C2621	C262	0.895200	0.771500	0.707700
C2631	C263	0.921300	0.737200	0.712600
H1501	H150	0.916600	0.718300	0.734900
C2641	C264	0.905400	0.799000	0.677000
H1511	H151	0.889600	0.823900	0.674700
C2651	C265	0.858300	0.779100	0.737900
C2661	C266	0.936500	0.792800	0.649900
H1521	H152	0.940600	0.811700	0.627400
O771	O77	0.646500	0.753800	0.232500
O781	O78	0.663710	0.809020	0.268590
C2671	C267	0.537600	0.759100	0.345240
C2681	C268	0.546400	0.730600	0.314000
H1531	H153	0.529800	0.706300	0.311200
C2691	C269	0.604800	0.771500	0.292300
C2701	C270	0.578700	0.737200	0.287400
H1541	H154	0.583400	0.718300	0.265100
C2711	C271	0.594600	0.799000	0.323000
H1551	H155	0.610400	0.823900	0.325300
C2721	C272	0.641700	0.779100	0.262100
C2731	C273	0.563500	0.792800	0.350100
H1561	H156	0.559400	0.811700	0.372600
O791	O79	0.146500	0.253800	0.732500
O801	O80	0.163710	0.309020	0.768590
C2741	C274	0.037600	0.259100	0.845240
C2751	C275	0.046400	0.230600	0.814000
H1571	H157	0.029800	0.206300	0.811200
C2761	C276	0.104800	0.271500	0.792300
C2771	C277	0.078700	0.237200	0.787400
H1581	H158	0.083400	0.218300	0.765100
C2781	C278	0.094600	0.299000	0.823000
H1591	H159	0.110400	0.323900	0.825300
C2791	C279	0.141700	0.279100	0.762100
C2801	C280	0.063500	0.292800	0.850100
H1601	H160	0.059400	0.311700	0.872600
O811	O81	0.746200	0.767500	0.146500
O821	O82	0.690980	0.731410	0.163710
C2811	C281	0.740900	0.654760	0.037600
C2821	C282	0.769400	0.686000	0.046400
H1611	H161	0.793700	0.688800	0.029800
C2831	C283	0.728500	0.707700	0.104800
C2841	C284	0.762800	0.712600	0.078700
H1621	H162	0.781700	0.734900	0.083400
C2851	C285	0.701000	0.677000	0.094600
H1631	H163	0.676100	0.674700	0.110400
C2861	C286	0.720900	0.737900	0.141700
C2871	C287	0.707200	0.649900	0.063500
H1641	H164	0.688300	0.627400	0.059400
O831	O83	0.246200	0.267500	0.646500
O841	O84	0.190980	0.231410	0.663710
C2881	C288	0.240900	0.154760	0.537600
C2891	C289	0.269400	0.186000	0.546400
H1651	H165	0.293700	0.188800	0.529800
C2901	C290	0.228500	0.207700	0.604800
C2911	C291	0.262800	0.212600	0.578700
H1661	H166	0.281700	0.234900	0.583400
C2921	C292	0.201000	0.177000	0.594600
H1671	H167	0.176100	0.174700	0.610400
C2931	C293	0.220900	0.237900	0.641700
C2941	C294	0.207200	0.149900	0.563500
H1681	H168	0.188300	0.127400	0.559400
O851	O85	0.246200	0.732500	0.853500
O861	O86	0.190980	0.768590	0.836290
C2951	C295	0.240900	0.845240	0.962400
C2961	C296	0.269400	0.814000	0.953600
H1691	H169	0.293700	0.811200	0.970200
C2971	C297	0.228500	0.792300	0.895200
C2981	C298	0.262800	0.787400	0.921300
H1701	H170	0.281700	0.765100	0.916600
C2991	C299	0.201000	0.823000	0.905400
H1711	H171	0.176100	0.825300	0.889600
C3001	C300	0.220900	0.762100	0.858300
C3011	C301	0.207200	0.850100	0.936500
H1721	H172	0.188300	0.872600	0.940600
O871	O87	0.746200	0.232500	0.353500
O881	O88	0.690980	0.268590	0.336290
C3021	C302	0.740900	0.345240	0.462400
C3031	C303	0.769400	0.314000	0.453600
H1731	H173	0.793700	0.311200	0.470200
C3041	C304	0.728500	0.292300	0.395200
C3051	C305	0.762800	0.287400	0.421300
H1741	H174	0.781700	0.265100	0.416600
C3061	C306	0.701000	0.323000	0.405400
H1751	H175	0.676100	0.325300	0.389600
C3071	C307	0.720900	0.262100	0.358300
C3081	C308	0.707200	0.350100	0.436500
H1761	H176	0.688300	0.372600	0.440600
O891	O89	0.253800	0.267500	0.353500
O901	O90	0.309020	0.231410	0.336290
C3091	C309	0.259100	0.154760	0.462400
C3101	C310	0.230600	0.186000	0.453600
H1771	H177	0.206300	0.188800	0.470200
C3111	C311	0.271500	0.207700	0.395200
C3121	C312	0.237200	0.212600	0.421300
H1781	H178	0.218300	0.234900	0.416600
C3131	C313	0.299000	0.177000	0.405400
H1791	H179	0.323900	0.174700	0.389600
C3141	C314	0.279100	0.237900	0.358300
C3151	C315	0.292800	0.149900	0.436500
H1801	H180	0.311700	0.127400	0.440600
O911	O91	0.753800	0.767500	0.853500
O921	O92	0.809020	0.731410	0.836290
C3161	C316	0.759100	0.654760	0.962400
C3171	C317	0.730600	0.686000	0.953600
H1811	H181	0.706300	0.688800	0.970200
C3181	C318	0.771500	0.707700	0.895200
C3191	C319	0.737200	0.712600	0.921300
H1821	H182	0.718300	0.734900	0.916600
C3201	C320	0.799000	0.677000	0.905400
H1831	H183	0.823900	0.674700	0.889600
C3211	C321	0.779100	0.737900	0.858300
C3221	C322	0.792800	0.649900	0.936500
H1841	H184	0.811700	0.627400	0.940600
O931	O93	0.753800	0.232500	0.646500
O941	O94	0.809020	0.268590	0.663710
C3231	C323	0.759100	0.345240	0.537600
C3241	C324	0.730600	0.314000	0.546400
H1851	H185	0.706300	0.311200	0.529800
C3251	C325	0.771500	0.292300	0.604800
C3261	C326	0.737200	0.287400	0.578700
H1861	H186	0.718300	0.265100	0.583400
C3271	C327	0.799000	0.323000	0.594600
H1871	H187	0.823900	0.325300	0.610400
C3281	C328	0.779100	0.262100	0.641700
C3291	C329	0.792800	0.350100	0.563500
H1881	H188	0.811700	0.372600	0.559400
O951	O95	0.253800	0.732500	0.146500
O961	O96	0.309020	0.768590	0.163710
C3301	C330	0.259100	0.845240	0.037600
C3311	C331	0.230600	0.814000	0.046400
H1891	H189	0.206300	0.811200	0.029800
C3321	C332	0.271500	0.792300	0.104800
C3331	C333	0.237200	0.787400	0.078700
H1901	H190	0.218300	0.765100	0.083400
C3341	C334	0.299000	0.823000	0.094600
H1911	H191	0.323900	0.825300	0.110400
C3351	C335	0.279100	0.762100	0.141700
C3361	C336	0.292800	0.850100	0.063500
H1921	H192	0.311700	0.872600	0.059400
U11	U1	0.957550	0.542450	0.457550
U21	U2	0.457550	0.042450	0.957550
U31	U3	0.542450	0.457550	0.957550
U41	U4	0.042450	0.957550	0.457550
U51	U5	0.042450	0.042450	0.042450
U61	U6	0.542450	0.542450	0.542450
U71	U7	0.457550	0.957550	0.542450
U81	U8	0.957550	0.457550	0.042450
U91	U9	0.792450	0.207550	0.707550
U101	U10	0.292450	0.707550	0.207550
U111	U11	0.707550	0.792450	0.207550
U121	U12	0.207550	0.292450	0.707550
U131	U13	0.292450	0.292450	0.292450
U141	U14	0.792450	0.792450	0.792450
U151	U15	0.207550	0.707550	0.792450
U161	U16	0.707550	0.207550	0.292450
C3371	C337	0.750000	0.375000	0.500000
C3381	C338	0.750000	0.625000	0.000000
C3391	C339	0.250000	0.875000	0.000000
C3401	C340	0.250000	0.125000	0.500000
C3411	C341	0.500000	0.750000	0.375000
C3421	C342	0.000000	0.750000	0.625000
C3431	C343	0.000000	0.250000	0.875000
C3441	C344	0.500000	0.250000	0.125000
C3451	C345	0.375000	0.500000	0.750000
C3461	C346	0.625000	0.000000	0.750000
C3471	C347	0.875000	0.000000	0.250000
C3481	C348	0.125000	0.500000	0.250000
