data_VANNEG_clean_PM
_symmetry_space_group_name_H-M	'P1'
_cell_length_a	29.150800
_cell_length_b	29.150800
_cell_length_c	36.134900
_cell_angle_alpha	90.000000
_cell_angle_beta	90.000000
_cell_angle_gamma	120.000000
_symmetry_Int_Tables_number 1

loop_
_symmetry_equiv_pos_as_xyz
'x,y,z'

loop_
_atom_site_label
_atom_site_type_symbol
_atom_site_fract_x
_atom_site_fract_y
_atom_site_fract_z
C11	C1	0.416400	0.267300	0.642800
H11	H1	0.426800	0.263100	0.618700
C21	C2	0.370400	0.226200	0.658700
O11	O1	0.317500	0.120400	0.464800
C31	C3	0.355600	0.233000	0.692400
H21	H2	0.327200	0.204000	0.704900
C41	C4	0.428000	0.323000	0.693700
C51	C5	0.382000	0.282900	0.709100
H31	H3	0.368300	0.289300	0.731200
O21	O2	0.086700	0.081400	0.646800
C61	C6	0.445600	0.312400	0.661200
H41	H4	0.479400	0.337700	0.651800
C71	C7	0.460100	0.373800	0.712300
O31	O3	0.504100	0.406500	0.696100
O41	O4	0.446300	0.384500	0.742600
C81	C8	0.336900	0.211000	0.541500
H51	H5	0.334400	0.238300	0.528900
C91	C9	0.342200	0.212200	0.578300
H61	H6	0.344600	0.241400	0.591600
C101	C10	0.198500	0.058100	0.645400
H71	H7	0.179100	0.020500	0.645700
C111	C11	0.253500	0.084000	0.645600
H81	H8	0.272300	0.065100	0.644500
C121	C12	0.083070	0.600630	0.976130
H91	H9	0.093470	0.596430	0.952030
C131	C13	0.037070	0.559530	0.992030
O51	O5	0.984170	0.453730	0.798130
C141	C14	0.022270	0.566330	0.025730
H101	H10	0.993870	0.537330	0.038230
C151	C15	0.094670	0.656330	0.027030
C161	C16	0.048670	0.616230	0.042430
H111	H11	0.034970	0.622630	0.064530
O61	O6	0.753370	0.414730	0.980130
C171	C17	0.112270	0.645730	0.994530
H121	H12	0.146070	0.671030	0.985130
C181	C18	0.126770	0.707130	0.045630
O71	O7	0.170770	0.739830	0.029430
O81	O8	0.112970	0.717830	0.075930
C191	C19	0.003570	0.544330	0.874830
H131	H13	0.001070	0.571630	0.862230
C201	C20	0.008870	0.545530	0.911630
H141	H14	0.011270	0.574730	0.924930
C211	C21	0.865170	0.391430	0.978730
H151	H15	0.845770	0.353830	0.979030
C221	C22	0.920170	0.417330	0.978930
H161	H16	0.938970	0.398430	0.977830
C231	C23	0.749730	0.933970	0.309470
H171	H17	0.760130	0.929770	0.285370
C241	C24	0.703730	0.892870	0.325370
O91	O9	0.650830	0.787070	0.131470
C251	C25	0.688930	0.899670	0.359070
H181	H18	0.660530	0.870670	0.371570
C261	C26	0.761330	0.989670	0.360370
C271	C27	0.715330	0.949570	0.375770
H191	H19	0.701630	0.955970	0.397870
O101	O10	0.420030	0.748070	0.313470
C281	C28	0.778930	0.979070	0.327870
H201	H20	0.812730	0.004370	0.318470
C291	C29	0.793430	0.040470	0.378970
O111	O11	0.837430	0.073170	0.362770
O121	O12	0.779630	0.051170	0.409270
C301	C30	0.670230	0.877670	0.208170
H211	H21	0.667730	0.904970	0.195570
C311	C31	0.675530	0.878870	0.244970
H221	H22	0.677930	0.908070	0.258270
C321	C32	0.531830	0.724770	0.312070
H231	H23	0.512430	0.687170	0.312370
C331	C33	0.586830	0.750670	0.312270
H241	H24	0.605630	0.731770	0.311170
C341	C34	0.732700	0.149100	0.642800
H251	H25	0.736900	0.163700	0.618700
C351	C35	0.773800	0.144200	0.658700
O131	O13	0.879600	0.197100	0.464800
C361	C36	0.767000	0.122600	0.692400
H261	H26	0.796000	0.123200	0.704900
C371	C37	0.677000	0.105000	0.693700
C381	C38	0.717100	0.099100	0.709100
H271	H27	0.710700	0.079000	0.731200
O141	O14	0.918600	0.005300	0.646800
C391	C39	0.687600	0.133200	0.661200
H281	H28	0.662300	0.141700	0.651800
C401	C40	0.626200	0.086300	0.712300
O151	O15	0.593500	0.097600	0.696100
O161	O16	0.615500	0.061800	0.742600
C411	C41	0.789000	0.125900	0.541500
H291	H29	0.761700	0.096100	0.528900
C421	C42	0.787800	0.130000	0.578300
H301	H30	0.758600	0.103200	0.591600
C431	C43	0.941900	0.140400	0.645400
H311	H31	0.979500	0.158600	0.645700
C441	C44	0.916000	0.169500	0.645600
H321	H32	0.934900	0.207200	0.644500
C451	C45	0.399370	0.482430	0.976130
H331	H33	0.403570	0.497030	0.952030
C461	C46	0.440470	0.477530	0.992030
O171	O17	0.546270	0.530430	0.798130
C471	C47	0.433670	0.455930	0.025730
H341	H34	0.462670	0.456530	0.038230
C481	C48	0.343670	0.438330	0.027030
C491	C49	0.383770	0.432430	0.042430
H351	H35	0.377370	0.412330	0.064530
O181	O18	0.585270	0.338630	0.980130
C501	C50	0.354270	0.466530	0.994530
H361	H36	0.328970	0.475030	0.985130
C511	C51	0.292870	0.419630	0.045630
O191	O19	0.260170	0.430930	0.029430
O201	O20	0.282170	0.395130	0.075930
C521	C52	0.455670	0.459230	0.874830
H371	H37	0.428370	0.429430	0.862230
C531	C53	0.454470	0.463330	0.911630
H381	H38	0.425270	0.436530	0.924930
C541	C54	0.608570	0.473730	0.978730
H391	H39	0.646170	0.491930	0.979030
C551	C55	0.582670	0.502830	0.978930
H401	H40	0.601570	0.540530	0.977830
C561	C56	0.066030	0.815770	0.309470
H411	H41	0.070230	0.830370	0.285370
C571	C57	0.107130	0.810870	0.325370
O211	O21	0.212930	0.863770	0.131470
C581	C58	0.100330	0.789270	0.359070
H421	H42	0.129330	0.789870	0.371570
C591	C59	0.010330	0.771670	0.360370
C601	C60	0.050430	0.765770	0.375770
H431	H43	0.044030	0.745670	0.397870
O221	O22	0.251930	0.671970	0.313470
C611	C61	0.020930	0.799870	0.327870
H441	H44	0.995630	0.808370	0.318470
C621	C62	0.959530	0.752970	0.378970
O231	O23	0.926830	0.764270	0.362770
O241	O24	0.948830	0.728470	0.409270
C631	C63	0.122330	0.792570	0.208170
H451	H45	0.095030	0.762770	0.195570
C641	C64	0.121130	0.796670	0.244970
H461	H46	0.091930	0.769870	0.258270
C651	C65	0.275230	0.807070	0.312070
H471	H47	0.312830	0.825270	0.312370
C661	C66	0.249330	0.836170	0.312270
H481	H48	0.268230	0.873870	0.311170
C671	C67	0.850900	0.583600	0.642800
H491	H49	0.836300	0.573200	0.618700
C681	C68	0.855800	0.629600	0.658700
O251	O25	0.802900	0.682500	0.464800
C691	C69	0.877400	0.644400	0.692400
H501	H50	0.876800	0.672800	0.704900
C701	C70	0.895000	0.572000	0.693700
C711	C71	0.900900	0.618000	0.709100
H511	H51	0.921000	0.631700	0.731200
O261	O26	0.994700	0.913300	0.646800
C721	C72	0.866800	0.554400	0.661200
H521	H52	0.858300	0.520600	0.651800
C731	C73	0.913700	0.539900	0.712300
O271	O27	0.902400	0.495900	0.696100
O281	O28	0.938200	0.553700	0.742600
C741	C74	0.874100	0.663100	0.541500
H531	H53	0.903900	0.665600	0.528900
C751	C75	0.870000	0.657800	0.578300
H541	H54	0.896800	0.655400	0.591600
C761	C76	0.859600	0.801500	0.645400
H551	H55	0.841400	0.820900	0.645700
C771	C77	0.830500	0.746500	0.645600
H561	H56	0.792800	0.727700	0.644500
C781	C78	0.517570	0.916930	0.976130
H571	H57	0.502970	0.906530	0.952030
C791	C79	0.522470	0.962930	0.992030
O291	O29	0.469570	0.015830	0.798130
C801	C80	0.544070	0.977730	0.025730
H581	H58	0.543470	0.006130	0.038230
C811	C81	0.561670	0.905330	0.027030
C821	C82	0.567570	0.951330	0.042430
H591	H59	0.587670	0.965030	0.064530
O301	O30	0.661370	0.246630	0.980130
C831	C83	0.533470	0.887730	0.994530
H601	H60	0.524970	0.853930	0.985130
C841	C84	0.580370	0.873230	0.045630
O311	O31	0.569070	0.829230	0.029430
O321	O32	0.604870	0.887030	0.075930
C851	C85	0.540770	0.996430	0.874830
H611	H61	0.570570	0.998930	0.862230
C861	C86	0.536670	0.991130	0.911630
H621	H62	0.563470	0.988730	0.924930
C871	C87	0.526270	0.134830	0.978730
H631	H63	0.508070	0.154230	0.979030
C881	C88	0.497170	0.079830	0.978930
H641	H64	0.459470	0.061030	0.977830
C891	C89	0.184230	0.250270	0.309470
H651	H65	0.169630	0.239870	0.285370
C901	C90	0.189130	0.296270	0.325370
O331	O33	0.136230	0.349170	0.131470
C911	C91	0.210730	0.311070	0.359070
H661	H66	0.210130	0.339470	0.371570
C921	C92	0.228330	0.238670	0.360370
C931	C93	0.234230	0.284670	0.375770
H671	H67	0.254330	0.298370	0.397870
O341	O34	0.328030	0.579970	0.313470
C941	C94	0.200130	0.221070	0.327870
H681	H68	0.191630	0.187270	0.318470
C951	C95	0.247030	0.206570	0.378970
O351	O35	0.235730	0.162570	0.362770
O361	O36	0.271530	0.220370	0.409270
C961	C96	0.207430	0.329770	0.208170
H691	H69	0.237230	0.332270	0.195570
C971	C97	0.203330	0.324470	0.244970
H701	H70	0.230130	0.322070	0.258270
C981	C98	0.192930	0.468170	0.312070
H711	H71	0.174730	0.487570	0.312370
C991	C99	0.163830	0.413170	0.312270
H721	H72	0.126130	0.394370	0.311170
C1001	C100	0.732700	0.583600	0.642800
H731	H73	0.736900	0.573200	0.618700
C1011	C101	0.773800	0.629600	0.658700
O371	O37	0.879600	0.682500	0.464800
C1021	C102	0.767000	0.644400	0.692400
H741	H74	0.796000	0.672800	0.704900
C1031	C103	0.677000	0.572000	0.693700
C1041	C104	0.717100	0.618000	0.709100
H751	H75	0.710700	0.631700	0.731200
O381	O38	0.918600	0.913300	0.646800
C1051	C105	0.687600	0.554400	0.661200
H761	H76	0.662300	0.520600	0.651800
C1061	C106	0.626200	0.539900	0.712300
O391	O39	0.593500	0.495900	0.696100
O401	O40	0.615500	0.553700	0.742600
C1071	C107	0.789000	0.663100	0.541500
H771	H77	0.761700	0.665600	0.528900
C1081	C108	0.787800	0.657800	0.578300
H781	H78	0.758600	0.655400	0.591600
C1091	C109	0.941900	0.801500	0.645400
H791	H79	0.979500	0.820900	0.645700
C1101	C110	0.916000	0.746500	0.645600
H801	H80	0.934900	0.727700	0.644500
C1111	C111	0.399370	0.916930	0.976130
H811	H81	0.403570	0.906530	0.952030
C1121	C112	0.440470	0.962930	0.992030
O411	O41	0.546270	0.015830	0.798130
C1131	C113	0.433670	0.977730	0.025730
H821	H82	0.462670	0.006130	0.038230
C1141	C114	0.343670	0.905330	0.027030
C1151	C115	0.383770	0.951330	0.042430
H831	H83	0.377370	0.965030	0.064530
O421	O42	0.585270	0.246630	0.980130
C1161	C116	0.354270	0.887730	0.994530
H841	H84	0.328970	0.853930	0.985130
C1171	C117	0.292870	0.873230	0.045630
O431	O43	0.260170	0.829230	0.029430
O441	O44	0.282170	0.887030	0.075930
C1181	C118	0.455670	0.996430	0.874830
H851	H85	0.428370	0.998930	0.862230
C1191	C119	0.454470	0.991130	0.911630
H861	H86	0.425270	0.988730	0.924930
C1201	C120	0.608570	0.134830	0.978730
H871	H87	0.646170	0.154230	0.979030
C1211	C121	0.582670	0.079830	0.978930
H881	H88	0.601570	0.061030	0.977830
C1221	C122	0.066030	0.250270	0.309470
H891	H89	0.070230	0.239870	0.285370
C1231	C123	0.107130	0.296270	0.325370
O451	O45	0.212930	0.349170	0.131470
C1241	C124	0.100330	0.311070	0.359070
H901	H90	0.129330	0.339470	0.371570
C1251	C125	0.010330	0.238670	0.360370
C1261	C126	0.050430	0.284670	0.375770
H911	H91	0.044030	0.298370	0.397870
O461	O46	0.251930	0.579970	0.313470
C1271	C127	0.020930	0.221070	0.327870
H921	H92	0.995630	0.187270	0.318470
C1281	C128	0.959530	0.206570	0.378970
O471	O47	0.926830	0.162570	0.362770
O481	O48	0.948830	0.220370	0.409270
C1291	C129	0.122330	0.329770	0.208170
H931	H93	0.095030	0.332270	0.195570
C1301	C130	0.121130	0.324470	0.244970
H941	H94	0.091930	0.322070	0.258270
C1311	C131	0.275230	0.468170	0.312070
H951	H95	0.312830	0.487570	0.312370
C1321	C132	0.249330	0.413170	0.312270
H961	H96	0.268230	0.394370	0.311170
C1331	C133	0.850900	0.267300	0.642800
H971	H97	0.836300	0.263100	0.618700
C1341	C134	0.855800	0.226200	0.658700
O491	O49	0.802900	0.120400	0.464800
C1351	C135	0.877400	0.233000	0.692400
H981	H98	0.876800	0.204000	0.704900
C1361	C136	0.895000	0.323000	0.693700
C1371	C137	0.900900	0.282900	0.709100
H991	H99	0.921000	0.289300	0.731200
O501	O50	0.994700	0.081400	0.646800
C1381	C138	0.866800	0.312400	0.661200
H1001	H100	0.858300	0.337700	0.651800
C1391	C139	0.913700	0.373800	0.712300
O511	O51	0.902400	0.406500	0.696100
O521	O52	0.938200	0.384500	0.742600
C1401	C140	0.874100	0.211000	0.541500
H1011	H101	0.903900	0.238300	0.528900
C1411	C141	0.870000	0.212200	0.578300
H1021	H102	0.896800	0.241400	0.591600
C1421	C142	0.859600	0.058100	0.645400
H1031	H103	0.841400	0.020500	0.645700
C1431	C143	0.830500	0.084000	0.645600
H1041	H104	0.792800	0.065100	0.644500
C1441	C144	0.517570	0.600630	0.976130
H1051	H105	0.502970	0.596430	0.952030
C1451	C145	0.522470	0.559530	0.992030
O531	O53	0.469570	0.453730	0.798130
C1461	C146	0.544070	0.566330	0.025730
H1061	H106	0.543470	0.537330	0.038230
C1471	C147	0.561670	0.656330	0.027030
C1481	C148	0.567570	0.616230	0.042430
H1071	H107	0.587670	0.622630	0.064530
O541	O54	0.661370	0.414730	0.980130
C1491	C149	0.533470	0.645730	0.994530
H1081	H108	0.524970	0.671030	0.985130
C1501	C150	0.580370	0.707130	0.045630
O551	O55	0.569070	0.739830	0.029430
O561	O56	0.604870	0.717830	0.075930
C1511	C151	0.540770	0.544330	0.874830
H1091	H109	0.570570	0.571630	0.862230
C1521	C152	0.536670	0.545530	0.911630
H1101	H110	0.563470	0.574730	0.924930
C1531	C153	0.526270	0.391430	0.978730
H1111	H111	0.508070	0.353830	0.979030
C1541	C154	0.497170	0.417330	0.978930
H1121	H112	0.459470	0.398430	0.977830
C1551	C155	0.184230	0.933970	0.309470
H1131	H113	0.169630	0.929770	0.285370
C1561	C156	0.189130	0.892870	0.325370
O571	O57	0.136230	0.787070	0.131470
C1571	C157	0.210730	0.899670	0.359070
H1141	H114	0.210130	0.870670	0.371570
C1581	C158	0.228330	0.989670	0.360370
C1591	C159	0.234230	0.949570	0.375770
H1151	H115	0.254330	0.955970	0.397870
O581	O58	0.328030	0.748070	0.313470
C1601	C160	0.200130	0.979070	0.327870
H1161	H116	0.191630	0.004370	0.318470
C1611	C161	0.247030	0.040470	0.378970
O591	O59	0.235730	0.073170	0.362770
O601	O60	0.271530	0.051170	0.409270
C1621	C162	0.207430	0.877670	0.208170
H1171	H117	0.237230	0.904970	0.195570
C1631	C163	0.203330	0.878870	0.244970
H1181	H118	0.230130	0.908070	0.258270
C1641	C164	0.192930	0.724770	0.312070
H1191	H119	0.174730	0.687170	0.312370
C1651	C165	0.163830	0.750670	0.312270
H1201	H120	0.126130	0.731770	0.311170
C1661	C166	0.416400	0.149100	0.642800
H1211	H121	0.426800	0.163700	0.618700
C1671	C167	0.370400	0.144200	0.658700
O611	O61	0.317500	0.197100	0.464800
C1681	C168	0.355600	0.122600	0.692400
H1221	H122	0.327200	0.123200	0.704900
C1691	C169	0.428000	0.105000	0.693700
C1701	C170	0.382000	0.099100	0.709100
H1231	H123	0.368300	0.079000	0.731200
O621	O62	0.086700	0.005300	0.646800
C1711	C171	0.445600	0.133200	0.661200
H1241	H124	0.479400	0.141700	0.651800
C1721	C172	0.460100	0.086300	0.712300
O631	O63	0.504100	0.097600	0.696100
O641	O64	0.446300	0.061800	0.742600
C1731	C173	0.336900	0.125900	0.541500
H1251	H125	0.334400	0.096100	0.528900
C1741	C174	0.342200	0.130000	0.578300
H1261	H126	0.344600	0.103200	0.591600
C1751	C175	0.198500	0.140400	0.645400
H1271	H127	0.179100	0.158600	0.645700
C1761	C176	0.253500	0.169500	0.645600
H1281	H128	0.272300	0.207200	0.644500
C1771	C177	0.083070	0.482430	0.976130
H1291	H129	0.093470	0.497030	0.952030
C1781	C178	0.037070	0.477530	0.992030
O651	O65	0.984170	0.530430	0.798130
C1791	C179	0.022270	0.455930	0.025730
H1301	H130	0.993870	0.456530	0.038230
C1801	C180	0.094670	0.438330	0.027030
C1811	C181	0.048670	0.432430	0.042430
H1311	H131	0.034970	0.412330	0.064530
O661	O66	0.753370	0.338630	0.980130
C1821	C182	0.112270	0.466530	0.994530
H1321	H132	0.146070	0.475030	0.985130
C1831	C183	0.126770	0.419630	0.045630
O671	O67	0.170770	0.430930	0.029430
O681	O68	0.112970	0.395130	0.075930
C1841	C184	0.003570	0.459230	0.874830
H1331	H133	0.001070	0.429430	0.862230
C1851	C185	0.008870	0.463330	0.911630
H1341	H134	0.011270	0.436530	0.924930
C1861	C186	0.865170	0.473730	0.978730
H1351	H135	0.845770	0.491930	0.979030
C1871	C187	0.920170	0.502830	0.978930
H1361	H136	0.938970	0.540530	0.977830
C1881	C188	0.749730	0.815770	0.309470
H1371	H137	0.760130	0.830370	0.285370
C1891	C189	0.703730	0.810870	0.325370
O691	O69	0.650830	0.863770	0.131470
C1901	C190	0.688930	0.789270	0.359070
H1381	H138	0.660530	0.789870	0.371570
C1911	C191	0.761330	0.771670	0.360370
C1921	C192	0.715330	0.765770	0.375770
H1391	H139	0.701630	0.745670	0.397870
O701	O70	0.420030	0.671970	0.313470
C1931	C193	0.778930	0.799870	0.327870
H1401	H140	0.812730	0.808370	0.318470
C1941	C194	0.793430	0.752970	0.378970
O711	O71	0.837430	0.764270	0.362770
O721	O72	0.779630	0.728470	0.409270
C1951	C195	0.670230	0.792570	0.208170
H1411	H141	0.667730	0.762770	0.195570
C1961	C196	0.675530	0.796670	0.244970
H1421	H142	0.677930	0.769870	0.258270
C1971	C197	0.531830	0.807070	0.312070
H1431	H143	0.512430	0.825270	0.312370
C1981	C198	0.586830	0.836170	0.312270
H1441	H144	0.605630	0.873870	0.311170
U11	U1	0.000000	0.000000	0.644680
U21	U2	0.666670	0.333330	0.978010
U31	U3	0.333330	0.666670	0.311350
U41	U4	0.528090	0.471910	0.744920
U51	U5	0.194760	0.805240	0.078250
U61	U6	0.861420	0.138580	0.411590
U71	U7	0.528090	0.056180	0.744920
U81	U8	0.194760	0.389510	0.078250
U91	U9	0.861420	0.722850	0.411590
U101	U10	0.943820	0.471910	0.744920
U111	U11	0.610490	0.805240	0.078250
U121	U12	0.277150	0.138580	0.411590
C1991	C199	0.342300	0.171150	0.642200
C2001	C200	0.344100	0.172050	0.597600
C2011	C201	0.170800	0.085400	0.644700
C2021	C202	0.111300	0.055650	0.646300
C2031	C203	0.280000	0.140000	0.647500
C2041	C204	0.335100	0.167550	0.521100
C2051	C205	0.325300	0.162650	0.482500
C2061	C206	0.008970	0.504480	0.975530
C2071	C207	0.010770	0.505380	0.930930
C2081	C208	0.837470	0.418730	0.978030
C2091	C209	0.777970	0.388980	0.979630
C2101	C210	0.946670	0.473330	0.980830
C2111	C211	0.001770	0.500880	0.854430
C2121	C212	0.991970	0.495980	0.815830
C2131	C213	0.675630	0.837820	0.308870
C2141	C214	0.677430	0.838720	0.264270
C2151	C215	0.504130	0.752070	0.311370
C2161	C216	0.444630	0.722320	0.312970
C2171	C217	0.613330	0.806670	0.314170
C2181	C218	0.668430	0.834220	0.187770
C2191	C219	0.658630	0.829320	0.149170
C2201	C220	0.828850	0.171150	0.642200
C2211	C221	0.827950	0.172050	0.597600
C2221	C222	0.914600	0.085400	0.644700
C2231	C223	0.944350	0.055650	0.646300
C2241	C224	0.860000	0.140000	0.647500
C2251	C225	0.832450	0.167550	0.521100
C2261	C226	0.837350	0.162650	0.482500
C2271	C227	0.495520	0.504480	0.975530
C2281	C228	0.494620	0.505380	0.930930
C2291	C229	0.581270	0.418730	0.978030
C2301	C230	0.611020	0.388980	0.979630
C2311	C231	0.526670	0.473330	0.980830
C2321	C232	0.499120	0.500880	0.854430
C2331	C233	0.504020	0.495980	0.815830
C2341	C234	0.162180	0.837820	0.308870
C2351	C235	0.161280	0.838720	0.264270
C2361	C236	0.247930	0.752070	0.311370
C2371	C237	0.277680	0.722320	0.312970
C2381	C238	0.193330	0.806670	0.314170
C2391	C239	0.165780	0.834220	0.187770
C2401	C240	0.170680	0.829320	0.149170
C2411	C241	0.828850	0.657700	0.642200
C2421	C242	0.827950	0.655900	0.597600
C2431	C243	0.914600	0.829200	0.644700
C2441	C244	0.944350	0.888700	0.646300
C2451	C245	0.860000	0.720000	0.647500
C2461	C246	0.832450	0.664900	0.521100
C2471	C247	0.837350	0.674700	0.482500
C2481	C248	0.495520	0.991030	0.975530
C2491	C249	0.494620	0.989230	0.930930
C2501	C250	0.581270	0.162530	0.978030
C2511	C251	0.611020	0.222030	0.979630
C2521	C252	0.526670	0.053330	0.980830
C2531	C253	0.499120	0.998230	0.854430
C2541	C254	0.504020	0.008030	0.815830
C2551	C255	0.162180	0.324370	0.308870
C2561	C256	0.161280	0.322570	0.264270
C2571	C257	0.247930	0.495870	0.311370
C2581	C258	0.277680	0.555370	0.312970
C2591	C259	0.193330	0.386670	0.314170
C2601	C260	0.165780	0.331570	0.187770
C2611	C261	0.170680	0.341370	0.149170
O731	O73	0.661600	0.415000	0.399800
C2621	C262	0.288300	0.407600	0.441100
C2631	C263	0.341100	0.431900	0.425200
O741	O74	0.277300	0.384500	0.471400
C2641	C264	0.350700	0.457600	0.391500
H1451	H145	0.323100	0.459400	0.378800
O751	O75	0.252100	0.411900	0.423500
C2651	C265	0.441500	0.474800	0.392400
C2661	C266	0.403200	0.481500	0.375800
H1461	H146	0.411100	0.501900	0.353800
O761	O76	0.470500	0.456000	0.198100
C2671	C267	0.431000	0.450600	0.426800
H1471	H147	0.458400	0.449200	0.440000
C2681	C268	0.528700	0.391700	0.391100
H1481	H148	0.510900	0.354100	0.389600
C2691	C269	0.500900	0.417000	0.389100
H1491	H149	0.463300	0.397800	0.390000
C2701	C270	0.381200	0.428600	0.441900
H1501	H150	0.374400	0.410400	0.464900
C2711	C271	0.458200	0.459900	0.314200
H1511	H151	0.427800	0.433500	0.326900
C2721	C272	0.463500	0.456100	0.276700
H1521	H152	0.439800	0.424100	0.264400
O771	O77	0.328270	0.748330	0.733130
C2731	C273	0.954970	0.740930	0.774430
C2741	C274	0.007770	0.765230	0.758530
O781	O78	0.943970	0.717830	0.804730
C2751	C275	0.017370	0.790930	0.724830
H1531	H153	0.989770	0.792730	0.712130
O791	O79	0.918770	0.745230	0.756830
C2761	C276	0.108170	0.808130	0.725730
C2771	C277	0.069870	0.814830	0.709130
H1541	H154	0.077770	0.835230	0.687130
O801	O80	0.137170	0.789330	0.531430
C2781	C278	0.097670	0.783930	0.760130
H1551	H155	0.125070	0.782530	0.773330
C2791	C279	0.195370	0.725030	0.724430
H1561	H156	0.177570	0.687430	0.722930
C2801	C280	0.167570	0.750330	0.722430
H1571	H157	0.129970	0.731130	0.723330
C2811	C281	0.047870	0.761930	0.775230
H1581	H158	0.041070	0.743730	0.798230
C2821	C282	0.124870	0.793230	0.647530
H1591	H159	0.094470	0.766830	0.660230
C2831	C283	0.130170	0.789430	0.610030
H1601	H160	0.106470	0.757430	0.597730
O811	O81	0.994930	0.081670	0.066470
C2841	C284	0.621630	0.074270	0.107770
C2851	C285	0.674430	0.098570	0.091870
O821	O82	0.610630	0.051170	0.138070
C2861	C286	0.684030	0.124270	0.058170
H1611	H161	0.656430	0.126070	0.045470
O831	O83	0.585430	0.078570	0.090170
C2871	C287	0.774830	0.141470	0.059070
C2881	C288	0.736530	0.148170	0.042470
H1621	H162	0.744430	0.168570	0.020470
O841	O84	0.803830	0.122670	0.864770
C2891	C289	0.764330	0.117270	0.093470
H1631	H163	0.791730	0.115870	0.106670
C2901	C290	0.862030	0.058370	0.057770
H1641	H164	0.844230	0.020770	0.056270
C2911	C291	0.834230	0.083670	0.055770
H1651	H165	0.796630	0.064470	0.056670
C2921	C292	0.714530	0.095270	0.108570
H1661	H166	0.707730	0.077070	0.131570
C2931	C293	0.791530	0.126570	0.980870
H1671	H167	0.761130	0.100170	0.993570
C2941	C294	0.796830	0.122770	0.943370
H1681	H168	0.773130	0.090770	0.931070
O851	O85	0.585000	0.246600	0.399800
C2951	C295	0.592400	0.880700	0.441100
C2961	C296	0.568100	0.909200	0.425200
O861	O86	0.615500	0.892800	0.471400
C2971	C297	0.542400	0.893100	0.391500
H1691	H169	0.540600	0.863700	0.378800
O871	O87	0.588100	0.840200	0.423500
C2981	C298	0.525200	0.966700	0.392400
C2991	C299	0.518500	0.921700	0.375800
H1701	H170	0.498100	0.909200	0.353800
O881	O88	0.544000	0.014500	0.198100
C3001	C300	0.549400	0.980400	0.426800
H1711	H171	0.550800	0.009200	0.440000
C3011	C301	0.608300	0.137000	0.391100
H1721	H172	0.645900	0.156800	0.389600
C3021	C302	0.583000	0.083900	0.389100
H1731	H173	0.602200	0.065500	0.390000
C3031	C303	0.571400	0.952600	0.441900
H1741	H174	0.589600	0.964000	0.464900
C3041	C304	0.540100	0.998300	0.314200
H1751	H175	0.566500	0.994300	0.326900
C3051	C305	0.543900	0.007400	0.276700
H1761	H176	0.575900	0.015700	0.264400
O891	O89	0.251670	0.579930	0.733130
C3061	C306	0.259070	0.214030	0.774430
C3071	C307	0.234770	0.242530	0.758530
O901	O90	0.282170	0.226130	0.804730
C3081	C308	0.209070	0.226430	0.724830
H1771	H177	0.207270	0.197030	0.712130
O911	O91	0.254770	0.173530	0.756830
C3091	C309	0.191870	0.300030	0.725730
C3101	C310	0.185170	0.255030	0.709130
H1781	H178	0.164770	0.242530	0.687130
O921	O92	0.210670	0.347830	0.531430
C3111	C311	0.216070	0.313730	0.760130
H1791	H179	0.217470	0.342530	0.773330
C3121	C312	0.274970	0.470330	0.724430
H1801	H180	0.312570	0.490130	0.722930
C3131	C313	0.249670	0.417230	0.722430
H1811	H181	0.268870	0.398830	0.723330
C3141	C314	0.238070	0.285930	0.775230
H1821	H182	0.256270	0.297330	0.798230
C3151	C315	0.206770	0.331630	0.647530
H1831	H183	0.233170	0.327630	0.660230
C3161	C316	0.210570	0.340730	0.610030
H1841	H184	0.242570	0.349030	0.597730
O931	O93	0.918330	0.913270	0.066470
C3171	C317	0.925730	0.547370	0.107770
C3181	C318	0.901430	0.575870	0.091870
O941	O94	0.948830	0.559470	0.138070
C3191	C319	0.875730	0.559770	0.058170
H1851	H185	0.873930	0.530370	0.045470
O951	O95	0.921430	0.506870	0.090170
C3201	C320	0.858530	0.633370	0.059070
C3211	C321	0.851830	0.588370	0.042470
H1861	H186	0.831430	0.575870	0.020470
O961	O96	0.877330	0.681170	0.864770
C3221	C322	0.882730	0.647070	0.093470
H1871	H187	0.884130	0.675870	0.106670
C3231	C323	0.941630	0.803670	0.057770
H1881	H188	0.979230	0.823470	0.056270
C3241	C324	0.916330	0.750570	0.055770
H1891	H189	0.935530	0.732170	0.056670
C3251	C325	0.904730	0.619270	0.108570
H1901	H190	0.922930	0.630670	0.131570
C3261	C326	0.873430	0.664970	0.980870
H1911	H191	0.899830	0.660970	0.993570
C3271	C327	0.877230	0.674070	0.943370
H1921	H192	0.909230	0.682370	0.931070
O971	O97	0.753400	0.338400	0.399800
C3281	C328	0.119300	0.711700	0.441100
C3291	C329	0.090800	0.658900	0.425200
O981	O98	0.107200	0.722700	0.471400
C3301	C330	0.106900	0.649300	0.391500
H1931	H193	0.136300	0.676900	0.378800
O991	O99	0.159800	0.747900	0.423500
C3311	C331	0.033300	0.558500	0.392400
C3321	C332	0.078300	0.596800	0.375800
H1941	H194	0.090800	0.588900	0.353800
O1001	O100	0.985500	0.529500	0.198100
C3331	C333	0.019600	0.569000	0.426800
H1951	H195	0.990800	0.541600	0.440000
C3341	C334	0.863000	0.471300	0.391100
H1961	H196	0.843200	0.489100	0.389600
C3351	C335	0.916100	0.499100	0.389100
H1971	H197	0.934500	0.536700	0.390000
C3361	C336	0.047400	0.618800	0.441900
H1981	H198	0.036000	0.625600	0.464900
C3371	C337	0.001700	0.541800	0.314200
H1991	H199	0.005700	0.572200	0.326900
C3381	C338	0.992600	0.536500	0.276700
H2001	H200	0.984300	0.560200	0.264400
O1011	O101	0.420070	0.671730	0.733130
C3391	C339	0.785970	0.045030	0.774430
C3401	C340	0.757470	0.992230	0.758530
O1021	O102	0.773870	0.056030	0.804730
C3411	C341	0.773570	0.982630	0.724830
H2011	H201	0.802970	0.010230	0.712130
O1031	O103	0.826470	0.081230	0.756830
C3421	C342	0.699970	0.891830	0.725730
C3431	C343	0.744970	0.930130	0.709130
H2021	H202	0.757470	0.922230	0.687130
O1041	O104	0.652170	0.862830	0.531430
C3441	C344	0.686270	0.902330	0.760130
H2031	H203	0.657470	0.874930	0.773330
C3451	C345	0.529670	0.804630	0.724430
H2041	H204	0.509870	0.822430	0.722930
C3461	C346	0.582770	0.832430	0.722430
H2051	H205	0.601170	0.870030	0.723330
C3471	C347	0.714070	0.952130	0.775230
H2061	H206	0.702670	0.958930	0.798230
C3481	C348	0.668370	0.875130	0.647530
H2071	H207	0.672370	0.905530	0.660230
C3491	C349	0.659270	0.869830	0.610030
H2081	H208	0.650970	0.893530	0.597730
O1051	O105	0.086730	0.005070	0.066470
C3501	C350	0.452630	0.378370	0.107770
C3511	C351	0.424130	0.325570	0.091870
O1061	O106	0.440530	0.389370	0.138070
C3521	C352	0.440230	0.315970	0.058170
H2091	H209	0.469630	0.343570	0.045470
O1071	O107	0.493130	0.414570	0.090170
C3531	C353	0.366630	0.225170	0.059070
C3541	C354	0.411630	0.263470	0.042470
H2101	H210	0.424130	0.255570	0.020470
O1081	O108	0.318830	0.196170	0.864770
C3551	C355	0.352930	0.235670	0.093470
H2111	H211	0.324130	0.208270	0.106670
C3561	C356	0.196330	0.137970	0.057770
H2121	H212	0.176530	0.155770	0.056270
C3571	C357	0.249430	0.165770	0.055770
H2131	H213	0.267830	0.203370	0.056670
C3581	C358	0.380730	0.285470	0.108570
H2141	H214	0.369330	0.292270	0.131570
C3591	C359	0.335030	0.208470	0.980870
H2151	H215	0.339030	0.238870	0.993570
C3601	C360	0.325930	0.203170	0.943370
H2161	H216	0.317630	0.226870	0.931070
O1091	O109	0.585000	0.338400	0.399800
C3611	C361	0.592400	0.711700	0.441100
C3621	C362	0.568100	0.658900	0.425200
O1101	O110	0.615500	0.722700	0.471400
C3631	C363	0.542400	0.649300	0.391500
H2171	H217	0.540600	0.676900	0.378800
O1111	O111	0.588100	0.747900	0.423500
C3641	C364	0.525200	0.558500	0.392400
C3651	C365	0.518500	0.596800	0.375800
H2181	H218	0.498100	0.588900	0.353800
O1121	O112	0.544000	0.529500	0.198100
C3661	C366	0.549400	0.569000	0.426800
H2191	H219	0.550800	0.541600	0.440000
C3671	C367	0.608300	0.471300	0.391100
H2201	H220	0.645900	0.489100	0.389600
C3681	C368	0.583000	0.499100	0.389100
H2211	H221	0.602200	0.536700	0.390000
C3691	C369	0.571400	0.618800	0.441900
H2221	H222	0.589600	0.625600	0.464900
C3701	C370	0.540100	0.541800	0.314200
H2231	H223	0.566500	0.572200	0.326900
C3711	C371	0.543900	0.536500	0.276700
H2241	H224	0.575900	0.560200	0.264400
O1131	O113	0.251670	0.671730	0.733130
C3721	C372	0.259070	0.045030	0.774430
C3731	C373	0.234770	0.992230	0.758530
O1141	O114	0.282170	0.056030	0.804730
C3741	C374	0.209070	0.982630	0.724830
H2251	H225	0.207270	0.010230	0.712130
O1151	O115	0.254770	0.081230	0.756830
C3751	C375	0.191870	0.891830	0.725730
C3761	C376	0.185170	0.930130	0.709130
H2261	H226	0.164770	0.922230	0.687130
O1161	O116	0.210670	0.862830	0.531430
C3771	C377	0.216070	0.902330	0.760130
H2271	H227	0.217470	0.874930	0.773330
C3781	C378	0.274970	0.804630	0.724430
H2281	H228	0.312570	0.822430	0.722930
C3791	C379	0.249670	0.832430	0.722430
H2291	H229	0.268870	0.870030	0.723330
C3801	C380	0.238070	0.952130	0.775230
H2301	H230	0.256270	0.958930	0.798230
C3811	C381	0.206770	0.875130	0.647530
H2311	H231	0.233170	0.905530	0.660230
C3821	C382	0.210570	0.869830	0.610030
H2321	H232	0.242570	0.893530	0.597730
O1171	O117	0.918330	0.005070	0.066470
C3831	C383	0.925730	0.378370	0.107770
C3841	C384	0.901430	0.325570	0.091870
O1181	O118	0.948830	0.389370	0.138070
C3851	C385	0.875730	0.315970	0.058170
H2331	H233	0.873930	0.343570	0.045470
O1191	O119	0.921430	0.414570	0.090170
C3861	C386	0.858530	0.225170	0.059070
C3871	C387	0.851830	0.263470	0.042470
H2341	H234	0.831430	0.255570	0.020470
O1201	O120	0.877330	0.196170	0.864770
C3881	C388	0.882730	0.235670	0.093470
H2351	H235	0.884130	0.208270	0.106670
C3891	C389	0.941630	0.137970	0.057770
H2361	H236	0.979230	0.155770	0.056270
C3901	C390	0.916330	0.165770	0.055770
H2371	H237	0.935530	0.203370	0.056670
C3911	C391	0.904730	0.285470	0.108570
H2381	H238	0.922930	0.292270	0.131570
C3921	C392	0.873430	0.208470	0.980870
H2391	H239	0.899830	0.238870	0.993570
C3931	C393	0.877230	0.203170	0.943370
H2401	H240	0.909230	0.226870	0.931070
O1211	O121	0.753400	0.415000	0.399800
C3941	C394	0.119300	0.407600	0.441100
C3951	C395	0.090800	0.431900	0.425200
O1221	O122	0.107200	0.384500	0.471400
C3961	C396	0.106900	0.457600	0.391500
H2411	H241	0.136300	0.459400	0.378800
O1231	O123	0.159800	0.411900	0.423500
C3971	C397	0.033300	0.474800	0.392400
C3981	C398	0.078300	0.481500	0.375800
H2421	H242	0.090800	0.501900	0.353800
O1241	O124	0.985500	0.456000	0.198100
C3991	C399	0.019600	0.450600	0.426800
H2431	H243	0.990800	0.449200	0.440000
C4001	C400	0.863000	0.391700	0.391100
H2441	H244	0.843200	0.354100	0.389600
C4011	C401	0.916100	0.417000	0.389100
H2451	H245	0.934500	0.397800	0.390000
C4021	C402	0.047400	0.428600	0.441900
H2461	H246	0.036000	0.410400	0.464900
C4031	C403	0.001700	0.459900	0.314200
H2471	H247	0.005700	0.433500	0.326900
C4041	C404	0.992600	0.456100	0.276700
H2481	H248	0.984300	0.424100	0.264400
O1251	O125	0.420070	0.748330	0.733130
C4051	C405	0.785970	0.740930	0.774430
C4061	C406	0.757470	0.765230	0.758530
O1261	O126	0.773870	0.717830	0.804730
C4071	C407	0.773570	0.790930	0.724830
H2491	H249	0.802970	0.792730	0.712130
O1271	O127	0.826470	0.745230	0.756830
C4081	C408	0.699970	0.808130	0.725730
C4091	C409	0.744970	0.814830	0.709130
H2501	H250	0.757470	0.835230	0.687130
O1281	O128	0.652170	0.789330	0.531430
C4101	C410	0.686270	0.783930	0.760130
H2511	H251	0.657470	0.782530	0.773330
C4111	C411	0.529670	0.725030	0.724430
H2521	H252	0.509870	0.687430	0.722930
C4121	C412	0.582770	0.750330	0.722430
H2531	H253	0.601170	0.731130	0.723330
C4131	C413	0.714070	0.761930	0.775230
H2541	H254	0.702670	0.743730	0.798230
C4141	C414	0.668370	0.793230	0.647530
H2551	H255	0.672370	0.766830	0.660230
C4151	C415	0.659270	0.789430	0.610030
H2561	H256	0.650970	0.757430	0.597730
O1291	O129	0.086730	0.081670	0.066470
C4161	C416	0.452630	0.074270	0.107770
C4171	C417	0.424130	0.098570	0.091870
O1301	O130	0.440530	0.051170	0.138070
C4181	C418	0.440230	0.124270	0.058170
H2571	H257	0.469630	0.126070	0.045470
O1311	O131	0.493130	0.078570	0.090170
C4191	C419	0.366630	0.141470	0.059070
C4201	C420	0.411630	0.148170	0.042470
H2581	H258	0.424130	0.168570	0.020470
O1321	O132	0.318830	0.122670	0.864770
C4211	C421	0.352930	0.117270	0.093470
H2591	H259	0.324130	0.115870	0.106670
C4221	C422	0.196330	0.058370	0.057770
H2601	H260	0.176530	0.020770	0.056270
C4231	C423	0.249430	0.083670	0.055770
H2611	H261	0.267830	0.064470	0.056670
C4241	C424	0.380730	0.095270	0.108570
H2621	H262	0.369330	0.077070	0.131570
C4251	C425	0.335030	0.126570	0.980870
H2631	H263	0.339030	0.100170	0.993570
C4261	C426	0.325930	0.122770	0.943370
H2641	H264	0.317630	0.090770	0.931070
O1331	O133	0.661600	0.246600	0.399800
C4271	C427	0.288300	0.880700	0.441100
C4281	C428	0.341100	0.909200	0.425200
O1341	O134	0.277300	0.892800	0.471400
C4291	C429	0.350700	0.893100	0.391500
H2651	H265	0.323100	0.863700	0.378800
O1351	O135	0.252100	0.840200	0.423500
C4301	C430	0.441500	0.966700	0.392400
C4311	C431	0.403200	0.921700	0.375800
H2661	H266	0.411100	0.909200	0.353800
O1361	O136	0.470500	0.014500	0.198100
C4321	C432	0.431000	0.980400	0.426800
H2671	H267	0.458400	0.009200	0.440000
C4331	C433	0.528700	0.137000	0.391100
H2681	H268	0.510900	0.156800	0.389600
C4341	C434	0.500900	0.083900	0.389100
H2691	H269	0.463300	0.065500	0.390000
C4351	C435	0.381200	0.952600	0.441900
H2701	H270	0.374400	0.964000	0.464900
C4361	C436	0.458200	0.998300	0.314200
H2711	H271	0.427800	0.994300	0.326900
C4371	C437	0.463500	0.007400	0.276700
H2721	H272	0.439800	0.015700	0.264400
O1371	O137	0.328270	0.579930	0.733130
C4381	C438	0.954970	0.214030	0.774430
C4391	C439	0.007770	0.242530	0.758530
O1381	O138	0.943970	0.226130	0.804730
C4401	C440	0.017370	0.226430	0.724830
H2731	H273	0.989770	0.197030	0.712130
O1391	O139	0.918770	0.173530	0.756830
C4411	C441	0.108170	0.300030	0.725730
C4421	C442	0.069870	0.255030	0.709130
H2741	H274	0.077770	0.242530	0.687130
O1401	O140	0.137170	0.347830	0.531430
C4431	C443	0.097670	0.313730	0.760130
H2751	H275	0.125070	0.342530	0.773330
C4441	C444	0.195370	0.470330	0.724430
H2761	H276	0.177570	0.490130	0.722930
C4451	C445	0.167570	0.417230	0.722430
H2771	H277	0.129970	0.398830	0.723330
C4461	C446	0.047870	0.285930	0.775230
H2781	H278	0.041070	0.297330	0.798230
C4471	C447	0.124870	0.331630	0.647530
H2791	H279	0.094470	0.327630	0.660230
C4481	C448	0.130170	0.340730	0.610030
H2801	H280	0.106470	0.349030	0.597730
O1411	O141	0.994930	0.913270	0.066470
C4491	C449	0.621630	0.547370	0.107770
C4501	C450	0.674430	0.575870	0.091870
O1421	O142	0.610630	0.559470	0.138070
C4511	C451	0.684030	0.559770	0.058170
H2811	H281	0.656430	0.530370	0.045470
O1431	O143	0.585430	0.506870	0.090170
C4521	C452	0.774830	0.633370	0.059070
C4531	C453	0.736530	0.588370	0.042470
H2821	H282	0.744430	0.575870	0.020470
O1441	O144	0.803830	0.681170	0.864770
C4541	C454	0.764330	0.647070	0.093470
H2831	H283	0.791730	0.675870	0.106670
C4551	C455	0.862030	0.803670	0.057770
H2841	H284	0.844230	0.823470	0.056270
C4561	C456	0.834230	0.750570	0.055770
H2851	H285	0.796630	0.732170	0.056670
C4571	C457	0.714530	0.619270	0.108570
H2861	H286	0.707730	0.630670	0.131570
C4581	C458	0.791530	0.664970	0.980870
H2871	H287	0.761130	0.660970	0.993570
C4591	C459	0.796830	0.674070	0.943370
H2881	H288	0.773130	0.682370	0.931070
C4601	C460	0.528400	0.471600	0.385900
C4611	C461	0.497500	0.502500	0.376700
C4621	C462	0.581000	0.419000	0.395000
C4631	C463	0.611700	0.388300	0.399300
C4641	C464	0.497600	0.502400	0.333500
C4651	C465	0.502300	0.497700	0.256600
C4661	C466	0.503200	0.496800	0.213900
C4671	C467	0.195070	0.804930	0.719230
C4681	C468	0.164170	0.835830	0.710030
C4691	C469	0.247670	0.752330	0.728330
C4701	C470	0.278370	0.721630	0.732630
C4711	C471	0.164270	0.835730	0.666830
C4721	C472	0.168970	0.831030	0.589930
C4731	C473	0.169870	0.830130	0.547230
C4741	C474	0.861730	0.138270	0.052570
C4751	C475	0.830830	0.169170	0.043370
C4761	C476	0.914330	0.085670	0.061670
C4771	C477	0.945030	0.054970	0.065970
C4781	C478	0.830930	0.169070	0.000170
C4791	C479	0.835630	0.164370	0.923270
C4801	C480	0.836530	0.163470	0.880570
C4811	C481	0.528400	0.056800	0.385900
C4821	C482	0.497500	0.995000	0.376700
C4831	C483	0.581000	0.162000	0.395000
C4841	C484	0.611700	0.223400	0.399300
C4851	C485	0.497600	0.995200	0.333500
C4861	C486	0.502300	0.004600	0.256600
C4871	C487	0.503200	0.006400	0.213900
C4881	C488	0.195070	0.390130	0.719230
C4891	C489	0.164170	0.328330	0.710030
C4901	C490	0.247670	0.495330	0.728330
C4911	C491	0.278370	0.556730	0.732630
C4921	C492	0.164270	0.328530	0.666830
C4931	C493	0.168970	0.337930	0.589930
C4941	C494	0.169870	0.339730	0.547230
C4951	C495	0.861730	0.723470	0.052570
C4961	C496	0.830830	0.661670	0.043370
C4971	C497	0.914330	0.828670	0.061670
C4981	C498	0.945030	0.890070	0.065970
C4991	C499	0.830930	0.661870	0.000170
C5001	C500	0.835630	0.671270	0.923270
C5011	C501	0.836530	0.673070	0.880570
C5021	C502	0.943200	0.471600	0.385900
C5031	C503	0.005000	0.502500	0.376700
C5041	C504	0.838000	0.419000	0.395000
C5051	C505	0.776600	0.388300	0.399300
C5061	C506	0.004800	0.502400	0.333500
C5071	C507	0.995400	0.497700	0.256600
C5081	C508	0.993600	0.496800	0.213900
C5091	C509	0.609870	0.804930	0.719230
C5101	C510	0.671670	0.835830	0.710030
C5111	C511	0.504670	0.752330	0.728330
C5121	C512	0.443270	0.721630	0.732630
C5131	C513	0.671470	0.835730	0.666830
C5141	C514	0.662070	0.831030	0.589930
C5151	C515	0.660270	0.830130	0.547230
C5161	C516	0.276530	0.138270	0.052570
C5171	C517	0.338330	0.169170	0.043370
C5181	C518	0.171330	0.085670	0.061670
C5191	C519	0.109930	0.054970	0.065970
C5201	C520	0.338130	0.169070	0.000170
C5211	C521	0.328730	0.164370	0.923270
C5221	C522	0.326930	0.163470	0.880570
U131	U13	0.190140	0.380280	0.474430
U141	U14	0.856810	0.713610	0.807760
U151	U15	0.523470	0.046950	0.141100
U161	U16	0.619720	0.809860	0.474430
U171	U17	0.286390	0.143190	0.807760
U181	U18	0.953050	0.476530	0.141100
U191	U19	0.190140	0.809860	0.474430
U201	U20	0.856810	0.143190	0.807760
U211	U21	0.523470	0.476530	0.141100
U221	U22	0.666670	0.333330	0.401490
U231	U23	0.333330	0.666670	0.734820
U241	U24	0.000000	0.000000	0.068160
