data_VANXUD03_clean_PM
_symmetry_space_group_name_H-M	'P1'
_cell_length_a	10.391100
_cell_length_b	10.391100
_cell_length_c	8.934100
_cell_angle_alpha	90.000000
_cell_angle_beta	90.000000
_cell_angle_gamma	90.000000
_symmetry_Int_Tables_number 1

loop_
_symmetry_equiv_pos_as_xyz
'x,y,z'

loop_
_atom_site_label
_atom_site_type_symbol
_atom_site_fract_x
_atom_site_fract_y
_atom_site_fract_z
Co11	Co1	0.389650	0.628430	0.159410
P11	P1	0.406710	0.609190	0.797440
O11	O1	0.436900	0.660500	0.953100
O21	O2	0.271500	0.556700	0.788700
O31	O3	0.500800	0.503400	0.752100
O41	O4	0.425600	0.714800	0.681200
Co21	Co2	0.110350	0.871570	0.159410
P21	P2	0.093290	0.890810	0.797440
O51	O5	0.063100	0.839500	0.953100
O61	O6	0.228500	0.943300	0.788700
O71	O7	0.999200	0.996600	0.752100
O81	O8	0.074400	0.785200	0.681200
Co31	Co3	0.371570	0.889650	0.659410
P31	P3	0.390810	0.906710	0.297440
O91	O9	0.339500	0.936900	0.453100
O101	O10	0.443300	0.771500	0.288700
O111	O11	0.496600	0.000800	0.252100
O121	O12	0.285200	0.925600	0.181200
Co41	Co4	0.128430	0.610350	0.659410
P41	P4	0.109190	0.593290	0.297440
O131	O13	0.160500	0.563100	0.453100
O141	O14	0.056700	0.728500	0.288700
O151	O15	0.003400	0.499200	0.252100
O161	O16	0.214800	0.574400	0.181200
Co51	Co5	0.610350	0.371570	0.840590
P51	P5	0.593290	0.390810	0.202560
O171	O17	0.563100	0.339500	0.046900
O181	O18	0.728500	0.443300	0.211300
O191	O19	0.499200	0.496600	0.247900
O201	O20	0.574400	0.285200	0.318800
Co61	Co6	0.889650	0.128430	0.840590
P61	P6	0.906710	0.109190	0.202560
O211	O21	0.936900	0.160500	0.046900
O221	O22	0.771500	0.056700	0.211300
O231	O23	0.000800	0.003400	0.247900
O241	O24	0.925600	0.214800	0.318800
Co71	Co7	0.628430	0.110350	0.340590
P71	P7	0.609190	0.093290	0.702560
O251	O25	0.660500	0.063100	0.546900
O261	O26	0.556700	0.228500	0.711300
O271	O27	0.503400	0.999200	0.747900
O281	O28	0.714800	0.074400	0.818800
Co81	Co8	0.871570	0.389650	0.340590
P81	P8	0.890810	0.406710	0.702560
O291	O29	0.839500	0.436900	0.546900
O301	O30	0.943300	0.271500	0.711300
O311	O31	0.996600	0.500800	0.747900
O321	O32	0.785200	0.425600	0.818800
