data_VAPFUP_clean_PM
_symmetry_space_group_name_H-M	'P1'
_cell_length_a	7.072000
_cell_length_b	10.385000
_cell_length_c	12.842000
_cell_angle_alpha	100.695000
_cell_angle_beta	91.181000
_cell_angle_gamma	94.614000
_symmetry_Int_Tables_number 1

loop_
_symmetry_equiv_pos_as_xyz
'x,y,z'

loop_
_atom_site_label
_atom_site_type_symbol
_atom_site_fract_x
_atom_site_fract_y
_atom_site_fract_z
Sr11	Sr1	0.241900	0.466900	0.395210
Sr21	Sr2	0.758100	0.533100	0.604790
H11	H1	0.819700	0.285800	0.026700
H21	H2	0.804200	0.424400	0.188800
H31	H3	0.651700	0.112700	0.321900
H41	H4	0.561500	0.893200	0.281700
H51	H5	0.589700	0.564800	0.066900
H61	H6	0.697100	0.688500	0.945100
H71	H7	0.180300	0.714200	0.973300
H81	H8	0.195800	0.575600	0.811200
H91	H9	0.348300	0.887300	0.678100
H101	H10	0.438500	0.106800	0.718300
H111	H11	0.410300	0.435200	0.933100
H121	H12	0.302900	0.311500	0.054900
Pt11	Pt1	0.783210	0.985190	0.939540
Pt21	Pt2	0.216790	0.014810	0.060460
C11	C1	0.786000	0.250000	0.087600
C21	C2	0.778000	0.332700	0.184400
C31	C3	0.727000	0.279100	0.271900
C41	C4	0.685000	0.147200	0.260900
C51	C5	0.693000	0.062300	0.162200
C61	C6	0.663000	0.922800	0.140200
C71	C7	0.590000	0.850700	0.212600
C81	C8	0.556000	0.714500	0.184600
C91	C9	0.603000	0.656700	0.085100
C101	C10	0.671000	0.730600	0.014200
C111	C11	0.733000	0.369200	0.382300
C121	C12	0.459000	0.633000	0.263100
C131	C13	0.858000	0.114600	0.850400
C141	C14	0.795000	0.843600	0.815500
C151	C15	0.214000	0.750000	0.912400
C161	C16	0.222000	0.667300	0.815600
C171	C17	0.273000	0.720900	0.728100
C181	C18	0.315000	0.852800	0.739100
C191	C19	0.307000	0.937700	0.837800
C201	C20	0.337000	0.077200	0.859800
C211	C21	0.410000	0.149300	0.787400
C221	C22	0.444000	0.285500	0.815400
C231	C23	0.397000	0.343300	0.914900
C241	C24	0.329000	0.269400	0.985800
C251	C25	0.267000	0.630800	0.617700
C261	C26	0.541000	0.367000	0.736900
C271	C27	0.142000	0.885400	0.149600
C281	C28	0.205000	0.156400	0.184500
N11	N1	0.748000	0.112300	0.074900
N21	N2	0.696600	0.861600	0.039000
N31	N3	0.906000	0.186300	0.800100
N41	N4	0.800000	0.760400	0.744100
N51	N5	0.252000	0.887700	0.925100
N61	N6	0.303400	0.138400	0.961000
N71	N7	0.094000	0.813700	0.199900
N81	N8	0.200000	0.239600	0.255900
O11	O1	0.582900	0.407400	0.414400
O21	O2	0.889800	0.390700	0.426900
O31	O3	0.449600	0.685600	0.356600
O41	O4	0.392600	0.519800	0.218900
O51	O5	0.417100	0.592600	0.585600
O61	O6	0.110200	0.609300	0.573100
O71	O7	0.550400	0.314400	0.643400
O81	O8	0.607400	0.480200	0.781100
