data_VAQLEG_clean_PM
_symmetry_space_group_name_H-M	'P1'
_cell_length_a	13.415000
_cell_length_b	13.415000
_cell_length_c	19.344900
_cell_angle_alpha	110.288000
_cell_angle_beta	110.288000
_cell_angle_gamma	90.000000
_symmetry_Int_Tables_number 1

loop_
_symmetry_equiv_pos_as_xyz
'x,y,z'

loop_
_atom_site_label
_atom_site_type_symbol
_atom_site_fract_x
_atom_site_fract_y
_atom_site_fract_z
Cd11	Cd1	0.268080	0.444610	0.489640
Cd21	Cd2	0.221560	0.045030	0.489640
Cd31	Cd3	0.555390	0.778440	0.510360
Cd41	Cd4	0.954970	0.731920	0.510360
Cd51	Cd5	0.028440	0.305390	0.010360
Cd61	Cd6	0.981920	0.704970	0.010360
Cd71	Cd7	0.295030	0.971560	0.989640
Cd81	Cd8	0.694610	0.018080	0.989640
H11	H1	0.098000	0.707700	0.398800
H21	H2	0.042700	0.599300	0.323800
H31	H3	0.822700	0.577100	0.274200
H41	H4	0.892900	0.516200	0.328400
H51	H5	0.854000	0.788100	0.344600
H61	H6	0.980400	0.824900	0.388400
H71	H7	0.799000	0.682200	0.081200
H81	H8	0.778100	0.704900	0.198400
H91	H9	0.094100	0.781500	0.310000
H101	H10	0.109700	0.742600	0.187000
H111	H11	0.300800	0.691100	0.398800
H121	H12	0.281100	0.724500	0.323800
H131	H13	0.451500	0.697100	0.274200
H141	H14	0.435500	0.812200	0.328400
H151	H15	0.490600	0.556500	0.344600
H161	H16	0.408000	0.563500	0.388400
H171	H17	0.282200	0.399000	0.081200
H181	H18	0.420300	0.493500	0.198400
H191	H19	0.215900	0.528500	0.310000
H201	H20	0.077300	0.444400	0.187000
H211	H21	0.292300	0.699200	0.601200
H221	H22	0.400700	0.718900	0.676200
H231	H23	0.422900	0.548500	0.725800
H241	H24	0.483800	0.564500	0.671600
H251	H25	0.211900	0.509400	0.655400
H261	H26	0.175100	0.592000	0.611600
H271	H27	0.317800	0.717800	0.918800
H281	H28	0.295100	0.579700	0.801600
H291	H29	0.218500	0.784100	0.690000
H301	H30	0.257400	0.922700	0.813000
H311	H31	0.308900	0.902000	0.601200
H321	H32	0.275500	0.957300	0.676200
H331	H33	0.302900	0.177300	0.725800
H341	H34	0.187800	0.107100	0.671600
H351	H35	0.443500	0.146000	0.655400
H361	H36	0.436500	0.019600	0.611600
H371	H37	0.601000	0.201000	0.918800
H381	H38	0.506500	0.221900	0.801600
H391	H39	0.471500	0.905900	0.690000
H401	H40	0.555600	0.890300	0.813000
H411	H41	0.949200	0.042300	0.101200
H421	H42	0.968900	0.150700	0.176200
H431	H43	0.798500	0.172900	0.225800
H441	H44	0.814500	0.233800	0.171600
H451	H45	0.759400	0.961900	0.155400
H461	H46	0.842000	0.925100	0.111600
H471	H47	0.967800	0.067800	0.418800
H481	H48	0.829700	0.045100	0.301600
H491	H49	0.034100	0.968500	0.190000
H501	H50	0.172700	0.007400	0.313000
H511	H51	0.152000	0.058900	0.101200
H521	H52	0.207300	0.025500	0.176200
H531	H53	0.427300	0.052900	0.225800
H541	H54	0.357100	0.937800	0.171600
H551	H55	0.396000	0.193500	0.155400
H561	H56	0.269600	0.186500	0.111600
H571	H57	0.451000	0.351000	0.418800
H581	H58	0.471900	0.256500	0.301600
H591	H59	0.155900	0.221500	0.190000
H601	H60	0.140300	0.305600	0.313000
H611	H61	0.941100	0.050800	0.898800
H621	H62	0.974500	0.031100	0.823800
H631	H63	0.947100	0.201500	0.774200
H641	H64	0.062200	0.185500	0.828400
H651	H65	0.806500	0.240600	0.844600
H661	H66	0.813500	0.158000	0.888400
H671	H67	0.649000	0.032200	0.581200
H681	H68	0.743500	0.170300	0.698400
H691	H69	0.778500	0.965900	0.810000
H701	H70	0.694400	0.827300	0.687000
H711	H71	0.957700	0.848000	0.898800
H721	H72	0.849300	0.792700	0.823800
H731	H73	0.827100	0.572700	0.774200
H741	H74	0.766200	0.642900	0.828400
H751	H75	0.038100	0.604000	0.844600
H761	H76	0.074900	0.730400	0.888400
H771	H77	0.932200	0.549000	0.581200
H781	H78	0.954900	0.528100	0.698400
H791	H79	0.031500	0.844100	0.810000
H801	H80	0.992600	0.859700	0.687000
C11	C1	0.046200	0.642100	0.378000
C21	C2	0.085430	0.578030	0.429860
C31	C3	0.857100	0.580900	0.329400
C41	C4	0.767330	0.582330	0.366460
C51	C5	0.924850	0.764550	0.347700
C61	C6	0.861390	0.698990	0.127980
C71	C7	0.848350	0.714050	0.198300
C81	C8	0.935200	0.742100	0.268000
C91	C9	0.031550	0.756750	0.263100
C101	C10	0.040340	0.735640	0.188880
C111	C11	0.331800	0.735900	0.378000
C121	C12	0.344430	0.851830	0.429860
C131	C13	0.472300	0.748500	0.329400
C141	C14	0.599130	0.784130	0.366460
C151	C15	0.422850	0.583150	0.347700
C161	C16	0.266590	0.428990	0.127980
C171	C17	0.349950	0.484250	0.198300
C181	C18	0.332800	0.525900	0.268000
C191	C19	0.231550	0.506350	0.263100
C201	C20	0.148540	0.453240	0.188880
C211	C21	0.357900	0.668200	0.622000
C221	C22	0.421970	0.655570	0.570140
C231	C23	0.419100	0.527700	0.670600
C241	C24	0.417670	0.400870	0.633540
C251	C25	0.235450	0.577150	0.652300
C261	C26	0.301010	0.733410	0.872020
C271	C27	0.285950	0.650050	0.801700
C281	C28	0.257900	0.667200	0.732000
C291	C29	0.243250	0.768450	0.736900
C301	C30	0.264360	0.851460	0.811120
C311	C31	0.264100	0.953800	0.622000
C321	C32	0.148170	0.914570	0.570140
C331	C33	0.251500	0.142900	0.670600
C341	C34	0.215870	0.232670	0.633540
C351	C35	0.416850	0.075150	0.652300
C361	C36	0.571010	0.138610	0.872020
C371	C37	0.515750	0.151650	0.801700
C381	C38	0.474100	0.064800	0.732000
C391	C39	0.493650	0.968450	0.736900
C401	C40	0.546760	0.959660	0.811120
C411	C41	0.918200	0.107900	0.122000
C421	C42	0.905570	0.171970	0.070140
C431	C43	0.777700	0.169100	0.170600
C441	C44	0.650870	0.167670	0.133540
C451	C45	0.827150	0.985450	0.152300
C461	C46	0.983410	0.051010	0.372020
C471	C47	0.900050	0.035950	0.301700
C481	C48	0.917200	0.007900	0.232000
C491	C49	0.018450	0.993250	0.236900
C501	C50	0.101460	0.014360	0.311120
C511	C51	0.203800	0.014100	0.122000
C521	C52	0.164570	0.898170	0.070140
C531	C53	0.392900	0.001500	0.170600
C541	C54	0.482670	0.965870	0.133540
C551	C55	0.325150	0.166850	0.152300
C561	C56	0.388610	0.321010	0.372020
C571	C57	0.401650	0.265750	0.301700
C581	C58	0.314800	0.224100	0.232000
C591	C59	0.218450	0.243650	0.236900
C601	C60	0.209660	0.296760	0.311120
C611	C61	0.985900	0.081800	0.878000
C621	C62	0.101830	0.094430	0.929860
C631	C63	0.998500	0.222300	0.829400
C641	C64	0.034130	0.349130	0.866460
C651	C65	0.833150	0.172850	0.847700
C661	C66	0.678990	0.016590	0.627980
C671	C67	0.734250	0.099950	0.698300
C681	C68	0.775900	0.082800	0.768000
C691	C69	0.756350	0.981550	0.763100
C701	C70	0.703240	0.898540	0.688880
C711	C71	0.892100	0.796200	0.878000
C721	C72	0.828030	0.835430	0.929860
C731	C73	0.830900	0.607100	0.829400
C741	C74	0.832330	0.517330	0.866460
C751	C75	0.014550	0.674850	0.847700
C761	C76	0.948990	0.611390	0.627980
C771	C77	0.964050	0.598350	0.698300
C781	C78	0.992100	0.685200	0.768000
C791	C79	0.006750	0.781550	0.763100
C801	C80	0.985640	0.790340	0.688880
N11	N1	0.935430	0.673930	0.374060
N21	N2	0.956460	0.706760	0.122120
N31	N3	0.438630	0.700130	0.374060
N41	N4	0.165660	0.415360	0.122120
N51	N5	0.326070	0.561370	0.625940
N61	N6	0.293240	0.834340	0.877880
N71	N7	0.299870	0.064570	0.625940
N81	N8	0.584640	0.043540	0.877880
N91	N9	0.811370	0.076070	0.125940
N101	N10	0.084340	0.043240	0.377880
N111	N11	0.314570	0.049870	0.125940
N121	N12	0.293540	0.334640	0.377880
N131	N13	0.950130	0.188630	0.874060
N141	N14	0.665360	0.915660	0.622120
N151	N15	0.923930	0.685430	0.874060
N161	N16	0.956760	0.706460	0.622120
O11	O1	0.155710	0.523410	0.415220
O21	O2	0.061610	0.595710	0.487020
O31	O3	0.795030	0.623830	0.438860
O41	O4	0.677160	0.525460	0.321320
O51	O5	0.259510	0.891810	0.415220
O61	O6	0.425410	0.891310	0.487020
O71	O7	0.643830	0.815030	0.438860
O81	O8	0.644160	0.795860	0.321320
O91	O9	0.476590	0.740490	0.584780
O101	O10	0.404290	0.574590	0.512980
O111	O11	0.376170	0.356170	0.561140
O121	O12	0.474540	0.355840	0.678680
O131	O13	0.108190	0.844290	0.584780
O141	O14	0.108690	0.938390	0.512980
O151	O15	0.184970	0.204970	0.561140
O161	O16	0.204140	0.322840	0.678680
O171	O17	0.990490	0.226590	0.084780
O181	O18	0.824590	0.154290	0.012980
O191	O19	0.606170	0.126170	0.061140
O201	O20	0.605840	0.224540	0.178680
O211	O21	0.094290	0.858190	0.084780
O221	O22	0.188390	0.858690	0.012980
O231	O23	0.454970	0.934970	0.061140
O241	O24	0.572840	0.954140	0.178680
O251	O25	0.141810	0.009510	0.915220
O261	O26	0.141310	0.175410	0.987020
O271	O27	0.065030	0.393830	0.938860
O281	O28	0.045860	0.394160	0.821320
O291	O29	0.773410	0.905710	0.915220
O301	O30	0.845710	0.811610	0.987020
O311	O31	0.873830	0.545030	0.938860
O321	O32	0.775460	0.427160	0.821320
