data_VAQTUF_clean_PM
_symmetry_space_group_name_H-M	'P1'
_cell_length_a	36.437800
_cell_length_b	36.437800
_cell_length_c	10.937300
_cell_angle_alpha	90.000000
_cell_angle_beta	90.000000
_cell_angle_gamma	90.000000
_symmetry_Int_Tables_number 1

loop_
_symmetry_equiv_pos_as_xyz
'x,y,z'

loop_
_atom_site_label
_atom_site_type_symbol
_atom_site_fract_x
_atom_site_fract_y
_atom_site_fract_z
N11	N1	0.785910	0.502330	0.480890
N21	N2	0.801380	0.468350	0.302220
N31	N3	0.801850	0.533670	0.297400
C11	C1	0.791380	0.534550	0.418120
C21	C2	0.790910	0.469220	0.422940
C31	C3	0.806850	0.500570	0.239450
C41	C4	0.786330	0.568010	0.476680
C51	C5	0.789460	0.600110	0.412110
C61	C6	0.784470	0.633120	0.469900
C71	C7	0.776350	0.634040	0.592260
C81	C8	0.773210	0.601940	0.656840
C91	C9	0.778200	0.568930	0.599040
C101	C10	0.770890	0.670160	0.655490
C111	C11	0.785390	0.436650	0.486390
C121	C12	0.783270	0.436950	0.611550
C131	C13	0.777810	0.404810	0.674150
C141	C14	0.774480	0.372370	0.611610
C151	C15	0.776600	0.372080	0.486450
C161	C16	0.782060	0.404210	0.423840
C171	C17	0.768520	0.337210	0.680100
C181	C18	0.817430	0.499680	0.117440
C191	C19	0.826230	0.466910	0.063300
C201	C20	0.836670	0.466030	0.942900
C211	C21	0.838310	0.497930	0.876640
C221	C22	0.829510	0.530710	0.930780
C231	C23	0.819070	0.531580	0.051180
C241	C24	0.849730	0.496970	0.744920
O11	O1	0.745260	0.673750	0.736420
O21	O2	0.791820	0.697720	0.629080
O31	O3	0.783110	0.307070	0.640880
O41	O4	0.748780	0.337030	0.778390
O51	O5	0.869950	0.470370	0.704950
O61	O6	0.839370	0.522750	0.671290
Al11	Al1	0.753310	0.707760	0.864100
O71	O7	0.758720	0.744780	0.739200
N41	N4	0.285910	0.002330	0.980890
N51	N5	0.301380	0.968350	0.802220
N61	N6	0.301850	0.033670	0.797400
C251	C25	0.291380	0.034550	0.918120
C261	C26	0.290910	0.969220	0.922940
C271	C27	0.306850	0.000570	0.739450
C281	C28	0.286330	0.068010	0.976680
C291	C29	0.289460	0.100110	0.912110
C301	C30	0.284470	0.133120	0.969900
C311	C31	0.276350	0.134040	0.092260
C321	C32	0.273210	0.101940	0.156840
C331	C33	0.278200	0.068930	0.099040
C341	C34	0.270890	0.170160	0.155490
C351	C35	0.285390	0.936650	0.986390
C361	C36	0.283270	0.936950	0.111550
C371	C37	0.277810	0.904810	0.174150
C381	C38	0.274480	0.872370	0.111610
C391	C39	0.276600	0.872080	0.986450
C401	C40	0.282060	0.904210	0.923840
C411	C41	0.268520	0.837210	0.180100
C421	C42	0.317430	0.999680	0.617440
C431	C43	0.326230	0.966910	0.563300
C441	C44	0.336670	0.966030	0.442900
C451	C45	0.338310	0.997930	0.376640
C461	C46	0.329510	0.030710	0.430780
C471	C47	0.319070	0.031580	0.551180
C481	C48	0.349730	0.996970	0.244920
O81	O8	0.245260	0.173750	0.236420
O91	O9	0.291820	0.197720	0.129080
O101	O10	0.283110	0.807070	0.140880
O111	O11	0.248780	0.837030	0.278390
O121	O12	0.369950	0.970370	0.204950
O131	O13	0.339370	0.022750	0.171290
Al21	Al2	0.253310	0.207760	0.364100
O141	O14	0.258720	0.244780	0.239200
N71	N7	0.714090	0.997670	0.980890
N81	N8	0.698620	0.031650	0.802220
N91	N9	0.698150	0.966330	0.797400
C491	C49	0.708620	0.965450	0.918120
C501	C50	0.709090	0.030780	0.922940
C511	C51	0.693150	0.999430	0.739450
C521	C52	0.713670	0.931990	0.976680
C531	C53	0.710540	0.899890	0.912110
C541	C54	0.715530	0.866880	0.969900
C551	C55	0.723650	0.865960	0.092260
C561	C56	0.726790	0.898060	0.156840
C571	C57	0.721800	0.931070	0.099040
C581	C58	0.729110	0.829840	0.155490
C591	C59	0.714610	0.063350	0.986390
C601	C60	0.716730	0.063050	0.111550
C611	C61	0.722190	0.095190	0.174150
C621	C62	0.725520	0.127630	0.111610
C631	C63	0.723400	0.127920	0.986450
C641	C64	0.717940	0.095790	0.923840
C651	C65	0.731480	0.162790	0.180100
C661	C66	0.682570	0.000320	0.617440
C671	C67	0.673770	0.033090	0.563300
C681	C68	0.663330	0.033970	0.442900
C691	C69	0.661690	0.002070	0.376640
C701	C70	0.670490	0.969290	0.430780
C711	C71	0.680930	0.968420	0.551180
C721	C72	0.650270	0.003030	0.244920
O151	O15	0.754740	0.826250	0.236420
O161	O16	0.708180	0.802280	0.129080
O171	O17	0.716890	0.192930	0.140880
O181	O18	0.751220	0.162970	0.278390
O191	O19	0.630050	0.029630	0.204950
O201	O20	0.660630	0.977250	0.171290
Al31	Al3	0.746690	0.792240	0.364100
O211	O21	0.741280	0.755220	0.239200
N101	N10	0.214090	0.497670	0.480890
N111	N11	0.198620	0.531650	0.302220
N121	N12	0.198150	0.466330	0.297400
C731	C73	0.208620	0.465450	0.418120
C741	C74	0.209090	0.530780	0.422940
C751	C75	0.193150	0.499430	0.239450
C761	C76	0.213670	0.431990	0.476680
C771	C77	0.210540	0.399890	0.412110
C781	C78	0.215530	0.366880	0.469900
C791	C79	0.223650	0.365960	0.592260
C801	C80	0.226790	0.398060	0.656840
C811	C81	0.221800	0.431070	0.599040
C821	C82	0.229110	0.329840	0.655490
C831	C83	0.214610	0.563350	0.486390
C841	C84	0.216730	0.563050	0.611550
C851	C85	0.222190	0.595190	0.674150
C861	C86	0.225520	0.627630	0.611610
C871	C87	0.223400	0.627920	0.486450
C881	C88	0.217940	0.595790	0.423840
C891	C89	0.231480	0.662790	0.680100
C901	C90	0.182570	0.500320	0.117440
C911	C91	0.173770	0.533090	0.063300
C921	C92	0.163330	0.533970	0.942900
C931	C93	0.161690	0.502070	0.876640
C941	C94	0.170490	0.469290	0.930780
C951	C95	0.180930	0.468420	0.051180
C961	C96	0.150270	0.503030	0.744920
O221	O22	0.254740	0.326250	0.736420
O231	O23	0.208180	0.302280	0.629080
O241	O24	0.216890	0.692930	0.640880
O251	O25	0.251220	0.662970	0.778390
O261	O26	0.130050	0.529630	0.704950
O271	O27	0.160630	0.477250	0.671290
Al41	Al4	0.246690	0.292240	0.864100
O281	O28	0.241280	0.255220	0.739200
N131	N13	0.497670	0.285910	0.730890
N141	N14	0.531650	0.301380	0.552220
N151	N15	0.466330	0.301850	0.547400
C971	C97	0.465450	0.291380	0.668120
C981	C98	0.530780	0.290910	0.672940
C991	C99	0.499430	0.306850	0.489450
C1001	C100	0.431990	0.286330	0.726680
C1011	C101	0.399890	0.289460	0.662110
C1021	C102	0.366880	0.284470	0.719900
C1031	C103	0.365960	0.276350	0.842260
C1041	C104	0.398060	0.273210	0.906840
C1051	C105	0.431070	0.278200	0.849040
C1061	C106	0.329840	0.270890	0.905490
C1071	C107	0.563350	0.285390	0.736390
C1081	C108	0.563050	0.283270	0.861550
C1091	C109	0.595190	0.277810	0.924150
C1101	C110	0.627630	0.274480	0.861610
C1111	C111	0.627920	0.276600	0.736450
C1121	C112	0.595790	0.282060	0.673840
C1131	C113	0.662790	0.268520	0.930100
C1141	C114	0.500320	0.317430	0.367440
C1151	C115	0.533090	0.326230	0.313300
C1161	C116	0.533970	0.336670	0.192900
C1171	C117	0.502070	0.338310	0.126640
C1181	C118	0.469290	0.329510	0.180780
C1191	C119	0.468420	0.319070	0.301180
C1201	C120	0.503030	0.349730	0.994920
O291	O29	0.326250	0.245260	0.986420
O301	O30	0.302280	0.291820	0.879080
O311	O31	0.692930	0.283110	0.890880
O321	O32	0.662970	0.248780	0.028390
O331	O33	0.529630	0.369950	0.954950
O341	O34	0.477250	0.339370	0.921290
Al51	Al5	0.292240	0.253310	0.114100
O351	O35	0.255220	0.258720	0.989200
N161	N16	0.997670	0.785910	0.230890
N171	N17	0.031650	0.801380	0.052220
N181	N18	0.966330	0.801850	0.047400
C1211	C121	0.965450	0.791380	0.168120
C1221	C122	0.030780	0.790910	0.172940
C1231	C123	0.999430	0.806850	0.989450
C1241	C124	0.931990	0.786330	0.226680
C1251	C125	0.899890	0.789460	0.162110
C1261	C126	0.866880	0.784470	0.219900
C1271	C127	0.865960	0.776350	0.342260
C1281	C128	0.898060	0.773210	0.406840
C1291	C129	0.931070	0.778200	0.349040
C1301	C130	0.829840	0.770890	0.405490
C1311	C131	0.063350	0.785390	0.236390
C1321	C132	0.063050	0.783270	0.361550
C1331	C133	0.095190	0.777810	0.424150
C1341	C134	0.127630	0.774480	0.361610
C1351	C135	0.127920	0.776600	0.236450
C1361	C136	0.095790	0.782060	0.173840
C1371	C137	0.162790	0.768520	0.430100
C1381	C138	0.000320	0.817430	0.867440
C1391	C139	0.033090	0.826230	0.813300
C1401	C140	0.033970	0.836670	0.692900
C1411	C141	0.002070	0.838310	0.626640
C1421	C142	0.969290	0.829510	0.680780
C1431	C143	0.968420	0.819070	0.801180
C1441	C144	0.003030	0.849730	0.494920
O361	O36	0.826250	0.745260	0.486420
O371	O37	0.802280	0.791820	0.379080
O381	O38	0.192930	0.783110	0.390880
O391	O39	0.162970	0.748780	0.528390
O401	O40	0.029630	0.869950	0.454950
O411	O41	0.977250	0.839370	0.421290
Al61	Al6	0.792240	0.753310	0.614100
O421	O42	0.755220	0.758720	0.489200
N191	N19	0.002330	0.214090	0.230890
N201	N20	0.968350	0.198620	0.052220
N211	N21	0.033670	0.198150	0.047400
C1451	C145	0.034550	0.208620	0.168120
C1461	C146	0.969220	0.209090	0.172940
C1471	C147	0.000570	0.193150	0.989450
C1481	C148	0.068010	0.213670	0.226680
C1491	C149	0.100110	0.210540	0.162110
C1501	C150	0.133120	0.215530	0.219900
C1511	C151	0.134040	0.223650	0.342260
C1521	C152	0.101940	0.226790	0.406840
C1531	C153	0.068930	0.221800	0.349040
C1541	C154	0.170160	0.229110	0.405490
C1551	C155	0.936650	0.214610	0.236390
C1561	C156	0.936950	0.216730	0.361550
C1571	C157	0.904810	0.222190	0.424150
C1581	C158	0.872370	0.225520	0.361610
C1591	C159	0.872080	0.223400	0.236450
C1601	C160	0.904210	0.217940	0.173840
C1611	C161	0.837210	0.231480	0.430100
C1621	C162	0.999680	0.182570	0.867440
C1631	C163	0.966910	0.173770	0.813300
C1641	C164	0.966030	0.163330	0.692900
C1651	C165	0.997930	0.161690	0.626640
C1661	C166	0.030710	0.170490	0.680780
C1671	C167	0.031580	0.180930	0.801180
C1681	C168	0.996970	0.150270	0.494920
O431	O43	0.173750	0.254740	0.486420
O441	O44	0.197720	0.208180	0.379080
O451	O45	0.807070	0.216890	0.390880
O461	O46	0.837030	0.251220	0.528390
O471	O47	0.970370	0.130050	0.454950
O481	O48	0.022750	0.160630	0.421290
Al71	Al7	0.207760	0.246690	0.614100
O491	O49	0.244780	0.241280	0.489200
N221	N22	0.502330	0.714090	0.730890
N231	N23	0.468350	0.698620	0.552220
N241	N24	0.533670	0.698150	0.547400
C1691	C169	0.534550	0.708620	0.668120
C1701	C170	0.469220	0.709090	0.672940
C1711	C171	0.500570	0.693150	0.489450
C1721	C172	0.568010	0.713670	0.726680
C1731	C173	0.600110	0.710540	0.662110
C1741	C174	0.633120	0.715530	0.719900
C1751	C175	0.634040	0.723650	0.842260
C1761	C176	0.601940	0.726790	0.906840
C1771	C177	0.568930	0.721800	0.849040
C1781	C178	0.670160	0.729110	0.905490
C1791	C179	0.436650	0.714610	0.736390
C1801	C180	0.436950	0.716730	0.861550
C1811	C181	0.404810	0.722190	0.924150
C1821	C182	0.372370	0.725520	0.861610
C1831	C183	0.372080	0.723400	0.736450
C1841	C184	0.404210	0.717940	0.673840
C1851	C185	0.337210	0.731480	0.930100
C1861	C186	0.499680	0.682570	0.367440
C1871	C187	0.466910	0.673770	0.313300
C1881	C188	0.466030	0.663330	0.192900
C1891	C189	0.497930	0.661690	0.126640
C1901	C190	0.530710	0.670490	0.180780
C1911	C191	0.531580	0.680930	0.301180
C1921	C192	0.496970	0.650270	0.994920
O501	O50	0.673750	0.754740	0.986420
O511	O51	0.697720	0.708180	0.879080
O521	O52	0.307070	0.716890	0.890880
O531	O53	0.337030	0.751220	0.028390
O541	O54	0.470370	0.630050	0.954950
O551	O55	0.522750	0.660630	0.921290
Al81	Al8	0.707760	0.746690	0.114100
O561	O56	0.744780	0.741280	0.989200
N251	N25	0.214090	0.997670	0.769110
N261	N26	0.198620	0.031650	0.947780
N271	N27	0.198150	0.966330	0.952600
C1931	C193	0.208620	0.965450	0.831880
C1941	C194	0.209090	0.030780	0.827060
C1951	C195	0.193150	0.999430	0.010550
C1961	C196	0.213670	0.931990	0.773320
C1971	C197	0.210540	0.899890	0.837890
C1981	C198	0.215530	0.866880	0.780100
C1991	C199	0.223650	0.865960	0.657740
C2001	C200	0.226790	0.898060	0.593160
C2011	C201	0.221800	0.931070	0.650960
C2021	C202	0.229110	0.829840	0.594510
C2031	C203	0.214610	0.063350	0.763610
C2041	C204	0.216730	0.063050	0.638450
C2051	C205	0.222190	0.095190	0.575850
C2061	C206	0.225520	0.127630	0.638390
C2071	C207	0.223400	0.127920	0.763550
C2081	C208	0.217940	0.095790	0.826160
C2091	C209	0.231480	0.162790	0.569900
C2101	C210	0.182570	0.000320	0.132560
C2111	C211	0.173770	0.033090	0.186700
C2121	C212	0.163330	0.033970	0.307100
C2131	C213	0.161690	0.002070	0.373360
C2141	C214	0.170490	0.969290	0.319220
C2151	C215	0.180930	0.968420	0.198820
C2161	C216	0.150270	0.003030	0.505080
O571	O57	0.254740	0.826250	0.513580
O581	O58	0.208180	0.802280	0.620920
O591	O59	0.216890	0.192930	0.609120
O601	O60	0.251220	0.162970	0.471610
O611	O61	0.130050	0.029630	0.545050
O621	O62	0.160630	0.977250	0.578710
Al91	Al9	0.246690	0.792240	0.385900
O631	O63	0.241280	0.755220	0.510800
N281	N28	0.714090	0.497670	0.269110
N291	N29	0.698620	0.531650	0.447780
N301	N30	0.698150	0.466330	0.452600
C2171	C217	0.708620	0.465450	0.331880
C2181	C218	0.709090	0.530780	0.327060
C2191	C219	0.693150	0.499430	0.510550
C2201	C220	0.713670	0.431990	0.273320
C2211	C221	0.710540	0.399890	0.337890
C2221	C222	0.715530	0.366880	0.280100
C2231	C223	0.723650	0.365960	0.157740
C2241	C224	0.726790	0.398060	0.093160
C2251	C225	0.721800	0.431070	0.150960
C2261	C226	0.729110	0.329840	0.094510
C2271	C227	0.714610	0.563350	0.263610
C2281	C228	0.716730	0.563050	0.138450
C2291	C229	0.722190	0.595190	0.075850
C2301	C230	0.725520	0.627630	0.138390
C2311	C231	0.723400	0.627920	0.263550
C2321	C232	0.717940	0.595790	0.326160
C2331	C233	0.731480	0.662790	0.069900
C2341	C234	0.682570	0.500320	0.632560
C2351	C235	0.673770	0.533090	0.686700
C2361	C236	0.663330	0.533970	0.807100
C2371	C237	0.661690	0.502070	0.873360
C2381	C238	0.670490	0.469290	0.819220
C2391	C239	0.680930	0.468420	0.698820
C2401	C240	0.650270	0.503030	0.005080
O641	O64	0.754740	0.326250	0.013580
O651	O65	0.708180	0.302280	0.120920
O661	O66	0.716890	0.692930	0.109120
O671	O67	0.751220	0.662970	0.971610
O681	O68	0.630050	0.529630	0.045050
O691	O69	0.660630	0.477250	0.078710
Al101	Al10	0.746690	0.292240	0.885900
O701	O70	0.741280	0.255220	0.010800
N311	N31	0.285910	0.502330	0.269110
N321	N32	0.301380	0.468350	0.447780
N331	N33	0.301850	0.533670	0.452600
C2411	C241	0.291380	0.534550	0.331880
C2421	C242	0.290910	0.469220	0.327060
C2431	C243	0.306850	0.500570	0.510550
C2441	C244	0.286330	0.568010	0.273320
C2451	C245	0.289460	0.600110	0.337890
C2461	C246	0.284470	0.633120	0.280100
C2471	C247	0.276350	0.634040	0.157740
C2481	C248	0.273210	0.601940	0.093160
C2491	C249	0.278200	0.568930	0.150960
C2501	C250	0.270890	0.670160	0.094510
C2511	C251	0.285390	0.436650	0.263610
C2521	C252	0.283270	0.436950	0.138450
C2531	C253	0.277810	0.404810	0.075850
C2541	C254	0.274480	0.372370	0.138390
C2551	C255	0.276600	0.372080	0.263550
C2561	C256	0.282060	0.404210	0.326160
C2571	C257	0.268520	0.337210	0.069900
C2581	C258	0.317430	0.499680	0.632560
C2591	C259	0.326230	0.466910	0.686700
C2601	C260	0.336670	0.466030	0.807100
C2611	C261	0.338310	0.497930	0.873360
C2621	C262	0.329510	0.530710	0.819220
C2631	C263	0.319070	0.531580	0.698820
C2641	C264	0.349730	0.496970	0.005080
O711	O71	0.245260	0.673750	0.013580
O721	O72	0.291820	0.697720	0.120920
O731	O73	0.283110	0.307070	0.109120
O741	O74	0.248780	0.337030	0.971610
O751	O75	0.369950	0.470370	0.045050
O761	O76	0.339370	0.522750	0.078710
Al111	Al11	0.253310	0.707760	0.885900
O771	O77	0.258720	0.744780	0.010800
N341	N34	0.785910	0.002330	0.769110
N351	N35	0.801380	0.968350	0.947780
N361	N36	0.801850	0.033670	0.952600
C2651	C265	0.791380	0.034550	0.831880
C2661	C266	0.790910	0.969220	0.827060
C2671	C267	0.806850	0.000570	0.010550
C2681	C268	0.786330	0.068010	0.773320
C2691	C269	0.789460	0.100110	0.837890
C2701	C270	0.784470	0.133120	0.780100
C2711	C271	0.776350	0.134040	0.657740
C2721	C272	0.773210	0.101940	0.593160
C2731	C273	0.778200	0.068930	0.650960
C2741	C274	0.770890	0.170160	0.594510
C2751	C275	0.785390	0.936650	0.763610
C2761	C276	0.783270	0.936950	0.638450
C2771	C277	0.777810	0.904810	0.575850
C2781	C278	0.774480	0.872370	0.638390
C2791	C279	0.776600	0.872080	0.763550
C2801	C280	0.782060	0.904210	0.826160
C2811	C281	0.768520	0.837210	0.569900
C2821	C282	0.817430	0.999680	0.132560
C2831	C283	0.826230	0.966910	0.186700
C2841	C284	0.836670	0.966030	0.307100
C2851	C285	0.838310	0.997930	0.373360
C2861	C286	0.829510	0.030710	0.319220
C2871	C287	0.819070	0.031580	0.198820
C2881	C288	0.849730	0.996970	0.505080
O781	O78	0.745260	0.173750	0.513580
O791	O79	0.791820	0.197720	0.620920
O801	O80	0.783110	0.807070	0.609120
O811	O81	0.748780	0.837030	0.471610
O821	O82	0.869950	0.970370	0.545050
O831	O83	0.839370	0.022750	0.578710
Al121	Al12	0.753310	0.207760	0.385900
O841	O84	0.758720	0.244780	0.510800
N371	N37	0.502330	0.214090	0.519110
N381	N38	0.468350	0.198620	0.697780
N391	N39	0.533670	0.198150	0.702600
C2891	C289	0.534550	0.208620	0.581880
C2901	C290	0.469220	0.209090	0.577060
C2911	C291	0.500570	0.193150	0.760550
C2921	C292	0.568010	0.213670	0.523320
C2931	C293	0.600110	0.210540	0.587890
C2941	C294	0.633120	0.215530	0.530100
C2951	C295	0.634040	0.223650	0.407740
C2961	C296	0.601940	0.226790	0.343160
C2971	C297	0.568930	0.221800	0.400960
C2981	C298	0.670160	0.229110	0.344510
C2991	C299	0.436650	0.214610	0.513610
C3001	C300	0.436950	0.216730	0.388450
C3011	C301	0.404810	0.222190	0.325850
C3021	C302	0.372370	0.225520	0.388390
C3031	C303	0.372080	0.223400	0.513550
C3041	C304	0.404210	0.217940	0.576160
C3051	C305	0.337210	0.231480	0.319900
C3061	C306	0.499680	0.182570	0.882560
C3071	C307	0.466910	0.173770	0.936700
C3081	C308	0.466030	0.163330	0.057100
C3091	C309	0.497930	0.161690	0.123360
C3101	C310	0.530710	0.170490	0.069220
C3111	C311	0.531580	0.180930	0.948820
C3121	C312	0.496970	0.150270	0.255080
O851	O85	0.673750	0.254740	0.263580
O861	O86	0.697720	0.208180	0.370920
O871	O87	0.307070	0.216890	0.359120
O881	O88	0.337030	0.251220	0.221610
O891	O89	0.470370	0.130050	0.295050
O901	O90	0.522750	0.160630	0.328710
Al131	Al13	0.707760	0.246690	0.135900
O911	O91	0.744780	0.241280	0.260800
N401	N40	0.002330	0.714090	0.019110
N411	N41	0.968350	0.698620	0.197780
N421	N42	0.033670	0.698150	0.202600
C3131	C313	0.034550	0.708620	0.081880
C3141	C314	0.969220	0.709090	0.077060
C3151	C315	0.000570	0.693150	0.260550
C3161	C316	0.068010	0.713670	0.023320
C3171	C317	0.100110	0.710540	0.087890
C3181	C318	0.133120	0.715530	0.030100
C3191	C319	0.134040	0.723650	0.907740
C3201	C320	0.101940	0.726790	0.843160
C3211	C321	0.068930	0.721800	0.900960
C3221	C322	0.170160	0.729110	0.844510
C3231	C323	0.936650	0.714610	0.013610
C3241	C324	0.936950	0.716730	0.888450
C3251	C325	0.904810	0.722190	0.825850
C3261	C326	0.872370	0.725520	0.888390
C3271	C327	0.872080	0.723400	0.013550
C3281	C328	0.904210	0.717940	0.076160
C3291	C329	0.837210	0.731480	0.819900
C3301	C330	0.999680	0.682570	0.382560
C3311	C331	0.966910	0.673770	0.436700
C3321	C332	0.966030	0.663330	0.557100
C3331	C333	0.997930	0.661690	0.623360
C3341	C334	0.030710	0.670490	0.569220
C3351	C335	0.031580	0.680930	0.448820
C3361	C336	0.996970	0.650270	0.755080
O921	O92	0.173750	0.754740	0.763580
O931	O93	0.197720	0.708180	0.870920
O941	O94	0.807070	0.716890	0.859120
O951	O95	0.837030	0.751220	0.721610
O961	O96	0.970370	0.630050	0.795050
O971	O97	0.022750	0.660630	0.828710
Al141	Al14	0.207760	0.746690	0.635900
O981	O98	0.244780	0.741280	0.760800
N431	N43	0.997670	0.285910	0.019110
N441	N44	0.031650	0.301380	0.197780
N451	N45	0.966330	0.301850	0.202600
C3371	C337	0.965450	0.291380	0.081880
C3381	C338	0.030780	0.290910	0.077060
C3391	C339	0.999430	0.306850	0.260550
C3401	C340	0.931990	0.286330	0.023320
C3411	C341	0.899890	0.289460	0.087890
C3421	C342	0.866880	0.284470	0.030100
C3431	C343	0.865960	0.276350	0.907740
C3441	C344	0.898060	0.273210	0.843160
C3451	C345	0.931070	0.278200	0.900960
C3461	C346	0.829840	0.270890	0.844510
C3471	C347	0.063350	0.285390	0.013610
C3481	C348	0.063050	0.283270	0.888450
C3491	C349	0.095190	0.277810	0.825850
C3501	C350	0.127630	0.274480	0.888390
C3511	C351	0.127920	0.276600	0.013550
C3521	C352	0.095790	0.282060	0.076160
C3531	C353	0.162790	0.268520	0.819900
C3541	C354	0.000320	0.317430	0.382560
C3551	C355	0.033090	0.326230	0.436700
C3561	C356	0.033970	0.336670	0.557100
C3571	C357	0.002070	0.338310	0.623360
C3581	C358	0.969290	0.329510	0.569220
C3591	C359	0.968420	0.319070	0.448820
C3601	C360	0.003030	0.349730	0.755080
O991	O99	0.826250	0.245260	0.763580
O1001	O100	0.802280	0.291820	0.870920
O1011	O101	0.192930	0.283110	0.859120
O1021	O102	0.162970	0.248780	0.721610
O1031	O103	0.029630	0.369950	0.795050
O1041	O104	0.977250	0.339370	0.828710
Al151	Al15	0.792240	0.253310	0.635900
O1051	O105	0.755220	0.258720	0.760800
N461	N46	0.497670	0.785910	0.519110
N471	N47	0.531650	0.801380	0.697780
N481	N48	0.466330	0.801850	0.702600
C3611	C361	0.465450	0.791380	0.581880
C3621	C362	0.530780	0.790910	0.577060
C3631	C363	0.499430	0.806850	0.760550
C3641	C364	0.431990	0.786330	0.523320
C3651	C365	0.399890	0.789460	0.587890
C3661	C366	0.366880	0.784470	0.530100
C3671	C367	0.365960	0.776350	0.407740
C3681	C368	0.398060	0.773210	0.343160
C3691	C369	0.431070	0.778200	0.400960
C3701	C370	0.329840	0.770890	0.344510
C3711	C371	0.563350	0.785390	0.513610
C3721	C372	0.563050	0.783270	0.388450
C3731	C373	0.595190	0.777810	0.325850
C3741	C374	0.627630	0.774480	0.388390
C3751	C375	0.627920	0.776600	0.513550
C3761	C376	0.595790	0.782060	0.576160
C3771	C377	0.662790	0.768520	0.319900
C3781	C378	0.500320	0.817430	0.882560
C3791	C379	0.533090	0.826230	0.936700
C3801	C380	0.533970	0.836670	0.057100
C3811	C381	0.502070	0.838310	0.123360
C3821	C382	0.469290	0.829510	0.069220
C3831	C383	0.468420	0.819070	0.948820
C3841	C384	0.503030	0.849730	0.255080
O1061	O106	0.326250	0.745260	0.263580
O1071	O107	0.302280	0.791820	0.370920
O1081	O108	0.692930	0.783110	0.359120
O1091	O109	0.662970	0.748780	0.221610
O1101	O110	0.529630	0.869950	0.295050
O1111	O111	0.477250	0.839370	0.328710
Al161	Al16	0.292240	0.753310	0.135900
O1121	O112	0.255220	0.758720	0.260800
