data_VARJEF_clean_PM
_symmetry_space_group_name_H-M	'P1'
_cell_length_a	17.292600
_cell_length_b	17.292600
_cell_length_c	22.896200
_cell_angle_alpha	90.000000
_cell_angle_beta	90.000000
_cell_angle_gamma	90.000000
_symmetry_Int_Tables_number 1

loop_
_symmetry_equiv_pos_as_xyz
'x,y,z'

loop_
_atom_site_label
_atom_site_type_symbol
_atom_site_fract_x
_atom_site_fract_y
_atom_site_fract_z
Fe11	Fe1	0.000000	0.000000	0.000000
Fe21	Fe2	0.500000	0.500000	0.500000
Fe31	Fe3	0.500000	0.000000	0.051560
Fe41	Fe4	0.000000	0.500000	0.948440
Fe51	Fe5	0.000000	0.500000	0.448440
Fe61	Fe6	0.500000	0.000000	0.551560
Fe71	Fe7	0.500000	0.500000	0.000000
Fe81	Fe8	0.000000	0.000000	0.500000
H11	H1	0.859900	0.821600	0.978200
H21	H2	0.859800	0.689100	0.961400
H31	H3	0.639400	0.676400	0.018200
H41	H4	0.636900	0.808500	0.032000
H51	H5	0.102100	0.951000	0.895800
H61	H6	0.103900	0.946300	0.794400
H71	H7	0.068200	0.904400	0.705000
H81	H8	0.067500	0.908700	0.605300
H91	H9	0.559600	0.904100	0.946400
H101	H10	0.561800	0.900100	0.845500
H111	H11	0.602400	0.943500	0.756600
H121	H12	0.599300	0.944800	0.655900
H131	H13	0.140100	0.178400	0.978200
H141	H14	0.140200	0.310900	0.961400
H151	H15	0.360600	0.323600	0.018200
H161	H16	0.363100	0.191500	0.032000
H171	H17	0.897900	0.049000	0.895800
H181	H18	0.896100	0.053700	0.794400
H191	H19	0.931800	0.095600	0.705000
H201	H20	0.932500	0.091300	0.605300
H211	H21	0.440400	0.095900	0.946400
H221	H22	0.438200	0.099900	0.845500
H231	H23	0.397600	0.056500	0.756600
H241	H24	0.400700	0.055200	0.655900
H251	H25	0.821600	0.140100	0.021800
H261	H26	0.689100	0.140200	0.038600
H271	H27	0.676400	0.360600	0.981800
H281	H28	0.808500	0.363100	0.968000
H291	H29	0.951000	0.897900	0.104200
H301	H30	0.946300	0.896100	0.205600
H311	H31	0.904400	0.931800	0.295000
H321	H32	0.908700	0.932500	0.394700
H331	H33	0.904100	0.440400	0.053600
H341	H34	0.900100	0.438200	0.154500
H351	H35	0.943500	0.397600	0.243400
H361	H36	0.944800	0.400700	0.344100
H371	H37	0.178400	0.859900	0.021800
H381	H38	0.310900	0.859800	0.038600
H391	H39	0.323600	0.639400	0.981800
H401	H40	0.191500	0.636900	0.968000
H411	H41	0.049000	0.102100	0.104200
H421	H42	0.053700	0.103900	0.205600
H431	H43	0.095600	0.068200	0.295000
H441	H44	0.091300	0.067500	0.394700
H451	H45	0.095900	0.559600	0.053600
H461	H46	0.099900	0.561800	0.154500
H471	H47	0.056500	0.602400	0.243400
H481	H48	0.055200	0.599300	0.344100
H491	H49	0.640100	0.321600	0.521800
H501	H50	0.640200	0.189100	0.538600
H511	H51	0.860600	0.176400	0.481800
H521	H52	0.863100	0.308500	0.468000
H531	H53	0.397900	0.451000	0.604200
H541	H54	0.396100	0.446300	0.705600
H551	H55	0.431800	0.404400	0.795000
H561	H56	0.432500	0.408700	0.894700
H571	H57	0.940400	0.404100	0.553600
H581	H58	0.938200	0.400100	0.654500
H591	H59	0.897600	0.443500	0.743400
H601	H60	0.900700	0.444800	0.844100
H611	H61	0.359900	0.678400	0.521800
H621	H62	0.359800	0.810900	0.538600
H631	H63	0.139400	0.823600	0.481800
H641	H64	0.136900	0.691500	0.468000
H651	H65	0.602100	0.549000	0.604200
H661	H66	0.603900	0.553700	0.705600
H671	H67	0.568200	0.595600	0.795000
H681	H68	0.567500	0.591300	0.894700
H691	H69	0.059600	0.595900	0.553600
H701	H70	0.061800	0.599900	0.654500
H711	H71	0.102400	0.556500	0.743400
H721	H72	0.099300	0.555200	0.844100
H731	H73	0.678400	0.640100	0.478200
H741	H74	0.810900	0.640200	0.461400
H751	H75	0.823600	0.860600	0.518200
H761	H76	0.691500	0.863100	0.532000
H771	H77	0.549000	0.397900	0.395800
H781	H78	0.553700	0.396100	0.294400
H791	H79	0.595600	0.431800	0.205000
H801	H80	0.591300	0.432500	0.105300
H811	H81	0.595900	0.940400	0.446400
H821	H82	0.599900	0.938200	0.345500
H831	H83	0.556500	0.897600	0.256600
H841	H84	0.555200	0.900700	0.155900
H851	H85	0.321600	0.359900	0.478200
H861	H86	0.189100	0.359800	0.461400
H871	H87	0.176400	0.139400	0.518200
H881	H88	0.308500	0.136900	0.532000
H891	H89	0.451000	0.602100	0.395800
H901	H90	0.446300	0.603900	0.294400
H911	H91	0.404400	0.568200	0.205000
H921	H92	0.408700	0.567500	0.105300
H931	H93	0.404100	0.059600	0.446400
H941	H94	0.400100	0.061800	0.345500
H951	H95	0.443500	0.102400	0.256600
H961	H96	0.444800	0.099300	0.155900
C11	C1	0.817150	0.956830	0.008950
C21	C2	0.748650	0.914750	0.016910
C31	C3	0.680970	0.951730	0.035170
C41	C4	0.749200	0.831990	0.006700
C51	C5	0.814120	0.792950	0.985850
C61	C6	0.814390	0.713550	0.975780
C71	C7	0.749460	0.670150	0.987170
C81	C8	0.683850	0.706260	0.009040
C91	C9	0.682930	0.784790	0.018050
C101	C10	0.749320	0.583750	0.977890
C111	C11	0.683130	0.542330	0.989160
C121	C12	0.818380	0.546800	0.962510
C131	C13	0.059290	0.971090	0.874640
C141	C14	0.061070	0.968930	0.813960
C151	C15	0.040220	0.943960	0.685440
C161	C16	0.038990	0.946670	0.626160
C171	C17	0.534620	0.944320	0.925390
C181	C18	0.536260	0.941400	0.865020
C191	C19	0.560030	0.967010	0.737070
C201	C20	0.557900	0.967700	0.676980
C211	C21	0.182850	0.043170	0.008950
C221	C22	0.251350	0.085250	0.016910
C231	C23	0.319030	0.048270	0.035170
C241	C24	0.250800	0.168010	0.006700
C251	C25	0.185880	0.207050	0.985850
C261	C26	0.185610	0.286450	0.975780
C271	C27	0.250540	0.329850	0.987170
C281	C28	0.316150	0.293740	0.009040
C291	C29	0.317070	0.215210	0.018050
C301	C30	0.250680	0.416250	0.977890
C311	C31	0.316870	0.457670	0.989160
C321	C32	0.181620	0.453200	0.962510
C331	C33	0.940710	0.028910	0.874640
C341	C34	0.938930	0.031070	0.813960
C351	C35	0.959780	0.056040	0.685440
C361	C36	0.961010	0.053330	0.626160
C371	C37	0.465380	0.055680	0.925390
C381	C38	0.463740	0.058600	0.865020
C391	C39	0.439970	0.032990	0.737070
C401	C40	0.442100	0.032300	0.676980
C411	C41	0.956830	0.182850	0.991050
C421	C42	0.914750	0.251350	0.983090
C431	C43	0.951730	0.319030	0.964830
C441	C44	0.831990	0.250800	0.993300
C451	C45	0.792950	0.185880	0.014150
C461	C46	0.713550	0.185610	0.024220
C471	C47	0.670150	0.250540	0.012830
C481	C48	0.706260	0.316150	0.990960
C491	C49	0.784790	0.317070	0.981950
C501	C50	0.583750	0.250680	0.022110
C511	C51	0.542330	0.316870	0.010840
C521	C52	0.546800	0.181620	0.037490
C531	C53	0.971090	0.940710	0.125360
C541	C54	0.968930	0.938930	0.186040
C551	C55	0.943960	0.959780	0.314560
C561	C56	0.946670	0.961010	0.373840
C571	C57	0.944320	0.465380	0.074610
C581	C58	0.941400	0.463740	0.134980
C591	C59	0.967010	0.439970	0.262930
C601	C60	0.967700	0.442100	0.323020
C611	C61	0.043170	0.817150	0.991050
C621	C62	0.085250	0.748650	0.983090
C631	C63	0.048270	0.680970	0.964830
C641	C64	0.168010	0.749200	0.993300
C651	C65	0.207050	0.814120	0.014150
C661	C66	0.286450	0.814390	0.024220
C671	C67	0.329850	0.749460	0.012830
C681	C68	0.293740	0.683850	0.990960
C691	C69	0.215210	0.682930	0.981950
C701	C70	0.416250	0.749320	0.022110
C711	C71	0.457670	0.683130	0.010840
C721	C72	0.453200	0.818380	0.037490
C731	C73	0.028910	0.059290	0.125360
C741	C74	0.031070	0.061070	0.186040
C751	C75	0.056040	0.040220	0.314560
C761	C76	0.053330	0.038990	0.373840
C771	C77	0.055680	0.534620	0.074610
C781	C78	0.058600	0.536260	0.134980
C791	C79	0.032990	0.560030	0.262930
C801	C80	0.032300	0.557900	0.323020
C811	C81	0.682850	0.456830	0.491050
C821	C82	0.751350	0.414750	0.483090
C831	C83	0.819030	0.451730	0.464830
C841	C84	0.750800	0.331990	0.493300
C851	C85	0.685880	0.292950	0.514150
C861	C86	0.685610	0.213550	0.524220
C871	C87	0.750540	0.170150	0.512830
C881	C88	0.816150	0.206260	0.490960
C891	C89	0.817070	0.284790	0.481950
C901	C90	0.750680	0.083750	0.522110
C911	C91	0.816870	0.042330	0.510840
C921	C92	0.681620	0.046800	0.537490
C931	C93	0.440710	0.471090	0.625360
C941	C94	0.438930	0.468930	0.686040
C951	C95	0.459780	0.443960	0.814560
C961	C96	0.461010	0.446670	0.873840
C971	C97	0.965380	0.444320	0.574610
C981	C98	0.963740	0.441400	0.634980
C991	C99	0.939970	0.467010	0.762930
C1001	C100	0.942100	0.467700	0.823020
C1011	C101	0.317150	0.543170	0.491050
C1021	C102	0.248650	0.585250	0.483090
C1031	C103	0.180970	0.548270	0.464830
C1041	C104	0.249200	0.668010	0.493300
C1051	C105	0.314120	0.707050	0.514150
C1061	C106	0.314390	0.786450	0.524220
C1071	C107	0.249460	0.829850	0.512830
C1081	C108	0.183850	0.793740	0.490960
C1091	C109	0.182930	0.715210	0.481950
C1101	C110	0.249320	0.916250	0.522110
C1111	C111	0.183130	0.957670	0.510840
C1121	C112	0.318380	0.953200	0.537490
C1131	C113	0.559290	0.528910	0.625360
C1141	C114	0.561070	0.531070	0.686040
C1151	C115	0.540220	0.556040	0.814560
C1161	C116	0.538990	0.553330	0.873840
C1171	C117	0.034620	0.555680	0.574610
C1181	C118	0.036260	0.558600	0.634980
C1191	C119	0.060030	0.532990	0.762930
C1201	C120	0.057900	0.532300	0.823020
C1211	C121	0.543170	0.682850	0.508950
C1221	C122	0.585250	0.751350	0.516910
C1231	C123	0.548270	0.819030	0.535170
C1241	C124	0.668010	0.750800	0.506700
C1251	C125	0.707050	0.685880	0.485850
C1261	C126	0.786450	0.685610	0.475780
C1271	C127	0.829850	0.750540	0.487170
C1281	C128	0.793740	0.816150	0.509040
C1291	C129	0.715210	0.817070	0.518050
C1301	C130	0.916250	0.750680	0.477890
C1311	C131	0.957670	0.816870	0.489160
C1321	C132	0.953200	0.681620	0.462510
C1331	C133	0.528910	0.440710	0.374640
C1341	C134	0.531070	0.438930	0.313960
C1351	C135	0.556040	0.459780	0.185440
C1361	C136	0.553330	0.461010	0.126160
C1371	C137	0.555680	0.965380	0.425390
C1381	C138	0.558600	0.963740	0.365020
C1391	C139	0.532990	0.939970	0.237070
C1401	C140	0.532300	0.942100	0.176980
C1411	C141	0.456830	0.317150	0.508950
C1421	C142	0.414750	0.248650	0.516910
C1431	C143	0.451730	0.180970	0.535170
C1441	C144	0.331990	0.249200	0.506700
C1451	C145	0.292950	0.314120	0.485850
C1461	C146	0.213550	0.314390	0.475780
C1471	C147	0.170150	0.249460	0.487170
C1481	C148	0.206260	0.183850	0.509040
C1491	C149	0.284790	0.182930	0.518050
C1501	C150	0.083750	0.249320	0.477890
C1511	C151	0.042330	0.183130	0.489160
C1521	C152	0.046800	0.318380	0.462510
C1531	C153	0.471090	0.559290	0.374640
C1541	C154	0.468930	0.561070	0.313960
C1551	C155	0.443960	0.540220	0.185440
C1561	C156	0.446670	0.538990	0.126160
C1571	C157	0.444320	0.034620	0.425390
C1581	C158	0.441400	0.036260	0.365020
C1591	C159	0.467010	0.060030	0.237070
C1601	C160	0.467700	0.057900	0.176980
C1611	C161	0.500000	0.000000	0.833080
C1621	C162	0.500000	0.000000	0.769010
C1631	C163	0.000000	0.500000	0.166920
C1641	C164	0.000000	0.500000	0.230990
C1651	C165	0.000000	0.500000	0.666920
C1661	C166	0.000000	0.500000	0.730990
C1671	C167	0.500000	0.000000	0.333080
C1681	C168	0.500000	0.000000	0.269010
C1691	C169	0.000000	0.000000	0.782380
C1701	C170	0.000000	0.000000	0.717870
C1711	C171	0.000000	0.000000	0.217620
C1721	C172	0.000000	0.000000	0.282130
C1731	C173	0.500000	0.500000	0.717620
C1741	C174	0.500000	0.500000	0.782130
C1751	C175	0.500000	0.500000	0.282380
C1761	C176	0.500000	0.500000	0.217870
N11	N1	0.876850	0.984640	0.001230
N21	N2	0.622140	0.976430	0.049890
N31	N3	0.878330	0.521480	0.949300
N41	N4	0.623150	0.514310	0.999290
N51	N5	0.123150	0.015360	0.001230
N61	N6	0.377860	0.023570	0.049890
N71	N7	0.121670	0.478520	0.949300
N81	N8	0.376850	0.485690	0.999290
N91	N9	0.984640	0.123150	0.998770
N101	N10	0.976430	0.377860	0.950110
N111	N11	0.521480	0.121670	0.050700
N121	N12	0.514310	0.376850	0.000710
N131	N13	0.015360	0.876850	0.998770
N141	N14	0.023570	0.622140	0.950110
N151	N15	0.478520	0.878330	0.050700
N161	N16	0.485690	0.623150	0.000710
N171	N17	0.623150	0.484640	0.498770
N181	N18	0.877860	0.476430	0.450110
N191	N19	0.621670	0.021480	0.550700
N201	N20	0.876850	0.014310	0.500710
N211	N21	0.376850	0.515360	0.498770
N221	N22	0.122140	0.523570	0.450110
N231	N23	0.378330	0.978520	0.550700
N241	N24	0.123150	0.985690	0.500710
N251	N25	0.515360	0.623150	0.501230
N261	N26	0.523570	0.877860	0.549890
N271	N27	0.978520	0.621670	0.449300
N281	N28	0.985690	0.876850	0.499290
N291	N29	0.484640	0.376850	0.501230
N301	N30	0.476430	0.122140	0.549890
N311	N31	0.021480	0.378330	0.449300
N321	N32	0.014310	0.123150	0.499290
N331	N33	0.500000	0.000000	0.955950
N341	N34	0.500000	0.000000	0.646320
N351	N35	0.000000	0.500000	0.044050
N361	N36	0.000000	0.500000	0.353680
N371	N37	0.000000	0.500000	0.544050
N381	N38	0.000000	0.500000	0.853680
N391	N39	0.500000	0.000000	0.455950
N401	N40	0.500000	0.000000	0.146320
N411	N41	0.000000	0.000000	0.904730
N421	N42	0.000000	0.000000	0.596000
N431	N43	0.000000	0.000000	0.095270
N441	N44	0.000000	0.000000	0.404000
N451	N45	0.500000	0.500000	0.595270
N461	N46	0.500000	0.500000	0.904000
N471	N47	0.500000	0.500000	0.404730
N481	N48	0.500000	0.500000	0.096000
