data_VARREL_clean_PM
_symmetry_space_group_name_H-M	'P1'
_cell_length_a	9.272000
_cell_length_b	9.272000
_cell_length_c	17.716000
_cell_angle_alpha	90.000000
_cell_angle_beta	90.000000
_cell_angle_gamma	120.000000
_symmetry_Int_Tables_number 1

loop_
_symmetry_equiv_pos_as_xyz
'x,y,z'

loop_
_atom_site_label
_atom_site_type_symbol
_atom_site_fract_x
_atom_site_fract_y
_atom_site_fract_z
La11	La1	0.333330	0.666660	0.750000
La21	La2	0.666670	0.333340	0.250000
Gd11	Gd1	0.000000	0.000000	0.000000
Gd21	Gd2	0.000000	0.000000	0.500000
H11	H1	0.573500	0.599800	0.918100
H21	H2	0.509500	0.677600	0.976500
H31	H3	0.026300	0.426500	0.918100
H41	H4	0.168100	0.490500	0.976500
H51	H5	0.400200	0.973700	0.918100
H61	H6	0.322400	0.831900	0.976500
H71	H7	0.573500	0.599800	0.581900
H81	H8	0.509500	0.677600	0.523500
H91	H9	0.026300	0.426500	0.581900
H101	H10	0.168100	0.490500	0.523500
H111	H11	0.400200	0.973700	0.581900
H121	H12	0.322400	0.831900	0.523500
H131	H13	0.973700	0.400200	0.081900
H141	H14	0.831900	0.322400	0.023500
H151	H15	0.599800	0.573500	0.081900
H161	H16	0.677600	0.509500	0.023500
H171	H17	0.426500	0.026300	0.081900
H181	H18	0.490500	0.168100	0.023500
H191	H19	0.973700	0.400200	0.418100
H201	H20	0.831900	0.322400	0.476500
H211	H21	0.599800	0.573500	0.418100
H221	H22	0.677600	0.509500	0.476500
H231	H23	0.426500	0.026300	0.418100
H241	H24	0.490500	0.168100	0.476500
C11	C1	0.657200	0.841300	0.895300
C21	C2	0.603200	0.695700	0.947800
C31	C3	0.184100	0.342800	0.895300
C41	C4	0.092500	0.396800	0.947800
C51	C5	0.158700	0.815900	0.895300
C61	C6	0.304300	0.907500	0.947800
C71	C7	0.657200	0.841300	0.604700
C81	C8	0.603200	0.695700	0.552200
C91	C9	0.184100	0.342800	0.604700
C101	C10	0.092500	0.396800	0.552200
C111	C11	0.158700	0.815900	0.604700
C121	C12	0.304300	0.907500	0.552200
C131	C13	0.815900	0.158700	0.104700
C141	C14	0.907500	0.304300	0.052200
C151	C15	0.841300	0.657200	0.104700
C161	C16	0.695700	0.603200	0.052200
C171	C17	0.342800	0.184100	0.104700
C181	C18	0.396800	0.092500	0.052200
C191	C19	0.815900	0.158700	0.395300
C201	C20	0.907500	0.304300	0.447800
C211	C21	0.841300	0.657200	0.395300
C221	C22	0.695700	0.603200	0.447800
C231	C23	0.342800	0.184100	0.395300
C241	C24	0.396800	0.092500	0.447800
O11	O1	0.795500	0.967900	0.907130
O21	O2	0.559000	0.827100	0.844150
O31	O3	0.172400	0.204500	0.907130
O41	O4	0.268100	0.441000	0.844150
O51	O5	0.032100	0.827600	0.907130
O61	O6	0.172900	0.731900	0.844150
O71	O7	0.795500	0.967900	0.592870
O81	O8	0.559000	0.827100	0.655850
O91	O9	0.172400	0.204500	0.592870
O101	O10	0.268100	0.441000	0.655850
O111	O11	0.032100	0.827600	0.592870
O121	O12	0.172900	0.731900	0.655850
O131	O13	0.827600	0.032100	0.092870
O141	O14	0.731900	0.172900	0.155850
O151	O15	0.967900	0.795500	0.092870
O161	O16	0.827100	0.559000	0.155850
O171	O17	0.204500	0.172400	0.092870
O181	O18	0.441000	0.268100	0.155850
O191	O19	0.827600	0.032100	0.407130
O201	O20	0.731900	0.172900	0.344150
O211	O21	0.967900	0.795500	0.407130
O221	O22	0.827100	0.559000	0.344150
O231	O23	0.204500	0.172400	0.407130
O241	O24	0.441000	0.268100	0.344150
O251	O25	0.731700	0.731700	0.000000
O261	O26	0.000000	0.268300	0.000000
O271	O27	0.268300	0.000000	0.000000
O281	O28	0.731700	0.731700	0.500000
O291	O29	0.000000	0.268300	0.500000
O301	O30	0.268300	0.000000	0.500000
