data_VASFED_clean_PM
_symmetry_space_group_name_H-M	'P1'
_cell_length_a	6.082000
_cell_length_b	10.509100
_cell_length_c	13.628000
_cell_angle_alpha	72.398000
_cell_angle_beta	88.980000
_cell_angle_gamma	89.043000
_symmetry_Int_Tables_number 1

loop_
_symmetry_equiv_pos_as_xyz
'x,y,z'

loop_
_atom_site_label
_atom_site_type_symbol
_atom_site_fract_x
_atom_site_fract_y
_atom_site_fract_z
Pr11	Pr1	0.251280	0.660560	0.708780
N11	N1	0.078200	0.887000	0.575500
N21	N2	0.434000	0.556900	0.898400
N31	N3	0.089600	0.572200	0.558200
O11	O1	0.453400	0.771200	0.547200
O21	O2	0.063300	0.698200	0.856800
O31	O3	0.845800	0.641400	0.699200
O41	O4	0.560100	0.523900	0.675400
C11	C1	0.186700	0.940000	0.486100
C21	C2	0.891000	0.947400	0.589000
C31	C3	0.318300	0.573200	0.977300
C41	C4	0.617600	0.482700	0.921300
C51	C5	0.882800	0.528900	0.574600
C61	C6	0.204900	0.543500	0.485200
C71	C7	0.400000	0.868200	0.473000
C81	C8	0.109600	0.657800	0.950600
C91	C9	0.753100	0.567700	0.656200
H11	H1	0.810500	0.913700	0.649700
H21	H2	0.703700	0.468400	0.868500
H31	H3	0.349400	0.572300	0.473200
O51	O5	0.502800	0.911300	0.389800
O61	O6	0.998100	0.679200	0.020800
Pr21	Pr2	0.748720	0.339440	0.291220
N41	N4	0.921800	0.113000	0.424500
N51	N5	0.566000	0.443100	0.101600
N61	N6	0.910400	0.427800	0.441800
O71	O7	0.546600	0.228800	0.452800
O81	O8	0.936700	0.301800	0.143200
O91	O9	0.154200	0.358600	0.300800
O101	O10	0.439900	0.476100	0.324600
C101	C10	0.813300	0.060000	0.513900
C111	C11	0.109000	0.052600	0.411000
C121	C12	0.681700	0.426800	0.022700
C131	C13	0.382400	0.517300	0.078700
C141	C14	0.117200	0.471100	0.425400
C151	C15	0.795100	0.456500	0.514800
C161	C16	0.600000	0.131800	0.527000
C171	C17	0.890400	0.342200	0.049400
C181	C18	0.246900	0.432300	0.343800
H41	H4	0.189500	0.086300	0.350300
H51	H5	0.296300	0.531600	0.131500
H61	H6	0.650600	0.427700	0.526800
O111	O11	0.497200	0.088700	0.610200
O121	O12	0.001900	0.320800	0.979200
