data_VASFIH_clean_PM
_symmetry_space_group_name_H-M	'P1'
_cell_length_a	6.032700
_cell_length_b	12.775200
_cell_length_c	13.177500
_cell_angle_alpha	118.990000
_cell_angle_beta	90.575000
_cell_angle_gamma	91.670000
_symmetry_Int_Tables_number 1

loop_
_symmetry_equiv_pos_as_xyz
'x,y,z'

loop_
_atom_site_label
_atom_site_type_symbol
_atom_site_fract_x
_atom_site_fract_y
_atom_site_fract_z
Er11	Er1	0.276330	0.160110	0.321980
N11	N1	0.414000	0.073000	0.109100
N21	N2	0.076800	0.047900	0.431100
N31	N3	0.430500	0.379500	0.445000
O11	O1	0.663100	0.165500	0.297300
O21	O2	0.449000	0.179000	0.485500
O31	O3	0.191900	0.285000	0.248100
O41	O4	0.960500	0.067900	0.203400
C11	C1	0.624500	0.039700	0.096600
C21	C2	0.290100	0.034600	0.010900
C31	C3	0.187900	0.065900	0.526700
C41	C4	0.889300	0.981400	0.404500
C51	C5	0.385000	0.450700	0.400100
C61	C6	0.544300	0.429800	0.545100
C71	C7	0.761300	0.094200	0.207300
C81	C8	0.401800	0.139700	0.553800
C91	C9	0.249600	0.393600	0.287800
H11	H1	0.144700	0.058500	0.015600
H21	H2	0.807900	0.966300	0.338100
H31	H3	0.577700	0.383400	0.579600
O51	O5	0.519200	0.155900	0.638700
O61	O6	0.202600	0.456600	0.243300
Er21	Er2	0.723670	0.839890	0.678020
N41	N4	0.586000	0.927000	0.890900
N51	N5	0.923200	0.952100	0.568900
N61	N6	0.569500	0.620500	0.555000
O71	O7	0.336900	0.834500	0.702700
O81	O8	0.551000	0.821000	0.514500
O91	O9	0.808100	0.715000	0.751900
O101	O10	0.039500	0.932100	0.796600
C101	C10	0.375500	0.960300	0.903400
C111	C11	0.709900	0.965400	0.989100
C121	C12	0.812100	0.934100	0.473300
C131	C13	0.110700	0.018600	0.595500
C141	C14	0.615000	0.549300	0.599900
C151	C15	0.455700	0.570200	0.454900
C161	C16	0.238700	0.905800	0.792700
C171	C17	0.598200	0.860300	0.446200
C181	C18	0.750400	0.606400	0.712200
H41	H4	0.855300	0.941500	0.984400
H51	H5	0.192100	0.033700	0.661900
H61	H6	0.422300	0.616600	0.420400
O111	O11	0.480800	0.844100	0.361300
O121	O12	0.797400	0.543400	0.756700
