data_VATVOE_clean_PM
_symmetry_space_group_name_H-M	'P1'
_cell_length_a	12.711000
_cell_length_b	24.300000
_cell_length_c	15.085000
_cell_angle_alpha	90.000000
_cell_angle_beta	92.506000
_cell_angle_gamma	90.000000
_symmetry_Int_Tables_number 1

loop_
_symmetry_equiv_pos_as_xyz
'x,y,z'

loop_
_atom_site_label
_atom_site_type_symbol
_atom_site_fract_x
_atom_site_fract_y
_atom_site_fract_z
Cd11	Cd1	0.962810	0.134160	0.554850
Cd21	Cd2	0.497030	0.139710	0.278980
Cd31	Cd3	0.958380	0.129730	0.826820
Cd41	Cd4	0.510270	0.133870	0.006640
N11	N1	0.912500	0.566700	0.185700
O11	O1	0.073800	0.201950	0.802700
N21	N2	0.170500	0.695780	0.445900
N31	N3	0.381400	0.070870	0.022800
O21	O2	0.398300	0.204820	0.041300
N41	N4	0.365500	0.700080	0.712000
N51	N5	0.096100	0.072330	0.558200
N61	N6	0.645700	0.194270	0.029900
N71	N7	0.172000	0.692830	0.184900
O31	O3	0.509500	0.122180	0.446490
C11	C1	0.997200	0.123820	0.045700
N81	N8	0.248000	0.776480	0.426800
O41	O4	0.008400	0.147000	0.973060
O51	O5	0.420000	0.192110	0.393900
C21	C2	0.754800	0.324390	0.099700
C31	C3	0.364800	0.216170	0.115900
C41	C4	0.371400	0.752670	0.690600
H11	H1	0.434400	0.771900	0.687200
C51	C5	0.449800	0.162100	0.456300
C61	C6	0.271400	0.689300	0.219600
H21	H2	0.301000	0.658100	0.246100
C71	C7	0.471700	0.136300	0.789200
N91	N9	0.248900	0.773750	0.169700
O61	O6	0.951700	0.112770	0.388370
C81	C8	0.799700	0.432360	0.147800
O71	O7	0.043200	0.183200	0.442900
C91	C9	0.007700	0.138300	0.212600
H31	H3	0.959500	0.110000	0.219500
C101	C10	0.422300	0.161880	0.706600
C111	C11	0.153900	0.222370	0.193600
O81	O8	0.060100	0.196020	0.653400
C121	C12	0.638000	0.246560	0.051000
H41	H4	0.574800	0.265800	0.050300
N101	N10	0.294200	0.995650	0.314900
C131	C13	0.384700	0.023990	0.311400
H51	H5	0.450200	0.009900	0.329500
C141	C14	0.010500	0.152970	0.378500
C151	C15	0.250800	0.830790	0.648200
C161	C16	0.301400	0.227590	0.639600
O91	O9	0.455500	0.157650	0.863020
C171	C17	0.748200	0.182300	0.039700
H61	H6	0.776700	0.147700	0.029800
C181	C18	0.260700	0.831860	0.399100
C191	C19	0.393800	0.020040	0.051500
H71	H7	0.459400	0.003900	0.062700
N111	N11	0.370400	0.073750	0.279700
N121	N12	0.303500	0.993980	0.062700
C201	C20	0.458500	0.148900	0.622600
H81	H8	0.511000	0.122600	0.616400
C211	C21	0.093000	0.217170	0.725300
O101	O10	0.948600	0.078480	0.055100
C221	C22	0.114800	0.194160	0.119500
H91	H9	0.137500	0.203500	0.063700
O111	O11	0.387800	0.193980	0.187300
O121	O12	0.224500	0.265060	0.189300
O131	O13	0.224600	0.267800	0.643840
N131	N13	0.275700	0.775360	0.674200
C231	C23	0.283600	0.940480	0.343800
N141	N14	0.733200	0.269280	0.074100
C241	C24	0.046100	0.167450	0.287100
C251	C25	0.175200	0.867400	0.399500
H101	H10	0.110700	0.855000	0.418300
C261	C26	0.264800	0.830300	0.144800
C271	C27	0.290800	0.266160	0.115600
H111	H11	0.247300	0.266500	0.060400
C281	C28	0.091800	0.021030	0.583800
H121	H12	0.031800	0.005000	0.605600
C291	C29	0.369300	0.905700	0.347700
H131	H13	0.434700	0.918500	0.331700
C301	C30	0.854500	0.344600	0.096800
H141	H14	0.907600	0.322000	0.077100
O141	O14	0.528600	0.093880	0.780200
C311	C31	0.093700	0.320140	0.714500
H151	H15	0.138700	0.351800	0.711600
H161	H16	0.052000	0.322800	0.765800
H171	H17	0.048300	0.318600	0.662000
C321	C32	0.699000	0.412430	0.149300
H181	H18	0.644800	0.435600	0.165200
C331	C33	0.160700	0.268290	0.720800
H191	H19	0.206900	0.270300	0.774400
C341	C34	0.186300	0.922000	0.371600
H201	H20	0.129100	0.945900	0.371500
N151	N15	0.182600	0.993920	0.575500
N161	N16	0.822500	0.488260	0.172300
C351	C35	0.118600	0.209590	0.277600
H211	H21	0.143700	0.229300	0.327000
C361	C36	0.290900	0.938630	0.092200
C371	C37	0.343200	0.200040	0.714600
H221	H22	0.317400	0.207500	0.770100
C381	C38	0.040700	0.151270	0.127800
C391	C39	0.275700	0.691500	0.472900
H231	H23	0.308000	0.659800	0.495600
C401	C40	0.414200	0.176200	0.548200
C411	C41	0.206500	0.938860	0.600200
C421	C42	0.330300	0.865200	0.621800
H241	H24	0.398600	0.851900	0.618900
C431	C43	0.677200	0.359100	0.127700
H251	H25	0.608900	0.345800	0.131900
C441	C44	0.216200	0.030200	0.281300
H261	H26	0.144500	0.022600	0.274600
C451	C45	0.322700	0.738570	0.210000
H271	H27	0.392200	0.746700	0.226900
C461	C46	0.914700	0.514640	0.159700
H281	H28	0.972900	0.498100	0.135700
C471	C47	0.336700	0.215600	0.557200
H291	H29	0.308700	0.233900	0.507400
C481	C48	0.194500	0.920900	0.116800
H301	H30	0.137900	0.945200	0.116700
C491	C49	0.157800	0.746710	0.418800
H311	H31	0.094000	0.760900	0.396500
C501	C50	0.362000	0.848800	0.122500
H321	H32	0.419700	0.825200	0.125800
C511	C51	0.265600	0.077500	0.259900
H331	H33	0.232200	0.108200	0.235100
C521	C52	0.324500	0.740400	0.461100
H341	H34	0.395200	0.748300	0.473400
C531	C53	0.272900	0.077700	0.012100
H351	H35	0.238600	0.109300	0.991300
C541	C54	0.225700	0.030600	0.037200
H361	H36	0.153500	0.024100	0.037100
C551	C55	0.759000	0.525400	0.209400
H371	H37	0.690700	0.519200	0.226800
C561	C56	0.202700	0.733500	0.683900
H381	H38	0.129800	0.736200	0.677300
C571	C57	0.259900	0.687600	0.705200
H391	H39	0.231600	0.652800	0.713900
C581	C58	0.358200	0.851300	0.375500
H401	H40	0.416400	0.828000	0.378200
C591	C59	0.193000	0.079200	0.530300
H411	H41	0.218700	0.111800	0.507300
C601	C60	0.181300	0.865800	0.142100
H421	H42	0.115200	0.853400	0.157200
C611	C61	0.355300	0.318500	0.122200
H431	H43	0.309000	0.349700	0.121800
H441	H44	0.400000	0.320700	0.072700
H451	H45	0.397800	0.318200	0.176400
C621	C62	0.308800	0.919300	0.599700
H461	H46	0.363200	0.942600	0.584500
C631	C63	0.127900	0.904000	0.623100
H471	H47	0.058700	0.916500	0.622200
C641	C64	0.373900	0.902360	0.095400
H481	H48	0.439700	0.914300	0.078800
C651	C65	0.249300	0.031600	0.540200
H491	H49	0.318800	0.025900	0.525800
C661	C66	0.812600	0.573300	0.216900
H501	H50	0.786200	0.605900	0.239500
C671	C67	0.150400	0.850000	0.647900
H511	H51	0.096300	0.826900	0.664400
C681	C68	0.878400	0.397200	0.122100
H521	H52	0.947700	0.409500	0.122000
C691	C69	0.805600	0.227200	0.066100
H531	H53	0.878200	0.229200	0.076600
C701	C70	0.159800	0.744790	0.154500
H541	H54	0.098500	0.758600	0.127000
Cd51	Cd5	0.037190	0.634160	0.445150
Cd61	Cd6	0.502970	0.639710	0.721020
Cd71	Cd7	0.041620	0.629730	0.173180
Cd81	Cd8	0.489730	0.633870	0.993360
N171	N17	0.087500	0.066700	0.814300
O151	O15	0.926200	0.701950	0.197300
N181	N18	0.829500	0.195780	0.554100
N191	N19	0.618600	0.570870	0.977200
O161	O16	0.601700	0.704820	0.958700
N201	N20	0.634500	0.200080	0.288000
N211	N21	0.903900	0.572330	0.441800
N221	N22	0.354300	0.694270	0.970100
N231	N23	0.828000	0.192830	0.815100
O171	O17	0.490500	0.622180	0.553510
C711	C71	0.002800	0.623820	0.954300
N241	N24	0.752000	0.276480	0.573200
O181	O18	0.991600	0.647000	0.026940
O191	O19	0.580000	0.692110	0.606100
C721	C72	0.245200	0.824390	0.900300
C731	C73	0.635200	0.716170	0.884100
C741	C74	0.628600	0.252670	0.309400
H551	H55	0.565600	0.271900	0.312800
C751	C75	0.550200	0.662100	0.543700
C761	C76	0.728600	0.189300	0.780400
H561	H56	0.699000	0.158100	0.753900
C771	C77	0.528300	0.636300	0.210800
N251	N25	0.751100	0.273750	0.830300
O201	O20	0.048300	0.612770	0.611630
C781	C78	0.200300	0.932360	0.852200
O211	O21	0.956800	0.683200	0.557100
C791	C79	0.992300	0.638300	0.787400
H571	H57	0.040500	0.610000	0.780500
C801	C80	0.577700	0.661880	0.293400
C811	C81	0.846100	0.722370	0.806400
O221	O22	0.939900	0.696020	0.346600
C821	C82	0.362000	0.746560	0.949000
H581	H58	0.425200	0.765800	0.949700
N261	N26	0.705800	0.495650	0.685100
C831	C83	0.615300	0.523990	0.688600
H591	H59	0.549800	0.509900	0.670500
C841	C84	0.989500	0.652970	0.621500
C851	C85	0.749200	0.330790	0.351800
C861	C86	0.698600	0.727590	0.360400
O231	O23	0.544500	0.657650	0.136980
C871	C87	0.251800	0.682300	0.960300
H601	H60	0.223300	0.647700	0.970200
C881	C88	0.739300	0.331860	0.600900
C891	C89	0.606200	0.520040	0.948500
H611	H61	0.540600	0.503900	0.937300
N271	N27	0.629600	0.573750	0.720300
N281	N28	0.696500	0.493980	0.937300
C901	C90	0.541500	0.648900	0.377400
H621	H62	0.489000	0.622600	0.383600
C911	C91	0.907000	0.717170	0.274700
O241	O24	0.051400	0.578480	0.944900
C921	C92	0.885200	0.694160	0.880500
H631	H63	0.862500	0.703500	0.936300
O251	O25	0.612200	0.693980	0.812700
O261	O26	0.775500	0.765060	0.810700
O271	O27	0.775400	0.767800	0.356160
N291	N29	0.724300	0.275360	0.325800
C931	C93	0.716400	0.440480	0.656200
N301	N30	0.266800	0.769280	0.925900
C941	C94	0.953900	0.667450	0.712900
C951	C95	0.824800	0.367400	0.600500
H641	H64	0.889300	0.355000	0.581700
C961	C96	0.735200	0.330300	0.855200
C971	C97	0.709200	0.766160	0.884400
H651	H65	0.752700	0.766500	0.939600
C981	C98	0.908200	0.521030	0.416200
H661	H66	0.968200	0.505000	0.394400
C991	C99	0.630700	0.405700	0.652300
H671	H67	0.565300	0.418500	0.668300
C1001	C100	0.145500	0.844600	0.903200
H681	H68	0.092400	0.822000	0.922900
O281	O28	0.471400	0.593880	0.219800
C1011	C101	0.906300	0.820140	0.285500
H691	H69	0.861300	0.851800	0.288400
H701	H70	0.948000	0.822800	0.234200
H711	H71	0.951700	0.818600	0.338000
C1021	C102	0.301000	0.912430	0.850700
H721	H72	0.355200	0.935600	0.834800
C1031	C103	0.839300	0.768290	0.279200
H731	H73	0.793100	0.770300	0.225600
C1041	C104	0.813700	0.422000	0.628400
H741	H74	0.870900	0.445900	0.628500
N311	N31	0.817400	0.493920	0.424500
N321	N32	0.177500	0.988260	0.827700
C1051	C105	0.881400	0.709590	0.722400
H751	H75	0.856300	0.729300	0.673000
C1061	C106	0.709100	0.438630	0.907800
C1071	C107	0.656800	0.700040	0.285400
H761	H76	0.682600	0.707500	0.229900
C1081	C108	0.959300	0.651270	0.872200
C1091	C109	0.724300	0.191500	0.527100
H771	H77	0.692000	0.159800	0.504400
C1101	C110	0.585800	0.676200	0.451800
C1111	C111	0.793500	0.438860	0.399800
C1121	C112	0.669700	0.365200	0.378200
H781	H78	0.601400	0.351900	0.381100
C1131	C113	0.322800	0.859100	0.872300
H791	H79	0.391100	0.845800	0.868100
C1141	C114	0.783800	0.530200	0.718700
H801	H80	0.855500	0.522600	0.725400
C1151	C115	0.677300	0.238570	0.790000
H811	H81	0.607800	0.246700	0.773100
C1161	C116	0.085300	0.014640	0.840300
H821	H82	0.027100	0.998100	0.864300
C1171	C117	0.663300	0.715600	0.442800
H831	H83	0.691300	0.733900	0.492600
C1181	C118	0.805500	0.420900	0.883200
H841	H84	0.862100	0.445200	0.883300
C1191	C119	0.842200	0.246710	0.581200
H851	H85	0.906000	0.260900	0.603500
C1201	C120	0.638000	0.348800	0.877500
H861	H86	0.580300	0.325200	0.874200
C1211	C121	0.734400	0.577500	0.740100
H871	H87	0.767800	0.608200	0.764900
C1221	C122	0.675500	0.240400	0.538900
H881	H88	0.604800	0.248300	0.526600
C1231	C123	0.727100	0.577700	0.987900
H891	H89	0.761400	0.609300	0.008700
C1241	C124	0.774300	0.530600	0.962800
H901	H90	0.846500	0.524100	0.962900
C1251	C125	0.241000	0.025400	0.790600
H911	H91	0.309300	0.019200	0.773200
C1261	C126	0.797300	0.233500	0.316100
H921	H92	0.870200	0.236200	0.322700
C1271	C127	0.740100	0.187600	0.294800
H931	H93	0.768400	0.152800	0.286100
C1281	C128	0.641800	0.351300	0.624500
H941	H94	0.583600	0.328000	0.621800
C1291	C129	0.807000	0.579200	0.469700
H951	H95	0.781300	0.611800	0.492700
C1301	C130	0.818700	0.365800	0.857900
H961	H96	0.884800	0.353400	0.842800
C1311	C131	0.644700	0.818500	0.877800
H971	H97	0.691000	0.849700	0.878200
H981	H98	0.600000	0.820700	0.927300
H991	H99	0.602200	0.818200	0.823600
C1321	C132	0.691200	0.419300	0.400300
H1001	H100	0.636800	0.442600	0.415500
C1331	C133	0.872100	0.404000	0.376900
H1011	H101	0.941300	0.416500	0.377800
C1341	C134	0.626100	0.402360	0.904600
H1021	H102	0.560300	0.414300	0.921200
C1351	C135	0.750700	0.531600	0.459800
H1031	H103	0.681200	0.525900	0.474200
C1361	C136	0.187400	0.073300	0.783100
H1041	H104	0.213800	0.105900	0.760500
C1371	C137	0.849600	0.350000	0.352100
H1051	H105	0.903700	0.326900	0.335600
C1381	C138	0.121600	0.897200	0.877900
H1061	H106	0.052300	0.909500	0.878000
C1391	C139	0.194400	0.727200	0.933900
H1071	H107	0.121800	0.729200	0.923400
C1401	C140	0.840200	0.244790	0.845500
H1081	H108	0.901500	0.258600	0.873000
