data_VATYIZ_clean_PM
_symmetry_space_group_name_H-M	'P1'
_cell_length_a	8.673000
_cell_length_b	9.411000
_cell_length_c	10.048000
_cell_angle_alpha	63.708000
_cell_angle_beta	76.113000
_cell_angle_gamma	75.450000
_symmetry_Int_Tables_number 1

loop_
_symmetry_equiv_pos_as_xyz
'x,y,z'

loop_
_atom_site_label
_atom_site_type_symbol
_atom_site_fract_x
_atom_site_fract_y
_atom_site_fract_z
Nd11	Nd1	0.329800	0.364540	0.842350
O11	O1	0.080800	0.302400	0.021700
O21	O2	0.326200	0.079400	0.917600
O31	O3	0.528100	0.309400	0.643600
O41	O4	0.529700	0.524400	0.812300
O51	O5	0.435500	0.822800	0.037100
O61	O6	0.861800	0.397200	0.149900
O71	O7	0.659600	0.607300	0.925500
O81	O8	0.662000	0.407100	0.407900
C11	C1	0.984000	0.410900	0.050000
C21	C2	0.429900	0.973700	0.986100
C31	C3	0.555500	0.418300	0.514800
C41	C4	0.555200	0.538700	0.923800
Nd21	Nd2	0.670200	0.635460	0.157650
O91	O9	0.919200	0.697600	0.978300
O101	O10	0.673800	0.920600	0.082400
O111	O11	0.471900	0.690600	0.356400
O121	O12	0.470300	0.475600	0.187700
O131	O13	0.564500	0.177200	0.962900
O141	O14	0.138200	0.602800	0.850100
O151	O15	0.340400	0.392700	0.074500
O161	O16	0.338000	0.592900	0.592100
C51	C5	0.016000	0.589100	0.950000
C61	C6	0.570100	0.026300	0.013900
C71	C7	0.444500	0.581700	0.485200
C81	C8	0.444800	0.461300	0.076200
