data_VATYAR_clean_PM
_symmetry_space_group_name_H-M	'P1'
_cell_length_a	8.507000
_cell_length_b	9.762000
_cell_length_c	10.249000
_cell_angle_alpha	62.378000
_cell_angle_beta	76.681000
_cell_angle_gamma	73.858000
_symmetry_Int_Tables_number 1

loop_
_symmetry_equiv_pos_as_xyz
'x,y,z'

loop_
_atom_site_label
_atom_site_type_symbol
_atom_site_fract_x
_atom_site_fract_y
_atom_site_fract_z
Nd11	Nd1	0.666140	0.630760	0.160700
Nd21	Nd2	0.333860	0.369240	0.839300
C11	C1	0.015800	0.584600	0.952800
C21	C2	0.574500	0.021600	0.010900
C31	C3	0.446900	0.582900	0.484200
C41	C4	0.442900	0.462500	0.073400
C51	C5	0.984200	0.415400	0.047200
C61	C6	0.425500	0.978400	0.989100
C71	C7	0.553100	0.417100	0.515800
C81	C8	0.557100	0.537500	0.926600
O11	O1	0.924300	0.689500	0.988900
O21	O2	0.685800	0.909100	0.075400
O31	O3	0.468700	0.688900	0.355300
O41	O4	0.458300	0.484500	0.180000
O51	O5	0.573500	0.165600	0.962600
O61	O6	0.130200	0.603700	0.848100
O71	O7	0.346600	0.389400	0.071900
O81	O8	0.347500	0.598500	0.589200
O91	O9	0.075700	0.310500	0.011100
O101	O10	0.314200	0.090900	0.924600
O111	O11	0.531300	0.311100	0.644700
O121	O12	0.541700	0.515500	0.820000
O131	O13	0.426500	0.834400	0.037400
O141	O14	0.869800	0.396300	0.151900
O151	O15	0.653400	0.610600	0.928100
O161	O16	0.652500	0.401500	0.410800
