data_VAXHOR_clean_PM
_symmetry_space_group_name_H-M	'P1'
_cell_length_a	19.530000
_cell_length_b	9.564000
_cell_length_c	6.852000
_cell_angle_alpha	90.000000
_cell_angle_beta	110.750000
_cell_angle_gamma	90.000000
_symmetry_Int_Tables_number 1

loop_
_symmetry_equiv_pos_as_xyz
'x,y,z'

loop_
_atom_site_label
_atom_site_type_symbol
_atom_site_fract_x
_atom_site_fract_y
_atom_site_fract_z
Ca11	Ca1	0.480500	0.105800	0.230900
O11	O1	0.578000	0.256000	0.169000
O21	O2	0.575000	0.256000	0.481000
C11	C1	0.605000	0.291000	0.350000
C21	C2	0.674000	0.373000	0.423000
C31	C3	0.708000	0.403000	0.284000
O31	O3	0.671000	0.409000	0.064000
O41	O4	0.671000	0.409000	0.774000
C41	C4	0.774000	0.472000	0.343000
C51	C5	0.807000	0.520000	0.559000
N11	N1	0.378000	0.917000	0.126000
C61	C6	0.776000	0.484000	0.703000
C71	C7	0.707000	0.411000	0.634000
O51	O5	0.447000	0.088000	0.540000
O61	O6	0.446000	0.083000	0.851000
C81	C8	0.427000	0.139000	0.677000
C91	C9	0.374000	0.267000	0.625000
Ca21	Ca2	0.019500	0.605800	0.269100
O71	O7	0.922000	0.756000	0.331000
O81	O8	0.925000	0.756000	0.019000
C101	C10	0.895000	0.791000	0.150000
C111	C11	0.826000	0.873000	0.077000
C121	C12	0.792000	0.903000	0.216000
O91	O9	0.829000	0.909000	0.436000
O101	O10	0.829000	0.909000	0.726000
C131	C13	0.726000	0.972000	0.157000
C141	C14	0.693000	0.020000	0.941000
N21	N2	0.122000	0.417000	0.374000
C151	C15	0.724000	0.984000	0.797000
C161	C16	0.793000	0.911000	0.866000
O111	O11	0.053000	0.588000	0.960000
O121	O12	0.054000	0.583000	0.649000
C171	C17	0.073000	0.639000	0.823000
C181	C18	0.126000	0.767000	0.875000
Ca31	Ca3	0.519500	0.894200	0.769100
O131	O13	0.422000	0.744000	0.831000
O141	O14	0.425000	0.744000	0.519000
C191	C19	0.395000	0.709000	0.650000
C201	C20	0.326000	0.627000	0.577000
C211	C21	0.292000	0.597000	0.716000
O151	O15	0.329000	0.591000	0.936000
O161	O16	0.329000	0.591000	0.226000
C221	C22	0.226000	0.528000	0.657000
C231	C23	0.193000	0.480000	0.441000
N31	N3	0.622000	0.083000	0.874000
C241	C24	0.224000	0.516000	0.297000
C251	C25	0.293000	0.589000	0.366000
O171	O17	0.553000	0.912000	0.460000
O181	O18	0.554000	0.917000	0.149000
C261	C26	0.573000	0.861000	0.323000
C271	C27	0.626000	0.733000	0.375000
Ca41	Ca4	0.980500	0.394200	0.730900
O191	O19	0.078000	0.244000	0.669000
O201	O20	0.075000	0.244000	0.981000
C281	C28	0.105000	0.209000	0.850000
C291	C29	0.174000	0.127000	0.923000
C301	C30	0.208000	0.097000	0.784000
O211	O21	0.171000	0.091000	0.564000
O221	O22	0.171000	0.091000	0.274000
C311	C31	0.274000	0.028000	0.843000
C321	C32	0.307000	0.980000	0.059000
N41	N4	0.878000	0.583000	0.626000
C331	C33	0.276000	0.016000	0.203000
C341	C34	0.207000	0.089000	0.134000
O231	O23	0.947000	0.412000	0.040000
O241	O24	0.946000	0.417000	0.351000
C351	C35	0.927000	0.361000	0.177000
C361	C36	0.874000	0.233000	0.125000
