data_VAXTEV_clean_PM
_symmetry_space_group_name_H-M	'P1'
_cell_length_a	23.681000
_cell_length_b	9.692800
_cell_length_c	35.389000
_cell_angle_alpha	90.000000
_cell_angle_beta	92.789000
_cell_angle_gamma	90.000000
_symmetry_Int_Tables_number 1

loop_
_symmetry_equiv_pos_as_xyz
'x,y,z'

loop_
_atom_site_label
_atom_site_type_symbol
_atom_site_fract_x
_atom_site_fract_y
_atom_site_fract_z
Cd11	Cd1	0.190550	0.951790	0.324920
O11	O1	0.142780	0.821900	0.368260
O21	O2	0.198340	0.701400	0.333250
O31	O3	0.124490	0.245600	0.452120
O41	O4	0.136200	0.104800	0.766230
O51	O5	0.204380	0.954000	0.764510
O61	O6	0.118100	0.963000	0.591120
O71	O7	0.744620	0.561000	0.369880
O81	O8	0.796060	0.453600	0.329430
O91	O9	0.989210	0.693400	0.443360
C11	C1	0.120600	0.010400	0.469610
C21	C2	0.145700	0.980200	0.505760
C31	C3	0.120800	0.883100	0.528950
C41	C4	0.069700	0.818300	0.516460
C51	C5	0.042850	0.855900	0.482270
C61	C6	0.068200	0.949900	0.458370
C71	C7	0.148600	0.110900	0.443720
H11	H1	0.189200	0.111400	0.448700
H21	H2	0.140600	0.086600	0.417400
C81	C8	0.200500	0.057000	0.518850
H31	H3	0.232400	0.996700	0.516600
H41	H4	0.198200	0.084600	0.544800
H51	H5	0.205100	0.137100	0.503400
C91	C9	0.144000	0.858000	0.568650
H61	H6	0.134000	0.766500	0.577200
H71	H7	0.184900	0.867000	0.570100
C101	C10	0.044000	0.703700	0.541110
H81	H8	0.016500	0.652200	0.526100
H91	H9	0.026100	0.745200	0.562100
H101	H10	0.073400	0.642800	0.550400
C111	C11	0.984250	0.799700	0.471440
H111	H11	0.967200	0.762100	0.493600
H121	H12	0.960200	0.873400	0.461400
C121	C12	0.040800	0.988300	0.419950
H131	H13	0.001600	0.962700	0.419100
H141	H14	0.059600	0.940400	0.400400
H151	H15	0.044000	0.086000	0.416100
C131	C13	0.166700	0.710400	0.361510
C141	C14	0.158500	0.587400	0.385830
C151	C15	0.118400	0.590600	0.412930
H161	H16	0.097900	0.670800	0.416700
C161	C16	0.109000	0.474800	0.434280
H171	H17	0.081700	0.477500	0.452300
C171	C17	0.139200	0.355500	0.429530
C181	C18	0.179700	0.353200	0.403310
H181	H18	0.200800	0.273700	0.399900
C191	C19	0.189300	0.469000	0.382030
H191	H19	0.217400	0.466800	0.364600
C201	C20	0.165400	0.022300	0.748860
C211	C21	0.152500	0.001200	0.706630
C221	C22	0.174800	0.891700	0.687480
H201	H20	0.197400	0.828100	0.700800
C231	C23	0.164300	0.873900	0.649130
H211	H21	0.178900	0.797600	0.637000
C241	C24	0.132200	0.969800	0.628890
C251	C25	0.109600	0.080200	0.647460
H221	H22	0.087300	0.144300	0.634000
C261	C26	0.119800	0.095800	0.685920
H231	H23	0.104500	0.171000	0.698200
C271	C27	0.792000	0.522400	0.358310
C281	C28	0.844500	0.564000	0.382550
C291	C29	0.898400	0.537800	0.370160
H241	H24	0.903000	0.490800	0.347600
C301	C30	0.944600	0.582400	0.391680
H251	H25	0.980500	0.565700	0.383100
C311	C31	0.939860	0.650400	0.425150
C321	C32	0.887200	0.672700	0.438200
H261	H26	0.882800	0.716300	0.461300
C331	C33	0.840600	0.628600	0.416200
H271	H27	0.804800	0.644400	0.425000
Cd21	Cd2	0.690550	0.451790	0.324920
O101	O10	0.642780	0.321900	0.368260
O111	O11	0.698340	0.201400	0.333250
O121	O12	0.624490	0.745600	0.452120
O131	O13	0.636200	0.604800	0.766230
O141	O14	0.704380	0.454000	0.764510
O151	O15	0.618100	0.463000	0.591120
O161	O16	0.244620	0.061000	0.369880
O171	O17	0.296060	0.953600	0.329430
O181	O18	0.489210	0.193400	0.443360
C341	C34	0.620600	0.510400	0.469610
C351	C35	0.645700	0.480200	0.505760
C361	C36	0.620800	0.383100	0.528950
C371	C37	0.569700	0.318300	0.516460
C381	C38	0.542850	0.355900	0.482270
C391	C39	0.568200	0.449900	0.458370
C401	C40	0.648600	0.610900	0.443720
H281	H28	0.689200	0.611400	0.448700
H291	H29	0.640600	0.586600	0.417400
C411	C41	0.700500	0.557000	0.518850
H301	H30	0.732400	0.496700	0.516600
H311	H31	0.698200	0.584600	0.544800
H321	H32	0.705100	0.637100	0.503400
C421	C42	0.644000	0.358000	0.568650
H331	H33	0.634000	0.266500	0.577200
H341	H34	0.684900	0.367000	0.570100
C431	C43	0.544000	0.203700	0.541110
H351	H35	0.516500	0.152200	0.526100
H361	H36	0.526100	0.245200	0.562100
H371	H37	0.573400	0.142800	0.550400
C441	C44	0.484250	0.299700	0.471440
H381	H38	0.467200	0.262100	0.493600
H391	H39	0.460200	0.373400	0.461400
C451	C45	0.540800	0.488300	0.419950
H401	H40	0.501600	0.462700	0.419100
H411	H41	0.559600	0.440400	0.400400
H421	H42	0.544000	0.586000	0.416100
C461	C46	0.666700	0.210400	0.361510
C471	C47	0.658500	0.087400	0.385830
C481	C48	0.618400	0.090600	0.412930
H431	H43	0.597900	0.170800	0.416700
C491	C49	0.609000	0.974800	0.434280
H441	H44	0.581700	0.977500	0.452300
C501	C50	0.639200	0.855500	0.429530
C511	C51	0.679700	0.853200	0.403310
H451	H45	0.700800	0.773700	0.399900
C521	C52	0.689300	0.969000	0.382030
H461	H46	0.717400	0.966800	0.364600
C531	C53	0.665400	0.522300	0.748860
C541	C54	0.652500	0.501200	0.706630
C551	C55	0.674800	0.391700	0.687480
H471	H47	0.697400	0.328100	0.700800
C561	C56	0.664300	0.373900	0.649130
H481	H48	0.678900	0.297600	0.637000
C571	C57	0.632200	0.469800	0.628890
C581	C58	0.609600	0.580200	0.647460
H491	H49	0.587300	0.644300	0.634000
C591	C59	0.619800	0.595800	0.685920
H501	H50	0.604500	0.671000	0.698200
C601	C60	0.292000	0.022400	0.358310
C611	C61	0.344500	0.064000	0.382550
C621	C62	0.398400	0.037800	0.370160
H511	H51	0.403000	0.990800	0.347600
C631	C63	0.444600	0.082400	0.391680
H521	H52	0.480500	0.065700	0.383100
C641	C64	0.439860	0.150400	0.425150
C651	C65	0.387200	0.172700	0.438200
H531	H53	0.382800	0.216300	0.461300
C661	C66	0.340600	0.128600	0.416200
H541	H54	0.304800	0.144400	0.425000
Cd31	Cd3	0.190550	0.048210	0.824920
O191	O19	0.142780	0.178100	0.868260
O201	O20	0.198340	0.298600	0.833250
O211	O21	0.124490	0.754400	0.952120
O221	O22	0.136200	0.895200	0.266230
O231	O23	0.204380	0.046000	0.264510
O241	O24	0.118100	0.037000	0.091120
O251	O25	0.744620	0.439000	0.869880
O261	O26	0.796060	0.546400	0.829430
O271	O27	0.989210	0.306600	0.943360
C671	C67	0.120600	0.989600	0.969610
C681	C68	0.145700	0.019800	0.005760
C691	C69	0.120800	0.116900	0.028950
C701	C70	0.069700	0.181700	0.016460
C711	C71	0.042850	0.144100	0.982270
C721	C72	0.068200	0.050100	0.958370
C731	C73	0.148600	0.889100	0.943720
H551	H55	0.189200	0.888600	0.948700
H561	H56	0.140600	0.913400	0.917400
C741	C74	0.200500	0.943000	0.018850
H571	H57	0.232400	0.003300	0.016600
H581	H58	0.198200	0.915400	0.044800
H591	H59	0.205100	0.862900	0.003400
C751	C75	0.144000	0.142000	0.068650
H601	H60	0.134000	0.233500	0.077200
H611	H61	0.184900	0.133000	0.070100
C761	C76	0.044000	0.296300	0.041110
H621	H62	0.016500	0.347800	0.026100
H631	H63	0.026100	0.254800	0.062100
H641	H64	0.073400	0.357200	0.050400
C771	C77	0.984250	0.200300	0.971440
H651	H65	0.967200	0.237900	0.993600
H661	H66	0.960200	0.126600	0.961400
C781	C78	0.040800	0.011700	0.919950
H671	H67	0.001600	0.037300	0.919100
H681	H68	0.059600	0.059600	0.900400
H691	H69	0.044000	0.914000	0.916100
C791	C79	0.166700	0.289600	0.861510
C801	C80	0.158500	0.412600	0.885830
C811	C81	0.118400	0.409400	0.912930
H701	H70	0.097900	0.329200	0.916700
C821	C82	0.109000	0.525200	0.934280
H711	H71	0.081700	0.522500	0.952300
C831	C83	0.139200	0.644500	0.929530
C841	C84	0.179700	0.646800	0.903310
H721	H72	0.200800	0.726300	0.899900
C851	C85	0.189300	0.531000	0.882030
H731	H73	0.217400	0.533200	0.864600
C861	C86	0.165400	0.977700	0.248860
C871	C87	0.152500	0.998800	0.206630
C881	C88	0.174800	0.108300	0.187480
H741	H74	0.197400	0.171900	0.200800
C891	C89	0.164300	0.126100	0.149130
H751	H75	0.178900	0.202400	0.137000
C901	C90	0.132200	0.030200	0.128890
C911	C91	0.109600	0.919800	0.147460
H761	H76	0.087300	0.855700	0.134000
C921	C92	0.119800	0.904200	0.185920
H771	H77	0.104500	0.829000	0.198200
C931	C93	0.792000	0.477600	0.858310
C941	C94	0.844500	0.436000	0.882550
C951	C95	0.898400	0.462200	0.870160
H781	H78	0.903000	0.509200	0.847600
C961	C96	0.944600	0.417600	0.891680
H791	H79	0.980500	0.434300	0.883100
C971	C97	0.939860	0.349600	0.925150
C981	C98	0.887200	0.327300	0.938200
H801	H80	0.882800	0.283700	0.961300
C991	C99	0.840600	0.371400	0.916200
H811	H81	0.804800	0.355600	0.925000
Cd41	Cd4	0.690550	0.548210	0.824920
O281	O28	0.642780	0.678100	0.868260
O291	O29	0.698340	0.798600	0.833250
O301	O30	0.624490	0.254400	0.952120
O311	O31	0.636200	0.395200	0.266230
O321	O32	0.704380	0.546000	0.264510
O331	O33	0.618100	0.537000	0.091120
O341	O34	0.244620	0.939000	0.869880
O351	O35	0.296060	0.046400	0.829430
O361	O36	0.489210	0.806600	0.943360
C1001	C100	0.620600	0.489600	0.969610
C1011	C101	0.645700	0.519800	0.005760
C1021	C102	0.620800	0.616900	0.028950
C1031	C103	0.569700	0.681700	0.016460
C1041	C104	0.542850	0.644100	0.982270
C1051	C105	0.568200	0.550100	0.958370
C1061	C106	0.648600	0.389100	0.943720
H821	H82	0.689200	0.388600	0.948700
H831	H83	0.640600	0.413400	0.917400
C1071	C107	0.700500	0.443000	0.018850
H841	H84	0.732400	0.503300	0.016600
H851	H85	0.698200	0.415400	0.044800
H861	H86	0.705100	0.362900	0.003400
C1081	C108	0.644000	0.642000	0.068650
H871	H87	0.634000	0.733500	0.077200
H881	H88	0.684900	0.633000	0.070100
C1091	C109	0.544000	0.796300	0.041110
H891	H89	0.516500	0.847800	0.026100
H901	H90	0.526100	0.754800	0.062100
H911	H91	0.573400	0.857200	0.050400
C1101	C110	0.484250	0.700300	0.971440
H921	H92	0.467200	0.737900	0.993600
H931	H93	0.460200	0.626600	0.961400
C1111	C111	0.540800	0.511700	0.919950
H941	H94	0.501600	0.537300	0.919100
H951	H95	0.559600	0.559600	0.900400
H961	H96	0.544000	0.414000	0.916100
C1121	C112	0.666700	0.789600	0.861510
C1131	C113	0.658500	0.912600	0.885830
C1141	C114	0.618400	0.909400	0.912930
H971	H97	0.597900	0.829200	0.916700
C1151	C115	0.609000	0.025200	0.934280
H981	H98	0.581700	0.022500	0.952300
C1161	C116	0.639200	0.144500	0.929530
C1171	C117	0.679700	0.146800	0.903310
H991	H99	0.700800	0.226300	0.899900
C1181	C118	0.689300	0.031000	0.882030
H1001	H100	0.717400	0.033200	0.864600
C1191	C119	0.665400	0.477700	0.248860
C1201	C120	0.652500	0.498800	0.206630
C1211	C121	0.674800	0.608300	0.187480
H1011	H101	0.697400	0.671900	0.200800
C1221	C122	0.664300	0.626100	0.149130
H1021	H102	0.678900	0.702400	0.137000
C1231	C123	0.632200	0.530200	0.128890
C1241	C124	0.609600	0.419800	0.147460
H1031	H103	0.587300	0.355700	0.134000
C1251	C125	0.619800	0.404200	0.185920
H1041	H104	0.604500	0.329000	0.198200
C1261	C126	0.292000	0.977600	0.858310
C1271	C127	0.344500	0.936000	0.882550
C1281	C128	0.398400	0.962200	0.870160
H1051	H105	0.403000	0.009200	0.847600
C1291	C129	0.444600	0.917600	0.891680
H1061	H106	0.480500	0.934300	0.883100
C1301	C130	0.439860	0.849600	0.925150
C1311	C131	0.387200	0.827300	0.938200
H1071	H107	0.382800	0.783700	0.961300
C1321	C132	0.340600	0.871400	0.916200
H1081	H108	0.304800	0.855600	0.925000
Cd51	Cd5	0.809450	0.951790	0.175080
O371	O37	0.857220	0.821900	0.131740
O381	O38	0.801660	0.701400	0.166750
O391	O39	0.875510	0.245600	0.047880
O401	O40	0.863800	0.104800	0.733770
O411	O41	0.795620	0.954000	0.735490
O421	O42	0.881900	0.963000	0.908880
O431	O43	0.255380	0.561000	0.130120
O441	O44	0.203940	0.453600	0.170570
O451	O45	0.010790	0.693400	0.056640
C1331	C133	0.879400	0.010400	0.030390
C1341	C134	0.854300	0.980200	0.994240
C1351	C135	0.879200	0.883100	0.971050
C1361	C136	0.930300	0.818300	0.983540
C1371	C137	0.957150	0.855900	0.017730
C1381	C138	0.931800	0.949900	0.041630
C1391	C139	0.851400	0.110900	0.056280
H1091	H109	0.810800	0.111400	0.051300
H1101	H110	0.859400	0.086600	0.082600
C1401	C140	0.799500	0.057000	0.981150
H1111	H111	0.767600	0.996700	0.983400
H1121	H112	0.801800	0.084600	0.955200
H1131	H113	0.794900	0.137100	0.996600
C1411	C141	0.856000	0.858000	0.931350
H1141	H114	0.866000	0.766500	0.922800
H1151	H115	0.815100	0.867000	0.929900
C1421	C142	0.956000	0.703700	0.958890
H1161	H116	0.983500	0.652200	0.973900
H1171	H117	0.973900	0.745200	0.937900
H1181	H118	0.926600	0.642800	0.949600
C1431	C143	0.015750	0.799700	0.028560
H1191	H119	0.032800	0.762100	0.006400
H1201	H120	0.039800	0.873400	0.038600
C1441	C144	0.959200	0.988300	0.080050
H1211	H121	0.998400	0.962700	0.080900
H1221	H122	0.940400	0.940400	0.099600
H1231	H123	0.956000	0.086000	0.083900
C1451	C145	0.833300	0.710400	0.138490
C1461	C146	0.841500	0.587400	0.114170
C1471	C147	0.881600	0.590600	0.087070
H1241	H124	0.902100	0.670800	0.083300
C1481	C148	0.891000	0.474800	0.065720
H1251	H125	0.918300	0.477500	0.047700
C1491	C149	0.860800	0.355500	0.070470
C1501	C150	0.820300	0.353200	0.096690
H1261	H126	0.799200	0.273700	0.100100
C1511	C151	0.810700	0.469000	0.117970
H1271	H127	0.782600	0.466800	0.135400
C1521	C152	0.834600	0.022300	0.751140
C1531	C153	0.847500	0.001200	0.793370
C1541	C154	0.825200	0.891700	0.812520
H1281	H128	0.802600	0.828100	0.799200
C1551	C155	0.835700	0.873900	0.850870
H1291	H129	0.821100	0.797600	0.863000
C1561	C156	0.867800	0.969800	0.871110
C1571	C157	0.890400	0.080200	0.852540
H1301	H130	0.912700	0.144300	0.866000
C1581	C158	0.880200	0.095800	0.814080
H1311	H131	0.895500	0.171000	0.801800
C1591	C159	0.208000	0.522400	0.141690
C1601	C160	0.155500	0.564000	0.117450
C1611	C161	0.101600	0.537800	0.129840
H1321	H132	0.097000	0.490800	0.152400
C1621	C162	0.055400	0.582400	0.108320
H1331	H133	0.019500	0.565700	0.116900
C1631	C163	0.060140	0.650400	0.074850
C1641	C164	0.112800	0.672700	0.061800
H1341	H134	0.117200	0.716300	0.038700
C1651	C165	0.159400	0.628600	0.083800
H1351	H135	0.195200	0.644400	0.075000
Cd61	Cd6	0.309450	0.451790	0.175080
O461	O46	0.357220	0.321900	0.131740
O471	O47	0.301660	0.201400	0.166750
O481	O48	0.375510	0.745600	0.047880
O491	O49	0.363800	0.604800	0.733770
O501	O50	0.295620	0.454000	0.735490
O511	O51	0.381900	0.463000	0.908880
O521	O52	0.755380	0.061000	0.130120
O531	O53	0.703940	0.953600	0.170570
O541	O54	0.510790	0.193400	0.056640
C1661	C166	0.379400	0.510400	0.030390
C1671	C167	0.354300	0.480200	0.994240
C1681	C168	0.379200	0.383100	0.971050
C1691	C169	0.430300	0.318300	0.983540
C1701	C170	0.457150	0.355900	0.017730
C1711	C171	0.431800	0.449900	0.041630
C1721	C172	0.351400	0.610900	0.056280
H1361	H136	0.310800	0.611400	0.051300
H1371	H137	0.359400	0.586600	0.082600
C1731	C173	0.299500	0.557000	0.981150
H1381	H138	0.267600	0.496700	0.983400
H1391	H139	0.301800	0.584600	0.955200
H1401	H140	0.294900	0.637100	0.996600
C1741	C174	0.356000	0.358000	0.931350
H1411	H141	0.366000	0.266500	0.922800
H1421	H142	0.315100	0.367000	0.929900
C1751	C175	0.456000	0.203700	0.958890
H1431	H143	0.483500	0.152200	0.973900
H1441	H144	0.473900	0.245200	0.937900
H1451	H145	0.426600	0.142800	0.949600
C1761	C176	0.515750	0.299700	0.028560
H1461	H146	0.532800	0.262100	0.006400
H1471	H147	0.539800	0.373400	0.038600
C1771	C177	0.459200	0.488300	0.080050
H1481	H148	0.498400	0.462700	0.080900
H1491	H149	0.440400	0.440400	0.099600
H1501	H150	0.456000	0.586000	0.083900
C1781	C178	0.333300	0.210400	0.138490
C1791	C179	0.341500	0.087400	0.114170
C1801	C180	0.381600	0.090600	0.087070
H1511	H151	0.402100	0.170800	0.083300
C1811	C181	0.391000	0.974800	0.065720
H1521	H152	0.418300	0.977500	0.047700
C1821	C182	0.360800	0.855500	0.070470
C1831	C183	0.320300	0.853200	0.096690
H1531	H153	0.299200	0.773700	0.100100
C1841	C184	0.310700	0.969000	0.117970
H1541	H154	0.282600	0.966800	0.135400
C1851	C185	0.334600	0.522300	0.751140
C1861	C186	0.347500	0.501200	0.793370
C1871	C187	0.325200	0.391700	0.812520
H1551	H155	0.302600	0.328100	0.799200
C1881	C188	0.335700	0.373900	0.850870
H1561	H156	0.321100	0.297600	0.863000
C1891	C189	0.367800	0.469800	0.871110
C1901	C190	0.390400	0.580200	0.852540
H1571	H157	0.412700	0.644300	0.866000
C1911	C191	0.380200	0.595800	0.814080
H1581	H158	0.395500	0.671000	0.801800
C1921	C192	0.708000	0.022400	0.141690
C1931	C193	0.655500	0.064000	0.117450
C1941	C194	0.601600	0.037800	0.129840
H1591	H159	0.597000	0.990800	0.152400
C1951	C195	0.555400	0.082400	0.108320
H1601	H160	0.519500	0.065700	0.116900
C1961	C196	0.560140	0.150400	0.074850
C1971	C197	0.612800	0.172700	0.061800
H1611	H161	0.617200	0.216300	0.038700
C1981	C198	0.659400	0.128600	0.083800
H1621	H162	0.695200	0.144400	0.075000
Cd71	Cd7	0.809450	0.048210	0.675080
O551	O55	0.857220	0.178100	0.631740
O561	O56	0.801660	0.298600	0.666750
O571	O57	0.875510	0.754400	0.547880
O581	O58	0.863800	0.895200	0.233770
O591	O59	0.795620	0.046000	0.235490
O601	O60	0.881900	0.037000	0.408880
O611	O61	0.255380	0.439000	0.630120
O621	O62	0.203940	0.546400	0.670570
O631	O63	0.010790	0.306600	0.556640
C1991	C199	0.879400	0.989600	0.530390
C2001	C200	0.854300	0.019800	0.494240
C2011	C201	0.879200	0.116900	0.471050
C2021	C202	0.930300	0.181700	0.483540
C2031	C203	0.957150	0.144100	0.517730
C2041	C204	0.931800	0.050100	0.541630
C2051	C205	0.851400	0.889100	0.556280
H1631	H163	0.810800	0.888600	0.551300
H1641	H164	0.859400	0.913400	0.582600
C2061	C206	0.799500	0.943000	0.481150
H1651	H165	0.767600	0.003300	0.483400
H1661	H166	0.801800	0.915400	0.455200
H1671	H167	0.794900	0.862900	0.496600
C2071	C207	0.856000	0.142000	0.431350
H1681	H168	0.866000	0.233500	0.422800
H1691	H169	0.815100	0.133000	0.429900
C2081	C208	0.956000	0.296300	0.458890
H1701	H170	0.983500	0.347800	0.473900
H1711	H171	0.973900	0.254800	0.437900
H1721	H172	0.926600	0.357200	0.449600
C2091	C209	0.015750	0.200300	0.528560
H1731	H173	0.032800	0.237900	0.506400
H1741	H174	0.039800	0.126600	0.538600
C2101	C210	0.959200	0.011700	0.580050
H1751	H175	0.998400	0.037300	0.580900
H1761	H176	0.940400	0.059600	0.599600
H1771	H177	0.956000	0.914000	0.583900
C2111	C211	0.833300	0.289600	0.638490
C2121	C212	0.841500	0.412600	0.614170
C2131	C213	0.881600	0.409400	0.587070
H1781	H178	0.902100	0.329200	0.583300
C2141	C214	0.891000	0.525200	0.565720
H1791	H179	0.918300	0.522500	0.547700
C2151	C215	0.860800	0.644500	0.570470
C2161	C216	0.820300	0.646800	0.596690
H1801	H180	0.799200	0.726300	0.600100
C2171	C217	0.810700	0.531000	0.617970
H1811	H181	0.782600	0.533200	0.635400
C2181	C218	0.834600	0.977700	0.251140
C2191	C219	0.847500	0.998800	0.293370
C2201	C220	0.825200	0.108300	0.312520
H1821	H182	0.802600	0.171900	0.299200
C2211	C221	0.835700	0.126100	0.350870
H1831	H183	0.821100	0.202400	0.363000
C2221	C222	0.867800	0.030200	0.371110
C2231	C223	0.890400	0.919800	0.352540
H1841	H184	0.912700	0.855700	0.366000
C2241	C224	0.880200	0.904200	0.314080
H1851	H185	0.895500	0.829000	0.301800
C2251	C225	0.208000	0.477600	0.641690
C2261	C226	0.155500	0.436000	0.617450
C2271	C227	0.101600	0.462200	0.629840
H1861	H186	0.097000	0.509200	0.652400
C2281	C228	0.055400	0.417600	0.608320
H1871	H187	0.019500	0.434300	0.616900
C2291	C229	0.060140	0.349600	0.574850
C2301	C230	0.112800	0.327300	0.561800
H1881	H188	0.117200	0.283700	0.538700
C2311	C231	0.159400	0.371400	0.583800
H1891	H189	0.195200	0.355600	0.575000
Cd81	Cd8	0.309450	0.548210	0.675080
O641	O64	0.357220	0.678100	0.631740
O651	O65	0.301660	0.798600	0.666750
O661	O66	0.375510	0.254400	0.547880
O671	O67	0.363800	0.395200	0.233770
O681	O68	0.295620	0.546000	0.235490
O691	O69	0.381900	0.537000	0.408880
O701	O70	0.755380	0.939000	0.630120
O711	O71	0.703940	0.046400	0.670570
O721	O72	0.510790	0.806600	0.556640
C2321	C232	0.379400	0.489600	0.530390
C2331	C233	0.354300	0.519800	0.494240
C2341	C234	0.379200	0.616900	0.471050
C2351	C235	0.430300	0.681700	0.483540
C2361	C236	0.457150	0.644100	0.517730
C2371	C237	0.431800	0.550100	0.541630
C2381	C238	0.351400	0.389100	0.556280
H1901	H190	0.310800	0.388600	0.551300
H1911	H191	0.359400	0.413400	0.582600
C2391	C239	0.299500	0.443000	0.481150
H1921	H192	0.267600	0.503300	0.483400
H1931	H193	0.301800	0.415400	0.455200
H1941	H194	0.294900	0.362900	0.496600
C2401	C240	0.356000	0.642000	0.431350
H1951	H195	0.366000	0.733500	0.422800
H1961	H196	0.315100	0.633000	0.429900
C2411	C241	0.456000	0.796300	0.458890
H1971	H197	0.483500	0.847800	0.473900
H1981	H198	0.473900	0.754800	0.437900
H1991	H199	0.426600	0.857200	0.449600
C2421	C242	0.515750	0.700300	0.528560
H2001	H200	0.532800	0.737900	0.506400
H2011	H201	0.539800	0.626600	0.538600
C2431	C243	0.459200	0.511700	0.580050
H2021	H202	0.498400	0.537300	0.580900
H2031	H203	0.440400	0.559600	0.599600
H2041	H204	0.456000	0.414000	0.583900
C2441	C244	0.333300	0.789600	0.638490
C2451	C245	0.341500	0.912600	0.614170
C2461	C246	0.381600	0.909400	0.587070
H2051	H205	0.402100	0.829200	0.583300
C2471	C247	0.391000	0.025200	0.565720
H2061	H206	0.418300	0.022500	0.547700
C2481	C248	0.360800	0.144500	0.570470
C2491	C249	0.320300	0.146800	0.596690
H2071	H207	0.299200	0.226300	0.600100
C2501	C250	0.310700	0.031000	0.617970
H2081	H208	0.282600	0.033200	0.635400
C2511	C251	0.334600	0.477700	0.251140
C2521	C252	0.347500	0.498800	0.293370
C2531	C253	0.325200	0.608300	0.312520
H2091	H209	0.302600	0.671900	0.299200
C2541	C254	0.335700	0.626100	0.350870
H2101	H210	0.321100	0.702400	0.363000
C2551	C255	0.367800	0.530200	0.371110
C2561	C256	0.390400	0.419800	0.352540
H2111	H211	0.412700	0.355700	0.366000
C2571	C257	0.380200	0.404200	0.314080
H2121	H212	0.395500	0.329000	0.301800
C2581	C258	0.708000	0.977600	0.641690
C2591	C259	0.655500	0.936000	0.617450
C2601	C260	0.601600	0.962200	0.629840
H2131	H213	0.597000	0.009200	0.652400
C2611	C261	0.555400	0.917600	0.608320
H2141	H214	0.519500	0.934300	0.616900
C2621	C262	0.560140	0.849600	0.574850
C2631	C263	0.612800	0.827300	0.561800
H2151	H215	0.617200	0.783700	0.538700
C2641	C264	0.659400	0.871400	0.583800
H2161	H216	0.695200	0.855600	0.575000
