data_VAXVEX_charged_PM
_symmetry_space_group_name_H-M	'P1'
_cell_length_a	10.690800
_cell_length_b	10.690800
_cell_length_c	31.494100
_cell_angle_alpha	80.228000
_cell_angle_beta	80.228000
_cell_angle_gamma	60.000000
_symmetry_Int_Tables_number 1

loop_
_symmetry_equiv_pos_as_xyz
'x,y,z'

loop_
_atom_site_label
_atom_site_type_symbol
_atom_site_fract_x
_atom_site_fract_y
_atom_site_fract_z
Cd11	Cd1	0.500000	0.500000	0.500000
Cd21	Cd2	0.000000	0.000000	0.000000
H11	H1	0.575000	0.202100	0.574300
H21	H2	0.167900	0.308300	0.593500
H31	H3	0.581800	0.933200	0.596500
H41	H4	0.636600	0.752600	0.650800
H51	H5	0.331300	0.026700	0.732100
H61	H6	0.277900	0.218600	0.676600
H71	H7	0.649600	0.681700	0.726700
H81	H8	0.506700	0.675200	0.727300
H91	H9	0.202100	0.648600	0.574300
H101	H10	0.308300	0.930300	0.593500
H111	H11	0.933200	0.888500	0.596500
H121	H12	0.752600	0.960000	0.650800
H131	H13	0.026700	0.909900	0.732100
H141	H14	0.218600	0.826900	0.676600
H151	H15	0.681700	0.942000	0.726700
H161	H16	0.675200	0.090800	0.727300
H171	H17	0.648600	0.575000	0.574300
H181	H18	0.930300	0.167900	0.593500
H191	H19	0.888500	0.581800	0.596500
H201	H20	0.960000	0.636600	0.650800
H211	H21	0.909900	0.331300	0.732100
H221	H22	0.826900	0.277900	0.676600
H231	H23	0.942000	0.649600	0.726700
H241	H24	0.090800	0.506700	0.727300
H251	H25	0.925000	0.851400	0.925700
H261	H26	0.332100	0.569700	0.906500
H271	H27	0.918200	0.611500	0.903500
H281	H28	0.863400	0.540000	0.849200
H291	H29	0.168700	0.590100	0.767900
H301	H30	0.222100	0.673100	0.823400
H311	H31	0.850400	0.558000	0.773300
H321	H32	0.993300	0.409200	0.772700
H331	H33	0.297900	0.925000	0.925700
H341	H34	0.191700	0.332100	0.906500
H351	H35	0.566800	0.918200	0.903500
H361	H36	0.747400	0.863400	0.849200
H371	H37	0.473300	0.168700	0.767900
H381	H38	0.281400	0.222100	0.823400
H391	H39	0.818300	0.850400	0.773300
H401	H40	0.824800	0.993300	0.772700
H411	H41	0.851400	0.297900	0.925700
H421	H42	0.569700	0.191700	0.906500
H431	H43	0.611500	0.566800	0.903500
H441	H44	0.540000	0.747400	0.849200
H451	H45	0.590100	0.473300	0.767900
H461	H46	0.673100	0.281400	0.823400
H471	H47	0.558000	0.818300	0.773300
H481	H48	0.409200	0.824800	0.772700
H491	H49	0.425000	0.797900	0.425700
H501	H50	0.832100	0.691700	0.406500
H511	H51	0.418200	0.066800	0.403500
H521	H52	0.363400	0.247400	0.349200
H531	H53	0.668700	0.973300	0.267900
H541	H54	0.722100	0.781400	0.323400
H551	H55	0.350400	0.318300	0.273300
H561	H56	0.493300	0.324800	0.272700
H571	H57	0.797900	0.351400	0.425700
H581	H58	0.691700	0.069700	0.406500
H591	H59	0.066800	0.111500	0.403500
H601	H60	0.247400	0.040000	0.349200
H611	H61	0.973300	0.090100	0.267900
H621	H62	0.781400	0.173100	0.323400
H631	H63	0.318300	0.058000	0.273300
H641	H64	0.324800	0.909200	0.272700
H651	H65	0.351400	0.425000	0.425700
H661	H66	0.069700	0.832100	0.406500
H671	H67	0.111500	0.418200	0.403500
H681	H68	0.040000	0.363400	0.349200
H691	H69	0.090100	0.668700	0.267900
H701	H70	0.173100	0.722100	0.323400
H711	H71	0.058000	0.350400	0.273300
H721	H72	0.909200	0.493300	0.272700
H731	H73	0.075000	0.148600	0.074300
H741	H74	0.667900	0.430300	0.093500
H751	H75	0.081800	0.388500	0.096500
H761	H76	0.136600	0.460000	0.150800
H771	H77	0.831300	0.409900	0.232100
H781	H78	0.777900	0.326900	0.176600
H791	H79	0.149600	0.442000	0.226700
H801	H80	0.006700	0.590800	0.227300
H811	H81	0.702100	0.075000	0.074300
H821	H82	0.808300	0.667900	0.093500
H831	H83	0.433200	0.081800	0.096500
H841	H84	0.252600	0.136600	0.150800
H851	H85	0.526700	0.831300	0.232100
H861	H86	0.718600	0.777900	0.176600
H871	H87	0.181700	0.149600	0.226700
H881	H88	0.175200	0.006700	0.227300
H891	H89	0.148600	0.702100	0.074300
H901	H90	0.430300	0.808300	0.093500
H911	H91	0.388500	0.433200	0.096500
H921	H92	0.460000	0.252600	0.150800
H931	H93	0.409900	0.526700	0.232100
H941	H94	0.326900	0.718600	0.176600
H951	H95	0.442000	0.181700	0.226700
H961	H96	0.590800	0.175200	0.227300
C11	C1	0.475980	0.247880	0.571660
C21	C2	0.255320	0.305420	0.582040
C31	C3	0.424300	0.088100	0.630100
C41	C4	0.530300	0.952800	0.623800
C51	C5	0.562610	0.845210	0.656470
C61	C6	0.493140	0.865040	0.696880
C71	C7	0.381550	0.008850	0.704950
C81	C8	0.347540	0.123740	0.671680
C91	C9	0.544630	0.737230	0.731710
C101	C10	0.247880	0.704480	0.571660
C111	C11	0.305420	0.857220	0.582040
C121	C12	0.088100	0.857500	0.630100
C131	C13	0.952800	0.893100	0.623800
C141	C14	0.845210	0.935710	0.656470
C151	C15	0.865040	0.944940	0.696880
C161	C16	0.008850	0.904650	0.704950
C171	C17	0.123740	0.857040	0.671680
C181	C18	0.737230	0.986430	0.731710
C191	C19	0.704480	0.475980	0.571660
C201	C20	0.857220	0.255320	0.582040
C211	C21	0.857500	0.424300	0.630100
C221	C22	0.893100	0.530300	0.623800
C231	C23	0.935710	0.562610	0.656470
C241	C24	0.944940	0.493140	0.696880
C251	C25	0.904650	0.381550	0.704950
C261	C26	0.857040	0.347540	0.671680
C271	C27	0.986430	0.544630	0.731710
C281	C28	0.024020	0.795520	0.928340
C291	C29	0.244680	0.642780	0.917960
C301	C30	0.075700	0.642500	0.869900
C311	C31	0.969700	0.606900	0.876200
C321	C32	0.937390	0.564290	0.843530
C331	C33	0.006860	0.555060	0.803120
C341	C34	0.118450	0.595350	0.795050
C351	C35	0.152460	0.642960	0.828320
C361	C36	0.955370	0.513570	0.768290
C371	C37	0.252120	0.024020	0.928340
C381	C38	0.194580	0.244680	0.917960
C391	C39	0.411900	0.075700	0.869900
C401	C40	0.547200	0.969700	0.876200
C411	C41	0.654790	0.937390	0.843530
C421	C42	0.634960	0.006860	0.803120
C431	C43	0.491150	0.118450	0.795050
C441	C44	0.376260	0.152460	0.828320
C451	C45	0.762770	0.955370	0.768290
C461	C46	0.795520	0.252120	0.928340
C471	C47	0.642780	0.194580	0.917960
C481	C48	0.642500	0.411900	0.869900
C491	C49	0.606900	0.547200	0.876200
C501	C50	0.564290	0.654790	0.843530
C511	C51	0.555060	0.634960	0.803120
C521	C52	0.595350	0.491150	0.795050
C531	C53	0.642960	0.376260	0.828320
C541	C54	0.513570	0.762770	0.768290
C551	C55	0.524020	0.752120	0.428340
C561	C56	0.744680	0.694580	0.417960
C571	C57	0.575700	0.911900	0.369900
C581	C58	0.469700	0.047200	0.376200
C591	C59	0.437390	0.154790	0.343530
C601	C60	0.506860	0.134960	0.303120
C611	C61	0.618450	0.991150	0.295050
C621	C62	0.652460	0.876260	0.328320
C631	C63	0.455370	0.262770	0.268290
C641	C64	0.752120	0.295520	0.428340
C651	C65	0.694580	0.142780	0.417960
C661	C66	0.911900	0.142500	0.369900
C671	C67	0.047200	0.106900	0.376200
C681	C68	0.154790	0.064290	0.343530
C691	C69	0.134960	0.055060	0.303120
C701	C70	0.991150	0.095350	0.295050
C711	C71	0.876260	0.142960	0.328320
C721	C72	0.262770	0.013570	0.268290
C731	C73	0.295520	0.524020	0.428340
C741	C74	0.142780	0.744680	0.417960
C751	C75	0.142500	0.575700	0.369900
C761	C76	0.106900	0.469700	0.376200
C771	C77	0.064290	0.437390	0.343530
C781	C78	0.055060	0.506860	0.303120
C791	C79	0.095350	0.618450	0.295050
C801	C80	0.142960	0.652460	0.328320
C811	C81	0.013570	0.455370	0.268290
C821	C82	0.975980	0.204480	0.071660
C831	C83	0.755320	0.357220	0.082040
C841	C84	0.924300	0.357500	0.130100
C851	C85	0.030300	0.393100	0.123800
C861	C86	0.062610	0.435710	0.156470
C871	C87	0.993140	0.444940	0.196880
C881	C88	0.881550	0.404650	0.204950
C891	C89	0.847540	0.357040	0.171680
C901	C90	0.044630	0.486430	0.231710
C911	C91	0.747880	0.975980	0.071660
C921	C92	0.805420	0.755320	0.082040
C931	C93	0.588100	0.924300	0.130100
C941	C94	0.452800	0.030300	0.123800
C951	C95	0.345210	0.062610	0.156470
C961	C96	0.365040	0.993140	0.196880
C971	C97	0.508850	0.881550	0.204950
C981	C98	0.623740	0.847540	0.171680
C991	C99	0.237230	0.044630	0.231710
C1001	C100	0.204480	0.747880	0.071660
C1011	C101	0.357220	0.805420	0.082040
C1021	C102	0.357500	0.588100	0.130100
C1031	C103	0.393100	0.452800	0.123800
C1041	C104	0.435710	0.345210	0.156470
C1051	C105	0.444940	0.365040	0.196880
C1061	C106	0.404650	0.508850	0.204950
C1071	C107	0.357040	0.623740	0.171680
C1081	C108	0.486430	0.237230	0.231710
N11	N1	0.409620	0.358420	0.544240
N21	N2	0.266270	0.396270	0.550690
N31	N3	0.383100	0.207600	0.595900
N41	N4	0.358420	0.687720	0.544240
N51	N5	0.396270	0.786770	0.550690
N61	N6	0.207600	0.813400	0.595900
N71	N7	0.687720	0.409620	0.544240
N81	N8	0.786770	0.266270	0.550690
N91	N9	0.813400	0.383100	0.595900
N101	N10	0.090380	0.812280	0.955760
N111	N11	0.233730	0.713230	0.949310
N121	N12	0.116900	0.686600	0.904100
N131	N13	0.141580	0.090380	0.955760
N141	N14	0.103730	0.233730	0.949310
N151	N15	0.292400	0.116900	0.904100
N161	N16	0.812280	0.141580	0.955760
N171	N17	0.713230	0.103730	0.949310
N181	N18	0.686600	0.292400	0.904100
N191	N19	0.590380	0.641580	0.455760
N201	N20	0.733730	0.603730	0.449310
N211	N21	0.616900	0.792400	0.404100
N221	N22	0.641580	0.312280	0.455760
N231	N23	0.603730	0.213230	0.449310
N241	N24	0.792400	0.186600	0.404100
N251	N25	0.312280	0.590380	0.455760
N261	N26	0.213230	0.733730	0.449310
N271	N27	0.186600	0.616900	0.404100
N281	N28	0.909620	0.187720	0.044240
N291	N29	0.766270	0.286770	0.050690
N301	N30	0.883100	0.313400	0.095900
N311	N31	0.858420	0.909620	0.044240
N321	N32	0.896270	0.766270	0.050690
N331	N33	0.707600	0.883100	0.095900
N341	N34	0.187720	0.858420	0.044240
N351	N35	0.286770	0.896270	0.050690
N361	N36	0.313400	0.707600	0.095900
Cl11	Cl1	0.943980	0.943980	0.168060
O11	O1	0.814800	0.062500	0.152100
O21	O2	0.062500	0.970600	0.152100
O31	O3	0.970600	0.814800	0.152100
O41	O4	0.928810	0.928810	0.213570
Cl21	Cl2	0.556020	0.556020	0.331940
O51	O5	0.685200	0.529400	0.347900
O61	O6	0.437500	0.685200	0.347900
O71	O7	0.529400	0.437500	0.347900
O81	O8	0.571190	0.571190	0.286430
Cl31	Cl3	0.056020	0.056020	0.831940
O91	O9	0.185200	0.937500	0.847900
O101	O10	0.937500	0.029400	0.847900
O111	O11	0.029400	0.185200	0.847900
O121	O12	0.071190	0.071190	0.786430
Cl41	Cl4	0.443980	0.443980	0.668060
O131	O13	0.314800	0.470600	0.652100
O141	O14	0.562500	0.314800	0.652100
O151	O15	0.470600	0.562500	0.652100
O161	O16	0.428810	0.428810	0.713570
