data_VAYFUY_clean_PM
_symmetry_space_group_name_H-M	'P1'
_cell_length_a	7.830000
_cell_length_b	10.912000
_cell_length_c	12.498000
_cell_angle_alpha	106.544000
_cell_angle_beta	96.596000
_cell_angle_gamma	99.562000
_symmetry_Int_Tables_number 1

loop_
_symmetry_equiv_pos_as_xyz
'x,y,z'

loop_
_atom_site_label
_atom_site_type_symbol
_atom_site_fract_x
_atom_site_fract_y
_atom_site_fract_z
Co11	Co1	0.862150	0.518500	0.401730
Co21	Co2	0.515960	0.365570	0.520340
O11	O1	0.938700	0.363600	0.460700
O21	O2	0.702100	0.252900	0.502800
O31	O3	0.653100	0.779000	0.450100
O41	O4	0.834400	0.674300	0.349000
O51	O5	0.531600	0.053600	0.202800
O61	O6	0.615000	0.888500	0.111300
O71	O7	0.277400	0.622600	0.750900
O81	O8	0.990500	0.562500	0.734200
O91	O9	0.192600	0.012200	0.218200
O101	O10	0.675300	0.527000	0.499400
H11	H1	0.741000	0.574200	0.575800
N11	N1	0.500100	0.946100	0.134800
C11	C1	0.886000	0.130600	0.403200
C21	C2	0.802300	0.014700	0.418300
H21	H2	0.713700	0.016000	0.461900
C31	C3	0.850900	0.897900	0.368700
C41	C4	0.981100	0.894800	0.300800
H31	H3	0.016600	0.817200	0.268700
C51	C5	0.055700	0.008800	0.282100
C61	C6	0.013000	0.127300	0.333700
H41	H4	0.068400	0.203500	0.322000
C71	C7	0.836900	0.257100	0.460100
C81	C8	0.772000	0.773000	0.391100
C91	C9	0.171400	0.920900	0.114500
C101	C10	0.321900	0.887500	0.071900
C111	C11	0.307000	0.794500	0.967400
H51	H5	0.407900	0.772800	0.941200
C121	C12	0.145100	0.734000	0.901800
C131	C13	0.996100	0.768800	0.942400
H61	H6	0.885900	0.729700	0.898300
C141	C14	0.008500	0.860900	0.047500
H71	H7	0.907100	0.882400	0.073000
C151	C15	0.135200	0.634300	0.789400
Co31	Co3	0.137850	0.481500	0.598270
Co41	Co4	0.484040	0.634430	0.479660
O111	O11	0.061300	0.636400	0.539300
O121	O12	0.297900	0.747100	0.497200
O131	O13	0.346900	0.221000	0.549900
O141	O14	0.165600	0.325700	0.651000
O151	O15	0.468400	0.946400	0.797200
O161	O16	0.385000	0.111500	0.888700
O171	O17	0.722600	0.377400	0.249100
O181	O18	0.009500	0.437500	0.265800
O191	O19	0.807400	0.987800	0.781800
O201	O20	0.324700	0.473000	0.500600
H81	H8	0.259000	0.425800	0.424200
N21	N2	0.499900	0.053900	0.865200
C161	C16	0.114000	0.869400	0.596800
C171	C17	0.197700	0.985300	0.581700
H91	H9	0.286300	0.984000	0.538100
C181	C18	0.149100	0.102100	0.631300
C191	C19	0.018900	0.105200	0.699200
H101	H10	0.983400	0.182800	0.731300
C201	C20	0.944300	0.991200	0.717900
C211	C21	0.987000	0.872700	0.666300
H111	H11	0.931600	0.796500	0.678000
C221	C22	0.163100	0.742900	0.539900
C231	C23	0.228000	0.227000	0.608900
C241	C24	0.828600	0.079100	0.885500
C251	C25	0.678100	0.112500	0.928100
C261	C26	0.693000	0.205500	0.032600
H121	H12	0.592100	0.227200	0.058800
C271	C27	0.854900	0.266000	0.098200
C281	C28	0.003900	0.231200	0.057600
H131	H13	0.114100	0.270300	0.101700
C291	C29	0.991500	0.139100	0.952500
H141	H14	0.092900	0.117600	0.927000
C301	C30	0.864800	0.365700	0.210600
