data_VAYWID_clean_PM
_symmetry_space_group_name_H-M	'P1'
_cell_length_a	13.056000
_cell_length_b	22.964000
_cell_length_c	11.808000
_cell_angle_alpha	90.000000
_cell_angle_beta	91.941000
_cell_angle_gamma	90.000000
_symmetry_Int_Tables_number 1

loop_
_symmetry_equiv_pos_as_xyz
'x,y,z'

loop_
_atom_site_label
_atom_site_type_symbol
_atom_site_fract_x
_atom_site_fract_y
_atom_site_fract_z
Ag11	Ag1	0.883220	0.298920	0.609870
Ag21	Ag2	0.240340	0.288600	0.273070
N11	N1	0.478700	0.471000	0.830800
N21	N2	0.416300	0.457100	0.666200
N31	N3	0.512900	0.442800	0.655000
N41	N4	0.141800	0.375500	0.447800
N51	N5	0.007300	0.328800	0.506300
N61	N6	0.149800	0.320800	0.405200
C11	C1	0.222300	0.420300	0.436700
H11	H1	0.191800	0.458800	0.437100
H21	H2	0.256500	0.415200	0.365800
C21	C2	0.299700	0.414000	0.536600
H31	H3	0.263700	0.402600	0.603600
H41	H4	0.348100	0.383400	0.519800
C31	C3	0.545700	0.449600	0.756000
H51	H5	0.387200	0.559700	0.221400
C41	C4	0.354800	0.467000	0.559900
H61	H6	0.692400	0.500900	0.430800
H71	H7	0.600700	0.523800	0.501900
C51	C5	0.057600	0.380100	0.507400
H81	H8	0.036500	0.413700	0.544200
C61	C6	0.600800	0.526300	0.232400
H91	H9	0.664300	0.513900	0.208500
C71	C7	0.069100	0.295600	0.442800
H101	H10	0.054300	0.256700	0.427000
C81	C8	0.827600	0.268100	0.862400
H111	H11	0.868400	0.299000	0.888000
C91	C9	0.746800	0.212800	0.754900
H121	H12	0.716800	0.195000	0.691200
H131	H13	0.671200	0.116000	0.840200
H141	H14	0.714400	0.128100	0.963500
H151	H15	0.533200	0.129100	0.958100
H161	H16	0.533400	0.180400	0.870400
N71	N7	0.805300	0.259500	0.752000
H171	H17	0.605500	0.186900	0.094600
H181	H18	0.618800	0.237600	0.007700
H191	H19	0.280500	0.299800	0.004000
C101	C10	0.430100	0.232100	0.158100
H201	H20	0.455400	0.215800	0.225500
N81	N8	0.210800	0.768700	0.069500
N91	N9	0.263700	0.805300	0.142600
C111	C11	0.322400	0.854700	0.100800
C121	C12	0.429500	0.836600	0.065100
C131	C13	0.425500	0.794400	0.971800
N101	N10	0.525800	0.770500	0.941700
N111	N11	0.585100	0.742000	0.016800
C141	C14	0.665900	0.721800	0.963400
N121	N12	0.656500	0.737800	0.855300
Ag31	Ag3	0.116780	0.701080	0.390130
Ag41	Ag4	0.759660	0.711400	0.726930
N131	N13	0.521300	0.529000	0.169200
N141	N14	0.583700	0.542900	0.333800
N151	N15	0.487100	0.557200	0.345000
N161	N16	0.858200	0.624500	0.552200
N171	N17	0.992700	0.671200	0.493700
N181	N18	0.850200	0.679200	0.594800
C151	C15	0.777700	0.579700	0.563300
H211	H21	0.808200	0.541200	0.562900
H221	H22	0.743500	0.584800	0.634200
C161	C16	0.700300	0.586000	0.463400
H231	H23	0.736300	0.597400	0.396400
H241	H24	0.651900	0.616600	0.480200
C171	C17	0.454300	0.550400	0.244000
H251	H25	0.612800	0.440300	0.778600
C181	C18	0.645200	0.533000	0.440100
H261	H26	0.307600	0.499100	0.569200
H271	H27	0.399300	0.476200	0.498100
C191	C19	0.942400	0.619900	0.492600
H281	H28	0.963500	0.586300	0.455800
C201	C20	0.399200	0.473700	0.767600
H291	H29	0.335700	0.486100	0.791500
C211	C21	0.930900	0.704400	0.557200
H301	H30	0.945700	0.743300	0.573000
C221	C22	0.172400	0.731900	0.137600
H311	H31	0.131600	0.701000	0.112000
C231	C23	0.253200	0.787200	0.245100
H321	H32	0.283200	0.805000	0.308800
H331	H33	0.328800	0.884000	0.159800
H341	H34	0.285600	0.871900	0.036500
H351	H35	0.466800	0.870900	0.041900
H361	H36	0.466600	0.819600	0.129600
N191	N19	0.194700	0.740500	0.248000
H371	H37	0.394500	0.813100	0.905400
H381	H38	0.381200	0.762400	0.992300
H391	H39	0.719500	0.700200	0.996000
C241	C24	0.569900	0.767900	0.841900
H401	H40	0.544600	0.784200	0.774500
N201	N20	0.789200	0.231300	0.930500
N211	N21	0.736300	0.194700	0.857400
C251	C25	0.677600	0.145300	0.899200
C261	C26	0.570500	0.163400	0.934900
C271	C27	0.574500	0.205600	0.028200
N221	N22	0.474200	0.229500	0.058300
N231	N23	0.414900	0.258000	0.983200
C281	C28	0.334100	0.278200	0.036600
N241	N24	0.343500	0.262200	0.144700
Ag51	Ag5	0.500000	0.500000	0.000000
N251	N25	0.789200	0.268700	0.430500
N261	N26	0.736300	0.305300	0.357400
C291	C29	0.677600	0.354700	0.399200
C301	C30	0.570500	0.336600	0.434900
C311	C31	0.574500	0.294400	0.528200
N271	N27	0.474200	0.270500	0.558300
N281	N28	0.414900	0.242000	0.483200
C321	C32	0.334100	0.221800	0.536600
N291	N29	0.343500	0.237800	0.644700
Ag61	Ag6	0.116780	0.798920	0.890130
Ag71	Ag7	0.759660	0.788600	0.226930
N301	N30	0.521300	0.971000	0.669200
N311	N31	0.583700	0.957100	0.833800
N321	N32	0.487100	0.942800	0.845000
N331	N33	0.858200	0.875500	0.052200
N341	N34	0.992700	0.828800	0.993700
N351	N35	0.850200	0.820800	0.094800
C331	C33	0.777700	0.920300	0.063300
H411	H41	0.808200	0.958800	0.062900
H421	H42	0.743500	0.915200	0.134200
C341	C34	0.700300	0.914000	0.963400
H431	H43	0.736300	0.902600	0.896400
H441	H44	0.651900	0.883400	0.980200
C351	C35	0.454300	0.949600	0.744000
H451	H45	0.612800	0.059700	0.278600
C361	C36	0.645200	0.967000	0.940100
H461	H46	0.307600	0.000900	0.069200
H471	H47	0.399300	0.023800	0.998100
C371	C37	0.942400	0.880100	0.992600
H481	H48	0.963500	0.913700	0.955800
C381	C38	0.399200	0.026300	0.267600
H491	H49	0.335700	0.013900	0.291500
C391	C39	0.930900	0.795600	0.057200
H501	H50	0.945700	0.756700	0.073000
C401	C40	0.172400	0.768100	0.637600
H511	H51	0.131600	0.799000	0.612000
C411	C41	0.253200	0.712800	0.745100
H521	H52	0.283200	0.695000	0.808800
H531	H53	0.328800	0.616000	0.659800
H541	H54	0.285600	0.628100	0.536500
H551	H55	0.466800	0.629100	0.541900
H561	H56	0.466600	0.680400	0.629600
N361	N36	0.194700	0.759500	0.748000
H571	H57	0.394500	0.686900	0.405400
H581	H58	0.381200	0.737600	0.492300
H591	H59	0.719500	0.799800	0.496000
C421	C42	0.569900	0.732100	0.341900
H601	H60	0.544600	0.715800	0.274500
N371	N37	0.210800	0.731300	0.569500
N381	N38	0.263700	0.694700	0.642600
C431	C43	0.322400	0.645300	0.600800
C441	C44	0.429500	0.663400	0.565100
C451	C45	0.425500	0.705600	0.471800
N391	N39	0.525800	0.729500	0.441700
N401	N40	0.585100	0.758000	0.516800
C461	C46	0.665900	0.778200	0.463400
N411	N41	0.656500	0.762200	0.355300
Ag81	Ag8	0.883220	0.201080	0.109870
Ag91	Ag9	0.240340	0.211400	0.773070
N421	N42	0.478700	0.029000	0.330800
N431	N43	0.416300	0.042900	0.166200
N441	N44	0.512900	0.057200	0.155000
N451	N45	0.141800	0.124500	0.947800
N461	N46	0.007300	0.171200	0.006300
N471	N47	0.149800	0.179200	0.905200
C471	C47	0.222300	0.079700	0.936700
H611	H61	0.191800	0.041200	0.937100
H621	H62	0.256500	0.084800	0.865800
C481	C48	0.299700	0.086000	0.036600
H631	H63	0.263700	0.097400	0.103600
H641	H64	0.348100	0.116600	0.019800
C491	C49	0.545700	0.050400	0.256000
H651	H65	0.387200	0.940300	0.721400
C501	C50	0.354800	0.033000	0.059900
H661	H66	0.692400	0.999100	0.930800
H671	H67	0.600700	0.976200	0.001900
C511	C51	0.057600	0.119900	0.007400
H681	H68	0.036500	0.086300	0.044200
C521	C52	0.600800	0.973700	0.732400
H691	H69	0.664300	0.986100	0.708500
C531	C53	0.069100	0.204400	0.942800
H701	H70	0.054300	0.243300	0.927000
C541	C54	0.827600	0.231900	0.362400
H711	H71	0.868400	0.201000	0.388000
C551	C55	0.746800	0.287200	0.254900
H721	H72	0.716800	0.305000	0.191200
H731	H73	0.671200	0.384000	0.340200
H741	H74	0.714400	0.371900	0.463500
H751	H75	0.533200	0.370900	0.458100
H761	H76	0.533400	0.319600	0.370400
N481	N48	0.805300	0.240500	0.252000
H771	H77	0.605500	0.313100	0.594600
H781	H78	0.618800	0.262400	0.507700
H791	H79	0.280500	0.200200	0.504000
C561	C56	0.430100	0.267900	0.658100
H801	H80	0.455400	0.284200	0.725500
Ag101	Ag10	0.500000	0.000000	0.500000
