data_VAZLIT_clean_PM
_symmetry_space_group_name_H-M	'P1'
_cell_length_a	7.317300
_cell_length_b	9.702200
_cell_length_c	14.708300
_cell_angle_alpha	90.000000
_cell_angle_beta	99.520600
_cell_angle_gamma	90.000000
_symmetry_Int_Tables_number 1

loop_
_symmetry_equiv_pos_as_xyz
'x,y,z'

loop_
_atom_site_label
_atom_site_type_symbol
_atom_site_fract_x
_atom_site_fract_y
_atom_site_fract_z
Gd11	Gd1	0.636200	0.444950	0.357440
Gd21	Gd2	0.863800	0.944950	0.142560
Gd31	Gd3	0.363800	0.555050	0.642560
Gd41	Gd4	0.136200	0.055050	0.857440
H11	H1	0.722500	0.953000	0.624200
H21	H2	0.819000	0.165100	0.545200
H31	H3	0.777500	0.453000	0.875800
H41	H4	0.681000	0.665100	0.954800
H51	H5	0.277500	0.047000	0.375800
H61	H6	0.181000	0.834900	0.454800
H71	H7	0.222500	0.547000	0.124200
H81	H8	0.319000	0.334900	0.045200
C11	C1	0.605700	0.726600	0.496600
C21	C2	0.688400	0.865000	0.496600
C31	C3	0.729200	0.962100	0.561900
C41	C4	0.784000	0.080600	0.517800
C51	C5	0.775700	0.047300	0.428100
C61	C6	0.812100	0.124300	0.347200
C71	C7	0.957200	0.464900	0.538500
C81	C8	0.894300	0.226600	0.003400
C91	C9	0.811600	0.365000	0.003400
C101	C10	0.770800	0.462100	0.938100
C111	C11	0.716000	0.580600	0.982200
C121	C12	0.724300	0.547300	0.071900
C131	C13	0.687900	0.624300	0.152800
C141	C14	0.542800	0.964900	0.961500
C151	C15	0.394300	0.273400	0.503400
C161	C16	0.311600	0.135000	0.503400
C171	C17	0.270800	0.037900	0.438100
C181	C18	0.216000	0.919400	0.482200
C191	C19	0.224300	0.952700	0.571900
C201	C20	0.187900	0.875700	0.652800
C211	C21	0.042800	0.535100	0.461500
C221	C22	0.105700	0.773400	0.996600
C231	C23	0.188400	0.635000	0.996600
C241	C24	0.229200	0.537900	0.061900
C251	C25	0.284000	0.419400	0.017800
C261	C26	0.275700	0.452700	0.928100
C271	C27	0.312100	0.375700	0.847200
C281	C28	0.457200	0.035100	0.038500
O11	O1	0.792800	0.424300	0.517800
O21	O2	0.587700	0.659500	0.423200
O31	O3	0.561500	0.688200	0.571200
O41	O4	0.716800	0.914300	0.413100
O51	O5	0.835800	0.252900	0.356700
O61	O6	0.821600	0.060000	0.274900
O71	O7	0.057500	0.453700	0.615900
O81	O8	0.707200	0.924300	0.982200
O91	O9	0.912300	0.159500	0.076800
O101	O10	0.938500	0.188200	0.928800
O111	O11	0.783200	0.414300	0.086900
O121	O12	0.664200	0.752900	0.143300
O131	O13	0.678400	0.560000	0.225100
O141	O14	0.442500	0.953700	0.884100
O151	O15	0.207200	0.575700	0.482200
O161	O16	0.412300	0.340500	0.576800
O171	O17	0.438500	0.311800	0.428800
O181	O18	0.283200	0.085700	0.586900
O191	O19	0.164200	0.747100	0.643300
O201	O20	0.178400	0.940000	0.725100
O211	O21	0.942500	0.546300	0.384100
O221	O22	0.292800	0.075700	0.017800
O231	O23	0.087700	0.840500	0.923200
O241	O24	0.061500	0.811800	0.071200
O251	O25	0.216800	0.585700	0.913100
O261	O26	0.335800	0.247100	0.856700
O271	O27	0.321600	0.440000	0.774900
O281	O28	0.557500	0.046300	0.115900
