data_VAZLUF_clean_PM
_symmetry_space_group_name_H-M	'P1'
_cell_length_a	9.951300
_cell_length_b	9.951300
_cell_length_c	13.484900
_cell_angle_alpha	85.789400
_cell_angle_beta	69.765600
_cell_angle_gamma	115.584000
_symmetry_Int_Tables_number 1

loop_
_symmetry_equiv_pos_as_xyz
'x,y,z'

loop_
_atom_site_label
_atom_site_type_symbol
_atom_site_fract_x
_atom_site_fract_y
_atom_site_fract_z
Sm11	Sm1	0.265510	0.538610	0.001960
Sm21	Sm2	0.040570	0.267470	0.498040
Sm31	Sm3	0.734490	0.461390	0.998040
Sm41	Sm4	0.959430	0.732530	0.501960
H11	H1	0.986200	0.053200	0.146000
H21	H2	0.818700	0.765600	0.179100
H31	H3	0.699200	0.132200	0.354000
H41	H4	0.444700	0.997800	0.320900
H51	H5	0.013800	0.946800	0.854000
H61	H6	0.181300	0.234400	0.820900
H71	H7	0.300800	0.867800	0.646000
H81	H8	0.555300	0.002200	0.679100
C11	C1	0.879700	0.228200	0.038100
C21	C2	0.685900	0.817300	0.111200
C31	C3	0.897100	0.002000	0.129100
C41	C4	0.557400	0.678400	0.100400
C51	C5	0.803200	0.841100	0.147700
C61	C6	0.062200	0.405800	0.265600
C71	C7	0.832700	0.067100	0.081800
C81	C8	0.766300	0.917800	0.461900
C91	C9	0.428500	0.797100	0.388800
C101	C10	0.631100	0.026200	0.370900
C111	C11	0.278800	0.657800	0.399600
C121	C12	0.488800	0.950900	0.352300
C131	C13	0.171400	0.327800	0.234400
C141	C14	0.648900	0.914500	0.418200
C151	C15	0.120300	0.771800	0.961900
C161	C16	0.314100	0.182700	0.888800
C171	C17	0.102900	0.998000	0.870900
C181	C18	0.442600	0.321600	0.899600
C191	C19	0.196800	0.158900	0.852300
C201	C20	0.937800	0.594200	0.734400
C211	C21	0.167300	0.932900	0.918200
C221	C22	0.233700	0.082200	0.538100
C231	C23	0.571500	0.202900	0.611200
C241	C24	0.368900	0.973800	0.629100
C251	C25	0.721200	0.342200	0.600400
C261	C26	0.511200	0.049100	0.647700
C271	C27	0.828600	0.672200	0.765600
C281	C28	0.351100	0.085500	0.581800
O11	O1	0.007400	0.331400	0.037000
O21	O2	0.786600	0.249900	0.002700
O31	O3	0.072100	0.493500	0.189600
O41	O4	0.577700	0.562300	0.102400
O51	O5	0.700400	0.955900	0.071900
O61	O6	0.440500	0.684700	0.090000
O71	O7	0.970300	0.372300	0.364600
O81	O8	0.868400	0.044400	0.463000
O91	O9	0.752600	0.789300	0.497300
O101	O10	0.183100	0.261700	0.310400
O111	O11	0.164700	0.680100	0.397600
O121	O12	0.527800	0.772300	0.428100
O131	O13	0.274700	0.530500	0.410000
O141	O14	0.236900	0.334900	0.135400
O151	O15	0.992600	0.668600	0.963000
O161	O16	0.213400	0.750100	0.997300
O171	O17	0.927900	0.506500	0.810400
O181	O18	0.422300	0.437700	0.897600
O191	O19	0.299600	0.044100	0.928100
O201	O20	0.559500	0.315300	0.910000
O211	O21	0.029700	0.627700	0.635400
O221	O22	0.131600	0.955600	0.537000
O231	O23	0.247400	0.210700	0.502700
O241	O24	0.816900	0.738300	0.689600
O251	O25	0.835300	0.319900	0.602400
O261	O26	0.472200	0.227700	0.571900
O271	O27	0.725300	0.469500	0.590000
O281	O28	0.763100	0.665100	0.864600
