data_VAZMOA_clean_PM
_symmetry_space_group_name_H-M	'P1'
_cell_length_a	9.818400
_cell_length_b	9.818400
_cell_length_c	13.261600
_cell_angle_alpha	84.788700
_cell_angle_beta	70.772900
_cell_angle_gamma	115.627000
_symmetry_Int_Tables_number 1

loop_
_symmetry_equiv_pos_as_xyz
'x,y,z'

loop_
_atom_site_label
_atom_site_type_symbol
_atom_site_fract_x
_atom_site_fract_y
_atom_site_fract_z
Yb11	Yb1	0.264970	0.538800	0.003490
Yb21	Yb2	0.042290	0.268460	0.496510
Yb31	Yb3	0.735030	0.461200	0.996510
Yb41	Yb4	0.957710	0.731540	0.503490
H11	H1	0.992100	0.052400	0.149300
H21	H2	0.822800	0.759100	0.179300
H31	H3	0.701700	0.141400	0.350700
H41	H4	0.438400	0.002100	0.320700
H51	H5	0.007900	0.947600	0.850700
H61	H6	0.177200	0.240900	0.820700
H71	H7	0.298300	0.858600	0.649300
H81	H8	0.561600	0.997900	0.679300
C11	C1	0.884100	0.233900	0.039800
C21	C2	0.689300	0.816000	0.109500
C31	C3	0.902300	0.001500	0.131200
C41	C4	0.562400	0.676700	0.096100
C51	C5	0.807300	0.837000	0.148100
C61	C6	0.068300	0.413100	0.265000
C71	C7	0.835900	0.069100	0.083800
C81	C8	0.773700	0.923900	0.460200
C91	C9	0.425500	0.798800	0.390500
C101	C10	0.632700	0.033500	0.368800
C111	C11	0.272800	0.658500	0.403900
C121	C12	0.485100	0.955400	0.351900
C131	C13	0.178100	0.333300	0.235000
C141	C14	0.652900	0.919700	0.416200
C151	C15	0.115900	0.766100	0.960200
C161	C16	0.310700	0.184000	0.890500
C171	C17	0.097700	0.998500	0.868800
C181	C18	0.437600	0.323300	0.903900
C191	C19	0.192700	0.163000	0.851900
C201	C20	0.931700	0.586900	0.735000
C211	C21	0.164100	0.930900	0.916200
C221	C22	0.226300	0.076100	0.539800
C231	C23	0.574500	0.201200	0.609500
C241	C24	0.367300	0.966500	0.631200
C251	C25	0.727200	0.341500	0.596100
C261	C26	0.514900	0.044600	0.648100
C271	C27	0.821900	0.666700	0.765000
C281	C28	0.347100	0.080300	0.583800
O11	O1	0.014300	0.338200	0.040300
O21	O2	0.788100	0.258500	0.006000
O31	O3	0.080400	0.503400	0.185200
O41	O4	0.585700	0.560600	0.094500
O51	O5	0.702400	0.957300	0.071100
O61	O6	0.441700	0.682100	0.086000
O71	O7	0.975800	0.378100	0.364100
O81	O8	0.878500	0.054600	0.459700
O91	O9	0.764500	0.794100	0.494000
O101	O10	0.188600	0.265600	0.314800
O111	O11	0.155100	0.680200	0.405500
O121	O12	0.528400	0.773500	0.428900
O131	O13	0.268100	0.527700	0.414000
O141	O14	0.242200	0.339900	0.135900
O151	O15	0.985700	0.661800	0.959700
O161	O16	0.211900	0.741500	0.994000
O171	O17	0.919600	0.496600	0.814800
O181	O18	0.414300	0.439400	0.905500
O191	O19	0.297600	0.042700	0.928900
O201	O20	0.558300	0.317900	0.914000
O211	O21	0.024200	0.621900	0.635900
O221	O22	0.121500	0.945400	0.540300
O231	O23	0.235500	0.205900	0.506000
O241	O24	0.811400	0.734400	0.685200
O251	O25	0.844900	0.319800	0.594500
O261	O26	0.471600	0.226500	0.571100
O271	O27	0.731900	0.472300	0.586000
O281	O28	0.757800	0.660100	0.864100
