data_VECWUX_clean_PM
_symmetry_space_group_name_H-M	'P1'
_cell_length_a	11.337300
_cell_length_b	11.337300
_cell_length_c	30.746000
_cell_angle_alpha	90.000000
_cell_angle_beta	90.000000
_cell_angle_gamma	118.543000
_symmetry_Int_Tables_number 1

loop_
_symmetry_equiv_pos_as_xyz
'x,y,z'

loop_
_atom_site_label
_atom_site_type_symbol
_atom_site_fract_x
_atom_site_fract_y
_atom_site_fract_z
Ni11	Ni1	0.686610	0.233650	0.572950
Ni21	Ni2	0.733650	0.186610	0.072950
H11	H1	0.382000	0.120000	0.726700
H21	H2	0.778000	0.271400	0.707100
H31	H3	0.702600	0.453800	0.928300
H41	H4	0.713000	0.106400	0.932800
H51	H5	0.535700	0.368700	0.613600
H61	H6	0.531900	0.565500	0.615700
H71	H7	0.850600	0.719400	0.536700
H81	H8	0.845300	0.514700	0.536200
H91	H9	0.866600	0.910200	0.545300
H101	H10	0.858900	0.107900	0.545100
H111	H11	0.513000	0.943000	0.603500
H121	H12	0.508500	0.739700	0.604500
H131	H13	0.620000	0.882000	0.226700
H141	H14	0.771400	0.278000	0.207100
H151	H15	0.953800	0.202600	0.428300
H161	H16	0.606400	0.213000	0.432800
H171	H17	0.868700	0.035700	0.113600
H181	H18	0.065500	0.031900	0.115700
H191	H19	0.219400	0.350600	0.036700
H201	H20	0.014700	0.345300	0.036200
H211	H21	0.410200	0.366600	0.045300
H221	H22	0.607900	0.358900	0.045100
H231	H23	0.443000	0.013000	0.103500
H241	H24	0.239700	0.008500	0.104500
C11	C1	0.553400	0.173000	0.661220
C21	C2	0.576100	0.192100	0.709810
C31	C3	0.468900	0.154900	0.737510
C41	C4	0.493700	0.171100	0.782620
C51	C5	0.622600	0.223600	0.800530
C61	C6	0.725700	0.258700	0.770200
C71	C7	0.705600	0.245200	0.725970
C81	C8	0.646800	0.243000	0.848800
C91	C9	0.660700	0.354100	0.870460
C101	C10	0.696100	0.377700	0.914740
C111	C11	0.721100	0.287300	0.938080
C121	C12	0.702900	0.171500	0.917370
C131	C13	0.669700	0.152900	0.873800
C141	C14	0.767200	0.314200	0.984460
C151	C15	0.599200	0.440000	0.597300
C161	C16	0.596100	0.558100	0.598800
C171	C17	0.688200	0.668200	0.575100
C181	C18	0.783800	0.648400	0.552100
C191	C19	0.780700	0.524700	0.552100
C201	C20	0.687300	0.799700	0.575440
C211	C21	0.793100	0.913900	0.557200
C221	C22	0.787100	0.032500	0.557100
C231	C23	0.584400	0.936000	0.591200
C241	C24	0.581700	0.813500	0.592300
C251	C25	0.673000	0.053400	0.161220
C261	C26	0.692100	0.076100	0.209810
C271	C27	0.654900	0.968900	0.237510
C281	C28	0.671100	0.993700	0.282620
C291	C29	0.723600	0.122600	0.300530
C301	C30	0.758700	0.225700	0.270200
C311	C31	0.745200	0.205600	0.225970
C321	C32	0.743000	0.146800	0.348800
C331	C33	0.854100	0.160700	0.370460
C341	C34	0.877700	0.196100	0.414740
C351	C35	0.787300	0.221100	0.438080
C361	C36	0.671500	0.202900	0.417370
C371	C37	0.652900	0.169700	0.373800
C381	C38	0.814200	0.267200	0.484460
C391	C39	0.940000	0.099200	0.097300
C401	C40	0.058100	0.096100	0.098800
C411	C41	0.168200	0.188200	0.075100
C421	C42	0.148400	0.283800	0.052100
C431	C43	0.024700	0.280700	0.052100
C441	C44	0.299700	0.187300	0.075440
C451	C45	0.413900	0.293100	0.057200
C461	C46	0.532500	0.287100	0.057100
C471	C47	0.436000	0.084400	0.091200
C481	C48	0.313500	0.081700	0.092300
N11	N1	0.866900	0.309300	0.784300
N21	N2	0.374500	0.129900	0.810300
N31	N3	0.640800	0.459600	0.847800
N41	N4	0.667800	0.031000	0.854200
N51	N5	0.688200	0.419000	0.573940
N61	N6	0.684200	0.045800	0.573240
N71	N7	0.809300	0.366900	0.284300
N81	N8	0.629900	0.874500	0.310300
N91	N9	0.959600	0.140800	0.347800
N101	N10	0.531000	0.167800	0.354200
N111	N11	0.919000	0.188200	0.073940
N121	N12	0.545800	0.184200	0.073240
O11	O1	0.658900	0.218300	0.638120
O21	O2	0.434800	0.117000	0.647790
O31	O3	0.827400	0.433600	0.996930
O41	O4	0.741000	0.212400	0.006920
O51	O5	0.892900	0.283700	0.819000
O61	O6	0.954900	0.379300	0.759800
O71	O7	0.265700	0.044300	0.796900
O81	O8	0.385500	0.197300	0.842800
O91	O9	0.650300	0.468100	0.808960
O101	O10	0.616200	0.532400	0.870500
O111	O11	0.598600	0.984400	0.822200
O121	O12	0.736800	0.985400	0.870300
O131	O13	0.718300	0.158900	0.138120
O141	O14	0.617000	0.934800	0.147790
O151	O15	0.933600	0.327400	0.496930
O161	O16	0.712400	0.241000	0.506920
O171	O17	0.783700	0.392900	0.319000
O181	O18	0.879300	0.454900	0.259800
O191	O19	0.544300	0.765700	0.296900
O201	O20	0.697300	0.885500	0.342800
O211	O21	0.968100	0.150300	0.308960
O221	O22	0.032400	0.116200	0.370500
O231	O23	0.484400	0.098600	0.322200
O241	O24	0.485400	0.236800	0.370300
Ni31	Ni3	0.233650	0.686610	0.427050
Ni41	Ni4	0.186610	0.733650	0.927050
H251	H25	0.120000	0.382000	0.273300
H261	H26	0.271400	0.778000	0.292900
H271	H27	0.453800	0.702600	0.071700
H281	H28	0.106400	0.713000	0.067200
H291	H29	0.368700	0.535700	0.386400
H301	H30	0.565500	0.531900	0.384300
H311	H31	0.719400	0.850600	0.463300
H321	H32	0.514700	0.845300	0.463800
H331	H33	0.910200	0.866600	0.454700
H341	H34	0.107900	0.858900	0.454900
H351	H35	0.943000	0.513000	0.396500
H361	H36	0.739700	0.508500	0.395500
H371	H37	0.882000	0.620000	0.773300
H381	H38	0.278000	0.771400	0.792900
H391	H39	0.202600	0.953800	0.571700
H401	H40	0.213000	0.606400	0.567200
H411	H41	0.035700	0.868700	0.886400
H421	H42	0.031900	0.065500	0.884300
H431	H43	0.350600	0.219400	0.963300
H441	H44	0.345300	0.014700	0.963800
H451	H45	0.366600	0.410200	0.954700
H461	H46	0.358900	0.607900	0.954900
H471	H47	0.013000	0.443000	0.896500
H481	H48	0.008500	0.239700	0.895500
C491	C49	0.173000	0.553400	0.338780
C501	C50	0.192100	0.576100	0.290190
C511	C51	0.154900	0.468900	0.262490
C521	C52	0.171100	0.493700	0.217380
C531	C53	0.223600	0.622600	0.199470
C541	C54	0.258700	0.725700	0.229800
C551	C55	0.245200	0.705600	0.274030
C561	C56	0.243000	0.646800	0.151200
C571	C57	0.354100	0.660700	0.129540
C581	C58	0.377700	0.696100	0.085260
C591	C59	0.287300	0.721100	0.061920
C601	C60	0.171500	0.702900	0.082630
C611	C61	0.152900	0.669700	0.126200
C621	C62	0.314200	0.767200	0.015540
C631	C63	0.440000	0.599200	0.402700
C641	C64	0.558100	0.596100	0.401200
C651	C65	0.668200	0.688200	0.424900
C661	C66	0.648400	0.783800	0.447900
C671	C67	0.524700	0.780700	0.447900
C681	C68	0.799700	0.687300	0.424560
C691	C69	0.913900	0.793100	0.442800
C701	C70	0.032500	0.787100	0.442900
C711	C71	0.936000	0.584400	0.408800
C721	C72	0.813500	0.581700	0.407700
C731	C73	0.053400	0.673000	0.838780
C741	C74	0.076100	0.692100	0.790190
C751	C75	0.968900	0.654900	0.762490
C761	C76	0.993700	0.671100	0.717380
C771	C77	0.122600	0.723600	0.699470
C781	C78	0.225700	0.758700	0.729800
C791	C79	0.205600	0.745200	0.774030
C801	C80	0.146800	0.743000	0.651200
C811	C81	0.160700	0.854100	0.629540
C821	C82	0.196100	0.877700	0.585260
C831	C83	0.221100	0.787300	0.561920
C841	C84	0.202900	0.671500	0.582630
C851	C85	0.169700	0.652900	0.626200
C861	C86	0.267200	0.814200	0.515540
C871	C87	0.099200	0.940000	0.902700
C881	C88	0.096100	0.058100	0.901200
C891	C89	0.188200	0.168200	0.924900
C901	C90	0.283800	0.148400	0.947900
C911	C91	0.280700	0.024700	0.947900
C921	C92	0.187300	0.299700	0.924560
C931	C93	0.293100	0.413900	0.942800
C941	C94	0.287100	0.532500	0.942900
C951	C95	0.084400	0.436000	0.908800
C961	C96	0.081700	0.313500	0.907700
N131	N13	0.309300	0.866900	0.215700
N141	N14	0.129900	0.374500	0.189700
N151	N15	0.459600	0.640800	0.152200
N161	N16	0.031000	0.667800	0.145800
N171	N17	0.419000	0.688200	0.426060
N181	N18	0.045800	0.684200	0.426760
N191	N19	0.366900	0.809300	0.715700
N201	N20	0.874500	0.629900	0.689700
N211	N21	0.140800	0.959600	0.652200
N221	N22	0.167800	0.531000	0.645800
N231	N23	0.188200	0.919000	0.926060
N241	N24	0.184200	0.545800	0.926760
O251	O25	0.218300	0.658900	0.361880
O261	O26	0.117000	0.434800	0.352210
O271	O27	0.433600	0.827400	0.003070
O281	O28	0.212400	0.741000	0.993080
O291	O29	0.283700	0.892900	0.181000
O301	O30	0.379300	0.954900	0.240200
O311	O31	0.044300	0.265700	0.203100
O321	O32	0.197300	0.385500	0.157200
O331	O33	0.468100	0.650300	0.191040
O341	O34	0.532400	0.616200	0.129500
O351	O35	0.984400	0.598600	0.177800
O361	O36	0.985400	0.736800	0.129700
O371	O37	0.158900	0.718300	0.861880
O381	O38	0.934800	0.617000	0.852210
O391	O39	0.327400	0.933600	0.503070
O401	O40	0.241000	0.712400	0.493080
O411	O41	0.392900	0.783700	0.681000
O421	O42	0.454900	0.879300	0.740200
O431	O43	0.765700	0.544300	0.703100
O441	O44	0.885500	0.697300	0.657200
O451	O45	0.150300	0.968100	0.691040
O461	O46	0.116200	0.032400	0.629500
O471	O47	0.098600	0.484400	0.677800
O481	O48	0.236800	0.485400	0.629700
