data_VEDDIT_charged_PM
_symmetry_space_group_name_H-M	'P1'
_cell_length_a	12.051000
_cell_length_b	12.051000
_cell_length_c	21.427200
_cell_angle_alpha	77.421800
_cell_angle_beta	77.421800
_cell_angle_gamma	87.711100
_symmetry_Int_Tables_number 1

loop_
_symmetry_equiv_pos_as_xyz
'x,y,z'

loop_
_atom_site_label
_atom_site_type_symbol
_atom_site_fract_x
_atom_site_fract_y
_atom_site_fract_z
Dy11	Dy1	0.953980	0.089380	0.069090
Dy21	Dy2	0.910620	0.046020	0.430910
Dy31	Dy3	0.046020	0.910620	0.930910
Dy41	Dy4	0.089380	0.953980	0.569090
Zn11	Zn1	0.561010	0.438990	0.750000
Zn21	Zn2	0.438990	0.561010	0.250000
H11	H1	0.308400	0.085000	0.865600
H21	H2	0.219600	0.368400	0.932700
H31	H3	0.453100	0.804300	0.836300
H41	H4	0.837400	0.139800	0.803800
H51	H5	0.579400	0.683200	0.789600
H61	H6	0.647700	0.437500	0.878500
H71	H7	0.755200	0.323200	0.942900
H81	H8	0.457800	0.186800	0.791300
H91	H9	0.222400	0.553400	0.897400
H101	H10	0.891800	0.034200	0.211300
H111	H11	0.901400	0.919000	0.191500
H121	H12	0.089700	0.112900	0.163200
H131	H13	0.011000	0.210800	0.162200
H141	H14	0.915000	0.691600	0.634400
H151	H15	0.631600	0.780400	0.567300
H161	H16	0.195700	0.546900	0.663700
H171	H17	0.860200	0.162600	0.696200
H181	H18	0.316800	0.420600	0.710400
H191	H19	0.562500	0.352300	0.621500
H201	H20	0.676800	0.244800	0.557100
H211	H21	0.813200	0.542200	0.708700
H221	H22	0.446600	0.777600	0.602600
H231	H23	0.965800	0.108200	0.288700
H241	H24	0.081000	0.098600	0.308500
H251	H25	0.887100	0.910300	0.336800
H261	H26	0.789200	0.989000	0.337800
H271	H27	0.691600	0.915000	0.134400
H281	H28	0.780400	0.631600	0.067300
H291	H29	0.546900	0.195700	0.163700
H301	H30	0.162600	0.860200	0.196200
H311	H31	0.420600	0.316800	0.210400
H321	H32	0.352300	0.562500	0.121500
H331	H33	0.244800	0.676800	0.057100
H341	H34	0.542200	0.813200	0.208700
H351	H35	0.777600	0.446600	0.102600
H361	H36	0.108200	0.965800	0.788700
H371	H37	0.098600	0.081000	0.808500
H381	H38	0.910300	0.887100	0.836800
H391	H39	0.989000	0.789200	0.837800
H401	H40	0.085000	0.308400	0.365600
H411	H41	0.368400	0.219600	0.432700
H421	H42	0.804300	0.453100	0.336300
H431	H43	0.139800	0.837400	0.303800
H441	H44	0.683200	0.579400	0.289600
H451	H45	0.437500	0.647700	0.378500
H461	H46	0.323200	0.755200	0.442900
H471	H47	0.186800	0.457800	0.291300
H481	H48	0.553400	0.222400	0.397400
H491	H49	0.034200	0.891800	0.711300
H501	H50	0.919000	0.901400	0.691500
H511	H51	0.112900	0.089700	0.663200
H521	H52	0.210800	0.011000	0.662200
C11	C1	0.376000	0.509200	0.849100
C21	C2	0.318600	0.161600	0.864500
C31	C3	0.246300	0.216100	0.907500
C41	C4	0.265400	0.330000	0.903500
C51	C5	0.877500	0.140300	0.922600
C61	C6	0.431400	0.730000	0.838800
C71	C7	0.800800	0.200600	0.819600
C81	C8	0.809200	0.218800	0.881000
C91	C9	0.506900	0.656700	0.811600
C101	C10	0.687400	0.377600	0.863300
C111	C11	0.321500	0.691700	0.870300
C121	C12	0.737500	0.274300	0.783600
C131	C13	0.231100	0.771300	0.895600
C141	C14	0.353600	0.386600	0.855400
C151	C15	0.751400	0.308800	0.902500
C161	C16	0.407500	0.224300	0.819100
C171	C17	0.294700	0.581100	0.875800
C181	C18	0.147700	0.159500	0.959500
C191	C19	0.490800	0.624000	0.650900
C201	C20	0.838400	0.681400	0.635500
C211	C21	0.783900	0.753700	0.592500
C221	C22	0.670000	0.734600	0.596500
C231	C23	0.859700	0.122500	0.577400
C241	C24	0.270000	0.568600	0.661200
C251	C25	0.799400	0.199200	0.680400
C261	C26	0.781200	0.190800	0.619000
C271	C27	0.343300	0.493100	0.688400
C281	C28	0.622400	0.312600	0.636700
C291	C29	0.308300	0.678500	0.629700
C301	C30	0.725700	0.262500	0.716400
C311	C31	0.228700	0.768900	0.604400
C321	C32	0.613400	0.646400	0.644600
C331	C33	0.691200	0.248600	0.597500
C341	C34	0.775700	0.592500	0.680900
C351	C35	0.418900	0.705300	0.624200
C361	C36	0.840500	0.852300	0.540500
C371	C37	0.624000	0.490800	0.150900
C381	C38	0.681400	0.838400	0.135500
C391	C39	0.753700	0.783900	0.092500
C401	C40	0.734600	0.670000	0.096500
C411	C41	0.122500	0.859700	0.077400
C421	C42	0.568600	0.270000	0.161200
C431	C43	0.199200	0.799400	0.180400
C441	C44	0.190800	0.781200	0.119000
C451	C45	0.493100	0.343300	0.188400
C461	C46	0.312600	0.622400	0.136700
C471	C47	0.678500	0.308300	0.129700
C481	C48	0.262500	0.725700	0.216400
C491	C49	0.768900	0.228700	0.104400
C501	C50	0.646400	0.613400	0.144600
C511	C51	0.248600	0.691200	0.097500
C521	C52	0.592500	0.775700	0.180900
C531	C53	0.705300	0.418900	0.124200
C541	C54	0.852300	0.840500	0.040500
C551	C55	0.509200	0.376000	0.349100
C561	C56	0.161600	0.318600	0.364500
C571	C57	0.216100	0.246300	0.407500
C581	C58	0.330000	0.265400	0.403500
C591	C59	0.140300	0.877500	0.422600
C601	C60	0.730000	0.431400	0.338800
C611	C61	0.200600	0.800800	0.319600
C621	C62	0.218800	0.809200	0.381000
C631	C63	0.656700	0.506900	0.311600
C641	C64	0.377600	0.687400	0.363300
C651	C65	0.691700	0.321500	0.370300
C661	C66	0.274300	0.737500	0.283600
C671	C67	0.771300	0.231100	0.395600
C681	C68	0.386600	0.353600	0.355400
C691	C69	0.308800	0.751400	0.402500
C701	C70	0.224300	0.407500	0.319100
C711	C71	0.581100	0.294700	0.375800
C721	C72	0.159500	0.147700	0.459500
N11	N1	0.680400	0.361400	0.804900
N21	N2	0.423600	0.333600	0.813800
N31	N3	0.480400	0.548400	0.815500
N41	N4	0.638600	0.319600	0.695100
N51	N5	0.666400	0.576400	0.686200
N61	N6	0.451600	0.519600	0.684500
N71	N7	0.319600	0.638600	0.195100
N81	N8	0.576400	0.666400	0.186200
N91	N9	0.519600	0.451600	0.184500
N101	N10	0.361400	0.680400	0.304900
N111	N11	0.333600	0.423600	0.313800
N121	N12	0.548400	0.480400	0.315500
O11	O1	0.892000	0.168800	0.973200
O21	O2	0.102400	0.212200	0.002300
O31	O3	0.116500	0.062700	0.958600
O41	O4	0.256900	0.869100	0.899000
O51	O5	0.130200	0.735400	0.911500
O61	O6	0.917000	0.052200	0.902800
O71	O7	0.875400	0.996800	0.178400
O81	O8	0.057000	0.168400	0.135400
O91	O9	0.831200	0.108000	0.526800
O101	O10	0.787800	0.897600	0.497700
O111	O11	0.937300	0.883500	0.541400
O121	O12	0.130900	0.743100	0.601000
O131	O13	0.264600	0.869800	0.588500
O141	O14	0.947800	0.083000	0.597200
O151	O15	0.003200	0.124600	0.321600
O161	O16	0.831600	0.943000	0.364600
O171	O17	0.108000	0.831200	0.026800
O181	O18	0.897600	0.787800	0.997700
O191	O19	0.883500	0.937300	0.041400
O201	O20	0.743100	0.130900	0.101000
O211	O21	0.869800	0.264600	0.088500
O221	O22	0.083000	0.947800	0.097200
O231	O23	0.124600	0.003200	0.821600
O241	O24	0.943000	0.831600	0.864600
O251	O25	0.168800	0.892000	0.473200
O261	O26	0.212200	0.102400	0.502300
O271	O27	0.062700	0.116500	0.458600
O281	O28	0.869100	0.256900	0.399000
O291	O29	0.735400	0.130200	0.411500
O301	O30	0.052200	0.917000	0.402800
O311	O31	0.996800	0.875400	0.678400
O321	O32	0.168400	0.057000	0.635400
Cl11	Cl1	0.085600	0.288200	0.720820
O331	O33	0.996600	0.370200	0.706100
O341	O34	0.119800	0.301000	0.777800
O351	O35	0.044700	0.170900	0.730300
O361	O36	0.177100	0.307500	0.664100
Cl21	Cl2	0.711800	0.914400	0.779180
O371	O37	0.629800	0.003400	0.793900
O381	O38	0.699000	0.880200	0.722200
O391	O39	0.829100	0.955300	0.769700
O401	O40	0.692500	0.822900	0.835900
Cl31	Cl3	0.914400	0.711800	0.279180
O411	O41	0.003400	0.629800	0.293900
O421	O42	0.880200	0.699000	0.222200
O431	O43	0.955300	0.829100	0.269700
O441	O44	0.822900	0.692500	0.335900
Cl41	Cl4	0.288200	0.085600	0.220820
O451	O45	0.370200	0.996600	0.206100
O461	O46	0.301000	0.119800	0.277800
O471	O47	0.170900	0.044700	0.230300
O481	O48	0.307500	0.177100	0.164100
