data_VEFLUP_clean_PM
_symmetry_space_group_name_H-M	'P1'
_cell_length_a	8.002000
_cell_length_b	9.091000
_cell_length_c	12.935000
_cell_angle_alpha	107.805000
_cell_angle_beta	100.042000
_cell_angle_gamma	104.106000
_symmetry_Int_Tables_number 1

loop_
_symmetry_equiv_pos_as_xyz
'x,y,z'

loop_
_atom_site_label
_atom_site_type_symbol
_atom_site_fract_x
_atom_site_fract_y
_atom_site_fract_z
Co11	Co1	0.249730	0.502720	0.499890
Co21	Co2	0.749740	0.502500	0.499790
H11	H1	0.574100	0.681600	0.586000
H21	H2	0.538100	0.663800	0.475800
H31	H3	0.930300	0.328900	0.412100
H41	H4	0.964900	0.342600	0.521300
H51	H5	0.630900	0.994800	0.914500
H61	H6	0.597500	0.135900	0.090500
H71	H7	0.101300	0.782800	0.797600
H81	H8	0.401200	0.229900	0.204300
H91	H9	0.869900	0.022200	0.078400
H101	H10	0.899600	0.866800	0.918300
H111	H11	0.950400	0.266300	0.841400
H121	H12	0.923500	0.297300	0.017100
H131	H13	0.678100	0.580800	0.821900
H141	H14	0.804600	0.417200	0.176600
H151	H15	0.548400	0.737000	0.163300
H161	H16	0.574300	0.710100	0.985200
C11	C1	0.397900	0.771200	0.729310
C21	C2	0.368800	0.870560	0.839820
C31	C3	0.517400	0.980300	0.926060
C41	C4	0.497900	0.069600	0.030450
C51	C5	0.326000	0.056260	0.041700
C61	C6	0.175100	0.945800	0.952890
C71	C7	0.200400	0.856200	0.855560
C81	C8	0.301900	0.156000	0.146740
C91	C9	0.135100	0.141200	0.160720
C101	C10	0.984300	0.030100	0.069700
C111	C11	0.002000	0.938700	0.974250
C121	C12	0.105500	0.232000	0.267280
C131	C13	0.837800	0.406100	0.697670
C141	C14	0.821100	0.423600	0.811640
C151	C15	0.891600	0.337200	0.873960
C161	C16	0.875500	0.355400	0.978840
C171	C17	0.788700	0.459200	0.030470
C181	C18	0.715700	0.545700	0.970990
C191	C19	0.729700	0.525800	0.861400
C201	C20	0.763200	0.478100	0.138100
C211	C21	0.681000	0.581500	0.186510
C221	C22	0.608000	0.668100	0.129110
C231	C23	0.623300	0.652300	0.023330
C241	C24	0.663500	0.599000	0.305600
O11	O1	0.260020	0.675530	0.652190
O21	O2	0.555580	0.798710	0.724010
O31	O3	0.240060	0.331540	0.346420
O41	O4	0.950800	0.214400	0.275920
O51	O5	0.792200	0.506550	0.657410
O61	O6	0.901000	0.300250	0.646470
O71	O7	0.713500	0.504970	0.342570
O81	O8	0.602700	0.707650	0.353010
O91	O9	0.535620	0.610420	0.519530
O101	O10	0.968110	0.398250	0.479110
