data_VEFMAW_charged_PM
_symmetry_space_group_name_H-M	'P1'
_cell_length_a	24.334500
_cell_length_b	24.334500
_cell_length_c	24.334500
_cell_angle_alpha	105.919000
_cell_angle_beta	105.919000
_cell_angle_gamma	105.919000
_symmetry_Int_Tables_number 1

loop_
_symmetry_equiv_pos_as_xyz
'x,y,z'

loop_
_atom_site_label
_atom_site_type_symbol
_atom_site_fract_x
_atom_site_fract_y
_atom_site_fract_z
Co11	Co1	0.384120	0.530480	0.047450
Co21	Co2	0.020100	0.055280	0.486600
Co31	Co3	0.047450	0.384120	0.530480
Co41	Co4	0.486600	0.020100	0.055280
Co51	Co5	0.530480	0.047450	0.384120
Co61	Co6	0.055280	0.486600	0.020100
Co71	Co7	0.615880	0.469520	0.952550
Co81	Co8	0.979900	0.944720	0.513400
Co91	Co9	0.952550	0.615880	0.469520
Co101	Co10	0.513400	0.979900	0.944720
Co111	Co11	0.469520	0.952550	0.615880
Co121	Co12	0.944720	0.513400	0.979900
Co131	Co13	0.500000	0.500000	0.000000
Co141	Co14	0.000000	0.500000	0.500000
Co151	Co15	0.500000	0.000000	0.500000
H11	H1	0.390900	0.538200	0.153700
H21	H2	0.399700	0.253000	0.908100
H31	H3	0.426700	0.357200	0.966200
H41	H4	0.248000	0.336500	0.894400
H51	H5	0.220800	0.233000	0.836400
H61	H6	0.267200	0.203600	0.745000
H71	H7	0.185200	0.154400	0.648800
H81	H8	0.127700	0.004700	0.692800
H91	H9	0.210500	0.055700	0.788800
H101	H10	0.335900	0.091900	0.786800
H111	H11	0.398500	0.046800	0.834700
H121	H12	0.382400	0.124900	0.995600
H131	H13	0.321400	0.171600	0.949600
H141	H14	0.307100	0.637000	0.826100
H151	H15	0.326900	0.598300	0.903200
H161	H16	0.492000	0.605800	0.891700
H171	H17	0.469500	0.642800	0.811200
H181	H18	0.453800	0.752400	0.866400
H191	H19	0.506700	0.855300	0.887600
H201	H20	0.427600	0.825700	0.706800
H211	H21	0.377200	0.722300	0.685700
H221	H22	0.284400	0.703900	0.713800
H231	H23	0.182400	0.643800	0.646400
H241	H24	0.218000	0.488800	0.633200
H251	H25	0.321900	0.548700	0.696200
H261	H26	0.315900	0.416000	0.086600
H271	H27	0.289400	0.469700	0.098700
H281	H28	0.326100	0.455800	0.155400
H291	H29	0.441100	0.487300	0.188900
H301	H30	0.469800	0.500800	0.139800
H311	H31	0.417800	0.434800	0.121900
H321	H32	0.153700	0.390900	0.538200
H331	H33	0.908100	0.399700	0.253000
H341	H34	0.966200	0.426700	0.357200
H351	H35	0.894400	0.248000	0.336500
H361	H36	0.836400	0.220800	0.233000
H371	H37	0.745000	0.267200	0.203600
H381	H38	0.648800	0.185200	0.154400
H391	H39	0.692800	0.127700	0.004700
H401	H40	0.788800	0.210500	0.055700
H411	H41	0.786800	0.335900	0.091900
H421	H42	0.834700	0.398500	0.046800
H431	H43	0.995600	0.382400	0.124900
H441	H44	0.949600	0.321400	0.171600
H451	H45	0.826100	0.307100	0.637000
H461	H46	0.903200	0.326900	0.598300
H471	H47	0.891700	0.492000	0.605800
H481	H48	0.811200	0.469500	0.642800
H491	H49	0.866400	0.453800	0.752400
H501	H50	0.887600	0.506700	0.855300
H511	H51	0.706800	0.427600	0.825700
H521	H52	0.685700	0.377200	0.722300
H531	H53	0.713800	0.284400	0.703900
H541	H54	0.646400	0.182400	0.643800
H551	H55	0.633200	0.218000	0.488800
H561	H56	0.696200	0.321900	0.548700
H571	H57	0.086600	0.315900	0.416000
H581	H58	0.098700	0.289400	0.469700
H591	H59	0.155400	0.326100	0.455800
H601	H60	0.188900	0.441100	0.487300
H611	H61	0.139800	0.469800	0.500800
H621	H62	0.121900	0.417800	0.434800
H631	H63	0.538200	0.153700	0.390900
H641	H64	0.253000	0.908100	0.399700
H651	H65	0.357200	0.966200	0.426700
H661	H66	0.336500	0.894400	0.248000
H671	H67	0.233000	0.836400	0.220800
H681	H68	0.203600	0.745000	0.267200
H691	H69	0.154400	0.648800	0.185200
H701	H70	0.004700	0.692800	0.127700
H711	H71	0.055700	0.788800	0.210500
H721	H72	0.091900	0.786800	0.335900
H731	H73	0.046800	0.834700	0.398500
H741	H74	0.124900	0.995600	0.382400
H751	H75	0.171600	0.949600	0.321400
H761	H76	0.637000	0.826100	0.307100
H771	H77	0.598300	0.903200	0.326900
H781	H78	0.605800	0.891700	0.492000
H791	H79	0.642800	0.811200	0.469500
H801	H80	0.752400	0.866400	0.453800
H811	H81	0.855300	0.887600	0.506700
H821	H82	0.825700	0.706800	0.427600
H831	H83	0.722300	0.685700	0.377200
H841	H84	0.703900	0.713800	0.284400
H851	H85	0.643800	0.646400	0.182400
H861	H86	0.488800	0.633200	0.218000
H871	H87	0.548700	0.696200	0.321900
H881	H88	0.416000	0.086600	0.315900
H891	H89	0.469700	0.098700	0.289400
H901	H90	0.455800	0.155400	0.326100
H911	H91	0.487300	0.188900	0.441100
H921	H92	0.500800	0.139800	0.469800
H931	H93	0.434800	0.121900	0.417800
H941	H94	0.609100	0.461800	0.846300
H951	H95	0.600300	0.747000	0.091900
H961	H96	0.573300	0.642800	0.033800
H971	H97	0.752000	0.663500	0.105600
H981	H98	0.779200	0.767000	0.163600
H991	H99	0.732800	0.796400	0.255000
H1001	H100	0.814800	0.845600	0.351200
H1011	H101	0.872300	0.995300	0.307200
H1021	H102	0.789500	0.944300	0.211200
H1031	H103	0.664100	0.908100	0.213200
H1041	H104	0.601500	0.953200	0.165300
H1051	H105	0.617600	0.875100	0.004400
H1061	H106	0.678600	0.828400	0.050400
H1071	H107	0.692900	0.363000	0.173900
H1081	H108	0.673100	0.401700	0.096800
H1091	H109	0.508000	0.394200	0.108300
H1101	H110	0.530500	0.357200	0.188800
H1111	H111	0.546200	0.247600	0.133600
H1121	H112	0.493300	0.144700	0.112400
H1131	H113	0.572400	0.174300	0.293200
H1141	H114	0.622800	0.277700	0.314300
H1151	H115	0.715600	0.296100	0.286200
H1161	H116	0.817600	0.356200	0.353600
H1171	H117	0.782000	0.511200	0.366800
H1181	H118	0.678100	0.451300	0.303800
H1191	H119	0.684100	0.584000	0.913400
H1201	H120	0.710600	0.530300	0.901300
H1211	H121	0.673900	0.544200	0.844600
H1221	H122	0.558900	0.512700	0.811100
H1231	H123	0.530200	0.499200	0.860200
H1241	H124	0.582200	0.565200	0.878100
H1251	H125	0.846300	0.609100	0.461800
H1261	H126	0.091900	0.600300	0.747000
H1271	H127	0.033800	0.573300	0.642800
H1281	H128	0.105600	0.752000	0.663500
H1291	H129	0.163600	0.779200	0.767000
H1301	H130	0.255000	0.732800	0.796400
H1311	H131	0.351200	0.814800	0.845600
H1321	H132	0.307200	0.872300	0.995300
H1331	H133	0.211200	0.789500	0.944300
H1341	H134	0.213200	0.664100	0.908100
H1351	H135	0.165300	0.601500	0.953200
H1361	H136	0.004400	0.617600	0.875100
H1371	H137	0.050400	0.678600	0.828400
H1381	H138	0.173900	0.692900	0.363000
H1391	H139	0.096800	0.673100	0.401700
H1401	H140	0.108300	0.508000	0.394200
H1411	H141	0.188800	0.530500	0.357200
H1421	H142	0.133600	0.546200	0.247600
H1431	H143	0.112400	0.493300	0.144700
H1441	H144	0.293200	0.572400	0.174300
H1451	H145	0.314300	0.622800	0.277700
H1461	H146	0.286200	0.715600	0.296100
H1471	H147	0.353600	0.817600	0.356200
H1481	H148	0.366800	0.782000	0.511200
H1491	H149	0.303800	0.678100	0.451300
H1501	H150	0.913400	0.684100	0.584000
H1511	H151	0.901300	0.710600	0.530300
H1521	H152	0.844600	0.673900	0.544200
H1531	H153	0.811100	0.558900	0.512700
H1541	H154	0.860200	0.530200	0.499200
H1551	H155	0.878100	0.582200	0.565200
H1561	H156	0.461800	0.846300	0.609100
H1571	H157	0.747000	0.091900	0.600300
H1581	H158	0.642800	0.033800	0.573300
H1591	H159	0.663500	0.105600	0.752000
H1601	H160	0.767000	0.163600	0.779200
H1611	H161	0.796400	0.255000	0.732800
H1621	H162	0.845600	0.351200	0.814800
H1631	H163	0.995300	0.307200	0.872300
H1641	H164	0.944300	0.211200	0.789500
H1651	H165	0.908100	0.213200	0.664100
H1661	H166	0.953200	0.165300	0.601500
H1671	H167	0.875100	0.004400	0.617600
H1681	H168	0.828400	0.050400	0.678600
H1691	H169	0.363000	0.173900	0.692900
H1701	H170	0.401700	0.096800	0.673100
H1711	H171	0.394200	0.108300	0.508000
H1721	H172	0.357200	0.188800	0.530500
H1731	H173	0.247600	0.133600	0.546200
H1741	H174	0.144700	0.112400	0.493300
H1751	H175	0.174300	0.293200	0.572400
H1761	H176	0.277700	0.314300	0.622800
H1771	H177	0.296100	0.286200	0.715600
H1781	H178	0.356200	0.353600	0.817600
H1791	H179	0.511200	0.366800	0.782000
H1801	H180	0.451300	0.303800	0.678100
H1811	H181	0.584000	0.913400	0.684100
H1821	H182	0.530300	0.901300	0.710600
H1831	H183	0.544200	0.844600	0.673900
H1841	H184	0.512700	0.811100	0.558900
H1851	H185	0.499200	0.860200	0.530200
H1861	H186	0.565200	0.878100	0.582200
C11	C1	0.307420	0.232740	0.868480
C21	C2	0.368550	0.270040	0.905890
C31	C3	0.384750	0.332160	0.940160
C41	C4	0.339460	0.357650	0.936380
C51	C5	0.278930	0.319650	0.897510
C61	C6	0.262350	0.257920	0.863230
C71	C7	0.244350	0.136020	0.776810
C81	C8	0.238150	0.163540	0.734640
C91	C9	0.190210	0.133940	0.676760
C101	C10	0.150000	0.073890	0.660620
C111	C11	0.156280	0.045060	0.702970
C121	C12	0.204620	0.076010	0.760510
C131	C13	0.325840	0.138350	0.863330
C141	C14	0.346310	0.100130	0.829600
C151	C15	0.383000	0.072530	0.858070
C161	C16	0.396600	0.082380	0.919280
C171	C17	0.373470	0.119090	0.953340
C181	C18	0.337720	0.147090	0.926500
C191	C19	0.355930	0.422570	0.975980
C201	C20	0.095490	0.043050	0.600500
C211	C21	0.435940	0.053650	0.950220
C221	C22	0.386420	0.642560	0.810700
C231	C23	0.344220	0.630020	0.838830
C241	C24	0.356330	0.607610	0.884920
C251	C25	0.411100	0.598420	0.905070
C261	C26	0.454170	0.611630	0.878280
C271	C27	0.440720	0.633850	0.830150
C281	C28	0.407170	0.727010	0.774140
C291	C29	0.447860	0.767400	0.833940
C301	C30	0.479490	0.828600	0.846620
C311	C31	0.471760	0.851420	0.800000
C321	C32	0.432840	0.810790	0.739450
C331	C33	0.402240	0.749730	0.727130
C341	C34	0.312400	0.632520	0.715450
C351	C35	0.271000	0.660100	0.698100
C361	C36	0.210100	0.624310	0.657900
C371	C37	0.189550	0.560350	0.634530
C381	C38	0.231490	0.532520	0.649550
C391	C39	0.293170	0.567980	0.688280
C401	C40	0.423200	0.571670	0.954460
C411	C41	0.502710	0.919790	0.814890
C421	C42	0.124080	0.519440	0.592890
C431	C43	0.323300	0.457140	0.114890
C441	C44	0.432040	0.479400	0.144960
C451	C45	0.868480	0.307420	0.232740
C461	C46	0.905890	0.368550	0.270040
C471	C47	0.940160	0.384750	0.332160
C481	C48	0.936380	0.339460	0.357650
C491	C49	0.897510	0.278930	0.319650
C501	C50	0.863230	0.262350	0.257920
C511	C51	0.776810	0.244350	0.136020
C521	C52	0.734640	0.238150	0.163540
C531	C53	0.676760	0.190210	0.133940
C541	C54	0.660620	0.150000	0.073890
C551	C55	0.702970	0.156280	0.045060
C561	C56	0.760510	0.204620	0.076010
C571	C57	0.863330	0.325840	0.138350
C581	C58	0.829600	0.346310	0.100130
C591	C59	0.858070	0.383000	0.072530
C601	C60	0.919280	0.396600	0.082380
C611	C61	0.953340	0.373470	0.119090
C621	C62	0.926500	0.337720	0.147090
C631	C63	0.975980	0.355930	0.422570
C641	C64	0.600500	0.095490	0.043050
C651	C65	0.950220	0.435940	0.053650
C661	C66	0.810700	0.386420	0.642560
C671	C67	0.838830	0.344220	0.630020
C681	C68	0.884920	0.356330	0.607610
C691	C69	0.905070	0.411100	0.598420
C701	C70	0.878280	0.454170	0.611630
C711	C71	0.830150	0.440720	0.633850
C721	C72	0.774140	0.407170	0.727010
C731	C73	0.833940	0.447860	0.767400
C741	C74	0.846620	0.479490	0.828600
C751	C75	0.800000	0.471760	0.851420
C761	C76	0.739450	0.432840	0.810790
C771	C77	0.727130	0.402240	0.749730
C781	C78	0.715450	0.312400	0.632520
C791	C79	0.698100	0.271000	0.660100
C801	C80	0.657900	0.210100	0.624310
C811	C81	0.634530	0.189550	0.560350
C821	C82	0.649550	0.231490	0.532520
C831	C83	0.688280	0.293170	0.567980
C841	C84	0.954460	0.423200	0.571670
C851	C85	0.814890	0.502710	0.919790
C861	C86	0.592890	0.124080	0.519440
C871	C87	0.114890	0.323300	0.457140
C881	C88	0.144960	0.432040	0.479400
C891	C89	0.232740	0.868480	0.307420
C901	C90	0.270040	0.905890	0.368550
C911	C91	0.332160	0.940160	0.384750
C921	C92	0.357650	0.936380	0.339460
C931	C93	0.319650	0.897510	0.278930
C941	C94	0.257920	0.863230	0.262350
C951	C95	0.136020	0.776810	0.244350
C961	C96	0.163540	0.734640	0.238150
C971	C97	0.133940	0.676760	0.190210
C981	C98	0.073890	0.660620	0.150000
C991	C99	0.045060	0.702970	0.156280
C1001	C100	0.076010	0.760510	0.204620
C1011	C101	0.138350	0.863330	0.325840
C1021	C102	0.100130	0.829600	0.346310
C1031	C103	0.072530	0.858070	0.383000
C1041	C104	0.082380	0.919280	0.396600
C1051	C105	0.119090	0.953340	0.373470
C1061	C106	0.147090	0.926500	0.337720
C1071	C107	0.422570	0.975980	0.355930
C1081	C108	0.043050	0.600500	0.095490
C1091	C109	0.053650	0.950220	0.435940
C1101	C110	0.642560	0.810700	0.386420
C1111	C111	0.630020	0.838830	0.344220
C1121	C112	0.607610	0.884920	0.356330
C1131	C113	0.598420	0.905070	0.411100
C1141	C114	0.611630	0.878280	0.454170
C1151	C115	0.633850	0.830150	0.440720
C1161	C116	0.727010	0.774140	0.407170
C1171	C117	0.767400	0.833940	0.447860
C1181	C118	0.828600	0.846620	0.479490
C1191	C119	0.851420	0.800000	0.471760
C1201	C120	0.810790	0.739450	0.432840
C1211	C121	0.749730	0.727130	0.402240
C1221	C122	0.632520	0.715450	0.312400
C1231	C123	0.660100	0.698100	0.271000
C1241	C124	0.624310	0.657900	0.210100
C1251	C125	0.560350	0.634530	0.189550
C1261	C126	0.532520	0.649550	0.231490
C1271	C127	0.567980	0.688280	0.293170
C1281	C128	0.571670	0.954460	0.423200
C1291	C129	0.919790	0.814890	0.502710
C1301	C130	0.519440	0.592890	0.124080
C1311	C131	0.457140	0.114890	0.323300
C1321	C132	0.479400	0.144960	0.432040
C1331	C133	0.692580	0.767260	0.131520
C1341	C134	0.631450	0.729960	0.094110
C1351	C135	0.615250	0.667840	0.059840
C1361	C136	0.660540	0.642350	0.063620
C1371	C137	0.721070	0.680350	0.102490
C1381	C138	0.737650	0.742080	0.136770
C1391	C139	0.755650	0.863980	0.223190
C1401	C140	0.761850	0.836460	0.265360
C1411	C141	0.809790	0.866060	0.323240
C1421	C142	0.850000	0.926110	0.339380
C1431	C143	0.843720	0.954940	0.297030
C1441	C144	0.795380	0.923990	0.239490
C1451	C145	0.674160	0.861650	0.136670
C1461	C146	0.653690	0.899870	0.170400
C1471	C147	0.617000	0.927470	0.141930
C1481	C148	0.603400	0.917620	0.080720
C1491	C149	0.626530	0.880910	0.046660
C1501	C150	0.662280	0.852910	0.073500
C1511	C151	0.644070	0.577430	0.024020
C1521	C152	0.904510	0.956950	0.399500
C1531	C153	0.564060	0.946350	0.049780
C1541	C154	0.613580	0.357440	0.189300
C1551	C155	0.655780	0.369980	0.161170
C1561	C156	0.643670	0.392390	0.115080
C1571	C157	0.588900	0.401580	0.094930
C1581	C158	0.545830	0.388370	0.121720
C1591	C159	0.559280	0.366150	0.169850
C1601	C160	0.592830	0.272990	0.225860
C1611	C161	0.552140	0.232600	0.166060
C1621	C162	0.520510	0.171400	0.153380
C1631	C163	0.528240	0.148580	0.200000
C1641	C164	0.567160	0.189210	0.260550
C1651	C165	0.597760	0.250270	0.272870
C1661	C166	0.687600	0.367480	0.284550
C1671	C167	0.729000	0.339900	0.301900
C1681	C168	0.789900	0.375690	0.342100
C1691	C169	0.810450	0.439650	0.365470
C1701	C170	0.768510	0.467480	0.350450
C1711	C171	0.706830	0.432020	0.311720
C1721	C172	0.576800	0.428330	0.045540
C1731	C173	0.497290	0.080210	0.185110
C1741	C174	0.875920	0.480560	0.407110
C1751	C175	0.676700	0.542860	0.885110
C1761	C176	0.567960	0.520600	0.855040
C1771	C177	0.131520	0.692580	0.767260
C1781	C178	0.094110	0.631450	0.729960
C1791	C179	0.059840	0.615250	0.667840
C1801	C180	0.063620	0.660540	0.642350
C1811	C181	0.102490	0.721070	0.680350
C1821	C182	0.136770	0.737650	0.742080
C1831	C183	0.223190	0.755650	0.863980
C1841	C184	0.265360	0.761850	0.836460
C1851	C185	0.323240	0.809790	0.866060
C1861	C186	0.339380	0.850000	0.926110
C1871	C187	0.297030	0.843720	0.954940
C1881	C188	0.239490	0.795380	0.923990
C1891	C189	0.136670	0.674160	0.861650
C1901	C190	0.170400	0.653690	0.899870
C1911	C191	0.141930	0.617000	0.927470
C1921	C192	0.080720	0.603400	0.917620
C1931	C193	0.046660	0.626530	0.880910
C1941	C194	0.073500	0.662280	0.852910
C1951	C195	0.024020	0.644070	0.577430
C1961	C196	0.399500	0.904510	0.956950
C1971	C197	0.049780	0.564060	0.946350
C1981	C198	0.189300	0.613580	0.357440
C1991	C199	0.161170	0.655780	0.369980
C2001	C200	0.115080	0.643670	0.392390
C2011	C201	0.094930	0.588900	0.401580
C2021	C202	0.121720	0.545830	0.388370
C2031	C203	0.169850	0.559280	0.366150
C2041	C204	0.225860	0.592830	0.272990
C2051	C205	0.166060	0.552140	0.232600
C2061	C206	0.153380	0.520510	0.171400
C2071	C207	0.200000	0.528240	0.148580
C2081	C208	0.260550	0.567160	0.189210
C2091	C209	0.272870	0.597760	0.250270
C2101	C210	0.284550	0.687600	0.367480
C2111	C211	0.301900	0.729000	0.339900
C2121	C212	0.342100	0.789900	0.375690
C2131	C213	0.365470	0.810450	0.439650
C2141	C214	0.350450	0.768510	0.467480
C2151	C215	0.311720	0.706830	0.432020
C2161	C216	0.045540	0.576800	0.428330
C2171	C217	0.185110	0.497290	0.080210
C2181	C218	0.407110	0.875920	0.480560
C2191	C219	0.885110	0.676700	0.542860
C2201	C220	0.855040	0.567960	0.520600
C2211	C221	0.767260	0.131520	0.692580
C2221	C222	0.729960	0.094110	0.631450
C2231	C223	0.667840	0.059840	0.615250
C2241	C224	0.642350	0.063620	0.660540
C2251	C225	0.680350	0.102490	0.721070
C2261	C226	0.742080	0.136770	0.737650
C2271	C227	0.863980	0.223190	0.755650
C2281	C228	0.836460	0.265360	0.761850
C2291	C229	0.866060	0.323240	0.809790
C2301	C230	0.926110	0.339380	0.850000
C2311	C231	0.954940	0.297030	0.843720
C2321	C232	0.923990	0.239490	0.795380
C2331	C233	0.861650	0.136670	0.674160
C2341	C234	0.899870	0.170400	0.653690
C2351	C235	0.927470	0.141930	0.617000
C2361	C236	0.917620	0.080720	0.603400
C2371	C237	0.880910	0.046660	0.626530
C2381	C238	0.852910	0.073500	0.662280
C2391	C239	0.577430	0.024020	0.644070
C2401	C240	0.956950	0.399500	0.904510
C2411	C241	0.946350	0.049780	0.564060
C2421	C242	0.357440	0.189300	0.613580
C2431	C243	0.369980	0.161170	0.655780
C2441	C244	0.392390	0.115080	0.643670
C2451	C245	0.401580	0.094930	0.588900
C2461	C246	0.388370	0.121720	0.545830
C2471	C247	0.366150	0.169850	0.559280
C2481	C248	0.272990	0.225860	0.592830
C2491	C249	0.232600	0.166060	0.552140
C2501	C250	0.171400	0.153380	0.520510
C2511	C251	0.148580	0.200000	0.528240
C2521	C252	0.189210	0.260550	0.567160
C2531	C253	0.250270	0.272870	0.597760
C2541	C254	0.367480	0.284550	0.687600
C2551	C255	0.339900	0.301900	0.729000
C2561	C256	0.375690	0.342100	0.789900
C2571	C257	0.439650	0.365470	0.810450
C2581	C258	0.467480	0.350450	0.768510
C2591	C259	0.432020	0.311720	0.706830
C2601	C260	0.428330	0.045540	0.576800
C2611	C261	0.080210	0.185110	0.497290
C2621	C262	0.480560	0.407110	0.875920
C2631	C263	0.542860	0.885110	0.676700
C2641	C264	0.520600	0.855040	0.567960
N11	N1	0.382820	0.502660	0.121150
N21	N2	0.291300	0.168330	0.836420
N31	N3	0.372560	0.665230	0.761600
N41	N4	0.121150	0.382820	0.502660
N51	N5	0.836420	0.291300	0.168330
N61	N6	0.761600	0.372560	0.665230
N71	N7	0.502660	0.121150	0.382820
N81	N8	0.168330	0.836420	0.291300
N91	N9	0.665230	0.761600	0.372560
N101	N10	0.617180	0.497340	0.878850
N111	N11	0.708700	0.831670	0.163580
N121	N12	0.627440	0.334770	0.238400
N131	N13	0.878850	0.617180	0.497340
N141	N14	0.163580	0.708700	0.831670
N151	N15	0.238400	0.627440	0.334770
N161	N16	0.497340	0.878850	0.617180
N171	N17	0.831670	0.163580	0.708700
N181	N18	0.334770	0.238400	0.627440
O11	O1	0.412280	0.458620	0.007000
O21	O2	0.313410	0.442460	0.979290
O31	O3	0.089020	0.073870	0.567090
O41	O4	0.059920	0.989720	0.588420
O51	O5	0.460740	0.026100	0.917750
O61	O6	0.441380	0.057820	0.002920
O71	O7	0.473090	0.562580	0.968890
O81	O8	0.382850	0.560990	0.976510
O91	O9	0.533100	0.955360	0.869950
O101	O10	0.497580	0.937760	0.771630
O111	O11	0.092760	0.540270	0.560480
O121	O12	0.106560	0.466680	0.595160
O131	O13	0.335400	0.584510	0.073310
O141	O14	0.007000	0.412280	0.458620
O151	O15	0.979290	0.313410	0.442460
O161	O16	0.567090	0.089020	0.073870
O171	O17	0.588420	0.059920	0.989720
O181	O18	0.917750	0.460740	0.026100
O191	O19	0.002920	0.441380	0.057820
O201	O20	0.968890	0.473090	0.562580
O211	O21	0.976510	0.382850	0.560990
O221	O22	0.869950	0.533100	0.955360
O231	O23	0.771630	0.497580	0.937760
O241	O24	0.560480	0.092760	0.540270
O251	O25	0.595160	0.106560	0.466680
O261	O26	0.073310	0.335400	0.584510
O271	O27	0.458620	0.007000	0.412280
O281	O28	0.442460	0.979290	0.313410
O291	O29	0.073870	0.567090	0.089020
O301	O30	0.989720	0.588420	0.059920
O311	O31	0.026100	0.917750	0.460740
O321	O32	0.057820	0.002920	0.441380
O331	O33	0.562580	0.968890	0.473090
O341	O34	0.560990	0.976510	0.382850
O351	O35	0.955360	0.869950	0.533100
O361	O36	0.937760	0.771630	0.497580
O371	O37	0.540270	0.560480	0.092760
O381	O38	0.466680	0.595160	0.106560
O391	O39	0.584510	0.073310	0.335400
O401	O40	0.587720	0.541380	0.993000
O411	O41	0.686590	0.557540	0.020710
O421	O42	0.910980	0.926130	0.432910
O431	O43	0.940080	0.010280	0.411580
O441	O44	0.539260	0.973900	0.082250
O451	O45	0.558620	0.942180	0.997080
O461	O46	0.526910	0.437420	0.031110
O471	O47	0.617150	0.439010	0.023490
O481	O48	0.466900	0.044640	0.130050
O491	O49	0.502420	0.062240	0.228370
O501	O50	0.907240	0.459730	0.439520
O511	O51	0.893440	0.533320	0.404840
O521	O52	0.664600	0.415490	0.926690
O531	O53	0.993000	0.587720	0.541380
O541	O54	0.020710	0.686590	0.557540
O551	O55	0.432910	0.910980	0.926130
O561	O56	0.411580	0.940080	0.010280
O571	O57	0.082250	0.539260	0.973900
O581	O58	0.997080	0.558620	0.942180
O591	O59	0.031110	0.526910	0.437420
O601	O60	0.023490	0.617150	0.439010
O611	O61	0.130050	0.466900	0.044640
O621	O62	0.228370	0.502420	0.062240
O631	O63	0.439520	0.907240	0.459730
O641	O64	0.404840	0.893440	0.533320
O651	O65	0.926690	0.664600	0.415490
O661	O66	0.541380	0.993000	0.587720
O671	O67	0.557540	0.020710	0.686590
O681	O68	0.926130	0.432910	0.910980
O691	O69	0.010280	0.411580	0.940080
O701	O70	0.973900	0.082250	0.539260
O711	O71	0.942180	0.997080	0.558620
O721	O72	0.437420	0.031110	0.526910
O731	O73	0.439010	0.023490	0.617150
O741	O74	0.044640	0.130050	0.466900
O751	O75	0.062240	0.228370	0.502420
O761	O76	0.459730	0.439520	0.907240
O771	O77	0.533320	0.404840	0.893440
O781	O78	0.415490	0.926690	0.664600
H1871	H187	0.803900	0.537400	0.023500
H1881	H188	0.788100	0.567600	0.076000
H1891	H189	0.871200	0.629300	0.032000
H1901	H190	0.810200	0.641100	0.034700
H1911	H191	0.868700	0.663600	0.097100
H1921	H192	0.899200	0.602700	0.138300
H1931	H193	0.855200	0.534100	0.124600
H1941	H194	0.895300	0.545600	0.083500
C2651	C265	0.844650	0.631440	0.055810
C2661	C266	0.871860	0.562260	0.105850
N191	N19	0.819370	0.569070	0.061470
H1951	H195	0.023500	0.803900	0.537400
H1961	H196	0.076000	0.788100	0.567600
H1971	H197	0.032000	0.871200	0.629300
H1981	H198	0.034700	0.810200	0.641100
H1991	H199	0.097100	0.868700	0.663600
H2001	H200	0.138300	0.899200	0.602700
H2011	H201	0.124600	0.855200	0.534100
H2021	H202	0.083500	0.895300	0.545600
C2671	C267	0.055810	0.844650	0.631440
C2681	C268	0.105850	0.871860	0.562260
N201	N20	0.061470	0.819370	0.569070
H2031	H203	0.537400	0.023500	0.803900
H2041	H204	0.567600	0.076000	0.788100
H2051	H205	0.629300	0.032000	0.871200
H2061	H206	0.641100	0.034700	0.810200
H2071	H207	0.663600	0.097100	0.868700
H2081	H208	0.602700	0.138300	0.899200
H2091	H209	0.534100	0.124600	0.855200
H2101	H210	0.545600	0.083500	0.895300
C2691	C269	0.631440	0.055810	0.844650
C2701	C270	0.562260	0.105850	0.871860
N211	N21	0.569070	0.061470	0.819370
H2111	H211	0.196100	0.462600	0.976500
H2121	H212	0.211900	0.432400	0.924000
H2131	H213	0.128800	0.370700	0.968000
H2141	H214	0.189800	0.358900	0.965300
H2151	H215	0.131300	0.336400	0.902900
H2161	H216	0.100800	0.397300	0.861700
H2171	H217	0.144800	0.465900	0.875400
H2181	H218	0.104700	0.454400	0.916500
C2711	C271	0.155350	0.368560	0.944190
C2721	C272	0.128140	0.437740	0.894150
N221	N22	0.180630	0.430930	0.938530
H2191	H219	0.976500	0.196100	0.462600
H2201	H220	0.924000	0.211900	0.432400
H2211	H221	0.968000	0.128800	0.370700
H2221	H222	0.965300	0.189800	0.358900
H2231	H223	0.902900	0.131300	0.336400
H2241	H224	0.861700	0.100800	0.397300
H2251	H225	0.875400	0.144800	0.465900
H2261	H226	0.916500	0.104700	0.454400
C2731	C273	0.944190	0.155350	0.368560
C2741	C274	0.894150	0.128140	0.437740
N231	N23	0.938530	0.180630	0.430930
H2271	H227	0.462600	0.976500	0.196100
H2281	H228	0.432400	0.924000	0.211900
H2291	H229	0.370700	0.968000	0.128800
H2301	H230	0.358900	0.965300	0.189800
H2311	H231	0.336400	0.902900	0.131300
H2321	H232	0.397300	0.861700	0.100800
H2331	H233	0.465900	0.875400	0.144800
H2341	H234	0.454400	0.916500	0.104700
C2751	C275	0.368560	0.944190	0.155350
C2761	C276	0.437740	0.894150	0.128140
N241	N24	0.430930	0.938530	0.180630
