data_VEGMOK02_charged_PM
_symmetry_space_group_name_H-M	'P1'
_cell_length_a	9.845500
_cell_length_b	17.419700
_cell_length_c	18.190800
_cell_angle_alpha	92.393200
_cell_angle_beta	90.000000
_cell_angle_gamma	106.415000
_symmetry_Int_Tables_number 1

loop_
_symmetry_equiv_pos_as_xyz
'x,y,z'

loop_
_atom_site_label
_atom_site_type_symbol
_atom_site_fract_x
_atom_site_fract_y
_atom_site_fract_z
Zn11	Zn1	0.148480	0.693340	0.003520
Zn21	Zn2	0.455140	0.306660	0.496480
Zn31	Zn3	0.851520	0.306660	0.996480
Zn41	Zn4	0.544860	0.693340	0.503520
Zn51	Zn5	0.000000	0.500000	0.000000
Zn61	Zn6	0.500000	0.500000	0.500000
H11	H1	0.586900	0.930600	0.085300
H21	H2	0.300400	0.935600	0.931300
H31	H3	0.529000	0.568000	0.891600
H41	H4	0.317700	0.506200	0.078900
H51	H5	0.991300	0.733000	0.224100
H61	H6	0.868100	0.727800	0.333400
H71	H7	0.633300	0.506000	0.275200
H81	H8	0.752800	0.512200	0.165100
H91	H9	0.656300	0.069400	0.414700
H101	H10	0.364800	0.064400	0.568700
H111	H11	0.961000	0.432000	0.608400
H121	H12	0.811500	0.493800	0.421100
H131	H13	0.258300	0.267000	0.275900
H141	H14	0.140300	0.272200	0.166600
H151	H15	0.127300	0.494000	0.224800
H161	H16	0.240600	0.487800	0.334900
H171	H17	0.413100	0.069400	0.914700
H181	H18	0.699600	0.064400	0.068700
H191	H19	0.471000	0.432000	0.108400
H201	H20	0.682300	0.493800	0.921100
H211	H21	0.008700	0.267000	0.775900
H221	H22	0.131900	0.272200	0.666600
H231	H23	0.366700	0.494000	0.724800
H241	H24	0.247200	0.487800	0.834900
H251	H25	0.343700	0.930600	0.585300
H261	H26	0.635200	0.935600	0.431300
H271	H27	0.039000	0.568000	0.391600
H281	H28	0.188500	0.506200	0.578900
H291	H29	0.741700	0.733000	0.724100
H301	H30	0.859700	0.727800	0.833400
H311	H31	0.872700	0.506000	0.775200
H321	H32	0.759400	0.512200	0.665100
C11	C1	0.358350	0.831900	0.021330
C21	C2	0.432180	0.919160	0.009870
C31	C3	0.551510	0.958220	0.050890
C41	C4	0.380940	0.961280	0.959080
C51	C5	0.312260	0.593720	0.963430
C61	C6	0.407790	0.544380	0.982340
C71	C7	0.517280	0.540760	0.935040
C81	C8	0.390700	0.503800	0.047200
C91	C9	0.954870	0.628740	0.110050
C101	C10	0.881270	0.623940	0.183240
C111	C11	0.917840	0.687680	0.233940
C121	C12	0.844870	0.684340	0.299780
C131	C13	0.737670	0.616340	0.315380
C141	C14	0.704310	0.552020	0.264780
C151	C15	0.775810	0.555620	0.198770
C161	C16	0.656780	0.611760	0.385710
C171	C17	0.526450	0.168100	0.478670
C181	C18	0.513020	0.080840	0.490130
C191	C19	0.593290	0.041780	0.449110
C201	C20	0.419660	0.038720	0.540920
C211	C21	0.718540	0.406280	0.536570
C221	C22	0.863410	0.455620	0.517660
C231	C23	0.976520	0.459240	0.564960
C241	C24	0.886900	0.496200	0.452800
C251	C25	0.326130	0.371260	0.389950
C261	C26	0.257330	0.376060	0.316760
C271	C27	0.230160	0.312320	0.266060
C281	C28	0.160530	0.315660	0.200220
C291	C29	0.121330	0.383660	0.184620
C301	C30	0.152290	0.447980	0.235220
C311	C31	0.220190	0.444380	0.301230
C321	C32	0.045020	0.388240	0.114290
C331	C33	0.641650	0.168100	0.978670
C341	C34	0.567820	0.080840	0.990130
C351	C35	0.448490	0.041780	0.949110
C361	C36	0.619060	0.038720	0.040920
C371	C37	0.687740	0.406280	0.036570
C381	C38	0.592210	0.455620	0.017660
C391	C39	0.482720	0.459240	0.064960
C401	C40	0.609300	0.496200	0.952800
C411	C41	0.045130	0.371260	0.889950
C421	C42	0.118730	0.376060	0.816760
C431	C43	0.082160	0.312320	0.766060
C441	C44	0.155130	0.315660	0.700220
C451	C45	0.262330	0.383660	0.684620
C461	C46	0.295690	0.447980	0.735220
C471	C47	0.224190	0.444380	0.801230
C481	C48	0.343220	0.388240	0.614290
C491	C49	0.473550	0.831900	0.521330
C501	C50	0.486980	0.919160	0.509870
C511	C51	0.406710	0.958220	0.550890
C521	C52	0.580340	0.961280	0.459080
C531	C53	0.281460	0.593720	0.463430
C541	C54	0.136590	0.544380	0.482340
C551	C55	0.023480	0.540760	0.435040
C561	C56	0.113100	0.503800	0.547200
C571	C57	0.673870	0.628740	0.610050
C581	C58	0.742670	0.623940	0.683240
C591	C59	0.769840	0.687680	0.733940
C601	C60	0.839470	0.684340	0.799780
C611	C61	0.878670	0.616340	0.815380
C621	C62	0.847710	0.552020	0.764780
C631	C63	0.779810	0.555620	0.698770
C641	C64	0.954980	0.611760	0.885710
O11	O1	0.253960	0.799320	0.977050
O21	O2	0.395640	0.796280	0.071120
O31	O3	0.209950	0.594500	0.008570
O41	O4	0.335390	0.634380	0.908150
O51	O5	0.054940	0.690880	0.099400
O61	O6	0.090430	0.428660	0.935980
O71	O7	0.664670	0.677540	0.419970
O81	O8	0.588640	0.543480	0.404250
O91	O9	0.454640	0.200680	0.522950
O101	O10	0.599360	0.203720	0.428880
O111	O11	0.615450	0.405500	0.491430
O121	O12	0.701010	0.365620	0.591850
O131	O13	0.364060	0.309120	0.400600
O141	O14	0.661770	0.571340	0.564020
O151	O15	0.987130	0.322460	0.080030
O161	O16	0.045160	0.456520	0.095750
O171	O17	0.746040	0.200680	0.022950
O181	O18	0.604360	0.203720	0.928880
O191	O19	0.790050	0.405500	0.991430
O201	O20	0.664610	0.365620	0.091850
O211	O21	0.945060	0.309120	0.900600
O221	O22	0.909570	0.571340	0.064020
O231	O23	0.335330	0.322460	0.580030
O241	O24	0.411360	0.456520	0.595750
O251	O25	0.545360	0.799320	0.477050
O261	O26	0.400640	0.796280	0.571120
O271	O27	0.384550	0.594500	0.508570
O281	O28	0.298990	0.634380	0.408150
O291	O29	0.635940	0.690880	0.599400
O301	O30	0.338230	0.428660	0.435980
O311	O31	0.012870	0.677540	0.919970
O321	O32	0.954840	0.543480	0.904250
H331	H33	0.298800	0.715800	0.838300
H341	H34	0.426400	0.781200	0.830800
H351	H35	0.433700	0.748800	0.707000
H361	H36	0.454200	0.682200	0.757500
H371	H37	0.204400	0.678200	0.682300
H381	H38	0.298200	0.620000	0.667300
H391	H39	0.211200	0.615000	0.740000
H401	H40	0.178800	0.779800	0.761300
H411	H41	0.221600	0.822800	0.838800
H421	H42	0.373900	0.867200	0.709300
H431	H43	0.284800	0.917000	0.750400
H441	H44	0.423700	0.908400	0.786800
C651	C65	0.386900	0.709800	0.742000
C661	C66	0.264210	0.650420	0.704500
C671	C67	0.258650	0.807700	0.792800
C681	C68	0.342880	0.881760	0.756500
N11	N1	0.346430	0.752660	0.807350
H451	H45	0.583000	0.284200	0.661700
H461	H46	0.645200	0.218800	0.669200
H471	H47	0.684900	0.251200	0.793000
H481	H48	0.772000	0.317800	0.742500
H491	H49	0.526200	0.321800	0.817700
H501	H50	0.678200	0.380000	0.832700
H511	H51	0.596200	0.385000	0.760000
H521	H52	0.399000	0.220200	0.738700
H531	H53	0.398800	0.177200	0.661200
H541	H54	0.506700	0.132800	0.790700
H551	H55	0.367800	0.083000	0.749600
H561	H56	0.515300	0.091600	0.713200
C691	C69	0.677100	0.290200	0.758000
C701	C70	0.613790	0.349580	0.795500
C711	C71	0.450950	0.192300	0.707200
C721	C72	0.461120	0.118240	0.743500
N21	N2	0.593770	0.247340	0.692650
H571	H57	0.701200	0.284200	0.161700
H581	H58	0.573600	0.218800	0.169200
H591	H59	0.566300	0.251200	0.293000
H601	H60	0.545800	0.317800	0.242500
H611	H61	0.795600	0.321800	0.317700
H621	H62	0.701800	0.380000	0.332700
H631	H63	0.788800	0.385000	0.260000
H641	H64	0.821200	0.220200	0.238700
H651	H65	0.778400	0.177200	0.161200
H661	H66	0.626100	0.132800	0.290700
H671	H67	0.715200	0.083000	0.249600
H681	H68	0.576300	0.091600	0.213200
C731	C73	0.613100	0.290200	0.258000
C741	C74	0.735790	0.349580	0.295500
C751	C75	0.741350	0.192300	0.207200
C761	C76	0.657120	0.118240	0.243500
N31	N3	0.653570	0.247340	0.192650
H691	H69	0.417000	0.715800	0.338300
H701	H70	0.354800	0.781200	0.330800
H711	H71	0.315100	0.748800	0.207000
H721	H72	0.228000	0.682200	0.257500
H731	H73	0.473800	0.678200	0.182300
H741	H74	0.321800	0.620000	0.167300
H751	H75	0.403800	0.615000	0.240000
H761	H76	0.601000	0.779800	0.261300
H771	H77	0.601200	0.822800	0.338800
H781	H78	0.493300	0.867200	0.209300
H791	H79	0.632200	0.917000	0.250400
H801	H80	0.484700	0.908400	0.286800
C771	C77	0.322900	0.709800	0.242000
C781	C78	0.386210	0.650420	0.204500
C791	C79	0.549050	0.807700	0.292800
C801	C80	0.538880	0.881760	0.256500
N41	N4	0.406230	0.752660	0.307350
