data_VEGMOK03_charged_PM
_symmetry_space_group_name_H-M	'P1'
_cell_length_a	9.879100
_cell_length_b	17.493800
_cell_length_c	18.181400
_cell_angle_alpha	92.254300
_cell_angle_beta	90.000000
_cell_angle_gamma	106.401000
_symmetry_Int_Tables_number 1

loop_
_symmetry_equiv_pos_as_xyz
'x,y,z'

loop_
_atom_site_label
_atom_site_type_symbol
_atom_site_fract_x
_atom_site_fract_y
_atom_site_fract_z
Zn11	Zn1	0.149990	0.693540	0.003470
Zn21	Zn2	0.456450	0.306460	0.496530
Zn31	Zn3	0.850010	0.306460	0.996530
Zn41	Zn4	0.543550	0.693540	0.503470
Zn51	Zn5	0.000000	0.500000	0.000000
Zn61	Zn6	0.500000	0.500000	0.500000
H11	H1	0.587700	0.931800	0.085200
H21	H2	0.299100	0.935800	0.933500
H31	H3	0.527400	0.567200	0.891300
H41	H4	0.321300	0.507800	0.080300
H51	H5	0.015300	0.266600	0.777500
H61	H6	0.866200	0.728600	0.831000
H71	H7	0.871600	0.506600	0.775400
H81	H8	0.246700	0.487600	0.833800
H91	H9	0.655900	0.068200	0.414800
H101	H10	0.363300	0.064200	0.566500
H111	H11	0.960200	0.432800	0.608700
H121	H12	0.813500	0.492200	0.419700
H131	H13	0.748700	0.733400	0.722500
H141	H14	0.137600	0.271400	0.669000
H151	H15	0.365000	0.493400	0.724600
H161	H16	0.759100	0.512400	0.666200
H171	H17	0.412300	0.068200	0.914800
H181	H18	0.700900	0.064200	0.066500
H191	H19	0.472600	0.432800	0.108700
H201	H20	0.678700	0.492200	0.919700
H211	H21	0.984700	0.733400	0.222500
H221	H22	0.133800	0.271400	0.169000
H231	H23	0.128400	0.493400	0.224600
H241	H24	0.753300	0.512400	0.166200
H251	H25	0.344100	0.931800	0.585200
H261	H26	0.636700	0.935800	0.433500
H271	H27	0.039800	0.567200	0.391300
H281	H28	0.186500	0.507800	0.580300
H291	H29	0.251300	0.266600	0.277500
H301	H30	0.862400	0.728600	0.331000
H311	H31	0.635000	0.506600	0.275400
H321	H32	0.240900	0.487600	0.333800
C11	C1	0.356800	0.833200	0.023600
C21	C2	0.430970	0.919740	0.011120
C31	C3	0.551680	0.958960	0.050700
C41	C4	0.380300	0.961400	0.960600
C51	C5	0.313820	0.594640	0.964270
C61	C6	0.407860	0.544520	0.982960
C71	C7	0.516130	0.540060	0.934900
C81	C8	0.392540	0.504680	0.047960
C91	C9	0.046120	0.372040	0.890120
C101	C10	0.120480	0.375960	0.817850
C111	C11	0.087190	0.312180	0.767390
C121	C12	0.844470	0.684740	0.797990
C131	C13	0.881930	0.616660	0.814750
C141	C14	0.848230	0.552860	0.764700
C151	C15	0.224390	0.443780	0.800790
C161	C16	0.957620	0.612440	0.885390
C171	C17	0.523600	0.166800	0.476400
C181	C18	0.511230	0.080260	0.488880
C191	C19	0.592720	0.041040	0.449300
C201	C20	0.418900	0.038600	0.539400
C211	C21	0.719180	0.405360	0.535730
C221	C22	0.863340	0.455480	0.517040
C231	C23	0.976070	0.459940	0.565100
C241	C24	0.887860	0.495320	0.452040
C251	C25	0.674080	0.627960	0.609880
C261	C26	0.744520	0.624040	0.682150
C271	C27	0.775010	0.687820	0.732610
C281	C28	0.159730	0.315260	0.702010
C291	C29	0.265270	0.383340	0.685250
C301	C30	0.295370	0.447140	0.735300
C311	C31	0.780610	0.556220	0.699210
C321	C32	0.345180	0.387560	0.614610
C331	C33	0.643200	0.166800	0.976400
C341	C34	0.569030	0.080260	0.988880
C351	C35	0.448320	0.041040	0.949300
C361	C36	0.619700	0.038600	0.039400
C371	C37	0.686180	0.405360	0.035730
C381	C38	0.592140	0.455480	0.017040
C391	C39	0.483870	0.459940	0.065100
C401	C40	0.607460	0.495320	0.952040
C411	C41	0.953880	0.627960	0.109880
C421	C42	0.879520	0.624040	0.182150
C431	C43	0.912810	0.687820	0.232610
C441	C44	0.155530	0.315260	0.202010
C451	C45	0.118070	0.383340	0.185250
C461	C46	0.151770	0.447140	0.235300
C471	C47	0.775610	0.556220	0.199210
C481	C48	0.042380	0.387560	0.114610
C491	C49	0.476400	0.833200	0.523600
C501	C50	0.488770	0.919740	0.511120
C511	C51	0.407280	0.958960	0.550700
C521	C52	0.581100	0.961400	0.460600
C531	C53	0.280820	0.594640	0.464270
C541	C54	0.136660	0.544520	0.482960
C551	C55	0.023930	0.540060	0.434900
C561	C56	0.112140	0.504680	0.547960
C571	C57	0.325920	0.372040	0.390120
C581	C58	0.255480	0.375960	0.317850
C591	C59	0.224990	0.312180	0.267390
C601	C60	0.840270	0.684740	0.297990
C611	C61	0.734730	0.616660	0.314750
C621	C62	0.704630	0.552860	0.264700
C631	C63	0.219390	0.443780	0.300790
C641	C64	0.654820	0.612440	0.385390
O11	O1	0.254410	0.800020	0.979420
O21	O2	0.393390	0.798780	0.073860
O31	O3	0.212020	0.594840	0.009140
O41	O4	0.338130	0.635860	0.909660
O51	O5	0.947340	0.309880	0.901610
O61	O6	0.089580	0.429560	0.935390
O71	O7	0.017960	0.677920	0.918480
O81	O8	0.954580	0.544560	0.904730
O91	O9	0.454390	0.199980	0.520580
O101	O10	0.594610	0.201220	0.426140
O111	O11	0.617180	0.405160	0.490860
O121	O12	0.702270	0.364140	0.590340
O131	O13	0.637460	0.690120	0.598390
O141	O14	0.660020	0.570440	0.564610
O151	O15	0.340040	0.322080	0.581520
O161	O16	0.410020	0.455440	0.595270
O171	O17	0.745590	0.199980	0.020580
O181	O18	0.606610	0.201220	0.926140
O191	O19	0.787980	0.405160	0.990860
O201	O20	0.661870	0.364140	0.090340
O211	O21	0.052660	0.690120	0.098390
O221	O22	0.910420	0.570440	0.064610
O231	O23	0.982040	0.322080	0.081520
O241	O24	0.045420	0.455440	0.095270
O251	O25	0.545610	0.800020	0.479420
O261	O26	0.405390	0.798780	0.573860
O271	O27	0.382820	0.594840	0.509140
O281	O28	0.297730	0.635860	0.409660
O291	O29	0.362540	0.309880	0.401610
O301	O30	0.339980	0.429560	0.435390
O311	O31	0.659960	0.677920	0.418480
O321	O32	0.589980	0.544560	0.404730
H331	H33	0.427800	0.782200	0.829800
H341	H34	0.300300	0.717600	0.838500
H351	H35	0.454900	0.684000	0.757000
H361	H36	0.430000	0.748800	0.705900
H371	H37	0.197800	0.675600	0.690400
H381	H38	0.299800	0.626000	0.664300
H391	H39	0.224800	0.610400	0.740500
H401	H40	0.221800	0.822000	0.837500
H411	H41	0.183900	0.780800	0.759000
H421	H42	0.378000	0.868800	0.711200
H431	H43	0.285200	0.916400	0.751600
H441	H44	0.422500	0.908200	0.789600
C651	C65	0.385900	0.710400	0.741800
C661	C66	0.266820	0.650440	0.706200
C671	C67	0.261490	0.808180	0.791800
C681	C68	0.343970	0.881740	0.758100
N11	N1	0.347680	0.753760	0.807000
H451	H45	0.645600	0.217800	0.670200
H461	H46	0.582700	0.282400	0.661500
H471	H47	0.770900	0.316000	0.743000
H481	H48	0.681200	0.251200	0.794100
H491	H49	0.522200	0.324400	0.809600
H501	H50	0.673800	0.374000	0.835700
H511	H51	0.614400	0.389600	0.759500
H521	H52	0.399800	0.178000	0.662500
H531	H53	0.403100	0.219200	0.741000
H541	H54	0.509200	0.131200	0.788800
H551	H55	0.368800	0.083600	0.748400
H561	H56	0.514300	0.091800	0.710400
C691	C69	0.675500	0.289600	0.758200
C701	C70	0.616380	0.349560	0.793800
C711	C71	0.453310	0.191820	0.708200
C721	C72	0.462230	0.118260	0.741900
N21	N2	0.593920	0.246240	0.693000
H571	H57	0.572200	0.217800	0.170200
H581	H58	0.699700	0.282400	0.161500
H591	H59	0.545100	0.316000	0.243000
H601	H60	0.570000	0.251200	0.294100
H611	H61	0.802200	0.324400	0.309600
H621	H62	0.700200	0.374000	0.335700
H631	H63	0.775200	0.389600	0.259500
H641	H64	0.778200	0.178000	0.162500
H651	H65	0.816100	0.219200	0.241000
H661	H66	0.622000	0.131200	0.288800
H671	H67	0.714800	0.083600	0.248400
H681	H68	0.577500	0.091800	0.210400
C731	C73	0.614100	0.289600	0.258200
C741	C74	0.733180	0.349560	0.293800
C751	C75	0.738510	0.191820	0.208200
C761	C76	0.656030	0.118260	0.241900
N31	N3	0.652320	0.246240	0.193000
H691	H69	0.354400	0.782200	0.329800
H701	H70	0.417300	0.717600	0.338500
H711	H71	0.229100	0.684000	0.257000
H721	H72	0.318800	0.748800	0.205900
H731	H73	0.477800	0.675600	0.190400
H741	H74	0.326200	0.626000	0.164300
H751	H75	0.385600	0.610400	0.240500
H761	H76	0.600200	0.822000	0.337500
H771	H77	0.596900	0.780800	0.259000
H781	H78	0.490800	0.868800	0.211200
H791	H79	0.631200	0.916400	0.251600
H801	H80	0.485700	0.908200	0.289600
C771	C77	0.324500	0.710400	0.241800
C781	C78	0.383620	0.650440	0.206200
C791	C79	0.546690	0.808180	0.291800
C801	C80	0.537770	0.881740	0.258100
N41	N4	0.406080	0.753760	0.307000
