data_VEGMOK_charged_PM
_symmetry_space_group_name_H-M	'P1'
_cell_length_a	9.784400
_cell_length_b	17.335300
_cell_length_c	18.215600
_cell_angle_alpha	92.506700
_cell_angle_beta	90.000000
_cell_angle_gamma	106.392000
_symmetry_Int_Tables_number 1

loop_
_symmetry_equiv_pos_as_xyz
'x,y,z'

loop_
_atom_site_label
_atom_site_type_symbol
_atom_site_fract_x
_atom_site_fract_y
_atom_site_fract_z
Zn11	Zn1	0.046750	0.693200	0.003490
Zn21	Zn2	0.353550	0.306800	0.496510
Zn31	Zn3	0.953250	0.306800	0.996510
Zn41	Zn4	0.646450	0.693200	0.503490
Zn51	Zn5	0.000000	0.500000	0.000000
Zn61	Zn6	0.500000	0.500000	0.500000
H11	H1	0.131000	0.933400	0.929000
H21	H2	0.845500	0.931800	0.087600
H31	H3	0.644900	0.271400	0.665100
H41	H4	0.758800	0.265400	0.775200
H51	H5	0.738200	0.488200	0.835000
H61	H6	0.628800	0.495000	0.724200
H71	H7	0.691000	0.506400	0.078400
H81	H8	0.537400	0.567600	0.890900
H91	H9	0.197600	0.066600	0.571000
H101	H10	0.913700	0.068200	0.412400
H111	H11	0.373500	0.728600	0.834900
H121	H12	0.493400	0.734600	0.724800
H131	H13	0.250000	0.511800	0.665000
H141	H14	0.133800	0.505000	0.775800
H151	H15	0.184600	0.493600	0.421600
H161	H16	0.969800	0.432400	0.609100
H171	H17	0.869000	0.066600	0.071000
H181	H18	0.154500	0.068200	0.912400
H191	H19	0.355100	0.728600	0.334900
H201	H20	0.241200	0.734600	0.224800
H211	H21	0.261800	0.511800	0.165000
H221	H22	0.371200	0.505000	0.275800
H231	H23	0.309000	0.493600	0.921600
H241	H24	0.462600	0.432400	0.109100
H251	H25	0.802400	0.933400	0.429000
H261	H26	0.086300	0.931800	0.587600
H271	H27	0.626500	0.271400	0.165100
H281	H28	0.506600	0.265400	0.275200
H291	H29	0.750000	0.488200	0.335000
H301	H30	0.866200	0.495000	0.224200
H311	H31	0.815400	0.506400	0.578400
H321	H32	0.030200	0.567600	0.390900
C11	C1	0.971670	0.831220	0.021370
C21	C2	0.985600	0.918760	0.009560
C31	C3	0.078150	0.960040	0.957480
C41	C4	0.907320	0.958940	0.052430
C51	C5	0.548670	0.388140	0.613490
C61	C6	0.624290	0.383980	0.683790
C71	C7	0.663820	0.314860	0.699190
C81	C8	0.757820	0.375460	0.816930
C91	C9	0.731210	0.311100	0.765270
C101	C10	0.719460	0.444860	0.801050
C111	C11	0.653660	0.448720	0.734810
C121	C12	0.824740	0.370900	0.889650
C131	C13	0.783300	0.593260	0.961950
C141	C14	0.637180	0.543920	0.981820
C151	C15	0.614560	0.503700	0.047090
C161	C16	0.522180	0.540440	0.934450
C171	C17	0.140450	0.168780	0.478630
C181	C18	0.066840	0.081240	0.490440
C191	C19	0.118110	0.039960	0.542520
C201	C20	0.948380	0.041060	0.447570
C211	C21	0.160530	0.611860	0.886510
C221	C22	0.240310	0.616020	0.816210
C231	C23	0.348960	0.685140	0.800810
C241	C24	0.382360	0.624540	0.683070
C251	C25	0.420110	0.688900	0.734730
C261	C26	0.274600	0.555140	0.698950
C271	C27	0.204940	0.551280	0.765190
C281	C28	0.453840	0.629100	0.610350
C291	C29	0.190040	0.406740	0.538050
C301	C30	0.093260	0.456080	0.518180
C311	C31	0.110860	0.496300	0.452910
C321	C32	0.981740	0.459560	0.565550
C331	C33	0.028330	0.168780	0.978630
C341	C34	0.014400	0.081240	0.990440
C351	C35	0.921850	0.039960	0.042520
C361	C36	0.092680	0.041060	0.947570
C371	C37	0.451330	0.611860	0.386510
C381	C38	0.375710	0.616020	0.316210
C391	C39	0.336180	0.685140	0.300810
C401	C40	0.242180	0.624540	0.183070
C411	C41	0.268790	0.688900	0.234730
C421	C42	0.280540	0.555140	0.198950
C431	C43	0.346340	0.551280	0.265190
C441	C44	0.175260	0.629100	0.110350
C451	C45	0.216700	0.406740	0.038050
C461	C46	0.362820	0.456080	0.018180
C471	C47	0.385440	0.496300	0.952910
C481	C48	0.477820	0.459560	0.065550
C491	C49	0.859550	0.831220	0.521370
C501	C50	0.933160	0.918760	0.509560
C511	C51	0.881890	0.960040	0.457480
C521	C52	0.051620	0.958940	0.552430
C531	C53	0.839470	0.388140	0.113490
C541	C54	0.759690	0.383980	0.183790
C551	C55	0.651040	0.314860	0.199190
C561	C56	0.617640	0.375460	0.316930
C571	C57	0.579890	0.311100	0.265270
C581	C58	0.725400	0.444860	0.301050
C591	C59	0.795060	0.448720	0.234810
C601	C60	0.546160	0.370900	0.389650
C611	C61	0.809960	0.593260	0.461950
C621	C62	0.906740	0.543920	0.481820
C631	C63	0.889140	0.503700	0.547090
C641	C64	0.018260	0.540440	0.434450
O11	O1	0.836670	0.428000	0.936310
O21	O2	0.040890	0.798060	0.975490
O31	O3	0.899600	0.796040	0.071920
O41	O4	0.493430	0.322080	0.578060
O51	O5	0.545900	0.457020	0.595360
O61	O6	0.863830	0.307980	0.900100
O71	O7	0.886060	0.594080	0.007960
O81	O8	0.800870	0.632700	0.906350
O91	O9	0.408670	0.572000	0.563690
O101	O10	0.242830	0.201940	0.524510
O111	O11	0.103560	0.203960	0.428080
O121	O12	0.171350	0.677920	0.921940
O131	O13	0.088880	0.542980	0.904640
O141	O14	0.555850	0.692020	0.599900
O151	O15	0.291980	0.405920	0.492040
O161	O16	0.168170	0.367300	0.593650
O171	O17	0.163330	0.572000	0.063690
O181	O18	0.959110	0.201940	0.024510
O191	O19	0.100400	0.203960	0.928080
O201	O20	0.506570	0.677920	0.421940
O211	O21	0.454100	0.542980	0.404640
O221	O22	0.136170	0.692020	0.099900
O231	O23	0.113940	0.405920	0.992040
O241	O24	0.199130	0.367300	0.093650
O251	O25	0.591330	0.428000	0.436310
O261	O26	0.757170	0.798060	0.475490
O271	O27	0.896440	0.796040	0.571920
O281	O28	0.828650	0.322080	0.078060
O291	O29	0.911120	0.457020	0.095360
O301	O30	0.444150	0.307980	0.400100
O311	O31	0.708020	0.594080	0.507960
O321	O32	0.831830	0.632700	0.406350
H331	H33	0.915900	0.713600	0.836700
H341	H34	0.857800	0.781400	0.831300
H351	H35	0.725500	0.683000	0.756200
H361	H36	0.812300	0.752000	0.707500
H371	H37	0.899800	0.613800	0.733500
H381	H38	0.821500	0.624400	0.661100
H391	H39	0.974600	0.680600	0.679700
H401	H40	0.104600	0.820400	0.838900
H411	H41	0.103900	0.776400	0.761700
H421	H42	0.991700	0.908400	0.785200
H431	H43	0.140500	0.915400	0.749800
H441	H44	0.000500	0.866200	0.708200
C651	C65	0.820650	0.711300	0.740780
C661	C66	0.885060	0.652120	0.700050
C671	C67	0.052600	0.805400	0.792720
C681	C68	0.045690	0.880780	0.755580
N11	N1	0.906990	0.751860	0.806850
H451	H45	0.202300	0.286400	0.663300
H461	H46	0.076400	0.218600	0.668700
H471	H47	0.042500	0.317000	0.743800
H481	H48	0.060300	0.248000	0.792500
H491	H49	0.286000	0.386200	0.766500
H501	H50	0.197100	0.375600	0.838900
H511	H51	0.294000	0.319400	0.820300
H521	H52	0.284200	0.179600	0.661100
H531	H53	0.327500	0.223600	0.738300
H541	H54	0.083300	0.091600	0.714800
H551	H55	0.225100	0.084600	0.750200
H561	H56	0.134300	0.133800	0.791800
C691	C69	0.109350	0.288700	0.759220
C701	C70	0.232940	0.347880	0.799950
C711	C71	0.247200	0.194600	0.707280
C721	C72	0.164910	0.119220	0.744420
N21	N2	0.155130	0.248140	0.693150
H571	H57	0.084100	0.286400	0.163300
H581	H58	0.142200	0.218600	0.168700
H591	H59	0.274500	0.317000	0.243800
H601	H60	0.187700	0.248000	0.292500
H611	H61	0.100200	0.386200	0.266500
H621	H62	0.178500	0.375600	0.338900
H631	H63	0.025400	0.319400	0.320300
H641	H64	0.895400	0.179600	0.161100
H651	H65	0.896100	0.223600	0.238300
H661	H66	0.008300	0.091600	0.214800
H671	H67	0.859500	0.084600	0.250200
H681	H68	0.999500	0.133800	0.291800
C731	C73	0.179350	0.288700	0.259220
C741	C74	0.114940	0.347880	0.299950
C751	C75	0.947400	0.194600	0.207280
C761	C76	0.954310	0.119220	0.244420
N31	N3	0.093010	0.248140	0.193150
H691	H69	0.797700	0.713600	0.336700
H701	H70	0.923600	0.781400	0.331300
H711	H71	0.957500	0.683000	0.256200
H721	H72	0.939700	0.752000	0.207500
H731	H73	0.714000	0.613800	0.233500
H741	H74	0.802900	0.624400	0.161100
H751	H75	0.706000	0.680600	0.179700
H761	H76	0.715800	0.820400	0.338900
H771	H77	0.672500	0.776400	0.261700
H781	H78	0.916700	0.908400	0.285200
H791	H79	0.774900	0.915400	0.249800
H801	H80	0.865700	0.866200	0.208200
C771	C77	0.890650	0.711300	0.240780
C781	C78	0.767060	0.652120	0.200050
C791	C79	0.752800	0.805400	0.292720
C801	C80	0.835090	0.880780	0.255580
N41	N4	0.844870	0.751860	0.306850
