data_VEGMOK04_charged_PM
_symmetry_space_group_name_H-M	'P1'
_cell_length_a	9.831700
_cell_length_b	17.395300
_cell_length_c	18.196700
_cell_angle_alpha	92.354900
_cell_angle_beta	90.000000
_cell_angle_gamma	106.415000
_symmetry_Int_Tables_number 1

loop_
_symmetry_equiv_pos_as_xyz
'x,y,z'

loop_
_atom_site_label
_atom_site_type_symbol
_atom_site_fract_x
_atom_site_fract_y
_atom_site_fract_z
Zn11	Zn1	0.545400	0.693340	0.003460
Zn21	Zn2	0.852060	0.306660	0.496540
Zn31	Zn3	0.454600	0.306660	0.996540
Zn41	Zn4	0.147940	0.693340	0.503460
Zn51	Zn5	0.500000	0.500000	0.000000
Zn61	Zn6	0.000000	0.500000	0.500000
H11	H1	0.633700	0.505200	0.775300
H21	H2	0.751700	0.512200	0.665200
H31	H3	0.990500	0.733400	0.724200
H41	H4	0.868500	0.728000	0.833100
H51	H5	0.038200	0.567600	0.891500
H61	H6	0.188200	0.506400	0.079000
H71	H7	0.635500	0.935800	0.931100
H81	H8	0.344000	0.930600	0.085100
H91	H9	0.128500	0.494800	0.724700
H101	H10	0.239500	0.487800	0.834800
H111	H11	0.257100	0.266600	0.775800
H121	H12	0.140500	0.272000	0.666900
H131	H13	0.470600	0.432400	0.608500
H141	H14	0.681800	0.493600	0.421000
H151	H15	0.699700	0.064200	0.568900
H161	H16	0.413400	0.069400	0.414900
H171	H17	0.366300	0.494800	0.224700
H181	H18	0.248300	0.487800	0.334800
H191	H19	0.009500	0.266600	0.275800
H201	H20	0.131500	0.272000	0.166900
H211	H21	0.961800	0.432400	0.108500
H221	H22	0.811800	0.493600	0.921000
H231	H23	0.364500	0.064200	0.068900
H241	H24	0.656000	0.069400	0.914900
H251	H25	0.871500	0.505200	0.275300
H261	H26	0.760500	0.512200	0.165200
H271	H27	0.742900	0.733400	0.224200
H281	H28	0.859500	0.728000	0.333100
H291	H29	0.529400	0.567600	0.391500
H301	H30	0.318200	0.506400	0.579000
H311	H31	0.300300	0.935800	0.431100
H321	H32	0.586600	0.930600	0.585100
C11	C1	0.657970	0.612140	0.885900
C21	C2	0.738100	0.616200	0.815190
C31	C3	0.704490	0.551580	0.764770
C41	C4	0.775320	0.555640	0.698970
C51	C5	0.881510	0.624020	0.682850
C61	C6	0.917470	0.687940	0.734020
C71	C7	0.845210	0.684420	0.799500
C81	C8	0.954080	0.628160	0.610190
C91	C9	0.282110	0.594420	0.963230
C101	C10	0.136780	0.544360	0.981990
C111	C11	0.023030	0.540460	0.935010
C121	C12	0.112810	0.503820	0.047210
C131	C13	0.473850	0.832100	0.021110
C141	C14	0.487160	0.918920	0.010090
C151	C15	0.580630	0.961460	0.959050
C161	C16	0.407150	0.958300	0.050650
C171	C17	0.045830	0.387860	0.614100
C181	C18	0.121900	0.383800	0.684810
C191	C19	0.152910	0.448420	0.735230
C201	C20	0.219680	0.444360	0.801030
C211	C21	0.257490	0.375980	0.817150
C221	C22	0.229530	0.312060	0.765980
C231	C23	0.160790	0.315580	0.700500
C241	C24	0.325920	0.371840	0.889810
C251	C25	0.687690	0.405580	0.536770
C261	C26	0.592420	0.455640	0.518010
C271	C27	0.482570	0.459540	0.564990
C281	C28	0.608990	0.496180	0.452790
C291	C29	0.641750	0.167900	0.478890
C301	C30	0.568240	0.081080	0.489910
C311	C31	0.619170	0.038540	0.540950
C321	C32	0.448850	0.041700	0.449350
C331	C33	0.342030	0.387860	0.114100
C341	C34	0.261900	0.383800	0.184810
C351	C35	0.295510	0.448420	0.235230
C361	C36	0.224680	0.444360	0.301030
C371	C37	0.118490	0.375980	0.317150
C381	C38	0.082530	0.312060	0.265980
C391	C39	0.154790	0.315580	0.200500
C401	C40	0.045920	0.371840	0.389810
C411	C41	0.717890	0.405580	0.036770
C421	C42	0.863220	0.455640	0.018010
C431	C43	0.976970	0.459540	0.064990
C441	C44	0.887190	0.496180	0.952790
C451	C45	0.526150	0.167900	0.978890
C461	C46	0.512840	0.081080	0.989910
C471	C47	0.419370	0.038540	0.040950
C481	C48	0.592850	0.041700	0.949350
C491	C49	0.954170	0.612140	0.385900
C501	C50	0.878100	0.616200	0.315190
C511	C51	0.847090	0.551580	0.264770
C521	C52	0.780320	0.555640	0.198970
C531	C53	0.742510	0.624020	0.182850
C541	C54	0.770470	0.687940	0.234020
C551	C55	0.839210	0.684420	0.299500
C561	C56	0.674080	0.628160	0.110190
C571	C57	0.312310	0.594420	0.463230
C581	C58	0.407580	0.544360	0.481990
C591	C59	0.517430	0.540460	0.435010
C601	C60	0.391010	0.503820	0.547210
C611	C61	0.358250	0.832100	0.521110
C621	C62	0.431760	0.918920	0.510090
C631	C63	0.380830	0.961460	0.459050
C641	C64	0.551150	0.958300	0.550650
O11	O1	0.665250	0.677700	0.920110
O21	O2	0.588880	0.543360	0.904590
O31	O3	0.054490	0.690980	0.599230
O41	O4	0.909320	0.571240	0.563980
O51	O5	0.299670	0.634540	0.907770
O61	O6	0.384290	0.594580	0.008310
O71	O7	0.546100	0.799600	0.977240
O81	O8	0.399860	0.796120	0.070610
O91	O9	0.987550	0.322300	0.579890
O101	O10	0.045520	0.456640	0.595410
O111	O11	0.363510	0.309020	0.900770
O121	O12	0.338080	0.428760	0.936020
O131	O13	0.665130	0.365460	0.592230
O141	O14	0.789710	0.405420	0.491690
O151	O15	0.746500	0.200400	0.522760
O161	O16	0.603740	0.203880	0.429390
O171	O17	0.334750	0.322300	0.079890
O181	O18	0.411120	0.456640	0.095410
O191	O19	0.945510	0.309020	0.400770
O201	O20	0.090680	0.428760	0.436020
O211	O21	0.700330	0.365460	0.092230
O221	O22	0.615710	0.405420	0.991690
O231	O23	0.453900	0.200400	0.022760
O241	O24	0.600140	0.203880	0.929390
O251	O25	0.012450	0.677700	0.420110
O261	O26	0.954480	0.543360	0.404590
O271	O27	0.636490	0.690980	0.099230
O281	O28	0.661920	0.571240	0.063980
O291	O29	0.334870	0.634540	0.407770
O301	O30	0.210290	0.594580	0.508310
O311	O31	0.253500	0.799600	0.477240
O321	O32	0.396260	0.796120	0.570610
H331	H33	0.416500	0.716000	0.838800
H341	H34	0.355900	0.782200	0.830700
H351	H35	0.602500	0.822400	0.839000
H361	H36	0.601500	0.778800	0.761700
H371	H37	0.634400	0.914800	0.746900
H381	H38	0.488800	0.866400	0.710800
H391	H39	0.492500	0.910400	0.788000
H401	H40	0.317200	0.750200	0.707100
H411	H41	0.229000	0.683000	0.757100
H421	H42	0.329700	0.626800	0.662600
H431	H43	0.481300	0.678400	0.688600
H441	H44	0.391900	0.611200	0.738000
C651	C65	0.550170	0.807140	0.793000
C661	C66	0.540610	0.881420	0.756400
C671	C67	0.324330	0.710660	0.742000
C681	C68	0.387370	0.651540	0.704500
N11	N1	0.406840	0.753080	0.807620
H451	H45	0.700500	0.284000	0.661200
H461	H46	0.573700	0.217800	0.669300
H471	H47	0.780100	0.177600	0.661000
H481	H48	0.822700	0.221200	0.738300
H491	H49	0.719600	0.085200	0.753100
H501	H50	0.622400	0.133600	0.789200
H511	H51	0.582100	0.089600	0.712000
H521	H52	0.567000	0.249800	0.792900
H531	H53	0.546000	0.317000	0.742900
H541	H54	0.702900	0.373200	0.837400
H551	H55	0.802900	0.321600	0.811400
H561	H56	0.780700	0.388800	0.762000
C691	C69	0.743030	0.192860	0.707000
C701	C70	0.659190	0.118580	0.743600
C711	C71	0.613670	0.289340	0.758000
C721	C72	0.735830	0.348460	0.795500
N21	N2	0.653760	0.246920	0.692380
H571	H57	0.583500	0.284000	0.161200
H581	H58	0.644100	0.217800	0.169300
H591	H59	0.397500	0.177600	0.161000
H601	H60	0.398500	0.221200	0.238300
H611	H61	0.365600	0.085200	0.253100
H621	H62	0.511200	0.133600	0.289200
H631	H63	0.507500	0.089600	0.212000
H641	H64	0.682800	0.249800	0.292900
H651	H65	0.771000	0.317000	0.242900
H661	H66	0.670300	0.373200	0.337400
H671	H67	0.518700	0.321600	0.311400
H681	H68	0.608100	0.388800	0.262000
C731	C73	0.449830	0.192860	0.207000
C741	C74	0.459390	0.118580	0.243600
C751	C75	0.675670	0.289340	0.258000
C761	C76	0.612630	0.348460	0.295500
N31	N3	0.593160	0.246920	0.192380
H691	H69	0.299500	0.716000	0.338800
H701	H70	0.426300	0.782200	0.330700
H711	H71	0.219900	0.822400	0.339000
H721	H72	0.177300	0.778800	0.261700
H731	H73	0.280400	0.914800	0.246900
H741	H74	0.377600	0.866400	0.210800
H751	H75	0.417900	0.910400	0.288000
H761	H76	0.433000	0.750200	0.207100
H771	H77	0.454000	0.683000	0.257100
H781	H78	0.297100	0.626800	0.162600
H791	H79	0.197100	0.678400	0.188600
H801	H80	0.219300	0.611200	0.238000
C771	C77	0.256970	0.807140	0.293000
C781	C78	0.340810	0.881420	0.256400
C791	C79	0.386330	0.710660	0.242000
C801	C80	0.264170	0.651540	0.204500
N41	N4	0.346240	0.753080	0.307620
