data_VEHKOK_charged_PM
_symmetry_space_group_name_H-M	'P1'
_cell_length_a	17.398000
_cell_length_b	17.441000
_cell_length_c	35.188000
_cell_angle_alpha	90.000000
_cell_angle_beta	90.000000
_cell_angle_gamma	90.000000
_symmetry_Int_Tables_number 1

loop_
_symmetry_equiv_pos_as_xyz
'x,y,z'

loop_
_atom_site_label
_atom_site_type_symbol
_atom_site_fract_x
_atom_site_fract_y
_atom_site_fract_z
Zn11	Zn1	0.418860	0.200510	0.796460
Zn21	Zn2	0.820940	0.197390	0.913270
Zn31	Zn3	0.987250	0.185320	0.871340
Zn41	Zn4	0.973590	0.134890	0.963920
Zn51	Zn5	0.918860	0.299490	0.203540
Zn61	Zn6	0.320940	0.302610	0.086730
Zn71	Zn7	0.487250	0.314680	0.128660
Zn81	Zn8	0.473590	0.365110	0.036080
Zn91	Zn9	0.581140	0.799490	0.296460
Zn101	Zn10	0.179060	0.802610	0.413270
Zn111	Zn11	0.012750	0.814680	0.371340
Zn121	Zn12	0.026410	0.865110	0.463920
Zn131	Zn13	0.081140	0.700510	0.703540
Zn141	Zn14	0.679060	0.697390	0.586730
Zn151	Zn15	0.512750	0.685320	0.628660
Zn161	Zn16	0.526410	0.634890	0.536080
Zn171	Zn17	0.581140	0.799490	0.203540
Zn181	Zn18	0.179060	0.802610	0.086730
Zn191	Zn19	0.012750	0.814680	0.128660
Zn201	Zn20	0.026410	0.865110	0.036080
Zn211	Zn21	0.081140	0.700510	0.796460
Zn221	Zn22	0.679060	0.697390	0.913270
Zn231	Zn23	0.512750	0.685320	0.871340
Zn241	Zn24	0.526410	0.634890	0.963920
Zn251	Zn25	0.418860	0.200510	0.703540
Zn261	Zn26	0.820940	0.197390	0.586730
Zn271	Zn27	0.987250	0.185320	0.628660
Zn281	Zn28	0.973590	0.134890	0.536080
Zn291	Zn29	0.918860	0.299490	0.296460
Zn301	Zn30	0.320940	0.302610	0.413270
Zn311	Zn31	0.487250	0.314680	0.371340
Zn321	Zn32	0.473590	0.365110	0.463920
Zn331	Zn33	0.380310	0.042600	0.750000
Zn341	Zn34	0.880310	0.457400	0.250000
Zn351	Zn35	0.619690	0.957400	0.250000
Zn361	Zn36	0.119690	0.542600	0.750000
H11	H1	0.512200	0.919500	0.834200
H21	H2	0.710100	0.930500	0.893400
H31	H3	0.620500	0.119300	0.847400
H41	H4	0.009900	0.928000	0.806500
H51	H5	0.403100	0.266300	0.941600
H61	H6	0.195300	0.235900	0.986700
H71	H7	0.226400	0.204700	0.875100
H81	H8	0.012200	0.580500	0.165800
H91	H9	0.210100	0.569500	0.106600
H101	H10	0.120500	0.380700	0.152600
H111	H11	0.509900	0.572000	0.193500
H121	H12	0.903100	0.233700	0.058400
H131	H13	0.695300	0.264100	0.013300
H141	H14	0.726400	0.295300	0.124900
H151	H15	0.487800	0.080500	0.334200
H161	H16	0.289900	0.069500	0.393400
H171	H17	0.379500	0.880700	0.347400
H181	H18	0.990100	0.072000	0.306500
H191	H19	0.596900	0.733700	0.441600
H201	H20	0.804700	0.764100	0.486700
H211	H21	0.773600	0.795300	0.375100
H221	H22	0.987800	0.419500	0.665800
H231	H23	0.789900	0.430500	0.606600
H241	H24	0.879500	0.619300	0.652600
H251	H25	0.490100	0.428000	0.693500
H261	H26	0.096900	0.766300	0.558400
H271	H27	0.304700	0.735900	0.513300
H281	H28	0.273600	0.704700	0.624900
H291	H29	0.487800	0.080500	0.165800
H301	H30	0.289900	0.069500	0.106600
H311	H31	0.379500	0.880700	0.152600
H321	H32	0.990100	0.072000	0.193500
H331	H33	0.596900	0.733700	0.058400
H341	H34	0.804700	0.764100	0.013300
H351	H35	0.773600	0.795300	0.124900
H361	H36	0.987800	0.419500	0.834200
H371	H37	0.789900	0.430500	0.893400
H381	H38	0.879500	0.619300	0.847400
H391	H39	0.490100	0.428000	0.806500
H401	H40	0.096900	0.766300	0.941600
H411	H41	0.304700	0.735900	0.986700
H421	H42	0.273600	0.704700	0.875100
H431	H43	0.512200	0.919500	0.665800
H441	H44	0.710100	0.930500	0.606600
H451	H45	0.620500	0.119300	0.652600
H461	H46	0.009900	0.928000	0.693500
H471	H47	0.403100	0.266300	0.558400
H481	H48	0.195300	0.235900	0.513300
H491	H49	0.226400	0.204700	0.624900
H501	H50	0.012200	0.580500	0.334200
H511	H51	0.210100	0.569500	0.393400
H521	H52	0.120500	0.380700	0.347400
H531	H53	0.509900	0.572000	0.306500
H541	H54	0.903100	0.233700	0.441600
H551	H55	0.695300	0.264100	0.486700
H561	H56	0.726400	0.295300	0.375100
H571	H57	0.977800	0.125600	0.750000
H581	H58	0.477800	0.374400	0.250000
H591	H59	0.022200	0.874400	0.250000
H601	H60	0.522200	0.625600	0.750000
C11	C1	0.498700	0.063000	0.812200
C21	C2	0.606000	0.827300	0.874210
C31	C3	0.739000	0.077800	0.890150
C41	C4	0.559500	0.025100	0.836100
C51	C5	0.553700	0.947200	0.843600
C61	C6	0.610000	0.910000	0.865180
C71	C7	0.671200	0.954100	0.879650
C81	C8	0.673800	0.032400	0.873530
C91	C9	0.618200	0.066800	0.851690
C101	C10	0.989800	0.075900	0.821170
C111	C11	0.995300	0.033100	0.784370
C121	C12	0.007600	0.954900	0.783700
C131	C13	0.113000	0.197700	0.924200
C141	C14	0.334800	0.275300	0.008320
C151	C15	0.376400	0.233300	0.869340
C161	C16	0.323700	0.233300	0.902470
C171	C17	0.351500	0.253500	0.938600
C181	C18	0.302800	0.254600	0.969980
C191	C19	0.227400	0.235800	0.965570
C201	C20	0.197100	0.216400	0.930130
C211	C21	0.246100	0.216400	0.899020
C221	C22	0.990600	0.979300	0.981020
C231	C23	0.998700	0.437000	0.187800
C241	C24	0.106000	0.672700	0.125790
C251	C25	0.239000	0.422200	0.109850
C261	C26	0.059500	0.474900	0.163900
C271	C27	0.053700	0.552800	0.156400
C281	C28	0.110000	0.590000	0.134820
C291	C29	0.171200	0.545900	0.120350
C301	C30	0.173800	0.467600	0.126470
C311	C31	0.118200	0.433200	0.148310
C321	C32	0.489800	0.424100	0.178830
C331	C33	0.495300	0.466900	0.215630
C341	C34	0.507600	0.545100	0.216300
C351	C35	0.613000	0.302300	0.075800
C361	C36	0.834800	0.224700	0.991680
C371	C37	0.876400	0.266700	0.130660
C381	C38	0.823700	0.266700	0.097530
C391	C39	0.851500	0.246500	0.061400
C401	C40	0.802800	0.245400	0.030020
C411	C41	0.727400	0.264200	0.034430
C421	C42	0.697100	0.283600	0.069870
C431	C43	0.746100	0.283600	0.100980
C441	C44	0.490600	0.520700	0.018980
C451	C45	0.501300	0.937000	0.312200
C461	C46	0.394000	0.172700	0.374210
C471	C47	0.261000	0.922200	0.390150
C481	C48	0.440500	0.974900	0.336100
C491	C49	0.446300	0.052800	0.343600
C501	C50	0.390000	0.090000	0.365180
C511	C51	0.328800	0.045900	0.379650
C521	C52	0.326200	0.967600	0.373530
C531	C53	0.381800	0.933200	0.351690
C541	C54	0.010200	0.924100	0.321170
C551	C55	0.004700	0.966900	0.284370
C561	C56	0.992400	0.045100	0.283700
C571	C57	0.887000	0.802300	0.424200
C581	C58	0.665200	0.724700	0.508320
C591	C59	0.623600	0.766700	0.369340
C601	C60	0.676300	0.766700	0.402470
C611	C61	0.648500	0.746500	0.438600
C621	C62	0.697200	0.745400	0.469980
C631	C63	0.772600	0.764200	0.465570
C641	C64	0.802900	0.783600	0.430130
C651	C65	0.753900	0.783600	0.399020
C661	C66	0.009400	0.020700	0.481020
C671	C67	0.001300	0.563000	0.687800
C681	C68	0.894000	0.327300	0.625790
C691	C69	0.761000	0.577800	0.609850
C701	C70	0.940500	0.525100	0.663900
C711	C71	0.946300	0.447200	0.656400
C721	C72	0.890000	0.410000	0.634820
C731	C73	0.828800	0.454100	0.620350
C741	C74	0.826200	0.532400	0.626470
C751	C75	0.881800	0.566800	0.648310
C761	C76	0.510200	0.575900	0.678830
C771	C77	0.504700	0.533100	0.715630
C781	C78	0.492400	0.454900	0.716300
C791	C79	0.387000	0.697700	0.575800
C801	C80	0.165200	0.775300	0.491680
C811	C81	0.123600	0.733300	0.630660
C821	C82	0.176300	0.733300	0.597530
C831	C83	0.148500	0.753500	0.561400
C841	C84	0.197200	0.754600	0.530020
C851	C85	0.272600	0.735800	0.534430
C861	C86	0.302900	0.716400	0.569870
C871	C87	0.253900	0.716400	0.600980
C881	C88	0.509400	0.479300	0.518980
C891	C89	0.501300	0.937000	0.187800
C901	C90	0.394000	0.172700	0.125790
C911	C91	0.261000	0.922200	0.109850
C921	C92	0.440500	0.974900	0.163900
C931	C93	0.446300	0.052800	0.156400
C941	C94	0.390000	0.090000	0.134820
C951	C95	0.328800	0.045900	0.120350
C961	C96	0.326200	0.967600	0.126470
C971	C97	0.381800	0.933200	0.148310
C981	C98	0.010200	0.924100	0.178830
C991	C99	0.004700	0.966900	0.215630
C1001	C100	0.992400	0.045100	0.216300
C1011	C101	0.887000	0.802300	0.075800
C1021	C102	0.665200	0.724700	0.991680
C1031	C103	0.623600	0.766700	0.130660
C1041	C104	0.676300	0.766700	0.097530
C1051	C105	0.648500	0.746500	0.061400
C1061	C106	0.697200	0.745400	0.030020
C1071	C107	0.772600	0.764200	0.034430
C1081	C108	0.802900	0.783600	0.069870
C1091	C109	0.753900	0.783600	0.100980
C1101	C110	0.009400	0.020700	0.018980
C1111	C111	0.001300	0.563000	0.812200
C1121	C112	0.894000	0.327300	0.874210
C1131	C113	0.761000	0.577800	0.890150
C1141	C114	0.940500	0.525100	0.836100
C1151	C115	0.946300	0.447200	0.843600
C1161	C116	0.890000	0.410000	0.865180
C1171	C117	0.828800	0.454100	0.879650
C1181	C118	0.826200	0.532400	0.873530
C1191	C119	0.881800	0.566800	0.851690
C1201	C120	0.510200	0.575900	0.821170
C1211	C121	0.504700	0.533100	0.784370
C1221	C122	0.492400	0.454900	0.783700
C1231	C123	0.387000	0.697700	0.924200
C1241	C124	0.165200	0.775300	0.008320
C1251	C125	0.123600	0.733300	0.869340
C1261	C126	0.176300	0.733300	0.902470
C1271	C127	0.148500	0.753500	0.938600
C1281	C128	0.197200	0.754600	0.969980
C1291	C129	0.272600	0.735800	0.965570
C1301	C130	0.302900	0.716400	0.930130
C1311	C131	0.253900	0.716400	0.899020
C1321	C132	0.509400	0.479300	0.981020
C1331	C133	0.498700	0.063000	0.687800
C1341	C134	0.606000	0.827300	0.625790
C1351	C135	0.739000	0.077800	0.609850
C1361	C136	0.559500	0.025100	0.663900
C1371	C137	0.553700	0.947200	0.656400
C1381	C138	0.610000	0.910000	0.634820
C1391	C139	0.671200	0.954100	0.620350
C1401	C140	0.673800	0.032400	0.626470
C1411	C141	0.618200	0.066800	0.648310
C1421	C142	0.989800	0.075900	0.678830
C1431	C143	0.995300	0.033100	0.715630
C1441	C144	0.007600	0.954900	0.716300
C1451	C145	0.113000	0.197700	0.575800
C1461	C146	0.334800	0.275300	0.491680
C1471	C147	0.376400	0.233300	0.630660
C1481	C148	0.323700	0.233300	0.597530
C1491	C149	0.351500	0.253500	0.561400
C1501	C150	0.302800	0.254600	0.530020
C1511	C151	0.227400	0.235800	0.534430
C1521	C152	0.197100	0.216400	0.569870
C1531	C153	0.246100	0.216400	0.600980
C1541	C154	0.990600	0.979300	0.518980
C1551	C155	0.998700	0.437000	0.312200
C1561	C156	0.106000	0.672700	0.374210
C1571	C157	0.239000	0.422200	0.390150
C1581	C158	0.059500	0.474900	0.336100
C1591	C159	0.053700	0.552800	0.343600
C1601	C160	0.110000	0.590000	0.365180
C1611	C161	0.171200	0.545900	0.379650
C1621	C162	0.173800	0.467600	0.373530
C1631	C163	0.118200	0.433200	0.351690
C1641	C164	0.489800	0.424100	0.321170
C1651	C165	0.495300	0.466900	0.284370
C1661	C166	0.507600	0.545100	0.283700
C1671	C167	0.613000	0.302300	0.424200
C1681	C168	0.834800	0.224700	0.508320
C1691	C169	0.876400	0.266700	0.369340
C1701	C170	0.823700	0.266700	0.402470
C1711	C171	0.851500	0.246500	0.438600
C1721	C172	0.802800	0.245400	0.469980
C1731	C173	0.727400	0.264200	0.465570
C1741	C174	0.697100	0.283600	0.430130
C1751	C175	0.746100	0.283600	0.399020
C1761	C176	0.490600	0.520700	0.481020
C1771	C177	0.035100	0.832100	0.750000
C1781	C178	0.987700	0.073200	0.750000
C1791	C179	0.016500	0.916000	0.750000
C1801	C180	0.535100	0.667900	0.250000
C1811	C181	0.487700	0.426800	0.250000
C1821	C182	0.516500	0.584000	0.250000
C1831	C183	0.964900	0.167900	0.250000
C1841	C184	0.012300	0.926800	0.250000
C1851	C185	0.983500	0.084000	0.250000
C1861	C186	0.464900	0.332100	0.750000
C1871	C187	0.512300	0.573200	0.750000
C1881	C188	0.483500	0.416000	0.750000
O11	O1	0.446600	0.025300	0.798900
O21	O2	0.505200	0.133600	0.807580
O31	O3	0.544600	0.793000	0.865270
O41	O4	0.662200	0.797700	0.889970
O51	O5	0.790900	0.043600	0.907300
O61	O6	0.737400	0.149400	0.886120
O71	O7	0.984000	0.148000	0.819930
O81	O8	0.993100	0.041900	0.851190
O91	O9	0.040900	0.800600	0.718640
O101	O10	0.091200	0.192500	0.891310
O111	O11	0.073300	0.185700	0.954290
O121	O12	0.405700	0.287000	0.010340
O131	O13	0.288700	0.279000	0.035320
O141	O14	0.444100	0.254100	0.872380
O151	O15	0.346500	0.210100	0.838310
O161	O16	0.977800	0.019500	0.952750
O171	O17	0.993600	0.906800	0.982160
O181	O18	0.920200	0.143000	0.911210
O191	O19	0.946600	0.474700	0.201100
O201	O20	0.005200	0.366400	0.192420
O211	O21	0.044600	0.707000	0.134730
O221	O22	0.162200	0.702300	0.110030
O231	O23	0.290900	0.456400	0.092700
O241	O24	0.237400	0.350600	0.113880
O251	O25	0.484000	0.352000	0.180070
O261	O26	0.493100	0.458100	0.148810
O271	O27	0.540900	0.699400	0.281360
O281	O28	0.591200	0.307500	0.108690
O291	O29	0.573300	0.314300	0.045710
O301	O30	0.905700	0.213000	0.989660
O311	O31	0.788700	0.221000	0.964680
O321	O32	0.944100	0.245900	0.127620
O331	O33	0.846500	0.289900	0.161690
O341	O34	0.477800	0.480500	0.047250
O351	O35	0.493600	0.593200	0.017840
O361	O36	0.420200	0.357000	0.088790
O371	O37	0.553400	0.974700	0.298900
O381	O38	0.494800	0.866400	0.307580
O391	O39	0.455400	0.207000	0.365270
O401	O40	0.337800	0.202300	0.389970
O411	O41	0.209100	0.956400	0.407300
O421	O42	0.262600	0.850600	0.386120
O431	O43	0.016000	0.852000	0.319930
O441	O44	0.006900	0.958100	0.351190
O451	O45	0.959100	0.199400	0.218640
O461	O46	0.908800	0.807500	0.391310
O471	O47	0.926700	0.814300	0.454290
O481	O48	0.594300	0.713000	0.510340
O491	O49	0.711300	0.721000	0.535320
O501	O50	0.555900	0.745900	0.372380
O511	O51	0.653500	0.789900	0.338310
O521	O52	0.022200	0.980500	0.452750
O531	O53	0.006400	0.093200	0.482160
O541	O54	0.079800	0.857000	0.411210
O551	O55	0.053400	0.525300	0.701100
O561	O56	0.994800	0.633600	0.692420
O571	O57	0.955400	0.293000	0.634730
O581	O58	0.837800	0.297700	0.610030
O591	O59	0.709100	0.543600	0.592700
O601	O60	0.762600	0.649400	0.613880
O611	O61	0.516000	0.648000	0.680070
O621	O62	0.506900	0.541900	0.648810
O631	O63	0.459100	0.300600	0.781360
O641	O64	0.408800	0.692500	0.608690
O651	O65	0.426700	0.685700	0.545710
O661	O66	0.094300	0.787000	0.489660
O671	O67	0.211300	0.779000	0.464680
O681	O68	0.055900	0.754100	0.627620
O691	O69	0.153500	0.710100	0.661690
O701	O70	0.522200	0.519500	0.547250
O711	O71	0.506400	0.406800	0.517840
O721	O72	0.579800	0.643000	0.588790
O731	O73	0.553400	0.974700	0.201100
O741	O74	0.494800	0.866400	0.192420
O751	O75	0.455400	0.207000	0.134730
O761	O76	0.337800	0.202300	0.110030
O771	O77	0.209100	0.956400	0.092700
O781	O78	0.262600	0.850600	0.113880
O791	O79	0.016000	0.852000	0.180070
O801	O80	0.006900	0.958100	0.148810
O811	O81	0.959100	0.199400	0.281360
O821	O82	0.908800	0.807500	0.108690
O831	O83	0.926700	0.814300	0.045710
O841	O84	0.594300	0.713000	0.989660
O851	O85	0.711300	0.721000	0.964680
O861	O86	0.555900	0.745900	0.127620
O871	O87	0.653500	0.789900	0.161690
O881	O88	0.022200	0.980500	0.047250
O891	O89	0.006400	0.093200	0.017840
O901	O90	0.079800	0.857000	0.088790
O911	O91	0.053400	0.525300	0.798900
O921	O92	0.994800	0.633600	0.807580
O931	O93	0.955400	0.293000	0.865270
O941	O94	0.837800	0.297700	0.889970
O951	O95	0.709100	0.543600	0.907300
O961	O96	0.762600	0.649400	0.886120
O971	O97	0.516000	0.648000	0.819930
O981	O98	0.506900	0.541900	0.851190
O991	O99	0.459100	0.300600	0.718640
O1001	O100	0.408800	0.692500	0.891310
O1011	O101	0.426700	0.685700	0.954290
O1021	O102	0.094300	0.787000	0.010340
O1031	O103	0.211300	0.779000	0.035320
O1041	O104	0.055900	0.754100	0.872380
O1051	O105	0.153500	0.710100	0.838310
O1061	O106	0.522200	0.519500	0.952750
O1071	O107	0.506400	0.406800	0.982160
O1081	O108	0.579800	0.643000	0.911210
O1091	O109	0.446600	0.025300	0.701100
O1101	O110	0.505200	0.133600	0.692420
O1111	O111	0.544600	0.793000	0.634730
O1121	O112	0.662200	0.797700	0.610030
O1131	O113	0.790900	0.043600	0.592700
O1141	O114	0.737400	0.149400	0.613880
O1151	O115	0.984000	0.148000	0.680070
O1161	O116	0.993100	0.041900	0.648810
O1171	O117	0.040900	0.800600	0.781360
O1181	O118	0.091200	0.192500	0.608690
O1191	O119	0.073300	0.185700	0.545710
O1201	O120	0.405700	0.287000	0.489660
O1211	O121	0.288700	0.279000	0.464680
O1221	O122	0.444100	0.254100	0.627620
O1231	O123	0.346500	0.210100	0.661690
O1241	O124	0.977800	0.019500	0.547250
O1251	O125	0.993600	0.906800	0.517840
O1261	O126	0.920200	0.143000	0.588790
O1271	O127	0.946600	0.474700	0.298900
O1281	O128	0.005200	0.366400	0.307580
O1291	O129	0.044600	0.707000	0.365270
O1301	O130	0.162200	0.702300	0.389970
O1311	O131	0.290900	0.456400	0.407300
O1321	O132	0.237400	0.350600	0.386120
O1331	O133	0.484000	0.352000	0.319930
O1341	O134	0.493100	0.458100	0.351190
O1351	O135	0.540900	0.699400	0.218640
O1361	O136	0.591200	0.307500	0.391310
O1371	O137	0.573300	0.314300	0.454290
O1381	O138	0.905700	0.213000	0.510340
O1391	O139	0.788700	0.221000	0.535320
O1401	O140	0.944100	0.245900	0.372380
O1411	O141	0.846500	0.289900	0.338310
O1421	O142	0.477800	0.480500	0.452750
O1431	O143	0.493600	0.593200	0.482160
O1441	O144	0.420200	0.357000	0.411210
O1451	O145	0.366700	0.162200	0.750000
O1461	O146	0.317000	0.963000	0.750000
O1471	O147	0.866700	0.337800	0.250000
O1481	O148	0.817000	0.537000	0.250000
O1491	O149	0.633300	0.837800	0.250000
O1501	O150	0.683000	0.037000	0.250000
O1511	O151	0.133300	0.662200	0.750000
O1521	O152	0.183000	0.463000	0.750000
H611	H61	0.641000	0.251000	0.904900
H621	H62	0.655400	0.300000	0.941600
H631	H63	0.551900	0.172400	0.935800
H641	H64	0.616600	0.182300	0.966400
H651	H65	0.541100	0.231000	0.969100
H661	H66	0.554400	0.427800	0.883000
H671	H67	0.633800	0.414800	0.903200
H681	H68	0.588300	0.316200	0.843900
H691	H69	0.632300	0.392400	0.834500
H701	H70	0.672300	0.328400	0.858800
H711	H71	0.536000	0.353300	0.934200
H721	H72	0.520600	0.306300	0.900800
C1891	C189	0.616300	0.274000	0.926800
C1901	C190	0.577600	0.208400	0.952100
C1911	C191	0.592600	0.389500	0.889600
C1921	C192	0.624300	0.353300	0.853300
N11	N1	0.557800	0.330700	0.913830
H731	H73	0.141000	0.249000	0.095100
H741	H74	0.155400	0.200000	0.058400
H751	H75	0.051900	0.327600	0.064200
H761	H76	0.116600	0.317700	0.033600
H771	H77	0.041100	0.269000	0.030900
H781	H78	0.054400	0.072200	0.117000
H791	H79	0.133800	0.085200	0.096800
H801	H80	0.088300	0.183800	0.156100
H811	H81	0.132300	0.107600	0.165500
H821	H82	0.172300	0.171600	0.141200
H831	H83	0.036000	0.146700	0.065800
H841	H84	0.020600	0.193700	0.099200
C1931	C193	0.116300	0.226000	0.073200
C1941	C194	0.077600	0.291600	0.047900
C1951	C195	0.092600	0.110500	0.110400
C1961	C196	0.124300	0.146700	0.146700
N21	N2	0.057800	0.169300	0.086170
H851	H85	0.359000	0.749000	0.404900
H861	H86	0.344600	0.700000	0.441600
H871	H87	0.448100	0.827600	0.435800
H881	H88	0.383400	0.817700	0.466400
H891	H89	0.458900	0.769000	0.469100
H901	H90	0.445600	0.572200	0.383000
H911	H91	0.366200	0.585200	0.403200
H921	H92	0.411700	0.683800	0.343900
H931	H93	0.367700	0.607600	0.334500
H941	H94	0.327700	0.671600	0.358800
H951	H95	0.464000	0.646700	0.434200
H961	H96	0.479400	0.693700	0.400800
C1971	C197	0.383700	0.726000	0.426800
C1981	C198	0.422400	0.791600	0.452100
C1991	C199	0.407400	0.610500	0.389600
C2001	C200	0.375700	0.646700	0.353300
N31	N3	0.442200	0.669300	0.413830
H971	H97	0.859000	0.751000	0.595100
H981	H98	0.844600	0.800000	0.558400
H991	H99	0.948100	0.672400	0.564200
H1001	H100	0.883400	0.682300	0.533600
H1011	H101	0.958900	0.731000	0.530900
H1021	H102	0.945600	0.927800	0.617000
H1031	H103	0.866200	0.914800	0.596800
H1041	H104	0.911700	0.816200	0.656100
H1051	H105	0.867700	0.892400	0.665500
H1061	H106	0.827700	0.828400	0.641200
H1071	H107	0.964000	0.853300	0.565800
H1081	H108	0.979400	0.806300	0.599200
C2011	C201	0.883700	0.774000	0.573200
C2021	C202	0.922400	0.708400	0.547900
C2031	C203	0.907400	0.889500	0.610400
C2041	C204	0.875700	0.853300	0.646700
N41	N4	0.942200	0.830700	0.586170
H1091	H109	0.359000	0.749000	0.095100
H1101	H110	0.344600	0.700000	0.058400
H1111	H111	0.448100	0.827600	0.064200
H1121	H112	0.383400	0.817700	0.033600
H1131	H113	0.458900	0.769000	0.030900
H1141	H114	0.445600	0.572200	0.117000
H1151	H115	0.366200	0.585200	0.096800
H1161	H116	0.411700	0.683800	0.156100
H1171	H117	0.367700	0.607600	0.165500
H1181	H118	0.327700	0.671600	0.141200
H1191	H119	0.464000	0.646700	0.065800
H1201	H120	0.479400	0.693700	0.099200
C2051	C205	0.383700	0.726000	0.073200
C2061	C206	0.422400	0.791600	0.047900
C2071	C207	0.407400	0.610500	0.110400
C2081	C208	0.375700	0.646700	0.146700
N51	N5	0.442200	0.669300	0.086170
H1211	H121	0.859000	0.751000	0.904900
H1221	H122	0.844600	0.800000	0.941600
H1231	H123	0.948100	0.672400	0.935800
H1241	H124	0.883400	0.682300	0.966400
H1251	H125	0.958900	0.731000	0.969100
H1261	H126	0.945600	0.927800	0.883000
H1271	H127	0.866200	0.914800	0.903200
H1281	H128	0.911700	0.816200	0.843900
H1291	H129	0.867700	0.892400	0.834500
H1301	H130	0.827700	0.828400	0.858800
H1311	H131	0.964000	0.853300	0.934200
H1321	H132	0.979400	0.806300	0.900800
C2091	C209	0.883700	0.774000	0.926800
C2101	C210	0.922400	0.708400	0.952100
C2111	C211	0.907400	0.889500	0.889600
C2121	C212	0.875700	0.853300	0.853300
N61	N6	0.942200	0.830700	0.913830
H1331	H133	0.641000	0.251000	0.595100
H1341	H134	0.655400	0.300000	0.558400
H1351	H135	0.551900	0.172400	0.564200
H1361	H136	0.616600	0.182300	0.533600
H1371	H137	0.541100	0.231000	0.530900
H1381	H138	0.554400	0.427800	0.617000
H1391	H139	0.633800	0.414800	0.596800
H1401	H140	0.588300	0.316200	0.656100
H1411	H141	0.632300	0.392400	0.665500
H1421	H142	0.672300	0.328400	0.641200
H1431	H143	0.536000	0.353300	0.565800
H1441	H144	0.520600	0.306300	0.599200
C2131	C213	0.616300	0.274000	0.573200
C2141	C214	0.577600	0.208400	0.547900
C2151	C215	0.592600	0.389500	0.610400
C2161	C216	0.624300	0.353300	0.646700
N71	N7	0.557800	0.330700	0.586170
H1451	H145	0.141000	0.249000	0.404900
H1461	H146	0.155400	0.200000	0.441600
H1471	H147	0.051900	0.327600	0.435800
H1481	H148	0.116600	0.317700	0.466400
H1491	H149	0.041100	0.269000	0.469100
H1501	H150	0.054400	0.072200	0.383000
H1511	H151	0.133800	0.085200	0.403200
H1521	H152	0.088300	0.183800	0.343900
H1531	H153	0.132300	0.107600	0.334500
H1541	H154	0.172300	0.171600	0.358800
H1551	H155	0.036000	0.146700	0.434200
H1561	H156	0.020600	0.193700	0.400800
C2171	C217	0.116300	0.226000	0.426800
C2181	C218	0.077600	0.291600	0.452100
C2191	C219	0.092600	0.110500	0.389600
C2201	C220	0.124300	0.146700	0.353300
N81	N8	0.057800	0.169300	0.413830
