data_VEHLEA01_clean_PM
_symmetry_space_group_name_H-M	'P1'
_cell_length_a	15.783000
_cell_length_b	8.378000
_cell_length_c	15.955000
_cell_angle_alpha	90.000000
_cell_angle_beta	111.500000
_cell_angle_gamma	90.000000
_symmetry_Int_Tables_number 1

loop_
_symmetry_equiv_pos_as_xyz
'x,y,z'

loop_
_atom_site_label
_atom_site_type_symbol
_atom_site_fract_x
_atom_site_fract_y
_atom_site_fract_z
Zn11	Zn1	0.363280	0.638950	0.474520
P11	P1	0.154720	0.633620	0.364530
P21	P2	0.021150	0.126980	0.400410
O11	O1	0.251080	0.595700	0.373400
O21	O2	0.143900	0.685900	0.450380
O31	O3	0.111710	0.747200	0.286350
O41	O4	0.957610	0.218000	0.434000
O51	O5	0.975070	0.985400	0.342290
O61	O6	0.109370	0.078300	0.476540
H11	H1	0.110400	0.498000	0.341600
H21	H2	0.048100	0.225000	0.352600
Zn21	Zn2	0.863280	0.138950	0.474520
P31	P3	0.654720	0.133620	0.364530
P41	P4	0.521150	0.626980	0.400410
O71	O7	0.751080	0.095700	0.373400
O81	O8	0.643900	0.185900	0.450380
O91	O9	0.611710	0.247200	0.286350
O101	O10	0.457610	0.718000	0.434000
O111	O11	0.475070	0.485400	0.342290
O121	O12	0.609370	0.578300	0.476540
H31	H3	0.610400	0.998000	0.341600
H41	H4	0.548100	0.725000	0.352600
Zn31	Zn3	0.636720	0.638950	0.025480
P51	P5	0.845280	0.633620	0.135470
P61	P6	0.978850	0.126980	0.099590
O131	O13	0.748920	0.595700	0.126600
O141	O14	0.856100	0.685900	0.049620
O151	O15	0.888290	0.747200	0.213650
O161	O16	0.042390	0.218000	0.066000
O171	O17	0.024930	0.985400	0.157710
O181	O18	0.890630	0.078300	0.023460
H51	H5	0.889600	0.498000	0.158400
H61	H6	0.951900	0.225000	0.147400
Zn41	Zn4	0.136720	0.138950	0.025480
P71	P7	0.345280	0.133620	0.135470
P81	P8	0.478850	0.626980	0.099590
O191	O19	0.248920	0.095700	0.126600
O201	O20	0.356100	0.185900	0.049620
O211	O21	0.388290	0.247200	0.213650
O221	O22	0.542390	0.718000	0.066000
O231	O23	0.524930	0.485400	0.157710
O241	O24	0.390630	0.578300	0.023460
H71	H7	0.389600	0.998000	0.158400
H81	H8	0.451900	0.725000	0.147400
Zn51	Zn5	0.636720	0.361050	0.525480
P91	P9	0.845280	0.366380	0.635470
P101	P10	0.978850	0.873020	0.599590
O251	O25	0.748920	0.404300	0.626600
O261	O26	0.856100	0.314100	0.549620
O271	O27	0.888290	0.252800	0.713650
O281	O28	0.042390	0.782000	0.566000
O291	O29	0.024930	0.014600	0.657710
O301	O30	0.890630	0.921700	0.523460
H91	H9	0.889600	0.502000	0.658400
H101	H10	0.951900	0.775000	0.647400
Zn61	Zn6	0.136720	0.861050	0.525480
P111	P11	0.345280	0.866380	0.635470
P121	P12	0.478850	0.373020	0.599590
O311	O31	0.248920	0.904300	0.626600
O321	O32	0.356100	0.814100	0.549620
O331	O33	0.388290	0.752800	0.713650
O341	O34	0.542390	0.282000	0.566000
O351	O35	0.524930	0.514600	0.657710
O361	O36	0.390630	0.421700	0.523460
H111	H11	0.389600	0.002000	0.658400
H121	H12	0.451900	0.275000	0.647400
Zn71	Zn7	0.363280	0.361050	0.974520
P131	P13	0.154720	0.366380	0.864530
P141	P14	0.021150	0.873020	0.900410
O371	O37	0.251080	0.404300	0.873400
O381	O38	0.143900	0.314100	0.950380
O391	O39	0.111710	0.252800	0.786350
O401	O40	0.957610	0.782000	0.934000
O411	O41	0.975070	0.014600	0.842290
O421	O42	0.109370	0.921700	0.976540
H131	H13	0.110400	0.502000	0.841600
H141	H14	0.048100	0.775000	0.852600
Zn81	Zn8	0.863280	0.861050	0.974520
P151	P15	0.654720	0.866380	0.864530
P161	P16	0.521150	0.373020	0.900410
O431	O43	0.751080	0.904300	0.873400
O441	O44	0.643900	0.814100	0.950380
O451	O45	0.611710	0.752800	0.786350
O461	O46	0.457610	0.282000	0.934000
O471	O47	0.475070	0.514600	0.842290
O481	O48	0.609370	0.421700	0.976540
H151	H15	0.610400	0.002000	0.841600
H161	H16	0.548100	0.275000	0.852600
Zn91	Zn9	0.000000	0.869080	0.250000
Zn101	Zn10	0.500000	0.369080	0.250000
Zn111	Zn11	0.000000	0.130920	0.750000
Zn121	Zn12	0.500000	0.630920	0.750000
