data_VEHLAW_clean_PM
_symmetry_space_group_name_H-M	'P1'
_cell_length_a	16.174900
_cell_length_b	8.324700
_cell_length_c	17.067300
_cell_angle_alpha	90.000000
_cell_angle_beta	114.781000
_cell_angle_gamma	90.000000
_symmetry_Int_Tables_number 1

loop_
_symmetry_equiv_pos_as_xyz
'x,y,z'

loop_
_atom_site_label
_atom_site_type_symbol
_atom_site_fract_x
_atom_site_fract_y
_atom_site_fract_z
Zn11	Zn1	0.864680	0.618890	0.978180
P11	P1	0.007520	0.396870	0.123750
H11	H1	0.895000	0.018000	0.128000
P21	P2	0.853360	0.894150	0.106160
H21	H2	0.990000	0.281000	0.168000
O11	O1	0.861200	0.833200	0.025400
O21	O2	0.894500	0.784200	0.180700
O31	O3	0.916500	0.437800	0.051600
O41	O4	0.048900	0.534200	0.184800
O51	O5	0.073400	0.321100	0.093300
O61	O6	0.759900	0.942700	0.091800
Zn21	Zn2	0.364680	0.118890	0.978180
P31	P3	0.507520	0.896870	0.123750
H31	H3	0.395000	0.518000	0.128000
P41	P4	0.353360	0.394150	0.106160
H41	H4	0.490000	0.781000	0.168000
O71	O7	0.361200	0.333200	0.025400
O81	O8	0.394500	0.284200	0.180700
O91	O9	0.416500	0.937800	0.051600
O101	O10	0.548900	0.034200	0.184800
O111	O11	0.573400	0.821100	0.093300
O121	O12	0.259900	0.442700	0.091800
Zn31	Zn3	0.135320	0.618890	0.521820
P51	P5	0.992480	0.396870	0.376250
H51	H5	0.105000	0.018000	0.372000
P61	P6	0.146640	0.894150	0.393840
H61	H6	0.010000	0.281000	0.332000
O131	O13	0.138800	0.833200	0.474600
O141	O14	0.105500	0.784200	0.319300
O151	O15	0.083500	0.437800	0.448400
O161	O16	0.951100	0.534200	0.315200
O171	O17	0.926600	0.321100	0.406700
O181	O18	0.240100	0.942700	0.408200
Zn41	Zn4	0.635320	0.118890	0.521820
P71	P7	0.492480	0.896870	0.376250
H71	H7	0.605000	0.518000	0.372000
P81	P8	0.646640	0.394150	0.393840
H81	H8	0.510000	0.781000	0.332000
O191	O19	0.638800	0.333200	0.474600
O201	O20	0.605500	0.284200	0.319300
O211	O21	0.583500	0.937800	0.448400
O221	O22	0.451100	0.034200	0.315200
O231	O23	0.426600	0.821100	0.406700
O241	O24	0.740100	0.442700	0.408200
Zn51	Zn5	0.135320	0.381110	0.021820
P91	P9	0.992480	0.603130	0.876250
H91	H9	0.105000	0.982000	0.872000
P101	P10	0.146640	0.105850	0.893840
H101	H10	0.010000	0.719000	0.832000
O251	O25	0.138800	0.166800	0.974600
O261	O26	0.105500	0.215800	0.819300
O271	O27	0.083500	0.562200	0.948400
O281	O28	0.951100	0.465800	0.815200
O291	O29	0.926600	0.678900	0.906700
O301	O30	0.240100	0.057300	0.908200
Zn61	Zn6	0.635320	0.881110	0.021820
P111	P11	0.492480	0.103130	0.876250
H111	H11	0.605000	0.482000	0.872000
P121	P12	0.646640	0.605850	0.893840
H121	H12	0.510000	0.219000	0.832000
O311	O31	0.638800	0.666800	0.974600
O321	O32	0.605500	0.715800	0.819300
O331	O33	0.583500	0.062200	0.948400
O341	O34	0.451100	0.965800	0.815200
O351	O35	0.426600	0.178900	0.906700
O361	O36	0.740100	0.557300	0.908200
Zn71	Zn7	0.864680	0.381110	0.478180
P131	P13	0.007520	0.603130	0.623750
H131	H13	0.895000	0.982000	0.628000
P141	P14	0.853360	0.105850	0.606160
H141	H14	0.990000	0.719000	0.668000
O371	O37	0.861200	0.166800	0.525400
O381	O38	0.894500	0.215800	0.680700
O391	O39	0.916500	0.562200	0.551600
O401	O40	0.048900	0.465800	0.684800
O411	O41	0.073400	0.678900	0.593300
O421	O42	0.759900	0.057300	0.591800
Zn81	Zn8	0.364680	0.881110	0.478180
P151	P15	0.507520	0.103130	0.623750
H151	H15	0.395000	0.482000	0.628000
P161	P16	0.353360	0.605850	0.606160
H161	H16	0.490000	0.219000	0.668000
O431	O43	0.361200	0.666800	0.525400
O441	O44	0.394500	0.715800	0.680700
O451	O45	0.416500	0.062200	0.551600
O461	O46	0.548900	0.965800	0.684800
O471	O47	0.573400	0.178900	0.593300
O481	O48	0.259900	0.557300	0.591800
Zn91	Zn9	0.000000	0.661370	0.250000
Zn101	Zn10	0.500000	0.161370	0.250000
Zn111	Zn11	0.000000	0.338630	0.750000
Zn121	Zn12	0.500000	0.838630	0.750000
