data_VEHPUU_clean_PM
_symmetry_space_group_name_H-M	'P1'
_cell_length_a	4.710900
_cell_length_b	11.002000
_cell_length_c	31.858000
_cell_angle_alpha	90.000000
_cell_angle_beta	90.000000
_cell_angle_gamma	96.008000
_symmetry_Int_Tables_number 1

loop_
_symmetry_equiv_pos_as_xyz
'x,y,z'

loop_
_atom_site_label
_atom_site_type_symbol
_atom_site_fract_x
_atom_site_fract_y
_atom_site_fract_z
Cu11	Cu1	0.501000	0.411000	0.804200
Cu21	Cu2	0.499000	0.089000	0.304200
Cu31	Cu3	0.499000	0.589000	0.195800
Cu41	Cu4	0.501000	0.911000	0.695800
H11	H1	0.631300	0.461000	0.708100
H21	H2	0.448900	0.364100	0.646800
H31	H3	0.733300	0.460600	0.013000
H41	H4	0.452100	0.590900	0.871400
H51	H5	0.616300	0.623800	0.940400
H61	H6	0.782500	0.264400	0.869400
H71	H7	0.946800	0.297300	0.938400
H81	H8	0.368700	0.039000	0.208100
H91	H9	0.551100	0.135900	0.146800
H101	H10	0.266700	0.039400	0.513000
H111	H11	0.547900	0.909100	0.371400
H121	H12	0.383700	0.876200	0.440400
H131	H13	0.217500	0.235600	0.369400
H141	H14	0.053200	0.202700	0.438400
H151	H15	0.368700	0.539000	0.291900
H161	H16	0.551100	0.635900	0.353200
H171	H17	0.266700	0.539400	0.987000
H181	H18	0.547900	0.409100	0.128600
H191	H19	0.383700	0.376200	0.059600
H201	H20	0.217500	0.735600	0.130600
H211	H21	0.053200	0.702700	0.061600
H221	H22	0.631300	0.961000	0.791900
H231	H23	0.448900	0.864100	0.853200
H241	H24	0.733300	0.960600	0.487000
H251	H25	0.452100	0.090900	0.628600
H261	H26	0.616300	0.123800	0.559600
H271	H27	0.782500	0.764400	0.630600
H281	H28	0.946800	0.797300	0.561600
C11	C1	0.882680	0.480550	0.993410
C21	C2	0.216500	0.177000	0.794700
C31	C3	0.267400	0.229400	0.749300
C41	C4	0.509500	0.386700	0.709800
C51	C5	0.397500	0.328600	0.673300
C61	C6	0.155200	0.175300	0.712100
C71	C7	0.968300	0.057200	0.708400
C81	C8	0.748900	0.337200	0.883800
C91	C9	0.552300	0.531500	0.885000
C101	C10	0.650000	0.551000	0.926000
C111	C11	0.846600	0.356800	0.924800
C121	C12	0.797100	0.463700	0.945900
C131	C13	0.117320	0.019450	0.493410
C141	C14	0.783500	0.323000	0.294700
C151	C15	0.732600	0.270600	0.249300
C161	C16	0.490500	0.113300	0.209800
C171	C17	0.602500	0.171400	0.173300
C181	C18	0.844800	0.324700	0.212100
C191	C19	0.031700	0.442800	0.208400
C201	C20	0.251100	0.162800	0.383800
C211	C21	0.447700	0.968500	0.385000
C221	C22	0.350000	0.949000	0.426000
C231	C23	0.153400	0.143200	0.424800
C241	C24	0.202900	0.036300	0.445900
C251	C25	0.117320	0.519450	0.006590
C261	C26	0.783500	0.823000	0.205300
C271	C27	0.732600	0.770600	0.250700
C281	C28	0.490500	0.613300	0.290200
C291	C29	0.602500	0.671400	0.326700
C301	C30	0.844800	0.824700	0.287900
C311	C31	0.031700	0.942800	0.291600
C321	C32	0.251100	0.662800	0.116200
C331	C33	0.447700	0.468500	0.115000
C341	C34	0.350000	0.449000	0.074000
C351	C35	0.153400	0.643200	0.075200
C361	C36	0.202900	0.536300	0.054100
C371	C37	0.882680	0.980550	0.506590
C381	C38	0.216500	0.677000	0.705300
C391	C39	0.267400	0.729400	0.750700
C401	C40	0.509500	0.886700	0.790200
C411	C41	0.397500	0.828600	0.826700
C421	C42	0.155200	0.675300	0.787900
C431	C43	0.968300	0.557200	0.791600
C441	C44	0.748900	0.837200	0.616200
C451	C45	0.552300	0.031500	0.615000
C461	C46	0.650000	0.051000	0.574000
C471	C47	0.846600	0.856800	0.575200
C481	C48	0.797100	0.963700	0.554100
N11	N1	0.439500	0.334000	0.748100
N21	N2	0.223300	0.226400	0.674300
N31	N3	0.601700	0.424600	0.863900
N41	N4	0.560500	0.166000	0.248100
N51	N5	0.776700	0.273600	0.174300
N61	N6	0.398300	0.075400	0.363900
N71	N7	0.560500	0.666000	0.251900
N81	N8	0.776700	0.773600	0.325700
N91	N9	0.398300	0.575400	0.136100
N101	N10	0.439500	0.834000	0.751900
N111	N11	0.223300	0.726400	0.825700
N121	N12	0.601700	0.924600	0.636100
O11	O1	0.314850	0.244160	0.822960
O21	O2	0.019270	0.069930	0.800300
O31	O3	0.708190	0.007890	0.717350
O41	O4	0.105820	0.988990	0.697240
O51	O5	0.685150	0.255840	0.322960
O61	O6	0.980730	0.430070	0.300300
O71	O7	0.291810	0.492110	0.217350
O81	O8	0.894180	0.511010	0.197240
O91	O9	0.685150	0.755840	0.177040
O101	O10	0.980730	0.930070	0.199700
O111	O11	0.291810	0.992110	0.282650
O121	O12	0.894180	0.011010	0.302760
O131	O13	0.314850	0.744160	0.677040
O141	O14	0.019270	0.569930	0.699700
O151	O15	0.708190	0.507890	0.782650
O161	O16	0.105820	0.488990	0.802760
