data_VEHXEN_clean_PM
_symmetry_space_group_name_H-M	'P1'
_cell_length_a	19.347400
_cell_length_b	43.605100
_cell_length_c	43.605100
_cell_angle_alpha	90.000000
_cell_angle_beta	90.000000
_cell_angle_gamma	90.000000
_symmetry_Int_Tables_number 1

loop_
_symmetry_equiv_pos_as_xyz
'x,y,z'

loop_
_atom_site_label
_atom_site_type_symbol
_atom_site_fract_x
_atom_site_fract_y
_atom_site_fract_z
Pr11	Pr1	0.786970	0.473030	0.875780
Pr21	Pr2	0.778370	0.454550	0.766150
Pr31	Pr3	0.635580	0.395370	0.836360
Pr41	Pr4	0.584260	0.500620	0.817540
Pr51	Pr5	0.160540	0.737400	0.696890
Pr61	Pr6	0.786970	0.026970	0.624220
Pr71	Pr7	0.778370	0.045450	0.733850
Pr81	Pr8	0.635580	0.104630	0.663640
Pr91	Pr9	0.584260	0.999380	0.682460
Pr101	Pr10	0.160540	0.762600	0.803110
Pr111	Pr11	0.286970	0.124220	0.973030
Pr121	Pr12	0.278370	0.233850	0.954550
Pr131	Pr13	0.135580	0.163640	0.895370
Pr141	Pr14	0.084260	0.182460	0.000620
Pr151	Pr15	0.660540	0.303110	0.237400
Pr161	Pr16	0.286970	0.375780	0.526970
Pr171	Pr17	0.278370	0.266150	0.545450
Pr181	Pr18	0.135580	0.336360	0.604630
Pr191	Pr19	0.084260	0.317540	0.499380
Pr201	Pr20	0.660540	0.196890	0.262600
Pr211	Pr21	0.213030	0.526970	0.124220
Pr221	Pr22	0.221630	0.545450	0.233850
Pr231	Pr23	0.364420	0.604630	0.163640
Pr241	Pr24	0.415740	0.499380	0.182460
Pr251	Pr25	0.839460	0.262600	0.303110
Pr261	Pr26	0.213030	0.973030	0.375780
Pr271	Pr27	0.221630	0.954550	0.266150
Pr281	Pr28	0.364420	0.895370	0.336360
Pr291	Pr29	0.415740	0.000620	0.317540
Pr301	Pr30	0.839460	0.237400	0.196890
Pr311	Pr31	0.713030	0.875780	0.026970
Pr321	Pr32	0.721630	0.766150	0.045450
Pr331	Pr33	0.864420	0.836360	0.104630
Pr341	Pr34	0.915740	0.817540	0.999380
Pr351	Pr35	0.339460	0.696890	0.762600
Pr361	Pr36	0.713030	0.624220	0.473030
Pr371	Pr37	0.721630	0.733850	0.454550
Pr381	Pr38	0.864420	0.663640	0.395370
Pr391	Pr39	0.915740	0.682460	0.500620
Pr401	Pr40	0.339460	0.803110	0.737400
Sb11	Sb1	0.657870	0.425180	0.915350
Sb21	Sb2	0.617040	0.505550	0.901960
Sb31	Sb3	0.724300	0.548770	0.848610
Sb41	Sb4	0.870910	0.513120	0.811310
Sb51	Sb5	0.910220	0.433420	0.824720
Sb61	Sb6	0.803880	0.388470	0.876740
Sb71	Sb7	0.504950	0.446050	0.872540
Sb81	Sb8	0.717790	0.534200	0.766930
Sb91	Sb9	0.797100	0.374840	0.795210
Sb101	Sb10	0.605710	0.473970	0.737870
Sb111	Sb11	0.642520	0.393900	0.751680
Sb121	Sb12	0.496690	0.431160	0.790590
Sb131	Sb13	0.184960	0.658020	0.729940
Sb141	Sb14	0.183230	0.679400	0.810390
Sb151	Sb15	0.051170	0.709490	0.758520
Sb161	Sb16	0.657870	0.074820	0.584650
Sb171	Sb17	0.617040	0.994450	0.598040
Sb181	Sb18	0.724300	0.951230	0.651390
Sb191	Sb19	0.870910	0.986880	0.688690
Sb201	Sb20	0.910220	0.066580	0.675280
Sb211	Sb21	0.803880	0.111530	0.623260
Sb221	Sb22	0.504950	0.053950	0.627460
Sb231	Sb23	0.717790	0.965800	0.733070
Sb241	Sb24	0.797100	0.125160	0.704790
Sb251	Sb25	0.605710	0.026030	0.762130
Sb261	Sb26	0.642520	0.106100	0.748320
Sb271	Sb27	0.496690	0.068840	0.709410
Sb281	Sb28	0.184960	0.841980	0.770060
Sb291	Sb29	0.183230	0.820600	0.689610
Sb301	Sb30	0.051170	0.790510	0.741480
Sb311	Sb31	0.157870	0.084650	0.925180
Sb321	Sb32	0.117040	0.098040	0.005550
Sb331	Sb33	0.224300	0.151390	0.048770
Sb341	Sb34	0.370910	0.188690	0.013120
Sb351	Sb35	0.410220	0.175280	0.933420
Sb361	Sb36	0.303880	0.123260	0.888470
Sb371	Sb37	0.004950	0.127460	0.946050
Sb381	Sb38	0.217790	0.233070	0.034200
Sb391	Sb39	0.297100	0.204790	0.874840
Sb401	Sb40	0.105710	0.262130	0.973970
Sb411	Sb41	0.142520	0.248320	0.893900
Sb421	Sb42	0.996690	0.209410	0.931160
Sb431	Sb43	0.684960	0.270060	0.158020
Sb441	Sb44	0.683230	0.189610	0.179400
Sb451	Sb45	0.551170	0.241480	0.209490
Sb461	Sb46	0.157870	0.415350	0.574820
Sb471	Sb47	0.117040	0.401960	0.494450
Sb481	Sb48	0.224300	0.348610	0.451230
Sb491	Sb49	0.370910	0.311310	0.486880
Sb501	Sb50	0.410220	0.324720	0.566580
Sb511	Sb51	0.303880	0.376740	0.611530
Sb521	Sb52	0.004950	0.372540	0.553950
Sb531	Sb53	0.217790	0.266930	0.465800
Sb541	Sb54	0.297100	0.295210	0.625160
Sb551	Sb55	0.105710	0.237870	0.526030
Sb561	Sb56	0.142520	0.251680	0.606100
Sb571	Sb57	0.996690	0.290590	0.568840
Sb581	Sb58	0.684960	0.229940	0.341980
Sb591	Sb59	0.683230	0.310390	0.320600
Sb601	Sb60	0.551170	0.258520	0.290510
Sb611	Sb61	0.342130	0.574820	0.084650
Sb621	Sb62	0.382960	0.494450	0.098040
Sb631	Sb63	0.275700	0.451230	0.151390
Sb641	Sb64	0.129090	0.486880	0.188690
Sb651	Sb65	0.089780	0.566580	0.175280
Sb661	Sb66	0.196120	0.611530	0.123260
Sb671	Sb67	0.495050	0.553950	0.127460
Sb681	Sb68	0.282210	0.465800	0.233070
Sb691	Sb69	0.202900	0.625160	0.204790
Sb701	Sb70	0.394290	0.526030	0.262130
Sb711	Sb71	0.357480	0.606100	0.248320
Sb721	Sb72	0.503310	0.568840	0.209410
Sb731	Sb73	0.815040	0.341980	0.270060
Sb741	Sb74	0.816770	0.320600	0.189610
Sb751	Sb75	0.948830	0.290510	0.241480
Sb761	Sb76	0.342130	0.925180	0.415350
Sb771	Sb77	0.382960	0.005550	0.401960
Sb781	Sb78	0.275700	0.048770	0.348610
Sb791	Sb79	0.129090	0.013120	0.311310
Sb801	Sb80	0.089780	0.933420	0.324720
Sb811	Sb81	0.196120	0.888470	0.376740
Sb821	Sb82	0.495050	0.946050	0.372540
Sb831	Sb83	0.282210	0.034200	0.266930
Sb841	Sb84	0.202900	0.874840	0.295210
Sb851	Sb85	0.394290	0.973970	0.237870
Sb861	Sb86	0.357480	0.893900	0.251680
Sb871	Sb87	0.503310	0.931160	0.290590
Sb881	Sb88	0.815040	0.158020	0.229940
Sb891	Sb89	0.816770	0.179400	0.310390
Sb901	Sb90	0.948830	0.209490	0.258520
Sb911	Sb91	0.842130	0.915350	0.074820
Sb921	Sb92	0.882960	0.901960	0.994450
Sb931	Sb93	0.775700	0.848610	0.951230
Sb941	Sb94	0.629090	0.811310	0.986880
Sb951	Sb95	0.589780	0.824720	0.066580
Sb961	Sb96	0.696120	0.876740	0.111530
Sb971	Sb97	0.995050	0.872540	0.053950
Sb981	Sb98	0.782210	0.766930	0.965800
Sb991	Sb99	0.702900	0.795210	0.125160
Sb1001	Sb100	0.894290	0.737870	0.026030
Sb1011	Sb101	0.857480	0.751680	0.106100
Sb1021	Sb102	0.003310	0.790590	0.068840
Sb1031	Sb103	0.315040	0.729940	0.841980
Sb1041	Sb104	0.316770	0.810390	0.820600
Sb1051	Sb105	0.448830	0.758520	0.790510
Sb1061	Sb106	0.842130	0.584650	0.425180
Sb1071	Sb107	0.882960	0.598040	0.505550
Sb1081	Sb108	0.775700	0.651390	0.548770
Sb1091	Sb109	0.629090	0.688690	0.513120
Sb1101	Sb110	0.589780	0.675280	0.433420
Sb1111	Sb111	0.696120	0.623260	0.388470
Sb1121	Sb112	0.995050	0.627460	0.446050
Sb1131	Sb113	0.782210	0.733070	0.534200
Sb1141	Sb114	0.702900	0.704790	0.374840
Sb1151	Sb115	0.894290	0.762130	0.473970
Sb1161	Sb116	0.857480	0.748320	0.393900
Sb1171	Sb117	0.003310	0.709410	0.431160
Sb1181	Sb118	0.315040	0.770060	0.658020
Sb1191	Sb119	0.316770	0.689610	0.679400
Sb1201	Sb120	0.448830	0.741480	0.709490
H11	H1	0.428500	0.530300	0.756200
H21	H2	0.335700	0.561300	0.742300
H31	H3	0.463300	0.600700	0.904700
H41	H4	0.378300	0.638500	0.888500
H51	H5	0.011400	0.391400	0.665400
H61	H6	0.940000	0.414000	0.705300
H71	H7	0.428500	0.969700	0.743800
H81	H8	0.335700	0.938700	0.757700
H91	H9	0.463300	0.899300	0.595300
H101	H10	0.378300	0.861500	0.611500
H111	H11	0.011400	0.108600	0.834600
H121	H12	0.940000	0.086000	0.794700
H131	H13	0.928500	0.243800	0.030300
H141	H14	0.835700	0.257700	0.061300
H151	H15	0.963300	0.095300	0.100700
H161	H16	0.878300	0.111500	0.138500
H171	H17	0.511400	0.334600	0.891400
H181	H18	0.440000	0.294700	0.914000
H191	H19	0.928500	0.256200	0.469700
H201	H20	0.835700	0.242300	0.438700
H211	H21	0.963300	0.404700	0.399300
H221	H22	0.878300	0.388500	0.361500
H231	H23	0.511400	0.165400	0.608600
H241	H24	0.440000	0.205300	0.586000
H251	H25	0.571500	0.469700	0.243800
H261	H26	0.664300	0.438700	0.257700
H271	H27	0.536700	0.399300	0.095300
H281	H28	0.621700	0.361500	0.111500
H291	H29	0.988600	0.608600	0.334600
H301	H30	0.060000	0.586000	0.294700
H311	H31	0.571500	0.030300	0.256200
H321	H32	0.664300	0.061300	0.242300
H331	H33	0.536700	0.100700	0.404700
H341	H34	0.621700	0.138500	0.388500
H351	H35	0.988600	0.891400	0.165400
H361	H36	0.060000	0.914000	0.205300
H371	H37	0.071500	0.756200	0.969700
H381	H38	0.164300	0.742300	0.938700
H391	H39	0.036700	0.904700	0.899300
H401	H40	0.121700	0.888500	0.861500
H411	H41	0.488600	0.665400	0.108600
H421	H42	0.560000	0.705300	0.086000
H431	H43	0.071500	0.743800	0.530300
H441	H44	0.164300	0.757700	0.561300
H451	H45	0.036700	0.595300	0.600700
H461	H46	0.121700	0.611500	0.638500
H471	H47	0.488600	0.834600	0.391400
H481	H48	0.560000	0.794700	0.414000
C11	C1	0.556600	0.556600	0.759900
C21	C2	0.490100	0.568400	0.753300
C31	C3	0.431500	0.551200	0.752200
C41	C4	0.379700	0.569500	0.744600
C51	C5	0.389400	0.600600	0.739900
C61	C6	0.343500	0.624500	0.732500
C71	C7	0.529100	0.561700	0.859700
C81	C8	0.476500	0.587300	0.859200
C91	C9	0.450400	0.604000	0.884400
C101	C10	0.402300	0.626100	0.874800
C111	C11	0.393500	0.627900	0.844300
C121	C12	0.350700	0.650200	0.828200
C131	C13	0.961500	0.347300	0.626200
C141	C14	0.932900	0.364400	0.651800
C151	C15	0.965700	0.385700	0.668800
C161	C16	0.924700	0.398700	0.692100
C171	C17	0.860500	0.386400	0.693300
C181	C18	0.804600	0.393700	0.715600
C191	C19	0.556600	0.943400	0.740100
C201	C20	0.490100	0.931600	0.746700
C211	C21	0.431500	0.948800	0.747800
C221	C22	0.379700	0.930500	0.755400
C231	C23	0.389400	0.899400	0.760100
C241	C24	0.343500	0.875500	0.767500
C251	C25	0.529100	0.938300	0.640300
C261	C26	0.476500	0.912700	0.640800
C271	C27	0.450400	0.896000	0.615600
C281	C28	0.402300	0.873900	0.625200
C291	C29	0.393500	0.872100	0.655700
C301	C30	0.350700	0.849800	0.671800
C311	C31	0.961500	0.152700	0.873800
C321	C32	0.932900	0.135600	0.848200
C331	C33	0.965700	0.114300	0.831200
C341	C34	0.924700	0.101300	0.807900
C351	C35	0.860500	0.113600	0.806700
C361	C36	0.804600	0.106300	0.784400
C371	C37	0.056600	0.240100	0.056600
C381	C38	0.990100	0.246700	0.068400
C391	C39	0.931500	0.247800	0.051200
C401	C40	0.879700	0.255400	0.069500
C411	C41	0.889400	0.260100	0.100600
C421	C42	0.843500	0.267500	0.124500
C431	C43	0.029100	0.140300	0.061700
C441	C44	0.976500	0.140800	0.087300
C451	C45	0.950400	0.115600	0.104000
C461	C46	0.902300	0.125200	0.126100
C471	C47	0.893500	0.155700	0.127900
C481	C48	0.850700	0.171800	0.150200
C491	C49	0.461500	0.373800	0.847300
C501	C50	0.432900	0.348200	0.864400
C511	C51	0.465700	0.331200	0.885700
C521	C52	0.424700	0.307900	0.898700
C531	C53	0.360500	0.306700	0.886400
C541	C54	0.304600	0.284400	0.893700
C551	C55	0.056600	0.259900	0.443400
C561	C56	0.990100	0.253300	0.431600
C571	C57	0.931500	0.252200	0.448800
C581	C58	0.879700	0.244600	0.430500
C591	C59	0.889400	0.239900	0.399400
C601	C60	0.843500	0.232500	0.375500
C611	C61	0.029100	0.359700	0.438300
C621	C62	0.976500	0.359200	0.412700
C631	C63	0.950400	0.384400	0.396000
C641	C64	0.902300	0.374800	0.373900
C651	C65	0.893500	0.344300	0.372100
C661	C66	0.850700	0.328200	0.349800
C671	C67	0.461500	0.126200	0.652700
C681	C68	0.432900	0.151800	0.635600
C691	C69	0.465700	0.168800	0.614300
C701	C70	0.424700	0.192100	0.601300
C711	C71	0.360500	0.193300	0.613600
C721	C72	0.304600	0.215600	0.606300
C731	C73	0.443400	0.443400	0.240100
C741	C74	0.509900	0.431600	0.246700
C751	C75	0.568500	0.448800	0.247800
C761	C76	0.620300	0.430500	0.255400
C771	C77	0.610600	0.399400	0.260100
C781	C78	0.656500	0.375500	0.267500
C791	C79	0.470900	0.438300	0.140300
C801	C80	0.523500	0.412700	0.140800
C811	C81	0.549600	0.396000	0.115600
C821	C82	0.597700	0.373900	0.125200
C831	C83	0.606500	0.372100	0.155700
C841	C84	0.649300	0.349800	0.171800
C851	C85	0.038500	0.652700	0.373800
C861	C86	0.067100	0.635600	0.348200
C871	C87	0.034300	0.614300	0.331200
C881	C88	0.075300	0.601300	0.307900
C891	C89	0.139500	0.613600	0.306700
C901	C90	0.195400	0.606300	0.284400
C911	C91	0.443400	0.056600	0.259900
C921	C92	0.509900	0.068400	0.253300
C931	C93	0.568500	0.051200	0.252200
C941	C94	0.620300	0.069500	0.244600
C951	C95	0.610600	0.100600	0.239900
C961	C96	0.656500	0.124500	0.232500
C971	C97	0.470900	0.061700	0.359700
C981	C98	0.523500	0.087300	0.359200
C991	C99	0.549600	0.104000	0.384400
C1001	C100	0.597700	0.126100	0.374800
C1011	C101	0.606500	0.127900	0.344300
C1021	C102	0.649300	0.150200	0.328200
C1031	C103	0.038500	0.847300	0.126200
C1041	C104	0.067100	0.864400	0.151800
C1051	C105	0.034300	0.885700	0.168800
C1061	C106	0.075300	0.898700	0.192100
C1071	C107	0.139500	0.886400	0.193300
C1081	C108	0.195400	0.893700	0.215600
C1091	C109	0.943400	0.759900	0.943400
C1101	C110	0.009900	0.753300	0.931600
C1111	C111	0.068500	0.752200	0.948800
C1121	C112	0.120300	0.744600	0.930500
C1131	C113	0.110600	0.739900	0.899400
C1141	C114	0.156500	0.732500	0.875500
C1151	C115	0.970900	0.859700	0.938300
C1161	C116	0.023500	0.859200	0.912700
C1171	C117	0.049600	0.884400	0.896000
C1181	C118	0.097700	0.874800	0.873900
C1191	C119	0.106500	0.844300	0.872100
C1201	C120	0.149300	0.828200	0.849800
C1211	C121	0.538500	0.626200	0.152700
C1221	C122	0.567100	0.651800	0.135600
C1231	C123	0.534300	0.668800	0.114300
C1241	C124	0.575300	0.692100	0.101300
C1251	C125	0.639500	0.693300	0.113600
C1261	C126	0.695400	0.715600	0.106300
C1271	C127	0.943400	0.740100	0.556600
C1281	C128	0.009900	0.746700	0.568400
C1291	C129	0.068500	0.747800	0.551200
C1301	C130	0.120300	0.755400	0.569500
C1311	C131	0.110600	0.760100	0.600600
C1321	C132	0.156500	0.767500	0.624500
C1331	C133	0.970900	0.640300	0.561700
C1341	C134	0.023500	0.640800	0.587300
C1351	C135	0.049600	0.615600	0.604000
C1361	C136	0.097700	0.625200	0.626100
C1371	C137	0.106500	0.655700	0.627900
C1381	C138	0.149300	0.671800	0.650200
C1391	C139	0.538500	0.873800	0.347300
C1401	C140	0.567100	0.848200	0.364400
C1411	C141	0.534300	0.831200	0.385700
C1421	C142	0.575300	0.807900	0.398700
C1431	C143	0.639500	0.806700	0.386400
C1441	C144	0.695400	0.784400	0.393700
S11	S1	0.848900	0.359560	0.664850
S21	S2	0.441500	0.600820	0.825820
S31	S3	0.475100	0.605770	0.744700
S41	S4	0.848900	0.140440	0.835150
S51	S5	0.441500	0.899180	0.674180
S61	S6	0.475100	0.894230	0.755300
S71	S7	0.348900	0.335150	0.859560
S81	S8	0.941500	0.174180	0.100820
S91	S9	0.975100	0.255300	0.105770
S101	S10	0.348900	0.164850	0.640440
S111	S11	0.941500	0.325820	0.399180
S121	S12	0.975100	0.244700	0.394230
S131	S13	0.151100	0.640440	0.335150
S141	S14	0.558500	0.399180	0.174180
S151	S15	0.524900	0.394230	0.255300
S161	S16	0.151100	0.859560	0.164850
S171	S17	0.558500	0.100820	0.325820
S181	S18	0.524900	0.105770	0.244700
S191	S19	0.651100	0.664850	0.140440
S201	S20	0.058500	0.825820	0.899180
S211	S21	0.024900	0.744700	0.894230
S221	S22	0.651100	0.835150	0.359560
S231	S23	0.058500	0.674180	0.600820
S241	S24	0.024900	0.755300	0.605770
Cl11	Cl1	0.695900	0.455700	0.824900
Cl21	Cl2	0.932000	0.489100	0.877330
Cl31	Cl3	0.820600	0.441750	0.932080
Cl41	Cl4	0.771800	0.527980	0.915150
Cl51	Cl5	0.930800	0.470150	0.762170
Cl61	Cl6	0.761300	0.487670	0.708720
Cl71	Cl7	0.649000	0.339300	0.800040
Cl81	Cl8	0.663700	0.354460	0.890130
Cl91	Cl9	0.430500	0.489130	0.820930
Cl101	Cl10	0.003000	0.735140	0.696860
Cl111	Cl11	0.695900	0.044300	0.675100
Cl121	Cl12	0.932000	0.010900	0.622670
Cl131	Cl13	0.820600	0.058250	0.567920
Cl141	Cl14	0.771800	0.972020	0.584850
Cl151	Cl15	0.930800	0.029850	0.737830
Cl161	Cl16	0.761300	0.012330	0.791280
Cl171	Cl17	0.649000	0.160700	0.699960
Cl181	Cl18	0.663700	0.145540	0.609870
Cl191	Cl19	0.430500	0.010870	0.679070
Cl201	Cl20	0.003000	0.764860	0.803140
Cl211	Cl21	0.195900	0.175100	0.955700
Cl221	Cl22	0.432000	0.122670	0.989100
Cl231	Cl23	0.320600	0.067920	0.941750
Cl241	Cl24	0.271800	0.084850	0.027980
Cl251	Cl25	0.430800	0.237830	0.970150
Cl261	Cl26	0.261300	0.291280	0.987670
Cl271	Cl27	0.149000	0.199960	0.839300
Cl281	Cl28	0.163700	0.109870	0.854460
Cl291	Cl29	0.930500	0.179070	0.989130
Cl301	Cl30	0.503000	0.303140	0.235140
Cl311	Cl31	0.195900	0.324900	0.544300
Cl321	Cl32	0.432000	0.377330	0.510900
Cl331	Cl33	0.320600	0.432080	0.558250
Cl341	Cl34	0.271800	0.415150	0.472020
Cl351	Cl35	0.430800	0.262170	0.529850
Cl361	Cl36	0.261300	0.208720	0.512330
Cl371	Cl37	0.149000	0.300040	0.660700
Cl381	Cl38	0.163700	0.390130	0.645540
Cl391	Cl39	0.930500	0.320930	0.510870
Cl401	Cl40	0.503000	0.196860	0.264860
Cl411	Cl41	0.304100	0.544300	0.175100
Cl421	Cl42	0.068000	0.510900	0.122670
Cl431	Cl43	0.179400	0.558250	0.067920
Cl441	Cl44	0.228200	0.472020	0.084850
Cl451	Cl45	0.069200	0.529850	0.237830
Cl461	Cl46	0.238700	0.512330	0.291280
Cl471	Cl47	0.351000	0.660700	0.199960
Cl481	Cl48	0.336300	0.645540	0.109870
Cl491	Cl49	0.569500	0.510870	0.179070
Cl501	Cl50	0.997000	0.264860	0.303140
Cl511	Cl51	0.304100	0.955700	0.324900
Cl521	Cl52	0.068000	0.989100	0.377330
Cl531	Cl53	0.179400	0.941750	0.432080
Cl541	Cl54	0.228200	0.027980	0.415150
Cl551	Cl55	0.069200	0.970150	0.262170
Cl561	Cl56	0.238700	0.987670	0.208720
Cl571	Cl57	0.351000	0.839300	0.300040
Cl581	Cl58	0.336300	0.854460	0.390130
Cl591	Cl59	0.569500	0.989130	0.320930
Cl601	Cl60	0.997000	0.235140	0.196860
Cl611	Cl61	0.804100	0.824900	0.044300
Cl621	Cl62	0.568000	0.877330	0.010900
Cl631	Cl63	0.679400	0.932080	0.058250
Cl641	Cl64	0.728200	0.915150	0.972020
Cl651	Cl65	0.569200	0.762170	0.029850
Cl661	Cl66	0.738700	0.708720	0.012330
Cl671	Cl67	0.851000	0.800040	0.160700
Cl681	Cl68	0.836300	0.890130	0.145540
Cl691	Cl69	0.069500	0.820930	0.010870
Cl701	Cl70	0.497000	0.696860	0.764860
Cl711	Cl71	0.804100	0.675100	0.455700
Cl721	Cl72	0.568000	0.622670	0.489100
Cl731	Cl73	0.679400	0.567920	0.441750
Cl741	Cl74	0.728200	0.584850	0.527980
Cl751	Cl75	0.569200	0.737830	0.470150
Cl761	Cl76	0.738700	0.791280	0.487670
Cl771	Cl77	0.851000	0.699960	0.339300
Cl781	Cl78	0.836300	0.609870	0.354460
Cl791	Cl79	0.069500	0.679070	0.489130
Cl801	Cl80	0.497000	0.803140	0.735140
Cl811	Cl81	0.250000	0.750000	0.750000
Cl821	Cl82	0.750000	0.250000	0.250000
O11	O1	0.668700	0.513400	0.863000
O21	O2	0.801900	0.520300	0.844400
O31	O3	0.848100	0.469700	0.820800
O41	O4	0.851700	0.426100	0.861900
O51	O5	0.725400	0.417800	0.881500
O61	O6	0.678800	0.468400	0.905100
O71	O7	0.552600	0.485600	0.871800
O81	O8	0.682200	0.536900	0.809300
O91	O9	0.800500	0.509100	0.779400
O101	O10	0.845100	0.415000	0.795300
O111	O11	0.758400	0.379200	0.837000
O121	O12	0.587400	0.421200	0.883000
O131	O13	0.543100	0.440800	0.830100
O141	O14	0.672700	0.492900	0.767800
O151	O15	0.716400	0.400200	0.782400
O161	O16	0.578300	0.403500	0.786100
O171	O17	0.550400	0.467000	0.775300
O181	O18	0.664400	0.437100	0.742000
O191	O19	0.250300	0.689000	0.714100
O201	O20	0.118700	0.694000	0.728400
O211	O21	0.118300	0.710100	0.793200
O221	O22	0.226700	0.669500	0.770800
O231	O23	0.560500	0.530300	0.768200
O241	O24	0.607800	0.574400	0.756800
O251	O25	0.281500	0.619000	0.726700
O261	O26	0.363300	0.650500	0.733200
O271	O27	0.554300	0.555800	0.884200
O281	O28	0.539300	0.548700	0.834600
O291	O29	0.304400	0.662900	0.841700
O301	O30	0.364600	0.656900	0.801100
O311	O31	0.025600	0.344600	0.625800
O321	O32	0.921700	0.334700	0.607600
O331	O33	0.816100	0.417800	0.730600
O341	O34	0.752600	0.378100	0.716800
O351	O35	0.668700	0.986600	0.637000
O361	O36	0.801900	0.979700	0.655600
O371	O37	0.848100	0.030300	0.679200
O381	O38	0.851700	0.073900	0.638100
O391	O39	0.725400	0.082200	0.618500
O401	O40	0.678800	0.031600	0.594900
O411	O41	0.552600	0.014400	0.628200
O421	O42	0.682200	0.963100	0.690700
O431	O43	0.800500	0.990900	0.720600
O441	O44	0.845100	0.085000	0.704700
O451	O45	0.758400	0.120800	0.663000
O461	O46	0.587400	0.078800	0.617000
O471	O47	0.543100	0.059200	0.669900
O481	O48	0.672700	0.007100	0.732200
O491	O49	0.716400	0.099800	0.717600
O501	O50	0.578300	0.096500	0.713900
O511	O51	0.550400	0.033000	0.724700
O521	O52	0.664400	0.062900	0.758000
O531	O53	0.250300	0.811000	0.785900
O541	O54	0.118700	0.806000	0.771600
O551	O55	0.118300	0.789900	0.706800
O561	O56	0.226700	0.830500	0.729200
O571	O57	0.560500	0.969700	0.731800
O581	O58	0.607800	0.925600	0.743200
O591	O59	0.281500	0.881000	0.773300
O601	O60	0.363300	0.849500	0.766800
O611	O61	0.554300	0.944200	0.615800
O621	O62	0.539300	0.951300	0.665400
O631	O63	0.304400	0.837100	0.658300
O641	O64	0.364600	0.843100	0.698900
O651	O65	0.025600	0.155400	0.874200
O661	O66	0.921700	0.165300	0.892400
O671	O67	0.816100	0.082200	0.769400
O681	O68	0.752600	0.121900	0.783200
O691	O69	0.168700	0.137000	0.013400
O701	O70	0.301900	0.155600	0.020300
O711	O71	0.348100	0.179200	0.969700
O721	O72	0.351700	0.138100	0.926100
O731	O73	0.225400	0.118500	0.917800
O741	O74	0.178800	0.094900	0.968400
O751	O75	0.052600	0.128200	0.985600
O761	O76	0.182200	0.190700	0.036900
O771	O77	0.300500	0.220600	0.009100
O781	O78	0.345100	0.204700	0.915000
O791	O79	0.258400	0.163000	0.879200
O801	O80	0.087400	0.117000	0.921200
O811	O81	0.043100	0.169900	0.940800
O821	O82	0.172700	0.232200	0.992900
O831	O83	0.216400	0.217600	0.900200
O841	O84	0.078300	0.213900	0.903500
O851	O85	0.050400	0.224700	0.967000
O861	O86	0.164400	0.258000	0.937100
O871	O87	0.750300	0.285900	0.189000
O881	O88	0.618700	0.271600	0.194000
O891	O89	0.618300	0.206800	0.210100
O901	O90	0.726700	0.229200	0.169500
O911	O91	0.060500	0.231800	0.030300
O921	O92	0.107800	0.243200	0.074400
O931	O93	0.781500	0.273300	0.119000
O941	O94	0.863300	0.266800	0.150500
O951	O95	0.054300	0.115800	0.055800
O961	O96	0.039300	0.165400	0.048700
O971	O97	0.804400	0.158300	0.162900
O981	O98	0.864600	0.198900	0.156900
O991	O99	0.525600	0.374200	0.844600
O1001	O100	0.421700	0.392400	0.834700
O1011	O101	0.316100	0.269400	0.917800
O1021	O102	0.252600	0.283200	0.878100
O1031	O103	0.168700	0.363000	0.486600
O1041	O104	0.301900	0.344400	0.479700
O1051	O105	0.348100	0.320800	0.530300
O1061	O106	0.351700	0.361900	0.573900
O1071	O107	0.225400	0.381500	0.582200
O1081	O108	0.178800	0.405100	0.531600
O1091	O109	0.052600	0.371800	0.514400
O1101	O110	0.182200	0.309300	0.463100
O1111	O111	0.300500	0.279400	0.490900
O1121	O112	0.345100	0.295300	0.585000
O1131	O113	0.258400	0.337000	0.620800
O1141	O114	0.087400	0.383000	0.578800
O1151	O115	0.043100	0.330100	0.559200
O1161	O116	0.172700	0.267800	0.507100
O1171	O117	0.216400	0.282400	0.599800
O1181	O118	0.078300	0.286100	0.596500
O1191	O119	0.050400	0.275300	0.533000
O1201	O120	0.164400	0.242000	0.562900
O1211	O121	0.750300	0.214100	0.311000
O1221	O122	0.618700	0.228400	0.306000
O1231	O123	0.618300	0.293200	0.289900
O1241	O124	0.726700	0.270800	0.330500
O1251	O125	0.060500	0.268200	0.469700
O1261	O126	0.107800	0.256800	0.425600
O1271	O127	0.781500	0.226700	0.381000
O1281	O128	0.863300	0.233200	0.349500
O1291	O129	0.054300	0.384200	0.444200
O1301	O130	0.039300	0.334600	0.451300
O1311	O131	0.804400	0.341700	0.337100
O1321	O132	0.864600	0.301100	0.343100
O1331	O133	0.525600	0.125800	0.655400
O1341	O134	0.421700	0.107600	0.665300
O1351	O135	0.316100	0.230600	0.582200
O1361	O136	0.252600	0.216800	0.621900
O1371	O137	0.331300	0.486600	0.137000
O1381	O138	0.198100	0.479700	0.155600
O1391	O139	0.151900	0.530300	0.179200
O1401	O140	0.148300	0.573900	0.138100
O1411	O141	0.274600	0.582200	0.118500
O1421	O142	0.321200	0.531600	0.094900
O1431	O143	0.447400	0.514400	0.128200
O1441	O144	0.317800	0.463100	0.190700
O1451	O145	0.199500	0.490900	0.220600
O1461	O146	0.154900	0.585000	0.204700
O1471	O147	0.241600	0.620800	0.163000
O1481	O148	0.412600	0.578800	0.117000
O1491	O149	0.456900	0.559200	0.169900
O1501	O150	0.327300	0.507100	0.232200
O1511	O151	0.283600	0.599800	0.217600
O1521	O152	0.421700	0.596500	0.213900
O1531	O153	0.449600	0.533000	0.224700
O1541	O154	0.335600	0.562900	0.258000
O1551	O155	0.749700	0.311000	0.285900
O1561	O156	0.881300	0.306000	0.271600
O1571	O157	0.881700	0.289900	0.206800
O1581	O158	0.773300	0.330500	0.229200
O1591	O159	0.439500	0.469700	0.231800
O1601	O160	0.392200	0.425600	0.243200
O1611	O161	0.718500	0.381000	0.273300
O1621	O162	0.636700	0.349500	0.266800
O1631	O163	0.445700	0.444200	0.115800
O1641	O164	0.460700	0.451300	0.165400
O1651	O165	0.695600	0.337100	0.158300
O1661	O166	0.635400	0.343100	0.198900
O1671	O167	0.974400	0.655400	0.374200
O1681	O168	0.078300	0.665300	0.392400
O1691	O169	0.183900	0.582200	0.269400
O1701	O170	0.247400	0.621900	0.283200
O1711	O171	0.331300	0.013400	0.363000
O1721	O172	0.198100	0.020300	0.344400
O1731	O173	0.151900	0.969700	0.320800
O1741	O174	0.148300	0.926100	0.361900
O1751	O175	0.274600	0.917800	0.381500
O1761	O176	0.321200	0.968400	0.405100
O1771	O177	0.447400	0.985600	0.371800
O1781	O178	0.317800	0.036900	0.309300
O1791	O179	0.199500	0.009100	0.279400
O1801	O180	0.154900	0.915000	0.295300
O1811	O181	0.241600	0.879200	0.337000
O1821	O182	0.412600	0.921200	0.383000
O1831	O183	0.456900	0.940800	0.330100
O1841	O184	0.327300	0.992900	0.267800
O1851	O185	0.283600	0.900200	0.282400
O1861	O186	0.421700	0.903500	0.286100
O1871	O187	0.449600	0.967000	0.275300
O1881	O188	0.335600	0.937100	0.242000
O1891	O189	0.749700	0.189000	0.214100
O1901	O190	0.881300	0.194000	0.228400
O1911	O191	0.881700	0.210100	0.293200
O1921	O192	0.773300	0.169500	0.270800
O1931	O193	0.439500	0.030300	0.268200
O1941	O194	0.392200	0.074400	0.256800
O1951	O195	0.718500	0.119000	0.226700
O1961	O196	0.636700	0.150500	0.233200
O1971	O197	0.445700	0.055800	0.384200
O1981	O198	0.460700	0.048700	0.334600
O1991	O199	0.695600	0.162900	0.341700
O2001	O200	0.635400	0.156900	0.301100
O2011	O201	0.974400	0.844600	0.125800
O2021	O202	0.078300	0.834700	0.107600
O2031	O203	0.183900	0.917800	0.230600
O2041	O204	0.247400	0.878100	0.216800
O2051	O205	0.831300	0.863000	0.986600
O2061	O206	0.698100	0.844400	0.979700
O2071	O207	0.651900	0.820800	0.030300
O2081	O208	0.648300	0.861900	0.073900
O2091	O209	0.774600	0.881500	0.082200
O2101	O210	0.821200	0.905100	0.031600
O2111	O211	0.947400	0.871800	0.014400
O2121	O212	0.817800	0.809300	0.963100
O2131	O213	0.699500	0.779400	0.990900
O2141	O214	0.654900	0.795300	0.085000
O2151	O215	0.741600	0.837000	0.120800
O2161	O216	0.912600	0.883000	0.078800
O2171	O217	0.956900	0.830100	0.059200
O2181	O218	0.827300	0.767800	0.007100
O2191	O219	0.783600	0.782400	0.099800
O2201	O220	0.921700	0.786100	0.096500
O2211	O221	0.949600	0.775300	0.033000
O2221	O222	0.835600	0.742000	0.062900
O2231	O223	0.249700	0.714100	0.811000
O2241	O224	0.381300	0.728400	0.806000
O2251	O225	0.381700	0.793200	0.789900
O2261	O226	0.273300	0.770800	0.830500
O2271	O227	0.939500	0.768200	0.969700
O2281	O228	0.892200	0.756800	0.925600
O2291	O229	0.218500	0.726700	0.881000
O2301	O230	0.136700	0.733200	0.849500
O2311	O231	0.945700	0.884200	0.944200
O2321	O232	0.960700	0.834600	0.951300
O2331	O233	0.195600	0.841700	0.837100
O2341	O234	0.135400	0.801100	0.843100
O2351	O235	0.474400	0.625800	0.155400
O2361	O236	0.578300	0.607600	0.165300
O2371	O237	0.683900	0.730600	0.082200
O2381	O238	0.747400	0.716800	0.121900
O2391	O239	0.831300	0.637000	0.513400
O2401	O240	0.698100	0.655600	0.520300
O2411	O241	0.651900	0.679200	0.469700
O2421	O242	0.648300	0.638100	0.426100
O2431	O243	0.774600	0.618500	0.417800
O2441	O244	0.821200	0.594900	0.468400
O2451	O245	0.947400	0.628200	0.485600
O2461	O246	0.817800	0.690700	0.536900
O2471	O247	0.699500	0.720600	0.509100
O2481	O248	0.654900	0.704700	0.415000
O2491	O249	0.741600	0.663000	0.379200
O2501	O250	0.912600	0.617000	0.421200
O2511	O251	0.956900	0.669900	0.440800
O2521	O252	0.827300	0.732200	0.492900
O2531	O253	0.783600	0.717600	0.400200
O2541	O254	0.921700	0.713900	0.403500
O2551	O255	0.949600	0.724700	0.467000
O2561	O256	0.835600	0.758000	0.437100
O2571	O257	0.249700	0.785900	0.689000
O2581	O258	0.381300	0.771600	0.694000
O2591	O259	0.381700	0.706800	0.710100
O2601	O260	0.273300	0.729200	0.669500
O2611	O261	0.939500	0.731800	0.530300
O2621	O262	0.892200	0.743200	0.574400
O2631	O263	0.218500	0.773300	0.619000
O2641	O264	0.136700	0.766800	0.650500
O2651	O265	0.945700	0.615800	0.555800
O2661	O266	0.960700	0.665400	0.548700
O2671	O267	0.195600	0.658300	0.662900
O2681	O268	0.135400	0.698900	0.656900
O2691	O269	0.474400	0.874200	0.344600
O2701	O270	0.578300	0.892400	0.334700
O2711	O271	0.683900	0.769400	0.417800
O2721	O272	0.747400	0.783200	0.378100
O2731	O273	0.096500	0.750000	0.750000
O2741	O274	0.596500	0.250000	0.250000
O2751	O275	0.903500	0.250000	0.250000
O2761	O276	0.403500	0.750000	0.750000
