data_VEJHID_clean_PM
_symmetry_space_group_name_H-M	'P1'
_cell_length_a	22.521000
_cell_length_b	22.521000
_cell_length_c	22.521000
_cell_angle_alpha	90.000000
_cell_angle_beta	90.000000
_cell_angle_gamma	90.000000
_symmetry_Int_Tables_number 1

loop_
_symmetry_equiv_pos_as_xyz
'x,y,z'

loop_
_atom_site_label
_atom_site_type_symbol
_atom_site_fract_x
_atom_site_fract_y
_atom_site_fract_z
Cd11	Cd1	0.285340	0.285340	0.714660
Cd21	Cd2	0.714660	0.714660	0.714660
Cd31	Cd3	0.714660	0.285340	0.285340
Cd41	Cd4	0.285340	0.714660	0.285340
Cd51	Cd5	0.285340	0.285340	0.285340
Cd61	Cd6	0.714660	0.714660	0.285340
Cd71	Cd7	0.285340	0.714660	0.714660
Cd81	Cd8	0.714660	0.285340	0.714660
Cd91	Cd9	0.000000	0.000000	0.538000
Cd101	Cd10	0.000000	0.000000	0.462000
Cd111	Cd11	0.538000	0.000000	0.000000
Cd121	Cd12	0.462000	0.000000	0.000000
Cd131	Cd13	0.000000	0.538000	0.000000
Cd141	Cd14	0.000000	0.462000	0.000000
N11	N1	0.000000	0.095700	0.500000
N21	N2	0.000000	0.904300	0.500000
N31	N3	0.500000	0.000000	0.095700
N41	N4	0.500000	0.000000	0.904300
N51	N5	0.095700	0.500000	0.000000
N61	N6	0.904300	0.500000	0.000000
N71	N7	0.095700	0.000000	0.500000
N81	N8	0.904300	0.000000	0.500000
N91	N9	0.000000	0.500000	0.904300
N101	N10	0.000000	0.500000	0.095700
N111	N11	0.500000	0.095700	0.000000
N121	N12	0.500000	0.904300	0.000000
O11	O1	0.225100	0.225100	0.655400
C11	C1	0.221600	0.221600	0.553000
C21	C2	0.177700	0.177700	0.553100
H11	H1	0.163200	0.163200	0.588900
O21	O2	0.282900	0.282900	0.607600
C31	C3	0.244500	0.244500	0.610600
O31	O3	0.774900	0.774900	0.655400
C41	C4	0.778400	0.778400	0.553000
C51	C5	0.822300	0.822300	0.553100
H21	H2	0.836800	0.836800	0.588900
O41	O4	0.717100	0.717100	0.607600
C61	C6	0.755500	0.755500	0.610600
O51	O5	0.774900	0.225100	0.344600
C71	C7	0.778400	0.221600	0.447000
C81	C8	0.822300	0.177700	0.446900
H31	H3	0.836800	0.163200	0.411100
O61	O6	0.717100	0.282900	0.392400
C91	C9	0.755500	0.244500	0.389400
O71	O7	0.225100	0.774900	0.344600
C101	C10	0.221600	0.778400	0.447000
C111	C11	0.177700	0.822300	0.446900
H41	H4	0.163200	0.836800	0.411100
O81	O8	0.282900	0.717100	0.392400
C121	C12	0.244500	0.755500	0.389400
O91	O9	0.655400	0.225100	0.225100
C131	C13	0.553000	0.221600	0.221600
C141	C14	0.553100	0.177700	0.177700
H51	H5	0.588900	0.163200	0.163200
O101	O10	0.607600	0.282900	0.282900
C151	C15	0.610600	0.244500	0.244500
O111	O11	0.655400	0.774900	0.774900
C161	C16	0.553000	0.778400	0.778400
C171	C17	0.553100	0.822300	0.822300
H61	H6	0.588900	0.836800	0.836800
O121	O12	0.607600	0.717100	0.717100
C181	C18	0.610600	0.755500	0.755500
O131	O13	0.344600	0.774900	0.225100
C191	C19	0.447000	0.778400	0.221600
C201	C20	0.446900	0.822300	0.177700
H71	H7	0.411100	0.836800	0.163200
O141	O14	0.392400	0.717100	0.282900
C211	C21	0.389400	0.755500	0.244500
O151	O15	0.344600	0.225100	0.774900
C221	C22	0.447000	0.221600	0.778400
C231	C23	0.446900	0.177700	0.822300
H81	H8	0.411100	0.163200	0.836800
O161	O16	0.392400	0.282900	0.717100
C241	C24	0.389400	0.244500	0.755500
O171	O17	0.225100	0.655400	0.225100
C251	C25	0.221600	0.553000	0.221600
C261	C26	0.177700	0.553100	0.177700
H91	H9	0.163200	0.588900	0.163200
O181	O18	0.282900	0.607600	0.282900
C271	C27	0.244500	0.610600	0.244500
O191	O19	0.774900	0.655400	0.774900
C281	C28	0.778400	0.553000	0.778400
C291	C29	0.822300	0.553100	0.822300
H101	H10	0.836800	0.588900	0.836800
O201	O20	0.717100	0.607600	0.717100
C301	C30	0.755500	0.610600	0.755500
O211	O21	0.225100	0.344600	0.774900
C311	C31	0.221600	0.447000	0.778400
C321	C32	0.177700	0.446900	0.822300
H111	H11	0.163200	0.411100	0.836800
O221	O22	0.282900	0.392400	0.717100
C331	C33	0.244500	0.389400	0.755500
O231	O23	0.774900	0.344600	0.225100
C341	C34	0.778400	0.447000	0.221600
C351	C35	0.822300	0.446900	0.177700
H121	H12	0.836800	0.411100	0.163200
O241	O24	0.717100	0.392400	0.282900
C361	C36	0.755500	0.389400	0.244500
O251	O25	0.225100	0.225100	0.344600
C371	C37	0.221600	0.221600	0.447000
C381	C38	0.177700	0.177700	0.446900
H131	H13	0.163200	0.163200	0.411100
O261	O26	0.282900	0.282900	0.392400
C391	C39	0.244500	0.244500	0.389400
O271	O27	0.774900	0.774900	0.344600
C401	C40	0.778400	0.778400	0.447000
C411	C41	0.822300	0.822300	0.446900
H141	H14	0.836800	0.836800	0.411100
O281	O28	0.717100	0.717100	0.392400
C421	C42	0.755500	0.755500	0.389400
O291	O29	0.225100	0.774900	0.655400
C431	C43	0.221600	0.778400	0.553000
C441	C44	0.177700	0.822300	0.553100
H151	H15	0.163200	0.836800	0.588900
O301	O30	0.282900	0.717100	0.607600
C451	C45	0.244500	0.755500	0.610600
O311	O31	0.774900	0.225100	0.655400
C461	C46	0.778400	0.221600	0.553000
C471	C47	0.822300	0.177700	0.553100
H161	H16	0.836800	0.163200	0.588900
O321	O32	0.717100	0.282900	0.607600
C481	C48	0.755500	0.244500	0.610600
O331	O33	0.225100	0.655400	0.774900
C491	C49	0.221600	0.553000	0.778400
C501	C50	0.177700	0.553100	0.822300
H171	H17	0.163200	0.588900	0.836800
O341	O34	0.282900	0.607600	0.717100
C511	C51	0.244500	0.610600	0.755500
O351	O35	0.774900	0.655400	0.225100
C521	C52	0.778400	0.553000	0.221600
C531	C53	0.822300	0.553100	0.177700
H181	H18	0.836800	0.588900	0.163200
O361	O36	0.717100	0.607600	0.282900
C541	C54	0.755500	0.610600	0.244500
O371	O37	0.774900	0.344600	0.774900
C551	C55	0.778400	0.447000	0.778400
C561	C56	0.822300	0.446900	0.822300
H191	H19	0.836800	0.411100	0.836800
O381	O38	0.717100	0.392400	0.717100
C571	C57	0.755500	0.389400	0.755500
O391	O39	0.225100	0.344600	0.225100
C581	C58	0.221600	0.447000	0.221600
C591	C59	0.177700	0.446900	0.177700
H201	H20	0.163200	0.411100	0.163200
O401	O40	0.282900	0.392400	0.282900
C601	C60	0.244500	0.389400	0.244500
O411	O41	0.655400	0.225100	0.774900
C611	C61	0.553000	0.221600	0.778400
C621	C62	0.553100	0.177700	0.822300
H211	H21	0.588900	0.163200	0.836800
O421	O42	0.607600	0.282900	0.717100
C631	C63	0.610600	0.244500	0.755500
O431	O43	0.655400	0.774900	0.225100
C641	C64	0.553000	0.778400	0.221600
C651	C65	0.553100	0.822300	0.177700
H221	H22	0.588900	0.836800	0.163200
O441	O44	0.607600	0.717100	0.282900
C661	C66	0.610600	0.755500	0.244500
O451	O45	0.344600	0.225100	0.225100
C671	C67	0.447000	0.221600	0.221600
C681	C68	0.446900	0.177700	0.177700
H231	H23	0.411100	0.163200	0.163200
O461	O46	0.392400	0.282900	0.282900
C691	C69	0.389400	0.244500	0.244500
O471	O47	0.344600	0.774900	0.774900
C701	C70	0.447000	0.778400	0.778400
C711	C71	0.446900	0.822300	0.822300
H241	H24	0.411100	0.836800	0.836800
O481	O48	0.392400	0.717100	0.717100
C721	C72	0.389400	0.755500	0.755500
C731	C73	0.050900	0.130900	0.500000
C741	C74	0.030100	0.192700	0.500000
H251	H25	0.054200	0.226200	0.500000
C751	C75	0.949100	0.869100	0.500000
C761	C76	0.969900	0.807300	0.500000
H261	H26	0.945800	0.773800	0.500000
C771	C77	0.949100	0.130900	0.500000
C781	C78	0.969900	0.192700	0.500000
H271	H27	0.945800	0.226200	0.500000
C791	C79	0.050900	0.869100	0.500000
C801	C80	0.030100	0.807300	0.500000
H281	H28	0.054200	0.773800	0.500000
C811	C81	0.500000	0.050900	0.130900
C821	C82	0.500000	0.030100	0.192700
H291	H29	0.500000	0.054200	0.226200
C831	C83	0.500000	0.949100	0.869100
C841	C84	0.500000	0.969900	0.807300
H301	H30	0.500000	0.945800	0.773800
C851	C85	0.500000	0.949100	0.130900
C861	C86	0.500000	0.969900	0.192700
H311	H31	0.500000	0.945800	0.226200
C871	C87	0.500000	0.050900	0.869100
C881	C88	0.500000	0.030100	0.807300
H321	H32	0.500000	0.054200	0.773800
C891	C89	0.130900	0.500000	0.050900
C901	C90	0.192700	0.500000	0.030100
H331	H33	0.226200	0.500000	0.054200
C911	C91	0.869100	0.500000	0.949100
C921	C92	0.807300	0.500000	0.969900
H341	H34	0.773800	0.500000	0.945800
C931	C93	0.130900	0.500000	0.949100
C941	C94	0.192700	0.500000	0.969900
H351	H35	0.226200	0.500000	0.945800
C951	C95	0.869100	0.500000	0.050900
C961	C96	0.807300	0.500000	0.030100
H361	H36	0.773800	0.500000	0.054200
C971	C97	0.130900	0.050900	0.500000
C981	C98	0.192700	0.030100	0.500000
H371	H37	0.226200	0.054200	0.500000
C991	C99	0.869100	0.949100	0.500000
C1001	C100	0.807300	0.969900	0.500000
H381	H38	0.773800	0.945800	0.500000
C1011	C101	0.130900	0.949100	0.500000
C1021	C102	0.192700	0.969900	0.500000
H391	H39	0.226200	0.945800	0.500000
C1031	C103	0.869100	0.050900	0.500000
C1041	C104	0.807300	0.030100	0.500000
H401	H40	0.773800	0.054200	0.500000
C1051	C105	0.050900	0.500000	0.869100
C1061	C106	0.030100	0.500000	0.807300
H411	H41	0.054200	0.500000	0.773800
C1071	C107	0.949100	0.500000	0.130900
C1081	C108	0.969900	0.500000	0.192700
H421	H42	0.945800	0.500000	0.226200
C1091	C109	0.949100	0.500000	0.869100
C1101	C110	0.969900	0.500000	0.807300
H431	H43	0.945800	0.500000	0.773800
C1111	C111	0.050900	0.500000	0.130900
C1121	C112	0.030100	0.500000	0.192700
H441	H44	0.054200	0.500000	0.226200
C1131	C113	0.500000	0.130900	0.949100
C1141	C114	0.500000	0.192700	0.969900
H451	H45	0.500000	0.226200	0.945800
C1151	C115	0.500000	0.869100	0.050900
C1161	C116	0.500000	0.807300	0.030100
H461	H46	0.500000	0.773800	0.054200
C1171	C117	0.500000	0.130900	0.050900
C1181	C118	0.500000	0.192700	0.030100
H471	H47	0.500000	0.226200	0.054200
C1191	C119	0.500000	0.869100	0.949100
C1201	C120	0.500000	0.807300	0.969900
H481	H48	0.500000	0.773800	0.945800
C1211	C121	0.109100	0.109100	0.500000
C1221	C122	0.156000	0.156000	0.500000
C1231	C123	0.242700	0.242700	0.500000
H491	H49	0.271900	0.271900	0.500000
C1241	C124	0.890900	0.890900	0.500000
C1251	C125	0.844000	0.844000	0.500000
C1261	C126	0.757300	0.757300	0.500000
H501	H50	0.728100	0.728100	0.500000
C1271	C127	0.890900	0.109100	0.500000
C1281	C128	0.844000	0.156000	0.500000
C1291	C129	0.757300	0.242700	0.500000
H511	H51	0.728100	0.271900	0.500000
C1301	C130	0.109100	0.890900	0.500000
C1311	C131	0.156000	0.844000	0.500000
C1321	C132	0.242700	0.757300	0.500000
H521	H52	0.271900	0.728100	0.500000
C1331	C133	0.500000	0.109100	0.109100
C1341	C134	0.500000	0.156000	0.156000
C1351	C135	0.500000	0.242700	0.242700
H531	H53	0.500000	0.271900	0.271900
C1361	C136	0.500000	0.890900	0.890900
C1371	C137	0.500000	0.844000	0.844000
C1381	C138	0.500000	0.757300	0.757300
H541	H54	0.500000	0.728100	0.728100
C1391	C139	0.500000	0.890900	0.109100
C1401	C140	0.500000	0.844000	0.156000
C1411	C141	0.500000	0.757300	0.242700
H551	H55	0.500000	0.728100	0.271900
C1421	C142	0.500000	0.109100	0.890900
C1431	C143	0.500000	0.156000	0.844000
C1441	C144	0.500000	0.242700	0.757300
H561	H56	0.500000	0.271900	0.728100
C1451	C145	0.109100	0.500000	0.109100
C1461	C146	0.156000	0.500000	0.156000
C1471	C147	0.242700	0.500000	0.242700
H571	H57	0.271900	0.500000	0.271900
C1481	C148	0.890900	0.500000	0.890900
C1491	C149	0.844000	0.500000	0.844000
C1501	C150	0.757300	0.500000	0.757300
H581	H58	0.728100	0.500000	0.728100
C1511	C151	0.109100	0.500000	0.890900
C1521	C152	0.156000	0.500000	0.844000
C1531	C153	0.242700	0.500000	0.757300
H591	H59	0.271900	0.500000	0.728100
C1541	C154	0.890900	0.500000	0.109100
C1551	C155	0.844000	0.500000	0.156000
C1561	C156	0.757300	0.500000	0.242700
H601	H60	0.728100	0.500000	0.271900
