data_VEJYOZ_clean_PM
_symmetry_space_group_name_H-M	'P1'
_cell_length_a	18.970100
_cell_length_b	18.970100
_cell_length_c	16.740000
_cell_angle_alpha	90.000000
_cell_angle_beta	90.000000
_cell_angle_gamma	90.000000
_symmetry_Int_Tables_number 1

loop_
_symmetry_equiv_pos_as_xyz
'x,y,z'

loop_
_atom_site_label
_atom_site_type_symbol
_atom_site_fract_x
_atom_site_fract_y
_atom_site_fract_z
Zn11	Zn1	0.605490	0.173360	0.179240
C11	C1	0.639800	0.309200	0.265600
H11	H1	0.602700	0.305800	0.301800
C21	C2	0.638200	0.032600	0.250500
H21	H2	0.604700	0.010600	0.218400
C31	C3	0.699200	0.109300	0.306600
H31	H3	0.718000	0.152500	0.322100
C41	C4	0.681200	0.108800	0.042200
H41	H4	0.712500	0.084500	0.074800
C51	C5	0.717300	0.047300	0.337700
H51	H5	0.750800	0.039600	0.377300
N11	N1	0.652200	0.264600	0.204400
N21	N2	0.649200	0.100600	0.248800
N31	N3	0.628000	0.149900	0.067100
N41	N4	0.677900	0.997900	0.300800
Zn21	Zn2	0.394510	0.826640	0.179240
C61	C6	0.360200	0.690800	0.265600
H61	H6	0.397300	0.694200	0.301800
C71	C7	0.361800	0.967400	0.250500
H71	H7	0.395300	0.989400	0.218400
C81	C8	0.300800	0.890700	0.306600
H81	H8	0.282000	0.847500	0.322100
C91	C9	0.318800	0.891200	0.042200
H91	H9	0.287500	0.915500	0.074800
C101	C10	0.282700	0.952700	0.337700
H101	H10	0.249200	0.960400	0.377300
N51	N5	0.347800	0.735400	0.204400
N61	N6	0.350800	0.899400	0.248800
N71	N7	0.372000	0.850100	0.067100
N81	N8	0.322100	0.002100	0.300800
Zn31	Zn3	0.326640	0.105490	0.679240
C111	C11	0.190800	0.139800	0.765600
H111	H11	0.194200	0.102700	0.801800
C121	C12	0.467400	0.138200	0.750500
H121	H12	0.489400	0.104700	0.718400
C131	C13	0.390700	0.199200	0.806600
H131	H13	0.347500	0.218000	0.822100
C141	C14	0.391200	0.181200	0.542200
H141	H14	0.415500	0.212500	0.574800
C151	C15	0.452700	0.217300	0.837700
H151	H15	0.460400	0.250800	0.877300
N91	N9	0.235400	0.152200	0.704400
N101	N10	0.399400	0.149200	0.748800
N111	N11	0.350100	0.128000	0.567100
N121	N12	0.502100	0.177900	0.800800
Zn41	Zn4	0.673360	0.894510	0.679240
C161	C16	0.809200	0.860200	0.765600
H161	H16	0.805800	0.897300	0.801800
C171	C17	0.532600	0.861800	0.750500
H171	H17	0.510600	0.895300	0.718400
C181	C18	0.609300	0.800800	0.806600
H181	H18	0.652500	0.782000	0.822100
C191	C19	0.608800	0.818800	0.542200
H191	H19	0.584500	0.787500	0.574800
C201	C20	0.547300	0.782700	0.837700
H201	H20	0.539600	0.749200	0.877300
N131	N13	0.764600	0.847800	0.704400
N141	N14	0.600600	0.850800	0.748800
N151	N15	0.649900	0.872000	0.567100
N161	N16	0.497900	0.822100	0.800800
Zn51	Zn5	0.894510	0.673360	0.320760
C211	C21	0.860200	0.809200	0.234400
H211	H21	0.897300	0.805800	0.198200
C221	C22	0.861800	0.532600	0.249500
H221	H22	0.895300	0.510600	0.281600
C231	C23	0.800800	0.609300	0.193400
H231	H23	0.782000	0.652500	0.177900
C241	C24	0.818800	0.608800	0.457800
H241	H24	0.787500	0.584500	0.425200
C251	C25	0.782700	0.547300	0.162300
H251	H25	0.749200	0.539600	0.122700
N171	N17	0.847800	0.764600	0.295600
N181	N18	0.850800	0.600600	0.251200
N191	N19	0.872000	0.649900	0.432900
N201	N20	0.822100	0.497900	0.199200
Zn61	Zn6	0.105490	0.326640	0.320760
C261	C26	0.139800	0.190800	0.234400
H261	H26	0.102700	0.194200	0.198200
C271	C27	0.138200	0.467400	0.249500
H271	H27	0.104700	0.489400	0.281600
C281	C28	0.199200	0.390700	0.193400
H281	H28	0.218000	0.347500	0.177900
C291	C29	0.181200	0.391200	0.457800
H291	H29	0.212500	0.415500	0.425200
C301	C30	0.217300	0.452700	0.162300
H301	H30	0.250800	0.460400	0.122700
N211	N21	0.152200	0.235400	0.295600
N221	N22	0.149200	0.399400	0.251200
N231	N23	0.128000	0.350100	0.432900
N241	N24	0.177900	0.502100	0.199200
Zn71	Zn7	0.173360	0.605490	0.820760
C311	C31	0.309200	0.639800	0.734400
H311	H31	0.305800	0.602700	0.698200
C321	C32	0.032600	0.638200	0.749500
H321	H32	0.010600	0.604700	0.781600
C331	C33	0.109300	0.699200	0.693400
H331	H33	0.152500	0.718000	0.677900
C341	C34	0.108800	0.681200	0.957800
H341	H34	0.084500	0.712500	0.925200
C351	C35	0.047300	0.717300	0.662300
H351	H35	0.039600	0.750800	0.622700
N251	N25	0.264600	0.652200	0.795600
N261	N26	0.100600	0.649200	0.751200
N271	N27	0.149900	0.628000	0.932900
N281	N28	0.997900	0.677900	0.699200
Zn81	Zn8	0.826640	0.394510	0.820760
C361	C36	0.690800	0.360200	0.734400
H361	H36	0.694200	0.397300	0.698200
C371	C37	0.967400	0.361800	0.749500
H371	H37	0.989400	0.395300	0.781600
C381	C38	0.890700	0.300800	0.693400
H381	H38	0.847500	0.282000	0.677900
C391	C39	0.891200	0.318800	0.957800
H391	H39	0.915500	0.287500	0.925200
C401	C40	0.952700	0.282700	0.662300
H401	H40	0.960400	0.249200	0.622700
N291	N29	0.735400	0.347800	0.795600
N301	N30	0.899400	0.350800	0.751200
N311	N31	0.850100	0.372000	0.932900
N321	N32	0.002100	0.322100	0.699200
Zn91	Zn9	0.394510	0.826640	0.820760
C411	C41	0.360200	0.690800	0.734400
H411	H41	0.397300	0.694200	0.698200
C421	C42	0.361800	0.967400	0.749500
H421	H42	0.395300	0.989400	0.781600
C431	C43	0.300800	0.890700	0.693400
H431	H43	0.282000	0.847500	0.677900
C441	C44	0.318800	0.891200	0.957800
H441	H44	0.287500	0.915500	0.925200
C451	C45	0.282700	0.952700	0.662300
H451	H45	0.249200	0.960400	0.622700
N331	N33	0.347800	0.735400	0.795600
N341	N34	0.350800	0.899400	0.751200
N351	N35	0.372000	0.850100	0.932900
N361	N36	0.322100	0.002100	0.699200
Zn101	Zn10	0.605490	0.173360	0.820760
C461	C46	0.639800	0.309200	0.734400
H461	H46	0.602700	0.305800	0.698200
C471	C47	0.638200	0.032600	0.749500
H471	H47	0.604700	0.010600	0.781600
C481	C48	0.699200	0.109300	0.693400
H481	H48	0.718000	0.152500	0.677900
C491	C49	0.681200	0.108800	0.957800
H491	H49	0.712500	0.084500	0.925200
C501	C50	0.717300	0.047300	0.662300
H501	H50	0.750800	0.039600	0.622700
N371	N37	0.652200	0.264600	0.795600
N381	N38	0.649200	0.100600	0.751200
N391	N39	0.628000	0.149900	0.932900
N401	N40	0.677900	0.997900	0.699200
Zn111	Zn11	0.673360	0.894510	0.320760
C511	C51	0.809200	0.860200	0.234400
H511	H51	0.805800	0.897300	0.198200
C521	C52	0.532600	0.861800	0.249500
H521	H52	0.510600	0.895300	0.281600
C531	C53	0.609300	0.800800	0.193400
H531	H53	0.652500	0.782000	0.177900
C541	C54	0.608800	0.818800	0.457800
H541	H54	0.584500	0.787500	0.425200
C551	C55	0.547300	0.782700	0.162300
H551	H55	0.539600	0.749200	0.122700
N411	N41	0.764600	0.847800	0.295600
N421	N42	0.600600	0.850800	0.251200
N431	N43	0.649900	0.872000	0.432900
N441	N44	0.497900	0.822100	0.199200
Zn121	Zn12	0.326640	0.105490	0.320760
C561	C56	0.190800	0.139800	0.234400
H561	H56	0.194200	0.102700	0.198200
C571	C57	0.467400	0.138200	0.249500
H571	H57	0.489400	0.104700	0.281600
C581	C58	0.390700	0.199200	0.193400
H581	H58	0.347500	0.218000	0.177900
C591	C59	0.391200	0.181200	0.457800
H591	H59	0.415500	0.212500	0.425200
C601	C60	0.452700	0.217300	0.162300
H601	H60	0.460400	0.250800	0.122700
N451	N45	0.235400	0.152200	0.295600
N461	N46	0.399400	0.149200	0.251200
N471	N47	0.350100	0.128000	0.432900
N481	N48	0.502100	0.177900	0.199200
Zn131	Zn13	0.105490	0.326640	0.679240
C611	C61	0.139800	0.190800	0.765600
H611	H61	0.102700	0.194200	0.801800
C621	C62	0.138200	0.467400	0.750500
H621	H62	0.104700	0.489400	0.718400
C631	C63	0.199200	0.390700	0.806600
H631	H63	0.218000	0.347500	0.822100
C641	C64	0.181200	0.391200	0.542200
H641	H64	0.212500	0.415500	0.574800
C651	C65	0.217300	0.452700	0.837700
H651	H65	0.250800	0.460400	0.877300
N491	N49	0.152200	0.235400	0.704400
N501	N50	0.149200	0.399400	0.748800
N511	N51	0.128000	0.350100	0.567100
N521	N52	0.177900	0.502100	0.800800
Zn141	Zn14	0.894510	0.673360	0.679240
C661	C66	0.860200	0.809200	0.765600
H661	H66	0.897300	0.805800	0.801800
C671	C67	0.861800	0.532600	0.750500
H671	H67	0.895300	0.510600	0.718400
C681	C68	0.800800	0.609300	0.806600
H681	H68	0.782000	0.652500	0.822100
C691	C69	0.818800	0.608800	0.542200
H691	H69	0.787500	0.584500	0.574800
C701	C70	0.782700	0.547300	0.837700
H701	H70	0.749200	0.539600	0.877300
N531	N53	0.847800	0.764600	0.704400
N541	N54	0.850800	0.600600	0.748800
N551	N55	0.872000	0.649900	0.567100
N561	N56	0.822100	0.497900	0.800800
Zn151	Zn15	0.826640	0.394510	0.179240
C711	C71	0.690800	0.360200	0.265600
H711	H71	0.694200	0.397300	0.301800
C721	C72	0.967400	0.361800	0.250500
H721	H72	0.989400	0.395300	0.218400
C731	C73	0.890700	0.300800	0.306600
H731	H73	0.847500	0.282000	0.322100
C741	C74	0.891200	0.318800	0.042200
H741	H74	0.915500	0.287500	0.074800
C751	C75	0.952700	0.282700	0.337700
H751	H75	0.960400	0.249200	0.377300
N571	N57	0.735400	0.347800	0.204400
N581	N58	0.899400	0.350800	0.248800
N591	N59	0.850100	0.372000	0.067100
N601	N60	0.002100	0.322100	0.300800
Zn161	Zn16	0.173360	0.605490	0.179240
C761	C76	0.309200	0.639800	0.265600
H761	H76	0.305800	0.602700	0.301800
C771	C77	0.032600	0.638200	0.250500
H771	H77	0.010600	0.604700	0.218400
C781	C78	0.109300	0.699200	0.306600
H781	H78	0.152500	0.718000	0.322100
C791	C79	0.108800	0.681200	0.042200
H791	H79	0.084500	0.712500	0.074800
C801	C80	0.047300	0.717300	0.337700
H801	H80	0.039600	0.750800	0.377300
N611	N61	0.264600	0.652200	0.204400
N621	N62	0.100600	0.649200	0.248800
N631	N63	0.149900	0.628000	0.067100
N641	N64	0.997900	0.677900	0.300800
C811	C81	0.710700	0.289300	0.172700
H811	H81	0.733200	0.266800	0.130500
C821	C82	0.289300	0.710700	0.172700
H821	H82	0.266800	0.733200	0.130500
C831	C83	0.210700	0.210700	0.672700
H831	H83	0.233200	0.233200	0.630500
C841	C84	0.789300	0.789300	0.672700
H841	H84	0.766800	0.766800	0.630500
C851	C85	0.789300	0.789300	0.327300
H851	H85	0.766800	0.766800	0.369500
C861	C86	0.210700	0.210700	0.327300
H861	H86	0.233200	0.233200	0.369500
C871	C87	0.289300	0.710700	0.827300
H871	H87	0.266800	0.733200	0.869500
C881	C88	0.710700	0.289300	0.827300
H881	H88	0.733200	0.266800	0.869500
C891	C89	0.597100	0.171100	0.000000
H891	H89	0.556700	0.198900	0.000000
C901	C90	0.402900	0.828900	0.000000
H901	H90	0.443300	0.801100	0.000000
C911	C91	0.328900	0.097100	0.500000
H911	H91	0.301100	0.056700	0.500000
C921	C92	0.671100	0.902900	0.500000
H921	H92	0.698900	0.943300	0.500000
C931	C93	0.902900	0.671100	0.500000
H931	H93	0.943300	0.698900	0.500000
C941	C94	0.097100	0.328900	0.500000
H941	H94	0.056700	0.301100	0.500000
C951	C95	0.171100	0.597100	0.000000
H951	H95	0.198900	0.556700	0.000000
C961	C96	0.828900	0.402900	0.000000
H961	H96	0.801100	0.443300	0.000000
