data_VEJYUF01_clean_PM
_symmetry_space_group_name_H-M	'P1'
_cell_length_a	15.379000
_cell_length_b	15.449000
_cell_length_c	18.407000
_cell_angle_alpha	90.000000
_cell_angle_beta	90.000000
_cell_angle_gamma	90.000000
_symmetry_Int_Tables_number 1

loop_
_symmetry_equiv_pos_as_xyz
'x,y,z'

loop_
_atom_site_label
_atom_site_type_symbol
_atom_site_fract_x
_atom_site_fract_y
_atom_site_fract_z
Zn11	Zn1	0.799480	0.860370	0.593860
Zn21	Zn2	0.491210	0.664180	0.684660
Zn31	Zn3	0.700520	0.139630	0.093860
Zn41	Zn4	0.008790	0.335820	0.184660
Zn51	Zn5	0.200520	0.360370	0.906140
Zn61	Zn6	0.508790	0.164180	0.815340
Zn71	Zn7	0.299480	0.639630	0.406140
Zn81	Zn8	0.991210	0.835820	0.315340
Zn91	Zn9	0.200520	0.139630	0.406140
Zn101	Zn10	0.508790	0.335820	0.315340
Zn111	Zn11	0.299480	0.860370	0.906140
Zn121	Zn12	0.991210	0.664180	0.815340
Zn131	Zn13	0.799480	0.639630	0.093860
Zn141	Zn14	0.491210	0.835820	0.184660
Zn151	Zn15	0.700520	0.360370	0.593860
Zn161	Zn16	0.008790	0.164180	0.684660
H11	H1	0.678800	0.719400	0.653200
H21	H2	0.603600	0.941200	0.575700
H31	H3	0.474500	0.860900	0.614100
H41	H4	0.936800	0.811600	0.477700
H51	H5	0.733000	0.951800	0.445400
H61	H6	0.811700	0.939100	0.332000
H71	H7	0.936700	0.009700	0.595200
H81	H8	0.763600	0.964000	0.742800
H91	H9	0.857600	0.078800	0.786700
H101	H10	0.901800	0.811300	0.730200
H111	H11	0.941500	0.578100	0.659900
H121	H12	0.863300	0.657400	0.565800
H131	H13	0.821200	0.280600	0.153200
H141	H14	0.896400	0.058800	0.075700
H151	H15	0.025500	0.139100	0.114100
H161	H16	0.563200	0.188400	0.977700
H171	H17	0.767000	0.048200	0.945400
H181	H18	0.688300	0.060900	0.832000
H191	H19	0.563300	0.990300	0.095200
H201	H20	0.736400	0.036000	0.242800
H211	H21	0.642400	0.921200	0.286700
H221	H22	0.598200	0.188700	0.230200
H231	H23	0.558500	0.421900	0.159900
H241	H24	0.636700	0.342600	0.065800
H251	H25	0.321200	0.219400	0.846800
H261	H26	0.396400	0.441200	0.924300
H271	H27	0.525500	0.360900	0.885900
H281	H28	0.063200	0.311600	0.022300
H291	H29	0.267000	0.451800	0.054600
H301	H30	0.188300	0.439100	0.168000
H311	H31	0.063300	0.509700	0.904800
H321	H32	0.236400	0.464000	0.757200
H331	H33	0.142400	0.578800	0.713300
H341	H34	0.098200	0.311300	0.769800
H351	H35	0.058500	0.078100	0.840100
H361	H36	0.136700	0.157400	0.934200
H371	H37	0.178800	0.780600	0.346800
H381	H38	0.103600	0.558800	0.424300
H391	H39	0.974500	0.639100	0.385900
H401	H40	0.436800	0.688400	0.522300
H411	H41	0.233000	0.548200	0.554600
H421	H42	0.311700	0.560900	0.668000
H431	H43	0.436700	0.490300	0.404800
H441	H44	0.263600	0.536000	0.257200
H451	H45	0.357600	0.421200	0.213300
H461	H46	0.401800	0.688700	0.269800
H471	H47	0.441500	0.921900	0.340100
H481	H48	0.363300	0.842600	0.434200
H491	H49	0.321200	0.280600	0.346800
H501	H50	0.396400	0.058800	0.424300
H511	H51	0.525500	0.139100	0.385900
H521	H52	0.063200	0.188400	0.522300
H531	H53	0.267000	0.048200	0.554600
H541	H54	0.188300	0.060900	0.668000
H551	H55	0.063300	0.990300	0.404800
H561	H56	0.236400	0.036000	0.257200
H571	H57	0.142400	0.921200	0.213300
H581	H58	0.098200	0.188700	0.269800
H591	H59	0.058500	0.421900	0.340100
H601	H60	0.136700	0.342600	0.434200
H611	H61	0.178800	0.719400	0.846800
H621	H62	0.103600	0.941200	0.924300
H631	H63	0.974500	0.860900	0.885900
H641	H64	0.436800	0.811600	0.022300
H651	H65	0.233000	0.951800	0.054600
H661	H66	0.311700	0.939100	0.168000
H671	H67	0.436700	0.009700	0.904800
H681	H68	0.263600	0.964000	0.757200
H691	H69	0.357600	0.078800	0.713300
H701	H70	0.401800	0.811300	0.769800
H711	H71	0.441500	0.578100	0.840100
H721	H72	0.363300	0.657400	0.934200
H731	H73	0.678800	0.780600	0.153200
H741	H74	0.603600	0.558800	0.075700
H751	H75	0.474500	0.639100	0.114100
H761	H76	0.936800	0.688400	0.977700
H771	H77	0.733000	0.548200	0.945400
H781	H78	0.811700	0.560900	0.832000
H791	H79	0.936700	0.490300	0.095200
H801	H80	0.763600	0.536000	0.242800
H811	H81	0.857600	0.421200	0.286700
H821	H82	0.901800	0.688700	0.230200
H831	H83	0.941500	0.921900	0.159900
H841	H84	0.863300	0.842600	0.065800
H851	H85	0.821200	0.219400	0.653200
H861	H86	0.896400	0.441200	0.575700
H871	H87	0.025500	0.360900	0.614100
H881	H88	0.563200	0.311600	0.477700
H891	H89	0.767000	0.451800	0.445400
H901	H90	0.688300	0.439100	0.332000
H911	H91	0.563300	0.509700	0.595200
H921	H92	0.736400	0.464000	0.742800
H931	H93	0.642400	0.578800	0.786700
H941	H94	0.598200	0.311300	0.730200
H951	H95	0.558500	0.078100	0.659900
H961	H96	0.636700	0.157400	0.565800
C11	C1	0.643500	0.765400	0.639400
C21	C2	0.603400	0.886500	0.596900
C31	C3	0.531600	0.841800	0.618000
C41	C4	0.895100	0.845900	0.455200
C51	C5	0.784500	0.921300	0.438600
C61	C6	0.828400	0.914600	0.376000
C71	C7	0.904800	0.012700	0.638000
C81	C8	0.810500	0.987300	0.717700
C91	C9	0.862700	0.051000	0.742100
C101	C10	0.902100	0.762500	0.700600
C111	C11	0.924100	0.635600	0.662900
C121	C12	0.880500	0.679400	0.610600
C131	C13	0.856500	0.234600	0.139400
C141	C14	0.896600	0.113500	0.096900
C151	C15	0.968400	0.158200	0.118000
C161	C16	0.604900	0.154100	0.955200
C171	C17	0.715500	0.078700	0.938600
C181	C18	0.671600	0.085400	0.876000
C191	C19	0.595200	0.987300	0.138000
C201	C20	0.689500	0.012700	0.217700
C211	C21	0.637300	0.949000	0.242100
C221	C22	0.597900	0.237500	0.200600
C231	C23	0.575900	0.364400	0.162900
C241	C24	0.619500	0.320600	0.110600
C251	C25	0.356500	0.265400	0.860600
C261	C26	0.396600	0.386500	0.903100
C271	C27	0.468400	0.341800	0.882000
C281	C28	0.104900	0.345900	0.044800
C291	C29	0.215500	0.421300	0.061400
C301	C30	0.171600	0.414600	0.124000
C311	C31	0.095200	0.512700	0.862000
C321	C32	0.189500	0.487300	0.782300
C331	C33	0.137300	0.551000	0.757900
C341	C34	0.097900	0.262500	0.799400
C351	C35	0.075900	0.135600	0.837100
C361	C36	0.119500	0.179400	0.889400
C371	C37	0.143500	0.734600	0.360600
C381	C38	0.103400	0.613500	0.403100
C391	C39	0.031600	0.658200	0.382000
C401	C40	0.395100	0.654100	0.544800
C411	C41	0.284500	0.578700	0.561400
C421	C42	0.328400	0.585400	0.624000
C431	C43	0.404800	0.487300	0.362000
C441	C44	0.310500	0.512700	0.282300
C451	C45	0.362700	0.449000	0.257900
C461	C46	0.402100	0.737500	0.299400
C471	C47	0.424100	0.864400	0.337100
C481	C48	0.380500	0.820600	0.389400
C491	C49	0.356500	0.234600	0.360600
C501	C50	0.396600	0.113500	0.403100
C511	C51	0.468400	0.158200	0.382000
C521	C52	0.104900	0.154100	0.544800
C531	C53	0.215500	0.078700	0.561400
C541	C54	0.171600	0.085400	0.624000
C551	C55	0.095200	0.987300	0.362000
C561	C56	0.189500	0.012700	0.282300
C571	C57	0.137300	0.949000	0.257900
C581	C58	0.097900	0.237500	0.299400
C591	C59	0.075900	0.364400	0.337100
C601	C60	0.119500	0.320600	0.389400
C611	C61	0.143500	0.765400	0.860600
C621	C62	0.103400	0.886500	0.903100
C631	C63	0.031600	0.841800	0.882000
C641	C64	0.395100	0.845900	0.044800
C651	C65	0.284500	0.921300	0.061400
C661	C66	0.328400	0.914600	0.124000
C671	C67	0.404800	0.012700	0.862000
C681	C68	0.310500	0.987300	0.782300
C691	C69	0.362700	0.051000	0.757900
C701	C70	0.402100	0.762500	0.799400
C711	C71	0.424100	0.635600	0.837100
C721	C72	0.380500	0.679400	0.889400
C731	C73	0.643500	0.734600	0.139400
C741	C74	0.603400	0.613500	0.096900
C751	C75	0.531600	0.658200	0.118000
C761	C76	0.895100	0.654100	0.955200
C771	C77	0.784500	0.578700	0.938600
C781	C78	0.828400	0.585400	0.876000
C791	C79	0.904800	0.487300	0.138000
C801	C80	0.810500	0.512700	0.217700
C811	C81	0.862700	0.449000	0.242100
C821	C82	0.902100	0.737500	0.200600
C831	C83	0.924100	0.864400	0.162900
C841	C84	0.880500	0.820600	0.110600
C851	C85	0.856500	0.265400	0.639400
C861	C86	0.896600	0.386500	0.596900
C871	C87	0.968400	0.341800	0.618000
C881	C88	0.604900	0.345900	0.455200
C891	C89	0.715500	0.421300	0.438600
C901	C90	0.671600	0.414600	0.376000
C911	C91	0.595200	0.512700	0.638000
C921	C92	0.689500	0.487300	0.717700
C931	C93	0.637300	0.551000	0.742100
C941	C94	0.597900	0.262500	0.700600
C951	C95	0.575900	0.135600	0.662900
C961	C96	0.619500	0.179400	0.610600
N11	N1	0.557600	0.764200	0.645800
N21	N2	0.674100	0.838100	0.611800
N31	N3	0.900000	0.867000	0.386710
N41	N4	0.827700	0.876200	0.490260
N51	N5	0.923500	0.067800	0.691410
N61	N6	0.837400	0.962900	0.651150
N71	N7	0.938300	0.688500	0.720140
N81	N8	0.866400	0.761000	0.635020
N91	N9	0.942400	0.235800	0.145800
N101	N10	0.825900	0.161900	0.111800
N111	N11	0.600000	0.133000	0.886710
N121	N12	0.672300	0.123800	0.990260
N131	N13	0.576500	0.932200	0.191410
N141	N14	0.662600	0.037100	0.151150
N151	N15	0.561700	0.311500	0.220140
N161	N16	0.633600	0.239000	0.135020
N171	N17	0.442400	0.264200	0.854200
N181	N18	0.325900	0.338100	0.888200
N191	N19	0.100000	0.367000	0.113290
N201	N20	0.172300	0.376200	0.009740
N211	N21	0.076500	0.567800	0.808590
N221	N22	0.162600	0.462900	0.848850
N231	N23	0.061700	0.188500	0.779860
N241	N24	0.133600	0.261000	0.864980
N251	N25	0.057600	0.735800	0.354200
N261	N26	0.174100	0.661900	0.388200
N271	N27	0.400000	0.633000	0.613290
N281	N28	0.327700	0.623800	0.509740
N291	N29	0.423500	0.432200	0.308590
N301	N30	0.337400	0.537100	0.348850
N311	N31	0.438300	0.811500	0.279860
N321	N32	0.366400	0.739000	0.364980
N331	N33	0.442400	0.235800	0.354200
N341	N34	0.325900	0.161900	0.388200
N351	N35	0.100000	0.133000	0.613290
N361	N36	0.172300	0.123800	0.509740
N371	N37	0.076500	0.932200	0.308590
N381	N38	0.162600	0.037100	0.348850
N391	N39	0.061700	0.311500	0.279860
N401	N40	0.133600	0.239000	0.364980
N411	N41	0.057600	0.764200	0.854200
N421	N42	0.174100	0.838100	0.888200
N431	N43	0.400000	0.867000	0.113290
N441	N44	0.327700	0.876200	0.009740
N451	N45	0.423500	0.067800	0.808590
N461	N46	0.337400	0.962900	0.848850
N471	N47	0.438300	0.688500	0.779860
N481	N48	0.366400	0.761000	0.864980
N491	N49	0.557600	0.735800	0.145800
N501	N50	0.674100	0.661900	0.111800
N511	N51	0.900000	0.633000	0.886710
N521	N52	0.827700	0.623800	0.990260
N531	N53	0.923500	0.432200	0.191410
N541	N54	0.837400	0.537100	0.151150
N551	N55	0.938300	0.811500	0.220140
N561	N56	0.866400	0.739000	0.135020
N571	N57	0.942400	0.264200	0.645800
N581	N58	0.825900	0.338100	0.611800
N591	N59	0.600000	0.367000	0.386710
N601	N60	0.672300	0.376200	0.490260
N611	N61	0.576500	0.567800	0.691410
N621	N62	0.662600	0.462900	0.651150
N631	N63	0.561700	0.188500	0.720140
N641	N64	0.633600	0.261000	0.635020
