data_VEJZEQ_clean_PM
_symmetry_space_group_name_H-M	'P1'
_cell_length_a	22.943700
_cell_length_b	22.943700
_cell_length_c	15.747000
_cell_angle_alpha	90.000000
_cell_angle_beta	90.000000
_cell_angle_gamma	120.000000
_symmetry_Int_Tables_number 1

loop_
_symmetry_equiv_pos_as_xyz
'x,y,z'

loop_
_atom_site_label
_atom_site_type_symbol
_atom_site_fract_x
_atom_site_fract_y
_atom_site_fract_z
C11	C1	0.329400	0.028800	0.175600
H11	H1	0.333300	0.071000	0.171400
C21	C2	0.336700	0.945600	0.223400
C31	C3	0.347600	0.900600	0.271400
H21	H2	0.367500	0.911700	0.324900
C41	C4	0.327000	0.839400	0.234500
H31	H3	0.334600	0.808500	0.263500
C51	C5	0.392600	0.200600	0.339400
H41	H4	0.365900	0.189100	0.387800
C61	C6	0.452200	0.195700	0.237700
C71	C7	0.487000	0.179400	0.180000
H51	H5	0.486300	0.138500	0.182900
C81	C8	0.522800	0.225800	0.118100
H61	H6	0.547600	0.216700	0.078900
C91	C9	0.452400	0.256700	0.232800
C101	C10	0.488700	0.303800	0.170200
H71	H7	0.489900	0.344800	0.167200
C111	C11	0.522600	0.286400	0.112900
H81	H8	0.546300	0.316200	0.069200
C121	C12	0.304000	0.927700	0.145400
C131	C13	0.283700	0.865200	0.110600
H91	H9	0.262800	0.853300	0.057800
C141	C14	0.295200	0.820900	0.156400
H101	H10	0.281600	0.778300	0.134800
Co11	Co1	0.398850	0.070060	0.340750
N11	N1	0.352600	0.011200	0.242700
N21	N2	0.412400	0.159700	0.306300
N31	N3	0.412900	0.258300	0.299900
N41	N4	0.300400	0.982500	0.114900
C151	C15	0.996070	0.362130	0.508930
H111	H11	0.999970	0.404330	0.504730
C161	C16	0.003370	0.278930	0.556730
C171	C17	0.014270	0.233930	0.604730
H121	H12	0.034170	0.245030	0.658230
C181	C18	0.993670	0.172730	0.567830
H131	H13	0.001270	0.141830	0.596830
C191	C19	0.059270	0.533930	0.672730
H141	H14	0.032570	0.522430	0.721130
C201	C20	0.118870	0.529030	0.571030
C211	C21	0.153670	0.512730	0.513330
H151	H15	0.152970	0.471830	0.516230
C221	C22	0.189470	0.559130	0.451430
H161	H16	0.214270	0.550030	0.412230
C231	C23	0.119070	0.590030	0.566130
C241	C24	0.155370	0.637130	0.503530
H171	H17	0.156570	0.678130	0.500530
C251	C25	0.189270	0.619730	0.446230
H181	H18	0.212970	0.649530	0.402530
C261	C26	0.970670	0.261030	0.478730
C271	C27	0.950370	0.198530	0.443930
H191	H19	0.929470	0.186630	0.391130
C281	C28	0.961870	0.154230	0.489730
H201	H20	0.948270	0.111630	0.468130
Co21	Co2	0.065520	0.403390	0.674080
N51	N5	0.019270	0.344530	0.576030
N61	N6	0.079070	0.493030	0.639630
N71	N7	0.079570	0.591630	0.633230
N81	N8	0.967070	0.315830	0.448230
C291	C29	0.662730	0.695470	0.842270
H211	H21	0.666630	0.737670	0.838070
C301	C30	0.670030	0.612270	0.890070
C311	C31	0.680930	0.567270	0.938070
H221	H22	0.700830	0.578370	0.991570
C321	C32	0.660330	0.506070	0.901170
H231	H23	0.667930	0.475170	0.930170
C331	C33	0.725930	0.867270	0.006070
H241	H24	0.699230	0.855770	0.054470
C341	C34	0.785530	0.862370	0.904370
C351	C35	0.820330	0.846070	0.846670
H251	H25	0.819630	0.805170	0.849570
C361	C36	0.856130	0.892470	0.784770
H261	H26	0.880930	0.883370	0.745570
C371	C37	0.785730	0.923370	0.899470
C381	C38	0.822030	0.970470	0.836870
H271	H27	0.823230	0.011470	0.833870
C391	C39	0.855930	0.953070	0.779570
H281	H28	0.879630	0.982870	0.735870
C401	C40	0.637330	0.594370	0.812070
C411	C41	0.617030	0.531870	0.777270
H291	H29	0.596130	0.519970	0.724470
C421	C42	0.628530	0.487570	0.823070
H301	H30	0.614930	0.444970	0.801470
Co31	Co3	0.732180	0.736730	0.007420
N91	N9	0.685930	0.677870	0.909370
N101	N10	0.745730	0.826370	0.972970
N111	N11	0.746230	0.924970	0.966570
N121	N12	0.633730	0.649170	0.781570
C431	C43	0.971200	0.300600	0.175600
H311	H31	0.929000	0.262300	0.171400
C441	C44	0.054400	0.391100	0.223400
C451	C45	0.099400	0.447000	0.271400
H321	H32	0.088300	0.455800	0.324900
C461	C46	0.160600	0.487600	0.234500
H331	H33	0.191500	0.526100	0.263500
C471	C47	0.799400	0.192000	0.339400
H341	H34	0.810900	0.176800	0.387800
C481	C48	0.804300	0.256500	0.237700
C491	C49	0.820600	0.307600	0.180000
H351	H35	0.861500	0.347800	0.182900
C501	C50	0.774200	0.297000	0.118100
H361	H36	0.783300	0.330900	0.078900
C511	C51	0.743300	0.195700	0.232800
C521	C52	0.696200	0.184900	0.170200
H371	H37	0.655200	0.145100	0.167200
C531	C53	0.713600	0.236200	0.112900
H381	H38	0.683800	0.230100	0.069200
C541	C54	0.072300	0.376300	0.145400
C551	C55	0.134800	0.418500	0.110600
H391	H39	0.146700	0.409500	0.057800
C561	C56	0.179100	0.474300	0.156400
H401	H40	0.221700	0.503300	0.134800
Co41	Co4	0.929940	0.328790	0.340750
N131	N13	0.988800	0.341400	0.242700
N141	N14	0.840300	0.252700	0.306300
N151	N15	0.741700	0.154600	0.299900
N161	N16	0.017500	0.317900	0.114900
C571	C57	0.637870	0.633930	0.508930
H411	H41	0.595670	0.595630	0.504730
C581	C58	0.721070	0.724430	0.556730
C591	C59	0.766070	0.780330	0.604730
H421	H42	0.754970	0.789130	0.658230
C601	C60	0.827270	0.820930	0.567830
H431	H43	0.858170	0.859430	0.596830
C611	C61	0.466070	0.525330	0.672730
H441	H44	0.477570	0.510130	0.721130
C621	C62	0.470970	0.589830	0.571030
C631	C63	0.487270	0.640930	0.513330
H451	H45	0.528170	0.681130	0.516230
C641	C64	0.440870	0.630330	0.451430
H461	H46	0.449970	0.664230	0.412230
C651	C65	0.409970	0.529030	0.566130
C661	C66	0.362870	0.518230	0.503530
H471	H47	0.321870	0.478430	0.500530
C671	C67	0.380270	0.569530	0.446230
H481	H48	0.350470	0.563430	0.402530
C681	C68	0.738970	0.709630	0.478730
C691	C69	0.801470	0.751830	0.443930
H491	H49	0.813370	0.742830	0.391130
C701	C70	0.845770	0.807630	0.489730
H501	H50	0.888370	0.836630	0.468130
Co51	Co5	0.596610	0.662120	0.674080
N171	N17	0.655470	0.674730	0.576030
N181	N18	0.506970	0.586030	0.639630
N191	N19	0.408370	0.487930	0.633230
N201	N20	0.684170	0.651230	0.448230
C711	C71	0.304530	0.967270	0.842270
H511	H51	0.262330	0.928970	0.838070
C721	C72	0.387730	0.057770	0.890070
C731	C73	0.432730	0.113670	0.938070
H521	H52	0.421630	0.122470	0.991570
C741	C74	0.493930	0.154270	0.901170
H531	H53	0.524830	0.192770	0.930170
C751	C75	0.132730	0.858670	0.006070
H541	H54	0.144230	0.843470	0.054470
C761	C76	0.137630	0.923170	0.904370
C771	C77	0.153930	0.974270	0.846670
H551	H55	0.194830	0.014470	0.849570
C781	C78	0.107530	0.963670	0.784770
H561	H56	0.116630	0.997570	0.745570
C791	C79	0.076630	0.862370	0.899470
C801	C80	0.029530	0.851570	0.836870
H571	H57	0.988530	0.811770	0.833870
C811	C81	0.046930	0.902870	0.779570
H581	H58	0.017130	0.896770	0.735870
C821	C82	0.405630	0.042970	0.812070
C831	C83	0.468130	0.085170	0.777270
H591	H59	0.480030	0.076170	0.724470
C841	C84	0.512430	0.140970	0.823070
H601	H60	0.555030	0.169970	0.801470
Co61	Co6	0.263270	0.995460	0.007420
N211	N21	0.322130	0.008070	0.909370
N221	N22	0.173630	0.919370	0.972970
N231	N23	0.075030	0.821270	0.966570
N241	N24	0.350830	0.984570	0.781570
C851	C85	0.699400	0.670600	0.175600
H611	H61	0.737700	0.666700	0.171400
C861	C86	0.608900	0.663300	0.223400
C871	C87	0.553000	0.652400	0.271400
H621	H62	0.544200	0.632500	0.324900
C881	C88	0.512400	0.673000	0.234500
H631	H63	0.473900	0.665400	0.263500
C891	C89	0.808000	0.607400	0.339400
H641	H64	0.823200	0.634100	0.387800
C901	C90	0.743500	0.547800	0.237700
C911	C91	0.692400	0.513000	0.180000
H651	H65	0.652200	0.513700	0.182900
C921	C92	0.703000	0.477200	0.118100
H661	H66	0.669100	0.452400	0.078900
C931	C93	0.804300	0.547600	0.232800
C941	C94	0.815100	0.511300	0.170200
H671	H67	0.854900	0.510100	0.167200
C951	C95	0.763800	0.477400	0.112900
H681	H68	0.769900	0.453700	0.069200
C961	C96	0.623700	0.696000	0.145400
C971	C97	0.581500	0.716300	0.110600
H691	H69	0.590500	0.737200	0.057800
C981	C98	0.525700	0.704800	0.156400
H701	H70	0.496700	0.718400	0.134800
Co71	Co7	0.671210	0.601150	0.340750
N251	N25	0.658600	0.647400	0.242700
N261	N26	0.747300	0.587600	0.306300
N271	N27	0.845400	0.587100	0.299900
N281	N28	0.682100	0.699600	0.114900
C991	C99	0.366070	0.003930	0.508930
H711	H71	0.404370	0.000030	0.504730
C1001	C100	0.275570	0.996630	0.556730
C1011	C101	0.219670	0.985730	0.604730
H721	H72	0.210870	0.965830	0.658230
C1021	C102	0.179070	0.006330	0.567830
H731	H73	0.140570	0.998730	0.596830
C1031	C103	0.474670	0.940730	0.672730
H741	H74	0.489870	0.967430	0.721130
C1041	C104	0.410170	0.881130	0.571030
C1051	C105	0.359070	0.846330	0.513330
H751	H75	0.318870	0.847030	0.516230
C1061	C106	0.369670	0.810530	0.451430
H761	H76	0.335770	0.785730	0.412230
C1071	C107	0.470970	0.880930	0.566130
C1081	C108	0.481770	0.844630	0.503530
H771	H77	0.521570	0.843430	0.500530
C1091	C109	0.430470	0.810730	0.446230
H781	H78	0.436570	0.787030	0.402530
C1101	C110	0.290370	0.029330	0.478730
C1111	C111	0.248170	0.049630	0.443930
H791	H79	0.257170	0.070530	0.391130
C1121	C112	0.192370	0.038130	0.489730
H801	H80	0.163370	0.051730	0.468130
Co81	Co8	0.337880	0.934480	0.674080
N291	N29	0.325270	0.980730	0.576030
N301	N30	0.413970	0.920930	0.639630
N311	N31	0.512070	0.920430	0.633230
N321	N32	0.348770	0.032930	0.448230
C1131	C113	0.032730	0.337270	0.842270
H811	H81	0.071030	0.333370	0.838070
C1141	C114	0.942230	0.329970	0.890070
C1151	C115	0.886330	0.319070	0.938070
H821	H82	0.877530	0.299170	0.991570
C1161	C116	0.845730	0.339670	0.901170
H831	H83	0.807230	0.332070	0.930170
C1171	C117	0.141330	0.274070	0.006070
H841	H84	0.156530	0.300770	0.054470
C1181	C118	0.076830	0.214470	0.904370
C1191	C119	0.025730	0.179670	0.846670
H851	H85	0.985530	0.180370	0.849570
C1201	C120	0.036330	0.143870	0.784770
H861	H86	0.002430	0.119070	0.745570
C1211	C121	0.137630	0.214270	0.899470
C1221	C122	0.148430	0.177970	0.836870
H871	H87	0.188230	0.176770	0.833870
C1231	C123	0.097130	0.144070	0.779570
H881	H88	0.103230	0.120370	0.735870
C1241	C124	0.957030	0.362670	0.812070
C1251	C125	0.914830	0.382970	0.777270
H891	H89	0.923830	0.403870	0.724470
C1261	C126	0.859030	0.371470	0.823070
H901	H90	0.830030	0.385070	0.801470
Co91	Co9	0.004540	0.267820	0.007420
N331	N33	0.991930	0.314070	0.909370
N341	N34	0.080630	0.254270	0.972970
N351	N35	0.178730	0.253770	0.966570
N361	N36	0.015430	0.366270	0.781570
C1271	C127	0.670600	0.971200	0.824400
H911	H91	0.666700	0.929000	0.828600
C1281	C128	0.663300	0.054400	0.776600
C1291	C129	0.652400	0.099400	0.728600
H921	H92	0.632500	0.088300	0.675100
C1301	C130	0.673000	0.160600	0.765500
H931	H93	0.665400	0.191500	0.736500
C1311	C131	0.607400	0.799400	0.660600
H941	H94	0.634100	0.810900	0.612200
C1321	C132	0.547800	0.804300	0.762300
C1331	C133	0.513000	0.820600	0.820000
H951	H95	0.513700	0.861500	0.817100
C1341	C134	0.477200	0.774200	0.881900
H961	H96	0.452400	0.783300	0.921100
C1351	C135	0.547600	0.743300	0.767200
C1361	C136	0.511300	0.696200	0.829800
H971	H97	0.510100	0.655200	0.832800
C1371	C137	0.477400	0.713600	0.887100
H981	H98	0.453700	0.683800	0.930800
C1381	C138	0.696000	0.072300	0.854600
C1391	C139	0.716300	0.134800	0.889400
H991	H99	0.737200	0.146700	0.942200
C1401	C140	0.704800	0.179100	0.843600
H1001	H100	0.718400	0.221700	0.865200
Co101	Co10	0.601150	0.929940	0.659250
N371	N37	0.647400	0.988800	0.757300
N381	N38	0.587600	0.840300	0.693700
N391	N39	0.587100	0.741700	0.700100
N401	N40	0.699600	0.017500	0.885100
C1411	C141	0.337270	0.304530	0.157730
H1011	H101	0.333370	0.262330	0.161930
C1421	C142	0.329970	0.387730	0.109930
C1431	C143	0.319070	0.432730	0.061930
H1021	H102	0.299170	0.421630	0.008430
C1441	C144	0.339670	0.493930	0.098830
H1031	H103	0.332070	0.524830	0.069830
C1451	C145	0.274070	0.132730	0.993930
H1041	H104	0.300770	0.144230	0.945530
C1461	C146	0.214470	0.137630	0.095630
C1471	C147	0.179670	0.153930	0.153330
H1051	H105	0.180370	0.194830	0.150430
C1481	C148	0.143870	0.107530	0.215230
H1061	H106	0.119070	0.116630	0.254430
C1491	C149	0.214270	0.076630	0.100530
C1501	C150	0.177970	0.029530	0.163130
H1071	H107	0.176770	0.988530	0.166130
C1511	C151	0.144070	0.046930	0.220430
H1081	H108	0.120370	0.017130	0.264130
C1521	C152	0.362670	0.405630	0.187930
C1531	C153	0.382970	0.468130	0.222730
H1091	H109	0.403870	0.480030	0.275530
C1541	C154	0.371470	0.512430	0.176930
H1101	H110	0.385070	0.555030	0.198530
Co111	Co11	0.267820	0.263270	0.992580
N411	N41	0.314070	0.322130	0.090630
N421	N42	0.254270	0.173630	0.027030
N431	N43	0.253770	0.075030	0.033430
N441	N44	0.366270	0.350830	0.218430
C1551	C155	0.003930	0.637870	0.491070
H1111	H111	0.000030	0.595670	0.495270
C1561	C156	0.996630	0.721070	0.443270
C1571	C157	0.985730	0.766070	0.395270
H1121	H112	0.965830	0.754970	0.341770
C1581	C158	0.006330	0.827270	0.432170
H1131	H113	0.998730	0.858170	0.403170
C1591	C159	0.940730	0.466070	0.327270
H1141	H114	0.967430	0.477570	0.278870
C1601	C160	0.881130	0.470970	0.428970
C1611	C161	0.846330	0.487270	0.486670
H1151	H115	0.847030	0.528170	0.483770
C1621	C162	0.810530	0.440870	0.548570
H1161	H116	0.785730	0.449970	0.587770
C1631	C163	0.880930	0.409970	0.433870
C1641	C164	0.844630	0.362870	0.496470
H1171	H117	0.843430	0.321870	0.499470
C1651	C165	0.810730	0.380270	0.553770
H1181	H118	0.787030	0.350470	0.597470
C1661	C166	0.029330	0.738970	0.521270
C1671	C167	0.049630	0.801470	0.556070
H1191	H119	0.070530	0.813370	0.608870
C1681	C168	0.038130	0.845770	0.510270
H1201	H120	0.051730	0.888370	0.531870
Co121	Co12	0.934480	0.596610	0.325920
N451	N45	0.980730	0.655470	0.423970
N461	N46	0.920930	0.506970	0.360370
N471	N47	0.920430	0.408370	0.366770
N481	N48	0.032930	0.684170	0.551770
C1691	C169	0.028800	0.699400	0.824400
H1211	H121	0.071000	0.737700	0.828600
C1701	C170	0.945600	0.608900	0.776600
C1711	C171	0.900600	0.553000	0.728600
H1221	H122	0.911700	0.544200	0.675100
C1721	C172	0.839400	0.512400	0.765500
H1231	H123	0.808500	0.473900	0.736500
C1731	C173	0.200600	0.808000	0.660600
H1241	H124	0.189100	0.823200	0.612200
C1741	C174	0.195700	0.743500	0.762300
C1751	C175	0.179400	0.692400	0.820000
H1251	H125	0.138500	0.652200	0.817100
C1761	C176	0.225800	0.703000	0.881900
H1261	H126	0.216700	0.669100	0.921100
C1771	C177	0.256700	0.804300	0.767200
C1781	C178	0.303800	0.815100	0.829800
H1271	H127	0.344800	0.854900	0.832800
C1791	C179	0.286400	0.763800	0.887100
H1281	H128	0.316200	0.769900	0.930800
C1801	C180	0.927700	0.623700	0.854600
C1811	C181	0.865200	0.581500	0.889400
H1291	H129	0.853300	0.590500	0.942200
C1821	C182	0.820900	0.525700	0.843600
H1301	H130	0.778300	0.496700	0.865200
Co131	Co13	0.070060	0.671210	0.659250
N491	N49	0.011200	0.658600	0.757300
N501	N50	0.159700	0.747300	0.693700
N511	N51	0.258300	0.845400	0.700100
N521	N52	0.982500	0.682100	0.885100
C1831	C183	0.695470	0.032730	0.157730
H1311	H131	0.737670	0.071030	0.161930
C1841	C184	0.612270	0.942230	0.109930
C1851	C185	0.567270	0.886330	0.061930
H1321	H132	0.578370	0.877530	0.008430
C1861	C186	0.506070	0.845730	0.098830
H1331	H133	0.475170	0.807230	0.069830
C1871	C187	0.867270	0.141330	0.993930
H1341	H134	0.855770	0.156530	0.945530
C1881	C188	0.862370	0.076830	0.095630
C1891	C189	0.846070	0.025730	0.153330
H1351	H135	0.805170	0.985530	0.150430
C1901	C190	0.892470	0.036330	0.215230
H1361	H136	0.883370	0.002430	0.254430
C1911	C191	0.923370	0.137630	0.100530
C1921	C192	0.970470	0.148430	0.163130
H1371	H137	0.011470	0.188230	0.166130
C1931	C193	0.953070	0.097130	0.220430
H1381	H138	0.982870	0.103230	0.264130
C1941	C194	0.594370	0.957030	0.187930
C1951	C195	0.531870	0.914830	0.222730
H1391	H139	0.519970	0.923830	0.275530
C1961	C196	0.487570	0.859030	0.176930
H1401	H140	0.444970	0.830030	0.198530
Co141	Co14	0.736730	0.004540	0.992580
N531	N53	0.677870	0.991930	0.090630
N541	N54	0.826370	0.080630	0.027030
N551	N55	0.924970	0.178730	0.033430
N561	N56	0.649170	0.015430	0.218430
C1971	C197	0.362130	0.366070	0.491070
H1411	H141	0.404330	0.404370	0.495270
C1981	C198	0.278930	0.275570	0.443270
C1991	C199	0.233930	0.219670	0.395270
H1421	H142	0.245030	0.210870	0.341770
C2001	C200	0.172730	0.179070	0.432170
H1431	H143	0.141830	0.140570	0.403170
C2011	C201	0.533930	0.474670	0.327270
H1441	H144	0.522430	0.489870	0.278870
C2021	C202	0.529030	0.410170	0.428970
C2031	C203	0.512730	0.359070	0.486670
H1451	H145	0.471830	0.318870	0.483770
C2041	C204	0.559130	0.369670	0.548570
H1461	H146	0.550030	0.335770	0.587770
C2051	C205	0.590030	0.470970	0.433870
C2061	C206	0.637130	0.481770	0.496470
H1471	H147	0.678130	0.521570	0.499470
C2071	C207	0.619730	0.430470	0.553770
H1481	H148	0.649530	0.436570	0.597470
C2081	C208	0.261030	0.290370	0.521270
C2091	C209	0.198530	0.248170	0.556070
H1491	H149	0.186630	0.257170	0.608870
C2101	C210	0.154230	0.192370	0.510270
H1501	H150	0.111630	0.163370	0.531870
Co151	Co15	0.403390	0.337880	0.325920
N571	N57	0.344530	0.325270	0.423970
N581	N58	0.493030	0.413970	0.360370
N591	N59	0.591630	0.512070	0.366770
N601	N60	0.315830	0.348770	0.551770
C2111	C211	0.300600	0.329400	0.824400
H1511	H151	0.262300	0.333300	0.828600
C2121	C212	0.391100	0.336700	0.776600
C2131	C213	0.447000	0.347600	0.728600
H1521	H152	0.455800	0.367500	0.675100
C2141	C214	0.487600	0.327000	0.765500
H1531	H153	0.526100	0.334600	0.736500
C2151	C215	0.192000	0.392600	0.660600
H1541	H154	0.176800	0.365900	0.612200
C2161	C216	0.256500	0.452200	0.762300
C2171	C217	0.307600	0.487000	0.820000
H1551	H155	0.347800	0.486300	0.817100
C2181	C218	0.297000	0.522800	0.881900
H1561	H156	0.330900	0.547600	0.921100
C2191	C219	0.195700	0.452400	0.767200
C2201	C220	0.184900	0.488700	0.829800
H1571	H157	0.145100	0.489900	0.832800
C2211	C221	0.236200	0.522600	0.887100
H1581	H158	0.230100	0.546300	0.930800
C2221	C222	0.376300	0.304000	0.854600
C2231	C223	0.418500	0.283700	0.889400
H1591	H159	0.409500	0.262800	0.942200
C2241	C224	0.474300	0.295200	0.843600
H1601	H160	0.503300	0.281600	0.865200
Co161	Co16	0.328790	0.398850	0.659250
N611	N61	0.341400	0.352600	0.757300
N621	N62	0.252700	0.412400	0.693700
N631	N63	0.154600	0.412900	0.700100
N641	N64	0.317900	0.300400	0.885100
C2251	C225	0.967270	0.662730	0.157730
H1611	H161	0.928970	0.666630	0.161930
C2261	C226	0.057770	0.670030	0.109930
C2271	C227	0.113670	0.680930	0.061930
H1621	H162	0.122470	0.700830	0.008430
C2281	C228	0.154270	0.660330	0.098830
H1631	H163	0.192770	0.667930	0.069830
C2291	C229	0.858670	0.725930	0.993930
H1641	H164	0.843470	0.699230	0.945530
C2301	C230	0.923170	0.785530	0.095630
C2311	C231	0.974270	0.820330	0.153330
H1651	H165	0.014470	0.819630	0.150430
C2321	C232	0.963670	0.856130	0.215230
H1661	H166	0.997570	0.880930	0.254430
C2331	C233	0.862370	0.785730	0.100530
C2341	C234	0.851570	0.822030	0.163130
H1671	H167	0.811770	0.823230	0.166130
C2351	C235	0.902870	0.855930	0.220430
H1681	H168	0.896770	0.879630	0.264130
C2361	C236	0.042970	0.637330	0.187930
C2371	C237	0.085170	0.617030	0.222730
H1691	H169	0.076170	0.596130	0.275530
C2381	C238	0.140970	0.628530	0.176930
H1701	H170	0.169970	0.614930	0.198530
Co171	Co17	0.995460	0.732180	0.992580
N651	N65	0.008070	0.685930	0.090630
N661	N66	0.919370	0.745730	0.027030
N671	N67	0.821270	0.746230	0.033430
N681	N68	0.984570	0.633730	0.218430
C2391	C239	0.633930	0.996070	0.491070
H1711	H171	0.595630	0.999970	0.495270
C2401	C240	0.724430	0.003370	0.443270
C2411	C241	0.780330	0.014270	0.395270
H1721	H172	0.789130	0.034170	0.341770
C2421	C242	0.820930	0.993670	0.432170
H1731	H173	0.859430	0.001270	0.403170
C2431	C243	0.525330	0.059270	0.327270
H1741	H174	0.510130	0.032570	0.278870
C2441	C244	0.589830	0.118870	0.428970
C2451	C245	0.640930	0.153670	0.486670
H1751	H175	0.681130	0.152970	0.483770
C2461	C246	0.630330	0.189470	0.548570
H1761	H176	0.664230	0.214270	0.587770
C2471	C247	0.529030	0.119070	0.433870
C2481	C248	0.518230	0.155370	0.496470
H1771	H177	0.478430	0.156570	0.499470
C2491	C249	0.569530	0.189270	0.553770
H1781	H178	0.563430	0.212970	0.597470
C2501	C250	0.709630	0.970670	0.521270
C2511	C251	0.751830	0.950370	0.556070
H1791	H179	0.742830	0.929470	0.608870
C2521	C252	0.807630	0.961870	0.510270
H1801	H180	0.836630	0.948270	0.531870
Co181	Co18	0.662120	0.065520	0.325920
N691	N69	0.674730	0.019270	0.423970
N701	N70	0.586030	0.079070	0.360370
N711	N71	0.487930	0.079570	0.366770
N721	N72	0.651230	0.967070	0.551770
