data_VEMMOQ_clean_PM
_symmetry_space_group_name_H-M	'P1'
_cell_length_a	22.249000
_cell_length_b	7.052800
_cell_length_c	13.574700
_cell_angle_alpha	90.000000
_cell_angle_beta	90.000000
_cell_angle_gamma	90.000000
_symmetry_Int_Tables_number 1

loop_
_symmetry_equiv_pos_as_xyz
'x,y,z'

loop_
_atom_site_label
_atom_site_type_symbol
_atom_site_fract_x
_atom_site_fract_y
_atom_site_fract_z
N11	N1	0.436630	0.656200	0.565690
N21	N2	0.389050	0.592900	0.612900
C11	C1	0.277000	0.581800	0.725000
H11	H1	0.295200	0.467000	0.709200
N31	N3	0.936630	0.156200	0.065690
N41	N4	0.889050	0.092900	0.112900
C21	C2	0.777000	0.081800	0.225000
H21	H2	0.795200	0.967000	0.209200
N51	N5	0.563370	0.843800	0.565690
N61	N6	0.610950	0.907100	0.612900
C31	C3	0.723000	0.918200	0.725000
H31	H3	0.704800	0.033000	0.709200
N71	N7	0.063370	0.343800	0.065690
N81	N8	0.110950	0.407100	0.112900
C41	C4	0.223000	0.418200	0.225000
H41	H4	0.204800	0.533000	0.209200
N91	N9	0.563370	0.156200	0.434310
N101	N10	0.610950	0.092900	0.387100
C51	C5	0.723000	0.081800	0.275000
H51	H5	0.704800	0.967000	0.290800
N111	N11	0.063370	0.656200	0.934310
N121	N12	0.110950	0.592900	0.887100
C61	C6	0.223000	0.581800	0.775000
H61	H6	0.204800	0.467000	0.790800
N131	N13	0.436630	0.343800	0.434310
N141	N14	0.389050	0.407100	0.387100
C71	C7	0.277000	0.418200	0.275000
H71	H7	0.295200	0.533000	0.290800
N151	N15	0.936630	0.843800	0.934310
N161	N16	0.889050	0.907100	0.887100
C81	C8	0.777000	0.918200	0.775000
H81	H8	0.795200	0.033000	0.790800
N171	N17	0.563370	0.343800	0.434310
N181	N18	0.610950	0.407100	0.387100
C91	C9	0.723000	0.418200	0.275000
H91	H9	0.704800	0.533000	0.290800
N191	N19	0.063370	0.843800	0.934310
N201	N20	0.110950	0.907100	0.887100
C101	C10	0.223000	0.918200	0.775000
H101	H10	0.204800	0.033000	0.790800
N211	N21	0.436630	0.156200	0.434310
N221	N22	0.389050	0.092900	0.387100
C111	C11	0.277000	0.081800	0.275000
H111	H11	0.295200	0.967000	0.290800
N231	N23	0.936630	0.656200	0.934310
N241	N24	0.889050	0.592900	0.887100
C121	C12	0.777000	0.581800	0.775000
H121	H12	0.795200	0.467000	0.790800
N251	N25	0.436630	0.843800	0.565690
N261	N26	0.389050	0.907100	0.612900
C131	C13	0.277000	0.918200	0.725000
H131	H13	0.295200	0.033000	0.709200
N271	N27	0.936630	0.343800	0.065690
N281	N28	0.889050	0.407100	0.112900
C141	C14	0.777000	0.418200	0.225000
H141	H14	0.795200	0.533000	0.209200
N291	N29	0.563370	0.656200	0.565690
N301	N30	0.610950	0.592900	0.612900
C151	C15	0.723000	0.581800	0.725000
H151	H15	0.704800	0.467000	0.709200
N311	N31	0.063370	0.156200	0.065690
N321	N32	0.110950	0.092900	0.112900
C161	C16	0.223000	0.081800	0.225000
H161	H16	0.204800	0.967000	0.209200
Cu11	Cu1	0.500000	0.500000	0.500000
Cu21	Cu2	0.000000	0.000000	0.000000
Cu31	Cu3	0.500000	0.000000	0.500000
Cu41	Cu4	0.000000	0.500000	0.000000
C171	C17	0.360900	0.750000	0.641700
C181	C18	0.304600	0.750000	0.698000
C191	C19	0.860900	0.250000	0.141700
C201	C20	0.804600	0.250000	0.198000
C211	C21	0.639100	0.750000	0.641700
C221	C22	0.695400	0.750000	0.698000
C231	C23	0.139100	0.250000	0.141700
C241	C24	0.195400	0.250000	0.198000
C251	C25	0.639100	0.250000	0.358300
C261	C26	0.695400	0.250000	0.302000
C271	C27	0.139100	0.750000	0.858300
C281	C28	0.195400	0.750000	0.802000
C291	C29	0.360900	0.250000	0.358300
C301	C30	0.304600	0.250000	0.302000
C311	C31	0.860900	0.750000	0.858300
C321	C32	0.804600	0.750000	0.802000
