data_VEMSUC01_clean_PM
_symmetry_space_group_name_H-M	'P1'
_cell_length_a	14.063600
_cell_length_b	15.915200
_cell_length_c	16.585800
_cell_angle_alpha	90.000000
_cell_angle_beta	90.000000
_cell_angle_gamma	90.000000
_symmetry_Int_Tables_number 1

loop_
_symmetry_equiv_pos_as_xyz
'x,y,z'

loop_
_atom_site_label
_atom_site_type_symbol
_atom_site_fract_x
_atom_site_fract_y
_atom_site_fract_z
Ni11	Ni1	0.479040	0.817490	0.393360
C11	C1	0.257000	0.995500	0.341180
C21	C2	0.221000	0.072750	0.366040
H11	H1	0.245900	0.098600	0.413100
C31	C3	0.149000	0.112700	0.322730
C41	C4	0.113800	0.073830	0.254080
H21	H2	0.068200	0.102300	0.221800
C51	C5	0.144000	0.993500	0.231440
C61	C6	0.216000	0.954910	0.275400
H31	H3	0.237400	0.900500	0.260400
C71	C7	0.343400	0.959280	0.382550
C81	C8	0.107300	0.193820	0.349700
C91	C9	0.096200	0.953170	0.159540
O11	O1	0.368930	0.994420	0.446790
O21	O2	0.382010	0.897340	0.348180
O31	O3	0.130470	0.224700	0.416590
O41	O4	0.044970	0.228770	0.305380
O51	O5	0.064090	0.002610	0.108900
O61	O6	0.091410	0.873680	0.159820
C101	C10	0.581500	0.802400	0.614500
H41	H4	0.649400	0.788700	0.616500
H51	H5	0.545200	0.758800	0.642500
H61	H6	0.570600	0.856700	0.640700
C111	C11	0.549900	0.807150	0.528100
O71	O7	0.568260	0.750210	0.479810
O81	O8	0.497630	0.868600	0.505110
Ni21	Ni2	0.020960	0.182510	0.893360
C121	C12	0.243000	0.004500	0.841180
C131	C13	0.279000	0.927250	0.866040
H71	H7	0.254100	0.901400	0.913100
C141	C14	0.351000	0.887300	0.822730
C151	C15	0.386200	0.926170	0.754080
H81	H8	0.431800	0.897700	0.721800
C161	C16	0.356000	0.006500	0.731440
C171	C17	0.284000	0.045090	0.775400
H91	H9	0.262600	0.099500	0.760400
C181	C18	0.156600	0.040720	0.882550
C191	C19	0.392700	0.806180	0.849700
C201	C20	0.403800	0.046830	0.659540
O91	O9	0.131070	0.005580	0.946790
O101	O10	0.117990	0.102660	0.848180
O111	O11	0.369530	0.775300	0.916590
O121	O12	0.455030	0.771230	0.805380
O131	O13	0.435910	0.997390	0.608900
O141	O14	0.408590	0.126320	0.659820
C211	C21	0.918500	0.197600	0.114500
H101	H10	0.850600	0.211300	0.116500
H111	H11	0.954800	0.241200	0.142500
H121	H12	0.929400	0.143300	0.140700
C221	C22	0.950100	0.192850	0.028100
O151	O15	0.931740	0.249790	0.979810
O161	O16	0.002370	0.131400	0.005110
Ni31	Ni3	0.520960	0.317490	0.106640
C231	C23	0.743000	0.495500	0.158820
C241	C24	0.779000	0.572750	0.133960
H131	H13	0.754100	0.598600	0.086900
C251	C25	0.851000	0.612700	0.177270
C261	C26	0.886200	0.573830	0.245920
H141	H14	0.931800	0.602300	0.278200
C271	C27	0.856000	0.493500	0.268560
C281	C28	0.784000	0.454910	0.224600
H151	H15	0.762600	0.400500	0.239600
C291	C29	0.656600	0.459280	0.117450
C301	C30	0.892700	0.693820	0.150300
C311	C31	0.903800	0.453170	0.340460
O171	O17	0.631070	0.494420	0.053210
O181	O18	0.617990	0.397340	0.151820
O191	O19	0.869530	0.724700	0.083410
O201	O20	0.955030	0.728770	0.194620
O211	O21	0.935910	0.502610	0.391100
O221	O22	0.908590	0.373680	0.340180
C321	C32	0.418500	0.302400	0.885500
H161	H16	0.350600	0.288700	0.883500
H171	H17	0.454800	0.258800	0.857500
H181	H18	0.429400	0.356700	0.859300
C331	C33	0.450100	0.307150	0.971900
O231	O23	0.431740	0.250210	0.020190
O241	O24	0.502370	0.368600	0.994890
Ni41	Ni4	0.979040	0.682510	0.606640
C341	C34	0.757000	0.504500	0.658820
C351	C35	0.721000	0.427250	0.633960
H191	H19	0.745900	0.401400	0.586900
C361	C36	0.649000	0.387300	0.677270
C371	C37	0.613800	0.426170	0.745920
H201	H20	0.568200	0.397700	0.778200
C381	C38	0.644000	0.506500	0.768560
C391	C39	0.716000	0.545090	0.724600
H211	H21	0.737400	0.599500	0.739600
C401	C40	0.843400	0.540720	0.617450
C411	C41	0.607300	0.306180	0.650300
C421	C42	0.596200	0.546830	0.840460
O251	O25	0.868930	0.505580	0.553210
O261	O26	0.882010	0.602660	0.651820
O271	O27	0.630470	0.275300	0.583410
O281	O28	0.544970	0.271230	0.694620
O291	O29	0.564090	0.497390	0.891100
O301	O30	0.591410	0.626320	0.840180
C431	C43	0.081500	0.697600	0.385500
H221	H22	0.149400	0.711300	0.383500
H231	H23	0.045200	0.741200	0.357500
H241	H24	0.070600	0.643300	0.359300
C441	C44	0.049900	0.692850	0.471900
O311	O31	0.068260	0.749790	0.520190
O321	O32	0.997630	0.631400	0.494890
Ni51	Ni5	0.520960	0.182510	0.606640
C451	C45	0.743000	0.004500	0.658820
C461	C46	0.779000	0.927250	0.633960
H251	H25	0.754100	0.901400	0.586900
C471	C47	0.851000	0.887300	0.677270
C481	C48	0.886200	0.926170	0.745920
H261	H26	0.931800	0.897700	0.778200
C491	C49	0.856000	0.006500	0.768560
C501	C50	0.784000	0.045090	0.724600
H271	H27	0.762600	0.099500	0.739600
C511	C51	0.656600	0.040720	0.617450
C521	C52	0.892700	0.806180	0.650300
C531	C53	0.903800	0.046830	0.840460
O331	O33	0.631070	0.005580	0.553210
O341	O34	0.617990	0.102660	0.651820
O351	O35	0.869530	0.775300	0.583410
O361	O36	0.955030	0.771230	0.694620
O371	O37	0.935910	0.997390	0.891100
O381	O38	0.908590	0.126320	0.840180
C541	C54	0.418500	0.197600	0.385500
H281	H28	0.350600	0.211300	0.383500
H291	H29	0.454800	0.241200	0.357500
H301	H30	0.429400	0.143300	0.359300
C551	C55	0.450100	0.192850	0.471900
O391	O39	0.431740	0.249790	0.520190
O401	O40	0.502370	0.131400	0.494890
Ni61	Ni6	0.979040	0.817490	0.106640
C561	C56	0.757000	0.995500	0.158820
C571	C57	0.721000	0.072750	0.133960
H311	H31	0.745900	0.098600	0.086900
C581	C58	0.649000	0.112700	0.177270
C591	C59	0.613800	0.073830	0.245920
H321	H32	0.568200	0.102300	0.278200
C601	C60	0.644000	0.993500	0.268560
C611	C61	0.716000	0.954910	0.224600
H331	H33	0.737400	0.900500	0.239600
C621	C62	0.843400	0.959280	0.117450
C631	C63	0.607300	0.193820	0.150300
C641	C64	0.596200	0.953170	0.340460
O411	O41	0.868930	0.994420	0.053210
O421	O42	0.882010	0.897340	0.151820
O431	O43	0.630470	0.224700	0.083410
O441	O44	0.544970	0.228770	0.194620
O451	O45	0.564090	0.002610	0.391100
O461	O46	0.591410	0.873680	0.340180
C651	C65	0.081500	0.802400	0.885500
H341	H34	0.149400	0.788700	0.883500
H351	H35	0.045200	0.758800	0.857500
H361	H36	0.070600	0.856700	0.859300
C661	C66	0.049900	0.807150	0.971900
O471	O47	0.068260	0.750210	0.020190
O481	O48	0.997630	0.868600	0.994890
Ni71	Ni7	0.479040	0.682510	0.893360
C671	C67	0.257000	0.504500	0.841180
C681	C68	0.221000	0.427250	0.866040
H371	H37	0.245900	0.401400	0.913100
C691	C69	0.149000	0.387300	0.822730
C701	C70	0.113800	0.426170	0.754080
H381	H38	0.068200	0.397700	0.721800
C711	C71	0.144000	0.506500	0.731440
C721	C72	0.216000	0.545090	0.775400
H391	H39	0.237400	0.599500	0.760400
C731	C73	0.343400	0.540720	0.882550
C741	C74	0.107300	0.306180	0.849700
C751	C75	0.096200	0.546830	0.659540
O491	O49	0.368930	0.505580	0.946790
O501	O50	0.382010	0.602660	0.848180
O511	O51	0.130470	0.275300	0.916590
O521	O52	0.044970	0.271230	0.805380
O531	O53	0.064090	0.497390	0.608900
O541	O54	0.091410	0.626320	0.659820
C761	C76	0.581500	0.697600	0.114500
H401	H40	0.649400	0.711300	0.116500
H411	H41	0.545200	0.741200	0.142500
H421	H42	0.570600	0.643300	0.140700
C771	C77	0.549900	0.692850	0.028100
O551	O55	0.568260	0.749790	0.979810
O561	O56	0.497630	0.631400	0.005110
Ni81	Ni8	0.020960	0.317490	0.393360
C781	C78	0.243000	0.495500	0.341180
C791	C79	0.279000	0.572750	0.366040
H431	H43	0.254100	0.598600	0.413100
C801	C80	0.351000	0.612700	0.322730
C811	C81	0.386200	0.573830	0.254080
H441	H44	0.431800	0.602300	0.221800
C821	C82	0.356000	0.493500	0.231440
C831	C83	0.284000	0.454910	0.275400
H451	H45	0.262600	0.400500	0.260400
C841	C84	0.156600	0.459280	0.382550
C851	C85	0.392700	0.693820	0.349700
C861	C86	0.403800	0.453170	0.159540
O571	O57	0.131070	0.494420	0.446790
O581	O58	0.117990	0.397340	0.348180
O591	O59	0.369530	0.724700	0.416590
O601	O60	0.455030	0.728770	0.305380
O611	O61	0.435910	0.502610	0.108900
O621	O62	0.408590	0.373680	0.159820
C871	C87	0.918500	0.302400	0.614500
H461	H46	0.850600	0.288700	0.616500
H471	H47	0.954800	0.258800	0.642500
H481	H48	0.929400	0.356700	0.640700
C881	C88	0.950100	0.307150	0.528100
O631	O63	0.931740	0.250210	0.479810
O641	O64	0.002370	0.368600	0.505110
Ni91	Ni9	0.500000	0.000000	0.500000
Ni101	Ni10	0.000000	0.000000	0.000000
Ni111	Ni11	0.500000	0.500000	0.000000
Ni121	Ni12	0.000000	0.500000	0.500000
