data_VEMSUC_clean_PM
_symmetry_space_group_name_H-M	'P1'
_cell_length_a	13.966600
_cell_length_b	15.930200
_cell_length_c	16.647900
_cell_angle_alpha	90.000000
_cell_angle_beta	90.000000
_cell_angle_gamma	90.000000
_symmetry_Int_Tables_number 1

loop_
_symmetry_equiv_pos_as_xyz
'x,y,z'

loop_
_atom_site_label
_atom_site_type_symbol
_atom_site_fract_x
_atom_site_fract_y
_atom_site_fract_z
Ni11	Ni1	0.520020	0.682410	0.893660
C11	C1	0.742700	0.503640	0.840520
C21	C2	0.784200	0.544600	0.774930
H11	H1	0.763400	0.599300	0.760500
C31	C3	0.855600	0.505400	0.730910
C41	C4	0.886700	0.425610	0.753040
H21	H2	0.932400	0.397200	0.720700
C51	C5	0.851400	0.387200	0.821920
C61	C6	0.779100	0.426680	0.865680
H31	H3	0.754600	0.400900	0.912900
C71	C7	0.656800	0.540600	0.882600
C81	C8	0.902500	0.546320	0.659490
C91	C9	0.893700	0.305500	0.849500
C101	C10	0.449700	0.693200	0.028300
C111	C11	0.418600	0.697600	0.114900
H41	H4	0.350200	0.710700	0.117500
H51	H5	0.455100	0.741500	0.142600
H61	H6	0.430500	0.643400	0.140900
O11	O1	0.631810	0.505840	0.947170
O21	O2	0.617050	0.602060	0.848150
O31	O3	0.906420	0.625840	0.658640
O41	O4	0.936220	0.496630	0.608510
O51	O5	0.956060	0.270440	0.805480
O61	O6	0.869940	0.274490	0.915830
O71	O7	0.502150	0.631330	0.004610
O81	O8	0.430620	0.749910	0.979810
Ni21	Ni2	0.979980	0.317590	0.393660
C121	C12	0.757300	0.496360	0.340520
C131	C13	0.715800	0.455400	0.274930
H71	H7	0.736600	0.400700	0.260500
C141	C14	0.644400	0.494600	0.230910
C151	C15	0.613300	0.574390	0.253040
H81	H8	0.567600	0.602800	0.220700
C161	C16	0.648600	0.612800	0.321920
C171	C17	0.720900	0.573320	0.365680
H91	H9	0.745400	0.599100	0.412900
C181	C18	0.843200	0.459400	0.382600
C191	C19	0.597500	0.453680	0.159490
C201	C20	0.606300	0.694500	0.349500
C211	C21	0.050300	0.306800	0.528300
C221	C22	0.081400	0.302400	0.614900
H101	H10	0.149800	0.289300	0.617500
H111	H11	0.044900	0.258500	0.642600
H121	H12	0.069500	0.356600	0.640900
O91	O9	0.868190	0.494160	0.447170
O101	O10	0.882950	0.397940	0.348150
O111	O11	0.593580	0.374160	0.158640
O121	O12	0.563780	0.503370	0.108510
O131	O13	0.543940	0.729560	0.305480
O141	O14	0.630060	0.725510	0.415830
O151	O15	0.997850	0.368670	0.504610
O161	O16	0.069380	0.250090	0.479810
Ni31	Ni3	0.479980	0.182410	0.606340
C231	C23	0.257300	0.003640	0.659480
C241	C24	0.215800	0.044600	0.725070
H131	H13	0.236600	0.099300	0.739500
C251	C25	0.144400	0.005400	0.769090
C261	C26	0.113300	0.925610	0.746960
H141	H14	0.067600	0.897200	0.779300
C271	C27	0.148600	0.887200	0.678080
C281	C28	0.220900	0.926680	0.634320
H151	H15	0.245400	0.900900	0.587100
C291	C29	0.343200	0.040600	0.617400
C301	C30	0.097500	0.046320	0.840510
C311	C31	0.106300	0.805500	0.650500
C321	C32	0.550300	0.193200	0.471700
C331	C33	0.581400	0.197600	0.385100
H161	H16	0.649800	0.210700	0.382500
H171	H17	0.544900	0.241500	0.357400
H181	H18	0.569500	0.143400	0.359100
O171	O17	0.368190	0.005840	0.552830
O181	O18	0.382950	0.102060	0.651850
O191	O19	0.093580	0.125840	0.841360
O201	O20	0.063780	0.996630	0.891490
O211	O21	0.043940	0.770440	0.694520
O221	O22	0.130060	0.774490	0.584170
O231	O23	0.497850	0.131330	0.495390
O241	O24	0.569380	0.249910	0.520190
Ni41	Ni4	0.020020	0.817590	0.106340
C341	C34	0.242700	0.996360	0.159480
C351	C35	0.284200	0.955400	0.225070
H191	H19	0.263400	0.900700	0.239500
C361	C36	0.355600	0.994600	0.269090
C371	C37	0.386700	0.074390	0.246960
H201	H20	0.432400	0.102800	0.279300
C381	C38	0.351400	0.112800	0.178080
C391	C39	0.279100	0.073320	0.134320
H211	H21	0.254600	0.099100	0.087100
C401	C40	0.156800	0.959400	0.117400
C411	C41	0.402500	0.953680	0.340510
C421	C42	0.393700	0.194500	0.150500
C431	C43	0.949700	0.806800	0.971700
C441	C44	0.918600	0.802400	0.885100
H221	H22	0.850200	0.789300	0.882500
H231	H23	0.955100	0.758500	0.857400
H241	H24	0.930500	0.856600	0.859100
O251	O25	0.131810	0.994160	0.052830
O261	O26	0.117050	0.897940	0.151850
O271	O27	0.406420	0.874160	0.341360
O281	O28	0.436220	0.003370	0.391490
O291	O29	0.456060	0.229560	0.194520
O301	O30	0.369940	0.225510	0.084170
O311	O31	0.002150	0.868670	0.995390
O321	O32	0.930620	0.750090	0.020190
Ni51	Ni5	0.479980	0.317590	0.106340
C451	C45	0.257300	0.496360	0.159480
C461	C46	0.215800	0.455400	0.225070
H251	H25	0.236600	0.400700	0.239500
C471	C47	0.144400	0.494600	0.269090
C481	C48	0.113300	0.574390	0.246960
H261	H26	0.067600	0.602800	0.279300
C491	C49	0.148600	0.612800	0.178080
C501	C50	0.220900	0.573320	0.134320
H271	H27	0.245400	0.599100	0.087100
C511	C51	0.343200	0.459400	0.117400
C521	C52	0.097500	0.453680	0.340510
C531	C53	0.106300	0.694500	0.150500
C541	C54	0.550300	0.306800	0.971700
C551	C55	0.581400	0.302400	0.885100
H281	H28	0.649800	0.289300	0.882500
H291	H29	0.544900	0.258500	0.857400
H301	H30	0.569500	0.356600	0.859100
O331	O33	0.368190	0.494160	0.052830
O341	O34	0.382950	0.397940	0.151850
O351	O35	0.093580	0.374160	0.341360
O361	O36	0.063780	0.503370	0.391490
O371	O37	0.043940	0.729560	0.194520
O381	O38	0.130060	0.725510	0.084170
O391	O39	0.497850	0.368670	0.995390
O401	O40	0.569380	0.250090	0.020190
Ni61	Ni6	0.020020	0.682410	0.606340
C561	C56	0.242700	0.503640	0.659480
C571	C57	0.284200	0.544600	0.725070
H311	H31	0.263400	0.599300	0.739500
C581	C58	0.355600	0.505400	0.769090
C591	C59	0.386700	0.425610	0.746960
H321	H32	0.432400	0.397200	0.779300
C601	C60	0.351400	0.387200	0.678080
C611	C61	0.279100	0.426680	0.634320
H331	H33	0.254600	0.400900	0.587100
C621	C62	0.156800	0.540600	0.617400
C631	C63	0.402500	0.546320	0.840510
C641	C64	0.393700	0.305500	0.650500
C651	C65	0.949700	0.693200	0.471700
C661	C66	0.918600	0.697600	0.385100
H341	H34	0.850200	0.710700	0.382500
H351	H35	0.955100	0.741500	0.357400
H361	H36	0.930500	0.643400	0.359100
O411	O41	0.131810	0.505840	0.552830
O421	O42	0.117050	0.602060	0.651850
O431	O43	0.406420	0.625840	0.841360
O441	O44	0.436220	0.496630	0.891490
O451	O45	0.456060	0.270440	0.694520
O461	O46	0.369940	0.274490	0.584170
O471	O47	0.002150	0.631330	0.495390
O481	O48	0.930620	0.749910	0.520190
Ni71	Ni7	0.520020	0.817590	0.393660
C671	C67	0.742700	0.996360	0.340520
C681	C68	0.784200	0.955400	0.274930
H371	H37	0.763400	0.900700	0.260500
C691	C69	0.855600	0.994600	0.230910
C701	C70	0.886700	0.074390	0.253040
H381	H38	0.932400	0.102800	0.220700
C711	C71	0.851400	0.112800	0.321920
C721	C72	0.779100	0.073320	0.365680
H391	H39	0.754600	0.099100	0.412900
C731	C73	0.656800	0.959400	0.382600
C741	C74	0.902500	0.953680	0.159490
C751	C75	0.893700	0.194500	0.349500
C761	C76	0.449700	0.806800	0.528300
C771	C77	0.418600	0.802400	0.614900
H401	H40	0.350200	0.789300	0.617500
H411	H41	0.455100	0.758500	0.642600
H421	H42	0.430500	0.856600	0.640900
O491	O49	0.631810	0.994160	0.447170
O501	O50	0.617050	0.897940	0.348150
O511	O51	0.906420	0.874160	0.158640
O521	O52	0.936220	0.003370	0.108510
O531	O53	0.956060	0.229560	0.305480
O541	O54	0.869940	0.225510	0.415830
O551	O55	0.502150	0.868670	0.504610
O561	O56	0.430620	0.750090	0.479810
Ni81	Ni8	0.979980	0.182410	0.893660
C781	C78	0.757300	0.003640	0.840520
C791	C79	0.715800	0.044600	0.774930
H431	H43	0.736600	0.099300	0.760500
C801	C80	0.644400	0.005400	0.730910
C811	C81	0.613300	0.925610	0.753040
H441	H44	0.567600	0.897200	0.720700
C821	C82	0.648600	0.887200	0.821920
C831	C83	0.720900	0.926680	0.865680
H451	H45	0.745400	0.900900	0.912900
C841	C84	0.843200	0.040600	0.882600
C851	C85	0.597500	0.046320	0.659490
C861	C86	0.606300	0.805500	0.849500
C871	C87	0.050300	0.193200	0.028300
C881	C88	0.081400	0.197600	0.114900
H461	H46	0.149800	0.210700	0.117500
H471	H47	0.044900	0.241500	0.142600
H481	H48	0.069500	0.143400	0.140900
O571	O57	0.868190	0.005840	0.947170
O581	O58	0.882950	0.102060	0.848150
O591	O59	0.593580	0.125840	0.658640
O601	O60	0.563780	0.996630	0.608510
O611	O61	0.543940	0.770440	0.805480
O621	O62	0.630060	0.774490	0.915830
O631	O63	0.997850	0.131330	0.004610
O641	O64	0.069380	0.249910	0.979810
Ni91	Ni9	0.500000	0.500000	0.000000
Ni101	Ni10	0.000000	0.500000	0.500000
Ni111	Ni11	0.500000	0.000000	0.500000
Ni121	Ni12	0.000000	0.000000	0.000000
