data_VEPDEB_charged_PM
_symmetry_space_group_name_H-M	'P1'
_cell_length_a	14.834400
_cell_length_b	19.068200
_cell_length_c	19.068200
_cell_angle_alpha	111.289000
_cell_angle_beta	108.118000
_cell_angle_gamma	71.881700
_symmetry_Int_Tables_number 1

loop_
_symmetry_equiv_pos_as_xyz
'x,y,z'

loop_
_atom_site_label
_atom_site_type_symbol
_atom_site_fract_x
_atom_site_fract_y
_atom_site_fract_z
Fe11	Fe1	0.375890	0.392140	0.048580
Fe21	Fe2	0.624110	0.048580	0.392140
Fe31	Fe3	0.624110	0.607860	0.951420
Fe41	Fe4	0.375890	0.951420	0.607860
Fe51	Fe5	0.500000	0.500000	0.000000
Fe61	Fe6	0.500000	0.000000	0.500000
H11	H1	0.303600	0.569700	0.894700
H21	H2	0.176800	0.448700	0.947700
H31	H3	0.121000	0.456500	0.761100
H41	H4	0.164400	0.521300	0.759500
H51	H5	0.099400	0.663900	0.929700
H61	H6	0.150800	0.649300	0.863300
H71	H7	0.649500	0.347600	0.932400
H81	H8	0.523800	0.236900	0.999500
H91	H9	0.745900	0.164200	0.026800
H101	H10	0.651000	0.131900	0.985900
H111	H11	0.898500	0.024100	0.902900
H121	H12	0.747500	0.237200	0.880200
H131	H13	0.804800	0.228300	0.962100
H141	H14	0.568000	0.590600	0.177400
H151	H15	0.440300	0.467700	0.225900
H161	H16	0.480200	0.529500	0.353500
H171	H17	0.578200	0.469700	0.339500
H181	H18	0.737300	0.490900	0.436100
H191	H19	0.682000	0.589400	0.294400
H201	H20	0.702600	0.506600	0.303200
H211	H21	0.879800	0.434800	0.817400
H221	H22	0.777300	0.655500	0.904300
H231	H23	0.920000	0.679100	0.903100
H241	H24	0.855000	0.675900	0.819500
H251	H25	0.991400	0.724900	0.836300
H261	H26	0.052200	0.636900	0.725100
H271	H27	0.938600	0.647200	0.706800
H281	H28	0.012400	0.518500	0.669300
H291	H29	0.943500	0.469400	0.734400
H301	H30	0.868600	0.541100	0.711500
H311	H31	0.039000	0.480200	0.866800
H321	H32	0.031300	0.559700	0.932100
H331	H33	0.696400	0.894700	0.569700
H341	H34	0.823200	0.947700	0.448700
H351	H35	0.879000	0.761100	0.456500
H361	H36	0.835600	0.759500	0.521300
H371	H37	0.900600	0.929700	0.663900
H381	H38	0.849200	0.863300	0.649300
H391	H39	0.350500	0.932400	0.347600
H401	H40	0.476200	0.999500	0.236900
H411	H41	0.254100	0.026800	0.164200
H421	H42	0.349000	0.985900	0.131900
H431	H43	0.101500	0.902900	0.024100
H441	H44	0.252500	0.880200	0.237200
H451	H45	0.195200	0.962100	0.228300
H461	H46	0.432000	0.177400	0.590600
H471	H47	0.559700	0.225900	0.467700
H481	H48	0.519800	0.353500	0.529500
H491	H49	0.421800	0.339500	0.469700
H501	H50	0.262700	0.436100	0.490900
H511	H51	0.318000	0.294400	0.589400
H521	H52	0.297400	0.303200	0.506600
H531	H53	0.120200	0.817400	0.434800
H541	H54	0.222700	0.904300	0.655500
H551	H55	0.080000	0.903100	0.679100
H561	H56	0.145000	0.819500	0.675900
H571	H57	0.008600	0.836300	0.724900
H581	H58	0.947800	0.725100	0.636900
H591	H59	0.061400	0.706800	0.647200
H601	H60	0.987600	0.669300	0.518500
H611	H61	0.056500	0.734400	0.469400
H621	H62	0.131400	0.711500	0.541100
H631	H63	0.961000	0.866800	0.480200
H641	H64	0.968700	0.932100	0.559700
H651	H65	0.696400	0.430300	0.105300
H661	H66	0.823200	0.551300	0.052300
H671	H67	0.879000	0.543500	0.238900
H681	H68	0.835600	0.478700	0.240500
H691	H69	0.900600	0.336100	0.070300
H701	H70	0.849200	0.350700	0.136700
H711	H71	0.350500	0.652400	0.067600
H721	H72	0.476200	0.763100	0.000500
H731	H73	0.254100	0.835800	0.973200
H741	H74	0.349000	0.868100	0.014100
H751	H75	0.101500	0.975900	0.097100
H761	H76	0.252500	0.762800	0.119800
H771	H77	0.195200	0.771700	0.037900
H781	H78	0.432000	0.409400	0.822600
H791	H79	0.559700	0.532300	0.774100
H801	H80	0.519800	0.470500	0.646500
H811	H81	0.421800	0.530300	0.660500
H821	H82	0.262700	0.509100	0.563900
H831	H83	0.318000	0.410600	0.705600
H841	H84	0.297400	0.493400	0.696800
H851	H85	0.120200	0.565200	0.182600
H861	H86	0.222700	0.344500	0.095700
H871	H87	0.080000	0.320900	0.096900
H881	H88	0.145000	0.324100	0.180500
H891	H89	0.008600	0.275100	0.163700
H901	H90	0.947800	0.363100	0.274900
H911	H91	0.061400	0.352800	0.293200
H921	H92	0.987600	0.481500	0.330700
H931	H93	0.056500	0.530600	0.265600
H941	H94	0.131400	0.458900	0.288500
H951	H95	0.961000	0.519800	0.133200
H961	H96	0.968700	0.440300	0.067900
H971	H97	0.303600	0.105300	0.430300
H981	H98	0.176800	0.052300	0.551300
H991	H99	0.121000	0.238900	0.543500
H1001	H100	0.164400	0.240500	0.478700
H1011	H101	0.099400	0.070300	0.336100
H1021	H102	0.150800	0.136700	0.350700
H1031	H103	0.649500	0.067600	0.652400
H1041	H104	0.523800	0.000500	0.763100
H1051	H105	0.745900	0.973200	0.835800
H1061	H106	0.651000	0.014100	0.868100
H1071	H107	0.898500	0.097100	0.975900
H1081	H108	0.747500	0.119800	0.762800
H1091	H109	0.804800	0.037900	0.771700
H1101	H110	0.568000	0.822600	0.409400
H1111	H111	0.440300	0.774100	0.532300
H1121	H112	0.480200	0.646500	0.470500
H1131	H113	0.578200	0.660500	0.530300
H1141	H114	0.737300	0.563900	0.509100
H1151	H115	0.682000	0.705600	0.410600
H1161	H116	0.702600	0.696800	0.493400
H1171	H117	0.879800	0.182600	0.565200
H1181	H118	0.777300	0.095700	0.344500
H1191	H119	0.920000	0.096900	0.320900
H1201	H120	0.855000	0.180500	0.324100
H1211	H121	0.991400	0.163700	0.275100
H1221	H122	0.052200	0.274900	0.363100
H1231	H123	0.938600	0.293200	0.352800
H1241	H124	0.012400	0.330700	0.481500
H1251	H125	0.943500	0.265600	0.530600
H1261	H126	0.868600	0.288500	0.458900
H1271	H127	0.039000	0.133200	0.519800
H1281	H128	0.031300	0.067900	0.440300
H1291	H129	0.789500	0.027900	0.972100
H1301	H130	0.885100	0.133400	0.866600
H1311	H131	0.594700	0.186500	0.813500
H1321	H132	0.557500	0.145900	0.854100
H1331	H133	0.210500	0.972100	0.027900
H1341	H134	0.114900	0.866600	0.133400
H1351	H135	0.405300	0.813500	0.186500
H1361	H136	0.442500	0.854100	0.145900
H1371	H137	0.587900	0.525300	0.474700
H1381	H138	0.789900	0.585200	0.414800
H1391	H139	0.522900	0.684900	0.315100
H1401	H140	0.446000	0.661400	0.338600
H1411	H141	0.412100	0.474700	0.525300
H1421	H142	0.210100	0.414800	0.585200
H1431	H143	0.477100	0.315100	0.684900
H1441	H144	0.554000	0.338600	0.661400
Au11	Au1	0.673770	0.314810	0.301610
Au21	Au2	0.326230	0.301610	0.314810
Au31	Au3	0.326230	0.685190	0.698400
Au41	Au4	0.673770	0.698400	0.685190
Au51	Au5	0.280410	0.165490	0.834510
Au61	Au6	0.719590	0.834510	0.165490
Au71	Au7	0.500000	0.225020	0.225020
Au81	Au8	0.500000	0.774980	0.774980
C11	C1	0.293000	0.536880	0.915920
C21	C2	0.223300	0.470480	0.945120
C31	C3	0.112200	0.551500	0.857500
C41	C4	0.111800	0.511800	0.772400
C51	C5	0.098400	0.638700	0.875300
C61	C6	0.607900	0.336510	0.952690
C71	C7	0.538500	0.275660	0.989140
C81	C8	0.676500	0.191070	0.924330
C91	C9	0.707900	0.139710	0.977290
C101	C10	0.766600	0.203690	0.912710
C111	C11	0.533100	0.555430	0.172170
C121	C12	0.462600	0.488300	0.198900
C131	C13	0.549200	0.524000	0.359400
C141	C14	0.672600	0.560730	0.323470
C151	C15	0.563800	0.570110	0.314690
C161	C16	0.842700	0.481300	0.842100
C171	C17	0.786900	0.601960	0.889240
C181	C18	0.932400	0.567600	0.829000
C191	C19	0.917700	0.654700	0.848300
C201	C20	0.000300	0.669200	0.826200
C211	C21	0.999800	0.627400	0.738400
C221	C22	0.012700	0.544500	0.724100
C231	C23	0.931300	0.524700	0.743500
C241	C24	0.030300	0.535310	0.877490
C251	C25	0.294000	0.257160	0.925040
C261	C26	0.456200	0.290250	0.155750
C271	C27	0.687300	0.326800	0.206600
C281	C28	0.664900	0.309970	0.401830
C291	C29	0.707000	0.915920	0.536880
C301	C30	0.776700	0.945120	0.470480
C311	C31	0.887800	0.857500	0.551500
C321	C32	0.888200	0.772400	0.511800
C331	C33	0.901600	0.875300	0.638700
C341	C34	0.392100	0.952690	0.336510
C351	C35	0.461500	0.989140	0.275660
C361	C36	0.323500	0.924330	0.191070
C371	C37	0.292100	0.977290	0.139710
C381	C38	0.233400	0.912710	0.203690
C391	C39	0.466900	0.172170	0.555430
C401	C40	0.537400	0.198900	0.488300
C411	C41	0.450800	0.359400	0.524000
C421	C42	0.327400	0.323470	0.560730
C431	C43	0.436200	0.314690	0.570110
C441	C44	0.157300	0.842100	0.481300
C451	C45	0.213100	0.889240	0.601960
C461	C46	0.067600	0.829000	0.567600
C471	C47	0.082300	0.848300	0.654700
C481	C48	0.999700	0.826200	0.669200
C491	C49	0.000200	0.738400	0.627400
C501	C50	0.987300	0.724100	0.544500
C511	C51	0.068700	0.743500	0.524700
C521	C52	0.969700	0.877490	0.535310
C531	C53	0.706000	0.925040	0.257160
C541	C54	0.543800	0.155750	0.290250
C551	C55	0.312700	0.206600	0.326800
C561	C56	0.335100	0.401830	0.309970
C571	C57	0.707000	0.463120	0.084080
C581	C58	0.776700	0.529520	0.054880
C591	C59	0.887800	0.448500	0.142500
C601	C60	0.888200	0.488200	0.227600
C611	C61	0.901600	0.361300	0.124700
C621	C62	0.392100	0.663490	0.047310
C631	C63	0.461500	0.724340	0.010860
C641	C64	0.323500	0.808930	0.075670
C651	C65	0.292100	0.860290	0.022710
C661	C66	0.233400	0.796310	0.087290
C671	C67	0.466900	0.444570	0.827830
C681	C68	0.537400	0.511700	0.801100
C691	C69	0.450800	0.476000	0.640600
C701	C70	0.327400	0.439270	0.676530
C711	C71	0.436200	0.429890	0.685310
C721	C72	0.157300	0.518700	0.157900
C731	C73	0.213100	0.398040	0.110760
C741	C74	0.067600	0.432400	0.171000
C751	C75	0.082300	0.345300	0.151700
C761	C76	0.999700	0.330800	0.173800
C771	C77	0.000200	0.372600	0.261600
C781	C78	0.987300	0.455500	0.275900
C791	C79	0.068700	0.475300	0.256500
C801	C80	0.969700	0.464690	0.122510
C811	C81	0.706000	0.742840	0.074960
C821	C82	0.543800	0.709750	0.844250
C831	C83	0.312700	0.673200	0.793400
C841	C84	0.335100	0.690030	0.598170
C851	C85	0.293000	0.084080	0.463120
C861	C86	0.223300	0.054880	0.529520
C871	C87	0.112200	0.142500	0.448500
C881	C88	0.111800	0.227600	0.488200
C891	C89	0.098400	0.124700	0.361300
C901	C90	0.607900	0.047310	0.663490
C911	C91	0.538500	0.010860	0.724340
C921	C92	0.676500	0.075670	0.808930
C931	C93	0.707900	0.022710	0.860290
C941	C94	0.766600	0.087290	0.796310
C951	C95	0.533100	0.827830	0.444570
C961	C96	0.462600	0.801100	0.511700
C971	C97	0.549200	0.640600	0.476000
C981	C98	0.672600	0.676530	0.439270
C991	C99	0.563800	0.685310	0.429890
C1001	C100	0.842700	0.157900	0.518700
C1011	C101	0.786900	0.110760	0.398040
C1021	C102	0.932400	0.171000	0.432400
C1031	C103	0.917700	0.151700	0.345300
C1041	C104	0.000300	0.173800	0.330800
C1051	C105	0.999800	0.261600	0.372600
C1061	C106	0.012700	0.275900	0.455500
C1071	C107	0.931300	0.256500	0.475300
C1081	C108	0.030300	0.122510	0.464690
C1091	C109	0.294000	0.074960	0.742840
C1101	C110	0.456200	0.844250	0.709750
C1111	C111	0.687300	0.793400	0.673200
C1121	C112	0.664900	0.598170	0.690030
C1131	C113	0.769400	0.061300	0.938700
C1141	C114	0.859400	0.073400	0.926600
C1151	C115	0.827400	0.125400	0.874600
C1161	C116	0.615200	0.153400	0.846600
C1171	C117	0.230600	0.938700	0.061300
C1181	C118	0.140600	0.926600	0.073400
C1191	C119	0.172600	0.874600	0.125400
C1201	C120	0.384800	0.846600	0.153400
C1211	C121	0.597400	0.554500	0.445500
C1221	C122	0.706800	0.545100	0.454900
C1231	C123	0.720300	0.590800	0.409200
C1241	C124	0.515000	0.655600	0.344400
C1251	C125	0.402600	0.445500	0.554500
C1261	C126	0.293200	0.454900	0.545100
C1271	C127	0.279700	0.409200	0.590800
C1281	C128	0.485000	0.344400	0.655600
N11	N1	0.315400	0.456970	0.979750
N21	N2	0.489500	0.347760	0.002580
N31	N3	0.443900	0.470850	0.123170
N41	N4	0.735900	0.564340	0.901880
N51	N5	0.315300	0.310860	0.973540
N61	N6	0.430200	0.328210	0.115590
N71	N7	0.360300	0.499070	0.961170
N81	N8	0.206000	0.520940	0.904860
N91	N9	0.534300	0.386700	0.980620
N101	N10	0.613500	0.266260	0.958080
N111	N11	0.490100	0.513030	0.105750
N121	N12	0.519100	0.540430	0.231390
N131	N13	0.772000	0.486890	0.872110
N141	N14	0.855300	0.551680	0.851320
N151	N15	0.693000	0.337890	0.152910
N161	N16	0.664100	0.308890	0.460910
N171	N17	0.684600	0.979750	0.456970
N181	N18	0.510500	0.002580	0.347760
N191	N19	0.556100	0.123170	0.470850
N201	N20	0.264100	0.901880	0.564340
N211	N21	0.684700	0.973540	0.310860
N221	N22	0.569800	0.115590	0.328210
N231	N23	0.639700	0.961170	0.499070
N241	N24	0.794000	0.904860	0.520940
N251	N25	0.465700	0.980620	0.386700
N261	N26	0.386500	0.958080	0.266260
N271	N27	0.509900	0.105750	0.513030
N281	N28	0.480900	0.231390	0.540430
N291	N29	0.228000	0.872110	0.486890
N301	N30	0.144700	0.851320	0.551680
N311	N31	0.307000	0.152910	0.337890
N321	N32	0.335900	0.460910	0.308890
N331	N33	0.684600	0.543030	0.020250
N341	N34	0.510500	0.652240	0.997420
N351	N35	0.556100	0.529150	0.876830
N361	N36	0.264100	0.435660	0.098120
N371	N37	0.684700	0.689140	0.026460
N381	N38	0.569800	0.671790	0.884410
N391	N39	0.639700	0.500930	0.038830
N401	N40	0.794000	0.479060	0.095140
N411	N41	0.465700	0.613300	0.019380
N421	N42	0.386500	0.733740	0.041920
N431	N43	0.509900	0.486970	0.894250
N441	N44	0.480900	0.459570	0.768610
N451	N45	0.228000	0.513110	0.127890
N461	N46	0.144700	0.448320	0.148680
N471	N47	0.307000	0.662110	0.847090
N481	N48	0.335900	0.691110	0.539090
N491	N49	0.315400	0.020250	0.543030
N501	N50	0.489500	0.997420	0.652240
N511	N51	0.443900	0.876830	0.529150
N521	N52	0.735900	0.098120	0.435660
N531	N53	0.315300	0.026460	0.689140
N541	N54	0.430200	0.884410	0.671790
N551	N55	0.360300	0.038830	0.500930
N561	N56	0.206000	0.095140	0.479060
N571	N57	0.534300	0.019380	0.613300
N581	N58	0.613500	0.041920	0.733740
N591	N59	0.490100	0.894250	0.486970
N601	N60	0.519100	0.768610	0.459570
N611	N61	0.772000	0.127890	0.513110
N621	N62	0.855300	0.148680	0.448320
N631	N63	0.693000	0.847090	0.662110
N641	N64	0.664100	0.539090	0.691110
