data_VERPOZ_clean_PM
_symmetry_space_group_name_H-M	'P1'
_cell_length_a	19.371700
_cell_length_b	19.371700
_cell_length_c	52.616000
_cell_angle_alpha	90.000000
_cell_angle_beta	90.000000
_cell_angle_gamma	120.000000
_symmetry_Int_Tables_number 1

loop_
_symmetry_equiv_pos_as_xyz
'x,y,z'

loop_
_atom_site_label
_atom_site_type_symbol
_atom_site_fract_x
_atom_site_fract_y
_atom_site_fract_z
Mn11	Mn1	0.965050	0.890320	0.780830
O11	O1	0.926190	0.780650	0.782350
O21	O2	0.845280	0.930660	0.768960
N11	N1	0.995500	0.901900	0.821130
N21	N2	0.009200	0.852900	0.830180
N31	N3	0.022200	0.805800	0.838930
N41	N4	0.853400	0.869300	0.779370
N51	N5	0.092100	0.987200	0.868820
C11	C1	0.859200	0.727500	0.793430
C21	C2	0.855600	0.657500	0.802750
H11	H1	0.901100	0.651300	0.801400
C31	C3	0.786700	0.597700	0.813800
H21	H2	0.785000	0.550600	0.819700
C41	C4	0.720200	0.606600	0.816260
H31	H3	0.673400	0.566000	0.824200
C51	C5	0.722000	0.673800	0.807210
H41	H4	0.676000	0.679000	0.808900
C61	C6	0.790400	0.735500	0.795360
C71	C7	0.787500	0.804500	0.785250
C81	C8	0.709300	0.801600	0.780880
H51	H5	0.702900	0.835400	0.793400
H61	H6	0.665600	0.746500	0.782600
H71	H7	0.708600	0.820900	0.763700
C91	C9	0.159800	0.003600	0.857020
H81	H8	0.168900	0.025700	0.840400
C101	C10	0.217900	0.990300	0.867830
H91	H9	0.265200	0.003300	0.858700
C111	C11	0.205900	0.958000	0.891790
C121	C12	0.135600	0.939100	0.904000
H101	H10	0.125000	0.916300	0.920500
C131	C13	0.080400	0.953600	0.891920
H111	H11	0.031800	0.939100	0.900400
C141	C14	0.269500	0.946000	0.904160
H121	H12	0.294600	0.928600	0.891100
H131	H13	0.244800	0.903500	0.917100
H141	H14	0.358300	0.065400	0.903600
Mn21	Mn2	0.109680	0.074730	0.780830
O31	O3	0.219350	0.145540	0.782350
O41	O4	0.069340	0.914620	0.768960
N61	N6	0.098100	0.093600	0.821130
N71	N7	0.147100	0.156300	0.830180
N81	N8	0.194200	0.216400	0.838930
N91	N9	0.130700	0.984100	0.779370
N101	N10	0.012800	0.104900	0.868820
C151	C15	0.272500	0.131700	0.793430
C161	C16	0.342500	0.198100	0.802750
H151	H15	0.348700	0.249800	0.801400
C171	C17	0.402300	0.189000	0.813800
H161	H16	0.449400	0.234400	0.819700
C181	C18	0.393400	0.113600	0.816260
H171	H17	0.434000	0.107400	0.824200
C191	C19	0.326200	0.048200	0.807210
H181	H18	0.321000	0.997000	0.808900
C201	C20	0.264500	0.054900	0.795360
C211	C21	0.195500	0.983000	0.785250
C221	C22	0.198400	0.907700	0.780880
H191	H19	0.164600	0.867500	0.793400
H201	H20	0.253500	0.919100	0.782600
H211	H21	0.179100	0.887700	0.763700
C231	C23	0.996400	0.156200	0.857020
H221	H22	0.974300	0.143200	0.840400
C241	C24	0.009700	0.227600	0.867830
H231	H23	0.996700	0.261900	0.858700
C251	C25	0.042000	0.247900	0.891790
C261	C26	0.060900	0.196500	0.904000
H241	H24	0.083700	0.208700	0.920500
C271	C27	0.046400	0.126800	0.891920
H251	H25	0.060900	0.092700	0.900400
C281	C28	0.054000	0.323500	0.904160
H261	H26	0.071400	0.366000	0.891100
H271	H27	0.096500	0.341300	0.917100
H281	H28	0.934600	0.292900	0.903600
Mn31	Mn3	0.925270	0.034950	0.780830
O51	O5	0.854460	0.073810	0.782350
O61	O6	0.085380	0.154720	0.768960
N111	N11	0.906400	0.004500	0.821130
N121	N12	0.843700	0.990800	0.830180
N131	N13	0.783600	0.977800	0.838930
N141	N14	0.015900	0.146600	0.779370
N151	N15	0.895100	0.907900	0.868820
C291	C29	0.868300	0.140800	0.793430
C301	C30	0.801900	0.144400	0.802750
H291	H29	0.750200	0.098900	0.801400
C311	C31	0.811000	0.213300	0.813800
H301	H30	0.765600	0.215000	0.819700
C321	C32	0.886400	0.279800	0.816260
H311	H31	0.892600	0.326600	0.824200
C331	C33	0.951800	0.278000	0.807210
H321	H32	0.003000	0.324000	0.808900
C341	C34	0.945100	0.209600	0.795360
C351	C35	0.017000	0.212500	0.785250
C361	C36	0.092300	0.290700	0.780880
H331	H33	0.132500	0.297100	0.793400
H341	H34	0.080900	0.334400	0.782600
H351	H35	0.112300	0.291400	0.763700
C371	C37	0.843800	0.840200	0.857020
H361	H36	0.856800	0.831100	0.840400
C381	C38	0.772400	0.782100	0.867830
H371	H37	0.738100	0.734800	0.858700
C391	C39	0.752100	0.794100	0.891790
C401	C40	0.803500	0.864400	0.904000
H381	H38	0.791300	0.875000	0.920500
C411	C41	0.873200	0.919600	0.891920
H391	H39	0.907300	0.968200	0.900400
C421	C42	0.676500	0.730500	0.904160
H401	H40	0.634000	0.705400	0.891100
H411	H41	0.658700	0.755200	0.917100
H421	H42	0.707100	0.641700	0.903600
Mn41	Mn4	0.556990	0.298380	0.052510
O71	O7	0.447320	0.259520	0.050980
O81	O8	0.597330	0.178610	0.064370
N161	N16	0.568570	0.328830	0.012200
N171	N17	0.519570	0.342530	0.003150
N181	N18	0.472470	0.355530	0.994400
N191	N19	0.535970	0.186730	0.053960
N201	N20	0.653870	0.425430	0.964510
C431	C43	0.394170	0.192530	0.039900
C441	C44	0.324170	0.188930	0.030580
H431	H43	0.317970	0.234430	0.031930
C451	C45	0.264370	0.120030	0.019530
H441	H44	0.217270	0.118330	0.013630
C461	C46	0.273270	0.053530	0.017070
H451	H45	0.232670	0.006730	0.009130
C471	C47	0.340470	0.055330	0.026120
H461	H46	0.345670	0.009330	0.024430
C481	C48	0.402170	0.123730	0.037970
C491	C49	0.471170	0.120830	0.048080
C501	C50	0.468270	0.042630	0.052450
H471	H47	0.502070	0.036230	0.039930
H481	H48	0.413170	0.998930	0.050730
H491	H49	0.487570	0.041930	0.069630
C511	C51	0.670270	0.493130	0.976310
H501	H50	0.692370	0.502230	0.992930
C521	C52	0.656970	0.551230	0.965500
H511	H51	0.669970	0.598530	0.974630
C531	C53	0.624670	0.539230	0.941540
C541	C54	0.605770	0.468930	0.929330
H521	H52	0.582970	0.458330	0.912830
C551	C55	0.620270	0.413730	0.941410
H531	H53	0.605770	0.365130	0.932930
C561	C56	0.612670	0.602830	0.929170
H541	H54	0.595270	0.627930	0.942230
H551	H55	0.570170	0.578130	0.916230
H561	H56	0.732070	0.691630	0.929730
Mn51	Mn5	0.741400	0.443010	0.052510
O91	O9	0.812210	0.552680	0.050980
O101	O10	0.581290	0.402670	0.064370
N211	N21	0.760270	0.431430	0.012200
N221	N22	0.822970	0.480430	0.003150
N231	N23	0.883070	0.527530	0.994400
N241	N24	0.650770	0.464030	0.053960
N251	N25	0.771570	0.346130	0.964510
C571	C57	0.798370	0.605830	0.039900
C581	C58	0.864770	0.675830	0.030580
H571	H57	0.916470	0.682030	0.031930
C591	C59	0.855670	0.735630	0.019530
H581	H58	0.901070	0.782730	0.013630
C601	C60	0.780270	0.726730	0.017070
H591	H59	0.774070	0.767330	0.009130
C611	C61	0.714870	0.659530	0.026120
H601	H60	0.663670	0.654330	0.024430
C621	C62	0.721570	0.597830	0.037970
C631	C63	0.649670	0.528830	0.048080
C641	C64	0.574370	0.531730	0.052450
H611	H61	0.534170	0.497930	0.039930
H621	H62	0.585770	0.586830	0.050730
H631	H63	0.554370	0.512430	0.069630
C651	C65	0.822870	0.329730	0.976310
H641	H64	0.809870	0.307630	0.992930
C661	C66	0.894270	0.343030	0.965500
H651	H65	0.928570	0.330030	0.974630
C671	C67	0.914570	0.375330	0.941540
C681	C68	0.863170	0.394230	0.929330
H661	H66	0.875370	0.417030	0.912830
C691	C69	0.793470	0.379730	0.941410
H671	H67	0.759370	0.394230	0.932930
C701	C70	0.990170	0.387330	0.929170
H681	H68	0.032670	0.404730	0.942230
H691	H69	0.007970	0.429830	0.916230
H701	H70	0.959570	0.267930	0.929730
Mn61	Mn6	0.701620	0.258600	0.052510
O111	O11	0.740480	0.187790	0.050980
O121	O12	0.821390	0.418710	0.064370
N261	N26	0.671170	0.239730	0.012200
N271	N27	0.657470	0.177030	0.003150
N281	N28	0.644470	0.116930	0.994400
N291	N29	0.813270	0.349230	0.053960
N301	N30	0.574570	0.228430	0.964510
C711	C71	0.807470	0.201630	0.039900
C721	C72	0.811070	0.135230	0.030580
H711	H71	0.765570	0.083530	0.031930
C731	C73	0.879970	0.144330	0.019530
H721	H72	0.881670	0.098930	0.013630
C741	C74	0.946470	0.219730	0.017070
H731	H73	0.993270	0.225930	0.009130
C751	C75	0.944670	0.285130	0.026120
H741	H74	0.990670	0.336330	0.024430
C761	C76	0.876270	0.278430	0.037970
C771	C77	0.879170	0.350330	0.048080
C781	C78	0.957370	0.425630	0.052450
H751	H75	0.963770	0.465830	0.039930
H761	H76	0.001070	0.414230	0.050730
H771	H77	0.958070	0.445630	0.069630
C791	C79	0.506870	0.177130	0.976310
H781	H78	0.497770	0.190130	0.992930
C801	C80	0.448770	0.105730	0.965500
H791	H79	0.401470	0.071430	0.974630
C811	C81	0.460770	0.085430	0.941540
C821	C82	0.531070	0.136830	0.929330
H801	H80	0.541670	0.124630	0.912830
C831	C83	0.586270	0.206530	0.941410
H811	H81	0.634870	0.240630	0.932930
C841	C84	0.397170	0.009830	0.929170
H821	H82	0.372070	0.967330	0.942230
H831	H83	0.421870	0.992030	0.916230
H841	H84	0.308370	0.040430	0.929730
Mn71	Mn7	0.000000	0.000000	0.845020
O131	O13	0.000000	0.000000	0.778410
Mn81	Mn8	0.666670	0.333330	0.988310
O141	O14	0.666670	0.333330	0.054920
C851	C85	0.333330	0.023020	0.916670
C861	C86	0.976980	0.310320	0.916670
C871	C87	0.689680	0.666670	0.916670
Mn91	Mn9	0.631720	0.223650	0.114160
O151	O15	0.592860	0.113980	0.115680
O161	O16	0.511950	0.263990	0.102290
N311	N31	0.662170	0.235230	0.154460
N321	N32	0.675870	0.186230	0.163510
N331	N33	0.688870	0.139130	0.172260
N341	N34	0.520070	0.202630	0.112700
N351	N35	0.758770	0.320530	0.202150
C881	C88	0.525870	0.060830	0.126760
C891	C89	0.522270	0.990830	0.136080
H851	H85	0.567770	0.984630	0.134730
C901	C90	0.453370	0.931030	0.147130
H861	H86	0.451670	0.883930	0.153030
C911	C91	0.386870	0.939930	0.149590
H871	H87	0.340070	0.899330	0.157530
C921	C92	0.388670	0.007130	0.140540
H881	H88	0.342670	0.012330	0.142230
C931	C93	0.457070	0.068830	0.128690
C941	C94	0.454170	0.137830	0.118580
C951	C95	0.375970	0.134930	0.114210
H891	H89	0.369570	0.168730	0.126730
H901	H90	0.332270	0.079830	0.115930
H911	H91	0.375270	0.154230	0.097030
C961	C96	0.826470	0.336930	0.190350
H921	H92	0.835570	0.359030	0.173730
C971	C97	0.884570	0.323630	0.201160
H931	H93	0.931870	0.336630	0.192030
C981	C98	0.872570	0.291330	0.225120
C991	C99	0.802270	0.272430	0.237330
H941	H94	0.791670	0.249630	0.253830
C1001	C100	0.747070	0.286930	0.225250
H951	H95	0.698470	0.272430	0.233730
C1011	C101	0.936170	0.279330	0.237490
H961	H96	0.961270	0.261930	0.224430
H971	H97	0.911470	0.236830	0.250430
H981	H98	0.024970	0.398730	0.236930
Mn101	Mn10	0.776350	0.408060	0.114160
O171	O17	0.886020	0.478870	0.115680
O181	O18	0.736010	0.247950	0.102290
N361	N36	0.764770	0.426930	0.154460
N371	N37	0.813770	0.489630	0.163510
N381	N38	0.860870	0.549730	0.172260
N391	N39	0.797370	0.317430	0.112700
N401	N40	0.679470	0.438230	0.202150
C1021	C102	0.939170	0.465030	0.126760
C1031	C103	0.009170	0.531430	0.136080
H991	H99	0.015370	0.583130	0.134730
C1041	C104	0.068970	0.522330	0.147130
H1001	H100	0.116070	0.567730	0.153030
C1051	C105	0.060070	0.446930	0.149590
H1011	H101	0.100670	0.440730	0.157530
C1061	C106	0.992870	0.381530	0.140540
H1021	H102	0.987670	0.330330	0.142230
C1071	C107	0.931170	0.388230	0.128690
C1081	C108	0.862170	0.316330	0.118580
C1091	C109	0.865070	0.241030	0.114210
H1031	H103	0.831270	0.200830	0.126730
H1041	H104	0.920170	0.252430	0.115930
H1051	H105	0.845770	0.221030	0.097030
C1101	C110	0.663070	0.489530	0.190350
H1061	H106	0.640970	0.476530	0.173730
C1111	C111	0.676370	0.560930	0.201160
H1071	H107	0.663370	0.595230	0.192030
C1121	C112	0.708670	0.581230	0.225120
C1131	C113	0.727570	0.529830	0.237330
H1081	H108	0.750370	0.542030	0.253830
C1141	C114	0.713070	0.460130	0.225250
H1091	H109	0.727570	0.426030	0.233730
C1151	C115	0.720670	0.656830	0.237490
H1101	H110	0.738070	0.699330	0.224430
H1111	H111	0.763170	0.674630	0.250430
H1121	H112	0.601270	0.626230	0.236930
Mn111	Mn11	0.591940	0.368280	0.114160
O191	O19	0.521130	0.407140	0.115680
O201	O20	0.752050	0.488050	0.102290
N411	N41	0.573070	0.337830	0.154460
N421	N42	0.510370	0.324130	0.163510
N431	N43	0.450270	0.311130	0.172260
N441	N44	0.682570	0.479930	0.112700
N451	N45	0.561770	0.241230	0.202150
C1161	C116	0.534970	0.474130	0.126760
C1171	C117	0.468570	0.477730	0.136080
H1131	H113	0.416870	0.432230	0.134730
C1181	C118	0.477670	0.546630	0.147130
H1141	H114	0.432270	0.548330	0.153030
C1191	C119	0.553070	0.613130	0.149590
H1151	H115	0.559270	0.659930	0.157530
C1201	C120	0.618470	0.611330	0.140540
H1161	H116	0.669670	0.657330	0.142230
C1211	C121	0.611770	0.542930	0.128690
C1221	C122	0.683670	0.545830	0.118580
C1231	C123	0.758970	0.624030	0.114210
H1171	H117	0.799170	0.630430	0.126730
H1181	H118	0.747570	0.667730	0.115930
H1191	H119	0.778970	0.624730	0.097030
C1241	C124	0.510470	0.173530	0.190350
H1201	H120	0.523470	0.164430	0.173730
C1251	C125	0.439070	0.115430	0.201160
H1211	H121	0.404770	0.068130	0.192030
C1261	C126	0.418770	0.127430	0.225120
C1271	C127	0.470170	0.197730	0.237330
H1221	H122	0.457970	0.208330	0.253830
C1281	C128	0.539870	0.252930	0.225250
H1231	H123	0.573970	0.301530	0.233730
C1291	C129	0.343170	0.063830	0.237490
H1241	H124	0.300670	0.038730	0.224430
H1251	H125	0.325370	0.088530	0.250430
H1261	H126	0.373770	0.975030	0.236930
Mn121	Mn12	0.223650	0.631720	0.385840
O211	O21	0.113980	0.592860	0.384320
O221	O22	0.263990	0.511950	0.397710
N461	N46	0.235230	0.662170	0.345540
N471	N47	0.186230	0.675870	0.336490
N481	N48	0.139130	0.688870	0.327740
N491	N49	0.202630	0.520070	0.387300
N501	N50	0.320530	0.758770	0.297850
C1301	C130	0.060830	0.525870	0.373240
C1311	C131	0.990830	0.522270	0.363920
H1271	H127	0.984630	0.567770	0.365270
C1321	C132	0.931030	0.453370	0.352870
H1281	H128	0.883930	0.451670	0.346970
C1331	C133	0.939930	0.386870	0.350410
H1291	H129	0.899330	0.340070	0.342470
C1341	C134	0.007130	0.388670	0.359460
H1301	H130	0.012330	0.342670	0.357770
C1351	C135	0.068830	0.457070	0.371310
C1361	C136	0.137830	0.454170	0.381420
C1371	C137	0.134930	0.375970	0.385790
H1311	H131	0.168730	0.369570	0.373270
H1321	H132	0.079830	0.332270	0.384070
H1331	H133	0.154230	0.375270	0.402970
C1381	C138	0.336930	0.826470	0.309650
H1341	H134	0.359030	0.835570	0.326270
C1391	C139	0.323630	0.884570	0.298840
H1351	H135	0.336630	0.931870	0.307970
C1401	C140	0.291330	0.872570	0.274880
C1411	C141	0.272430	0.802270	0.262670
H1361	H136	0.249630	0.791670	0.246170
C1421	C142	0.286930	0.747070	0.274750
H1371	H137	0.272430	0.698470	0.266270
C1431	C143	0.279330	0.936170	0.262510
H1381	H138	0.261930	0.961270	0.275570
H1391	H139	0.236830	0.911470	0.249570
H1401	H140	0.398730	0.024970	0.263070
Mn131	Mn13	0.408060	0.776350	0.385840
O231	O23	0.478870	0.886020	0.384320
O241	O24	0.247950	0.736010	0.397710
N511	N51	0.426930	0.764770	0.345540
N521	N52	0.489630	0.813770	0.336490
N531	N53	0.549730	0.860870	0.327740
N541	N54	0.317430	0.797370	0.387300
N551	N55	0.438230	0.679470	0.297850
C1441	C144	0.465030	0.939170	0.373240
C1451	C145	0.531430	0.009170	0.363920
H1411	H141	0.583130	0.015370	0.365270
C1461	C146	0.522330	0.068970	0.352870
H1421	H142	0.567730	0.116070	0.346970
C1471	C147	0.446930	0.060070	0.350410
H1431	H143	0.440730	0.100670	0.342470
C1481	C148	0.381530	0.992870	0.359460
H1441	H144	0.330330	0.987670	0.357770
C1491	C149	0.388230	0.931170	0.371310
C1501	C150	0.316330	0.862170	0.381420
C1511	C151	0.241030	0.865070	0.385790
H1451	H145	0.200830	0.831270	0.373270
H1461	H146	0.252430	0.920170	0.384070
H1471	H147	0.221030	0.845770	0.402970
C1521	C152	0.489530	0.663070	0.309650
H1481	H148	0.476530	0.640970	0.326270
C1531	C153	0.560930	0.676370	0.298840
H1491	H149	0.595230	0.663370	0.307970
C1541	C154	0.581230	0.708670	0.274880
C1551	C155	0.529830	0.727570	0.262670
H1501	H150	0.542030	0.750370	0.246170
C1561	C156	0.460130	0.713070	0.274750
H1511	H151	0.426030	0.727570	0.266270
C1571	C157	0.656830	0.720670	0.262510
H1521	H152	0.699330	0.738070	0.275570
H1531	H153	0.674630	0.763170	0.249570
H1541	H154	0.626230	0.601270	0.263070
Mn141	Mn14	0.368280	0.591940	0.385840
O251	O25	0.407140	0.521130	0.384320
O261	O26	0.488050	0.752050	0.397710
N561	N56	0.337830	0.573070	0.345540
N571	N57	0.324130	0.510370	0.336490
N581	N58	0.311130	0.450270	0.327740
N591	N59	0.479930	0.682570	0.387300
N601	N60	0.241230	0.561770	0.297850
C1581	C158	0.474130	0.534970	0.373240
C1591	C159	0.477730	0.468570	0.363920
H1551	H155	0.432230	0.416870	0.365270
C1601	C160	0.546630	0.477670	0.352870
H1561	H156	0.548330	0.432270	0.346970
C1611	C161	0.613130	0.553070	0.350410
H1571	H157	0.659930	0.559270	0.342470
C1621	C162	0.611330	0.618470	0.359460
H1581	H158	0.657330	0.669670	0.357770
C1631	C163	0.542930	0.611770	0.371310
C1641	C164	0.545830	0.683670	0.381420
C1651	C165	0.624030	0.758970	0.385790
H1591	H159	0.630430	0.799170	0.373270
H1601	H160	0.667730	0.747570	0.384070
H1611	H161	0.624730	0.778970	0.402970
C1661	C166	0.173530	0.510470	0.309650
H1621	H162	0.164430	0.523470	0.326270
C1671	C167	0.115430	0.439070	0.298840
H1631	H163	0.068130	0.404770	0.307970
C1681	C168	0.127430	0.418770	0.274880
C1691	C169	0.197730	0.470170	0.262670
H1641	H164	0.208330	0.457970	0.246170
C1701	C170	0.252930	0.539870	0.274750
H1651	H165	0.301530	0.573970	0.266270
C1711	C171	0.063830	0.343170	0.262510
H1661	H166	0.038730	0.300670	0.275570
H1671	H167	0.088530	0.325370	0.249570
H1681	H168	0.975030	0.373770	0.263070
Mn151	Mn15	0.666670	0.333330	0.178350
O271	O27	0.666670	0.333330	0.111740
Mn161	Mn16	0.333330	0.666670	0.321650
O281	O28	0.333330	0.666670	0.388260
C1721	C172	0.000000	0.356350	0.250000
C1731	C173	0.643650	0.643650	0.250000
C1741	C174	0.356350	0.000000	0.250000
Mn171	Mn17	0.298380	0.556990	0.447490
O291	O29	0.259520	0.447320	0.449020
O301	O30	0.178610	0.597330	0.435630
N611	N61	0.328830	0.568570	0.487800
N621	N62	0.342530	0.519570	0.496850
N631	N63	0.355530	0.472470	0.505600
N641	N64	0.186730	0.535970	0.446040
N651	N65	0.425430	0.653870	0.535490
C1751	C175	0.192530	0.394170	0.460100
C1761	C176	0.188930	0.324170	0.469420
H1691	H169	0.234430	0.317970	0.468070
C1771	C177	0.120030	0.264370	0.480470
H1701	H170	0.118330	0.217270	0.486370
C1781	C178	0.053530	0.273270	0.482930
H1711	H171	0.006730	0.232670	0.490870
C1791	C179	0.055330	0.340470	0.473880
H1721	H172	0.009330	0.345670	0.475570
C1801	C180	0.123730	0.402170	0.462030
C1811	C181	0.120830	0.471170	0.451920
C1821	C182	0.042630	0.468270	0.447550
H1731	H173	0.036230	0.502070	0.460070
H1741	H174	0.998930	0.413170	0.449270
H1751	H175	0.041930	0.487570	0.430370
C1831	C183	0.493130	0.670270	0.523690
H1761	H176	0.502230	0.692370	0.507070
C1841	C184	0.551230	0.656970	0.534500
H1771	H177	0.598530	0.669970	0.525370
C1851	C185	0.539230	0.624670	0.558460
C1861	C186	0.468930	0.605770	0.570670
H1781	H178	0.458330	0.582970	0.587170
C1871	C187	0.413730	0.620270	0.558590
H1791	H179	0.365130	0.605770	0.567070
C1881	C188	0.602830	0.612670	0.570830
H1801	H180	0.627930	0.595270	0.557770
H1811	H181	0.578130	0.570170	0.583770
H1821	H182	0.691630	0.732070	0.570270
Mn181	Mn18	0.443010	0.741400	0.447490
O311	O31	0.552680	0.812210	0.449020
O321	O32	0.402670	0.581290	0.435630
N661	N66	0.431430	0.760270	0.487800
N671	N67	0.480430	0.822970	0.496850
N681	N68	0.527530	0.883070	0.505600
N691	N69	0.464030	0.650770	0.446040
N701	N70	0.346130	0.771570	0.535490
C1891	C189	0.605830	0.798370	0.460100
C1901	C190	0.675830	0.864770	0.469420
H1831	H183	0.682030	0.916470	0.468070
C1911	C191	0.735630	0.855670	0.480470
H1841	H184	0.782730	0.901070	0.486370
C1921	C192	0.726730	0.780270	0.482930
H1851	H185	0.767330	0.774070	0.490870
C1931	C193	0.659530	0.714870	0.473880
H1861	H186	0.654330	0.663670	0.475570
C1941	C194	0.597830	0.721570	0.462030
C1951	C195	0.528830	0.649670	0.451920
C1961	C196	0.531730	0.574370	0.447550
H1871	H187	0.497930	0.534170	0.460070
H1881	H188	0.586830	0.585770	0.449270
H1891	H189	0.512430	0.554370	0.430370
C1971	C197	0.329730	0.822870	0.523690
H1901	H190	0.307630	0.809870	0.507070
C1981	C198	0.343030	0.894270	0.534500
H1911	H191	0.330030	0.928570	0.525370
C1991	C199	0.375330	0.914570	0.558460
C2001	C200	0.394230	0.863170	0.570670
H1921	H192	0.417030	0.875370	0.587170
C2011	C201	0.379730	0.793470	0.558590
H1931	H193	0.394230	0.759370	0.567070
C2021	C202	0.387330	0.990170	0.570830
H1941	H194	0.404730	0.032670	0.557770
H1951	H195	0.429830	0.007970	0.583770
H1961	H196	0.267930	0.959570	0.570270
Mn191	Mn19	0.258600	0.701620	0.447490
O331	O33	0.187790	0.740480	0.449020
O341	O34	0.418710	0.821390	0.435630
N711	N71	0.239730	0.671170	0.487800
N721	N72	0.177030	0.657470	0.496850
N731	N73	0.116930	0.644470	0.505600
N741	N74	0.349230	0.813270	0.446040
N751	N75	0.228430	0.574570	0.535490
C2031	C203	0.201630	0.807470	0.460100
C2041	C204	0.135230	0.811070	0.469420
H1971	H197	0.083530	0.765570	0.468070
C2051	C205	0.144330	0.879970	0.480470
H1981	H198	0.098930	0.881670	0.486370
C2061	C206	0.219730	0.946470	0.482930
H1991	H199	0.225930	0.993270	0.490870
C2071	C207	0.285130	0.944670	0.473880
H2001	H200	0.336330	0.990670	0.475570
C2081	C208	0.278430	0.876270	0.462030
C2091	C209	0.350330	0.879170	0.451920
C2101	C210	0.425630	0.957370	0.447550
H2011	H201	0.465830	0.963770	0.460070
H2021	H202	0.414230	0.001070	0.449270
H2031	H203	0.445630	0.958070	0.430370
C2111	C211	0.177130	0.506870	0.523690
H2041	H204	0.190130	0.497770	0.507070
C2121	C212	0.105730	0.448770	0.534500
H2051	H205	0.071430	0.401470	0.525370
C2131	C213	0.085430	0.460770	0.558460
C2141	C214	0.136830	0.531070	0.570670
H2061	H206	0.124630	0.541670	0.587170
C2151	C215	0.206530	0.586270	0.558590
H2071	H207	0.240630	0.634870	0.567070
C2161	C216	0.009830	0.397170	0.570830
H2081	H208	0.967330	0.372070	0.557770
H2091	H209	0.992030	0.421870	0.583770
H2101	H210	0.040430	0.308370	0.570270
Mn201	Mn20	0.890320	0.965050	0.719170
O351	O35	0.780650	0.926190	0.717650
O361	O36	0.930660	0.845280	0.731040
N761	N76	0.901900	0.995500	0.678870
N771	N77	0.852900	0.009200	0.669820
N781	N78	0.805800	0.022200	0.661070
N791	N79	0.869300	0.853400	0.720630
N801	N80	0.987200	0.092100	0.631180
C2171	C217	0.727500	0.859200	0.706570
C2181	C218	0.657500	0.855600	0.697250
H2111	H211	0.651300	0.901100	0.698600
C2191	C219	0.597700	0.786700	0.686200
H2121	H212	0.550600	0.785000	0.680300
C2201	C220	0.606600	0.720200	0.683740
H2131	H213	0.566000	0.673400	0.675800
C2211	C221	0.673800	0.722000	0.692790
H2141	H214	0.679000	0.676000	0.691100
C2221	C222	0.735500	0.790400	0.704640
C2231	C223	0.804500	0.787500	0.714750
C2241	C224	0.801600	0.709300	0.719120
H2151	H215	0.835400	0.702900	0.706600
H2161	H216	0.746500	0.665600	0.717400
H2171	H217	0.820900	0.708600	0.736300
C2251	C225	0.003600	0.159800	0.642980
H2181	H218	0.025700	0.168900	0.659600
C2261	C226	0.990300	0.217900	0.632170
H2191	H219	0.003300	0.265200	0.641300
C2271	C227	0.958000	0.205900	0.608210
C2281	C228	0.939100	0.135600	0.596000
H2201	H220	0.916300	0.125000	0.579500
C2291	C229	0.953600	0.080400	0.608080
H2211	H221	0.939100	0.031800	0.599600
C2301	C230	0.946000	0.269500	0.595840
H2221	H222	0.928600	0.294600	0.608900
H2231	H223	0.903500	0.244800	0.582900
H2241	H224	0.065400	0.358300	0.596400
Mn211	Mn21	0.074730	0.109680	0.719170
O371	O37	0.145540	0.219350	0.717650
O381	O38	0.914620	0.069340	0.731040
N811	N81	0.093600	0.098100	0.678870
N821	N82	0.156300	0.147100	0.669820
N831	N83	0.216400	0.194200	0.661070
N841	N84	0.984100	0.130700	0.720630
N851	N85	0.104900	0.012800	0.631180
C2311	C231	0.131700	0.272500	0.706570
C2321	C232	0.198100	0.342500	0.697250
H2251	H225	0.249800	0.348700	0.698600
C2331	C233	0.189000	0.402300	0.686200
H2261	H226	0.234400	0.449400	0.680300
C2341	C234	0.113600	0.393400	0.683740
H2271	H227	0.107400	0.434000	0.675800
C2351	C235	0.048200	0.326200	0.692790
H2281	H228	0.997000	0.321000	0.691100
C2361	C236	0.054900	0.264500	0.704640
C2371	C237	0.983000	0.195500	0.714750
C2381	C238	0.907700	0.198400	0.719120
H2291	H229	0.867500	0.164600	0.706600
H2301	H230	0.919100	0.253500	0.717400
H2311	H231	0.887700	0.179100	0.736300
C2391	C239	0.156200	0.996400	0.642980
H2321	H232	0.143200	0.974300	0.659600
C2401	C240	0.227600	0.009700	0.632170
H2331	H233	0.261900	0.996700	0.641300
C2411	C241	0.247900	0.042000	0.608210
C2421	C242	0.196500	0.060900	0.596000
H2341	H234	0.208700	0.083700	0.579500
C2431	C243	0.126800	0.046400	0.608080
H2351	H235	0.092700	0.060900	0.599600
C2441	C244	0.323500	0.054000	0.595840
H2361	H236	0.366000	0.071400	0.608900
H2371	H237	0.341300	0.096500	0.582900
H2381	H238	0.292900	0.934600	0.596400
Mn221	Mn22	0.034950	0.925270	0.719170
O391	O39	0.073810	0.854460	0.717650
O401	O40	0.154720	0.085380	0.731040
N861	N86	0.004500	0.906400	0.678870
N871	N87	0.990800	0.843700	0.669820
N881	N88	0.977800	0.783600	0.661070
N891	N89	0.146600	0.015900	0.720630
N901	N90	0.907900	0.895100	0.631180
C2451	C245	0.140800	0.868300	0.706570
C2461	C246	0.144400	0.801900	0.697250
H2391	H239	0.098900	0.750200	0.698600
C2471	C247	0.213300	0.811000	0.686200
H2401	H240	0.215000	0.765600	0.680300
C2481	C248	0.279800	0.886400	0.683740
H2411	H241	0.326600	0.892600	0.675800
C2491	C249	0.278000	0.951800	0.692790
H2421	H242	0.324000	0.003000	0.691100
C2501	C250	0.209600	0.945100	0.704640
C2511	C251	0.212500	0.017000	0.714750
C2521	C252	0.290700	0.092300	0.719120
H2431	H243	0.297100	0.132500	0.706600
H2441	H244	0.334400	0.080900	0.717400
H2451	H245	0.291400	0.112300	0.736300
C2531	C253	0.840200	0.843800	0.642980
H2461	H246	0.831100	0.856800	0.659600
C2541	C254	0.782100	0.772400	0.632170
H2471	H247	0.734800	0.738100	0.641300
C2551	C255	0.794100	0.752100	0.608210
C2561	C256	0.864400	0.803500	0.596000
H2481	H248	0.875000	0.791300	0.579500
C2571	C257	0.919600	0.873200	0.608080
H2491	H249	0.968200	0.907300	0.599600
C2581	C258	0.730500	0.676500	0.595840
H2501	H250	0.705400	0.634000	0.608900
H2511	H251	0.755200	0.658700	0.582900
H2521	H252	0.641700	0.707100	0.596400
Mn231	Mn23	0.333330	0.666670	0.511690
O411	O41	0.333330	0.666670	0.445080
Mn241	Mn24	0.000000	0.000000	0.654980
O421	O42	0.000000	0.000000	0.721590
C2591	C259	0.023020	0.333330	0.583330
C2601	C260	0.310320	0.976980	0.583330
C2611	C261	0.666670	0.689680	0.583330
Mn251	Mn25	0.034950	0.109680	0.219170
O431	O43	0.073810	0.219350	0.217650
O441	O44	0.154720	0.069340	0.231040
N911	N91	0.004500	0.098100	0.178870
N921	N92	0.990800	0.147100	0.169820
N931	N93	0.977800	0.194200	0.161070
N941	N94	0.146600	0.130700	0.220630
N951	N95	0.907900	0.012800	0.131180
C2621	C262	0.140800	0.272500	0.206570
C2631	C263	0.144400	0.342500	0.197250
H2531	H253	0.098900	0.348700	0.198600
C2641	C264	0.213300	0.402300	0.186200
H2541	H254	0.215000	0.449400	0.180300
C2651	C265	0.279800	0.393400	0.183740
H2551	H255	0.326600	0.434000	0.175800
C2661	C266	0.278000	0.326200	0.192790
H2561	H256	0.324000	0.321000	0.191100
C2671	C267	0.209600	0.264500	0.204640
C2681	C268	0.212500	0.195500	0.214750
C2691	C269	0.290700	0.198400	0.219120
H2571	H257	0.297100	0.164600	0.206600
H2581	H258	0.334400	0.253500	0.217400
H2591	H259	0.291400	0.179100	0.236300
C2701	C270	0.840200	0.996400	0.142980
H2601	H260	0.831100	0.974300	0.159600
C2711	C271	0.782100	0.009700	0.132170
H2611	H261	0.734800	0.996700	0.141300
C2721	C272	0.794100	0.042000	0.108210
C2731	C273	0.864400	0.060900	0.096000
H2621	H262	0.875000	0.083700	0.079500
C2741	C274	0.919600	0.046400	0.108080
H2631	H263	0.968200	0.060900	0.099600
C2751	C275	0.730500	0.054000	0.095840
H2641	H264	0.705400	0.071400	0.108900
H2651	H265	0.755200	0.096500	0.082900
H2661	H266	0.641700	0.934600	0.096400
Mn261	Mn26	0.890320	0.925270	0.219170
O451	O45	0.780650	0.854460	0.217650
O461	O46	0.930660	0.085380	0.231040
N961	N96	0.901900	0.906400	0.178870
N971	N97	0.852900	0.843700	0.169820
N981	N98	0.805800	0.783600	0.161070
N991	N99	0.869300	0.015900	0.220630
N1001	N100	0.987200	0.895100	0.131180
C2761	C276	0.727500	0.868300	0.206570
C2771	C277	0.657500	0.801900	0.197250
H2671	H267	0.651300	0.750200	0.198600
C2781	C278	0.597700	0.811000	0.186200
H2681	H268	0.550600	0.765600	0.180300
C2791	C279	0.606600	0.886400	0.183740
H2691	H269	0.566000	0.892600	0.175800
C2801	C280	0.673800	0.951800	0.192790
H2701	H270	0.679000	0.003000	0.191100
C2811	C281	0.735500	0.945100	0.204640
C2821	C282	0.804500	0.017000	0.214750
C2831	C283	0.801600	0.092300	0.219120
H2711	H271	0.835400	0.132500	0.206600
H2721	H272	0.746500	0.080900	0.217400
H2731	H273	0.820900	0.112300	0.236300
C2841	C284	0.003600	0.843800	0.142980
H2741	H274	0.025700	0.856800	0.159600
C2851	C285	0.990300	0.772400	0.132170
H2751	H275	0.003300	0.738100	0.141300
C2861	C286	0.958000	0.752100	0.108210
C2871	C287	0.939100	0.803500	0.096000
H2761	H276	0.916300	0.791300	0.079500
C2881	C288	0.953600	0.873200	0.108080
H2771	H277	0.939100	0.907300	0.099600
C2891	C289	0.946000	0.676500	0.095840
H2781	H278	0.928600	0.634000	0.108900
H2791	H279	0.903500	0.658700	0.082900
H2801	H280	0.065400	0.707100	0.096400
Mn271	Mn27	0.074730	0.965050	0.219170
O471	O47	0.145540	0.926190	0.217650
O481	O48	0.914620	0.845280	0.231040
N1011	N101	0.093600	0.995500	0.178870
N1021	N102	0.156300	0.009200	0.169820
N1031	N103	0.216400	0.022200	0.161070
N1041	N104	0.984100	0.853400	0.220630
N1051	N105	0.104900	0.092100	0.131180
C2901	C290	0.131700	0.859200	0.206570
C2911	C291	0.198100	0.855600	0.197250
H2811	H281	0.249800	0.901100	0.198600
C2921	C292	0.189000	0.786700	0.186200
H2821	H282	0.234400	0.785000	0.180300
C2931	C293	0.113600	0.720200	0.183740
H2831	H283	0.107400	0.673400	0.175800
C2941	C294	0.048200	0.722000	0.192790
H2841	H284	0.997000	0.676000	0.191100
C2951	C295	0.054900	0.790400	0.204640
C2961	C296	0.983000	0.787500	0.214750
C2971	C297	0.907700	0.709300	0.219120
H2851	H285	0.867500	0.702900	0.206600
H2861	H286	0.919100	0.665600	0.217400
H2871	H287	0.887700	0.708600	0.236300
C2981	C298	0.156200	0.159800	0.142980
H2881	H288	0.143200	0.168900	0.159600
C2991	C299	0.227600	0.217900	0.132170
H2891	H289	0.261900	0.265200	0.141300
C3001	C300	0.247900	0.205900	0.108210
C3011	C301	0.196500	0.135600	0.096000
H2901	H290	0.208700	0.125000	0.079500
C3021	C302	0.126800	0.080400	0.108080
H2911	H291	0.092700	0.031800	0.099600
C3031	C303	0.323500	0.269500	0.095840
H2921	H292	0.366000	0.294600	0.108900
H2931	H293	0.341300	0.244800	0.082900
H2941	H294	0.292900	0.358300	0.096400
Mn281	Mn28	0.443010	0.701620	0.947490
O491	O49	0.552680	0.740480	0.949020
O501	O50	0.402670	0.821390	0.935630
N1061	N106	0.431430	0.671170	0.987800
N1071	N107	0.480430	0.657470	0.996850
N1081	N108	0.527530	0.644470	0.005600
N1091	N109	0.464030	0.813270	0.946040
N1101	N110	0.346130	0.574570	0.035490
C3041	C304	0.605830	0.807470	0.960100
C3051	C305	0.675830	0.811070	0.969420
H2951	H295	0.682030	0.765570	0.968070
C3061	C306	0.735630	0.879970	0.980470
H2961	H296	0.782730	0.881670	0.986370
C3071	C307	0.726730	0.946470	0.982930
H2971	H297	0.767330	0.993270	0.990870
C3081	C308	0.659530	0.944670	0.973880
H2981	H298	0.654330	0.990670	0.975570
C3091	C309	0.597830	0.876270	0.962030
C3101	C310	0.528830	0.879170	0.951920
C3111	C311	0.531730	0.957370	0.947550
H2991	H299	0.497930	0.963770	0.960070
H3001	H300	0.586830	0.001070	0.949270
H3011	H301	0.512430	0.958070	0.930370
C3121	C312	0.329730	0.506870	0.023690
H3021	H302	0.307630	0.497770	0.007070
C3131	C313	0.343030	0.448770	0.034500
H3031	H303	0.330030	0.401470	0.025370
C3141	C314	0.375330	0.460770	0.058460
C3151	C315	0.394230	0.531070	0.070670
H3041	H304	0.417030	0.541670	0.087170
C3161	C316	0.379730	0.586270	0.058590
H3051	H305	0.394230	0.634870	0.067070
C3171	C317	0.387330	0.397170	0.070830
H3061	H306	0.404730	0.372070	0.057770
H3071	H307	0.429830	0.421870	0.083770
H3081	H308	0.267930	0.308370	0.070270
Mn291	Mn29	0.258600	0.556990	0.947490
O511	O51	0.187790	0.447320	0.949020
O521	O52	0.418710	0.597330	0.935630
N1111	N111	0.239730	0.568570	0.987800
N1121	N112	0.177030	0.519570	0.996850
N1131	N113	0.116930	0.472470	0.005600
N1141	N114	0.349230	0.535970	0.946040
N1151	N115	0.228430	0.653870	0.035490
C3181	C318	0.201630	0.394170	0.960100
C3191	C319	0.135230	0.324170	0.969420
H3091	H309	0.083530	0.317970	0.968070
C3201	C320	0.144330	0.264370	0.980470
H3101	H310	0.098930	0.217270	0.986370
C3211	C321	0.219730	0.273270	0.982930
H3111	H311	0.225930	0.232670	0.990870
C3221	C322	0.285130	0.340470	0.973880
H3121	H312	0.336330	0.345670	0.975570
C3231	C323	0.278430	0.402170	0.962030
C3241	C324	0.350330	0.471170	0.951920
C3251	C325	0.425630	0.468270	0.947550
H3131	H313	0.465830	0.502070	0.960070
H3141	H314	0.414230	0.413170	0.949270
H3151	H315	0.445630	0.487570	0.930370
C3261	C326	0.177130	0.670270	0.023690
H3161	H316	0.190130	0.692370	0.007070
C3271	C327	0.105730	0.656970	0.034500
H3171	H317	0.071430	0.669970	0.025370
C3281	C328	0.085430	0.624670	0.058460
C3291	C329	0.136830	0.605770	0.070670
H3181	H318	0.124630	0.582970	0.087170
C3301	C330	0.206530	0.620270	0.058590
H3191	H319	0.240630	0.605770	0.067070
C3311	C331	0.009830	0.612670	0.070830
H3201	H320	0.967330	0.595270	0.057770
H3211	H321	0.992030	0.570170	0.083770
H3221	H322	0.040430	0.732070	0.070270
Mn301	Mn30	0.298380	0.741400	0.947490
O531	O53	0.259520	0.812210	0.949020
O541	O54	0.178610	0.581290	0.935630
N1161	N116	0.328830	0.760270	0.987800
N1171	N117	0.342530	0.822970	0.996850
N1181	N118	0.355530	0.883070	0.005600
N1191	N119	0.186730	0.650770	0.946040
N1201	N120	0.425430	0.771570	0.035490
C3321	C332	0.192530	0.798370	0.960100
C3331	C333	0.188930	0.864770	0.969420
H3231	H323	0.234430	0.916470	0.968070
C3341	C334	0.120030	0.855670	0.980470
H3241	H324	0.118330	0.901070	0.986370
C3351	C335	0.053530	0.780270	0.982930
H3251	H325	0.006730	0.774070	0.990870
C3361	C336	0.055330	0.714870	0.973880
H3261	H326	0.009330	0.663670	0.975570
C3371	C337	0.123730	0.721570	0.962030
C3381	C338	0.120830	0.649670	0.951920
C3391	C339	0.042630	0.574370	0.947550
H3271	H327	0.036230	0.534170	0.960070
H3281	H328	0.998930	0.585770	0.949270
H3291	H329	0.041930	0.554370	0.930370
C3401	C340	0.493130	0.822870	0.023690
H3301	H330	0.502230	0.809870	0.007070
C3411	C341	0.551230	0.894270	0.034500
H3311	H331	0.598530	0.928570	0.025370
C3421	C342	0.539230	0.914570	0.058460
C3431	C343	0.468930	0.863170	0.070670
H3321	H332	0.458330	0.875370	0.087170
C3441	C344	0.413730	0.793470	0.058590
H3331	H333	0.365130	0.759370	0.067070
C3451	C345	0.602830	0.990170	0.070830
H3341	H334	0.627930	0.032670	0.057770
H3351	H335	0.578130	0.007970	0.083770
H3361	H336	0.691630	0.959570	0.070270
Mn311	Mn31	0.000000	0.000000	0.154980
O551	O55	0.000000	0.000000	0.221590
Mn321	Mn32	0.333330	0.666670	0.011690
O561	O56	0.333330	0.666670	0.945080
C3461	C346	0.666670	0.976980	0.083330
C3471	C347	0.023020	0.689680	0.083330
C3481	C348	0.310320	0.333330	0.083330
Mn331	Mn33	0.701620	0.443010	0.552510
O571	O57	0.740480	0.552680	0.550980
O581	O58	0.821390	0.402670	0.564370
N1211	N121	0.671170	0.431430	0.512200
N1221	N122	0.657470	0.480430	0.503150
N1231	N123	0.644470	0.527530	0.494400
N1241	N124	0.813270	0.464030	0.553960
N1251	N125	0.574570	0.346130	0.464510
C3491	C349	0.807470	0.605830	0.539900
C3501	C350	0.811070	0.675830	0.530580
H3371	H337	0.765570	0.682030	0.531930
C3511	C351	0.879970	0.735630	0.519530
H3381	H338	0.881670	0.782730	0.513630
C3521	C352	0.946470	0.726730	0.517070
H3391	H339	0.993270	0.767330	0.509130
C3531	C353	0.944670	0.659530	0.526120
H3401	H340	0.990670	0.654330	0.524430
C3541	C354	0.876270	0.597830	0.537970
C3551	C355	0.879170	0.528830	0.548080
C3561	C356	0.957370	0.531730	0.552450
H3411	H341	0.963770	0.497930	0.539930
H3421	H342	0.001070	0.586830	0.550730
H3431	H343	0.958070	0.512430	0.569630
C3571	C357	0.506870	0.329730	0.476310
H3441	H344	0.497770	0.307630	0.492930
C3581	C358	0.448770	0.343030	0.465500
H3451	H345	0.401470	0.330030	0.474630
C3591	C359	0.460770	0.375330	0.441540
C3601	C360	0.531070	0.394230	0.429330
H3461	H346	0.541670	0.417030	0.412830
C3611	C361	0.586270	0.379730	0.441410
H3471	H347	0.634870	0.394230	0.432930
C3621	C362	0.397170	0.387330	0.429170
H3481	H348	0.372070	0.404730	0.442230
H3491	H349	0.421870	0.429830	0.416230
H3501	H350	0.308370	0.267930	0.429730
Mn341	Mn34	0.556990	0.258600	0.552510
O591	O59	0.447320	0.187790	0.550980
O601	O60	0.597330	0.418710	0.564370
N1261	N126	0.568570	0.239730	0.512200
N1271	N127	0.519570	0.177030	0.503150
N1281	N128	0.472470	0.116930	0.494400
N1291	N129	0.535970	0.349230	0.553960
N1301	N130	0.653870	0.228430	0.464510
C3631	C363	0.394170	0.201630	0.539900
C3641	C364	0.324170	0.135230	0.530580
H3511	H351	0.317970	0.083530	0.531930
C3651	C365	0.264370	0.144330	0.519530
H3521	H352	0.217270	0.098930	0.513630
C3661	C366	0.273270	0.219730	0.517070
H3531	H353	0.232670	0.225930	0.509130
C3671	C367	0.340470	0.285130	0.526120
H3541	H354	0.345670	0.336330	0.524430
C3681	C368	0.402170	0.278430	0.537970
C3691	C369	0.471170	0.350330	0.548080
C3701	C370	0.468270	0.425630	0.552450
H3551	H355	0.502070	0.465830	0.539930
H3561	H356	0.413170	0.414230	0.550730
H3571	H357	0.487570	0.445630	0.569630
C3711	C371	0.670270	0.177130	0.476310
H3581	H358	0.692370	0.190130	0.492930
C3721	C372	0.656970	0.105730	0.465500
H3591	H359	0.669970	0.071430	0.474630
C3731	C373	0.624670	0.085430	0.441540
C3741	C374	0.605770	0.136830	0.429330
H3601	H360	0.582970	0.124630	0.412830
C3751	C375	0.620270	0.206530	0.441410
H3611	H361	0.605770	0.240630	0.432930
C3761	C376	0.612670	0.009830	0.429170
H3621	H362	0.595270	0.967330	0.442230
H3631	H363	0.570170	0.992030	0.416230
H3641	H364	0.732070	0.040430	0.429730
Mn351	Mn35	0.741400	0.298380	0.552510
O611	O61	0.812210	0.259520	0.550980
O621	O62	0.581290	0.178610	0.564370
N1311	N131	0.760270	0.328830	0.512200
N1321	N132	0.822970	0.342530	0.503150
N1331	N133	0.883070	0.355530	0.494400
N1341	N134	0.650770	0.186730	0.553960
N1351	N135	0.771570	0.425430	0.464510
C3771	C377	0.798370	0.192530	0.539900
C3781	C378	0.864770	0.188930	0.530580
H3651	H365	0.916470	0.234430	0.531930
C3791	C379	0.855670	0.120030	0.519530
H3661	H366	0.901070	0.118330	0.513630
C3801	C380	0.780270	0.053530	0.517070
H3671	H367	0.774070	0.006730	0.509130
C3811	C381	0.714870	0.055330	0.526120
H3681	H368	0.663670	0.009330	0.524430
C3821	C382	0.721570	0.123730	0.537970
C3831	C383	0.649670	0.120830	0.548080
C3841	C384	0.574370	0.042630	0.552450
H3691	H369	0.534170	0.036230	0.539930
H3701	H370	0.585770	0.998930	0.550730
H3711	H371	0.554370	0.041930	0.569630
C3851	C385	0.822870	0.493130	0.476310
H3721	H372	0.809870	0.502230	0.492930
C3861	C386	0.894270	0.551230	0.465500
H3731	H373	0.928570	0.598530	0.474630
C3871	C387	0.914570	0.539230	0.441540
C3881	C388	0.863170	0.468930	0.429330
H3741	H374	0.875370	0.458330	0.412830
C3891	C389	0.793470	0.413730	0.441410
H3751	H375	0.759370	0.365130	0.432930
C3901	C390	0.990170	0.602830	0.429170
H3761	H376	0.032670	0.627930	0.442230
H3771	H377	0.007970	0.578130	0.416230
H3781	H378	0.959570	0.691630	0.429730
Mn361	Mn36	0.109680	0.034950	0.280830
O631	O63	0.219350	0.073810	0.282350
O641	O64	0.069340	0.154720	0.268960
N1361	N136	0.098100	0.004500	0.321130
N1371	N137	0.147100	0.990800	0.330180
N1381	N138	0.194200	0.977800	0.338930
N1391	N139	0.130700	0.146600	0.279370
N1401	N140	0.012800	0.907900	0.368820
C3911	C391	0.272500	0.140800	0.293430
C3921	C392	0.342500	0.144400	0.302750
H3791	H379	0.348700	0.098900	0.301400
C3931	C393	0.402300	0.213300	0.313800
H3801	H380	0.449400	0.215000	0.319700
C3941	C394	0.393400	0.279800	0.316260
H3811	H381	0.434000	0.326600	0.324200
C3951	C395	0.326200	0.278000	0.307210
H3821	H382	0.321000	0.324000	0.308900
C3961	C396	0.264500	0.209600	0.295360
C3971	C397	0.195500	0.212500	0.285250
C3981	C398	0.198400	0.290700	0.280880
H3831	H383	0.164600	0.297100	0.293400
H3841	H384	0.253500	0.334400	0.282600
H3851	H385	0.179100	0.291400	0.263700
C3991	C399	0.996400	0.840200	0.357020
H3861	H386	0.974300	0.831100	0.340400
C4001	C400	0.009700	0.782100	0.367830
H3871	H387	0.996700	0.734800	0.358700
C4011	C401	0.042000	0.794100	0.391790
C4021	C402	0.060900	0.864400	0.404000
H3881	H388	0.083700	0.875000	0.420500
C4031	C403	0.046400	0.919600	0.391920
H3891	H389	0.060900	0.968200	0.400400
C4041	C404	0.054000	0.730500	0.404160
H3901	H390	0.071400	0.705400	0.391100
H3911	H391	0.096500	0.755200	0.417100
H3921	H392	0.934600	0.641700	0.403600
Mn371	Mn37	0.925270	0.890320	0.280830
O651	O65	0.854460	0.780650	0.282350
O661	O66	0.085380	0.930660	0.268960
N1411	N141	0.906400	0.901900	0.321130
N1421	N142	0.843700	0.852900	0.330180
N1431	N143	0.783600	0.805800	0.338930
N1441	N144	0.015900	0.869300	0.279370
N1451	N145	0.895100	0.987200	0.368820
C4051	C405	0.868300	0.727500	0.293430
C4061	C406	0.801900	0.657500	0.302750
H3931	H393	0.750200	0.651300	0.301400
C4071	C407	0.811000	0.597700	0.313800
H3941	H394	0.765600	0.550600	0.319700
C4081	C408	0.886400	0.606600	0.316260
H3951	H395	0.892600	0.566000	0.324200
C4091	C409	0.951800	0.673800	0.307210
H3961	H396	0.003000	0.679000	0.308900
C4101	C410	0.945100	0.735500	0.295360
C4111	C411	0.017000	0.804500	0.285250
C4121	C412	0.092300	0.801600	0.280880
H3971	H397	0.132500	0.835400	0.293400
H3981	H398	0.080900	0.746500	0.282600
H3991	H399	0.112300	0.820900	0.263700
C4131	C413	0.843800	0.003600	0.357020
H4001	H400	0.856800	0.025700	0.340400
C4141	C414	0.772400	0.990300	0.367830
H4011	H401	0.738100	0.003300	0.358700
C4151	C415	0.752100	0.958000	0.391790
C4161	C416	0.803500	0.939100	0.404000
H4021	H402	0.791300	0.916300	0.420500
C4171	C417	0.873200	0.953600	0.391920
H4031	H403	0.907300	0.939100	0.400400
C4181	C418	0.676500	0.946000	0.404160
H4041	H404	0.634000	0.928600	0.391100
H4051	H405	0.658700	0.903500	0.417100
H4061	H406	0.707100	0.065400	0.403600
Mn381	Mn38	0.965050	0.074730	0.280830
O671	O67	0.926190	0.145540	0.282350
O681	O68	0.845280	0.914620	0.268960
N1461	N146	0.995500	0.093600	0.321130
N1471	N147	0.009200	0.156300	0.330180
N1481	N148	0.022200	0.216400	0.338930
N1491	N149	0.853400	0.984100	0.279370
N1501	N150	0.092100	0.104900	0.368820
C4191	C419	0.859200	0.131700	0.293430
C4201	C420	0.855600	0.198100	0.302750
H4071	H407	0.901100	0.249800	0.301400
C4211	C421	0.786700	0.189000	0.313800
H4081	H408	0.785000	0.234400	0.319700
C4221	C422	0.720200	0.113600	0.316260
H4091	H409	0.673400	0.107400	0.324200
C4231	C423	0.722000	0.048200	0.307210
H4101	H410	0.676000	0.997000	0.308900
C4241	C424	0.790400	0.054900	0.295360
C4251	C425	0.787500	0.983000	0.285250
C4261	C426	0.709300	0.907700	0.280880
H4111	H411	0.702900	0.867500	0.293400
H4121	H412	0.665600	0.919100	0.282600
H4131	H413	0.708600	0.887700	0.263700
C4271	C427	0.159800	0.156200	0.357020
H4141	H414	0.168900	0.143200	0.340400
C4281	C428	0.217900	0.227600	0.367830
H4151	H415	0.265200	0.261900	0.358700
C4291	C429	0.205900	0.247900	0.391790
C4301	C430	0.135600	0.196500	0.404000
H4161	H416	0.125000	0.208700	0.420500
C4311	C431	0.080400	0.126800	0.391920
H4171	H417	0.031800	0.092700	0.400400
C4321	C432	0.269500	0.323500	0.404160
H4181	H418	0.294600	0.366000	0.391100
H4191	H419	0.244800	0.341300	0.417100
H4201	H420	0.358300	0.292900	0.403600
Mn391	Mn39	0.666670	0.333330	0.488310
O691	O69	0.666670	0.333330	0.554920
Mn401	Mn40	0.000000	0.000000	0.345020
O701	O70	0.000000	0.000000	0.278410
C4331	C433	0.976980	0.666670	0.416670
C4341	C434	0.689680	0.023020	0.416670
C4351	C435	0.333330	0.310320	0.416670
Mn411	Mn41	0.368280	0.776350	0.885840
O711	O71	0.407140	0.886020	0.884320
O721	O72	0.488050	0.736010	0.897710
N1511	N151	0.337830	0.764770	0.845540
N1521	N152	0.324130	0.813770	0.836490
N1531	N153	0.311130	0.860870	0.827740
N1541	N154	0.479930	0.797370	0.887300
N1551	N155	0.241230	0.679470	0.797850
C4361	C436	0.474130	0.939170	0.873240
C4371	C437	0.477730	0.009170	0.863920
H4211	H421	0.432230	0.015370	0.865270
C4381	C438	0.546630	0.068970	0.852870
H4221	H422	0.548330	0.116070	0.846970
C4391	C439	0.613130	0.060070	0.850410
H4231	H423	0.659930	0.100670	0.842470
C4401	C440	0.611330	0.992870	0.859460
H4241	H424	0.657330	0.987670	0.857770
C4411	C441	0.542930	0.931170	0.871310
C4421	C442	0.545830	0.862170	0.881420
C4431	C443	0.624030	0.865070	0.885790
H4251	H425	0.630430	0.831270	0.873270
H4261	H426	0.667730	0.920170	0.884070
H4271	H427	0.624730	0.845770	0.902970
C4441	C444	0.173530	0.663070	0.809650
H4281	H428	0.164430	0.640970	0.826270
C4451	C445	0.115430	0.676370	0.798840
H4291	H429	0.068130	0.663370	0.807970
C4461	C446	0.127430	0.708670	0.774880
C4471	C447	0.197730	0.727570	0.762670
H4301	H430	0.208330	0.750370	0.746170
C4481	C448	0.252930	0.713070	0.774750
H4311	H431	0.301530	0.727570	0.766270
C4491	C449	0.063830	0.720670	0.762510
H4321	H432	0.038730	0.738070	0.775570
H4331	H433	0.088530	0.763170	0.749570
H4341	H434	0.975030	0.601270	0.763070
Mn421	Mn42	0.223650	0.591940	0.885840
O731	O73	0.113980	0.521130	0.884320
O741	O74	0.263990	0.752050	0.897710
N1561	N156	0.235230	0.573070	0.845540
N1571	N157	0.186230	0.510370	0.836490
N1581	N158	0.139130	0.450270	0.827740
N1591	N159	0.202630	0.682570	0.887300
N1601	N160	0.320530	0.561770	0.797850
C4501	C450	0.060830	0.534970	0.873240
C4511	C451	0.990830	0.468570	0.863920
H4351	H435	0.984630	0.416870	0.865270
C4521	C452	0.931030	0.477670	0.852870
H4361	H436	0.883930	0.432270	0.846970
C4531	C453	0.939930	0.553070	0.850410
H4371	H437	0.899330	0.559270	0.842470
C4541	C454	0.007130	0.618470	0.859460
H4381	H438	0.012330	0.669670	0.857770
C4551	C455	0.068830	0.611770	0.871310
C4561	C456	0.137830	0.683670	0.881420
C4571	C457	0.134930	0.758970	0.885790
H4391	H439	0.168730	0.799170	0.873270
H4401	H440	0.079830	0.747570	0.884070
H4411	H441	0.154230	0.778970	0.902970
C4581	C458	0.336930	0.510470	0.809650
H4421	H442	0.359030	0.523470	0.826270
C4591	C459	0.323630	0.439070	0.798840
H4431	H443	0.336630	0.404770	0.807970
C4601	C460	0.291330	0.418770	0.774880
C4611	C461	0.272430	0.470170	0.762670
H4441	H444	0.249630	0.457970	0.746170
C4621	C462	0.286930	0.539870	0.774750
H4451	H445	0.272430	0.573970	0.766270
C4631	C463	0.279330	0.343170	0.762510
H4461	H446	0.261930	0.300670	0.775570
H4471	H447	0.236830	0.325370	0.749570
H4481	H448	0.398730	0.373770	0.763070
Mn431	Mn43	0.408060	0.631720	0.885840
O751	O75	0.478870	0.592860	0.884320
O761	O76	0.247950	0.511950	0.897710
N1611	N161	0.426930	0.662170	0.845540
N1621	N162	0.489630	0.675870	0.836490
N1631	N163	0.549730	0.688870	0.827740
N1641	N164	0.317430	0.520070	0.887300
N1651	N165	0.438230	0.758770	0.797850
C4641	C464	0.465030	0.525870	0.873240
C4651	C465	0.531430	0.522270	0.863920
H4491	H449	0.583130	0.567770	0.865270
C4661	C466	0.522330	0.453370	0.852870
H4501	H450	0.567730	0.451670	0.846970
C4671	C467	0.446930	0.386870	0.850410
H4511	H451	0.440730	0.340070	0.842470
C4681	C468	0.381530	0.388670	0.859460
H4521	H452	0.330330	0.342670	0.857770
C4691	C469	0.388230	0.457070	0.871310
C4701	C470	0.316330	0.454170	0.881420
C4711	C471	0.241030	0.375970	0.885790
H4531	H453	0.200830	0.369570	0.873270
H4541	H454	0.252430	0.332270	0.884070
H4551	H455	0.221030	0.375270	0.902970
C4721	C472	0.489530	0.826470	0.809650
H4561	H456	0.476530	0.835570	0.826270
C4731	C473	0.560930	0.884570	0.798840
H4571	H457	0.595230	0.931870	0.807970
C4741	C474	0.581230	0.872570	0.774880
C4751	C475	0.529830	0.802270	0.762670
H4581	H458	0.542030	0.791670	0.746170
C4761	C476	0.460130	0.747070	0.774750
H4591	H459	0.426030	0.698470	0.766270
C4771	C477	0.656830	0.936170	0.762510
H4601	H460	0.699330	0.961270	0.775570
H4611	H461	0.674630	0.911470	0.749570
H4621	H462	0.626230	0.024970	0.763070
Mn441	Mn44	0.776350	0.368280	0.614160
O771	O77	0.886020	0.407140	0.615680
O781	O78	0.736010	0.488050	0.602290
N1661	N166	0.764770	0.337830	0.654460
N1671	N167	0.813770	0.324130	0.663510
N1681	N168	0.860870	0.311130	0.672260
N1691	N169	0.797370	0.479930	0.612700
N1701	N170	0.679470	0.241230	0.702150
C4781	C478	0.939170	0.474130	0.626760
C4791	C479	0.009170	0.477730	0.636080
H4631	H463	0.015370	0.432230	0.634730
C4801	C480	0.068970	0.546630	0.647130
H4641	H464	0.116070	0.548330	0.653030
C4811	C481	0.060070	0.613130	0.649590
H4651	H465	0.100670	0.659930	0.657530
C4821	C482	0.992870	0.611330	0.640540
H4661	H466	0.987670	0.657330	0.642230
C4831	C483	0.931170	0.542930	0.628690
C4841	C484	0.862170	0.545830	0.618580
C4851	C485	0.865070	0.624030	0.614210
H4671	H467	0.831270	0.630430	0.626730
H4681	H468	0.920170	0.667730	0.615930
H4691	H469	0.845770	0.624730	0.597030
C4861	C486	0.663070	0.173530	0.690350
H4701	H470	0.640970	0.164430	0.673730
C4871	C487	0.676370	0.115430	0.701160
H4711	H471	0.663370	0.068130	0.692030
C4881	C488	0.708670	0.127430	0.725120
C4891	C489	0.727570	0.197730	0.737330
H4721	H472	0.750370	0.208330	0.753830
C4901	C490	0.713070	0.252930	0.725250
H4731	H473	0.727570	0.301530	0.733730
C4911	C491	0.720670	0.063830	0.737490
H4741	H474	0.738070	0.038730	0.724430
H4751	H475	0.763170	0.088530	0.750430
H4761	H476	0.601270	0.975030	0.736930
Mn451	Mn45	0.591940	0.223650	0.614160
O791	O79	0.521130	0.113980	0.615680
O801	O80	0.752050	0.263990	0.602290
N1711	N171	0.573070	0.235230	0.654460
N1721	N172	0.510370	0.186230	0.663510
N1731	N173	0.450270	0.139130	0.672260
N1741	N174	0.682570	0.202630	0.612700
N1751	N175	0.561770	0.320530	0.702150
C4921	C492	0.534970	0.060830	0.626760
C4931	C493	0.468570	0.990830	0.636080
H4771	H477	0.416870	0.984630	0.634730
C4941	C494	0.477670	0.931030	0.647130
H4781	H478	0.432270	0.883930	0.653030
C4951	C495	0.553070	0.939930	0.649590
H4791	H479	0.559270	0.899330	0.657530
C4961	C496	0.618470	0.007130	0.640540
H4801	H480	0.669670	0.012330	0.642230
C4971	C497	0.611770	0.068830	0.628690
C4981	C498	0.683670	0.137830	0.618580
C4991	C499	0.758970	0.134930	0.614210
H4811	H481	0.799170	0.168730	0.626730
H4821	H482	0.747570	0.079830	0.615930
H4831	H483	0.778970	0.154230	0.597030
C5001	C500	0.510470	0.336930	0.690350
H4841	H484	0.523470	0.359030	0.673730
C5011	C501	0.439070	0.323630	0.701160
H4851	H485	0.404770	0.336630	0.692030
C5021	C502	0.418770	0.291330	0.725120
C5031	C503	0.470170	0.272430	0.737330
H4861	H486	0.457970	0.249630	0.753830
C5041	C504	0.539870	0.286930	0.725250
H4871	H487	0.573970	0.272430	0.733730
C5051	C505	0.343170	0.279330	0.737490
H4881	H488	0.300670	0.261930	0.724430
H4891	H489	0.325370	0.236830	0.750430
H4901	H490	0.373770	0.398730	0.736930
Mn461	Mn46	0.631720	0.408060	0.614160
O811	O81	0.592860	0.478870	0.615680
O821	O82	0.511950	0.247950	0.602290
N1761	N176	0.662170	0.426930	0.654460
N1771	N177	0.675870	0.489630	0.663510
N1781	N178	0.688870	0.549730	0.672260
N1791	N179	0.520070	0.317430	0.612700
N1801	N180	0.758770	0.438230	0.702150
C5061	C506	0.525870	0.465030	0.626760
C5071	C507	0.522270	0.531430	0.636080
H4911	H491	0.567770	0.583130	0.634730
C5081	C508	0.453370	0.522330	0.647130
H4921	H492	0.451670	0.567730	0.653030
C5091	C509	0.386870	0.446930	0.649590
H4931	H493	0.340070	0.440730	0.657530
C5101	C510	0.388670	0.381530	0.640540
H4941	H494	0.342670	0.330330	0.642230
C5111	C511	0.457070	0.388230	0.628690
C5121	C512	0.454170	0.316330	0.618580
C5131	C513	0.375970	0.241030	0.614210
H4951	H495	0.369570	0.200830	0.626730
H4961	H496	0.332270	0.252430	0.615930
H4971	H497	0.375270	0.221030	0.597030
C5141	C514	0.826470	0.489530	0.690350
H4981	H498	0.835570	0.476530	0.673730
C5151	C515	0.884570	0.560930	0.701160
H4991	H499	0.931870	0.595230	0.692030
C5161	C516	0.872570	0.581230	0.725120
C5171	C517	0.802270	0.529830	0.737330
H5001	H500	0.791670	0.542030	0.753830
C5181	C518	0.747070	0.460130	0.725250
H5011	H501	0.698470	0.426030	0.733730
C5191	C519	0.936170	0.656830	0.737490
H5021	H502	0.961270	0.699330	0.724430
H5031	H503	0.911470	0.674630	0.750430
H5041	H504	0.024970	0.626230	0.736930
Mn471	Mn47	0.333330	0.666670	0.821650
O831	O83	0.333330	0.666670	0.888260
Mn481	Mn48	0.666670	0.333330	0.678350
O841	O84	0.666670	0.333330	0.611740
C5201	C520	0.643650	0.000000	0.750000
C5211	C521	0.356350	0.356350	0.750000
C5221	C522	0.000000	0.643650	0.750000
