data_VERZOJ_clean_PM
_symmetry_space_group_name_H-M	'P1'
_cell_length_a	7.622500
_cell_length_b	7.781400
_cell_length_c	12.728000
_cell_angle_alpha	90.000000
_cell_angle_beta	90.000000
_cell_angle_gamma	90.000000
_symmetry_Int_Tables_number 1

loop_
_symmetry_equiv_pos_as_xyz
'x,y,z'

loop_
_atom_site_label
_atom_site_type_symbol
_atom_site_fract_x
_atom_site_fract_y
_atom_site_fract_z
Ni11	Ni1	0.541040	0.492490	0.081050
C11	C1	0.446500	0.235400	0.243100
H11	H1	0.560400	0.196400	0.232400
C21	C2	0.279500	0.769800	0.023300
H21	H2	0.355700	0.799500	0.969200
C31	C3	0.317100	0.257800	0.964500
H31	H3	0.244400	0.278700	0.021800
O11	O1	0.394700	0.360500	0.190370
O21	O2	0.353000	0.158700	0.309990
O31	O3	0.314500	0.638200	0.076380
O41	O4	0.148700	0.863300	0.038550
O51	O5	0.456900	0.338700	0.960140
O61	O6	0.265100	0.149100	0.897650
Ni21	Ni2	0.958960	0.507510	0.581050
C41	C4	0.053500	0.764600	0.743100
H41	H4	0.939600	0.803600	0.732400
C51	C5	0.220500	0.230200	0.523300
H51	H5	0.144300	0.200500	0.469200
C61	C6	0.182900	0.742200	0.464500
H61	H6	0.255600	0.721300	0.521800
O71	O7	0.105300	0.639500	0.690370
O81	O8	0.147000	0.841300	0.809990
O91	O9	0.185500	0.361800	0.576380
O101	O10	0.351300	0.136700	0.538550
O111	O11	0.043100	0.661300	0.460140
O121	O12	0.234900	0.850900	0.397650
Ni31	Ni3	0.458960	0.992490	0.418950
C71	C7	0.553500	0.735400	0.256900
H71	H7	0.439600	0.696400	0.267600
C81	C8	0.720500	0.269800	0.476700
H81	H8	0.644300	0.299500	0.530800
C91	C9	0.682900	0.757800	0.535500
H91	H9	0.755600	0.778700	0.478200
O131	O13	0.605300	0.860500	0.309630
O141	O14	0.647000	0.658700	0.190010
O151	O15	0.685500	0.138200	0.423620
O161	O16	0.851300	0.363300	0.461450
O171	O17	0.543100	0.838700	0.539860
O181	O18	0.734900	0.649100	0.602350
Ni41	Ni4	0.041040	0.007510	0.918950
C101	C10	0.946500	0.264600	0.756900
H101	H10	0.060400	0.303600	0.767600
C111	C11	0.779500	0.730200	0.976700
H111	H11	0.855700	0.700500	0.030800
C121	C12	0.817100	0.242200	0.035500
H121	H12	0.744400	0.221300	0.978200
O191	O19	0.894700	0.139500	0.809630
O201	O20	0.853000	0.341300	0.690010
O211	O21	0.814500	0.861800	0.923620
O221	O22	0.648700	0.636700	0.961450
O231	O23	0.956900	0.161300	0.039860
O241	O24	0.765100	0.350900	0.102350
