data_VERZUP_clean_PM
_symmetry_space_group_name_H-M	'P1'
_cell_length_a	7.689200
_cell_length_b	7.738500
_cell_length_c	13.020500
_cell_angle_alpha	90.000000
_cell_angle_beta	90.000000
_cell_angle_gamma	90.000000
_symmetry_Int_Tables_number 1

loop_
_symmetry_equiv_pos_as_xyz
'x,y,z'

loop_
_atom_site_label
_atom_site_type_symbol
_atom_site_fract_x
_atom_site_fract_y
_atom_site_fract_z
Zn11	Zn1	0.551410	0.493920	0.084010
C11	C1	0.425100	0.226100	0.237110
H11	H1	0.532900	0.175500	0.225100
C21	C2	0.294000	0.770900	0.027160
H21	H2	0.357300	0.776600	0.966400
C31	C3	0.313000	0.268500	0.963700
H31	H3	0.246100	0.277300	0.023000
O11	O1	0.390130	0.362580	0.190000
O21	O2	0.325450	0.152850	0.299240
O31	O3	0.343300	0.666200	0.091530
O41	O4	0.167260	0.870290	0.035280
O51	O5	0.450450	0.350800	0.960800
O61	O6	0.256230	0.173300	0.892590
Zn21	Zn2	0.948590	0.506080	0.584010
C41	C4	0.074900	0.773900	0.737110
H41	H4	0.967100	0.824500	0.725100
C51	C5	0.206000	0.229100	0.527160
H51	H5	0.142700	0.223400	0.466400
C61	C6	0.187000	0.731500	0.463700
H61	H6	0.253900	0.722700	0.523000
O71	O7	0.109870	0.637420	0.690000
O81	O8	0.174550	0.847150	0.799240
O91	O9	0.156700	0.333800	0.591530
O101	O10	0.332740	0.129710	0.535280
O111	O11	0.049550	0.649200	0.460800
O121	O12	0.243770	0.826700	0.392590
Zn31	Zn3	0.448590	0.993920	0.415990
C71	C7	0.574900	0.726100	0.262890
H71	H7	0.467100	0.675500	0.274900
C81	C8	0.706000	0.270900	0.472840
H81	H8	0.642700	0.276600	0.533600
C91	C9	0.687000	0.768500	0.536300
H91	H9	0.753900	0.777300	0.477000
O131	O13	0.609870	0.862580	0.310000
O141	O14	0.674550	0.652850	0.200760
O151	O15	0.656700	0.166200	0.408470
O161	O16	0.832740	0.370290	0.464720
O171	O17	0.549550	0.850800	0.539200
O181	O18	0.743770	0.673300	0.607410
Zn41	Zn4	0.051410	0.006080	0.915990
C101	C10	0.925100	0.273900	0.762890
H101	H10	0.032900	0.324500	0.774900
C111	C11	0.794000	0.729100	0.972840
H111	H11	0.857300	0.723400	0.033600
C121	C12	0.813000	0.231500	0.036300
H121	H12	0.746100	0.222700	0.977000
O191	O19	0.890130	0.137420	0.810000
O201	O20	0.825450	0.347150	0.700760
O211	O21	0.843300	0.833800	0.908470
O221	O22	0.667260	0.629710	0.964720
O231	O23	0.950450	0.149200	0.039200
O241	O24	0.756230	0.326700	0.107410
