data_VESBAY_clean_PM
_symmetry_space_group_name_H-M	'P1'
_cell_length_a	7.688300
_cell_length_b	7.787500
_cell_length_c	12.855800
_cell_angle_alpha	90.000000
_cell_angle_beta	90.000000
_cell_angle_gamma	90.000000
_symmetry_Int_Tables_number 1

loop_
_symmetry_equiv_pos_as_xyz
'x,y,z'

loop_
_atom_site_label
_atom_site_type_symbol
_atom_site_fract_x
_atom_site_fract_y
_atom_site_fract_z
Mg11	Mg1	0.553630	0.494370	0.084450
C11	C1	0.427500	0.223400	0.236150
H11	H1	0.533400	0.170600	0.221900
C21	C2	0.302800	0.778800	0.027880
H21	H2	0.376000	0.798900	0.971600
C31	C3	0.310100	0.276000	0.962740
H31	H3	0.235200	0.298100	0.017900
O11	O1	0.396020	0.362280	0.190840
O21	O2	0.328310	0.149950	0.298800
O31	O3	0.346940	0.664090	0.087940
O41	O4	0.171290	0.870660	0.033920
O51	O5	0.451630	0.350390	0.963520
O61	O6	0.257860	0.173260	0.894380
Mg21	Mg2	0.946370	0.505630	0.584450
C41	C4	0.072500	0.776600	0.736150
H41	H4	0.966600	0.829400	0.721900
C51	C5	0.197200	0.221200	0.527880
H51	H5	0.124000	0.201100	0.471600
C61	C6	0.189900	0.724000	0.462740
H61	H6	0.264800	0.701900	0.517900
O71	O7	0.103980	0.637720	0.690840
O81	O8	0.171690	0.850050	0.798800
O91	O9	0.153060	0.335910	0.587940
O101	O10	0.328710	0.129340	0.533920
O111	O11	0.048370	0.649610	0.463520
O121	O12	0.242140	0.826740	0.394380
Mg31	Mg3	0.446370	0.994370	0.415550
C71	C7	0.572500	0.723400	0.263850
H71	H7	0.466600	0.670600	0.278100
C81	C8	0.697200	0.278800	0.472120
H81	H8	0.624000	0.298900	0.528400
C91	C9	0.689900	0.776000	0.537260
H91	H9	0.764800	0.798100	0.482100
O131	O13	0.603980	0.862280	0.309160
O141	O14	0.671690	0.649950	0.201200
O151	O15	0.653060	0.164090	0.412060
O161	O16	0.828710	0.370660	0.466080
O171	O17	0.548370	0.850390	0.536480
O181	O18	0.742140	0.673260	0.605620
Mg41	Mg4	0.053630	0.005630	0.915550
C101	C10	0.927500	0.276600	0.763850
H101	H10	0.033400	0.329400	0.778100
C111	C11	0.802800	0.721200	0.972120
H111	H11	0.876000	0.701100	0.028400
C121	C12	0.810100	0.224000	0.037260
H121	H12	0.735200	0.201900	0.982100
O191	O19	0.896020	0.137720	0.809160
O201	O20	0.828310	0.350050	0.701200
O211	O21	0.846940	0.835910	0.912060
O221	O22	0.671290	0.629340	0.966080
O231	O23	0.951630	0.149610	0.036480
O241	O24	0.757860	0.326740	0.105620
