data_VETTOE_clean_PM
_symmetry_space_group_name_H-M	'P1'
_cell_length_a	9.490200
_cell_length_b	13.912300
_cell_length_c	16.743700
_cell_angle_alpha	83.044000
_cell_angle_beta	75.802000
_cell_angle_gamma	88.309000
_symmetry_Int_Tables_number 1

loop_
_symmetry_equiv_pos_as_xyz
'x,y,z'

loop_
_atom_site_label
_atom_site_type_symbol
_atom_site_fract_x
_atom_site_fract_y
_atom_site_fract_z
Pr11	Pr1	0.705400	0.061300	0.446730
Pr21	Pr2	0.294600	0.938700	0.553270
H11	H1	0.684900	0.800600	0.954400
H21	H2	0.679500	0.786000	0.103200
H31	H3	0.911200	0.545600	0.309200
H41	H4	0.071000	0.403300	0.294600
H51	H5	0.997600	0.493400	0.071900
H61	H6	0.971800	0.789300	0.745100
H71	H7	0.872400	0.890500	0.651600
H81	H8	0.477200	0.777500	0.758400
H91	H9	0.573400	0.684300	0.857900
H101	H10	0.566000	0.618500	0.246700
H111	H11	0.438900	0.707700	0.350300
H121	H12	0.805400	0.847900	0.346800
H131	H13	0.931300	0.762200	0.240300
H141	H14	0.315100	0.199400	0.045600
H151	H15	0.320500	0.214000	0.896800
H161	H16	0.088800	0.454400	0.690800
H171	H17	0.929000	0.596700	0.705400
H181	H18	0.002400	0.506600	0.928100
H191	H19	0.028200	0.210700	0.254900
H201	H20	0.127600	0.109500	0.348400
H211	H21	0.522800	0.222500	0.241600
H221	H22	0.426600	0.315700	0.142100
H231	H23	0.434000	0.381500	0.753300
H241	H24	0.561100	0.292300	0.649700
H251	H25	0.194600	0.152100	0.653200
H261	H26	0.068700	0.237800	0.759700
C11	C1	0.817000	0.673100	0.949800
C21	C2	0.731200	0.751900	0.983800
C31	C3	0.728500	0.744000	0.064700
C41	C4	0.813300	0.660300	0.082900
C51	C5	0.839000	0.630300	0.161100
C61	C6	0.926500	0.551000	0.179100
C71	C7	0.950000	0.517500	0.259400
C81	C8	0.036200	0.439600	0.251600
C91	C9	0.066900	0.420400	0.166300
C101	C10	0.847100	0.655600	0.867200
C111	C11	0.783500	0.722800	0.809000
C121	C12	0.870600	0.786500	0.748600
C131	C13	0.811000	0.846800	0.692500
C141	C14	0.666500	0.844400	0.695300
C151	C15	0.577900	0.781300	0.756200
C161	C16	0.636200	0.723700	0.814100
C171	C17	0.604400	0.905600	0.630800
C181	C18	0.763200	0.682900	0.231200
C191	C19	0.615300	0.666100	0.265800
C201	C20	0.540100	0.718700	0.328300
C211	C21	0.608900	0.786700	0.359000
C221	C22	0.755500	0.802100	0.326100
C231	C23	0.830400	0.750400	0.262600
C241	C24	0.520600	0.842800	0.424000
C251	C25	0.999500	0.047100	0.520000
C261	C26	0.183000	0.326900	0.050200
C271	C27	0.268800	0.248100	0.016200
C281	C28	0.271500	0.256000	0.935300
C291	C29	0.186700	0.339700	0.917100
C301	C30	0.161000	0.369700	0.838900
C311	C31	0.073500	0.449000	0.820900
C321	C32	0.050000	0.482500	0.740600
C331	C33	0.963800	0.560400	0.748400
C341	C34	0.933100	0.579600	0.833700
C351	C35	0.152900	0.344400	0.132800
C361	C36	0.216500	0.277200	0.191000
C371	C37	0.129400	0.213500	0.251400
C381	C38	0.189000	0.153200	0.307500
C391	C39	0.333500	0.155600	0.304700
C401	C40	0.422100	0.218700	0.243800
C411	C41	0.363800	0.276300	0.185900
C421	C42	0.395600	0.094400	0.369200
C431	C43	0.236800	0.317100	0.768800
C441	C44	0.384700	0.333900	0.734200
C451	C45	0.459900	0.281300	0.671700
C461	C46	0.391100	0.213300	0.641000
C471	C47	0.244500	0.197900	0.673900
C481	C48	0.169600	0.249600	0.737400
C491	C49	0.479400	0.157200	0.576000
C501	C50	0.000500	0.952900	0.480000
N11	N1	0.866300	0.618200	0.011900
N21	N2	0.997100	0.489400	0.124800
N31	N3	0.133700	0.381800	0.988100
N41	N4	0.002900	0.510600	0.875200
O11	O1	0.685500	0.969300	0.583900
O21	O2	0.475300	0.886100	0.629300
O31	O3	0.577600	0.914500	0.445000
O41	O4	0.394100	0.816500	0.456800
O51	O5	0.912100	0.111400	0.502700
O61	O6	0.085300	0.053600	0.564800
O71	O7	0.314500	0.030700	0.416100
O81	O8	0.524700	0.113900	0.370700
O91	O9	0.422400	0.085500	0.555000
O101	O10	0.605900	0.183500	0.543200
O111	O11	0.087900	0.888600	0.497300
O121	O12	0.914700	0.946400	0.435200
