data_VEWLAM_clean_PM
_symmetry_space_group_name_H-M	'P1'
_cell_length_a	20.730800
_cell_length_b	34.374400
_cell_length_c	19.377200
_cell_angle_alpha	90.000000
_cell_angle_beta	115.432000
_cell_angle_gamma	90.000000
_symmetry_Int_Tables_number 1

loop_
_symmetry_equiv_pos_as_xyz
'x,y,z'

loop_
_atom_site_label
_atom_site_type_symbol
_atom_site_fract_x
_atom_site_fract_y
_atom_site_fract_z
Co11	Co1	0.339560	0.570470	0.716080
Co21	Co2	0.191400	0.443640	0.857740
Co31	Co3	0.279230	0.483860	0.750110
Co41	Co4	0.287150	0.576380	0.529310
Co51	Co5	0.235640	0.591250	0.350040
C61	C6	0.821400	0.184300	0.182300
C71	C7	0.786700	0.206000	0.220000
C81	C8	0.862000	0.203600	0.151200
C91	C9	0.006700	0.378000	0.056800
C101	C10	0.074200	0.393200	0.111000
C111	C11	0.120400	0.409200	0.077200
C121	C12	0.046100	0.383400	0.627900
C131	C13	0.089300	0.414500	0.620700
C141	C14	0.088800	0.425200	0.550900
C151	C15	0.992800	0.379800	0.486600
C161	C16	0.039300	0.408800	0.484500
C171	C17	0.996700	0.367700	0.556900
C181	C18	0.144300	0.432700	0.698200
C191	C19	0.892600	0.302400	0.334000
C201	C20	0.858900	0.327000	0.269400
C211	C21	0.940600	0.361400	0.413300
C221	C22	0.863000	0.369200	0.278800
C231	C23	0.933500	0.319700	0.406800
C241	C24	0.906000	0.384900	0.350400
C251	C25	0.826100	0.309600	0.189200
C261	C26	0.704700	0.341300	0.176300
C271	C27	0.741800	0.322700	0.142400
C281	C28	0.710400	0.308700	0.069100
C291	C29	0.633500	0.352400	0.131700
C301	C30	0.394800	0.392100	0.915800
C311	C31	0.512000	0.368100	0.933500
C321	C32	0.636900	0.320500	0.021400
C331	C33	0.408700	0.377300	0.987200
C341	C34	0.600300	0.341900	0.057200
C351	C35	0.443900	0.386800	0.884100
C361	C36	0.476500	0.360200	0.035900
C371	C37	0.528300	0.356000	0.007300
C381	C38	0.870200	0.327300	0.151200
C391	C39	0.990900	0.339000	0.159400
C401	C40	0.843500	0.352800	0.083600
C411	C41	0.961700	0.361800	0.091900
C421	C42	0.945600	0.323500	0.188700
C431	C43	0.889400	0.369700	0.054400
C441	C44	0.032600	0.393800	0.946300
C451	C45	0.100500	0.407200	0.996700
C461	C46	0.144700	0.422800	0.950500
C471	C47	0.402400	0.540500	0.845700
C481	C48	0.653600	0.452700	0.299500
C491	C49	0.576300	0.484200	0.152900
C501	C50	0.563200	0.498000	0.213600
C511	C51	0.605100	0.483600	0.290700
C521	C52	0.669300	0.440900	0.243900
C531	C53	0.631600	0.454700	0.164800
C541	C54	0.772500	0.454400	0.412100
C551	C55	0.867600	0.497400	0.403800
C561	C56	0.798300	0.479600	0.370500
C571	C57	0.914800	0.486900	0.481400
C581	C58	0.892900	0.460500	0.528400
C591	C59	0.822300	0.445900	0.492400
C601	C60	0.699000	0.394500	0.374000
C611	C61	0.752500	0.328500	0.401400
C621	C62	0.689900	0.311400	0.359100
C631	C63	0.634800	0.375800	0.324200
C641	C64	0.758800	0.369900	0.409700
C651	C65	0.628600	0.334700	0.320400
C661	C66	0.696000	0.437600	0.378400
C671	C67	0.093400	0.525600	0.506000
C681	C68	0.123800	0.532900	0.586200
C691	C69	0.092700	0.527200	0.632400
C701	C70	0.988500	0.505000	0.517800
C711	C71	0.024200	0.509700	0.472800
C721	C72	0.022100	0.511900	0.596300
C731	C73	0.663100	0.448400	0.434100
C741	C74	0.597700	0.478100	0.522900
C751	C75	0.644900	0.501000	0.511600
C761	C76	0.677200	0.488500	0.466100
C771	C77	0.619100	0.425800	0.450900
C781	C78	0.586200	0.437900	0.495300
C791	C79	0.471700	0.526300	0.628100
C801	C80	0.437600	0.501800	0.570200
C811	C81	0.551800	0.493800	0.563400
C821	C82	0.544100	0.535000	0.657100
C831	C83	0.477500	0.487400	0.535400
C841	C84	0.590200	0.518300	0.629800
C851	C85	0.676900	0.188900	0.360500
C861	C86	0.650600	0.207500	0.288100
C871	C87	0.681900	0.268600	0.354700
C881	C88	0.703000	0.205900	0.430000
C891	C89	0.651400	0.248300	0.287000
C901	C90	0.450300	0.524900	0.923700
C911	C91	0.466100	0.485900	0.937000
C921	C92	0.532800	0.498600	0.071600
C931	C93	0.512700	0.475000	0.013000
C941	C94	0.471800	0.552000	0.984400
C951	C95	0.513000	0.537400	0.061200
C961	C96	0.428000	0.546500	0.662800
C971	C97	0.675800	0.142700	0.359900
C981	C98	0.327400	0.417800	0.868300
C991	C99	0.788100	0.246100	0.218900
C1001	C100	0.827900	0.265000	0.187700
C1011	C101	0.864300	0.247000	0.150700
C1021	C102	0.801300	0.016300	0.156500
C1031	C103	0.817900	0.140800	0.177900
C1041	C104	0.872000	0.077200	0.178600
C1051	C105	0.880300	0.119200	0.187300
C1061	C106	0.751200	0.080900	0.158700
C1071	C107	0.809100	0.061500	0.166600
C1081	C108	0.200400	0.549800	0.618600
C1091	C109	0.987600	0.378100	0.980500
C1101	C110	0.754600	0.123400	0.166600
C1111	C111	0.707100	0.248400	0.425100
C1121	C112	0.135200	0.627700	0.128500
C1131	C113	0.090000	0.659300	0.129400
C1141	C114	0.142100	0.614900	0.065500
C1151	C115	0.369800	0.605700	0.444400
C1161	C116	0.138900	0.602700	0.409000
C1171	C117	0.982900	0.678100	0.558600
C1181	C118	0.910400	0.673500	0.524300
C1191	C119	0.909000	0.709100	0.638900
C1201	C120	0.020600	0.698700	0.629100
C1211	C121	0.985700	0.712700	0.665800
C1221	C122	0.875400	0.687000	0.566100
C1231	C123	0.025900	0.656600	0.515700
C1241	C124	0.131100	0.646000	0.498800
C1251	C125	0.026700	0.609000	0.418000
C1261	C126	0.094400	0.670200	0.538700
C1271	C127	0.100400	0.621300	0.447900
C1281	C128	0.791800	0.707000	0.650600
C1291	C129	0.672400	0.706600	0.546200
C1301	C130	0.742000	0.722800	0.578100
C1311	C131	0.653500	0.679000	0.584100
C1321	C132	0.695800	0.667900	0.654800
C1331	C133	0.766800	0.680900	0.686300
C1341	C134	0.869900	0.723300	0.682600
C1351	C135	0.575700	0.664300	0.549900
C1361	C136	0.529200	0.674430	0.475500
C1371	C137	0.462700	0.656700	0.440100
C1381	C138	0.442700	0.628700	0.479000
C1391	C139	0.489100	0.618500	0.553300
C1401	C140	0.555600	0.636300	0.588700
C1411	C141	0.836500	0.848300	0.652900
C1421	C142	0.893600	0.790800	0.637800
C1431	C143	0.864800	0.768700	0.676900
C1441	C144	0.878900	0.833000	0.628500
C1451	C145	0.802400	0.824200	0.691700
C1461	C146	0.817800	0.784900	0.706000
C1471	C147	0.792900	0.948600	0.557000
C1481	C148	0.776700	0.970700	0.609100
C1491	C149	0.779300	0.954800	0.676400
C1501	C150	0.813600	0.890600	0.636200
C1511	C151	0.812400	0.907900	0.569600
C1521	C152	0.797700	0.914200	0.688800
C1531	C153	0.914100	0.709500	0.763800
C1541	C154	0.929300	0.670000	0.774400
C1551	C155	0.970900	0.654800	0.851100
C1561	C156	0.996100	0.679400	0.910800
C1571	C157	0.982900	0.717600	0.901800
C1581	C158	0.940600	0.736100	0.827300
C1591	C159	0.048200	0.664400	0.991800
C1601	C160	0.091600	0.634300	0.989100
C1611	C161	0.761400	0.012700	0.592100
C1621	C162	0.993700	0.629800	0.459600
C1631	C163	0.036700	0.680200	0.052600
O1641	O164	0.671700	0.127110	0.300100
O1651	O165	0.242500	0.541280	0.689400
O1661	O166	0.218300	0.570350	0.577100
O1671	O167	0.677300	0.127600	0.420800
O1681	O168	0.397300	0.574800	0.833100
O1691	O169	0.359200	0.542060	0.630500
O1701	O170	0.454900	0.568300	0.719700
O1711	O171	0.287900	0.418500	0.903600
O1721	O172	0.374900	0.514500	0.792800
O1731	O173	0.326600	0.434040	0.812900
O1741	O174	0.749800	0.001800	0.162800
O1751	O175	0.136400	0.423900	0.750500
O1761	O176	0.127800	0.413400	0.892500
O1771	O177	0.188700	0.454000	0.683300
O1781	O178	0.195900	0.441100	0.000500
O1791	O179	0.846300	0.997700	0.142000
O1801	O180	0.747100	0.023020	0.526000
O1811	O181	0.760000	0.031470	0.645400
O1821	O182	0.206400	0.608160	0.431400
O1831	O183	0.359600	0.582520	0.484900
O1841	O184	0.329300	0.616800	0.378700
O1851	O185	0.106100	0.579500	0.353800
H1861	H186	0.758230	0.190090	0.250590
H1871	H187	0.893620	0.186220	0.126010
H1881	H188	0.088530	0.392300	0.174740
H1891	H189	0.173360	0.423580	0.115390
H1901	H190	0.053320	0.373500	0.686930
H1911	H191	0.129150	0.447310	0.549380
H1921	H192	0.035830	0.418810	0.426920
H1931	H193	0.957740	0.344020	0.555720
H1941	H194	0.886690	0.269480	0.327100
H1951	H195	0.831340	0.388850	0.228050
H1961	H196	0.960410	0.300550	0.459550
H1971	H197	0.912230	0.417850	0.356280
H1981	H198	0.731510	0.347690	0.240210
H1991	H199	0.741610	0.288650	0.047560
H2001	H200	0.603590	0.370270	0.158220
H2011	H201	0.554190	0.362990	0.911440
H2021	H202	0.610750	0.312630	0.958120
H2031	H203	0.365770	0.378420	0.009150
H2041	H204	0.429800	0.396830	0.823220
H2051	H205	0.050900	0.333480	0.189210
H2061	H206	0.784040	0.359650	0.052610
H2071	H207	0.968850	0.306930	0.245130
H2081	H208	0.866260	0.389090	0.001610
H2091	H209	0.014930	0.395480	0.881960
H2101	H210	0.519620	0.520580	0.202720
H2111	H211	0.600310	0.496030	0.342850
H2121	H212	0.714070	0.418920	0.256100
H2131	H213	0.646150	0.442550	0.118570
H2141	H214	0.883570	0.518940	0.369140
H2151	H215	0.763180	0.486340	0.307810
H2161	H216	0.932200	0.453190	0.589480
H2171	H217	0.804430	0.426610	0.528820
H2181	H218	0.802480	0.310040	0.431900
H2191	H219	0.586550	0.393890	0.285950
H2201	H220	0.813590	0.382910	0.446080
H2211	H221	0.574360	0.320560	0.286250
H2221	H222	0.125050	0.532630	0.471850
H2231	H223	0.122490	0.534460	0.695750
H2241	H224	0.997660	0.500780	0.410080
H2251	H225	0.991600	0.504970	0.631710
H2261	H226	0.658550	0.530920	0.539560
H2271	H227	0.714200	0.508870	0.453470
H2281	H228	0.607390	0.394800	0.427940
H2291	H229	0.550810	0.417730	0.510850
H2301	H230	0.379150	0.494290	0.553070
H2311	H231	0.568850	0.556810	0.705780
H2321	H232	0.451020	0.469270	0.481140
H2331	H233	0.650560	0.521800	0.652930
H2341	H234	0.629860	0.189320	0.233630
H2351	H235	0.718780	0.187290	0.483500
H2361	H236	0.626930	0.264650	0.230360
H2371	H237	0.442090	0.464110	0.888170
H2381	H238	0.532760	0.443690	0.021430
H2391	H239	0.456670	0.583980	0.972000
H2401	H240	0.529080	0.557520	0.112700
H2411	H241	0.756340	0.263560	0.243800
H2421	H242	0.892720	0.265330	0.123140
H2431	H243	0.918620	0.058420	0.182070
H2441	H244	0.932670	0.135040	0.200830
H2451	H245	0.699420	0.064590	0.145900
H2461	H246	0.933910	0.365470	0.939460
H2471	H247	0.707850	0.141880	0.163750
H2481	H248	0.731880	0.265170	0.481240
H2491	H249	0.168730	0.611320	0.183500
H2501	H250	0.091830	0.669910	0.185950
H2511	H251	0.182990	0.591440	0.071310
H2521	H252	0.883440	0.659380	0.465490
H2531	H253	0.080890	0.702790	0.652900
H2541	H254	0.015590	0.728760	0.722140
H2551	H255	0.815930	0.679950	0.540520
H2561	H256	0.190490	0.650060	0.515280
H2571	H257	0.005210	0.586620	0.370000
H2581	H258	0.114480	0.695460	0.580730
H2591	H259	0.631290	0.716740	0.487810
H2601	H260	0.756100	0.746970	0.546670
H2611	H261	0.674030	0.648500	0.687630
H2621	H262	0.804200	0.668620	0.744480
H2631	H263	0.545650	0.697300	0.443520
H2641	H264	0.424560	0.665100	0.379210
H2651	H265	0.472620	0.595570	0.585130
H2661	H266	0.593750	0.627950	0.649620
H2671	H267	0.928530	0.776510	0.612860
H2681	H268	0.905340	0.851900	0.599600
H2691	H269	0.762480	0.837910	0.710540
H2701	H270	0.795510	0.765710	0.738640
H2711	H271	0.790840	0.962780	0.502910
H2721	H272	0.767230	0.973780	0.717660
H2731	H273	0.825940	0.891270	0.526630
H2741	H274	0.800310	0.899060	0.742280
H2751	H275	0.909250	0.649520	0.723160
H2761	H276	0.981860	0.622260	0.860140
H2771	H277	0.004840	0.737750	0.953520
H2781	H278	0.931380	0.768880	0.823720
H2791	H279	0.090940	0.623730	0.933040
H2801	H280	0.935310	0.624250	0.446260
H2811	H281	0.998430	0.703530	0.054510
Co12	Co1	0.660440	0.070470	0.283920
Co22	Co2	0.808600	0.943640	0.142260
Co32	Co3	0.720770	0.983860	0.249890
Co42	Co4	0.712850	0.076380	0.470690
Co52	Co5	0.764360	0.091250	0.649960
C62	C6	0.178600	0.684300	0.817700
C72	C7	0.213300	0.706000	0.780000
C82	C8	0.138000	0.703600	0.848800
C92	C9	0.993300	0.878000	0.943200
C102	C10	0.925800	0.893200	0.889000
C112	C11	0.879600	0.909200	0.922800
C122	C12	0.953900	0.883400	0.372100
C132	C13	0.910700	0.914500	0.379300
C142	C14	0.911200	0.925200	0.449100
C152	C15	0.007200	0.879800	0.513400
C162	C16	0.960700	0.908800	0.515500
C172	C17	0.003300	0.867700	0.443100
C182	C18	0.855700	0.932700	0.301800
C192	C19	0.107400	0.802400	0.666000
C202	C20	0.141100	0.827000	0.730600
C212	C21	0.059400	0.861400	0.586700
C222	C22	0.137000	0.869200	0.721200
C232	C23	0.066500	0.819700	0.593200
C242	C24	0.094000	0.884900	0.649600
C252	C25	0.173900	0.809600	0.810800
C262	C26	0.295300	0.841300	0.823700
C272	C27	0.258200	0.822700	0.857600
C282	C28	0.289600	0.808700	0.930900
C292	C29	0.366500	0.852400	0.868300
C302	C30	0.605200	0.892100	0.084200
C312	C31	0.488000	0.868100	0.066500
C322	C32	0.363100	0.820500	0.978600
C332	C33	0.591300	0.877300	0.012800
C342	C34	0.399700	0.841900	0.942800
C352	C35	0.556100	0.886800	0.115900
C362	C36	0.523500	0.860200	0.964100
C372	C37	0.471700	0.856000	0.992700
C382	C38	0.129800	0.827300	0.848800
C392	C39	0.009100	0.839000	0.840600
C402	C40	0.156500	0.852800	0.916400
C412	C41	0.038300	0.861800	0.908100
C422	C42	0.054400	0.823500	0.811300
C432	C43	0.110600	0.869700	0.945600
C442	C44	0.967400	0.893800	0.053700
C452	C45	0.899500	0.907200	0.003300
C462	C46	0.855300	0.922800	0.049500
C472	C47	0.597600	0.040500	0.154300
C482	C48	0.346400	0.952700	0.700500
C492	C49	0.423700	0.984200	0.847100
C502	C50	0.436800	0.998000	0.786400
C512	C51	0.394900	0.983600	0.709300
C522	C52	0.330700	0.940900	0.756100
C532	C53	0.368400	0.954700	0.835200
C542	C54	0.227500	0.954400	0.587900
C552	C55	0.132400	0.997400	0.596200
C562	C56	0.201700	0.979600	0.629500
C572	C57	0.085200	0.986900	0.518600
C582	C58	0.107100	0.960500	0.471600
C592	C59	0.177700	0.945900	0.507600
C602	C60	0.301000	0.894500	0.626000
C612	C61	0.247500	0.828500	0.598600
C622	C62	0.310100	0.811400	0.640900
C632	C63	0.365200	0.875800	0.675800
C642	C64	0.241200	0.869900	0.590300
C652	C65	0.371400	0.834700	0.679600
C662	C66	0.304000	0.937600	0.621600
C672	C67	0.906600	0.025600	0.494000
C682	C68	0.876200	0.032900	0.413800
C692	C69	0.907300	0.027200	0.367600
C702	C70	0.011500	0.005000	0.482200
C712	C71	0.975800	0.009700	0.527200
C722	C72	0.977900	0.011900	0.403700
C732	C73	0.336900	0.948400	0.565900
C742	C74	0.402300	0.978100	0.477100
C752	C75	0.355100	0.001000	0.488400
C762	C76	0.322800	0.988500	0.533900
C772	C77	0.380900	0.925800	0.549100
C782	C78	0.413800	0.937900	0.504700
C792	C79	0.528300	0.026300	0.371900
C802	C80	0.562400	0.001800	0.429800
C812	C81	0.448200	0.993800	0.436600
C822	C82	0.455900	0.035000	0.342900
C832	C83	0.522500	0.987400	0.464600
C842	C84	0.409800	0.018300	0.370200
C852	C85	0.323100	0.688900	0.639500
C862	C86	0.349400	0.707500	0.711900
C872	C87	0.318100	0.768600	0.645300
C882	C88	0.297000	0.705900	0.570000
C892	C89	0.348600	0.748300	0.713000
C902	C90	0.549700	0.024900	0.076300
C912	C91	0.533900	0.985900	0.063000
C922	C92	0.467200	0.998600	0.928400
C932	C93	0.487300	0.975000	0.987000
C942	C94	0.528200	0.052000	0.015600
C952	C95	0.487000	0.037400	0.938800
C962	C96	0.572000	0.046500	0.337200
C972	C97	0.324200	0.642700	0.640100
C982	C98	0.672600	0.917800	0.131700
C992	C99	0.211900	0.746100	0.781100
C1002	C100	0.172100	0.765000	0.812300
C1012	C101	0.135700	0.747000	0.849300
C1022	C102	0.198700	0.516300	0.843500
C1032	C103	0.182100	0.640800	0.822100
C1042	C104	0.128000	0.577200	0.821400
C1052	C105	0.119700	0.619200	0.812700
C1062	C106	0.248800	0.580900	0.841300
C1072	C107	0.190900	0.561500	0.833400
C1082	C108	0.799600	0.049800	0.381400
C1092	C109	0.012400	0.878100	0.019500
C1102	C110	0.245400	0.623400	0.833400
C1112	C111	0.292900	0.748400	0.574900
C1122	C112	0.864800	0.127700	0.871500
C1132	C113	0.910000	0.159300	0.870600
C1142	C114	0.857900	0.114900	0.934500
C1152	C115	0.630200	0.105700	0.555600
C1162	C116	0.861100	0.102700	0.591000
C1172	C117	0.017100	0.178100	0.441400
C1182	C118	0.089600	0.173500	0.475700
C1192	C119	0.091000	0.209100	0.361100
C1202	C120	0.979400	0.198700	0.370900
C1212	C121	0.014300	0.212700	0.334200
C1222	C122	0.124600	0.187000	0.433900
C1232	C123	0.974100	0.156600	0.484300
C1242	C124	0.868900	0.146000	0.501200
C1252	C125	0.973300	0.109000	0.582000
C1262	C126	0.905600	0.170200	0.461300
C1272	C127	0.899600	0.121300	0.552100
C1282	C128	0.208200	0.207000	0.349400
C1292	C129	0.327600	0.206600	0.453800
C1302	C130	0.258000	0.222800	0.421900
C1312	C131	0.346500	0.179000	0.415900
C1322	C132	0.304200	0.167900	0.345200
C1332	C133	0.233200	0.180900	0.313700
C1342	C134	0.130100	0.223300	0.317400
C1352	C135	0.424300	0.164300	0.450100
C1362	C136	0.470800	0.174430	0.524500
C1372	C137	0.537300	0.156700	0.559900
C1382	C138	0.557300	0.128700	0.521000
C1392	C139	0.510900	0.118500	0.446700
C1402	C140	0.444400	0.136300	0.411300
C1412	C141	0.163500	0.348300	0.347100
C1422	C142	0.106400	0.290800	0.362200
C1432	C143	0.135200	0.268700	0.323100
C1442	C144	0.121100	0.333000	0.371500
C1452	C145	0.197600	0.324200	0.308300
C1462	C146	0.182200	0.284900	0.294000
C1472	C147	0.207100	0.448600	0.443000
C1482	C148	0.223300	0.470700	0.390900
C1492	C149	0.220700	0.454800	0.323600
C1502	C150	0.186400	0.390600	0.363800
C1512	C151	0.187600	0.407900	0.430400
C1522	C152	0.202300	0.414200	0.311200
C1532	C153	0.085900	0.209500	0.236200
C1542	C154	0.070700	0.170000	0.225600
C1552	C155	0.029100	0.154800	0.148900
C1562	C156	0.003900	0.179400	0.089200
C1572	C157	0.017100	0.217600	0.098200
C1582	C158	0.059400	0.236100	0.172700
C1592	C159	0.951800	0.164400	0.008200
C1602	C160	0.908400	0.134300	0.010900
C1612	C161	0.238600	0.512700	0.407900
C1622	C162	0.006300	0.129800	0.540400
C1632	C163	0.963300	0.180200	0.947400
O1642	O164	0.328300	0.627110	0.699900
O1652	O165	0.757500	0.041280	0.310600
O1662	O166	0.781700	0.070350	0.422900
O1672	O167	0.322700	0.627600	0.579200
O1682	O168	0.602700	0.074800	0.166900
O1692	O169	0.640800	0.042060	0.369500
O1702	O170	0.545100	0.068300	0.280300
O1712	O171	0.712100	0.918500	0.096400
O1722	O172	0.625100	0.014500	0.207200
O1732	O173	0.673400	0.934040	0.187100
O1742	O174	0.250200	0.501800	0.837200
O1752	O175	0.863600	0.923900	0.249500
O1762	O176	0.872200	0.913400	0.107500
O1772	O177	0.811300	0.954000	0.316700
O1782	O178	0.804100	0.941100	0.999500
O1792	O179	0.153700	0.497700	0.858000
O1802	O180	0.252900	0.523020	0.474000
O1812	O181	0.240000	0.531470	0.354600
O1822	O182	0.793600	0.108160	0.568600
O1832	O183	0.640400	0.082520	0.515100
O1842	O184	0.670700	0.116800	0.621300
O1852	O185	0.893900	0.079500	0.646200
H1862	H186	0.241770	0.690090	0.749410
H1872	H187	0.106380	0.686220	0.873990
H1882	H188	0.911470	0.892300	0.825260
H1892	H189	0.826640	0.923580	0.884610
H1902	H190	0.946680	0.873500	0.313070
H1912	H191	0.870850	0.947310	0.450620
H1922	H192	0.964170	0.918810	0.573080
H1932	H193	0.042260	0.844020	0.444280
H1942	H194	0.113310	0.769480	0.672900
H1952	H195	0.168660	0.888850	0.771950
H1962	H196	0.039590	0.800550	0.540450
H1972	H197	0.087770	0.917850	0.643720
H1982	H198	0.268490	0.847690	0.759790
H1992	H199	0.258390	0.788650	0.952440
H2002	H200	0.396410	0.870270	0.841780
H2012	H201	0.445810	0.862990	0.088560
H2022	H202	0.389250	0.812630	0.041880
H2032	H203	0.634230	0.878420	0.990850
H2042	H204	0.570200	0.896830	0.176780
H2052	H205	0.949100	0.833480	0.810790
H2062	H206	0.215960	0.859650	0.947390
H2072	H207	0.031150	0.806930	0.754870
H2082	H208	0.133740	0.889090	0.998390
H2092	H209	0.985070	0.895480	0.118040
H2102	H210	0.480380	0.020580	0.797280
H2112	H211	0.399690	0.996030	0.657150
H2122	H212	0.285930	0.918920	0.743900
H2132	H213	0.353850	0.942550	0.881430
H2142	H214	0.116430	0.018940	0.630860
H2152	H215	0.236820	0.986340	0.692190
H2162	H216	0.067800	0.953190	0.410520
H2172	H217	0.195570	0.926610	0.471180
H2182	H218	0.197520	0.810040	0.568100
H2192	H219	0.413450	0.893890	0.714050
H2202	H220	0.186410	0.882910	0.553920
H2212	H221	0.425640	0.820560	0.713750
H2222	H222	0.874950	0.032630	0.528150
H2232	H223	0.877510	0.034460	0.304250
H2242	H224	0.002340	0.000780	0.589920
H2252	H225	0.008400	0.004970	0.368290
H2262	H226	0.341450	0.030920	0.460440
H2272	H227	0.285800	0.008870	0.546530
H2282	H228	0.392610	0.894800	0.572060
H2292	H229	0.449190	0.917730	0.489150
H2302	H230	0.620850	0.994290	0.446930
H2312	H231	0.431150	0.056810	0.294220
H2322	H232	0.548980	0.969270	0.518860
H2332	H233	0.349440	0.021800	0.347070
H2342	H234	0.370140	0.689320	0.766370
H2352	H235	0.281220	0.687290	0.516500
H2362	H236	0.373070	0.764650	0.769640
H2372	H237	0.557910	0.964110	0.111830
H2382	H238	0.467240	0.943690	0.978570
H2392	H239	0.543330	0.083980	0.028000
H2402	H240	0.470920	0.057520	0.887300
H2412	H241	0.243660	0.763560	0.756200
H2422	H242	0.107280	0.765330	0.876860
H2432	H243	0.081380	0.558420	0.817930
H2442	H244	0.067330	0.635040	0.799170
H2452	H245	0.300580	0.564590	0.854100
H2462	H246	0.066090	0.865470	0.060540
H2472	H247	0.292150	0.641880	0.836250
H2482	H248	0.268120	0.765170	0.518760
H2492	H249	0.831270	0.111320	0.816500
H2502	H250	0.908170	0.169910	0.814050
H2512	H251	0.817010	0.091440	0.928690
H2522	H252	0.116560	0.159380	0.534510
H2532	H253	0.919110	0.202790	0.347100
H2542	H254	0.984410	0.228760	0.277860
H2552	H255	0.184070	0.179950	0.459480
H2562	H256	0.809510	0.150060	0.484720
H2572	H257	0.994790	0.086620	0.630000
H2582	H258	0.885520	0.195460	0.419270
H2592	H259	0.368710	0.216740	0.512190
H2602	H260	0.243900	0.246970	0.453330
H2612	H261	0.325970	0.148500	0.312370
H2622	H262	0.195800	0.168620	0.255520
H2632	H263	0.454350	0.197300	0.556480
H2642	H264	0.575440	0.165100	0.620790
H2652	H265	0.527380	0.095570	0.414870
H2662	H266	0.406250	0.127950	0.350380
H2672	H267	0.071470	0.276510	0.387140
H2682	H268	0.094660	0.351900	0.400400
H2692	H269	0.237520	0.337910	0.289460
H2702	H270	0.204490	0.265710	0.261360
H2712	H271	0.209160	0.462780	0.497090
H2722	H272	0.232770	0.473780	0.282340
H2732	H273	0.174060	0.391270	0.473370
H2742	H274	0.199690	0.399060	0.257720
H2752	H275	0.090750	0.149520	0.276840
H2762	H276	0.018140	0.122260	0.139860
H2772	H277	0.995160	0.237750	0.046480
H2782	H278	0.068620	0.268880	0.176280
H2792	H279	0.909060	0.123730	0.066960
H2802	H280	0.064690	0.124250	0.553740
H2812	H281	0.001570	0.203530	0.945490
