data_VEXVAW_clean_PM
_symmetry_space_group_name_H-M	'P1'
_cell_length_a	18.831300
_cell_length_b	18.831300
_cell_length_c	18.831300
_cell_angle_alpha	61.456000
_cell_angle_beta	61.456000
_cell_angle_gamma	61.456000
_symmetry_Int_Tables_number 1

loop_
_symmetry_equiv_pos_as_xyz
'x,y,z'

loop_
_atom_site_label
_atom_site_type_symbol
_atom_site_fract_x
_atom_site_fract_y
_atom_site_fract_z
Fe11	Fe1	0.348820	0.151180	0.250000
Fe21	Fe2	0.250000	0.348820	0.151180
Fe31	Fe3	0.151180	0.250000	0.348820
Fe41	Fe4	0.651180	0.848820	0.750000
Fe51	Fe5	0.750000	0.651180	0.848820
Fe61	Fe6	0.848820	0.750000	0.651180
H11	H1	0.481100	0.031100	0.348000
H21	H2	0.496400	0.918000	0.474900
H31	H3	0.550900	0.885900	0.578200
H41	H4	0.792000	0.825100	0.415300
H51	H5	0.737700	0.858900	0.310100
H61	H6	0.348000	0.481100	0.031100
H71	H7	0.474900	0.496400	0.918000
H81	H8	0.578200	0.550900	0.885900
H91	H9	0.415300	0.792000	0.825100
H101	H10	0.310100	0.737700	0.858900
H111	H11	0.031100	0.348000	0.481100
H121	H12	0.918000	0.474900	0.496400
H131	H13	0.885900	0.578200	0.550900
H141	H14	0.825100	0.415300	0.792000
H151	H15	0.858900	0.310100	0.737700
H161	H16	0.468900	0.018900	0.152000
H171	H17	0.582000	0.003600	0.025100
H181	H18	0.614100	0.949100	0.921800
H191	H19	0.674900	0.708000	0.084700
H201	H20	0.641100	0.762300	0.189900
H211	H21	0.018900	0.152000	0.468900
H221	H22	0.003600	0.025100	0.582000
H231	H23	0.949100	0.921800	0.614100
H241	H24	0.708000	0.084700	0.674900
H251	H25	0.762300	0.189900	0.641100
H261	H26	0.152000	0.468900	0.018900
H271	H27	0.025100	0.582000	0.003600
H281	H28	0.921800	0.614100	0.949100
H291	H29	0.084700	0.674900	0.708000
H301	H30	0.189900	0.641100	0.762300
H311	H31	0.518900	0.968900	0.652000
H321	H32	0.503600	0.082000	0.525100
H331	H33	0.449100	0.114100	0.421800
H341	H34	0.208000	0.174900	0.584700
H351	H35	0.262300	0.141100	0.689900
H361	H36	0.652000	0.518900	0.968900
H371	H37	0.525100	0.503600	0.082000
H381	H38	0.421800	0.449100	0.114100
H391	H39	0.584700	0.208000	0.174900
H401	H40	0.689900	0.262300	0.141100
H411	H41	0.968900	0.652000	0.518900
H421	H42	0.082000	0.525100	0.503600
H431	H43	0.114100	0.421800	0.449100
H441	H44	0.174900	0.584700	0.208000
H451	H45	0.141100	0.689900	0.262300
H461	H46	0.531100	0.981100	0.848000
H471	H47	0.418000	0.996400	0.974900
H481	H48	0.385900	0.050900	0.078200
H491	H49	0.325100	0.292000	0.915300
H501	H50	0.358900	0.237700	0.810100
H511	H51	0.981100	0.848000	0.531100
H521	H52	0.996400	0.974900	0.418000
H531	H53	0.050900	0.078200	0.385900
H541	H54	0.292000	0.915300	0.325100
H551	H55	0.237700	0.810100	0.358900
H561	H56	0.848000	0.531100	0.981100
H571	H57	0.974900	0.418000	0.996400
H581	H58	0.078200	0.385900	0.050900
H591	H59	0.915300	0.325100	0.292000
H601	H60	0.810100	0.358900	0.237700
H611	H61	0.658050	0.841950	0.250000
H621	H62	0.250000	0.658050	0.841950
H631	H63	0.841950	0.250000	0.658050
H641	H64	0.341950	0.158050	0.750000
H651	H65	0.750000	0.341950	0.158050
H661	H66	0.158050	0.750000	0.341950
C11	C1	0.503710	0.003710	0.306910
C21	C2	0.576940	0.931540	0.309240
C31	C3	0.712570	0.838350	0.570910
C41	C4	0.610390	0.894590	0.381890
C51	C5	0.556500	0.900100	0.462100
C61	C6	0.588940	0.880040	0.523940
C71	C7	0.676020	0.851620	0.507520
C81	C8	0.732090	0.844190	0.426990
C91	C9	0.699870	0.864870	0.364370
C101	C10	0.306910	0.503710	0.003710
C111	C11	0.309240	0.576940	0.931540
C121	C12	0.570910	0.712570	0.838350
C131	C13	0.381890	0.610390	0.894590
C141	C14	0.462100	0.556500	0.900100
C151	C15	0.523940	0.588940	0.880040
C161	C16	0.507520	0.676020	0.851620
C171	C17	0.426990	0.732090	0.844190
C181	C18	0.364370	0.699870	0.864870
C191	C19	0.003710	0.306910	0.503710
C201	C20	0.931540	0.309240	0.576940
C211	C21	0.838350	0.570910	0.712570
C221	C22	0.894590	0.381890	0.610390
C231	C23	0.900100	0.462100	0.556500
C241	C24	0.880040	0.523940	0.588940
C251	C25	0.851620	0.507520	0.676020
C261	C26	0.844190	0.426990	0.732090
C271	C27	0.864870	0.364370	0.699870
C281	C28	0.496290	0.996290	0.193090
C291	C29	0.568460	0.923060	0.190760
C301	C30	0.661650	0.787430	0.929090
C311	C31	0.605410	0.889610	0.118110
C321	C32	0.599900	0.943500	0.037900
C331	C33	0.619960	0.911060	0.976060
C341	C34	0.648380	0.823980	0.992480
C351	C35	0.655810	0.767910	0.073010
C361	C36	0.635130	0.800130	0.135630
C371	C37	0.996290	0.193090	0.496290
C381	C38	0.923060	0.190760	0.568460
C391	C39	0.787430	0.929090	0.661650
C401	C40	0.889610	0.118110	0.605410
C411	C41	0.943500	0.037900	0.599900
C421	C42	0.911060	0.976060	0.619960
C431	C43	0.823980	0.992480	0.648380
C441	C44	0.767910	0.073010	0.655810
C451	C45	0.800130	0.135630	0.635130
C461	C46	0.193090	0.496290	0.996290
C471	C47	0.190760	0.568460	0.923060
C481	C48	0.929090	0.661650	0.787430
C491	C49	0.118110	0.605410	0.889610
C501	C50	0.037900	0.599900	0.943500
C511	C51	0.976060	0.619960	0.911060
C521	C52	0.992480	0.648380	0.823980
C531	C53	0.073010	0.655810	0.767910
C541	C54	0.135630	0.635130	0.800130
C551	C55	0.496290	0.996290	0.693090
C561	C56	0.423060	0.068460	0.690760
C571	C57	0.287430	0.161650	0.429090
C581	C58	0.389610	0.105410	0.618110
C591	C59	0.443500	0.099900	0.537900
C601	C60	0.411060	0.119960	0.476060
C611	C61	0.323980	0.148380	0.492480
C621	C62	0.267910	0.155810	0.573010
C631	C63	0.300130	0.135130	0.635630
C641	C64	0.693090	0.496290	0.996290
C651	C65	0.690760	0.423060	0.068460
C661	C66	0.429090	0.287430	0.161650
C671	C67	0.618110	0.389610	0.105410
C681	C68	0.537900	0.443500	0.099900
C691	C69	0.476060	0.411060	0.119960
C701	C70	0.492480	0.323980	0.148380
C711	C71	0.573010	0.267910	0.155810
C721	C72	0.635630	0.300130	0.135130
C731	C73	0.996290	0.693090	0.496290
C741	C74	0.068460	0.690760	0.423060
C751	C75	0.161650	0.429090	0.287430
C761	C76	0.105410	0.618110	0.389610
C771	C77	0.099900	0.537900	0.443500
C781	C78	0.119960	0.476060	0.411060
C791	C79	0.148380	0.492480	0.323980
C801	C80	0.155810	0.573010	0.267910
C811	C81	0.135130	0.635630	0.300130
C821	C82	0.503710	0.003710	0.806910
C831	C83	0.431540	0.076940	0.809240
C841	C84	0.338350	0.212570	0.070910
C851	C85	0.394590	0.110390	0.881890
C861	C86	0.400100	0.056500	0.962100
C871	C87	0.380040	0.088940	0.023940
C881	C88	0.351620	0.176020	0.007520
C891	C89	0.344190	0.232090	0.926990
C901	C90	0.364870	0.199870	0.864370
C911	C91	0.003710	0.806910	0.503710
C921	C92	0.076940	0.809240	0.431540
C931	C93	0.212570	0.070910	0.338350
C941	C94	0.110390	0.881890	0.394590
C951	C95	0.056500	0.962100	0.400100
C961	C96	0.088940	0.023940	0.380040
C971	C97	0.176020	0.007520	0.351620
C981	C98	0.232090	0.926990	0.344190
C991	C99	0.199870	0.864370	0.364870
C1001	C100	0.806910	0.503710	0.003710
C1011	C101	0.809240	0.431540	0.076940
C1021	C102	0.070910	0.338350	0.212570
C1031	C103	0.881890	0.394590	0.110390
C1041	C104	0.962100	0.400100	0.056500
C1051	C105	0.023940	0.380040	0.088940
C1061	C106	0.007520	0.351620	0.176020
C1071	C107	0.926990	0.344190	0.232090
C1081	C108	0.864370	0.364870	0.199870
C1091	C109	0.608750	0.891250	0.250000
C1101	C110	0.250000	0.608750	0.891250
C1111	C111	0.891250	0.250000	0.608750
C1121	C112	0.391250	0.108750	0.750000
C1131	C113	0.750000	0.391250	0.108750
C1141	C114	0.108750	0.750000	0.391250
N11	N1	0.463750	0.036250	0.250000
N21	N2	0.250000	0.463750	0.036250
N31	N3	0.036250	0.250000	0.463750
N41	N4	0.536250	0.963750	0.750000
N51	N5	0.750000	0.536250	0.963750
N61	N6	0.963750	0.750000	0.536250
O11	O1	0.662040	0.874960	0.626770
O21	O2	0.786930	0.786970	0.568480
O31	O3	0.626770	0.662040	0.874960
O41	O4	0.568480	0.786930	0.786970
O51	O5	0.874960	0.626770	0.662040
O61	O6	0.786970	0.568480	0.786930
O71	O7	0.625040	0.837960	0.873230
O81	O8	0.713030	0.713070	0.931520
O91	O9	0.837960	0.873230	0.625040
O101	O10	0.713070	0.931520	0.713030
O111	O11	0.873230	0.625040	0.837960
O121	O12	0.931520	0.713030	0.713070
O131	O13	0.337960	0.125040	0.373230
O141	O14	0.213070	0.213030	0.431520
O151	O15	0.373230	0.337960	0.125040
O161	O16	0.431520	0.213070	0.213030
O171	O17	0.125040	0.373230	0.337960
O181	O18	0.213030	0.431520	0.213070
O191	O19	0.374960	0.162040	0.126770
O201	O20	0.286970	0.286930	0.068480
O211	O21	0.162040	0.126770	0.374960
O221	O22	0.286930	0.068480	0.286970
O231	O23	0.126770	0.374960	0.162040
O241	O24	0.068480	0.286970	0.286930
O251	O25	0.250000	0.250000	0.250000
O261	O26	0.750000	0.750000	0.750000
