data_VEYVEC_clean_PM
_symmetry_space_group_name_H-M	'P1'
_cell_length_a	11.381600
_cell_length_b	15.221400
_cell_length_c	17.806900
_cell_angle_alpha	115.303000
_cell_angle_beta	90.000000
_cell_angle_gamma	90.000000
_symmetry_Int_Tables_number 1

loop_
_symmetry_equiv_pos_as_xyz
'x,y,z'

loop_
_atom_site_label
_atom_site_type_symbol
_atom_site_fract_x
_atom_site_fract_y
_atom_site_fract_z
Co11	Co1	0.793200	0.638990	0.000000
Co21	Co2	0.206800	0.361010	0.000000
Co31	Co3	0.500000	0.380950	0.761900
Co41	Co4	0.500000	0.619050	0.238100
H11	H1	0.747700	0.589700	0.746200
H21	H2	0.631800	0.189900	0.703000
H31	H3	0.639000	0.036200	0.596800
H41	H4	0.349300	0.097400	0.503800
H51	H5	0.348300	0.248500	0.613200
H61	H6	0.252300	0.156500	0.746200
H71	H7	0.368200	0.513100	0.703000
H81	H8	0.361000	0.560600	0.596800
H91	H9	0.650700	0.406400	0.503800
H101	H10	0.651700	0.364700	0.613200
H111	H11	0.252300	0.410300	0.253800
H121	H12	0.368200	0.810100	0.297000
H131	H13	0.361000	0.963800	0.403200
H141	H14	0.650700	0.902600	0.496200
H151	H15	0.651700	0.751500	0.386800
H161	H16	0.747700	0.843500	0.253800
H171	H17	0.631800	0.486900	0.297000
H181	H18	0.639000	0.439400	0.403200
H191	H19	0.349300	0.593600	0.496200
H201	H20	0.348300	0.635300	0.386800
C11	C1	0.823400	0.540300	0.804920
C21	C2	0.752700	0.364530	0.812380
C31	C3	0.077600	0.579630	0.794360
C41	C4	0.916500	0.466680	0.799040
C51	C5	0.880900	0.379780	0.800160
C61	C6	0.036300	0.486580	0.797240
C71	C7	0.573200	0.171760	0.661120
C81	C8	0.578400	0.079280	0.597160
C91	C9	0.498200	0.049250	0.534900
C101	C10	0.410800	0.114770	0.543740
C111	C11	0.410700	0.205420	0.609440
C121	C12	0.176600	0.264620	0.804920
C131	C13	0.247300	0.447850	0.812380
C141	C14	0.922400	0.214730	0.794360
C151	C15	0.083500	0.332360	0.799040
C161	C16	0.119100	0.420380	0.800160
C171	C17	0.963700	0.310660	0.797240
C181	C18	0.426800	0.489360	0.661120
C191	C19	0.421600	0.517880	0.597160
C201	C20	0.501800	0.485650	0.534900
C211	C21	0.589200	0.428970	0.543740
C221	C22	0.589300	0.404020	0.609440
C231	C23	0.176600	0.459700	0.195080
C241	C24	0.247300	0.635470	0.187620
C251	C25	0.922400	0.420370	0.205640
C261	C26	0.083500	0.533320	0.200960
C271	C27	0.119100	0.620220	0.199840
C281	C28	0.963700	0.513420	0.202760
C291	C29	0.426800	0.828240	0.338880
C301	C30	0.421600	0.920720	0.402840
C311	C31	0.501800	0.950750	0.465100
C321	C32	0.589200	0.885230	0.456260
C331	C33	0.589300	0.794580	0.390560
C341	C34	0.823400	0.735380	0.195080
C351	C35	0.752700	0.552150	0.187620
C361	C36	0.077600	0.785270	0.205640
C371	C37	0.916500	0.667640	0.200960
C381	C38	0.880900	0.579620	0.199840
C391	C39	0.036300	0.689340	0.202760
C401	C40	0.573200	0.510640	0.338880
C411	C41	0.578400	0.482120	0.402840
C421	C42	0.498200	0.514350	0.465100
C431	C43	0.410800	0.571030	0.456260
C441	C44	0.410700	0.595980	0.390560
N11	N1	0.492500	0.235550	0.667340
N21	N2	0.507500	0.431790	0.667340
N31	N3	0.507500	0.764450	0.332660
N41	N4	0.492500	0.568210	0.332660
O11	O1	0.773990	0.588290	0.871720
O21	O2	0.798670	0.546370	0.737040
O31	O3	0.681550	0.374680	0.762800
O41	O4	0.727440	0.346930	0.873380
O51	O5	0.155410	0.569760	0.740760
O61	O6	0.031690	0.657130	0.844020
O71	O7	0.226010	0.283430	0.871720
O81	O8	0.201330	0.190670	0.737040
O91	O9	0.318450	0.388120	0.762800
O101	O10	0.272560	0.526450	0.873380
O111	O11	0.844590	0.171000	0.740760
O121	O12	0.968310	0.186890	0.844020
O131	O13	0.226010	0.411710	0.128280
O141	O14	0.201330	0.453630	0.262960
O151	O15	0.318450	0.625320	0.237200
O161	O16	0.272560	0.653070	0.126620
O171	O17	0.844590	0.430240	0.259240
O181	O18	0.968310	0.342870	0.155980
O191	O19	0.773990	0.716570	0.128280
O201	O20	0.798670	0.809330	0.262960
O211	O21	0.681550	0.611880	0.237200
O221	O22	0.727440	0.473550	0.126620
O231	O23	0.155410	0.829000	0.259240
O241	O24	0.031690	0.813110	0.155980
Co51	Co5	0.293200	0.861010	0.000000
Co61	Co6	0.706800	0.138990	0.000000
Co71	Co7	0.000000	0.119050	0.238100
Co81	Co8	0.000000	0.880950	0.761900
H211	H21	0.247700	0.910300	0.253800
H221	H22	0.131800	0.310100	0.297000
H231	H23	0.139000	0.463800	0.403200
H241	H24	0.849300	0.402600	0.496200
H251	H25	0.848300	0.251500	0.386800
H261	H26	0.752300	0.343500	0.253800
H271	H27	0.868200	0.986900	0.297000
H281	H28	0.861000	0.939400	0.403200
H291	H29	0.150700	0.093600	0.496200
H301	H30	0.151700	0.135300	0.386800
H311	H31	0.752300	0.089700	0.746200
H321	H32	0.868200	0.689900	0.703000
H331	H33	0.861000	0.536200	0.596800
H341	H34	0.150700	0.597400	0.503800
H351	H35	0.151700	0.748500	0.613200
H361	H36	0.247700	0.656500	0.746200
H371	H37	0.131800	0.013100	0.703000
H381	H38	0.139000	0.060600	0.596800
H391	H39	0.849300	0.906400	0.503800
H401	H40	0.848300	0.864700	0.613200
C451	C45	0.323400	0.959700	0.195080
C461	C46	0.252700	0.135470	0.187620
C471	C47	0.577600	0.920370	0.205640
C481	C48	0.416500	0.033320	0.200960
C491	C49	0.380900	0.120220	0.199840
C501	C50	0.536300	0.013420	0.202760
C511	C51	0.073200	0.328240	0.338880
C521	C52	0.078400	0.420720	0.402840
C531	C53	0.998200	0.450750	0.465100
C541	C54	0.910800	0.385230	0.456260
C551	C55	0.910700	0.294580	0.390560
C561	C56	0.676600	0.235380	0.195080
C571	C57	0.747300	0.052150	0.187620
C581	C58	0.422400	0.285270	0.205640
C591	C59	0.583500	0.167640	0.200960
C601	C60	0.619100	0.079620	0.199840
C611	C61	0.463700	0.189340	0.202760
C621	C62	0.926800	0.010640	0.338880
C631	C63	0.921600	0.982120	0.402840
C641	C64	0.001800	0.014350	0.465100
C651	C65	0.089200	0.071030	0.456260
C661	C66	0.089300	0.095980	0.390560
C671	C67	0.676600	0.040300	0.804920
C681	C68	0.747300	0.864530	0.812380
C691	C69	0.422400	0.079630	0.794360
C701	C70	0.583500	0.966680	0.799040
C711	C71	0.619100	0.879780	0.800160
C721	C72	0.463700	0.986580	0.797240
C731	C73	0.926800	0.671760	0.661120
C741	C74	0.921600	0.579280	0.597160
C751	C75	0.001800	0.549250	0.534900
C761	C76	0.089200	0.614770	0.543740
C771	C77	0.089300	0.705420	0.609440
C781	C78	0.323400	0.764620	0.804920
C791	C79	0.252700	0.947850	0.812380
C801	C80	0.577600	0.714730	0.794360
C811	C81	0.416500	0.832360	0.799040
C821	C82	0.380900	0.920380	0.800160
C831	C83	0.536300	0.810660	0.797240
C841	C84	0.073200	0.989360	0.661120
C851	C85	0.078400	0.017880	0.597160
C861	C86	0.998200	0.985650	0.534900
C871	C87	0.910800	0.928970	0.543740
C881	C88	0.910700	0.904020	0.609440
N51	N5	0.992500	0.264450	0.332660
N61	N6	0.007500	0.068210	0.332660
N71	N7	0.007500	0.735550	0.667340
N81	N8	0.992500	0.931790	0.667340
O251	O25	0.273990	0.911710	0.128280
O261	O26	0.298670	0.953630	0.262960
O271	O27	0.181550	0.125320	0.237200
O281	O28	0.227440	0.153070	0.126620
O291	O29	0.655410	0.930240	0.259240
O301	O30	0.531690	0.842870	0.155980
O311	O31	0.726010	0.216570	0.128280
O321	O32	0.701330	0.309330	0.262960
O331	O33	0.818450	0.111880	0.237200
O341	O34	0.772560	0.973550	0.126620
O351	O35	0.344590	0.329000	0.259240
O361	O36	0.468310	0.313110	0.155980
O371	O37	0.726010	0.088290	0.871720
O381	O38	0.701330	0.046370	0.737040
O391	O39	0.818450	0.874680	0.762800
O401	O40	0.772560	0.846930	0.873380
O411	O41	0.344590	0.069760	0.740760
O421	O42	0.468310	0.157130	0.844020
O431	O43	0.273990	0.783430	0.871720
O441	O44	0.298670	0.690670	0.737040
O451	O45	0.181550	0.888120	0.762800
O461	O46	0.227440	0.026450	0.873380
O471	O47	0.655410	0.671000	0.740760
O481	O48	0.531690	0.686890	0.844020
