data_VEZMOE_clean_PM
_symmetry_space_group_name_H-M	'P1'
_cell_length_a	20.590900
_cell_length_b	20.590900
_cell_length_c	28.308200
_cell_angle_alpha	90.000000
_cell_angle_beta	90.000000
_cell_angle_gamma	120.000000
_symmetry_Int_Tables_number 1

loop_
_symmetry_equiv_pos_as_xyz
'x,y,z'

loop_
_atom_site_label
_atom_site_type_symbol
_atom_site_fract_x
_atom_site_fract_y
_atom_site_fract_z
K11	K1	0.150450	0.395990	0.028150
K21	K2	0.925590	0.728030	0.110360
K31	K3	0.574810	0.057490	0.113940
K41	K4	0.245540	0.849550	0.361480
K51	K5	0.802440	0.074410	0.443690
K61	K6	0.482680	0.425190	0.447270
K71	K7	0.604010	0.754460	0.694820
K81	K8	0.271970	0.197560	0.777030
K91	K9	0.942510	0.517320	0.780610
K101	K10	0.849550	0.604010	0.528150
K111	K11	0.074410	0.271970	0.610360
K121	K12	0.425190	0.942510	0.613940
K131	K13	0.754460	0.150450	0.861480
K141	K14	0.197560	0.925590	0.943690
K151	K15	0.517320	0.574810	0.947270
K161	K16	0.395990	0.245540	0.194820
K171	K17	0.728030	0.802440	0.277030
K181	K18	0.057490	0.482680	0.280610
Cd11	Cd1	0.112000	0.443250	0.155600
Cd21	Cd2	0.003010	0.770510	0.981990
Cd31	Cd3	0.423540	0.087370	0.156460
Cd41	Cd4	0.331250	0.888000	0.488930
Cd51	Cd5	0.767500	0.996990	0.315320
Cd61	Cd6	0.663830	0.576460	0.489790
Cd71	Cd7	0.556750	0.668750	0.822260
Cd81	Cd8	0.229490	0.232500	0.648660
Cd91	Cd9	0.912640	0.336180	0.823130
Cd101	Cd10	0.888000	0.556750	0.655600
Cd111	Cd11	0.996990	0.229490	0.481990
Cd121	Cd12	0.576460	0.912630	0.656460
Cd131	Cd13	0.668750	0.112000	0.988930
Cd141	Cd14	0.232500	0.003010	0.815320
Cd151	Cd15	0.336170	0.423530	0.989790
Cd161	Cd16	0.443250	0.331250	0.322260
Cd171	Cd17	0.770510	0.767500	0.148660
Cd181	Cd18	0.087370	0.663830	0.323130
H11	H1	0.314100	0.439600	0.250200
H21	H2	0.374500	0.530700	0.379000
H31	H3	0.308000	0.592100	0.368200
H41	H4	0.238900	0.573000	0.300100
H51	H5	0.966700	0.200600	0.220700
H61	H6	0.887800	0.993500	0.167900
H71	H7	0.963600	0.045300	0.101700
H81	H8	0.036100	0.173200	0.093700
H91	H9	0.119700	0.655500	0.065700
H101	H10	0.258700	0.585100	0.020400
H111	H11	0.285600	0.660000	0.954200
H121	H12	0.231400	0.734700	0.944300
H131	H13	0.624900	0.098300	0.244900
H141	H14	0.697300	0.185600	0.373600
H151	H15	0.633900	0.251600	0.366600
H161	H16	0.557000	0.231900	0.302200
H171	H17	0.444400	0.292100	0.071400
H181	H18	0.588600	0.234000	0.018000
H191	H19	0.617500	0.321500	0.957800
H201	H20	0.554600	0.388000	0.952500
H211	H21	0.188000	0.977400	0.065900
H221	H22	0.173900	0.063900	0.187800
H231	H23	0.045100	0.000300	0.178900
H241	H24	0.990000	0.922700	0.114400
H251	H25	0.125500	0.685900	0.583530
H261	H26	0.156200	0.625500	0.712330
H271	H27	0.284100	0.692000	0.701530
H281	H28	0.334100	0.761100	0.633430
H291	H29	0.233900	0.033300	0.554030
H301	H30	0.105700	0.112200	0.501230
H311	H31	0.081700	0.036400	0.435030
H321	H32	0.137100	0.963900	0.427030
H331	H33	0.535800	0.880300	0.399030
H341	H34	0.326400	0.741300	0.353730
H351	H35	0.374400	0.714400	0.287530
H361	H36	0.503300	0.768600	0.277630
H371	H37	0.473400	0.375100	0.578230
H381	H38	0.488300	0.302700	0.706930
H391	H39	0.617700	0.366100	0.699930
H401	H40	0.674900	0.443000	0.635530
H411	H41	0.847700	0.555600	0.404730
H421	H42	0.645400	0.411400	0.351330
H431	H43	0.704000	0.382500	0.291130
H441	H44	0.833400	0.445400	0.285830
H451	H45	0.789400	0.812000	0.399230
H461	H46	0.890000	0.826100	0.521130
H471	H47	0.955200	0.954900	0.512230
H481	H48	0.932700	0.010000	0.447730
H491	H49	0.560400	0.874500	0.916870
H501	H50	0.469300	0.843800	0.045670
H511	H51	0.407900	0.715900	0.034870
H521	H52	0.427000	0.665900	0.966770
H531	H53	0.799400	0.766100	0.887370
H541	H54	0.006500	0.894300	0.834570
H551	H55	0.954700	0.918300	0.768370
H561	H56	0.826800	0.862900	0.760370
H571	H57	0.344500	0.464200	0.732370
H581	H58	0.414900	0.673600	0.687070
H591	H59	0.340000	0.625600	0.620870
H601	H60	0.265300	0.496700	0.610970
H611	H61	0.901700	0.526600	0.911570
H621	H62	0.814400	0.511700	0.040270
H631	H63	0.748400	0.382300	0.033270
H641	H64	0.768100	0.325100	0.968870
H651	H65	0.707900	0.152300	0.738070
H661	H66	0.766000	0.354600	0.684670
H671	H67	0.678500	0.296000	0.624470
H681	H68	0.612000	0.166600	0.619170
H691	H69	0.022600	0.210600	0.732570
H701	H70	0.936100	0.110000	0.854470
H711	H71	0.999700	0.044800	0.845570
H721	H72	0.077300	0.067300	0.781070
H731	H73	0.685900	0.560400	0.750200
H741	H74	0.625500	0.469300	0.879000
H751	H75	0.692000	0.407900	0.868200
H761	H76	0.761100	0.427000	0.800100
H771	H77	0.033300	0.799400	0.720700
H781	H78	0.112200	0.006500	0.667900
H791	H79	0.036400	0.954700	0.601700
H801	H80	0.963900	0.826800	0.593700
H811	H81	0.880300	0.344500	0.565700
H821	H82	0.741300	0.414900	0.520400
H831	H83	0.714400	0.340000	0.454200
H841	H84	0.768600	0.265300	0.444300
H851	H85	0.375100	0.901700	0.744900
H861	H86	0.302700	0.814400	0.873600
H871	H87	0.366100	0.748400	0.866600
H881	H88	0.443000	0.768100	0.802200
H891	H89	0.555600	0.707900	0.571400
H901	H90	0.411400	0.766000	0.518000
H911	H91	0.382500	0.678500	0.457800
H921	H92	0.445400	0.612000	0.452500
H931	H93	0.812000	0.022600	0.565900
H941	H94	0.826100	0.936100	0.687800
H951	H95	0.954900	0.999700	0.678900
H961	H96	0.010000	0.077300	0.614400
H971	H97	0.874500	0.314100	0.083530
H981	H98	0.843800	0.374500	0.212330
H991	H99	0.715900	0.308000	0.201530
H1001	H100	0.665900	0.238900	0.133430
H1011	H101	0.766100	0.966700	0.054030
H1021	H102	0.894300	0.887800	0.001230
H1031	H103	0.918300	0.963600	0.935030
H1041	H104	0.862900	0.036100	0.927030
H1051	H105	0.464200	0.119700	0.899030
H1061	H106	0.673600	0.258700	0.853730
H1071	H107	0.625600	0.285600	0.787530
H1081	H108	0.496700	0.231400	0.777630
H1091	H109	0.526600	0.624900	0.078230
H1101	H110	0.511700	0.697300	0.206930
H1111	H111	0.382300	0.633900	0.199930
H1121	H112	0.325100	0.557000	0.135530
H1131	H113	0.152300	0.444400	0.904730
H1141	H114	0.354600	0.588600	0.851330
H1151	H115	0.296000	0.617500	0.791130
H1161	H116	0.166600	0.554600	0.785830
H1171	H117	0.210600	0.188000	0.899230
H1181	H118	0.110000	0.173900	0.021130
H1191	H119	0.044800	0.045100	0.012230
H1201	H120	0.067300	0.990000	0.947730
H1211	H121	0.439600	0.125500	0.416870
H1221	H122	0.530700	0.156200	0.545670
H1231	H123	0.592100	0.284100	0.534870
H1241	H124	0.573000	0.334100	0.466770
H1251	H125	0.200600	0.233900	0.387370
H1261	H126	0.993500	0.105700	0.334570
H1271	H127	0.045300	0.081700	0.268370
H1281	H128	0.173200	0.137100	0.260370
H1291	H129	0.655500	0.535800	0.232370
H1301	H130	0.585100	0.326400	0.187070
H1311	H131	0.660000	0.374400	0.120870
H1321	H132	0.734700	0.503300	0.110970
H1331	H133	0.098300	0.473400	0.411570
H1341	H134	0.185600	0.488300	0.540270
H1351	H135	0.251600	0.617700	0.533270
H1361	H136	0.231900	0.674900	0.468870
H1371	H137	0.292100	0.847700	0.238070
H1381	H138	0.234000	0.645400	0.184670
H1391	H139	0.321500	0.704000	0.124470
H1401	H140	0.388000	0.833400	0.119170
H1411	H141	0.977400	0.789400	0.232570
H1421	H142	0.063900	0.890000	0.354470
H1431	H143	0.000300	0.955200	0.345570
H1441	H144	0.922700	0.932700	0.281070
C11	C1	0.311270	0.468780	0.274370
C21	C2	0.350350	0.477550	0.316510
C31	C3	0.348200	0.523800	0.351040
C41	C4	0.307800	0.560300	0.344770
C51	C5	0.267100	0.549500	0.303930
C61	C6	0.268390	0.502730	0.267980
C71	C7	0.392720	0.436260	0.323120
C81	C8	0.220310	0.485510	0.224860
C91	C9	0.964870	0.169530	0.196270
C101	C10	0.919520	0.092650	0.200620
C111	C11	0.918200	0.045200	0.165110
C121	C12	0.963100	0.076400	0.125340
C131	C13	0.006900	0.153200	0.120630
C141	C14	0.007720	0.201050	0.155870
C151	C15	0.867940	0.060460	0.242940
C161	C16	0.053270	0.284890	0.150070
C171	C17	0.152120	0.655620	0.042770
C181	C18	0.184720	0.610920	0.048900
C191	C19	0.235700	0.613700	0.016070
C201	C20	0.252100	0.658900	0.976660
C211	C21	0.218900	0.703200	0.970360
C221	C22	0.167300	0.700000	0.003070
C231	C23	0.161380	0.557880	0.090160
C241	C24	0.124700	0.741400	0.993590
C251	C25	0.625000	0.127220	0.270180
C261	C26	0.667720	0.134360	0.309920
C271	C27	0.669500	0.180400	0.346490
C281	C28	0.630100	0.218700	0.342820
C291	C29	0.585300	0.208200	0.303770
C301	C30	0.582310	0.162460	0.267260
C311	C31	0.707300	0.090300	0.313590
C321	C32	0.530230	0.144030	0.226220
C331	C33	0.477580	0.296370	0.047670
C341	C34	0.513200	0.254110	0.050750
C351	C35	0.565000	0.262400	0.016600
C361	C36	0.581300	0.314000	0.980110
C371	C37	0.543700	0.354100	0.977070
C381	C38	0.490300	0.344290	0.010310
C391	C39	0.490620	0.197640	0.089530
C401	C40	0.443200	0.381050	0.004830
C411	C41	0.163900	0.983200	0.088100
C421	C42	0.197600	0.027090	0.127950
C431	C43	0.152300	0.033600	0.161510
C441	C44	0.075000	0.995200	0.156230
C451	C45	0.041900	0.949300	0.117330
C461	C46	0.086550	0.943230	0.082840
C471	C47	0.280100	0.057800	0.135970
C481	C48	0.054700	0.888690	0.042650
C491	C49	0.157510	0.688730	0.607700
C501	C50	0.127200	0.649650	0.649840
C511	C51	0.175600	0.651800	0.684370
C521	C52	0.252500	0.692200	0.678100
C531	C53	0.282400	0.732900	0.637260
C541	C54	0.234340	0.731610	0.601310
C551	C55	0.043540	0.607280	0.656450
C561	C56	0.265200	0.779690	0.558190
C571	C57	0.204660	0.035130	0.529600
C581	C58	0.173130	0.080480	0.533950
C591	C59	0.127000	0.081800	0.498440
C601	C60	0.113300	0.036900	0.458670
C611	C61	0.146300	0.993100	0.453960
C621	C62	0.193330	0.992280	0.489200
C631	C63	0.192520	0.132060	0.576270
C641	C64	0.231620	0.946730	0.483400
C651	C65	0.503500	0.847880	0.376100
C661	C66	0.426200	0.815280	0.382230
C671	C67	0.378000	0.764300	0.349400
C681	C68	0.406800	0.747900	0.309990
C691	C69	0.484300	0.781100	0.303690
C701	C70	0.532700	0.832700	0.336400
C711	C71	0.396500	0.838620	0.423490
C721	C72	0.616700	0.875300	0.326920
C731	C73	0.502220	0.375000	0.603510
C741	C74	0.466640	0.332280	0.643250
C751	C75	0.510900	0.330500	0.679820
C761	C76	0.588600	0.369900	0.676150
C771	C77	0.622900	0.414700	0.637100
C781	C78	0.580150	0.417690	0.600590
C791	C79	0.383000	0.292700	0.646920
C801	C80	0.613800	0.469770	0.559550
C811	C81	0.818790	0.522420	0.381000
C821	C82	0.740910	0.486800	0.384080
C831	C83	0.697400	0.435000	0.349930
C841	C84	0.732700	0.418700	0.313440
C851	C85	0.810400	0.456300	0.310400
C861	C86	0.853990	0.509700	0.343640
C871	C87	0.707020	0.509380	0.422860
C881	C88	0.937850	0.556800	0.338160
C891	C89	0.819300	0.836100	0.421430
C901	C90	0.829490	0.802400	0.461280
C911	C91	0.881300	0.847700	0.494840
C921	C92	0.920200	0.925000	0.489560
C931	C93	0.907400	0.958100	0.450660
C941	C94	0.856680	0.913450	0.416170
C951	C95	0.777700	0.719900	0.469300
C961	C96	0.833990	0.945300	0.375980
C971	C97	0.531220	0.842490	0.941040
C981	C98	0.522450	0.872800	0.983180
C991	C99	0.476200	0.824400	0.017710
C1001	C100	0.439700	0.747500	0.011440
C1011	C101	0.450500	0.717600	0.970600
C1021	C102	0.497270	0.765660	0.934650
C1031	C103	0.563740	0.956460	0.989790
C1041	C104	0.514490	0.734800	0.891530
C1051	C105	0.830470	0.795340	0.862940
C1061	C106	0.907350	0.826870	0.867290
C1071	C107	0.954800	0.873000	0.831780
C1081	C108	0.923600	0.886700	0.792010
C1091	C109	0.846800	0.853700	0.787300
C1101	C110	0.798950	0.806670	0.822540
C1111	C111	0.939540	0.807480	0.909610
C1121	C112	0.715110	0.768380	0.816740
C1131	C113	0.344380	0.496500	0.709440
C1141	C114	0.389080	0.573800	0.715570
C1151	C115	0.386300	0.622000	0.682740
C1161	C116	0.341100	0.593200	0.643330
C1171	C117	0.296800	0.515700	0.637030
C1181	C118	0.300000	0.467300	0.669740
C1191	C119	0.442120	0.603500	0.756830
C1201	C120	0.258600	0.383300	0.660260
C1211	C121	0.872780	0.497780	0.936850
C1221	C122	0.865640	0.533360	0.976590
C1231	C123	0.819600	0.489100	0.013160
C1241	C124	0.781300	0.411400	0.009490
C1251	C125	0.791800	0.377100	0.970440
C1261	C126	0.837540	0.419850	0.933930
C1271	C127	0.909700	0.617000	0.980260
C1281	C128	0.855970	0.386200	0.892890
C1291	C129	0.703630	0.181210	0.714340
C1301	C130	0.745890	0.259090	0.717420
C1311	C131	0.737600	0.302600	0.683270
C1321	C132	0.686000	0.267300	0.646780
C1331	C133	0.645900	0.189600	0.643740
C1341	C134	0.655710	0.146010	0.676980
C1351	C135	0.802360	0.292980	0.756200
C1361	C136	0.618950	0.062150	0.671500
C1371	C137	0.016800	0.180700	0.754770
C1381	C138	0.972910	0.170510	0.794620
C1391	C139	0.966400	0.118700	0.828180
C1401	C140	0.004800	0.079800	0.822900
C1411	C141	0.050700	0.092600	0.784000
C1421	C142	0.056770	0.143320	0.749510
C1431	C143	0.942200	0.222300	0.802640
C1441	C144	0.111310	0.166010	0.709320
C1451	C145	0.688730	0.531220	0.774370
C1461	C146	0.649650	0.522450	0.816510
C1471	C147	0.651800	0.476200	0.851040
C1481	C148	0.692200	0.439700	0.844770
C1491	C149	0.732900	0.450500	0.803930
C1501	C150	0.731610	0.497270	0.767980
C1511	C151	0.607280	0.563740	0.823120
C1521	C152	0.779690	0.514490	0.724860
C1531	C153	0.035130	0.830470	0.696270
C1541	C154	0.080480	0.907350	0.700620
C1551	C155	0.081800	0.954800	0.665110
C1561	C156	0.036900	0.923600	0.625340
C1571	C157	0.993100	0.846800	0.620630
C1581	C158	0.992280	0.798950	0.655870
C1591	C159	0.132060	0.939540	0.742940
C1601	C160	0.946730	0.715110	0.650070
C1611	C161	0.847880	0.344380	0.542770
C1621	C162	0.815280	0.389080	0.548900
C1631	C163	0.764300	0.386300	0.516070
C1641	C164	0.747900	0.341100	0.476660
C1651	C165	0.781100	0.296800	0.470360
C1661	C166	0.832700	0.300000	0.503070
C1671	C167	0.838620	0.442120	0.590160
C1681	C168	0.875300	0.258600	0.493590
C1691	C169	0.375000	0.872780	0.770180
C1701	C170	0.332280	0.865640	0.809920
C1711	C171	0.330500	0.819600	0.846490
C1721	C172	0.369900	0.781300	0.842820
C1731	C173	0.414700	0.791800	0.803770
C1741	C174	0.417690	0.837540	0.767260
C1751	C175	0.292700	0.909700	0.813590
C1761	C176	0.469770	0.855970	0.726220
C1771	C177	0.522420	0.703630	0.547670
C1781	C178	0.486800	0.745890	0.550750
C1791	C179	0.435000	0.737600	0.516600
C1801	C180	0.418700	0.686000	0.480110
C1811	C181	0.456300	0.645900	0.477070
C1821	C182	0.509700	0.655710	0.510310
C1831	C183	0.509380	0.802360	0.589530
C1841	C184	0.556800	0.618950	0.504830
C1851	C185	0.836100	0.016800	0.588100
C1861	C186	0.802400	0.972910	0.627950
C1871	C187	0.847700	0.966400	0.661510
C1881	C188	0.925000	0.004800	0.656230
C1891	C189	0.958100	0.050700	0.617330
C1901	C190	0.913450	0.056770	0.582840
C1911	C191	0.719900	0.942200	0.635970
C1921	C192	0.945300	0.111310	0.542650
C1931	C193	0.842490	0.311270	0.107700
C1941	C194	0.872800	0.350350	0.149840
C1951	C195	0.824400	0.348200	0.184370
C1961	C196	0.747500	0.307800	0.178100
C1971	C197	0.717600	0.267100	0.137260
C1981	C198	0.765660	0.268390	0.101310
C1991	C199	0.956460	0.392720	0.156450
C2001	C200	0.734800	0.220310	0.058190
C2011	C201	0.795340	0.964870	0.029600
C2021	C202	0.826870	0.919520	0.033950
C2031	C203	0.873000	0.918200	0.998440
C2041	C204	0.886700	0.963100	0.958670
C2051	C205	0.853700	0.006900	0.953960
C2061	C206	0.806670	0.007720	0.989200
C2071	C207	0.807480	0.867940	0.076270
C2081	C208	0.768380	0.053270	0.983400
C2091	C209	0.496500	0.152120	0.876100
C2101	C210	0.573800	0.184720	0.882230
C2111	C211	0.622000	0.235700	0.849400
C2121	C212	0.593200	0.252100	0.809990
C2131	C213	0.515700	0.218900	0.803690
C2141	C214	0.467300	0.167300	0.836400
C2151	C215	0.603500	0.161380	0.923490
C2161	C216	0.383300	0.124700	0.826920
C2171	C217	0.497780	0.625000	0.103510
C2181	C218	0.533360	0.667720	0.143250
C2191	C219	0.489100	0.669500	0.179820
C2201	C220	0.411400	0.630100	0.176150
C2211	C221	0.377100	0.585300	0.137100
C2221	C222	0.419850	0.582310	0.100590
C2231	C223	0.617000	0.707300	0.146920
C2241	C224	0.386200	0.530230	0.059550
C2251	C225	0.181210	0.477580	0.881000
C2261	C226	0.259090	0.513200	0.884080
C2271	C227	0.302600	0.565000	0.849930
C2281	C228	0.267300	0.581300	0.813440
C2291	C229	0.189600	0.543700	0.810400
C2301	C230	0.146010	0.490300	0.843640
C2311	C231	0.292980	0.490620	0.922860
C2321	C232	0.062150	0.443200	0.838160
C2331	C233	0.180700	0.163900	0.921430
C2341	C234	0.170510	0.197600	0.961280
C2351	C235	0.118700	0.152300	0.994840
C2361	C236	0.079800	0.075000	0.989560
C2371	C237	0.092600	0.041900	0.950660
C2381	C238	0.143320	0.086550	0.916170
C2391	C239	0.222300	0.280100	0.969300
C2401	C240	0.166010	0.054700	0.875980
C2411	C241	0.468780	0.157510	0.441040
C2421	C242	0.477550	0.127200	0.483180
C2431	C243	0.523800	0.175600	0.517710
C2441	C244	0.560300	0.252500	0.511440
C2451	C245	0.549500	0.282400	0.470600
C2461	C246	0.502730	0.234340	0.434650
C2471	C247	0.436260	0.043540	0.489790
C2481	C248	0.485510	0.265200	0.391530
C2491	C249	0.169530	0.204660	0.362940
C2501	C250	0.092650	0.173130	0.367290
C2511	C251	0.045200	0.127000	0.331780
C2521	C252	0.076400	0.113300	0.292010
C2531	C253	0.153200	0.146300	0.287300
C2541	C254	0.201050	0.193330	0.322540
C2551	C255	0.060460	0.192520	0.409610
C2561	C256	0.284890	0.231620	0.316740
C2571	C257	0.655620	0.503500	0.209440
C2581	C258	0.610920	0.426200	0.215570
C2591	C259	0.613700	0.378000	0.182740
C2601	C260	0.658900	0.406800	0.143330
C2611	C261	0.703200	0.484300	0.137030
C2621	C262	0.700000	0.532700	0.169740
C2631	C263	0.557880	0.396500	0.256830
C2641	C264	0.741400	0.616700	0.160260
C2651	C265	0.127220	0.502220	0.436850
C2661	C266	0.134360	0.466640	0.476590
C2671	C267	0.180400	0.510900	0.513160
C2681	C268	0.218700	0.588600	0.509490
C2691	C269	0.208200	0.622900	0.470440
C2701	C270	0.162460	0.580150	0.433930
C2711	C271	0.090300	0.383000	0.480260
C2721	C272	0.144030	0.613800	0.392890
C2731	C273	0.296370	0.818790	0.214340
C2741	C274	0.254110	0.740910	0.217420
C2751	C275	0.262400	0.697400	0.183270
C2761	C276	0.314000	0.732700	0.146780
C2771	C277	0.354100	0.810400	0.143740
C2781	C278	0.344290	0.853990	0.176980
C2791	C279	0.197640	0.707020	0.256200
C2801	C280	0.381050	0.937850	0.171500
C2811	C281	0.983200	0.819300	0.254770
C2821	C282	0.027090	0.829490	0.294620
C2831	C283	0.033600	0.881300	0.328180
C2841	C284	0.995200	0.920200	0.322900
C2851	C285	0.949300	0.907400	0.284000
C2861	C286	0.943230	0.856680	0.249510
C2871	C287	0.057800	0.777700	0.302640
C2881	C288	0.888690	0.833990	0.209320
O11	O1	0.420600	0.437170	0.362550
O21	O2	0.396790	0.400120	0.288230
O31	O3	0.170490	0.504770	0.224480
O41	O4	0.227210	0.449880	0.191140
O51	O5	0.812960	0.993890	0.240200
O61	O6	0.880210	0.100310	0.278760
O71	O7	0.084270	0.312800	0.111490
O81	O8	0.058040	0.324450	0.185620
O91	O9	0.180220	0.507990	0.090140
O101	O10	0.122480	0.562130	0.122650
O111	O11	0.135300	0.776720	0.956240
O121	O12	0.076470	0.734430	0.023300
O131	O13	0.745690	0.096960	0.349560
O141	O14	0.699210	0.046700	0.280050
O151	O15	0.470790	0.147720	0.231260
O161	O16	0.544620	0.122860	0.188190
O171	O17	0.492080	0.137660	0.082950
O181	O18	0.467540	0.210740	0.127730
O191	O19	0.456940	0.426580	0.971520
O201	O20	0.389140	0.362630	0.032420
O211	O21	0.310090	0.098190	0.171940
O221	O22	0.315800	0.039570	0.108360
O231	O23	0.093700	0.896660	0.007710
O241	O24	0.989500	0.833840	0.047130
O251	O25	0.016570	0.579400	0.695880
O261	O26	0.003330	0.603210	0.621560
O271	O27	0.334280	0.829510	0.557810
O281	O28	0.222670	0.772790	0.524470
O291	O29	0.180930	0.187040	0.573530
O301	O30	0.220100	0.119790	0.612090
O311	O31	0.228530	0.915730	0.444820
O321	O32	0.266410	0.941960	0.518950
O331	O33	0.327770	0.819780	0.423470
O341	O34	0.439650	0.877520	0.455980
O351	O35	0.641420	0.864700	0.289570
O361	O36	0.657960	0.923530	0.356630
O371	O37	0.351270	0.254310	0.682890
O381	O38	0.347490	0.300790	0.613380
O391	O39	0.676930	0.529210	0.564590
O401	O40	0.578240	0.455380	0.521520
O411	O41	0.645580	0.507920	0.416280
O421	O42	0.743200	0.532460	0.461060
O431	O43	0.969640	0.543060	0.304850
O441	O44	0.973490	0.610860	0.365750
O451	O45	0.788100	0.689910	0.505270
O461	O46	0.723770	0.684200	0.441690
O471	O47	0.802960	0.906300	0.341040
O481	O48	0.844340	0.010500	0.380460
O491	O49	0.562830	0.983430	0.029220
O501	O50	0.599880	0.996670	0.954900
O511	O51	0.495230	0.665720	0.891150
O521	O52	0.550120	0.777330	0.857810
O531	O53	0.006110	0.819070	0.906870
O541	O54	0.899690	0.779900	0.945430
O551	O55	0.687200	0.771470	0.778160
O561	O56	0.675550	0.733590	0.852290
O571	O57	0.492010	0.672230	0.756810
O581	O58	0.437870	0.560350	0.789320
O591	O59	0.223280	0.358580	0.622910
O601	O60	0.265570	0.342040	0.689970
O611	O61	0.903040	0.648730	0.016230
O621	O62	0.953300	0.652510	0.946720
O631	O63	0.852280	0.323070	0.897930
O641	O64	0.877140	0.421760	0.854860
O651	O65	0.862340	0.354420	0.749620
O661	O66	0.789260	0.256800	0.794400
O671	O67	0.573420	0.030360	0.638190
O681	O68	0.637370	0.026510	0.699090
O691	O69	0.901810	0.211900	0.838610
O701	O70	0.960430	0.276230	0.775030
O711	O71	0.103340	0.197040	0.674380
O721	O72	0.166160	0.155660	0.713800
O731	O73	0.579400	0.562830	0.862550
O741	O74	0.603210	0.599880	0.788230
O751	O75	0.829510	0.495230	0.724480
O761	O76	0.772790	0.550120	0.691140
O771	O77	0.187040	0.006110	0.740200
O781	O78	0.119790	0.899690	0.778760
O791	O79	0.915730	0.687200	0.611490
O801	O80	0.941960	0.675550	0.685620
O811	O81	0.819780	0.492010	0.590140
O821	O82	0.877520	0.437870	0.622650
O831	O83	0.864700	0.223280	0.456240
O841	O84	0.923530	0.265570	0.523300
O851	O85	0.254310	0.903040	0.849560
O861	O86	0.300790	0.953300	0.780050
O871	O87	0.529210	0.852280	0.731260
O881	O88	0.455380	0.877140	0.688190
O891	O89	0.507920	0.862340	0.582950
O901	O90	0.532460	0.789260	0.627730
O911	O91	0.543060	0.573420	0.471520
O921	O92	0.610860	0.637370	0.532420
O931	O93	0.689910	0.901810	0.671940
O941	O94	0.684200	0.960430	0.608360
O951	O95	0.906300	0.103340	0.507710
O961	O96	0.010500	0.166160	0.547130
O971	O97	0.983430	0.420600	0.195880
O981	O98	0.996670	0.396790	0.121560
O991	O99	0.665720	0.170490	0.057810
O1001	O100	0.777330	0.227210	0.024470
O1011	O101	0.819070	0.812960	0.073530
O1021	O102	0.779900	0.880210	0.112090
O1031	O103	0.771470	0.084270	0.944820
O1041	O104	0.733590	0.058040	0.018950
O1051	O105	0.672230	0.180220	0.923470
O1061	O106	0.560350	0.122480	0.955980
O1071	O107	0.358580	0.135300	0.789570
O1081	O108	0.342040	0.076470	0.856630
O1091	O109	0.648730	0.745690	0.182890
O1101	O110	0.652510	0.699210	0.113380
O1111	O111	0.323070	0.470790	0.064590
O1121	O112	0.421760	0.544620	0.021520
O1131	O113	0.354420	0.492080	0.916280
O1141	O114	0.256800	0.467540	0.961060
O1151	O115	0.030360	0.456940	0.804850
O1161	O116	0.026510	0.389140	0.865750
O1171	O117	0.211900	0.310090	0.005270
O1181	O118	0.276230	0.315800	0.941690
O1191	O119	0.197040	0.093700	0.841040
O1201	O120	0.155660	0.989500	0.880460
O1211	O121	0.437170	0.016570	0.529220
O1221	O122	0.400120	0.003330	0.454900
O1231	O123	0.504770	0.334280	0.391150
O1241	O124	0.449880	0.222670	0.357810
O1251	O125	0.993890	0.180930	0.406870
O1261	O126	0.100310	0.220100	0.445430
O1271	O127	0.312800	0.228530	0.278160
O1281	O128	0.324450	0.266410	0.352290
O1291	O129	0.507990	0.327770	0.256810
O1301	O130	0.562130	0.439650	0.289320
O1311	O131	0.776720	0.641420	0.122910
O1321	O132	0.734430	0.657960	0.189970
O1331	O133	0.096960	0.351270	0.516230
O1341	O134	0.046700	0.347490	0.446720
O1351	O135	0.147720	0.676930	0.397930
O1361	O136	0.122860	0.578240	0.354860
O1371	O137	0.137660	0.645580	0.249620
O1381	O138	0.210740	0.743200	0.294400
O1391	O139	0.426580	0.969640	0.138190
O1401	O140	0.362630	0.973490	0.199090
O1411	O141	0.098190	0.788100	0.338610
O1421	O142	0.039570	0.723770	0.275030
O1431	O143	0.896660	0.802960	0.174380
O1441	O144	0.833840	0.844340	0.213800
