data_VEZQEX_clean_PM
_symmetry_space_group_name_H-M	'P1'
_cell_length_a	18.313000
_cell_length_b	8.822900
_cell_length_c	16.221000
_cell_angle_alpha	90.000000
_cell_angle_beta	111.700000
_cell_angle_gamma	90.000000
_symmetry_Int_Tables_number 1

loop_
_symmetry_equiv_pos_as_xyz
'x,y,z'

loop_
_atom_site_label
_atom_site_type_symbol
_atom_site_fract_x
_atom_site_fract_y
_atom_site_fract_z
In11	In1	0.264620	0.719570	0.339780
P11	P1	0.138010	0.851490	0.431520
P21	P2	0.873660	0.924160	0.313750
P31	P3	0.131470	0.452520	0.241360
O11	O1	0.193700	0.524800	0.322240
O21	O2	0.093690	0.007900	0.401140
H11	H1	0.075800	0.012600	0.346800
O31	O3	0.213080	0.858600	0.411530
O41	O4	0.160620	0.404500	0.167690
O51	O5	0.938570	0.903800	0.277570
O61	O6	0.813800	0.796000	0.287400
O71	O7	0.083590	0.722700	0.383600
O81	O8	0.836760	0.081300	0.288210
O91	O9	0.059130	0.553600	0.201580
O101	O10	0.104380	0.304900	0.277300
H21	H2	0.120600	0.229800	0.259600
O111	O11	0.154510	0.848200	0.530990
O121	O12	0.913770	0.914400	0.418130
H31	H3	0.896900	0.982600	0.440600
In21	In2	0.764620	0.219570	0.339780
P41	P4	0.638010	0.351490	0.431520
P51	P5	0.373660	0.424160	0.313750
P61	P6	0.631470	0.952520	0.241360
O131	O13	0.693700	0.024800	0.322240
O141	O14	0.593690	0.507900	0.401140
H41	H4	0.575800	0.512600	0.346800
O151	O15	0.713080	0.358600	0.411530
O161	O16	0.660620	0.904500	0.167690
O171	O17	0.438570	0.403800	0.277570
O181	O18	0.313800	0.296000	0.287400
O191	O19	0.583590	0.222700	0.383600
O201	O20	0.336760	0.581300	0.288210
O211	O21	0.559130	0.053600	0.201580
O221	O22	0.604380	0.804900	0.277300
H51	H5	0.620600	0.729800	0.259600
O231	O23	0.654510	0.348200	0.530990
O241	O24	0.413770	0.414400	0.418130
H61	H6	0.396900	0.482600	0.440600
In31	In3	0.735380	0.719570	0.160220
P71	P7	0.861990	0.851490	0.068480
P81	P8	0.126340	0.924160	0.186250
P91	P9	0.868530	0.452520	0.258640
O251	O25	0.806300	0.524800	0.177760
O261	O26	0.906310	0.007900	0.098860
H71	H7	0.924200	0.012600	0.153200
O271	O27	0.786920	0.858600	0.088470
O281	O28	0.839380	0.404500	0.332310
O291	O29	0.061430	0.903800	0.222430
O301	O30	0.186200	0.796000	0.212600
O311	O31	0.916410	0.722700	0.116400
O321	O32	0.163240	0.081300	0.211790
O331	O33	0.940870	0.553600	0.298420
O341	O34	0.895620	0.304900	0.222700
H81	H8	0.879400	0.229800	0.240400
O351	O35	0.845490	0.848200	0.969010
O361	O36	0.086230	0.914400	0.081870
H91	H9	0.103100	0.982600	0.059400
In41	In4	0.235380	0.219570	0.160220
P101	P10	0.361990	0.351490	0.068480
P111	P11	0.626340	0.424160	0.186250
P121	P12	0.368530	0.952520	0.258640
O371	O37	0.306300	0.024800	0.177760
O381	O38	0.406310	0.507900	0.098860
H101	H10	0.424200	0.512600	0.153200
O391	O39	0.286920	0.358600	0.088470
O401	O40	0.339380	0.904500	0.332310
O411	O41	0.561430	0.403800	0.222430
O421	O42	0.686200	0.296000	0.212600
O431	O43	0.416410	0.222700	0.116400
O441	O44	0.663240	0.581300	0.211790
O451	O45	0.440870	0.053600	0.298420
O461	O46	0.395620	0.804900	0.222700
H111	H11	0.379400	0.729800	0.240400
O471	O47	0.345490	0.348200	0.969010
O481	O48	0.586230	0.414400	0.081870
H121	H12	0.603100	0.482600	0.059400
In51	In5	0.735380	0.280430	0.660220
P131	P13	0.861990	0.148510	0.568480
P141	P14	0.126340	0.075840	0.686250
P151	P15	0.868530	0.547480	0.758640
O491	O49	0.806300	0.475200	0.677760
O501	O50	0.906310	0.992100	0.598860
H131	H13	0.924200	0.987400	0.653200
O511	O51	0.786920	0.141400	0.588470
O521	O52	0.839380	0.595500	0.832310
O531	O53	0.061430	0.096200	0.722430
O541	O54	0.186200	0.204000	0.712600
O551	O55	0.916410	0.277300	0.616400
O561	O56	0.163240	0.918700	0.711790
O571	O57	0.940870	0.446400	0.798420
O581	O58	0.895620	0.695100	0.722700
H141	H14	0.879400	0.770200	0.740400
O591	O59	0.845490	0.151800	0.469010
O601	O60	0.086230	0.085600	0.581870
H151	H15	0.103100	0.017400	0.559400
In61	In6	0.235380	0.780430	0.660220
P161	P16	0.361990	0.648510	0.568480
P171	P17	0.626340	0.575840	0.686250
P181	P18	0.368530	0.047480	0.758640
O611	O61	0.306300	0.975200	0.677760
O621	O62	0.406310	0.492100	0.598860
H161	H16	0.424200	0.487400	0.653200
O631	O63	0.286920	0.641400	0.588470
O641	O64	0.339380	0.095500	0.832310
O651	O65	0.561430	0.596200	0.722430
O661	O66	0.686200	0.704000	0.712600
O671	O67	0.416410	0.777300	0.616400
O681	O68	0.663240	0.418700	0.711790
O691	O69	0.440870	0.946400	0.798420
O701	O70	0.395620	0.195100	0.722700
H171	H17	0.379400	0.270200	0.740400
O711	O71	0.345490	0.651800	0.469010
O721	O72	0.586230	0.585600	0.581870
H181	H18	0.603100	0.517400	0.559400
In71	In7	0.264620	0.280430	0.839780
P191	P19	0.138010	0.148510	0.931520
P201	P20	0.873660	0.075840	0.813750
P211	P21	0.131470	0.547480	0.741360
O731	O73	0.193700	0.475200	0.822240
O741	O74	0.093690	0.992100	0.901140
H191	H19	0.075800	0.987400	0.846800
O751	O75	0.213080	0.141400	0.911530
O761	O76	0.160620	0.595500	0.667690
O771	O77	0.938570	0.096200	0.777570
O781	O78	0.813800	0.204000	0.787400
O791	O79	0.083590	0.277300	0.883600
O801	O80	0.836760	0.918700	0.788210
O811	O81	0.059130	0.446400	0.701580
O821	O82	0.104380	0.695100	0.777300
H201	H20	0.120600	0.770200	0.759600
O831	O83	0.154510	0.151800	0.030990
O841	O84	0.913770	0.085600	0.918130
H211	H21	0.896900	0.017400	0.940600
In81	In8	0.764620	0.780430	0.839780
P221	P22	0.638010	0.648510	0.931520
P231	P23	0.373660	0.575840	0.813750
P241	P24	0.631470	0.047480	0.741360
O851	O85	0.693700	0.975200	0.822240
O861	O86	0.593690	0.492100	0.901140
H221	H22	0.575800	0.487400	0.846800
O871	O87	0.713080	0.641400	0.911530
O881	O88	0.660620	0.095500	0.667690
O891	O89	0.438570	0.596200	0.777570
O901	O90	0.313800	0.704000	0.787400
O911	O91	0.583590	0.777300	0.883600
O921	O92	0.336760	0.418700	0.788210
O931	O93	0.559130	0.946400	0.701580
O941	O94	0.604380	0.195100	0.777300
H231	H23	0.620600	0.270200	0.759600
O951	O95	0.654510	0.651800	0.030990
O961	O96	0.413770	0.585600	0.918130
H241	H24	0.396900	0.517400	0.940600
In91	In9	0.000000	0.714120	0.250000
In101	In10	0.500000	0.214120	0.250000
In111	In11	0.000000	0.285880	0.750000
In121	In12	0.500000	0.785880	0.750000
