data_VEZQAT_clean_PM
_symmetry_space_group_name_H-M	'P1'
_cell_length_a	71.008000
_cell_length_b	13.744400
_cell_length_c	14.322100
_cell_angle_alpha	90.000000
_cell_angle_beta	90.000000
_cell_angle_gamma	90.000000
_symmetry_Int_Tables_number 1

loop_
_symmetry_equiv_pos_as_xyz
'x,y,z'

loop_
_atom_site_label
_atom_site_type_symbol
_atom_site_fract_x
_atom_site_fract_y
_atom_site_fract_z
Al11	Al1	0.292910	0.481400	0.337700
Al21	Al2	0.112180	0.734700	0.869600
Co11	Co1	0.074440	0.504790	0.145270
Co21	Co2	0.028800	0.266750	0.883110
Al31	Al3	0.221200	0.516750	0.133110
Co31	Co3	0.148600	0.483840	0.322190
Al41	Al4	0.181070	0.755960	0.101100
Co41	Co4	0.068930	0.005960	0.351100
P11	P1	0.076830	0.672000	0.992100
P21	P2	0.037510	0.594680	0.233800
P31	P3	0.184790	0.585200	0.246100
P41	P4	0.146030	0.819000	0.977100
P51	P5	0.215690	0.683480	0.982100
P61	P6	0.111860	0.405100	0.220400
P71	P7	0.257480	0.418200	0.214400
O11	O1	0.096630	0.484200	0.220300
O21	O2	0.161390	0.763900	0.029400
O31	O3	0.130400	0.452500	0.229700
O41	O4	0.276020	0.457000	0.256400
O51	O5	0.092560	0.724300	0.944600
O61	O6	0.055980	0.534900	0.238800
O71	O7	0.020490	0.529500	0.228100
O81	O8	0.204710	0.543400	0.228700
O91	O9	0.171790	0.498300	0.254700
O101	O10	0.244240	0.498300	0.193600
O111	O11	0.202250	0.753000	0.025300
O121	O12	0.112060	0.347800	0.130200
O131	O13	0.228850	0.745900	0.925000
O141	O14	0.083980	0.609700	0.071900
O151	O15	0.178910	0.649400	0.169100
O161	O16	0.065030	0.612100	0.925700
O171	O17	0.314310	0.492700	0.281600
O181	O18	0.132660	0.745400	0.932000
O191	O19	0.063960	0.397100	0.085400
O201	O20	0.224810	0.621600	0.054300
O211	O21	0.114010	0.633300	0.797400
O221	O22	0.296470	0.383100	0.417000
O231	O23	0.247100	0.358500	0.292000
O241	O24	0.011710	0.392900	0.380500
O251	O25	0.037150	0.662400	0.146200
O261	O26	0.107940	0.342200	0.305100
O271	O27	0.155760	0.378900	0.406200
O281	O28	0.036220	0.655800	0.321600
Al51	Al5	0.292910	0.981400	0.837700
Al61	Al6	0.112180	0.234700	0.369600
Co51	Co5	0.074440	0.004790	0.645270
Co61	Co6	0.028800	0.766750	0.383110
Al71	Al7	0.221200	0.016750	0.633110
Co71	Co7	0.148600	0.983840	0.822190
Al81	Al8	0.181070	0.255960	0.601100
Co81	Co8	0.068930	0.505960	0.851100
P81	P8	0.076830	0.172000	0.492100
P91	P9	0.037510	0.094680	0.733800
P101	P10	0.184790	0.085200	0.746100
P111	P11	0.146030	0.319000	0.477100
P121	P12	0.215690	0.183480	0.482100
P131	P13	0.111860	0.905100	0.720400
P141	P14	0.257480	0.918200	0.714400
O291	O29	0.096630	0.984200	0.720300
O301	O30	0.161390	0.263900	0.529400
O311	O31	0.130400	0.952500	0.729700
O321	O32	0.276020	0.957000	0.756400
O331	O33	0.092560	0.224300	0.444600
O341	O34	0.055980	0.034900	0.738800
O351	O35	0.020490	0.029500	0.728100
O361	O36	0.204710	0.043400	0.728700
O371	O37	0.171790	0.998300	0.754700
O381	O38	0.244240	0.998300	0.693600
O391	O39	0.202250	0.253000	0.525300
O401	O40	0.112060	0.847800	0.630200
O411	O41	0.228850	0.245900	0.425000
O421	O42	0.083980	0.109700	0.571900
O431	O43	0.178910	0.149400	0.669100
O441	O44	0.065030	0.112100	0.425700
O451	O45	0.314310	0.992700	0.781600
O461	O46	0.132660	0.245400	0.432000
O471	O47	0.063960	0.897100	0.585400
O481	O48	0.224810	0.121600	0.554300
O491	O49	0.114010	0.133300	0.297400
O501	O50	0.296470	0.883100	0.917000
O511	O51	0.247100	0.858500	0.792000
O521	O52	0.011710	0.892900	0.880500
O531	O53	0.037150	0.162400	0.646200
O541	O54	0.107940	0.842200	0.805100
O551	O55	0.155760	0.878900	0.906200
O561	O56	0.036220	0.155800	0.821600
Al91	Al9	0.792910	0.481400	0.837700
Al101	Al10	0.612180	0.734700	0.369600
Co91	Co9	0.574440	0.504790	0.645270
Co101	Co10	0.528800	0.266750	0.383110
Al111	Al11	0.721200	0.516750	0.633110
Co111	Co11	0.648600	0.483840	0.822190
Al121	Al12	0.681070	0.755960	0.601100
Co121	Co12	0.568930	0.005960	0.851100
P151	P15	0.576830	0.672000	0.492100
P161	P16	0.537510	0.594680	0.733800
P171	P17	0.684790	0.585200	0.746100
P181	P18	0.646030	0.819000	0.477100
P191	P19	0.715690	0.683480	0.482100
P201	P20	0.611860	0.405100	0.720400
P211	P21	0.757480	0.418200	0.714400
O571	O57	0.596630	0.484200	0.720300
O581	O58	0.661390	0.763900	0.529400
O591	O59	0.630400	0.452500	0.729700
O601	O60	0.776020	0.457000	0.756400
O611	O61	0.592560	0.724300	0.444600
O621	O62	0.555980	0.534900	0.738800
O631	O63	0.520490	0.529500	0.728100
O641	O64	0.704710	0.543400	0.728700
O651	O65	0.671790	0.498300	0.754700
O661	O66	0.744240	0.498300	0.693600
O671	O67	0.702250	0.753000	0.525300
O681	O68	0.612060	0.347800	0.630200
O691	O69	0.728850	0.745900	0.425000
O701	O70	0.583980	0.609700	0.571900
O711	O71	0.678910	0.649400	0.669100
O721	O72	0.565030	0.612100	0.425700
O731	O73	0.814310	0.492700	0.781600
O741	O74	0.632660	0.745400	0.432000
O751	O75	0.563960	0.397100	0.585400
O761	O76	0.724810	0.621600	0.554300
O771	O77	0.614010	0.633300	0.297400
O781	O78	0.796470	0.383100	0.917000
O791	O79	0.747100	0.358500	0.792000
O801	O80	0.511710	0.392900	0.880500
O811	O81	0.537150	0.662400	0.646200
O821	O82	0.607940	0.342200	0.805100
O831	O83	0.655760	0.378900	0.906200
O841	O84	0.536220	0.655800	0.821600
Al131	Al13	0.792910	0.981400	0.337700
Al141	Al14	0.612180	0.234700	0.869600
Co131	Co13	0.574440	0.004790	0.145270
Co141	Co14	0.528800	0.766750	0.883110
Al151	Al15	0.721200	0.016750	0.133110
Co151	Co15	0.648600	0.983840	0.322190
Al161	Al16	0.681070	0.255960	0.101100
Co161	Co16	0.568930	0.505960	0.351100
P221	P22	0.576830	0.172000	0.992100
P231	P23	0.537510	0.094680	0.233800
P241	P24	0.684790	0.085200	0.246100
P251	P25	0.646030	0.319000	0.977100
P261	P26	0.715690	0.183480	0.982100
P271	P27	0.611860	0.905100	0.220400
P281	P28	0.757480	0.918200	0.214400
O851	O85	0.596630	0.984200	0.220300
O861	O86	0.661390	0.263900	0.029400
O871	O87	0.630400	0.952500	0.229700
O881	O88	0.776020	0.957000	0.256400
O891	O89	0.592560	0.224300	0.944600
O901	O90	0.555980	0.034900	0.238800
O911	O91	0.520490	0.029500	0.228100
O921	O92	0.704710	0.043400	0.228700
O931	O93	0.671790	0.998300	0.254700
O941	O94	0.744240	0.998300	0.193600
O951	O95	0.702250	0.253000	0.025300
O961	O96	0.612060	0.847800	0.130200
O971	O97	0.728850	0.245900	0.925000
O981	O98	0.583980	0.109700	0.071900
O991	O99	0.678910	0.149400	0.169100
O1001	O100	0.565030	0.112100	0.925700
O1011	O101	0.814310	0.992700	0.281600
O1021	O102	0.632660	0.245400	0.932000
O1031	O103	0.563960	0.897100	0.085400
O1041	O104	0.724810	0.121600	0.054300
O1051	O105	0.614010	0.133300	0.797400
O1061	O106	0.796470	0.883100	0.417000
O1071	O107	0.747100	0.858500	0.292000
O1081	O108	0.511710	0.892900	0.380500
O1091	O109	0.537150	0.162400	0.146200
O1101	O110	0.607940	0.842200	0.305100
O1111	O111	0.655760	0.878900	0.406200
O1121	O112	0.536220	0.155800	0.321600
Al171	Al17	0.707090	0.518600	0.337700
Al181	Al18	0.887820	0.265300	0.869600
Co171	Co17	0.925560	0.495210	0.145270
Co181	Co18	0.971200	0.733250	0.883110
Al191	Al19	0.778800	0.483250	0.133110
Co191	Co19	0.851400	0.516160	0.322190
Al201	Al20	0.818930	0.244040	0.101100
Co201	Co20	0.931070	0.994040	0.351100
P291	P29	0.923170	0.328000	0.992100
P301	P30	0.962490	0.405320	0.233800
P311	P31	0.815210	0.414800	0.246100
P321	P32	0.853970	0.181000	0.977100
P331	P33	0.784310	0.316520	0.982100
P341	P34	0.888140	0.594900	0.220400
P351	P35	0.742520	0.581800	0.214400
O1131	O113	0.903370	0.515800	0.220300
O1141	O114	0.838610	0.236100	0.029400
O1151	O115	0.869600	0.547500	0.229700
O1161	O116	0.723980	0.543000	0.256400
O1171	O117	0.907440	0.275700	0.944600
O1181	O118	0.944020	0.465100	0.238800
O1191	O119	0.979510	0.470500	0.228100
O1201	O120	0.795290	0.456600	0.228700
O1211	O121	0.828210	0.501700	0.254700
O1221	O122	0.755760	0.501700	0.193600
O1231	O123	0.797750	0.247000	0.025300
O1241	O124	0.887940	0.652200	0.130200
O1251	O125	0.771150	0.254100	0.925000
O1261	O126	0.916020	0.390300	0.071900
O1271	O127	0.821090	0.350600	0.169100
O1281	O128	0.934970	0.387900	0.925700
O1291	O129	0.685690	0.507300	0.281600
O1301	O130	0.867340	0.254600	0.932000
O1311	O131	0.936040	0.602900	0.085400
O1321	O132	0.775190	0.378400	0.054300
O1331	O133	0.885990	0.366700	0.797400
O1341	O134	0.703530	0.616900	0.417000
O1351	O135	0.752900	0.641500	0.292000
O1361	O136	0.988290	0.607100	0.380500
O1371	O137	0.962850	0.337600	0.146200
O1381	O138	0.892060	0.657800	0.305100
O1391	O139	0.844240	0.621100	0.406200
O1401	O140	0.963780	0.344200	0.321600
Al211	Al21	0.707090	0.018600	0.837700
Al221	Al22	0.887820	0.765300	0.369600
Co211	Co21	0.925560	0.995210	0.645270
Co221	Co22	0.971200	0.233250	0.383110
Al231	Al23	0.778800	0.983250	0.633110
Co231	Co23	0.851400	0.016160	0.822190
Al241	Al24	0.818930	0.744040	0.601100
Co241	Co24	0.931070	0.494040	0.851100
P361	P36	0.923170	0.828000	0.492100
P371	P37	0.962490	0.905320	0.733800
P381	P38	0.815210	0.914800	0.746100
P391	P39	0.853970	0.681000	0.477100
P401	P40	0.784310	0.816520	0.482100
P411	P41	0.888140	0.094900	0.720400
P421	P42	0.742520	0.081800	0.714400
O1411	O141	0.903370	0.015800	0.720300
O1421	O142	0.838610	0.736100	0.529400
O1431	O143	0.869600	0.047500	0.729700
O1441	O144	0.723980	0.043000	0.756400
O1451	O145	0.907440	0.775700	0.444600
O1461	O146	0.944020	0.965100	0.738800
O1471	O147	0.979510	0.970500	0.728100
O1481	O148	0.795290	0.956600	0.728700
O1491	O149	0.828210	0.001700	0.754700
O1501	O150	0.755760	0.001700	0.693600
O1511	O151	0.797750	0.747000	0.525300
O1521	O152	0.887940	0.152200	0.630200
O1531	O153	0.771150	0.754100	0.425000
O1541	O154	0.916020	0.890300	0.571900
O1551	O155	0.821090	0.850600	0.669100
O1561	O156	0.934970	0.887900	0.425700
O1571	O157	0.685690	0.007300	0.781600
O1581	O158	0.867340	0.754600	0.432000
O1591	O159	0.936040	0.102900	0.585400
O1601	O160	0.775190	0.878400	0.554300
O1611	O161	0.885990	0.866700	0.297400
O1621	O162	0.703530	0.116900	0.917000
O1631	O163	0.752900	0.141500	0.792000
O1641	O164	0.988290	0.107100	0.880500
O1651	O165	0.962850	0.837600	0.646200
O1661	O166	0.892060	0.157800	0.805100
O1671	O167	0.844240	0.121100	0.906200
O1681	O168	0.963780	0.844200	0.821600
Al251	Al25	0.207090	0.518600	0.837700
Al261	Al26	0.387820	0.265300	0.369600
Co251	Co25	0.425560	0.495210	0.645270
Co261	Co26	0.471200	0.733250	0.383110
Al271	Al27	0.278800	0.483250	0.633110
Co271	Co27	0.351400	0.516160	0.822190
Al281	Al28	0.318930	0.244040	0.601100
Co281	Co28	0.431070	0.994040	0.851100
P431	P43	0.423170	0.328000	0.492100
P441	P44	0.462490	0.405320	0.733800
P451	P45	0.315210	0.414800	0.746100
P461	P46	0.353970	0.181000	0.477100
P471	P47	0.284310	0.316520	0.482100
P481	P48	0.388140	0.594900	0.720400
P491	P49	0.242520	0.581800	0.714400
O1691	O169	0.403370	0.515800	0.720300
O1701	O170	0.338610	0.236100	0.529400
O1711	O171	0.369600	0.547500	0.729700
O1721	O172	0.223980	0.543000	0.756400
O1731	O173	0.407440	0.275700	0.444600
O1741	O174	0.444020	0.465100	0.738800
O1751	O175	0.479510	0.470500	0.728100
O1761	O176	0.295290	0.456600	0.728700
O1771	O177	0.328210	0.501700	0.754700
O1781	O178	0.255760	0.501700	0.693600
O1791	O179	0.297750	0.247000	0.525300
O1801	O180	0.387940	0.652200	0.630200
O1811	O181	0.271150	0.254100	0.425000
O1821	O182	0.416020	0.390300	0.571900
O1831	O183	0.321090	0.350600	0.669100
O1841	O184	0.434970	0.387900	0.425700
O1851	O185	0.185690	0.507300	0.781600
O1861	O186	0.367340	0.254600	0.432000
O1871	O187	0.436040	0.602900	0.585400
O1881	O188	0.275190	0.378400	0.554300
O1891	O189	0.385990	0.366700	0.297400
O1901	O190	0.203530	0.616900	0.917000
O1911	O191	0.252900	0.641500	0.792000
O1921	O192	0.488290	0.607100	0.880500
O1931	O193	0.462850	0.337600	0.646200
O1941	O194	0.392060	0.657800	0.805100
O1951	O195	0.344240	0.621100	0.906200
O1961	O196	0.463780	0.344200	0.821600
Al291	Al29	0.207090	0.018600	0.337700
Al301	Al30	0.387820	0.765300	0.869600
Co291	Co29	0.425560	0.995210	0.145270
Co301	Co30	0.471200	0.233250	0.883110
Al311	Al31	0.278800	0.983250	0.133110
Co311	Co31	0.351400	0.016160	0.322190
Al321	Al32	0.318930	0.744040	0.101100
Co321	Co32	0.431070	0.494040	0.351100
P501	P50	0.423170	0.828000	0.992100
P511	P51	0.462490	0.905320	0.233800
P521	P52	0.315210	0.914800	0.246100
P531	P53	0.353970	0.681000	0.977100
P541	P54	0.284310	0.816520	0.982100
P551	P55	0.388140	0.094900	0.220400
P561	P56	0.242520	0.081800	0.214400
O1971	O197	0.403370	0.015800	0.220300
O1981	O198	0.338610	0.736100	0.029400
O1991	O199	0.369600	0.047500	0.229700
O2001	O200	0.223980	0.043000	0.256400
O2011	O201	0.407440	0.775700	0.944600
O2021	O202	0.444020	0.965100	0.238800
O2031	O203	0.479510	0.970500	0.228100
O2041	O204	0.295290	0.956600	0.228700
O2051	O205	0.328210	0.001700	0.254700
O2061	O206	0.255760	0.001700	0.193600
O2071	O207	0.297750	0.747000	0.025300
O2081	O208	0.387940	0.152200	0.130200
O2091	O209	0.271150	0.754100	0.925000
O2101	O210	0.416020	0.890300	0.071900
O2111	O211	0.321090	0.850600	0.169100
O2121	O212	0.434970	0.887900	0.925700
O2131	O213	0.185690	0.007300	0.281600
O2141	O214	0.367340	0.754600	0.932000
O2151	O215	0.436040	0.102900	0.085400
O2161	O216	0.275190	0.878400	0.054300
O2171	O217	0.385990	0.866700	0.797400
O2181	O218	0.203530	0.116900	0.417000
O2191	O219	0.252900	0.141500	0.292000
O2201	O220	0.488290	0.107100	0.380500
O2211	O221	0.462850	0.837600	0.146200
O2221	O222	0.392060	0.157800	0.305100
O2231	O223	0.344240	0.121100	0.406200
O2241	O224	0.463780	0.844200	0.321600
Al331	Al33	0.542910	0.768600	0.587700
Al341	Al34	0.362180	0.515300	0.119600
Co331	Co33	0.324440	0.745210	0.395270
Co341	Co34	0.398600	0.766160	0.572190
P571	P57	0.326830	0.578000	0.242100
P581	P58	0.287510	0.655320	0.483800
P591	P59	0.434790	0.664800	0.496100
P601	P60	0.396030	0.431000	0.227100
P611	P61	0.465690	0.566520	0.232100
P621	P62	0.361860	0.844900	0.470400
P631	P63	0.507480	0.831800	0.464400
O2251	O225	0.346630	0.765800	0.470300
O2261	O226	0.411390	0.486100	0.279400
O2271	O227	0.380400	0.797500	0.479700
O2281	O228	0.526020	0.793000	0.506400
O2291	O229	0.342560	0.525700	0.194600
O2301	O230	0.305980	0.715100	0.488800
O2311	O231	0.270490	0.720500	0.478100
O2321	O232	0.454710	0.706600	0.478700
O2331	O233	0.421790	0.751700	0.504700
O2341	O234	0.494240	0.751700	0.443600
O2351	O235	0.452250	0.497000	0.275300
O2361	O236	0.362060	0.902200	0.380200
O2371	O237	0.478850	0.504100	0.175000
O2381	O238	0.333980	0.640300	0.321900
O2391	O239	0.428910	0.600600	0.419100
O2401	O240	0.315030	0.637900	0.175700
O2411	O241	0.564310	0.757300	0.531600
O2421	O242	0.382660	0.504600	0.182000
O2431	O243	0.313960	0.852900	0.335400
O2441	O244	0.474810	0.628400	0.304300
O2451	O245	0.364010	0.616700	0.047400
O2461	O246	0.546470	0.866900	0.667000
O2471	O247	0.497100	0.891500	0.542000
O2481	O248	0.261710	0.857100	0.630500
O2491	O249	0.287150	0.587600	0.396200
O2501	O250	0.357940	0.907800	0.555100
O2511	O251	0.405760	0.871100	0.656200
O2521	O252	0.286220	0.594200	0.571600
Al351	Al35	0.542910	0.268600	0.087700
Al361	Al36	0.362180	0.015300	0.619600
Co351	Co35	0.324440	0.245210	0.895270
Co361	Co36	0.398600	0.266160	0.072190
P641	P64	0.326830	0.078000	0.742100
P651	P65	0.287510	0.155320	0.983800
P661	P66	0.434790	0.164800	0.996100
P671	P67	0.396030	0.931000	0.727100
P681	P68	0.465690	0.066520	0.732100
P691	P69	0.361860	0.344900	0.970400
P701	P70	0.507480	0.331800	0.964400
O2531	O253	0.346630	0.265800	0.970300
O2541	O254	0.411390	0.986100	0.779400
O2551	O255	0.380400	0.297500	0.979700
O2561	O256	0.526020	0.293000	0.006400
O2571	O257	0.342560	0.025700	0.694600
O2581	O258	0.305980	0.215100	0.988800
O2591	O259	0.270490	0.220500	0.978100
O2601	O260	0.454710	0.206600	0.978700
O2611	O261	0.421790	0.251700	0.004700
O2621	O262	0.494240	0.251700	0.943600
O2631	O263	0.452250	0.997000	0.775300
O2641	O264	0.362060	0.402200	0.880200
O2651	O265	0.478850	0.004100	0.675000
O2661	O266	0.333980	0.140300	0.821900
O2671	O267	0.428910	0.100600	0.919100
O2681	O268	0.315030	0.137900	0.675700
O2691	O269	0.564310	0.257300	0.031600
O2701	O270	0.382660	0.004600	0.682000
O2711	O271	0.313960	0.352900	0.835400
O2721	O272	0.474810	0.128400	0.804300
O2731	O273	0.364010	0.116700	0.547400
O2741	O274	0.546470	0.366900	0.167000
O2751	O275	0.497100	0.391500	0.042000
O2761	O276	0.261710	0.357100	0.130500
O2771	O277	0.287150	0.087600	0.896200
O2781	O278	0.357940	0.407800	0.055100
O2791	O279	0.405760	0.371100	0.156200
O2801	O280	0.286220	0.094200	0.071600
Al371	Al37	0.042910	0.768600	0.087700
Al381	Al38	0.862180	0.515300	0.619600
Co371	Co37	0.824440	0.745210	0.895270
Co381	Co38	0.898600	0.766160	0.072190
P711	P71	0.826830	0.578000	0.742100
P721	P72	0.787510	0.655320	0.983800
P731	P73	0.934790	0.664800	0.996100
P741	P74	0.896030	0.431000	0.727100
P751	P75	0.965690	0.566520	0.732100
P761	P76	0.861860	0.844900	0.970400
P771	P77	0.007480	0.831800	0.964400
O2811	O281	0.846630	0.765800	0.970300
O2821	O282	0.911390	0.486100	0.779400
O2831	O283	0.880400	0.797500	0.979700
O2841	O284	0.026020	0.793000	0.006400
O2851	O285	0.842560	0.525700	0.694600
O2861	O286	0.805980	0.715100	0.988800
O2871	O287	0.770490	0.720500	0.978100
O2881	O288	0.954710	0.706600	0.978700
O2891	O289	0.921790	0.751700	0.004700
O2901	O290	0.994240	0.751700	0.943600
O2911	O291	0.952250	0.497000	0.775300
O2921	O292	0.862060	0.902200	0.880200
O2931	O293	0.978850	0.504100	0.675000
O2941	O294	0.833980	0.640300	0.821900
O2951	O295	0.928910	0.600600	0.919100
O2961	O296	0.815030	0.637900	0.675700
O2971	O297	0.064310	0.757300	0.031600
O2981	O298	0.882660	0.504600	0.682000
O2991	O299	0.813960	0.852900	0.835400
O3001	O300	0.974810	0.628400	0.804300
O3011	O301	0.864010	0.616700	0.547400
O3021	O302	0.046470	0.866900	0.167000
O3031	O303	0.997100	0.891500	0.042000
O3041	O304	0.761710	0.857100	0.130500
O3051	O305	0.787150	0.587600	0.896200
O3061	O306	0.857940	0.907800	0.055100
O3071	O307	0.905760	0.871100	0.156200
O3081	O308	0.786220	0.594200	0.071600
Al391	Al39	0.042910	0.268600	0.587700
Al401	Al40	0.862180	0.015300	0.119600
Co391	Co39	0.824440	0.245210	0.395270
Co401	Co40	0.898600	0.266160	0.572190
P781	P78	0.826830	0.078000	0.242100
P791	P79	0.787510	0.155320	0.483800
P801	P80	0.934790	0.164800	0.496100
P811	P81	0.896030	0.931000	0.227100
P821	P82	0.965690	0.066520	0.232100
P831	P83	0.861860	0.344900	0.470400
P841	P84	0.007480	0.331800	0.464400
O3091	O309	0.846630	0.265800	0.470300
O3101	O310	0.911390	0.986100	0.279400
O3111	O311	0.880400	0.297500	0.479700
O3121	O312	0.026020	0.293000	0.506400
O3131	O313	0.842560	0.025700	0.194600
O3141	O314	0.805980	0.215100	0.488800
O3151	O315	0.770490	0.220500	0.478100
O3161	O316	0.954710	0.206600	0.478700
O3171	O317	0.921790	0.251700	0.504700
O3181	O318	0.994240	0.251700	0.443600
O3191	O319	0.952250	0.997000	0.275300
O3201	O320	0.862060	0.402200	0.380200
O3211	O321	0.978850	0.004100	0.175000
O3221	O322	0.833980	0.140300	0.321900
O3231	O323	0.928910	0.100600	0.419100
O3241	O324	0.815030	0.137900	0.175700
O3251	O325	0.064310	0.257300	0.531600
O3261	O326	0.882660	0.004600	0.182000
O3271	O327	0.813960	0.352900	0.335400
O3281	O328	0.974810	0.128400	0.304300
O3291	O329	0.864010	0.116700	0.047400
O3301	O330	0.046470	0.366900	0.667000
O3311	O331	0.997100	0.391500	0.542000
O3321	O332	0.761710	0.357100	0.630500
O3331	O333	0.787150	0.087600	0.396200
O3341	O334	0.857940	0.407800	0.555100
O3351	O335	0.905760	0.371100	0.656200
O3361	O336	0.786220	0.094200	0.571600
Al411	Al41	0.957090	0.731400	0.587700
Al421	Al42	0.137820	0.984700	0.119600
Co411	Co41	0.175560	0.754790	0.395270
Co421	Co42	0.101400	0.733840	0.572190
P851	P85	0.173170	0.922000	0.242100
P861	P86	0.212490	0.844680	0.483800
P871	P87	0.065210	0.835200	0.496100
P881	P88	0.103970	0.069000	0.227100
P891	P89	0.034310	0.933480	0.232100
P901	P90	0.138140	0.655100	0.470400
P911	P91	0.992520	0.668200	0.464400
O3371	O337	0.153370	0.734200	0.470300
O3381	O338	0.088610	0.013900	0.279400
O3391	O339	0.119600	0.702500	0.479700
O3401	O340	0.973980	0.707000	0.506400
O3411	O341	0.157440	0.974300	0.194600
O3421	O342	0.194020	0.784900	0.488800
O3431	O343	0.229510	0.779500	0.478100
O3441	O344	0.045290	0.793400	0.478700
O3451	O345	0.078210	0.748300	0.504700
O3461	O346	0.005760	0.748300	0.443600
O3471	O347	0.047750	0.003000	0.275300
O3481	O348	0.137940	0.597800	0.380200
O3491	O349	0.021150	0.995900	0.175000
O3501	O350	0.166020	0.859700	0.321900
O3511	O351	0.071090	0.899400	0.419100
O3521	O352	0.184970	0.862100	0.175700
O3531	O353	0.935690	0.742700	0.531600
O3541	O354	0.117340	0.995400	0.182000
O3551	O355	0.186040	0.647100	0.335400
O3561	O356	0.025190	0.871600	0.304300
O3571	O357	0.135990	0.883300	0.047400
O3581	O358	0.953530	0.633100	0.667000
O3591	O359	0.002900	0.608500	0.542000
O3601	O360	0.238290	0.642900	0.630500
O3611	O361	0.212850	0.912400	0.396200
O3621	O362	0.142060	0.592200	0.555100
O3631	O363	0.094240	0.628900	0.656200
O3641	O364	0.213780	0.905800	0.571600
Al431	Al43	0.957090	0.231400	0.087700
Al441	Al44	0.137820	0.484700	0.619600
Co431	Co43	0.175560	0.254790	0.895270
Co441	Co44	0.101400	0.233840	0.072190
P921	P92	0.173170	0.422000	0.742100
P931	P93	0.212490	0.344680	0.983800
P941	P94	0.065210	0.335200	0.996100
P951	P95	0.103970	0.569000	0.727100
P961	P96	0.034310	0.433480	0.732100
P971	P97	0.138140	0.155100	0.970400
P981	P98	0.992520	0.168200	0.964400
O3651	O365	0.153370	0.234200	0.970300
O3661	O366	0.088610	0.513900	0.779400
O3671	O367	0.119600	0.202500	0.979700
O3681	O368	0.973980	0.207000	0.006400
O3691	O369	0.157440	0.474300	0.694600
O3701	O370	0.194020	0.284900	0.988800
O3711	O371	0.229510	0.279500	0.978100
O3721	O372	0.045290	0.293400	0.978700
O3731	O373	0.078210	0.248300	0.004700
O3741	O374	0.005760	0.248300	0.943600
O3751	O375	0.047750	0.503000	0.775300
O3761	O376	0.137940	0.097800	0.880200
O3771	O377	0.021150	0.495900	0.675000
O3781	O378	0.166020	0.359700	0.821900
O3791	O379	0.071090	0.399400	0.919100
O3801	O380	0.184970	0.362100	0.675700
O3811	O381	0.935690	0.242700	0.031600
O3821	O382	0.117340	0.495400	0.682000
O3831	O383	0.186040	0.147100	0.835400
O3841	O384	0.025190	0.371600	0.804300
O3851	O385	0.135990	0.383300	0.547400
O3861	O386	0.953530	0.133100	0.167000
O3871	O387	0.002900	0.108500	0.042000
O3881	O388	0.238290	0.142900	0.130500
O3891	O389	0.212850	0.412400	0.896200
O3901	O390	0.142060	0.092200	0.055100
O3911	O391	0.094240	0.128900	0.156200
O3921	O392	0.213780	0.405800	0.071600
Al451	Al45	0.457090	0.731400	0.087700
Al461	Al46	0.637820	0.984700	0.619600
Co451	Co45	0.675560	0.754790	0.895270
Co461	Co46	0.601400	0.733840	0.072190
P991	P99	0.673170	0.922000	0.742100
P1001	P100	0.712490	0.844680	0.983800
P1011	P101	0.565210	0.835200	0.996100
P1021	P102	0.603970	0.069000	0.727100
P1031	P103	0.534310	0.933480	0.732100
P1041	P104	0.638140	0.655100	0.970400
P1051	P105	0.492520	0.668200	0.964400
O3931	O393	0.653370	0.734200	0.970300
O3941	O394	0.588610	0.013900	0.779400
O3951	O395	0.619600	0.702500	0.979700
O3961	O396	0.473980	0.707000	0.006400
O3971	O397	0.657440	0.974300	0.694600
O3981	O398	0.694020	0.784900	0.988800
O3991	O399	0.729510	0.779500	0.978100
O4001	O400	0.545290	0.793400	0.978700
O4011	O401	0.578210	0.748300	0.004700
O4021	O402	0.505760	0.748300	0.943600
O4031	O403	0.547750	0.003000	0.775300
O4041	O404	0.637940	0.597800	0.880200
O4051	O405	0.521150	0.995900	0.675000
O4061	O406	0.666020	0.859700	0.821900
O4071	O407	0.571090	0.899400	0.919100
O4081	O408	0.684970	0.862100	0.675700
O4091	O409	0.435690	0.742700	0.031600
O4101	O410	0.617340	0.995400	0.682000
O4111	O411	0.686040	0.647100	0.835400
O4121	O412	0.525190	0.871600	0.804300
O4131	O413	0.635990	0.883300	0.547400
O4141	O414	0.453530	0.633100	0.167000
O4151	O415	0.502900	0.608500	0.042000
O4161	O416	0.738290	0.642900	0.130500
O4171	O417	0.712850	0.912400	0.896200
O4181	O418	0.642060	0.592200	0.055100
O4191	O419	0.594240	0.628900	0.156200
O4201	O420	0.713780	0.905800	0.071600
Al471	Al47	0.457090	0.231400	0.587700
Al481	Al48	0.637820	0.484700	0.119600
Co471	Co47	0.675560	0.254790	0.395270
Co481	Co48	0.601400	0.233840	0.572190
P1061	P106	0.673170	0.422000	0.242100
P1071	P107	0.712490	0.344680	0.483800
P1081	P108	0.565210	0.335200	0.496100
P1091	P109	0.603970	0.569000	0.227100
P1101	P110	0.534310	0.433480	0.232100
P1111	P111	0.638140	0.155100	0.470400
P1121	P112	0.492520	0.168200	0.464400
O4211	O421	0.653370	0.234200	0.470300
O4221	O422	0.588610	0.513900	0.279400
O4231	O423	0.619600	0.202500	0.479700
O4241	O424	0.473980	0.207000	0.506400
O4251	O425	0.657440	0.474300	0.194600
O4261	O426	0.694020	0.284900	0.488800
O4271	O427	0.729510	0.279500	0.478100
O4281	O428	0.545290	0.293400	0.478700
O4291	O429	0.578210	0.248300	0.504700
O4301	O430	0.505760	0.248300	0.443600
O4311	O431	0.547750	0.503000	0.275300
O4321	O432	0.637940	0.097800	0.380200
O4331	O433	0.521150	0.495900	0.175000
O4341	O434	0.666020	0.359700	0.321900
O4351	O435	0.571090	0.399400	0.419100
O4361	O436	0.684970	0.362100	0.175700
O4371	O437	0.435690	0.242700	0.531600
O4381	O438	0.617340	0.495400	0.182000
O4391	O439	0.686040	0.147100	0.335400
O4401	O440	0.525190	0.371600	0.304300
O4411	O441	0.635990	0.383300	0.047400
O4421	O442	0.453530	0.133100	0.667000
O4431	O443	0.502900	0.108500	0.542000
O4441	O444	0.738290	0.142900	0.630500
O4451	O445	0.712850	0.412400	0.396200
O4461	O446	0.642060	0.092200	0.555100
O4471	O447	0.594240	0.128900	0.656200
O4481	O448	0.713780	0.405800	0.571600
Co491	Co49	0.000000	0.500000	0.314040
Co501	Co50	0.000000	0.000000	0.814040
Co511	Co51	0.500000	0.500000	0.814040
Co521	Co52	0.500000	0.000000	0.314040
Co531	Co53	0.250000	0.750000	0.564040
Co541	Co54	0.250000	0.250000	0.064040
Co551	Co55	0.750000	0.750000	0.064040
Co561	Co56	0.750000	0.250000	0.564040
Al491	Al49	0.250000	0.750000	0.859100
Al501	Al50	0.250000	0.250000	0.359100
Al511	Al51	0.750000	0.250000	0.859100
Al521	Al52	0.750000	0.750000	0.359100
Al531	Al53	0.500000	0.500000	0.109100
Al541	Al54	0.500000	0.000000	0.609100
Al551	Al55	0.000000	0.000000	0.109100
Al561	Al56	0.000000	0.500000	0.609100
