data_VICSIL_clean_PM
_symmetry_space_group_name_H-M	'P1'
_cell_length_a	9.797000
_cell_length_b	14.145900
_cell_length_c	15.782000
_cell_angle_alpha	106.273000
_cell_angle_beta	100.855000
_cell_angle_gamma	105.968000
_symmetry_Int_Tables_number 1

loop_
_symmetry_equiv_pos_as_xyz
'x,y,z'

loop_
_atom_site_label
_atom_site_type_symbol
_atom_site_fract_x
_atom_site_fract_y
_atom_site_fract_z
Cu11	Cu1	0.804770	0.893830	0.927250
S11	S1	0.978120	0.482610	0.704750
O11	O1	0.943700	0.850180	0.866390
O21	O2	0.166400	0.954400	0.964570
O31	O3	0.594400	0.848640	0.927210
O41	O4	0.568100	0.705400	0.811730
O51	O5	0.871700	0.456800	0.754970
O61	O6	0.064900	0.414910	0.691970
O71	O7	0.906900	0.493100	0.618760
N11	N1	0.745500	0.013200	0.719100
N21	N2	0.663500	0.057100	0.767600
N31	N3	0.758500	0.961000	0.836200
N41	N4	0.948500	0.755300	0.107500
N51	N5	0.900600	0.821800	0.164300
N61	N6	0.862100	0.836900	0.025130
C11	C1	0.628000	0.017100	0.566700
C21	C2	0.533800	0.915000	0.514700
C31	C3	0.404400	0.896400	0.446700
C41	C4	0.770500	0.035000	0.636800
H11	H1	0.821100	0.989700	0.607900
H21	H2	0.835900	0.108000	0.655300
C51	C5	0.566200	0.822300	0.532600
H31	H3	0.672200	0.841200	0.557900
H41	H4	0.531100	0.763000	0.475200
H51	H5	0.516000	0.803500	0.576000
C61	C6	0.307300	0.784100	0.388100
H61	H6	0.357200	0.753900	0.346000
H71	H7	0.213900	0.783100	0.353200
H81	H8	0.288900	0.743300	0.427600
C71	C7	0.674100	0.023000	0.837100
H91	H9	0.627500	0.039900	0.883200
C81	C8	0.801300	0.957500	0.761200
H101	H10	0.862600	0.920900	0.740700
C91	C9	0.010500	0.592800	0.065700
C101	C10	0.135300	0.586400	0.037500
C111	C11	0.125200	0.492100	0.972200
C121	C12	0.019900	0.689000	0.142700
H111	H11	0.971600	0.666600	0.186300
H121	H12	0.124200	0.730500	0.175900
C131	C13	0.278500	0.678900	0.076300
H131	H13	0.256900	0.743500	0.089000
H141	H14	0.334900	0.675200	0.031900
H151	H15	0.335700	0.677500	0.132900
C141	C14	0.260900	0.482200	0.943500
H161	H16	0.325800	0.470500	0.991000
H171	H17	0.313100	0.546200	0.934900
H181	H18	0.230900	0.423400	0.886100
C151	C15	0.849000	0.868300	0.111100
H191	H19	0.806400	0.919200	0.131300
C161	C16	0.926100	0.765800	0.025800
H201	H20	0.951700	0.728300	0.975700
C171	C17	0.142500	0.789900	0.860400
C181	C18	0.295500	0.812800	0.879300
H211	H21	0.360600	0.880900	0.916600
C191	C19	0.351700	0.735700	0.843400
C201	C20	0.255900	0.634200	0.789700
H221	H22	0.293900	0.581800	0.765100
C211	C21	0.103900	0.610900	0.772600
C221	C22	0.047800	0.688800	0.806400
H231	H23	0.944600	0.673100	0.792500
C231	C23	0.082100	0.873800	0.901300
C241	C24	0.517500	0.764300	0.861700
Cu21	Cu2	0.195230	0.106170	0.072750
S21	S2	0.021880	0.517390	0.295250
O81	O8	0.056300	0.149820	0.133610
O91	O9	0.833600	0.045600	0.035430
O101	O10	0.405600	0.151360	0.072790
O111	O11	0.431900	0.294600	0.188270
O121	O12	0.128300	0.543200	0.245030
O131	O13	0.935100	0.585090	0.308030
O141	O14	0.093100	0.506900	0.381240
N71	N7	0.254500	0.986800	0.280900
N81	N8	0.336500	0.942900	0.232400
N91	N9	0.241500	0.039000	0.163800
N101	N10	0.051500	0.244700	0.892500
N111	N11	0.099400	0.178200	0.835700
N121	N12	0.137900	0.163100	0.974870
C251	C25	0.372000	0.982900	0.433300
C261	C26	0.466200	0.085000	0.485300
C271	C27	0.595600	0.103600	0.553300
C281	C28	0.229500	0.965000	0.363200
H241	H24	0.178900	0.010300	0.392100
H251	H25	0.164100	0.892000	0.344700
C291	C29	0.433800	0.177700	0.467400
H261	H26	0.327800	0.158800	0.442100
H271	H27	0.468900	0.237000	0.524800
H281	H28	0.484000	0.196500	0.424000
C301	C30	0.692700	0.215900	0.611900
H291	H29	0.642800	0.246100	0.654000
H301	H30	0.786100	0.216900	0.646800
H311	H31	0.711100	0.256700	0.572400
C311	C31	0.325900	0.977000	0.162900
H321	H32	0.372500	0.960100	0.116800
C321	C32	0.198700	0.042500	0.238800
H331	H33	0.137400	0.079100	0.259300
C331	C33	0.989500	0.407200	0.934300
C341	C34	0.864700	0.413600	0.962500
C351	C35	0.874800	0.507900	0.027800
C361	C36	0.980100	0.311000	0.857300
H341	H34	0.028400	0.333400	0.813700
H351	H35	0.875800	0.269500	0.824100
C371	C37	0.721500	0.321100	0.923700
H361	H36	0.743100	0.256500	0.911000
H371	H37	0.665100	0.324800	0.968100
H381	H38	0.664300	0.322500	0.867100
C381	C38	0.739100	0.517800	0.056500
H391	H39	0.674200	0.529500	0.009000
H401	H40	0.686900	0.453800	0.065100
H411	H41	0.769100	0.576600	0.113900
C391	C39	0.151000	0.131700	0.888900
H421	H42	0.193600	0.080800	0.868700
C401	C40	0.073900	0.234200	0.974200
H431	H43	0.048300	0.271700	0.024300
C411	C41	0.857500	0.210100	0.139600
C421	C42	0.704500	0.187200	0.120700
H441	H44	0.639400	0.119100	0.083400
C431	C43	0.648300	0.264300	0.156600
C441	C44	0.744100	0.365800	0.210300
H451	H45	0.706100	0.418200	0.234900
C451	C45	0.896100	0.389100	0.227400
C461	C46	0.952200	0.311200	0.193600
H461	H46	0.055400	0.326900	0.207500
C471	C47	0.917900	0.126200	0.098700
C481	C48	0.482500	0.235700	0.138300
