data_VICYOX_clean_PM
_symmetry_space_group_name_H-M	'P1'
_cell_length_a	9.559300
_cell_length_b	10.213100
_cell_length_c	11.942400
_cell_angle_alpha	110.091000
_cell_angle_beta	99.943000
_cell_angle_gamma	95.800000
_symmetry_Int_Tables_number 1

loop_
_symmetry_equiv_pos_as_xyz
'x,y,z'

loop_
_atom_site_label
_atom_site_type_symbol
_atom_site_fract_x
_atom_site_fract_y
_atom_site_fract_z
Zn11	Zn1	0.034140	0.297280	0.732490
C11	C1	0.763800	0.174000	0.565000
C21	C2	0.606800	0.169400	0.518800
C31	C3	0.516900	0.221000	0.597600
H11	H1	0.555500	0.264500	0.681200
C41	C4	0.371500	0.208600	0.553200
C51	C5	0.315400	0.148700	0.427800
H21	H2	0.218400	0.144300	0.396000
C61	C6	0.405500	0.096100	0.351500
C71	C7	0.549100	0.102300	0.393900
H31	H3	0.606900	0.062600	0.340500
C81	C8	0.274300	0.255400	0.640500
C91	C9	0.204800	0.933800	0.035200
C101	C10	0.173000	0.788800	0.981100
H41	H4	0.194500	0.732600	0.026500
C111	C11	0.109100	0.728500	0.859100
C121	C12	0.077000	0.814600	0.793400
H51	H5	0.037500	0.773700	0.709800
C131	C13	0.102900	0.960000	0.850700
C141	C14	0.166500	0.020500	0.972600
H61	H6	0.183500	0.118300	0.012600
C151	C15	0.076100	0.568300	0.794000
C161	C16	0.057300	0.049400	0.777500
O11	O1	0.825800	0.093900	0.493000
O21	O2	0.823100	0.259400	0.672000
O31	O3	0.136600	0.215700	0.598200
O41	O4	0.326700	0.329300	0.748700
O51	O5	0.081200	0.495000	0.857900
O61	O6	0.042500	0.516600	0.679100
O71	O7	0.003300	0.988800	0.667800
O81	O8	0.079000	0.182500	0.835400
N11	N1	0.357900	0.003000	0.217000
N21	N2	0.244300	0.027200	0.177400
O91	O9	0.426100	0.907800	0.167000
Zn21	Zn2	0.965860	0.702720	0.267510
C171	C17	0.236200	0.826000	0.435000
C181	C18	0.393200	0.830600	0.481200
C191	C19	0.483100	0.779000	0.402400
H71	H7	0.444500	0.735500	0.318800
C201	C20	0.628500	0.791400	0.446800
C211	C21	0.684600	0.851300	0.572200
H81	H8	0.781600	0.855700	0.604000
C221	C22	0.594500	0.903900	0.648500
C231	C23	0.450900	0.897700	0.606100
H91	H9	0.393100	0.937400	0.659500
C241	C24	0.725700	0.744600	0.359500
C251	C25	0.795200	0.066200	0.964800
C261	C26	0.827000	0.211200	0.018900
H101	H10	0.805500	0.267400	0.973500
C271	C27	0.890900	0.271500	0.140900
C281	C28	0.923000	0.185400	0.206600
H111	H11	0.962500	0.226300	0.290200
C291	C29	0.897100	0.040000	0.149300
C301	C30	0.833500	0.979500	0.027400
H121	H12	0.816500	0.881700	0.987400
C311	C31	0.923900	0.431700	0.206000
C321	C32	0.942700	0.950600	0.222500
O101	O10	0.174200	0.906100	0.507000
O111	O11	0.176900	0.740600	0.328000
O121	O12	0.863400	0.784300	0.401800
O131	O13	0.673300	0.670700	0.251300
O141	O14	0.918800	0.505000	0.142100
O151	O15	0.957500	0.483400	0.320900
O161	O16	0.996700	0.011200	0.332200
O171	O17	0.921000	0.817500	0.164600
N31	N3	0.642100	0.997000	0.783000
N41	N4	0.755700	0.972800	0.822600
O181	O18	0.573900	0.092200	0.833000
Zn31	Zn3	0.000000	0.000000	0.500000
