data_VICYUD_clean_PM
_symmetry_space_group_name_H-M	'P1'
_cell_length_a	12.997000
_cell_length_b	13.835900
_cell_length_c	21.924200
_cell_angle_alpha	94.925800
_cell_angle_beta	90.000000
_cell_angle_gamma	90.000000
_symmetry_Int_Tables_number 1

loop_
_symmetry_equiv_pos_as_xyz
'x,y,z'

loop_
_atom_site_label
_atom_site_type_symbol
_atom_site_fract_x
_atom_site_fract_y
_atom_site_fract_z
Zn11	Zn1	0.276670	0.426790	0.161270
Zn21	Zn2	0.606400	0.005220	0.228250
Zn31	Zn3	0.776670	0.073210	0.338730
Zn41	Zn4	0.106400	0.494780	0.271750
Zn51	Zn5	0.723330	0.573210	0.838730
Zn61	Zn6	0.393600	0.994780	0.771750
Zn71	Zn7	0.223330	0.926790	0.661270
Zn81	Zn8	0.893600	0.505220	0.728250
H11	H1	0.340800	0.771700	0.250500
H21	H2	0.363700	0.894300	0.095300
H31	H3	0.161400	0.666400	0.113700
H41	H4	0.999400	0.685200	0.945200
H51	H5	0.071800	0.767400	0.778000
H61	H6	0.244200	0.859600	0.921700
H71	H7	0.176900	0.427000	0.028800
H81	H8	0.199300	0.501100	0.942800
H91	H9	0.327300	0.581400	0.924800
H101	H10	0.504000	0.686300	0.983700
H111	H11	0.595500	0.715700	0.068100
H121	H12	0.625800	0.699800	0.175600
H131	H13	0.580300	0.629300	0.262200
H141	H14	0.449500	0.509600	0.257400
H151	H15	0.840800	0.728300	0.249500
H161	H16	0.863700	0.605700	0.404700
H171	H17	0.661400	0.833600	0.386300
H181	H18	0.499400	0.814800	0.554800
H191	H19	0.571800	0.732600	0.722000
H201	H20	0.744200	0.640400	0.578300
H211	H21	0.676900	0.073000	0.471200
H221	H22	0.699300	0.998900	0.557200
H231	H23	0.827300	0.918600	0.575200
H241	H24	0.004000	0.813700	0.516300
H251	H25	0.095500	0.784300	0.431900
H261	H26	0.125800	0.800200	0.324400
H271	H27	0.080300	0.870700	0.237800
H281	H28	0.949500	0.990400	0.242600
H291	H29	0.659200	0.228300	0.749500
H301	H30	0.636300	0.105700	0.904700
H311	H31	0.838600	0.333600	0.886300
H321	H32	0.000600	0.314800	0.054800
H331	H33	0.928200	0.232600	0.222000
H341	H34	0.755800	0.140400	0.078300
H351	H35	0.823100	0.573000	0.971200
H361	H36	0.800700	0.498900	0.057200
H371	H37	0.672700	0.418600	0.075200
H381	H38	0.496000	0.313700	0.016300
H391	H39	0.404500	0.284300	0.931900
H401	H40	0.374200	0.300200	0.824400
H411	H41	0.419700	0.370700	0.737800
H421	H42	0.550500	0.490400	0.742600
H431	H43	0.159200	0.271700	0.750500
H441	H44	0.136300	0.394300	0.595300
H451	H45	0.338600	0.166400	0.613700
H461	H46	0.500600	0.185200	0.445200
H471	H47	0.428200	0.267400	0.278000
H481	H48	0.255800	0.359600	0.421700
H491	H49	0.323100	0.927000	0.528800
H501	H50	0.300700	0.001100	0.442800
H511	H51	0.172700	0.081400	0.424800
H521	H52	0.996000	0.186300	0.483700
H531	H53	0.904500	0.215700	0.568100
H541	H54	0.874200	0.199800	0.675600
H551	H55	0.919700	0.129300	0.762200
H561	H56	0.050500	0.009600	0.757400
C11	C1	0.215500	0.632900	0.225100
C21	C2	0.246700	0.704400	0.187600
C31	C3	0.320100	0.773400	0.210000
C41	C4	0.363500	0.842600	0.177600
C51	C5	0.332400	0.849900	0.118900
C61	C6	0.250600	0.788700	0.093700
C71	C7	0.210400	0.710300	0.130200
C81	C8	0.127400	0.766400	0.942900
C91	C9	0.042200	0.717200	0.919500
C101	C10	0.020500	0.715600	0.857900
C111	C11	0.084500	0.769900	0.819800
C121	C12	0.165100	0.826400	0.844700
C131	C13	0.188700	0.824100	0.905000
C141	C14	0.447700	0.901200	0.200200
C151	C15	0.228000	0.882500	0.802300
C161	C16	0.938300	0.654500	0.831000
C171	C17	0.232100	0.469600	0.027200
C181	C18	0.248300	0.512000	0.973500
C191	C19	0.317600	0.560000	0.963500
C201	C20	0.388500	0.585800	0.012300
C211	C21	0.485000	0.655400	0.018000
C221	C22	0.540600	0.672300	0.068300
C231	C23	0.519800	0.628600	0.121100
C241	C24	0.572800	0.654700	0.174700
C251	C25	0.546300	0.612400	0.225400
C261	C26	0.463900	0.541000	0.222500
C271	C27	0.432000	0.563100	0.122000
C281	C28	0.369400	0.542500	0.069100
C291	C29	0.715500	0.867100	0.274900
C301	C30	0.746700	0.795600	0.312400
C311	C31	0.820100	0.726600	0.290000
C321	C32	0.863500	0.657400	0.322400
C331	C33	0.832400	0.650100	0.381100
C341	C34	0.750600	0.711300	0.406300
C351	C35	0.710400	0.789700	0.369800
C361	C36	0.627400	0.733600	0.557100
C371	C37	0.542200	0.782800	0.580500
C381	C38	0.520500	0.784400	0.642100
C391	C39	0.584500	0.730100	0.680200
C401	C40	0.665100	0.673600	0.655300
C411	C41	0.688700	0.675900	0.595000
C421	C42	0.947700	0.598800	0.299800
C431	C43	0.728000	0.617500	0.697700
C441	C44	0.438300	0.845500	0.669000
C451	C45	0.732100	0.030400	0.472800
C461	C46	0.748300	0.988000	0.526500
C471	C47	0.817600	0.940000	0.536500
C481	C48	0.888500	0.914200	0.487700
C491	C49	0.985000	0.844600	0.482000
C501	C50	0.040600	0.827700	0.431700
C511	C51	0.019800	0.871400	0.378900
C521	C52	0.072800	0.845300	0.325300
C531	C53	0.046300	0.887600	0.274600
C541	C54	0.963900	0.959000	0.277500
C551	C55	0.932000	0.936900	0.378000
C561	C56	0.869400	0.957500	0.430900
C571	C57	0.784500	0.367100	0.774900
C581	C58	0.753300	0.295600	0.812400
C591	C59	0.679900	0.226600	0.790000
C601	C60	0.636500	0.157400	0.822400
C611	C61	0.667600	0.150100	0.881100
C621	C62	0.749400	0.211300	0.906300
C631	C63	0.789600	0.289700	0.869800
C641	C64	0.872600	0.233600	0.057100
C651	C65	0.957800	0.282800	0.080500
C661	C66	0.979500	0.284400	0.142100
C671	C67	0.915500	0.230100	0.180200
C681	C68	0.834900	0.173600	0.155300
C691	C69	0.811300	0.175900	0.095000
C701	C70	0.552300	0.098800	0.799800
C711	C71	0.772000	0.117500	0.197700
C721	C72	0.061700	0.345500	0.169000
C731	C73	0.767900	0.530400	0.972800
C741	C74	0.751700	0.488000	0.026500
C751	C75	0.682400	0.440000	0.036500
C761	C76	0.611500	0.414200	0.987700
C771	C77	0.515000	0.344600	0.982000
C781	C78	0.459400	0.327700	0.931700
C791	C79	0.480200	0.371400	0.878900
C801	C80	0.427200	0.345300	0.825300
C811	C81	0.453700	0.387600	0.774600
C821	C82	0.536100	0.459000	0.777500
C831	C83	0.568000	0.436900	0.878000
C841	C84	0.630600	0.457500	0.930900
C851	C85	0.284500	0.132900	0.725100
C861	C86	0.253300	0.204400	0.687600
C871	C87	0.179900	0.273400	0.710000
C881	C88	0.136500	0.342600	0.677600
C891	C89	0.167600	0.349900	0.618900
C901	C90	0.249400	0.288700	0.593700
C911	C91	0.289600	0.210300	0.630200
C921	C92	0.372600	0.266400	0.442900
C931	C93	0.457800	0.217200	0.419500
C941	C94	0.479500	0.215600	0.357900
C951	C95	0.415500	0.269900	0.319800
C961	C96	0.334900	0.326400	0.344700
C971	C97	0.311300	0.324100	0.405000
C981	C98	0.052300	0.401200	0.700200
C991	C99	0.272000	0.382500	0.302300
C1001	C100	0.561700	0.154500	0.331000
C1011	C101	0.267900	0.969600	0.527200
C1021	C102	0.251700	0.012000	0.473500
C1031	C103	0.182400	0.060000	0.463500
C1041	C104	0.111500	0.085800	0.512300
C1051	C105	0.015000	0.155400	0.518000
C1061	C106	0.959400	0.172300	0.568300
C1071	C107	0.980200	0.128600	0.621100
C1081	C108	0.927200	0.154700	0.674700
C1091	C109	0.953700	0.112400	0.725400
C1101	C110	0.036100	0.041000	0.722500
C1111	C111	0.068000	0.063100	0.622000
C1121	C112	0.130600	0.042500	0.569100
N11	N1	0.287600	0.484800	0.074200
N21	N2	0.409300	0.519000	0.173300
N31	N3	0.226200	0.802400	0.029600
N41	N4	0.153500	0.759900	0.008600
N51	N5	0.787600	0.015200	0.425800
N61	N6	0.909300	0.981000	0.326700
N71	N7	0.726200	0.697600	0.470400
N81	N8	0.653500	0.740100	0.491400
N91	N9	0.712400	0.515200	0.925800
N101	N10	0.590700	0.481000	0.826700
N111	N11	0.773800	0.197600	0.970400
N121	N12	0.846500	0.240100	0.991400
N131	N13	0.212400	0.984800	0.574200
N141	N14	0.090700	0.019000	0.673300
N151	N15	0.273800	0.302400	0.529600
N161	N16	0.346500	0.259900	0.508600
O11	O1	0.180600	0.553500	0.200100
O21	O2	0.209300	0.645500	0.280300
O31	O3	0.470800	0.896200	0.256900
O41	O4	0.491300	0.952400	0.171900
O51	O5	0.302400	0.930100	0.827200
O61	O6	0.201500	0.881700	0.748600
O71	O7	0.862000	0.638700	0.861800
O81	O8	0.952000	0.622200	0.775800
O91	O9	0.072600	0.710900	0.035800
O101	O10	0.680600	0.946500	0.299900
O111	O11	0.709300	0.854500	0.219700
O121	O12	0.970800	0.603800	0.243100
O131	O13	0.991300	0.547600	0.328100
O141	O14	0.802400	0.569900	0.672800
O151	O15	0.701500	0.618300	0.751400
O161	O16	0.362000	0.861300	0.638200
O171	O17	0.452000	0.877800	0.724200
O181	O18	0.572600	0.789100	0.464200
O191	O19	0.819400	0.446500	0.799900
O201	O20	0.790700	0.354500	0.719700
O211	O21	0.529200	0.103800	0.743100
O221	O22	0.508700	0.047600	0.828100
O231	O23	0.697600	0.069900	0.172800
O241	O24	0.798500	0.118300	0.251400
O251	O25	0.138000	0.361300	0.138200
O261	O26	0.048000	0.377800	0.224200
O271	O27	0.927400	0.289100	0.964200
O281	O28	0.319400	0.053500	0.700100
O291	O29	0.290700	0.145500	0.780300
O301	O30	0.029200	0.396200	0.756900
O311	O31	0.008700	0.452400	0.671900
O321	O32	0.197600	0.430100	0.327200
O331	O33	0.298500	0.381700	0.248600
O341	O34	0.638000	0.138700	0.361800
O351	O35	0.548000	0.122200	0.275800
O361	O36	0.427400	0.210900	0.535800
