data_VINHOR_clean_PM
_symmetry_space_group_name_H-M	'P1'
_cell_length_a	17.970200
_cell_length_b	25.078000
_cell_length_c	27.036300
_cell_angle_alpha	90.000000
_cell_angle_beta	90.000000
_cell_angle_gamma	90.000000
_symmetry_Int_Tables_number 1

loop_
_symmetry_equiv_pos_as_xyz
'x,y,z'

loop_
_atom_site_label
_atom_site_type_symbol
_atom_site_fract_x
_atom_site_fract_y
_atom_site_fract_z
C11	C1	0.011500	0.246800	0.552500
C21	C2	0.045600	0.190900	0.546100
C31	C3	0.161000	0.368200	0.621200
C41	C4	0.138100	0.329100	0.662900
C51	C5	0.816900	0.207100	0.463000
C61	C6	0.765700	0.214900	0.506900
O11	O1	0.053600	0.283600	0.563010
O21	O2	0.114300	0.186100	0.550800
O31	O3	0.941500	0.248600	0.548510
O41	O4	0.001400	0.153980	0.535670
O51	O5	0.178600	0.351180	0.580770
O61	O6	0.139900	0.281800	0.653860
O71	O7	0.159300	0.417800	0.634060
O81	O8	0.118400	0.351010	0.703170
O91	O9	0.796200	0.221600	0.421830
O101	O10	0.702600	0.231600	0.499690
O111	O11	0.880100	0.185500	0.472460
O121	O12	0.793300	0.202400	0.548980
Cr11	Cr1	0.897080	0.176880	0.544150
Mn11	Mn1	0.173930	0.258310	0.579540
C71	C7	0.011500	0.746800	0.052500
C81	C8	0.045600	0.690900	0.046100
C91	C9	0.161000	0.868200	0.121200
C101	C10	0.138100	0.829100	0.162900
C111	C11	0.816900	0.707100	0.963000
C121	C12	0.765700	0.714900	0.006900
O131	O13	0.053600	0.783600	0.063010
O141	O14	0.114300	0.686100	0.050800
O151	O15	0.941500	0.748600	0.048510
O161	O16	0.001400	0.653980	0.035670
O171	O17	0.178600	0.851180	0.080770
O181	O18	0.139900	0.781800	0.153860
O191	O19	0.159300	0.917800	0.134060
O201	O20	0.118400	0.851010	0.203170
O211	O21	0.796200	0.721600	0.921830
O221	O22	0.702600	0.731600	0.999690
O231	O23	0.880100	0.685500	0.972460
O241	O24	0.793300	0.702400	0.048980
Cr21	Cr2	0.897080	0.676880	0.044150
Mn21	Mn2	0.173930	0.758310	0.079540
C131	C13	0.511500	0.246800	0.052500
C141	C14	0.545600	0.190900	0.046100
C151	C15	0.661000	0.368200	0.121200
C161	C16	0.638100	0.329100	0.162900
C171	C17	0.316900	0.207100	0.963000
C181	C18	0.265700	0.214900	0.006900
O251	O25	0.553600	0.283600	0.063010
O261	O26	0.614300	0.186100	0.050800
O271	O27	0.441500	0.248600	0.048510
O281	O28	0.501400	0.153980	0.035670
O291	O29	0.678600	0.351180	0.080770
O301	O30	0.639900	0.281800	0.153860
O311	O31	0.659300	0.417800	0.134060
O321	O32	0.618400	0.351010	0.203170
O331	O33	0.296200	0.221600	0.921830
O341	O34	0.202600	0.231600	0.999690
O351	O35	0.380100	0.185500	0.972460
O361	O36	0.293300	0.202400	0.048980
Cr31	Cr3	0.397080	0.176880	0.044150
Mn31	Mn3	0.673930	0.258310	0.079540
C191	C19	0.511500	0.746800	0.552500
C201	C20	0.545600	0.690900	0.546100
C211	C21	0.661000	0.868200	0.621200
C221	C22	0.638100	0.829100	0.662900
C231	C23	0.316900	0.707100	0.463000
C241	C24	0.265700	0.714900	0.506900
O371	O37	0.553600	0.783600	0.563010
O381	O38	0.614300	0.686100	0.550800
O391	O39	0.441500	0.748600	0.548510
O401	O40	0.501400	0.653980	0.535670
O411	O41	0.678600	0.851180	0.580770
O421	O42	0.639900	0.781800	0.653860
O431	O43	0.659300	0.917800	0.634060
O441	O44	0.618400	0.851010	0.703170
O451	O45	0.296200	0.721600	0.421830
O461	O46	0.202600	0.731600	0.499690
O471	O47	0.380100	0.685500	0.472460
O481	O48	0.293300	0.702400	0.548980
Cr41	Cr4	0.397080	0.676880	0.544150
Mn41	Mn4	0.673930	0.758310	0.579540
C251	C25	0.011500	0.753200	0.447500
C261	C26	0.045600	0.809100	0.453900
C271	C27	0.161000	0.631800	0.378800
C281	C28	0.138100	0.670900	0.337100
C291	C29	0.816900	0.792900	0.537000
C301	C30	0.765700	0.785100	0.493100
O491	O49	0.053600	0.716400	0.436990
O501	O50	0.114300	0.813900	0.449200
O511	O51	0.941500	0.751400	0.451490
O521	O52	0.001400	0.846020	0.464330
O531	O53	0.178600	0.648820	0.419230
O541	O54	0.139900	0.718200	0.346140
O551	O55	0.159300	0.582200	0.365940
O561	O56	0.118400	0.648990	0.296830
O571	O57	0.796200	0.778400	0.578170
O581	O58	0.702600	0.768400	0.500310
O591	O59	0.880100	0.814500	0.527540
O601	O60	0.793300	0.797600	0.451020
Cr51	Cr5	0.897080	0.823120	0.455850
Mn51	Mn5	0.173930	0.741690	0.420460
C311	C31	0.011500	0.253200	0.947500
C321	C32	0.045600	0.309100	0.953900
C331	C33	0.161000	0.131800	0.878800
C341	C34	0.138100	0.170900	0.837100
C351	C35	0.816900	0.292900	0.037000
C361	C36	0.765700	0.285100	0.993100
O611	O61	0.053600	0.216400	0.936990
O621	O62	0.114300	0.313900	0.949200
O631	O63	0.941500	0.251400	0.951490
O641	O64	0.001400	0.346020	0.964330
O651	O65	0.178600	0.148820	0.919230
O661	O66	0.139900	0.218200	0.846140
O671	O67	0.159300	0.082200	0.865940
O681	O68	0.118400	0.148990	0.796830
O691	O69	0.796200	0.278400	0.078170
O701	O70	0.702600	0.268400	0.000310
O711	O71	0.880100	0.314500	0.027540
O721	O72	0.793300	0.297600	0.951020
Cr61	Cr6	0.897080	0.323120	0.955850
Mn61	Mn6	0.173930	0.241690	0.920460
C371	C37	0.511500	0.753200	0.947500
C381	C38	0.545600	0.809100	0.953900
C391	C39	0.661000	0.631800	0.878800
C401	C40	0.638100	0.670900	0.837100
C411	C41	0.316900	0.792900	0.037000
C421	C42	0.265700	0.785100	0.993100
O731	O73	0.553600	0.716400	0.936990
O741	O74	0.614300	0.813900	0.949200
O751	O75	0.441500	0.751400	0.951490
O761	O76	0.501400	0.846020	0.964330
O771	O77	0.678600	0.648820	0.919230
O781	O78	0.639900	0.718200	0.846140
O791	O79	0.659300	0.582200	0.865940
O801	O80	0.618400	0.648990	0.796830
O811	O81	0.296200	0.778400	0.078170
O821	O82	0.202600	0.768400	0.000310
O831	O83	0.380100	0.814500	0.027540
O841	O84	0.293300	0.797600	0.951020
Cr71	Cr7	0.397080	0.823120	0.955850
Mn71	Mn7	0.673930	0.741690	0.920460
C431	C43	0.511500	0.253200	0.447500
C441	C44	0.545600	0.309100	0.453900
C451	C45	0.661000	0.131800	0.378800
C461	C46	0.638100	0.170900	0.337100
C471	C47	0.316900	0.292900	0.537000
C481	C48	0.265700	0.285100	0.493100
O851	O85	0.553600	0.216400	0.436990
O861	O86	0.614300	0.313900	0.449200
O871	O87	0.441500	0.251400	0.451490
O881	O88	0.501400	0.346020	0.464330
O891	O89	0.678600	0.148820	0.419230
O901	O90	0.639900	0.218200	0.346140
O911	O91	0.659300	0.082200	0.365940
O921	O92	0.618400	0.148990	0.296830
O931	O93	0.296200	0.278400	0.578170
O941	O94	0.202600	0.268400	0.500310
O951	O95	0.380100	0.314500	0.527540
O961	O96	0.293300	0.297600	0.451020
Cr81	Cr8	0.397080	0.323120	0.455850
Mn81	Mn8	0.673930	0.241690	0.420460
C491	C49	0.761500	0.996800	0.697500
C501	C50	0.795600	0.940900	0.703900
C511	C51	0.911000	0.118200	0.628800
C521	C52	0.888100	0.079100	0.587100
C531	C53	0.566900	0.957100	0.787000
C541	C54	0.515700	0.964900	0.743100
O971	O97	0.803600	0.033600	0.686990
O981	O98	0.864300	0.936100	0.699200
O991	O99	0.691500	0.998600	0.701490
O1001	O100	0.751400	0.903980	0.714330
O1011	O101	0.928600	0.101180	0.669230
O1021	O102	0.889900	0.031800	0.596140
O1031	O103	0.909300	0.167800	0.615940
O1041	O104	0.868400	0.101010	0.546830
O1051	O105	0.546200	0.971600	0.828170
O1061	O106	0.452600	0.981600	0.750310
O1071	O107	0.630100	0.935500	0.777540
O1081	O108	0.543300	0.952400	0.701020
Cr91	Cr9	0.647080	0.926880	0.705850
Mn91	Mn9	0.923930	0.008310	0.670460
C551	C55	0.761500	0.496800	0.197500
C561	C56	0.795600	0.440900	0.203900
C571	C57	0.911000	0.618200	0.128800
C581	C58	0.888100	0.579100	0.087100
C591	C59	0.566900	0.457100	0.287000
C601	C60	0.515700	0.464900	0.243100
O1091	O109	0.803600	0.533600	0.186990
O1101	O110	0.864300	0.436100	0.199200
O1111	O111	0.691500	0.498600	0.201490
O1121	O112	0.751400	0.403980	0.214330
O1131	O113	0.928600	0.601180	0.169230
O1141	O114	0.889900	0.531800	0.096140
O1151	O115	0.909300	0.667800	0.115940
O1161	O116	0.868400	0.601010	0.046830
O1171	O117	0.546200	0.471600	0.328170
O1181	O118	0.452600	0.481600	0.250310
O1191	O119	0.630100	0.435500	0.277540
O1201	O120	0.543300	0.452400	0.201020
Cr101	Cr10	0.647080	0.426880	0.205850
Mn101	Mn10	0.923930	0.508310	0.170460
C611	C61	0.261500	0.996800	0.197500
C621	C62	0.295600	0.940900	0.203900
C631	C63	0.411000	0.118200	0.128800
C641	C64	0.388100	0.079100	0.087100
C651	C65	0.066900	0.957100	0.287000
C661	C66	0.015700	0.964900	0.243100
O1211	O121	0.303600	0.033600	0.186990
O1221	O122	0.364300	0.936100	0.199200
O1231	O123	0.191500	0.998600	0.201490
O1241	O124	0.251400	0.903980	0.214330
O1251	O125	0.428600	0.101180	0.169230
O1261	O126	0.389900	0.031800	0.096140
O1271	O127	0.409300	0.167800	0.115940
O1281	O128	0.368400	0.101010	0.046830
O1291	O129	0.046200	0.971600	0.328170
O1301	O130	0.952600	0.981600	0.250310
O1311	O131	0.130100	0.935500	0.277540
O1321	O132	0.043300	0.952400	0.201020
Cr111	Cr11	0.147080	0.926880	0.205850
Mn111	Mn11	0.423930	0.008310	0.170460
C671	C67	0.261500	0.496800	0.697500
C681	C68	0.295600	0.440900	0.703900
C691	C69	0.411000	0.618200	0.628800
C701	C70	0.388100	0.579100	0.587100
C711	C71	0.066900	0.457100	0.787000
C721	C72	0.015700	0.464900	0.743100
O1331	O133	0.303600	0.533600	0.686990
O1341	O134	0.364300	0.436100	0.699200
O1351	O135	0.191500	0.498600	0.701490
O1361	O136	0.251400	0.403980	0.714330
O1371	O137	0.428600	0.601180	0.669230
O1381	O138	0.389900	0.531800	0.596140
O1391	O139	0.409300	0.667800	0.615940
O1401	O140	0.368400	0.601010	0.546830
O1411	O141	0.046200	0.471600	0.828170
O1421	O142	0.952600	0.481600	0.750310
O1431	O143	0.130100	0.435500	0.777540
O1441	O144	0.043300	0.452400	0.701020
Cr121	Cr12	0.147080	0.426880	0.705850
Mn121	Mn12	0.423930	0.508310	0.670460
C731	C73	0.761500	0.503200	0.802500
C741	C74	0.795600	0.559100	0.796100
C751	C75	0.911000	0.381800	0.871200
C761	C76	0.888100	0.420900	0.912900
C771	C77	0.566900	0.542900	0.713000
C781	C78	0.515700	0.535100	0.756900
O1451	O145	0.803600	0.466400	0.813010
O1461	O146	0.864300	0.563900	0.800800
O1471	O147	0.691500	0.501400	0.798510
O1481	O148	0.751400	0.596020	0.785670
O1491	O149	0.928600	0.398820	0.830770
O1501	O150	0.889900	0.468200	0.903860
O1511	O151	0.909300	0.332200	0.884060
O1521	O152	0.868400	0.398990	0.953170
O1531	O153	0.546200	0.528400	0.671830
O1541	O154	0.452600	0.518400	0.749690
O1551	O155	0.630100	0.564500	0.722460
O1561	O156	0.543300	0.547600	0.798980
Cr131	Cr13	0.647080	0.573120	0.794150
Mn131	Mn13	0.923930	0.491690	0.829540
C791	C79	0.761500	0.003200	0.302500
C801	C80	0.795600	0.059100	0.296100
C811	C81	0.911000	0.881800	0.371200
C821	C82	0.888100	0.920900	0.412900
C831	C83	0.566900	0.042900	0.213000
C841	C84	0.515700	0.035100	0.256900
O1571	O157	0.803600	0.966400	0.313010
O1581	O158	0.864300	0.063900	0.300800
O1591	O159	0.691500	0.001400	0.298510
O1601	O160	0.751400	0.096020	0.285670
O1611	O161	0.928600	0.898820	0.330770
O1621	O162	0.889900	0.968200	0.403860
O1631	O163	0.909300	0.832200	0.384060
O1641	O164	0.868400	0.898990	0.453170
O1651	O165	0.546200	0.028400	0.171830
O1661	O166	0.452600	0.018400	0.249690
O1671	O167	0.630100	0.064500	0.222460
O1681	O168	0.543300	0.047600	0.298980
Cr141	Cr14	0.647080	0.073120	0.294150
Mn141	Mn14	0.923930	0.991690	0.329540
C851	C85	0.261500	0.503200	0.302500
C861	C86	0.295600	0.559100	0.296100
C871	C87	0.411000	0.381800	0.371200
C881	C88	0.388100	0.420900	0.412900
C891	C89	0.066900	0.542900	0.213000
C901	C90	0.015700	0.535100	0.256900
O1691	O169	0.303600	0.466400	0.313010
O1701	O170	0.364300	0.563900	0.300800
O1711	O171	0.191500	0.501400	0.298510
O1721	O172	0.251400	0.596020	0.285670
O1731	O173	0.428600	0.398820	0.330770
O1741	O174	0.389900	0.468200	0.403860
O1751	O175	0.409300	0.332200	0.384060
O1761	O176	0.368400	0.398990	0.453170
O1771	O177	0.046200	0.528400	0.171830
O1781	O178	0.952600	0.518400	0.249690
O1791	O179	0.130100	0.564500	0.222460
O1801	O180	0.043300	0.547600	0.298980
Cr151	Cr15	0.147080	0.573120	0.294150
Mn151	Mn15	0.423930	0.491690	0.329540
C911	C91	0.261500	0.003200	0.802500
C921	C92	0.295600	0.059100	0.796100
C931	C93	0.411000	0.881800	0.871200
C941	C94	0.388100	0.920900	0.912900
C951	C95	0.066900	0.042900	0.713000
C961	C96	0.015700	0.035100	0.756900
O1811	O181	0.303600	0.966400	0.813010
O1821	O182	0.364300	0.063900	0.800800
O1831	O183	0.191500	0.001400	0.798510
O1841	O184	0.251400	0.096020	0.785670
O1851	O185	0.428600	0.898820	0.830770
O1861	O186	0.389900	0.968200	0.903860
O1871	O187	0.409300	0.832200	0.884060
O1881	O188	0.368400	0.898990	0.953170
O1891	O189	0.046200	0.028400	0.671830
O1901	O190	0.952600	0.018400	0.749690
O1911	O191	0.130100	0.064500	0.722460
O1921	O192	0.043300	0.047600	0.798980
Cr161	Cr16	0.147080	0.073120	0.794150
Mn161	Mn16	0.423930	0.991690	0.829540
