data_VIQQUJ_clean_PM
_symmetry_space_group_name_H-M	'P1'
_cell_length_a	18.707000
_cell_length_b	10.182000
_cell_length_c	20.353000
_cell_angle_alpha	90.000000
_cell_angle_beta	90.000000
_cell_angle_gamma	90.000000
_symmetry_Int_Tables_number 1

loop_
_symmetry_equiv_pos_as_xyz
'x,y,z'

loop_
_atom_site_label
_atom_site_type_symbol
_atom_site_fract_x
_atom_site_fract_y
_atom_site_fract_z
C11	C1	0.578410	0.622400	0.439320
C21	C2	0.614530	0.740400	0.411510
C31	C3	0.585940	0.864500	0.422170
H11	H1	0.546100	0.874300	0.449000
C41	C4	0.616300	0.972700	0.393220
C51	C5	0.676820	0.959900	0.353740
H21	H2	0.697500	0.033700	0.334600
C61	C6	0.706100	0.835800	0.343170
C71	C7	0.674620	0.726300	0.371090
H31	H3	0.693400	0.643200	0.363000
C81	C8	0.587660	0.108100	0.405250
C91	C9	0.773330	0.888500	0.245990
C101	C10	0.915710	0.962700	0.121780
H41	H4	0.924100	0.027200	0.090400
C111	C11	0.855440	0.970300	0.161690
H51	H5	0.823400	0.039300	0.156500
C121	C12	0.843050	0.875600	0.209050
C131	C13	0.891260	0.772000	0.216300
H61	H6	0.883600	0.707800	0.248000
C141	C14	0.950820	0.765700	0.175760
H71	H7	0.983000	0.696700	0.180500
N11	N1	0.767840	0.822700	0.303260
H81	H8	0.802100	0.772300	0.315700
N21	N2	0.963020	0.860000	0.128650
Ni11	Ni1	0.450820	0.663280	0.551430
O11	O1	0.601660	0.511630	0.424560
O21	O2	0.525520	0.638890	0.475480
O31	O3	0.533220	0.119260	0.440640
O41	O4	0.617500	0.206010	0.381050
O51	O5	0.726450	0.954700	0.223320
C151	C15	0.421590	0.377600	0.560680
C161	C16	0.385470	0.259600	0.588490
C171	C17	0.414060	0.135500	0.577830
H91	H9	0.453900	0.125700	0.551000
C181	C18	0.383700	0.027300	0.606780
C191	C19	0.323180	0.040100	0.646260
H101	H10	0.302500	0.966300	0.665400
C201	C20	0.293900	0.164200	0.656830
C211	C21	0.325380	0.273700	0.628910
H111	H11	0.306600	0.356800	0.637000
C221	C22	0.412340	0.891900	0.594750
C231	C23	0.226670	0.111500	0.754010
C241	C24	0.084290	0.037300	0.878220
H121	H12	0.075900	0.972800	0.909600
C251	C25	0.144560	0.029700	0.838310
H131	H13	0.176600	0.960700	0.843500
C261	C26	0.156950	0.124400	0.790950
C271	C27	0.108740	0.228000	0.783700
H141	H14	0.116400	0.292200	0.752000
C281	C28	0.049180	0.234300	0.824240
H151	H15	0.017000	0.303300	0.819500
N31	N3	0.232160	0.177300	0.696740
H161	H16	0.197900	0.227700	0.684300
N41	N4	0.036980	0.140000	0.871350
Ni21	Ni2	0.549180	0.336720	0.448570
O61	O6	0.398340	0.488370	0.575440
O71	O7	0.474480	0.361110	0.524520
O81	O8	0.466780	0.880740	0.559360
O91	O9	0.382500	0.793990	0.618950
O101	O10	0.273550	0.045300	0.776680
C291	C29	0.921590	0.877600	0.939320
C301	C30	0.885470	0.759600	0.911510
C311	C31	0.914060	0.635500	0.922170
H171	H17	0.953900	0.625700	0.949000
C321	C32	0.883700	0.527300	0.893220
C331	C33	0.823180	0.540100	0.853740
H181	H18	0.802500	0.466300	0.834600
C341	C34	0.793900	0.664200	0.843170
C351	C35	0.825380	0.773700	0.871090
H191	H19	0.806600	0.856800	0.863000
C361	C36	0.912340	0.391900	0.905250
C371	C37	0.726670	0.611500	0.745990
C381	C38	0.584290	0.537300	0.621780
H201	H20	0.575900	0.472800	0.590400
C391	C39	0.644560	0.529700	0.661690
H211	H21	0.676600	0.460700	0.656500
C401	C40	0.656950	0.624400	0.709050
C411	C41	0.608740	0.728000	0.716300
H221	H22	0.616400	0.792200	0.748000
C421	C42	0.549180	0.734300	0.675760
H231	H23	0.517000	0.803300	0.680500
N51	N5	0.732160	0.677300	0.803260
H241	H24	0.697900	0.727700	0.815700
N61	N6	0.536980	0.640000	0.628650
Ni31	Ni3	0.049180	0.836720	0.051430
O111	O11	0.898340	0.988370	0.924560
O121	O12	0.974480	0.861110	0.975480
O131	O13	0.966780	0.380740	0.940640
O141	O14	0.882500	0.293990	0.881050
O151	O15	0.773550	0.545300	0.723320
C431	C43	0.078410	0.122400	0.060680
C441	C44	0.114530	0.240400	0.088490
C451	C45	0.085940	0.364500	0.077830
H251	H25	0.046100	0.374300	0.051000
C461	C46	0.116300	0.472700	0.106780
C471	C47	0.176820	0.459900	0.146260
H261	H26	0.197500	0.533700	0.165400
C481	C48	0.206100	0.335800	0.156830
C491	C49	0.174620	0.226300	0.128910
H271	H27	0.193400	0.143200	0.137000
C501	C50	0.087660	0.608100	0.094750
C511	C51	0.273330	0.388500	0.254010
C521	C52	0.415710	0.462700	0.378220
H281	H28	0.424100	0.527200	0.409600
C531	C53	0.355440	0.470300	0.338310
H291	H29	0.323400	0.539300	0.343500
C541	C54	0.343050	0.375600	0.290950
C551	C55	0.391260	0.272000	0.283700
H301	H30	0.383600	0.207800	0.252000
C561	C56	0.450820	0.265700	0.324240
H311	H31	0.483000	0.196700	0.319500
N71	N7	0.267840	0.322700	0.196740
H321	H32	0.302100	0.272300	0.184300
N81	N8	0.463020	0.360000	0.371350
Ni41	Ni4	0.950820	0.163280	0.948570
O161	O16	0.101660	0.011630	0.075440
O171	O17	0.025520	0.138890	0.024520
O181	O18	0.033220	0.619260	0.059360
O191	O19	0.117500	0.706010	0.118950
O201	O20	0.226450	0.454700	0.276680
C571	C57	0.421590	0.622400	0.060680
C581	C58	0.385470	0.740400	0.088490
C591	C59	0.414060	0.864500	0.077830
H331	H33	0.453900	0.874300	0.051000
C601	C60	0.383700	0.972700	0.106780
C611	C61	0.323180	0.959900	0.146260
H341	H34	0.302500	0.033700	0.165400
C621	C62	0.293900	0.835800	0.156830
C631	C63	0.325380	0.726300	0.128910
H351	H35	0.306600	0.643200	0.137000
C641	C64	0.412340	0.108100	0.094750
C651	C65	0.226670	0.888500	0.254010
C661	C66	0.084290	0.962700	0.378220
H361	H36	0.075900	0.027200	0.409600
C671	C67	0.144560	0.970300	0.338310
H371	H37	0.176600	0.039300	0.343500
C681	C68	0.156950	0.875600	0.290950
C691	C69	0.108740	0.772000	0.283700
H381	H38	0.116400	0.707800	0.252000
C701	C70	0.049180	0.765700	0.324240
H391	H39	0.017000	0.696700	0.319500
N91	N9	0.232160	0.822700	0.196740
H401	H40	0.197900	0.772300	0.184300
N101	N10	0.036980	0.860000	0.371350
Ni51	Ni5	0.549180	0.663280	0.948570
O211	O21	0.398340	0.511630	0.075440
O221	O22	0.474480	0.638890	0.024520
O231	O23	0.466780	0.119260	0.059360
O241	O24	0.382500	0.206010	0.118950
O251	O25	0.273550	0.954700	0.276680
C711	C71	0.578410	0.377600	0.939320
C721	C72	0.614530	0.259600	0.911510
C731	C73	0.585940	0.135500	0.922170
H411	H41	0.546100	0.125700	0.949000
C741	C74	0.616300	0.027300	0.893220
C751	C75	0.676820	0.040100	0.853740
H421	H42	0.697500	0.966300	0.834600
C761	C76	0.706100	0.164200	0.843170
C771	C77	0.674620	0.273700	0.871090
H431	H43	0.693400	0.356800	0.863000
C781	C78	0.587660	0.891900	0.905250
C791	C79	0.773330	0.111500	0.745990
C801	C80	0.915710	0.037300	0.621780
H441	H44	0.924100	0.972800	0.590400
C811	C81	0.855440	0.029700	0.661690
H451	H45	0.823400	0.960700	0.656500
C821	C82	0.843050	0.124400	0.709050
C831	C83	0.891260	0.228000	0.716300
H461	H46	0.883600	0.292200	0.748000
C841	C84	0.950820	0.234300	0.675760
H471	H47	0.983000	0.303300	0.680500
N111	N11	0.767840	0.177300	0.803260
H481	H48	0.802100	0.227700	0.815700
N121	N12	0.963020	0.140000	0.628650
Ni61	Ni6	0.450820	0.336720	0.051430
O261	O26	0.601660	0.488370	0.924560
O271	O27	0.525520	0.361110	0.975480
O281	O28	0.533220	0.880740	0.940640
O291	O29	0.617500	0.793990	0.881050
O301	O30	0.726450	0.045300	0.723320
C851	C85	0.078410	0.877600	0.560680
C861	C86	0.114530	0.759600	0.588490
C871	C87	0.085940	0.635500	0.577830
H491	H49	0.046100	0.625700	0.551000
C881	C88	0.116300	0.527300	0.606780
C891	C89	0.176820	0.540100	0.646260
H501	H50	0.197500	0.466300	0.665400
C901	C90	0.206100	0.664200	0.656830
C911	C91	0.174620	0.773700	0.628910
H511	H51	0.193400	0.856800	0.637000
C921	C92	0.087660	0.391900	0.594750
C931	C93	0.273330	0.611500	0.754010
C941	C94	0.415710	0.537300	0.878220
H521	H52	0.424100	0.472800	0.909600
C951	C95	0.355440	0.529700	0.838310
H531	H53	0.323400	0.460700	0.843500
C961	C96	0.343050	0.624400	0.790950
C971	C97	0.391260	0.728000	0.783700
H541	H54	0.383600	0.792200	0.752000
C981	C98	0.450820	0.734300	0.824240
H551	H55	0.483000	0.803300	0.819500
N131	N13	0.267840	0.677300	0.696740
H561	H56	0.302100	0.727700	0.684300
N141	N14	0.463020	0.640000	0.871350
Ni71	Ni7	0.950820	0.836720	0.448570
O311	O31	0.101660	0.988370	0.575440
O321	O32	0.025520	0.861110	0.524520
O331	O33	0.033220	0.380740	0.559360
O341	O34	0.117500	0.293990	0.618950
O351	O35	0.226450	0.545300	0.776680
C991	C99	0.921590	0.122400	0.439320
C1001	C100	0.885470	0.240400	0.411510
C1011	C101	0.914060	0.364500	0.422170
H571	H57	0.953900	0.374300	0.449000
C1021	C102	0.883700	0.472700	0.393220
C1031	C103	0.823180	0.459900	0.353740
H581	H58	0.802500	0.533700	0.334600
C1041	C104	0.793900	0.335800	0.343170
C1051	C105	0.825380	0.226300	0.371090
H591	H59	0.806600	0.143200	0.363000
C1061	C106	0.912340	0.608100	0.405250
C1071	C107	0.726670	0.388500	0.245990
C1081	C108	0.584290	0.462700	0.121780
H601	H60	0.575900	0.527200	0.090400
C1091	C109	0.644560	0.470300	0.161690
H611	H61	0.676600	0.539300	0.156500
C1101	C110	0.656950	0.375600	0.209050
C1111	C111	0.608740	0.272000	0.216300
H621	H62	0.616400	0.207800	0.248000
C1121	C112	0.549180	0.265700	0.175760
H631	H63	0.517000	0.196700	0.180500
N151	N15	0.732160	0.322700	0.303260
H641	H64	0.697900	0.272300	0.315700
N161	N16	0.536980	0.360000	0.128650
Ni81	Ni8	0.049180	0.163280	0.551430
O361	O36	0.898340	0.011630	0.424560
O371	O37	0.974480	0.138890	0.475480
O381	O38	0.966780	0.619260	0.440640
O391	O39	0.882500	0.706010	0.381050
O401	O40	0.773550	0.454700	0.223320
