data_VIRKIQ_clean_PM
_symmetry_space_group_name_H-M	'P1'
_cell_length_a	5.977800
_cell_length_b	16.674700
_cell_length_c	8.466000
_cell_angle_alpha	90.000000
_cell_angle_beta	90.384000
_cell_angle_gamma	90.000000
_symmetry_Int_Tables_number 1

loop_
_symmetry_equiv_pos_as_xyz
'x,y,z'

loop_
_atom_site_label
_atom_site_type_symbol
_atom_site_fract_x
_atom_site_fract_y
_atom_site_fract_z
Mn11	Mn1	0.515300	0.176460	0.504460
P11	P1	0.007100	0.245150	0.377500
O11	O1	0.823400	0.244000	0.500800
O21	O2	0.723700	0.064900	0.538200
O31	O3	0.719300	0.930900	0.515000
O41	O4	0.004800	0.160500	0.287400
O51	O5	0.237300	0.255700	0.450700
O61	O6	0.958500	0.306800	0.250200
C11	C1	0.628800	0.999000	0.516000
H11	H1	0.040000	0.127000	0.333000
Mn21	Mn2	0.984700	0.676460	0.995540
P21	P2	0.492900	0.745150	0.122500
O71	O7	0.676600	0.744000	0.999200
O81	O8	0.776300	0.564900	0.961800
O91	O9	0.780700	0.430900	0.985000
O101	O10	0.495200	0.660500	0.212600
O111	O11	0.262700	0.755700	0.049300
O121	O12	0.541500	0.806800	0.249800
C21	C2	0.871200	0.499000	0.984000
H21	H2	0.460000	0.627000	0.167000
Mn31	Mn3	0.484700	0.823540	0.495540
P31	P3	0.992900	0.754850	0.622500
O131	O13	0.176600	0.756000	0.499200
O141	O14	0.276300	0.935100	0.461800
O151	O15	0.280700	0.069100	0.485000
O161	O16	0.995200	0.839500	0.712600
O171	O17	0.762700	0.744300	0.549300
O181	O18	0.041500	0.693200	0.749800
C31	C3	0.371200	0.001000	0.484000
H31	H3	0.960000	0.873000	0.667000
Mn41	Mn4	0.015300	0.323540	0.004460
P41	P4	0.507100	0.254850	0.877500
O191	O19	0.323400	0.256000	0.000800
O201	O20	0.223700	0.435100	0.038200
O211	O21	0.219300	0.569100	0.015000
O221	O22	0.504800	0.339500	0.787400
O231	O23	0.737300	0.244300	0.950700
O241	O24	0.458500	0.193200	0.750200
C41	C4	0.128800	0.501000	0.016000
H41	H4	0.540000	0.373000	0.833000
