data_VIRPOC_clean_PM
_symmetry_space_group_name_H-M	'P1'
_cell_length_a	17.826300
_cell_length_b	17.826300
_cell_length_c	17.826300
_cell_angle_alpha	60.000000
_cell_angle_beta	60.000000
_cell_angle_gamma	60.000000
_symmetry_Int_Tables_number 1

loop_
_symmetry_equiv_pos_as_xyz
'x,y,z'

loop_
_atom_site_label
_atom_site_type_symbol
_atom_site_fract_x
_atom_site_fract_y
_atom_site_fract_z
Ni11	Ni1	0.135510	0.750000	0.864490
Ni21	Ni2	0.250000	0.635510	0.250000
Ni31	Ni3	0.364490	0.250000	0.635510
Ni41	Ni4	0.750000	0.864490	0.750000
Ni51	Ni5	0.135510	0.864490	0.250000
Ni61	Ni6	0.250000	0.250000	0.864490
Ni71	Ni7	0.364490	0.635510	0.750000
Ni81	Ni8	0.750000	0.750000	0.635510
Ni91	Ni9	0.135510	0.250000	0.750000
Ni101	Ni10	0.250000	0.864490	0.635510
Ni111	Ni11	0.364490	0.750000	0.250000
Ni121	Ni12	0.750000	0.635510	0.864490
Ni131	Ni13	0.864490	0.250000	0.135510
Ni141	Ni14	0.750000	0.364490	0.750000
Ni151	Ni15	0.635510	0.750000	0.364490
Ni161	Ni16	0.250000	0.135510	0.250000
Ni171	Ni17	0.864490	0.135510	0.750000
Ni181	Ni18	0.750000	0.750000	0.135510
Ni191	Ni19	0.635510	0.364490	0.250000
Ni201	Ni20	0.250000	0.250000	0.364490
Ni211	Ni21	0.864490	0.750000	0.250000
Ni221	Ni22	0.750000	0.135510	0.364490
Ni231	Ni23	0.635510	0.250000	0.750000
Ni241	Ni24	0.250000	0.364490	0.135510
H11	H1	0.121800	0.568800	0.050400
H21	H2	0.068800	0.621800	0.259000
H31	H3	0.550400	0.259000	0.621800
H41	H4	0.759000	0.050400	0.568800
H51	H5	0.121800	0.050400	0.259000
H61	H6	0.068800	0.259000	0.050400
H71	H7	0.550400	0.621800	0.568800
H81	H8	0.759000	0.568800	0.621800
H91	H9	0.121800	0.259000	0.568800
H101	H10	0.068800	0.050400	0.621800
H111	H11	0.550400	0.568800	0.259000
H121	H12	0.759000	0.621800	0.050400
H131	H13	0.431200	0.878200	0.449600
H141	H14	0.378200	0.931200	0.241000
H151	H15	0.741000	0.449600	0.878200
H161	H16	0.949600	0.241000	0.931200
H171	H17	0.949600	0.878200	0.241000
H181	H18	0.741000	0.931200	0.449600
H191	H19	0.378200	0.449600	0.931200
H201	H20	0.431200	0.241000	0.878200
H211	H21	0.741000	0.878200	0.931200
H221	H22	0.949600	0.931200	0.878200
H231	H23	0.431200	0.449600	0.241000
H241	H24	0.378200	0.241000	0.449600
H251	H25	0.878200	0.431200	0.949600
H261	H26	0.931200	0.378200	0.741000
H271	H27	0.449600	0.741000	0.378200
H281	H28	0.241000	0.949600	0.431200
H291	H29	0.878200	0.949600	0.741000
H301	H30	0.931200	0.741000	0.949600
H311	H31	0.449600	0.378200	0.431200
H321	H32	0.241000	0.431200	0.378200
H331	H33	0.878200	0.741000	0.431200
H341	H34	0.931200	0.949600	0.378200
H351	H35	0.449600	0.431200	0.741000
H361	H36	0.241000	0.378200	0.949600
H371	H37	0.568800	0.121800	0.550400
H381	H38	0.621800	0.068800	0.759000
H391	H39	0.259000	0.550400	0.121800
H401	H40	0.050400	0.759000	0.068800
H411	H41	0.050400	0.121800	0.759000
H421	H42	0.259000	0.068800	0.550400
H431	H43	0.621800	0.550400	0.068800
H441	H44	0.568800	0.759000	0.121800
H451	H45	0.259000	0.121800	0.068800
H461	H46	0.050400	0.068800	0.121800
H471	H47	0.568800	0.550400	0.759000
H481	H48	0.621800	0.759000	0.550400
C11	C1	0.180580	0.557500	0.007300
C21	C2	0.057500	0.680580	0.254620
C31	C3	0.507300	0.254620	0.680580
C41	C4	0.754620	0.007300	0.557500
C51	C5	0.180580	0.007300	0.254620
C61	C6	0.057500	0.254620	0.007300
C71	C7	0.507300	0.680580	0.557500
C81	C8	0.754620	0.557500	0.680580
C91	C9	0.180580	0.254620	0.557500
C101	C10	0.057500	0.007300	0.680580
C111	C11	0.507300	0.557500	0.254620
C121	C12	0.754620	0.680580	0.007300
C131	C13	0.442500	0.819420	0.492700
C141	C14	0.319420	0.942500	0.245380
C151	C15	0.745380	0.492700	0.819420
C161	C16	0.992700	0.245380	0.942500
C171	C17	0.992700	0.819420	0.245380
C181	C18	0.745380	0.942500	0.492700
C191	C19	0.319420	0.492700	0.942500
C201	C20	0.442500	0.245380	0.819420
C211	C21	0.745380	0.819420	0.942500
C221	C22	0.992700	0.942500	0.819420
C231	C23	0.442500	0.492700	0.245380
C241	C24	0.319420	0.245380	0.492700
C251	C25	0.819420	0.442500	0.992700
C261	C26	0.942500	0.319420	0.745380
C271	C27	0.492700	0.745380	0.319420
C281	C28	0.245380	0.992700	0.442500
C291	C29	0.819420	0.992700	0.745380
C301	C30	0.942500	0.745380	0.992700
C311	C31	0.492700	0.319420	0.442500
C321	C32	0.245380	0.442500	0.319420
C331	C33	0.819420	0.745380	0.442500
C341	C34	0.942500	0.992700	0.319420
C351	C35	0.492700	0.442500	0.745380
C361	C36	0.245380	0.319420	0.992700
C371	C37	0.557500	0.180580	0.507300
C381	C38	0.680580	0.057500	0.754620
C391	C39	0.254620	0.507300	0.180580
C401	C40	0.007300	0.754620	0.057500
C411	C41	0.007300	0.180580	0.754620
C421	C42	0.254620	0.057500	0.507300
C431	C43	0.680580	0.507300	0.057500
C441	C44	0.557500	0.754620	0.180580
C451	C45	0.254620	0.180580	0.057500
C461	C46	0.007300	0.057500	0.180580
C471	C47	0.557500	0.507300	0.754620
C481	C48	0.680580	0.754620	0.507300
N11	N1	0.205390	0.617590	0.924790
N21	N2	0.117590	0.705390	0.252230
N31	N3	0.424790	0.252230	0.705390
N41	N4	0.752230	0.924790	0.617590
N51	N5	0.205390	0.924790	0.252230
N61	N6	0.117590	0.252230	0.924790
N71	N7	0.424790	0.705390	0.617590
N81	N8	0.752230	0.617590	0.705390
N91	N9	0.205390	0.252230	0.617590
N101	N10	0.117590	0.924790	0.705390
N111	N11	0.424790	0.617590	0.252230
N121	N12	0.752230	0.705390	0.924790
N131	N13	0.382410	0.794610	0.575210
N141	N14	0.294610	0.882410	0.247770
N151	N15	0.747770	0.575210	0.794610
N161	N16	0.075210	0.247770	0.882410
N171	N17	0.075210	0.794610	0.247770
N181	N18	0.747770	0.882410	0.575210
N191	N19	0.294610	0.575210	0.882410
N201	N20	0.382410	0.247770	0.794610
N211	N21	0.747770	0.794610	0.882410
N221	N22	0.075210	0.882410	0.794610
N231	N23	0.382410	0.575210	0.247770
N241	N24	0.294610	0.247770	0.575210
N251	N25	0.794610	0.382410	0.075210
N261	N26	0.882410	0.294610	0.747770
N271	N27	0.575210	0.747770	0.294610
N281	N28	0.247770	0.075210	0.382410
N291	N29	0.794610	0.075210	0.747770
N301	N30	0.882410	0.747770	0.075210
N311	N31	0.575210	0.294610	0.382410
N321	N32	0.247770	0.382410	0.294610
N331	N33	0.794610	0.747770	0.382410
N341	N34	0.882410	0.075210	0.294610
N351	N35	0.575210	0.382410	0.747770
N361	N36	0.247770	0.294610	0.075210
N371	N37	0.617590	0.205390	0.424790
N381	N38	0.705390	0.117590	0.752230
N391	N39	0.252230	0.424790	0.205390
N401	N40	0.924790	0.752230	0.117590
N411	N41	0.924790	0.205390	0.752230
N421	N42	0.252230	0.117590	0.424790
N431	N43	0.705390	0.424790	0.117590
N441	N44	0.617590	0.752230	0.205390
N451	N45	0.252230	0.205390	0.117590
N461	N46	0.924790	0.117590	0.205390
N471	N47	0.617590	0.424790	0.752230
N481	N48	0.705390	0.752230	0.424790
N491	N49	0.250000	0.478580	0.021420
N501	N50	0.978580	0.750000	0.250000
N511	N51	0.521420	0.250000	0.750000
N521	N52	0.750000	0.021420	0.478580
N531	N53	0.250000	0.021420	0.250000
N541	N54	0.978580	0.250000	0.021420
N551	N55	0.521420	0.750000	0.478580
N561	N56	0.750000	0.478580	0.750000
N571	N57	0.250000	0.250000	0.478580
N581	N58	0.978580	0.021420	0.750000
N591	N59	0.521420	0.478580	0.250000
N601	N60	0.750000	0.750000	0.021420
N611	N61	0.750000	0.521420	0.978580
N621	N62	0.021420	0.250000	0.750000
N631	N63	0.478580	0.750000	0.250000
N641	N64	0.250000	0.978580	0.521420
N651	N65	0.750000	0.978580	0.750000
N661	N66	0.021420	0.750000	0.978580
N671	N67	0.478580	0.250000	0.521420
N681	N68	0.250000	0.521420	0.250000
N691	N69	0.750000	0.750000	0.521420
N701	N70	0.021420	0.978580	0.250000
N711	N71	0.478580	0.521420	0.750000
N721	N72	0.250000	0.250000	0.978580
O11	O1	0.250000	0.750000	0.750000
O21	O2	0.250000	0.750000	0.250000
O31	O3	0.250000	0.250000	0.750000
O41	O4	0.750000	0.750000	0.750000
O51	O5	0.750000	0.250000	0.250000
O61	O6	0.750000	0.250000	0.750000
O71	O7	0.750000	0.750000	0.250000
O81	O8	0.250000	0.250000	0.250000
