data_VIRQAO_clean_PM
_symmetry_space_group_name_H-M	'P1'
_cell_length_a	5.457300
_cell_length_b	8.965000
_cell_length_c	15.253000
_cell_angle_alpha	90.000000
_cell_angle_beta	98.924000
_cell_angle_gamma	90.000000
_symmetry_Int_Tables_number 1

loop_
_symmetry_equiv_pos_as_xyz
'x,y,z'

loop_
_atom_site_label
_atom_site_type_symbol
_atom_site_fract_x
_atom_site_fract_y
_atom_site_fract_z
Mn11	Mn1	0.101000	0.483800	0.818160
P11	P1	0.609700	0.259600	0.819430
O11	O1	0.224900	0.398600	0.956600
O21	O2	0.852400	0.301600	0.789900
O31	O3	0.546300	0.095600	0.801200
O41	O4	0.124800	0.394300	0.092700
O51	O5	0.397500	0.360200	0.779500
O61	O6	0.654800	0.278400	0.925200
C11	C1	0.101000	0.440200	0.014200
H11	H1	0.540000	0.290000	0.933000
Mn21	Mn2	0.399000	0.983800	0.681840
P21	P2	0.890300	0.759600	0.680570
O71	O7	0.275100	0.898600	0.543400
O81	O8	0.647600	0.801600	0.710100
O91	O9	0.953700	0.595600	0.698800
O101	O10	0.375200	0.894300	0.407300
O111	O11	0.102500	0.860200	0.720500
O121	O12	0.845200	0.778400	0.574800
C21	C2	0.399000	0.940200	0.485800
H21	H2	0.960000	0.790000	0.567000
Mn31	Mn3	0.899000	0.516200	0.181840
P31	P3	0.390300	0.740400	0.180570
O131	O13	0.775100	0.601400	0.043400
O141	O14	0.147600	0.698400	0.210100
O151	O15	0.453700	0.904400	0.198800
O161	O16	0.875200	0.605700	0.907300
O171	O17	0.602500	0.639800	0.220500
O181	O18	0.345200	0.721600	0.074800
C31	C3	0.899000	0.559800	0.985800
H31	H3	0.460000	0.710000	0.067000
Mn41	Mn4	0.601000	0.016200	0.318160
P41	P4	0.109700	0.240400	0.319430
O191	O19	0.724900	0.101400	0.456600
O201	O20	0.352400	0.198400	0.289900
O211	O21	0.046300	0.404400	0.301200
O221	O22	0.624800	0.105700	0.592700
O231	O23	0.897500	0.139800	0.279500
O241	O24	0.154800	0.221600	0.425200
C41	C4	0.601000	0.059800	0.514200
H41	H4	0.040000	0.210000	0.433000
