data_VIRXIF_clean_PM
_symmetry_space_group_name_H-M	'P1'
_cell_length_a	14.380700
_cell_length_b	14.380700
_cell_length_c	14.355200
_cell_angle_alpha	90.000000
_cell_angle_beta	90.000000
_cell_angle_gamma	120.000000
_symmetry_Int_Tables_number 1

loop_
_symmetry_equiv_pos_as_xyz
'x,y,z'

loop_
_atom_site_label
_atom_site_type_symbol
_atom_site_fract_x
_atom_site_fract_y
_atom_site_fract_z
Zn11	Zn1	0.585070	0.257850	0.835410
P11	P1	0.532700	0.220120	0.619500
P21	P2	0.364350	0.208700	0.759240
O11	O1	0.464900	0.103600	0.593200
O21	O2	0.602800	0.237200	0.703600
O31	O3	0.448100	0.251600	0.836800
O41	O4	0.283600	0.242800	0.771900
O51	O5	0.313400	0.088300	0.747100
C11	C1	0.439900	0.270900	0.650700
O61	O6	0.367200	0.247900	0.573900
H11	H1	0.306000	0.223900	0.593800
C21	C2	0.506800	0.392100	0.658200
H21	H2	0.561000	0.409200	0.705700
H31	H3	0.544000	0.419500	0.599500
N11	N1	0.450200	0.449000	0.680100
C31	C3	0.468600	0.510900	0.755800
H41	H4	0.516500	0.520400	0.803300
C41	C4	0.375200	0.452200	0.626600
H51	H5	0.346900	0.415400	0.571100
C51	C5	0.348900	0.521000	0.670500
H61	H6	0.300000	0.540700	0.649400
N21	N2	0.408700	0.555700	0.752500
O71	O7	0.595500	0.285700	0.537200
Zn21	Zn2	0.742150	0.327220	0.502080
P31	P3	0.779880	0.312580	0.286170
P41	P4	0.791300	0.155650	0.425910
O81	O8	0.896400	0.361300	0.259870
O91	O9	0.762800	0.365600	0.370270
O101	O10	0.748400	0.196500	0.503470
O111	O11	0.757200	0.040800	0.438570
O121	O12	0.911700	0.225100	0.413770
C61	C6	0.729100	0.169000	0.317370
O131	O13	0.752100	0.119300	0.240570
H71	H7	0.776100	0.082100	0.260470
C71	C7	0.607900	0.114700	0.324870
H81	H8	0.590800	0.151800	0.372370
H91	H9	0.580500	0.124500	0.266170
N31	N3	0.551000	0.001200	0.346770
C81	C8	0.489100	0.957700	0.422470
H101	H10	0.479600	0.996100	0.469970
C91	C9	0.547800	0.923000	0.293270
H111	H11	0.584600	0.931500	0.237770
C101	C10	0.479000	0.827900	0.337170
H121	H12	0.459300	0.759300	0.316070
N41	N4	0.444300	0.853000	0.419170
O141	O14	0.714300	0.309800	0.203870
Zn31	Zn3	0.672780	0.414930	0.168740
P51	P5	0.687420	0.467300	0.952830
P61	P6	0.844350	0.635650	0.092570
O151	O15	0.638700	0.535100	0.926530
O161	O16	0.634400	0.397200	0.036930
O171	O17	0.803500	0.551900	0.170130
O181	O18	0.959200	0.716400	0.105230
O191	O19	0.774900	0.686600	0.080430
C111	C11	0.831000	0.560100	0.984030
O201	O20	0.880700	0.632800	0.907230
H131	H13	0.917900	0.694000	0.927130
C121	C12	0.885300	0.493200	0.991530
H141	H14	0.848200	0.439000	0.039030
H151	H15	0.875500	0.456000	0.932830
N51	N5	0.998800	0.549800	0.013430
C131	C13	0.042300	0.531400	0.089130
H161	H16	0.003900	0.483500	0.136630
C141	C14	0.077000	0.624800	0.959930
H171	H17	0.068500	0.653100	0.904430
C151	C15	0.172100	0.651100	0.003830
H181	H18	0.240700	0.700000	0.982730
N61	N6	0.147000	0.591300	0.085830
O211	O21	0.690200	0.404500	0.870530
Zn41	Zn4	0.257850	0.585070	0.164590
P71	P7	0.220120	0.532700	0.380500
P81	P8	0.208700	0.364350	0.240760
O221	O22	0.103600	0.464900	0.406800
O231	O23	0.237200	0.602800	0.296400
O241	O24	0.251600	0.448100	0.163200
O251	O25	0.242800	0.283600	0.228100
O261	O26	0.088300	0.313400	0.252900
C161	C16	0.270900	0.439900	0.349300
O271	O27	0.247900	0.367200	0.426100
H191	H19	0.223900	0.306000	0.406200
C171	C17	0.392100	0.506800	0.341800
H201	H20	0.409200	0.561000	0.294300
H211	H21	0.419500	0.544000	0.400500
N71	N7	0.449000	0.450200	0.319900
C181	C18	0.510900	0.468600	0.244200
H221	H22	0.520400	0.516500	0.196700
C191	C19	0.452200	0.375200	0.373400
H231	H23	0.415400	0.346900	0.428900
C201	C20	0.521000	0.348900	0.329500
H241	H24	0.540700	0.300000	0.350600
N81	N8	0.555700	0.408700	0.247500
O281	O28	0.285700	0.595500	0.462800
Zn51	Zn5	0.327220	0.742150	0.497920
P91	P9	0.312580	0.779880	0.713830
P101	P10	0.155650	0.791300	0.574090
O291	O29	0.361300	0.896400	0.740130
O301	O30	0.365600	0.762800	0.629730
O311	O31	0.196500	0.748400	0.496530
O321	O32	0.040800	0.757200	0.561430
O331	O33	0.225100	0.911700	0.586230
C211	C21	0.169000	0.729100	0.682630
O341	O34	0.119300	0.752100	0.759430
H251	H25	0.082100	0.776100	0.739530
C221	C22	0.114700	0.607900	0.675130
H261	H26	0.151800	0.590800	0.627630
H271	H27	0.124500	0.580500	0.733830
N91	N9	0.001200	0.551000	0.653230
C231	C23	0.957700	0.489100	0.577530
H281	H28	0.996100	0.479600	0.530030
C241	C24	0.923000	0.547800	0.706730
H291	H29	0.931500	0.584600	0.762230
C251	C25	0.827900	0.479000	0.662830
H301	H30	0.759300	0.459300	0.683930
N101	N10	0.853000	0.444300	0.580830
O351	O35	0.309800	0.714300	0.796130
Zn61	Zn6	0.414930	0.672780	0.831260
P111	P11	0.467300	0.687420	0.047170
P121	P12	0.635650	0.844350	0.907430
O361	O36	0.535100	0.638700	0.073470
O371	O37	0.397200	0.634400	0.963070
O381	O38	0.551900	0.803500	0.829870
O391	O39	0.716400	0.959200	0.894770
O401	O40	0.686600	0.774900	0.919570
C261	C26	0.560100	0.831000	0.015970
O411	O41	0.632800	0.880700	0.092770
H311	H31	0.694000	0.917900	0.072870
C271	C27	0.493200	0.885300	0.008470
H321	H32	0.439000	0.848200	0.960970
H331	H33	0.456000	0.875500	0.067170
N111	N11	0.549800	0.998800	0.986570
C281	C28	0.531400	0.042300	0.910870
H341	H34	0.483500	0.003900	0.863370
C291	C29	0.624800	0.077000	0.040070
H351	H35	0.653100	0.068500	0.095570
C301	C30	0.651100	0.172100	0.996170
H361	H36	0.700000	0.240700	0.017270
N121	N12	0.591300	0.147000	0.914170
O421	O42	0.404500	0.690200	0.129470
Zn71	Zn7	0.343660	0.000000	0.666670
Zn81	Zn8	0.000000	0.343660	0.333330
Zn91	Zn9	0.656340	0.656340	0.000000
