data_VITZIJ_clean_PM
_symmetry_space_group_name_H-M	'P1'
_cell_length_a	11.597600
_cell_length_b	12.213000
_cell_length_c	13.518700
_cell_angle_alpha	65.039000
_cell_angle_beta	68.351000
_cell_angle_gamma	87.858000
_symmetry_Int_Tables_number 1

loop_
_symmetry_equiv_pos_as_xyz
'x,y,z'

loop_
_atom_site_label
_atom_site_type_symbol
_atom_site_fract_x
_atom_site_fract_y
_atom_site_fract_z
O11	O1	0.971500	0.528600	0.312000
O21	O2	0.064700	0.344800	0.444300
O31	O3	0.789500	0.453400	0.572000
O41	O4	0.039300	0.684700	0.321700
Dy11	Dy1	0.071240	0.669990	0.672560
C11	C1	0.993700	0.359100	0.733500
C21	C2	0.265300	0.627800	0.437800
O51	O5	0.236200	0.557200	0.706200
O61	O6	0.978900	0.827800	0.554800
O71	O7	0.058000	0.629600	0.869200
O81	O8	0.995000	0.799900	0.775600
O91	O9	0.208200	0.694300	0.483000
O101	O10	0.233800	0.822500	0.601000
C31	C3	0.994700	0.274800	0.852200
C41	C4	0.406000	0.638300	0.393900
C51	C5	0.997400	0.150300	0.879400
C61	C6	0.992700	0.316600	0.933800
C71	C7	0.474700	0.722700	0.403000
C81	C8	0.465500	0.553300	0.357300
C91	C9	0.998300	0.065700	0.987000
H11	H1	0.998600	0.124000	0.823700
C101	C10	0.988400	0.232600	0.043700
H21	H2	0.994200	0.399300	0.915000
C111	C11	0.601300	0.719500	0.378300
H31	H3	0.435300	0.781000	0.425700
C121	C12	0.590400	0.549800	0.332200
H41	H4	0.419900	0.498300	0.349900
C131	C13	0.994200	0.108100	0.068400
C141	C14	0.979100	0.270600	0.137900
C151	C15	0.675400	0.800600	0.397400
C161	C16	0.659000	0.634300	0.341500
C171	C17	0.654300	0.449400	0.306900
H51	H5	0.995300	0.053500	0.141100
C181	C18	0.762600	0.751700	0.448800
C191	C19	0.659700	0.921500	0.370700
H61	H6	0.744600	0.633200	0.322700
O111	O11	0.583600	0.371200	0.304800
C201	C20	0.833800	0.822200	0.469700
H71	H7	0.772800	0.670200	0.469300
H81	H8	0.601900	0.955400	0.337600
C211	C21	0.728800	0.992800	0.392500
C221	C22	0.922700	0.767000	0.528300
C231	C23	0.817300	0.943300	0.440400
C241	C24	0.711600	0.122300	0.365400
H91	H9	0.865400	0.991900	0.452600
O121	O12	0.641600	0.171600	0.311500
O131	O13	0.028500	0.471400	0.688000
O141	O14	0.935300	0.655200	0.555700
O151	O15	0.210500	0.546600	0.428000
O161	O16	0.960700	0.315300	0.678300
Dy21	Dy2	0.928760	0.330010	0.327440
C251	C25	0.006300	0.640900	0.266500
C261	C26	0.734700	0.372200	0.562200
O171	O17	0.763800	0.442800	0.293800
O181	O18	0.021100	0.172200	0.445200
O191	O19	0.942000	0.370400	0.130800
O201	O20	0.005000	0.200100	0.224400
O211	O21	0.791800	0.305700	0.517000
O221	O22	0.766200	0.177500	0.399000
C271	C27	0.005300	0.725200	0.147800
C281	C28	0.594000	0.361700	0.606100
C291	C29	0.002600	0.849700	0.120600
C301	C30	0.007300	0.683400	0.066200
C311	C31	0.525300	0.277300	0.597000
C321	C32	0.534500	0.446700	0.642700
C331	C33	0.001700	0.934300	0.013000
H101	H10	0.001400	0.876000	0.176300
C341	C34	0.011600	0.767400	0.956300
H111	H11	0.005800	0.600700	0.085000
C351	C35	0.398700	0.280500	0.621700
H121	H12	0.564700	0.219000	0.574300
C361	C36	0.409600	0.450200	0.667800
H131	H13	0.580100	0.501700	0.650100
C371	C37	0.005800	0.891900	0.931600
C381	C38	0.020900	0.729400	0.862100
C391	C39	0.324600	0.199400	0.602600
C401	C40	0.341000	0.365700	0.658500
C411	C41	0.345700	0.550600	0.693100
H141	H14	0.004700	0.946500	0.858900
C421	C42	0.237400	0.248300	0.551200
C431	C43	0.340300	0.078500	0.629300
H151	H15	0.255400	0.366800	0.677300
O231	O23	0.416400	0.628800	0.695200
C441	C44	0.166200	0.177800	0.530300
H161	H16	0.227200	0.329800	0.530700
H171	H17	0.398100	0.044600	0.662400
C451	C45	0.271200	0.007200	0.607500
C461	C46	0.077300	0.233000	0.471700
C471	C47	0.182700	0.056700	0.559600
C481	C48	0.288400	0.877700	0.634600
H181	H18	0.134600	0.008100	0.547400
O241	O24	0.358400	0.828400	0.688500
Dy31	Dy3	0.000000	0.500000	0.500000
