data_VIVXOP_clean_PM
_symmetry_space_group_name_H-M	'P1'
_cell_length_a	14.178000
_cell_length_b	14.178000
_cell_length_c	25.750800
_cell_angle_alpha	83.390600
_cell_angle_beta	83.390600
_cell_angle_gamma	87.337400
_symmetry_Int_Tables_number 1

loop_
_symmetry_equiv_pos_as_xyz
'x,y,z'

loop_
_atom_site_label
_atom_site_type_symbol
_atom_site_fract_x
_atom_site_fract_y
_atom_site_fract_z
Zn11	Zn1	0.181800	0.875640	0.079440
Zn21	Zn2	0.846570	0.408130	0.558410
Zn31	Zn3	0.875640	0.181800	0.579440
Zn41	Zn4	0.408130	0.846570	0.058410
H11	H1	0.305580	0.006180	0.230910
H21	H2	0.770190	0.014410	0.643410
H31	H3	0.446070	0.430030	0.677280
H41	H4	0.748150	0.839330	0.987090
H51	H5	0.885420	0.889360	0.496380
H61	H6	0.586240	0.859840	0.986910
H71	H7	0.604910	0.423750	0.639500
H81	H8	0.369650	0.848350	0.811400
H91	H9	0.980220	0.121560	0.723020
H101	H10	0.859840	0.586240	0.486910
H111	H11	0.176470	0.550070	0.079580
H121	H12	0.155670	0.033370	0.840120
H131	H13	0.174370	0.998730	0.927220
H141	H14	0.385130	0.809470	0.898740
H151	H15	0.701850	0.801110	0.146770
H161	H16	0.121560	0.980220	0.223020
H171	H17	0.801110	0.701850	0.646770
H181	H18	0.542220	0.826800	0.141750
H191	H19	0.423750	0.604910	0.139500
H201	H20	0.062930	0.096150	0.276230
H211	H21	0.159370	0.038550	0.600780
H221	H22	0.243240	0.301280	0.597360
H231	H23	0.045920	0.903840	0.002480
H241	H24	0.290560	0.159920	0.253710
H251	H25	0.550070	0.176470	0.579580
H261	H26	0.998730	0.174370	0.427220
H271	H27	0.809470	0.385130	0.398740
H281	H28	0.889360	0.885420	0.996380
H291	H29	0.977550	0.273590	0.153830
H301	H30	0.839330	0.748150	0.487090
H311	H31	0.088210	0.309930	0.575690
H321	H32	0.014410	0.770190	0.143410
H331	H33	0.033370	0.155670	0.340120
H341	H34	0.430030	0.446070	0.177280
H351	H35	0.096150	0.062930	0.776230
H361	H36	0.903840	0.045920	0.502480
H371	H37	0.309930	0.088210	0.075690
H381	H38	0.179770	0.394290	0.121220
H391	H39	0.301280	0.243240	0.097360
H401	H40	0.038550	0.159370	0.100780
H411	H41	0.856010	0.754290	0.143250
H421	H42	0.159920	0.290560	0.753710
H431	H43	0.273590	0.977550	0.653830
H441	H44	0.006180	0.305580	0.730910
H451	H45	0.826800	0.542220	0.641750
H461	H46	0.754290	0.856010	0.643250
H471	H47	0.848350	0.369650	0.311400
H481	H48	0.394290	0.179770	0.621220
C11	C1	0.202590	0.989170	0.851860
C21	C2	0.744790	0.821250	0.067150
C31	C3	0.562520	0.374840	0.635600
C41	C4	0.282110	0.900890	0.922320
C51	C5	0.793680	0.988920	0.613460
C61	C6	0.815120	0.680240	0.613720
C71	C7	0.266590	0.965390	0.756610
C81	C8	0.102750	0.307590	0.611290
C91	C9	0.094010	0.039710	0.209100
C101	C10	0.931960	0.324580	0.638300
C111	C11	0.861610	0.912790	0.526980
C121	C12	0.146970	0.043870	0.635950
C131	C13	0.377690	0.468050	0.158900
C141	C14	0.213290	0.968070	0.904050
C151	C15	0.837270	0.707830	0.519040
C161	C16	0.988920	0.793680	0.113460
C171	C17	0.530080	0.226480	0.600240
C181	C18	0.374840	0.562520	0.135600
C191	C19	0.593800	0.298060	0.606260
C201	C20	0.989170	0.202590	0.351860
C211	C21	0.217890	0.294950	0.677730
C221	C22	0.196790	0.014230	0.720710
C231	C23	0.108790	0.057870	0.741060
C241	C24	0.310170	0.313330	0.189290
C251	C25	0.887560	0.296480	0.478680
C261	C26	0.195660	0.301300	0.624350
C271	C27	0.707830	0.837270	0.019040
C281	C28	0.893730	0.783470	0.113560
C291	C29	0.405680	0.303620	0.655040
C301	C30	0.261040	0.945320	0.816480
C311	C31	0.215180	0.007160	0.667680
C321	C32	0.855400	0.339780	0.386950
C331	C33	0.313330	0.310170	0.689290
C341	C34	0.031190	0.310370	0.651180
C351	C35	0.304100	0.053720	0.204140
C361	C36	0.965390	0.266590	0.256610
C371	C37	0.816890	0.854270	0.569000
C381	C38	0.821250	0.744790	0.567150
C391	C39	0.324580	0.931960	0.138300
C401	C40	0.339780	0.855400	0.886950
C411	C41	0.329940	0.878020	0.834700
C421	C42	0.146060	0.295660	0.717950
C431	C43	0.850060	0.610220	0.519280
C441	C44	0.007160	0.215180	0.167680
C451	C45	0.298060	0.593800	0.106260
C461	C46	0.310370	0.031190	0.151180
C471	C47	0.089020	0.059760	0.156240
C481	C48	0.436480	0.228760	0.624920
C491	C49	0.053720	0.304100	0.704140
C501	C50	0.968070	0.213290	0.404050
C511	C51	0.057870	0.108790	0.241060
C521	C52	0.983350	0.119650	0.622840
C531	C53	0.039710	0.094010	0.709100
C541	C54	0.912790	0.861610	0.026980
C551	C55	0.007860	0.870940	0.030800
C561	C56	0.119650	0.983350	0.122840
C571	C57	0.680240	0.815120	0.113720
C581	C58	0.014230	0.196790	0.220710
C591	C59	0.829970	0.584310	0.610370
C601	C60	0.854270	0.816890	0.069000
C611	C61	0.226480	0.530080	0.100240
C621	C62	0.870940	0.007860	0.530800
C631	C63	0.468050	0.377690	0.658900
C641	C64	0.698910	0.297050	0.588620
C651	C65	0.296480	0.887560	0.978680
C661	C66	0.610220	0.850060	0.019280
C671	C67	0.059760	0.089020	0.656240
C681	C68	0.228760	0.436480	0.124920
C691	C69	0.584310	0.829970	0.110370
C701	C70	0.878020	0.329940	0.334700
C711	C71	0.307590	0.102750	0.111290
C721	C72	0.900890	0.282110	0.422320
C731	C73	0.301300	0.195660	0.124350
C741	C74	0.783470	0.893730	0.613560
C751	C75	0.303620	0.405680	0.155040
C761	C76	0.294950	0.217890	0.177730
C771	C77	0.295660	0.146060	0.217950
C781	C78	0.297050	0.698910	0.088620
C791	C79	0.043870	0.146970	0.135950
C801	C80	0.945320	0.261040	0.316480
N11	N1	0.046850	0.836010	0.072040
N21	N2	0.836010	0.046850	0.572040
N31	N3	0.848980	0.548940	0.564120
N41	N4	0.548940	0.848980	0.064120
O11	O1	0.219560	0.890460	0.009730
O21	O2	0.939330	0.342710	0.232640
O31	O3	0.898030	0.134570	0.645750
O41	O4	0.380030	0.874670	0.991400
O51	O5	0.310360	0.911260	0.093580
O61	O6	0.219260	0.749800	0.094780
O71	O7	0.134570	0.898030	0.145750
O81	O8	0.342710	0.939330	0.732640
O91	O9	0.340380	0.316180	0.231510
O101	O10	0.749800	0.219260	0.594780
O111	O11	0.730270	0.379910	0.572250
O121	O12	0.890460	0.219560	0.509730
O131	O13	0.316180	0.340380	0.731510
O141	O14	0.870190	0.351750	0.673030
O151	O15	0.136610	0.002170	0.073940
O161	O16	0.351750	0.870190	0.173030
O171	O17	0.379910	0.730270	0.072250
O181	O18	0.874670	0.380030	0.491400
O191	O19	0.002170	0.136610	0.573940
O201	O20	0.911260	0.310360	0.593580
Zn51	Zn5	0.124360	0.818200	0.420560
Zn61	Zn6	0.818200	0.124360	0.920560
Zn71	Zn7	0.153430	0.591870	0.441590
Zn81	Zn8	0.591870	0.153430	0.941590
H491	H49	0.825630	0.001270	0.072780
H501	H50	0.911790	0.690070	0.424310
H511	H51	0.160670	0.251850	0.512910
H521	H52	0.022450	0.726410	0.846170
H531	H53	0.576250	0.395090	0.860500
H541	H54	0.840080	0.709440	0.246290
H551	H55	0.823530	0.449930	0.920420
H561	H56	0.553930	0.569970	0.322720
H571	H57	0.961450	0.840630	0.899220
H581	H58	0.878440	0.019780	0.776980
H591	H59	0.630350	0.151650	0.188600
H601	H60	0.140160	0.413760	0.513090
H611	H61	0.694420	0.993820	0.769090
H621	H62	0.395090	0.576250	0.360500
H631	H63	0.251850	0.160670	0.012910
H641	H64	0.820230	0.605710	0.878780
H651	H65	0.605710	0.820230	0.378780
H661	H66	0.726410	0.022450	0.346170
H671	H67	0.143990	0.245710	0.856750
H681	H68	0.844330	0.966630	0.159880
H691	H69	0.993820	0.694420	0.269090
H701	H70	0.966630	0.844330	0.659880
H711	H71	0.449930	0.823530	0.420420
H721	H72	0.756760	0.698720	0.402640
H731	H73	0.569970	0.553930	0.822720
H741	H74	0.840630	0.961450	0.399220
H751	H75	0.614870	0.190530	0.101260
H761	H76	0.190530	0.614870	0.601260
H771	H77	0.937070	0.903850	0.723770
H781	H78	0.114580	0.110640	0.503620
H791	H79	0.198890	0.298150	0.353230
H801	H80	0.110640	0.114580	0.003620
H811	H81	0.298150	0.198890	0.853230
H821	H82	0.096160	0.954080	0.497520
H831	H83	0.151650	0.630350	0.688600
H841	H84	0.985590	0.229810	0.856590
H851	H85	0.903850	0.937070	0.223770
H861	H86	0.229810	0.985590	0.356590
H871	H87	0.690070	0.911790	0.924310
H881	H88	0.173200	0.457780	0.358250
H891	H89	0.457780	0.173200	0.858250
H901	H90	0.001270	0.825630	0.572780
H911	H91	0.954080	0.096160	0.997520
H921	H92	0.698720	0.756760	0.902640
H931	H93	0.019780	0.878440	0.276980
H941	H94	0.709440	0.840080	0.746290
H951	H95	0.245710	0.143990	0.356750
H961	H96	0.413760	0.140160	0.013090
C811	C81	0.121980	0.670060	0.665300
C821	C82	0.563520	0.771240	0.375080
C831	C83	0.594320	0.696380	0.344960
C841	C84	0.853940	0.704340	0.282050
C851	C85	0.853030	0.956130	0.364050
C861	C86	0.087210	0.138390	0.973020
C871	C87	0.112440	0.703520	0.521320
C881	C88	0.717890	0.099110	0.077680
C891	C89	0.660220	0.144600	0.113050
C901	C90	0.255210	0.178750	0.932850
C911	C91	0.129060	0.992140	0.469200
C921	C92	0.149940	0.389780	0.480720
C931	C93	0.216530	0.106270	0.386440
C941	C94	0.705050	0.782110	0.822270
C951	C95	0.622310	0.531950	0.841100
C961	C96	0.910980	0.940240	0.843760
C971	C97	0.803210	0.985770	0.279290
C981	C98	0.956130	0.853030	0.864050
C991	C99	0.992140	0.129060	0.969200
C1001	C100	0.733410	0.034610	0.243390
C1011	C101	0.946280	0.695900	0.295860
C1021	C102	0.686670	0.689830	0.310710
C1031	C103	0.011080	0.206320	0.886540
C1041	C104	0.675420	0.068040	0.861700
C1051	C105	0.695900	0.946280	0.795860
C1061	C106	0.804340	0.698700	0.375650
C1071	C107	0.692410	0.897250	0.888710
C1081	C108	0.702950	0.301090	0.911380
C1091	C109	0.625160	0.437480	0.864400
C1101	C110	0.389780	0.149940	0.980720
C1111	C111	0.786710	0.031930	0.095950
C1121	C112	0.183110	0.145730	0.431000
C1131	C113	0.880350	0.016650	0.877160
C1141	C114	0.406200	0.701940	0.393740
C1151	C115	0.031930	0.786710	0.595950
C1161	C116	0.670060	0.121980	0.165300
C1171	C117	0.068040	0.675420	0.361700
C1181	C118	0.696380	0.594320	0.844960
C1191	C119	0.531950	0.622310	0.341100
C1201	C120	0.437480	0.625160	0.364400
C1211	C121	0.162730	0.292170	0.480960
C1221	C122	0.968810	0.689630	0.348820
C1231	C123	0.782110	0.705050	0.322270
C1241	C124	0.144600	0.660220	0.613050
C1251	C125	0.985770	0.803210	0.779290
C1261	C126	0.469920	0.773520	0.399760
C1271	C127	0.178750	0.255210	0.432850
C1281	C128	0.773520	0.469920	0.899760
C1291	C129	0.138390	0.087210	0.473020
C1301	C130	0.016650	0.880350	0.377160
C1311	C131	0.689830	0.686670	0.810710
C1321	C132	0.942130	0.891210	0.758940
C1331	C133	0.703520	0.112440	0.021320
C1341	C134	0.891210	0.942130	0.258940
C1351	C135	0.960290	0.905990	0.290900
C1361	C136	0.170030	0.415690	0.389630
C1371	C137	0.784820	0.992840	0.332320
C1381	C138	0.738960	0.054680	0.183520
C1391	C139	0.704340	0.853940	0.782050
C1401	C140	0.701940	0.406200	0.893740
C1411	C141	0.099110	0.717890	0.577680
C1421	C142	0.771240	0.563520	0.875080
C1431	C143	0.184880	0.319760	0.386280
C1441	C144	0.145730	0.183110	0.931000
C1451	C145	0.797410	0.010830	0.148140
C1461	C146	0.698700	0.804340	0.875650
C1471	C147	0.897250	0.692410	0.388710
C1481	C148	0.206320	0.011080	0.386540
C1491	C149	0.054680	0.738960	0.683520
C1501	C150	0.992840	0.784820	0.832320
C1511	C151	0.301090	0.702950	0.411380
C1521	C152	0.905990	0.960290	0.790900
C1531	C153	0.940240	0.910980	0.343760
C1541	C154	0.292170	0.162730	0.980960
C1551	C155	0.319760	0.184880	0.886280
C1561	C156	0.106270	0.216530	0.886440
C1571	C157	0.034610	0.733410	0.743390
C1581	C158	0.689630	0.968810	0.848820
C1591	C159	0.010830	0.797410	0.648140
C1601	C160	0.415690	0.170030	0.889630
N51	N5	0.451060	0.151020	0.935880
N61	N6	0.953150	0.163990	0.927960
N71	N7	0.151020	0.451060	0.435880
N81	N8	0.163990	0.953150	0.427960
O211	O21	0.619970	0.125330	0.008600
O221	O22	0.648250	0.129810	0.826970
O231	O23	0.060670	0.657290	0.767360
O241	O24	0.997830	0.863390	0.426060
O251	O25	0.125330	0.619970	0.508600
O261	O26	0.865430	0.101970	0.854250
O271	O27	0.780740	0.250200	0.905220
O281	O28	0.659620	0.683820	0.768490
O291	O29	0.657290	0.060670	0.267360
O301	O30	0.620090	0.269730	0.927750
O311	O31	0.101970	0.865430	0.354250
O321	O32	0.088740	0.689640	0.406420
O331	O33	0.689640	0.088740	0.906420
O341	O34	0.250200	0.780740	0.405220
O351	O35	0.129810	0.648250	0.326970
O361	O36	0.863390	0.997830	0.926060
O371	O37	0.683820	0.659620	0.268490
O381	O38	0.109540	0.780440	0.490270
O391	O39	0.269730	0.620090	0.427750
O401	O40	0.780440	0.109540	0.990270
