data_VIWHUG_clean_PM
_symmetry_space_group_name_H-M	'P1'
_cell_length_a	8.264000
_cell_length_b	18.439900
_cell_length_c	19.180000
_cell_angle_alpha	110.063000
_cell_angle_beta	90.000000
_cell_angle_gamma	102.949000
_symmetry_Int_Tables_number 1

loop_
_symmetry_equiv_pos_as_xyz
'x,y,z'

loop_
_atom_site_label
_atom_site_type_symbol
_atom_site_fract_x
_atom_site_fract_y
_atom_site_fract_z
Zn11	Zn1	0.526850	0.582920	0.227520
Zn21	Zn2	0.275020	0.000000	0.750000
Zn31	Zn3	0.473150	0.417080	0.772480
Zn41	Zn4	0.724980	0.000000	0.250000
Zn51	Zn5	0.056070	0.582920	0.727520
Zn61	Zn6	0.943930	0.417080	0.272480
H11	H1	0.433000	0.789800	0.984000
H21	H2	0.540600	0.155400	0.191800
H31	H3	0.187000	0.211000	0.454100
H41	H4	0.028100	0.999000	0.335600
H51	H5	0.366000	0.168000	0.366900
H61	H6	0.614800	0.155400	0.691800
H71	H7	0.457500	0.244000	0.703900
H81	H8	0.588300	0.423600	0.295400
H91	H9	0.008900	0.340200	0.782700
H101	H10	0.567000	0.210200	0.016000
H111	H11	0.970900	0.999000	0.835600
H121	H12	0.729900	0.937600	0.448500
H131	H13	0.385800	0.655800	0.924300
H141	H14	0.029100	0.001000	0.164400
H151	H15	0.730000	0.344200	0.575700
H161	H16	0.976000	0.789000	0.045900
H171	H17	0.280100	0.083000	0.160500
H181	H18	0.356800	0.789800	0.484000
H191	H19	0.459400	0.844600	0.808200
H201	H20	0.197100	0.917000	0.339500
H211	H21	0.802000	0.168000	0.866900
H221	H22	0.634000	0.832000	0.633100
H231	H23	0.786500	0.244000	0.203900
H241	H24	0.835300	0.423600	0.795400
H251	H25	0.863500	0.738600	0.689300
H261	H26	0.281700	0.175200	0.812200
H271	H27	0.270000	0.655800	0.424300
H281	H28	0.270100	0.062400	0.551500
H291	H29	0.411700	0.576400	0.704600
H301	H30	0.198000	0.832000	0.133100
H311	H31	0.207700	0.937600	0.948500
H321	H32	0.385200	0.844600	0.308200
H331	H33	0.643200	0.210200	0.516000
H341	H34	0.826100	0.128200	0.512000
H351	H35	0.802900	0.083000	0.660500
H361	H36	0.302100	0.128200	0.012000
H371	H37	0.124900	0.261400	0.810700
H381	H38	0.971900	0.001000	0.664400
H391	H39	0.024000	0.211000	0.954100
H401	H40	0.991100	0.659800	0.217300
H411	H41	0.718300	0.824800	0.187800
H421	H42	0.213500	0.756000	0.796100
H431	H43	0.164700	0.576400	0.204600
H441	H44	0.875100	0.738600	0.189300
H451	H45	0.439600	0.014800	0.459700
H461	H46	0.697900	0.871800	0.988000
H471	H47	0.792300	0.062400	0.051500
H481	H48	0.542500	0.756000	0.296100
H491	H49	0.813000	0.789000	0.545900
H501	H50	0.173900	0.871800	0.488000
H511	H51	0.719900	0.917000	0.839500
H521	H52	0.331300	0.340200	0.282700
H531	H53	0.575200	0.014800	0.959700
H541	H54	0.560400	0.985200	0.540300
H551	H55	0.668700	0.659800	0.717300
H561	H56	0.424800	0.985200	0.040300
H571	H57	0.106500	0.824800	0.687800
H581	H58	0.136500	0.261400	0.310700
H591	H59	0.893500	0.175200	0.312200
H601	H60	0.614200	0.344200	0.075700
C11	C1	0.662690	0.209580	0.713500
C21	C2	0.804840	0.312480	0.572000
C31	C3	0.072000	0.857200	0.987300
C41	C4	0.248200	0.767600	0.462400
C51	C5	0.921050	0.700700	0.399500
C61	C6	0.569530	0.263060	0.721200
C71	C7	0.758740	0.827080	0.543300
C81	C8	0.710550	0.916100	0.485900
C91	C9	0.195160	0.687520	0.428000
C101	C10	0.198490	0.219380	0.066800
C111	C11	0.799200	0.146800	0.904600
C121	C12	0.480600	0.232400	0.037600
C131	C13	0.571430	0.910660	0.593300
C141	C14	0.200800	0.853200	0.095400
C151	C15	0.241260	0.172920	0.456700
C161	C16	0.746680	0.665960	0.363300
C171	C17	0.519400	0.767600	0.962400
C181	C18	0.899850	0.103500	0.692400
C191	C19	0.203650	0.103500	0.192400
C201	C20	0.445400	0.933800	0.647800
C211	C21	0.337310	0.790420	0.286500
C221	C22	0.413160	0.436320	0.137400
C231	C23	0.208650	0.630900	0.225400
C241	C24	0.620990	0.652180	0.898300
C251	C25	0.322500	0.183200	0.034700
C261	C26	0.339230	0.910660	0.093300
C271	C27	0.976840	0.563680	0.362600
C281	C28	0.059340	0.818080	0.264000
C291	C29	0.492360	0.687520	0.928000
C301	C30	0.511600	0.066200	0.852200
C311	C31	0.577000	0.681000	0.732200
C321	C32	0.100150	0.896500	0.307600
C331	C33	0.393300	0.056400	0.459800
C341	C34	0.663100	0.056400	0.959800
C351	C35	0.080720	0.334040	0.136700
C361	C36	0.423000	0.319000	0.267800
C371	C37	0.430470	0.736940	0.278800
C381	C38	0.785200	0.857200	0.487300
C391	C39	0.940660	0.181920	0.736000
C401	C40	0.834370	0.236940	0.738700
C411	C41	0.693530	0.263060	0.221200
C421	C42	0.205550	0.916100	0.985900
C431	C43	0.973070	0.156140	0.281500
C441	C44	0.402570	0.236940	0.238700
C451	C45	0.241260	0.181920	0.236000
C461	C46	0.214800	0.142800	0.512700
C471	C47	0.052440	0.054080	0.195300
C481	C48	0.347600	0.146800	0.404600
C491	C49	0.779650	0.700700	0.899500
C501	C50	0.488400	0.933800	0.147800
C511	C51	0.183070	0.156140	0.781500
C521	C52	0.165630	0.763060	0.261300
C531	C53	0.078950	0.299300	0.600500
C541	C54	0.881190	0.791980	0.719100
C551	C55	0.794450	0.083900	0.014100
C561	C56	0.758740	0.818080	0.764000
C571	C57	0.089210	0.208020	0.780900
C581	C58	0.796350	0.896500	0.807600
C591	C59	0.422250	0.630900	0.725400
C601	C60	0.586840	0.563680	0.862600
C611	C61	0.979110	0.780620	0.433200
C621	C62	0.139300	0.816800	0.465300
C631	C63	0.026930	0.843860	0.718500
C641	C64	0.020890	0.219380	0.566800
C651	C65	0.453110	0.790420	0.786500
C661	C66	0.816930	0.843860	0.218500
C671	C67	0.660770	0.089340	0.906700
C681	C68	0.968810	0.347820	0.601700
C691	C69	0.577750	0.369100	0.274600
C701	C70	0.791350	0.369100	0.774600
C711	C71	0.751800	0.232400	0.537600
C721	C72	0.023160	0.436320	0.637400
C731	C73	0.001640	0.054080	0.695300
C741	C74	0.379010	0.347820	0.101700
C751	C75	0.597430	0.763060	0.761300
C761	C76	0.931660	0.172920	0.956700
C771	C77	0.253320	0.334040	0.636700
C781	C78	0.677500	0.816800	0.965300
C791	C79	0.919280	0.665960	0.863300
C801	C80	0.896000	0.319000	0.767800
C811	C81	0.336900	0.943600	0.040200
C821	C82	0.860700	0.183200	0.534700
C831	C83	0.546890	0.209580	0.213500
C841	C84	0.104000	0.681000	0.232200
C851	C85	0.652400	0.853200	0.595400
C861	C86	0.998360	0.945920	0.304700
C871	C87	0.220350	0.299300	0.100500
C881	C88	0.306470	0.736940	0.778800
C891	C89	0.031190	0.652180	0.398300
C901	C90	0.118810	0.208020	0.280900
C911	C91	0.554600	0.066200	0.352200
C921	C92	0.910790	0.791980	0.219100
C931	C93	0.507640	0.312480	0.072000
C941	C94	0.947560	0.945920	0.804700
C951	C95	0.068340	0.827080	0.043300
C961	C96	0.801510	0.780620	0.933200
C971	C97	0.428570	0.089340	0.406700
C981	C98	0.289450	0.083900	0.514100
C991	C99	0.928000	0.142800	0.012700
C1001	C100	0.606700	0.943600	0.540200
N11	N1	0.712650	0.342300	0.252500
N21	N2	0.287350	0.657700	0.747500
N31	N3	0.370350	0.657700	0.247500
N41	N4	0.940090	0.079580	0.240200
N51	N5	0.629650	0.342300	0.752500
N61	N6	0.139490	0.079580	0.740200
N71	N7	0.059910	0.920420	0.759800
N81	N8	0.860510	0.920420	0.259800
O11	O1	0.370380	0.334560	0.596500
O21	O2	0.908030	0.641660	0.792800
O31	O3	0.698080	0.529560	0.863200
O41	O4	0.400400	0.011400	0.848900
O51	O5	0.168520	0.470440	0.636800
O61	O6	0.831480	0.529560	0.363200
O71	O7	0.301920	0.470440	0.136800
O81	O8	0.035820	0.665440	0.903500
O91	O9	0.629620	0.665440	0.403500
O101	O10	0.916660	0.473720	0.670200
O111	O11	0.505200	0.103000	0.810500
O121	O12	0.047520	0.169440	0.071700
O131	O13	0.121920	0.169440	0.571700
O141	O14	0.599600	0.988600	0.151100
O151	O15	0.083340	0.526280	0.329800
O161	O16	0.389000	0.988600	0.651100
O171	O17	0.442940	0.526280	0.829800
O181	O18	0.952480	0.830560	0.928300
O191	O19	0.964180	0.334560	0.096500
O201	O20	0.597800	0.103000	0.310500
O211	O21	0.878080	0.830560	0.428300
O221	O22	0.733630	0.641660	0.292800
O231	O23	0.611000	0.011400	0.348900
O241	O24	0.494800	0.897000	0.189500
O251	O25	0.266370	0.358340	0.707200
O261	O26	0.091970	0.358340	0.207200
O271	O27	0.402200	0.897000	0.689500
O281	O28	0.557060	0.473720	0.170200
