data_VIWLOE_clean_PM
_symmetry_space_group_name_H-M	'P1'
_cell_length_a	10.971800
_cell_length_b	19.782100
_cell_length_c	20.266800
_cell_angle_alpha	90.000000
_cell_angle_beta	90.000000
_cell_angle_gamma	99.312000
_symmetry_Int_Tables_number 1

loop_
_symmetry_equiv_pos_as_xyz
'x,y,z'

loop_
_atom_site_label
_atom_site_type_symbol
_atom_site_fract_x
_atom_site_fract_y
_atom_site_fract_z
Ce11	Ce1	0.342330	0.581670	0.375580
Ce21	Ce2	0.037410	0.844200	0.373610
Ce31	Ce3	0.842330	0.081670	0.124420
Ce41	Ce4	0.462590	0.655800	0.873610
Ce51	Ce5	0.157670	0.918330	0.875580
Ce61	Ce6	0.537410	0.344200	0.126390
Ce71	Ce7	0.657670	0.418330	0.624420
Ce81	Ce8	0.962590	0.155800	0.626390
Cu11	Cu1	0.295670	0.588210	0.173890
Cu21	Cu2	0.581060	0.330900	0.326710
Cu31	Cu3	0.081060	0.830900	0.173290
Cu41	Cu4	0.204330	0.911790	0.673890
Cu51	Cu5	0.704330	0.411790	0.826110
Cu61	Cu6	0.918940	0.169100	0.826710
Cu71	Cu7	0.418940	0.669100	0.673290
Cu81	Cu8	0.795670	0.088210	0.326110
H11	H1	0.608900	0.745200	0.310100
H21	H2	0.231200	0.324800	0.682100
H31	H3	0.371600	0.994700	0.305300
H41	H4	0.416600	0.065200	0.577200
H51	H5	0.108900	0.245200	0.189900
H61	H6	0.987600	0.574500	0.685500
H71	H7	0.128400	0.505300	0.805300
H81	H8	0.268800	0.175200	0.182100
H91	H9	0.871600	0.494700	0.194700
H101	H10	0.012400	0.425500	0.314500
H111	H11	0.583400	0.934800	0.422800
H121	H12	0.891100	0.754800	0.810100
H131	H13	0.768800	0.675200	0.317900
H141	H14	0.628400	0.005300	0.694700
H151	H15	0.512400	0.925500	0.185500
H161	H16	0.391100	0.254800	0.689900
H171	H17	0.487600	0.074500	0.814500
H181	H18	0.083400	0.434800	0.077200
H191	H19	0.731200	0.824800	0.817900
H201	H20	0.916600	0.565200	0.922800
C11	C1	0.076400	0.551500	0.965600
C21	C2	0.450300	0.038800	0.546200
C31	C3	0.650000	0.968900	0.718700
C41	C4	0.468100	0.110700	0.789600
C51	C5	0.889400	0.650200	0.250100
C61	C6	0.610600	0.849800	0.750100
C71	C7	0.487500	0.769800	0.242700
C81	C8	0.823200	0.051100	0.767200
C91	C9	0.753600	0.979800	0.759400
C101	C10	0.797200	0.528400	0.758900
C111	C11	0.049700	0.461200	0.046200
C121	C12	0.089800	0.281300	0.215300
C131	C13	0.836300	0.654900	0.789400
C141	C14	0.844100	0.394800	0.073900
C151	C15	0.842100	0.321700	0.334600
C161	C16	0.746400	0.520200	0.259400
C171	C17	0.910200	0.718700	0.784700
C181	C18	0.874000	0.487800	0.987000
C191	C19	0.581000	0.300600	0.766600
C201	C20	0.285600	0.424500	0.704100
C211	C21	0.783400	0.852700	0.327400
C221	C22	0.919000	0.199400	0.266600
C231	C23	0.297200	0.028400	0.741100
C241	C24	0.419000	0.699400	0.233400
C251	C25	0.261300	0.523000	0.029900
C261	C26	0.176800	0.948900	0.232800
C271	C27	0.785600	0.924500	0.795900
C281	C28	0.950300	0.538800	0.953800
C291	C29	0.655900	0.105200	0.573900
C301	C30	0.012500	0.730200	0.742700
C311	C31	0.406700	0.430800	0.668600
C321	C32	0.365300	0.100200	0.748300
C331	C33	0.336300	0.154900	0.710600
C341	C34	0.537400	0.105300	0.327800
C351	C35	0.389400	0.150200	0.249900
C361	C36	0.512500	0.230200	0.757300
C371	C37	0.216600	0.147300	0.672600
C381	C38	0.956700	0.721400	0.240500
C391	C39	0.787600	0.639400	0.292200
C401	C40	0.037400	0.605300	0.172200
C411	C41	0.906700	0.930800	0.831400
C421	C42	0.462600	0.894700	0.672200
C431	C43	0.212400	0.360600	0.707800
C441	C44	0.456700	0.221400	0.259500
C451	C45	0.093300	0.069200	0.168600
C461	C46	0.865300	0.600200	0.751700
C471	C47	0.031900	0.389300	0.289600
C481	C48	0.110600	0.349800	0.749900
C491	C49	0.214400	0.075500	0.204100
C501	C50	0.626000	0.012200	0.487000
C511	C51	0.043300	0.278600	0.759500
C521	C52	0.342100	0.821700	0.165400
C531	C53	0.663700	0.845100	0.289400
C541	C54	0.712400	0.860600	0.792200
C551	C55	0.657900	0.178300	0.834600
C561	C56	0.716600	0.647300	0.827400
C571	C57	0.593300	0.569200	0.331400
C581	C58	0.702800	0.971600	0.258900
C591	C59	0.738700	0.477000	0.970100
C601	C60	0.374000	0.987800	0.513000
C611	C61	0.157900	0.678300	0.665400
C621	C62	0.962600	0.394700	0.827800
C631	C63	0.968100	0.610700	0.710400
C641	C64	0.987500	0.269800	0.257300
C651	C65	0.041500	0.674300	0.706000
C661	C66	0.578400	0.904200	0.713600
C671	C67	0.958500	0.325700	0.294000
C681	C68	0.850000	0.531100	0.218700
C691	C69	0.423600	0.948500	0.465600
C701	C70	0.761300	0.023000	0.470100
C711	C71	0.283400	0.352700	0.172600
C721	C72	0.344100	0.894800	0.426100
C731	C73	0.287600	0.139400	0.207800
C741	C74	0.253600	0.479800	0.740600
C751	C75	0.150000	0.468900	0.781300
C761	C76	0.126000	0.512200	0.013000
C771	C77	0.421600	0.095800	0.286400
C781	C78	0.634700	0.899800	0.251700
C791	C79	0.238700	0.977000	0.529900
C801	C80	0.246400	0.020200	0.240600
C811	C81	0.202800	0.471600	0.241100
C821	C82	0.676800	0.448900	0.267200
C831	C83	0.350000	0.031100	0.281300
C841	C84	0.576400	0.051500	0.534400
C851	C85	0.410200	0.218700	0.715300
C861	C86	0.078400	0.404200	0.786400
C871	C87	0.549700	0.961200	0.453800
C881	C88	0.714400	0.575500	0.295900
C891	C89	0.923600	0.448500	0.034400
C901	C90	0.134700	0.399800	0.248300
C911	C91	0.589800	0.781300	0.284700
C921	C92	0.541500	0.174300	0.794000
C931	C93	0.458500	0.825700	0.206000
C941	C94	0.543300	0.778600	0.740500
C951	C95	0.155900	0.605200	0.926100
C961	C96	0.081000	0.800600	0.733400
C971	C97	0.323200	0.551100	0.732800
C981	C98	0.921600	0.595800	0.213600
C991	C99	0.531900	0.889300	0.210400
C1001	C100	0.163700	0.345100	0.210600
O11	O1	0.679000	0.522500	0.990400
O21	O2	0.082400	0.105400	0.118030
O31	O3	0.123700	0.816000	0.676860
O41	O4	0.837100	0.073600	0.825700
O51	O5	0.140800	0.915100	0.283080
O61	O6	0.720400	0.993000	0.317200
O71	O7	0.123200	0.110680	0.698680
O81	O8	0.731200	0.006500	0.207900
O91	O9	0.999900	0.263700	0.815800
O101	O10	0.258700	0.697600	0.697070
O111	O11	0.359200	0.584900	0.783080
O121	O12	0.728300	0.395600	0.073980
O131	O13	0.876300	0.184000	0.323140
O141	O14	0.499900	0.763700	0.684200
O151	O15	0.529600	0.101900	0.388100
O161	O16	0.228300	0.895600	0.426020
O171	O17	0.821000	0.977500	0.490400
O181	O18	0.231200	0.506500	0.292100
O191	O19	0.662900	0.426400	0.325700
O201	O20	0.150200	0.660100	0.607200
O211	O21	0.394500	0.852400	0.394000
O221	O22	0.999800	0.968700	0.806190
O231	O23	0.637500	0.113600	0.295000
O241	O24	0.337100	0.573600	0.674300
O251	O25	0.376800	0.389320	0.198680
O261	O26	0.417600	0.394600	0.618030
O271	O27	0.268800	0.993500	0.792100
O281	O28	0.000100	0.736300	0.184200
O291	O29	0.859200	0.084900	0.716920
O301	O30	0.779600	0.507000	0.817200
O311	O31	0.849800	0.339900	0.392800
O321	O32	0.894500	0.352400	0.106000
O331	O33	0.500200	0.531300	0.306190
O341	O34	0.410200	0.658700	0.281420
O351	O35	0.193200	0.926000	0.564850
O361	O36	0.640800	0.415100	0.216920
O371	O37	0.362500	0.886400	0.705000
O381	O38	0.000200	0.031300	0.193810
O391	O39	0.650200	0.160100	0.892800
O401	O40	0.207800	0.178900	0.619660
O411	O41	0.792200	0.821100	0.380340
O421	O42	0.537900	0.737400	0.787600
O431	O43	0.499800	0.468700	0.693810
O441	O44	0.768800	0.493500	0.707900
O451	O45	0.089800	0.841300	0.781420
O461	O46	0.970400	0.398100	0.888100
O471	O47	0.771700	0.104400	0.573980
O481	O48	0.806800	0.074000	0.435150
O491	O49	0.623700	0.316000	0.823140
O501	O50	0.105500	0.647600	0.894000
O511	O51	0.589800	0.341300	0.718580
O521	O52	0.029600	0.601900	0.111900
O531	O53	0.582400	0.605400	0.381970
O541	O54	0.605500	0.147600	0.606000
O551	O55	0.349800	0.839900	0.107200
O561	O56	0.271700	0.604400	0.926020
O571	O57	0.741300	0.302400	0.302930
O581	O58	0.470400	0.898100	0.611900
O591	O59	0.862500	0.386400	0.795000
O601	O60	0.292200	0.321100	0.119660
O611	O61	0.707800	0.678900	0.880340
O621	O62	0.910200	0.158700	0.218580
O631	O63	0.037900	0.237400	0.712400
O641	O64	0.279600	0.007000	0.682800
O651	O65	0.137500	0.613600	0.205000
O661	O66	0.241300	0.802400	0.197070
O671	O67	0.917600	0.894600	0.881970
O681	O68	0.162900	0.926400	0.174300
O691	O69	0.179000	0.022500	0.509600
O701	O70	0.321000	0.477500	0.009600
O711	O71	0.876800	0.889320	0.301320
O721	O72	0.758700	0.197600	0.802930
O731	O73	0.500100	0.236300	0.315800
O741	O74	0.962100	0.762600	0.287600
O751	O75	0.220400	0.493000	0.182800
O761	O76	0.306800	0.574000	0.064850
O771	O77	0.376300	0.684000	0.176860
O781	O78	0.623200	0.610680	0.801320
O791	O79	0.462100	0.262600	0.212400
O801	O80	0.693200	0.426000	0.935150
