data_VIWMOF_clean_PM
_symmetry_space_group_name_H-M	'P1'
_cell_length_a	25.704000
_cell_length_b	25.704000
_cell_length_c	25.704000
_cell_angle_alpha	90.000000
_cell_angle_beta	90.000000
_cell_angle_gamma	90.000000
_symmetry_Int_Tables_number 1

loop_
_symmetry_equiv_pos_as_xyz
'x,y,z'

loop_
_atom_site_label
_atom_site_type_symbol
_atom_site_fract_x
_atom_site_fract_y
_atom_site_fract_z
N11	N1	0.197100	0.803500	0.391700
C11	C1	0.235900	0.812300	0.423500
H11	H1	0.270300	0.814800	0.412500
N21	N2	0.221200	0.817500	0.474500
C21	C2	0.155200	0.803000	0.423300
H21	H2	0.121200	0.799900	0.411200
C31	C3	0.166700	0.807000	0.470900
H31	H3	0.143800	0.803700	0.498700
C41	C4	0.252000	0.825400	0.521400
C51	C5	0.311900	0.839800	0.607300
C61	C6	0.334100	0.827400	0.566000
H41	H4	0.370100	0.824000	0.565100
C71	C7	0.229100	0.834200	0.569200
H51	H5	0.193100	0.834100	0.572700
C81	C8	0.259800	0.842800	0.610600
H61	H6	0.244600	0.851100	0.642400
C91	C9	0.302400	0.817900	0.517600
H71	H7	0.317800	0.807200	0.486600
N31	N3	0.302900	0.196500	0.891700
C101	C10	0.264100	0.187700	0.923500
H81	H8	0.229700	0.185200	0.912500
N41	N4	0.278800	0.182500	0.974500
C111	C11	0.344800	0.197000	0.923300
H91	H9	0.378800	0.200100	0.911200
C121	C12	0.333300	0.193000	0.970900
H101	H10	0.356200	0.196300	0.998700
C131	C13	0.248000	0.174600	0.021400
C141	C14	0.188100	0.160200	0.107300
C151	C15	0.165900	0.172600	0.066000
H111	H11	0.129900	0.176000	0.065100
C161	C16	0.270900	0.165800	0.069200
H121	H12	0.306900	0.165900	0.072700
C171	C17	0.240200	0.157200	0.110600
H131	H13	0.255400	0.148900	0.142400
C181	C18	0.197600	0.182100	0.017600
H141	H14	0.182200	0.192800	0.986600
N51	N5	0.802900	0.303500	0.108300
C191	C19	0.764100	0.312300	0.076500
H151	H15	0.729700	0.314800	0.087500
N61	N6	0.778800	0.317500	0.025500
C201	C20	0.844800	0.303000	0.076700
H161	H16	0.878800	0.299900	0.088800
C211	C21	0.833300	0.307000	0.029100
H171	H17	0.856200	0.303700	0.001300
C221	C22	0.748000	0.325400	0.978600
C231	C23	0.688100	0.339800	0.892700
C241	C24	0.665900	0.327400	0.934000
H181	H18	0.629900	0.324000	0.934900
C251	C25	0.770900	0.334200	0.930800
H191	H19	0.806900	0.334100	0.927300
C261	C26	0.740200	0.342800	0.889400
H201	H20	0.755400	0.351100	0.857600
C271	C27	0.697600	0.317900	0.982400
H211	H21	0.682200	0.307200	0.013400
N71	N7	0.697100	0.696500	0.608300
C281	C28	0.735900	0.687700	0.576500
H221	H22	0.770300	0.685200	0.587500
N81	N8	0.721200	0.682500	0.525500
C291	C29	0.655200	0.697000	0.576700
H231	H23	0.621200	0.700100	0.588800
C301	C30	0.666700	0.693000	0.529100
H241	H24	0.643800	0.696300	0.501300
C311	C31	0.752000	0.674600	0.478600
C321	C32	0.811900	0.660200	0.392700
C331	C33	0.834100	0.672600	0.434000
H251	H25	0.870100	0.676000	0.434900
C341	C34	0.729100	0.665800	0.430800
H261	H26	0.693100	0.665900	0.427300
C351	C35	0.759800	0.657200	0.389400
H271	H27	0.744600	0.648900	0.357600
C361	C36	0.802400	0.682100	0.482400
H281	H28	0.817800	0.692800	0.513400
N91	N9	0.391700	0.197100	0.803500
C371	C37	0.423500	0.235900	0.812300
H291	H29	0.412500	0.270300	0.814800
N101	N10	0.474500	0.221200	0.817500
C381	C38	0.423300	0.155200	0.803000
H301	H30	0.411200	0.121200	0.799900
C391	C39	0.470900	0.166700	0.807000
H311	H31	0.498700	0.143800	0.803700
C401	C40	0.521400	0.252000	0.825400
C411	C41	0.607300	0.311900	0.839800
C421	C42	0.566000	0.334100	0.827400
H321	H32	0.565100	0.370100	0.824000
C431	C43	0.569200	0.229100	0.834200
H331	H33	0.572700	0.193100	0.834100
C441	C44	0.610600	0.259800	0.842800
H341	H34	0.642400	0.244600	0.851100
C451	C45	0.517600	0.302400	0.817900
H351	H35	0.486600	0.317800	0.807200
N111	N11	0.891700	0.302900	0.196500
C461	C46	0.923500	0.264100	0.187700
H361	H36	0.912500	0.229700	0.185200
N121	N12	0.974500	0.278800	0.182500
C471	C47	0.923300	0.344800	0.197000
H371	H37	0.911200	0.378800	0.200100
C481	C48	0.970900	0.333300	0.193000
H381	H38	0.998700	0.356200	0.196300
C491	C49	0.021400	0.248000	0.174600
C501	C50	0.107300	0.188100	0.160200
C511	C51	0.066000	0.165900	0.172600
H391	H39	0.065100	0.129900	0.176000
C521	C52	0.069200	0.270900	0.165800
H401	H40	0.072700	0.306900	0.165900
C531	C53	0.110600	0.240200	0.157200
H411	H41	0.142400	0.255400	0.148900
C541	C54	0.017600	0.197600	0.182100
H421	H42	0.986600	0.182200	0.192800
N131	N13	0.108300	0.802900	0.303500
C551	C55	0.076500	0.764100	0.312300
H431	H43	0.087500	0.729700	0.314800
N141	N14	0.025500	0.778800	0.317500
C561	C56	0.076700	0.844800	0.303000
H441	H44	0.088800	0.878800	0.299900
C571	C57	0.029100	0.833300	0.307000
H451	H45	0.001300	0.856200	0.303700
C581	C58	0.978600	0.748000	0.325400
C591	C59	0.892700	0.688100	0.339800
C601	C60	0.934000	0.665900	0.327400
H461	H46	0.934900	0.629900	0.324000
C611	C61	0.930800	0.770900	0.334200
H471	H47	0.927300	0.806900	0.334100
C621	C62	0.889400	0.740200	0.342800
H481	H48	0.857600	0.755400	0.351100
C631	C63	0.982400	0.697600	0.317900
H491	H49	0.013400	0.682200	0.307200
N151	N15	0.608300	0.697100	0.696500
C641	C64	0.576500	0.735900	0.687700
H501	H50	0.587500	0.770300	0.685200
N161	N16	0.525500	0.721200	0.682500
C651	C65	0.576700	0.655200	0.697000
H511	H51	0.588800	0.621200	0.700100
C661	C66	0.529100	0.666700	0.693000
H521	H52	0.501300	0.643800	0.696300
C671	C67	0.478600	0.752000	0.674600
C681	C68	0.392700	0.811900	0.660200
C691	C69	0.434000	0.834100	0.672600
H531	H53	0.434900	0.870100	0.676000
C701	C70	0.430800	0.729100	0.665800
H541	H54	0.427300	0.693100	0.665900
C711	C71	0.389400	0.759800	0.657200
H551	H55	0.357600	0.744600	0.648900
C721	C72	0.482400	0.802400	0.682100
H561	H56	0.513400	0.817800	0.692800
N171	N17	0.803500	0.391700	0.197100
C731	C73	0.812300	0.423500	0.235900
H571	H57	0.814800	0.412500	0.270300
N181	N18	0.817500	0.474500	0.221200
C741	C74	0.803000	0.423300	0.155200
H581	H58	0.799900	0.411200	0.121200
C751	C75	0.807000	0.470900	0.166700
H591	H59	0.803700	0.498700	0.143800
C761	C76	0.825400	0.521400	0.252000
C771	C77	0.839800	0.607300	0.311900
C781	C78	0.827400	0.566000	0.334100
H601	H60	0.824000	0.565100	0.370100
C791	C79	0.834200	0.569200	0.229100
H611	H61	0.834100	0.572700	0.193100
C801	C80	0.842800	0.610600	0.259800
H621	H62	0.851100	0.642400	0.244600
C811	C81	0.817900	0.517600	0.302400
H631	H63	0.807200	0.486600	0.317800
N191	N19	0.196500	0.891700	0.302900
C821	C82	0.187700	0.923500	0.264100
H641	H64	0.185200	0.912500	0.229700
N201	N20	0.182500	0.974500	0.278800
C831	C83	0.197000	0.923300	0.344800
H651	H65	0.200100	0.911200	0.378800
C841	C84	0.193000	0.970900	0.333300
H661	H66	0.196300	0.998700	0.356200
C851	C85	0.174600	0.021400	0.248000
C861	C86	0.160200	0.107300	0.188100
C871	C87	0.172600	0.066000	0.165900
H671	H67	0.176000	0.065100	0.129900
C881	C88	0.165800	0.069200	0.270900
H681	H68	0.165900	0.072700	0.306900
C891	C89	0.157200	0.110600	0.240200
H691	H69	0.148900	0.142400	0.255400
C901	C90	0.182100	0.017600	0.197600
H701	H70	0.192800	0.986600	0.182200
N211	N21	0.303500	0.108300	0.802900
C911	C91	0.312300	0.076500	0.764100
H711	H71	0.314800	0.087500	0.729700
N221	N22	0.317500	0.025500	0.778800
C921	C92	0.303000	0.076700	0.844800
H721	H72	0.299900	0.088800	0.878800
C931	C93	0.307000	0.029100	0.833300
H731	H73	0.303700	0.001300	0.856200
C941	C94	0.325400	0.978600	0.748000
C951	C95	0.339800	0.892700	0.688100
C961	C96	0.327400	0.934000	0.665900
H741	H74	0.324000	0.934900	0.629900
C971	C97	0.334200	0.930800	0.770900
H751	H75	0.334100	0.927300	0.806900
C981	C98	0.342800	0.889400	0.740200
H761	H76	0.351100	0.857600	0.755400
C991	C99	0.317900	0.982400	0.697600
H771	H77	0.307200	0.013400	0.682200
N231	N23	0.696500	0.608300	0.697100
C1001	C100	0.687700	0.576500	0.735900
H781	H78	0.685200	0.587500	0.770300
N241	N24	0.682500	0.525500	0.721200
C1011	C101	0.697000	0.576700	0.655200
H791	H79	0.700100	0.588800	0.621200
C1021	C102	0.693000	0.529100	0.666700
H801	H80	0.696300	0.501300	0.643800
C1031	C103	0.674600	0.478600	0.752000
C1041	C104	0.660200	0.392700	0.811900
C1051	C105	0.672600	0.434000	0.834100
H811	H81	0.676000	0.434900	0.870100
C1061	C106	0.665800	0.430800	0.729100
H821	H82	0.665900	0.427300	0.693100
C1071	C107	0.657200	0.389400	0.759800
H831	H83	0.648900	0.357600	0.744600
C1081	C108	0.682100	0.482400	0.802400
H841	H84	0.692800	0.513400	0.817800
Cd11	Cd1	0.199490	0.800510	0.300510
Cd21	Cd2	0.300510	0.199490	0.800510
Cd31	Cd3	0.699490	0.699490	0.699490
Cd41	Cd4	0.800510	0.300510	0.199490
N251	N25	0.343200	0.843200	0.656800
N261	N26	0.656800	0.343200	0.843200
N271	N27	0.843200	0.656800	0.343200
N281	N28	0.156800	0.156800	0.156800
N291	N29	0.197100	0.303500	0.891700
C1091	C109	0.235900	0.312300	0.923500
H851	H85	0.270300	0.314800	0.912500
N301	N30	0.221200	0.317500	0.974500
C1101	C110	0.155200	0.303000	0.923300
H861	H86	0.121200	0.299900	0.911200
C1111	C111	0.166700	0.307000	0.970900
H871	H87	0.143800	0.303700	0.998700
C1121	C112	0.252000	0.325400	0.021400
C1131	C113	0.311900	0.339800	0.107300
C1141	C114	0.334100	0.327400	0.066000
H881	H88	0.370100	0.324000	0.065100
C1151	C115	0.229100	0.334200	0.069200
H891	H89	0.193100	0.334100	0.072700
C1161	C116	0.259800	0.342800	0.110600
H901	H90	0.244600	0.351100	0.142400
C1171	C117	0.302400	0.317900	0.017600
H911	H91	0.317800	0.307200	0.986600
N311	N31	0.302900	0.696500	0.391700
C1181	C118	0.264100	0.687700	0.423500
H921	H92	0.229700	0.685200	0.412500
N321	N32	0.278800	0.682500	0.474500
C1191	C119	0.344800	0.697000	0.423300
H931	H93	0.378800	0.700100	0.411200
C1201	C120	0.333300	0.693000	0.470900
H941	H94	0.356200	0.696300	0.498700
C1211	C121	0.248000	0.674600	0.521400
C1221	C122	0.188100	0.660200	0.607300
C1231	C123	0.165900	0.672600	0.566000
H951	H95	0.129900	0.676000	0.565100
C1241	C124	0.270900	0.665800	0.569200
H961	H96	0.306900	0.665900	0.572700
C1251	C125	0.240200	0.657200	0.610600
H971	H97	0.255400	0.648900	0.642400
C1261	C126	0.197600	0.682100	0.517600
H981	H98	0.182200	0.692800	0.486600
N331	N33	0.802900	0.803500	0.608300
C1271	C127	0.764100	0.812300	0.576500
H991	H99	0.729700	0.814800	0.587500
N341	N34	0.778800	0.817500	0.525500
C1281	C128	0.844800	0.803000	0.576700
H1001	H100	0.878800	0.799900	0.588800
C1291	C129	0.833300	0.807000	0.529100
H1011	H101	0.856200	0.803700	0.501300
C1301	C130	0.748000	0.825400	0.478600
C1311	C131	0.688100	0.839800	0.392700
C1321	C132	0.665900	0.827400	0.434000
H1021	H102	0.629900	0.824000	0.434900
C1331	C133	0.770900	0.834200	0.430800
H1031	H103	0.806900	0.834100	0.427300
C1341	C134	0.740200	0.842800	0.389400
H1041	H104	0.755400	0.851100	0.357600
C1351	C135	0.697600	0.817900	0.482400
H1051	H105	0.682200	0.807200	0.513400
N351	N35	0.697100	0.196500	0.108300
C1361	C136	0.735900	0.187700	0.076500
H1061	H106	0.770300	0.185200	0.087500
N361	N36	0.721200	0.182500	0.025500
C1371	C137	0.655200	0.197000	0.076700
H1071	H107	0.621200	0.200100	0.088800
C1381	C138	0.666700	0.193000	0.029100
H1081	H108	0.643800	0.196300	0.001300
C1391	C139	0.752000	0.174600	0.978600
C1401	C140	0.811900	0.160200	0.892700
C1411	C141	0.834100	0.172600	0.934000
H1091	H109	0.870100	0.176000	0.934900
C1421	C142	0.729100	0.165800	0.930800
H1101	H110	0.693100	0.165900	0.927300
C1431	C143	0.759800	0.157200	0.889400
H1111	H111	0.744600	0.148900	0.857600
C1441	C144	0.802400	0.182100	0.982400
H1121	H112	0.817800	0.192800	0.013400
N371	N37	0.391700	0.697100	0.303500
C1451	C145	0.423500	0.735900	0.312300
H1131	H113	0.412500	0.770300	0.314800
N381	N38	0.474500	0.721200	0.317500
C1461	C146	0.423300	0.655200	0.303000
H1141	H114	0.411200	0.621200	0.299900
C1471	C147	0.470900	0.666700	0.307000
H1151	H115	0.498700	0.643800	0.303700
C1481	C148	0.521400	0.752000	0.325400
C1491	C149	0.607300	0.811900	0.339800
C1501	C150	0.566000	0.834100	0.327400
H1161	H116	0.565100	0.870100	0.324000
C1511	C151	0.569200	0.729100	0.334200
H1171	H117	0.572700	0.693100	0.334100
C1521	C152	0.610600	0.759800	0.342800
H1181	H118	0.642400	0.744600	0.351100
C1531	C153	0.517600	0.802400	0.317900
H1191	H119	0.486600	0.817800	0.307200
N391	N39	0.891700	0.802900	0.696500
C1541	C154	0.923500	0.764100	0.687700
H1201	H120	0.912500	0.729700	0.685200
N401	N40	0.974500	0.778800	0.682500
C1551	C155	0.923300	0.844800	0.697000
H1211	H121	0.911200	0.878800	0.700100
C1561	C156	0.970900	0.833300	0.693000
H1221	H122	0.998700	0.856200	0.696300
C1571	C157	0.021400	0.748000	0.674600
C1581	C158	0.107300	0.688100	0.660200
C1591	C159	0.066000	0.665900	0.672600
H1231	H123	0.065100	0.629900	0.676000
C1601	C160	0.069200	0.770900	0.665800
H1241	H124	0.072700	0.806900	0.665900
C1611	C161	0.110600	0.740200	0.657200
H1251	H125	0.142400	0.755400	0.648900
C1621	C162	0.017600	0.697600	0.682100
H1261	H126	0.986600	0.682200	0.692800
N411	N41	0.108300	0.302900	0.803500
C1631	C163	0.076500	0.264100	0.812300
H1271	H127	0.087500	0.229700	0.814800
N421	N42	0.025500	0.278800	0.817500
C1641	C164	0.076700	0.344800	0.803000
H1281	H128	0.088800	0.378800	0.799900
C1651	C165	0.029100	0.333300	0.807000
H1291	H129	0.001300	0.356200	0.803700
C1661	C166	0.978600	0.248000	0.825400
C1671	C167	0.892700	0.188100	0.839800
C1681	C168	0.934000	0.165900	0.827400
H1301	H130	0.934900	0.129900	0.824000
C1691	C169	0.930800	0.270900	0.834200
H1311	H131	0.927300	0.306900	0.834100
C1701	C170	0.889400	0.240200	0.842800
H1321	H132	0.857600	0.255400	0.851100
C1711	C171	0.982400	0.197600	0.817900
H1331	H133	0.013400	0.182200	0.807200
N431	N43	0.608300	0.197100	0.196500
C1721	C172	0.576500	0.235900	0.187700
H1341	H134	0.587500	0.270300	0.185200
N441	N44	0.525500	0.221200	0.182500
C1731	C173	0.576700	0.155200	0.197000
H1351	H135	0.588800	0.121200	0.200100
C1741	C174	0.529100	0.166700	0.193000
H1361	H136	0.501300	0.143800	0.196300
C1751	C175	0.478600	0.252000	0.174600
C1761	C176	0.392700	0.311900	0.160200
C1771	C177	0.434000	0.334100	0.172600
H1371	H137	0.434900	0.370100	0.176000
C1781	C178	0.430800	0.229100	0.165800
H1381	H138	0.427300	0.193100	0.165900
C1791	C179	0.389400	0.259800	0.157200
H1391	H139	0.357600	0.244600	0.148900
C1801	C180	0.482400	0.302400	0.182100
H1401	H140	0.513400	0.317800	0.192800
N451	N45	0.803500	0.891700	0.697100
C1811	C181	0.812300	0.923500	0.735900
H1411	H141	0.814800	0.912500	0.770300
N461	N46	0.817500	0.974500	0.721200
C1821	C182	0.803000	0.923300	0.655200
H1421	H142	0.799900	0.911200	0.621200
C1831	C183	0.807000	0.970900	0.666700
H1431	H143	0.803700	0.998700	0.643800
C1841	C184	0.825400	0.021400	0.752000
C1851	C185	0.839800	0.107300	0.811900
C1861	C186	0.827400	0.066000	0.834100
H1441	H144	0.824000	0.065100	0.870100
C1871	C187	0.834200	0.069200	0.729100
H1451	H145	0.834100	0.072700	0.693100
C1881	C188	0.842800	0.110600	0.759800
H1461	H146	0.851100	0.142400	0.744600
C1891	C189	0.817900	0.017600	0.802400
H1471	H147	0.807200	0.986600	0.817800
N471	N47	0.196500	0.391700	0.802900
C1901	C190	0.187700	0.423500	0.764100
H1481	H148	0.185200	0.412500	0.729700
N481	N48	0.182500	0.474500	0.778800
C1911	C191	0.197000	0.423300	0.844800
H1491	H149	0.200100	0.411200	0.878800
C1921	C192	0.193000	0.470900	0.833300
H1501	H150	0.196300	0.498700	0.856200
C1931	C193	0.174600	0.521400	0.748000
C1941	C194	0.160200	0.607300	0.688100
C1951	C195	0.172600	0.566000	0.665900
H1511	H151	0.176000	0.565100	0.629900
C1961	C196	0.165800	0.569200	0.770900
H1521	H152	0.165900	0.572700	0.806900
C1971	C197	0.157200	0.610600	0.740200
H1531	H153	0.148900	0.642400	0.755400
C1981	C198	0.182100	0.517600	0.697600
H1541	H154	0.192800	0.486600	0.682200
N491	N49	0.303500	0.608300	0.302900
C1991	C199	0.312300	0.576500	0.264100
H1551	H155	0.314800	0.587500	0.229700
N501	N50	0.317500	0.525500	0.278800
C2001	C200	0.303000	0.576700	0.344800
H1561	H156	0.299900	0.588800	0.378800
C2011	C201	0.307000	0.529100	0.333300
H1571	H157	0.303700	0.501300	0.356200
C2021	C202	0.325400	0.478600	0.248000
C2031	C203	0.339800	0.392700	0.188100
C2041	C204	0.327400	0.434000	0.165900
H1581	H158	0.324000	0.434900	0.129900
C2051	C205	0.334200	0.430800	0.270900
H1591	H159	0.334100	0.427300	0.306900
C2061	C206	0.342800	0.389400	0.240200
H1601	H160	0.351100	0.357600	0.255400
C2071	C207	0.317900	0.482400	0.197600
H1611	H161	0.307200	0.513400	0.182200
N511	N51	0.696500	0.108300	0.197100
C2081	C208	0.687700	0.076500	0.235900
H1621	H162	0.685200	0.087500	0.270300
N521	N52	0.682500	0.025500	0.221200
C2091	C209	0.697000	0.076700	0.155200
H1631	H163	0.700100	0.088800	0.121200
C2101	C210	0.693000	0.029100	0.166700
H1641	H164	0.696300	0.001300	0.143800
C2111	C211	0.674600	0.978600	0.252000
C2121	C212	0.660200	0.892700	0.311900
C2131	C213	0.672600	0.934000	0.334100
H1651	H165	0.676000	0.934900	0.370100
C2141	C214	0.665800	0.930800	0.229100
H1661	H166	0.665900	0.927300	0.193100
C2151	C215	0.657200	0.889400	0.259800
H1671	H167	0.648900	0.857600	0.244600
C2161	C216	0.682100	0.982400	0.302400
H1681	H168	0.692800	0.013400	0.317800
Cd51	Cd5	0.800510	0.800510	0.699490
Cd61	Cd6	0.300510	0.699490	0.300510
Cd71	Cd7	0.699490	0.199490	0.199490
Cd81	Cd8	0.199490	0.300510	0.800510
N531	N53	0.656800	0.843200	0.343200
N541	N54	0.343200	0.343200	0.156800
N551	N55	0.843200	0.156800	0.843200
N561	N56	0.156800	0.656800	0.656800
N571	N57	0.697100	0.803500	0.891700
C2171	C217	0.735900	0.812300	0.923500
H1691	H169	0.770300	0.814800	0.912500
N581	N58	0.721200	0.817500	0.974500
C2181	C218	0.655200	0.803000	0.923300
H1701	H170	0.621200	0.799900	0.911200
C2191	C219	0.666700	0.807000	0.970900
H1711	H171	0.643800	0.803700	0.998700
C2201	C220	0.752000	0.825400	0.021400
C2211	C221	0.811900	0.839800	0.107300
C2221	C222	0.834100	0.827400	0.066000
H1721	H172	0.870100	0.824000	0.065100
C2231	C223	0.729100	0.834200	0.069200
H1731	H173	0.693100	0.834100	0.072700
C2241	C224	0.759800	0.842800	0.110600
H1741	H174	0.744600	0.851100	0.142400
C2251	C225	0.802400	0.817900	0.017600
H1751	H175	0.817800	0.807200	0.986600
N591	N59	0.802900	0.196500	0.391700
C2261	C226	0.764100	0.187700	0.423500
H1761	H176	0.729700	0.185200	0.412500
N601	N60	0.778800	0.182500	0.474500
C2271	C227	0.844800	0.197000	0.423300
H1771	H177	0.878800	0.200100	0.411200
C2281	C228	0.833300	0.193000	0.470900
H1781	H178	0.856200	0.196300	0.498700
C2291	C229	0.748000	0.174600	0.521400
C2301	C230	0.688100	0.160200	0.607300
C2311	C231	0.665900	0.172600	0.566000
H1791	H179	0.629900	0.176000	0.565100
C2321	C232	0.770900	0.165800	0.569200
H1801	H180	0.806900	0.165900	0.572700
C2331	C233	0.740200	0.157200	0.610600
H1811	H181	0.755400	0.148900	0.642400
C2341	C234	0.697600	0.182100	0.517600
H1821	H182	0.682200	0.192800	0.486600
N611	N61	0.302900	0.303500	0.608300
C2351	C235	0.264100	0.312300	0.576500
H1831	H183	0.229700	0.314800	0.587500
N621	N62	0.278800	0.317500	0.525500
C2361	C236	0.344800	0.303000	0.576700
H1841	H184	0.378800	0.299900	0.588800
C2371	C237	0.333300	0.307000	0.529100
H1851	H185	0.356200	0.303700	0.501300
C2381	C238	0.248000	0.325400	0.478600
C2391	C239	0.188100	0.339800	0.392700
C2401	C240	0.165900	0.327400	0.434000
H1861	H186	0.129900	0.324000	0.434900
C2411	C241	0.270900	0.334200	0.430800
H1871	H187	0.306900	0.334100	0.427300
C2421	C242	0.240200	0.342800	0.389400
H1881	H188	0.255400	0.351100	0.357600
C2431	C243	0.197600	0.317900	0.482400
H1891	H189	0.182200	0.307200	0.513400
N631	N63	0.197100	0.696500	0.108300
C2441	C244	0.235900	0.687700	0.076500
H1901	H190	0.270300	0.685200	0.087500
N641	N64	0.221200	0.682500	0.025500
C2451	C245	0.155200	0.697000	0.076700
H1911	H191	0.121200	0.700100	0.088800
C2461	C246	0.166700	0.693000	0.029100
H1921	H192	0.143800	0.696300	0.001300
C2471	C247	0.252000	0.674600	0.978600
C2481	C248	0.311900	0.660200	0.892700
C2491	C249	0.334100	0.672600	0.934000
H1931	H193	0.370100	0.676000	0.934900
C2501	C250	0.229100	0.665800	0.930800
H1941	H194	0.193100	0.665900	0.927300
C2511	C251	0.259800	0.657200	0.889400
H1951	H195	0.244600	0.648900	0.857600
C2521	C252	0.302400	0.682100	0.982400
H1961	H196	0.317800	0.692800	0.013400
N651	N65	0.891700	0.197100	0.303500
C2531	C253	0.923500	0.235900	0.312300
H1971	H197	0.912500	0.270300	0.314800
N661	N66	0.974500	0.221200	0.317500
C2541	C254	0.923300	0.155200	0.303000
H1981	H198	0.911200	0.121200	0.299900
C2551	C255	0.970900	0.166700	0.307000
H1991	H199	0.998700	0.143800	0.303700
C2561	C256	0.021400	0.252000	0.325400
C2571	C257	0.107300	0.311900	0.339800
C2581	C258	0.066000	0.334100	0.327400
H2001	H200	0.065100	0.370100	0.324000
C2591	C259	0.069200	0.229100	0.334200
H2011	H201	0.072700	0.193100	0.334100
C2601	C260	0.110600	0.259800	0.342800
H2021	H202	0.142400	0.244600	0.351100
C2611	C261	0.017600	0.302400	0.317900
H2031	H203	0.986600	0.317800	0.307200
N671	N67	0.391700	0.302900	0.696500
C2621	C262	0.423500	0.264100	0.687700
H2041	H204	0.412500	0.229700	0.685200
N681	N68	0.474500	0.278800	0.682500
C2631	C263	0.423300	0.344800	0.697000
H2051	H205	0.411200	0.378800	0.700100
C2641	C264	0.470900	0.333300	0.693000
H2061	H206	0.498700	0.356200	0.696300
C2651	C265	0.521400	0.248000	0.674600
C2661	C266	0.607300	0.188100	0.660200
C2671	C267	0.566000	0.165900	0.672600
H2071	H207	0.565100	0.129900	0.676000
C2681	C268	0.569200	0.270900	0.665800
H2081	H208	0.572700	0.306900	0.665900
C2691	C269	0.610600	0.240200	0.657200
H2091	H209	0.642400	0.255400	0.648900
C2701	C270	0.517600	0.197600	0.682100
H2101	H210	0.486600	0.182200	0.692800
N691	N69	0.608300	0.802900	0.803500
C2711	C271	0.576500	0.764100	0.812300
H2111	H211	0.587500	0.729700	0.814800
N701	N70	0.525500	0.778800	0.817500
C2721	C272	0.576700	0.844800	0.803000
H2121	H212	0.588800	0.878800	0.799900
C2731	C273	0.529100	0.833300	0.807000
H2131	H213	0.501300	0.856200	0.803700
C2741	C274	0.478600	0.748000	0.825400
C2751	C275	0.392700	0.688100	0.839800
C2761	C276	0.434000	0.665900	0.827400
H2141	H214	0.434900	0.629900	0.824000
C2771	C277	0.430800	0.770900	0.834200
H2151	H215	0.427300	0.806900	0.834100
C2781	C278	0.389400	0.740200	0.842800
H2161	H216	0.357600	0.755400	0.851100
C2791	C279	0.482400	0.697600	0.817900
H2171	H217	0.513400	0.682200	0.807200
N711	N71	0.108300	0.697100	0.196500
C2801	C280	0.076500	0.735900	0.187700
H2181	H218	0.087500	0.770300	0.185200
N721	N72	0.025500	0.721200	0.182500
C2811	C281	0.076700	0.655200	0.197000
H2191	H219	0.088800	0.621200	0.200100
C2821	C282	0.029100	0.666700	0.193000
H2201	H220	0.001300	0.643800	0.196300
C2831	C283	0.978600	0.752000	0.174600
C2841	C284	0.892700	0.811900	0.160200
C2851	C285	0.934000	0.834100	0.172600
H2211	H221	0.934900	0.870100	0.176000
C2861	C286	0.930800	0.729100	0.165800
H2221	H222	0.927300	0.693100	0.165900
C2871	C287	0.889400	0.759800	0.157200
H2231	H223	0.857600	0.744600	0.148900
C2881	C288	0.982400	0.802400	0.182100
H2241	H224	0.013400	0.817800	0.192800
N731	N73	0.303500	0.391700	0.697100
C2891	C289	0.312300	0.423500	0.735900
H2251	H225	0.314800	0.412500	0.770300
N741	N74	0.317500	0.474500	0.721200
C2901	C290	0.303000	0.423300	0.655200
H2261	H226	0.299900	0.411200	0.621200
C2911	C291	0.307000	0.470900	0.666700
H2271	H227	0.303700	0.498700	0.643800
C2921	C292	0.325400	0.521400	0.752000
C2931	C293	0.339800	0.607300	0.811900
C2941	C294	0.327400	0.566000	0.834100
H2281	H228	0.324000	0.565100	0.870100
C2951	C295	0.334200	0.569200	0.729100
H2291	H229	0.334100	0.572700	0.693100
C2961	C296	0.342800	0.610600	0.759800
H2301	H230	0.351100	0.642400	0.744600
C2971	C297	0.317900	0.517600	0.802400
H2311	H231	0.307200	0.486600	0.817800
N751	N75	0.696500	0.891700	0.802900
C2981	C298	0.687700	0.923500	0.764100
H2321	H232	0.685200	0.912500	0.729700
N761	N76	0.682500	0.974500	0.778800
C2991	C299	0.697000	0.923300	0.844800
H2331	H233	0.700100	0.911200	0.878800
C3001	C300	0.693000	0.970900	0.833300
H2341	H234	0.696300	0.998700	0.856200
C3011	C301	0.674600	0.021400	0.748000
C3021	C302	0.660200	0.107300	0.688100
C3031	C303	0.672600	0.066000	0.665900
H2351	H235	0.676000	0.065100	0.629900
C3041	C304	0.665800	0.069200	0.770900
H2361	H236	0.665900	0.072700	0.806900
C3051	C305	0.657200	0.110600	0.740200
H2371	H237	0.648900	0.142400	0.755400
C3061	C306	0.682100	0.017600	0.697600
H2381	H238	0.692800	0.986600	0.682200
N771	N77	0.803500	0.108300	0.302900
C3071	C307	0.812300	0.076500	0.264100
H2391	H239	0.814800	0.087500	0.229700
N781	N78	0.817500	0.025500	0.278800
C3081	C308	0.803000	0.076700	0.344800
H2401	H240	0.799900	0.088800	0.378800
C3091	C309	0.807000	0.029100	0.333300
H2411	H241	0.803700	0.001300	0.356200
C3101	C310	0.825400	0.978600	0.248000
C3111	C311	0.839800	0.892700	0.188100
C3121	C312	0.827400	0.934000	0.165900
H2421	H242	0.824000	0.934900	0.129900
C3131	C313	0.834200	0.930800	0.270900
H2431	H243	0.834100	0.927300	0.306900
C3141	C314	0.842800	0.889400	0.240200
H2441	H244	0.851100	0.857600	0.255400
C3151	C315	0.817900	0.982400	0.197600
H2451	H245	0.807200	0.013400	0.182200
N791	N79	0.196500	0.608300	0.197100
C3161	C316	0.187700	0.576500	0.235900
H2461	H246	0.185200	0.587500	0.270300
N801	N80	0.182500	0.525500	0.221200
C3171	C317	0.197000	0.576700	0.155200
H2471	H247	0.200100	0.588800	0.121200
C3181	C318	0.193000	0.529100	0.166700
H2481	H248	0.196300	0.501300	0.143800
C3191	C319	0.174600	0.478600	0.252000
C3201	C320	0.160200	0.392700	0.311900
C3211	C321	0.172600	0.434000	0.334100
H2491	H249	0.176000	0.434900	0.370100
C3221	C322	0.165800	0.430800	0.229100
H2501	H250	0.165900	0.427300	0.193100
C3231	C323	0.157200	0.389400	0.259800
H2511	H251	0.148900	0.357600	0.244600
C3241	C324	0.182100	0.482400	0.302400
H2521	H252	0.192800	0.513400	0.317800
Cd91	Cd9	0.800510	0.199490	0.300510
Cd101	Cd10	0.300510	0.300510	0.699490
Cd111	Cd11	0.699490	0.800510	0.800510
Cd121	Cd12	0.199490	0.699490	0.199490
N811	N81	0.656800	0.156800	0.656800
N821	N82	0.343200	0.656800	0.843200
N831	N83	0.843200	0.843200	0.156800
N841	N84	0.156800	0.343200	0.343200
N851	N85	0.697100	0.303500	0.391700
C3251	C325	0.735900	0.312300	0.423500
H2531	H253	0.770300	0.314800	0.412500
N861	N86	0.721200	0.317500	0.474500
C3261	C326	0.655200	0.303000	0.423300
H2541	H254	0.621200	0.299900	0.411200
C3271	C327	0.666700	0.307000	0.470900
H2551	H255	0.643800	0.303700	0.498700
C3281	C328	0.752000	0.325400	0.521400
C3291	C329	0.811900	0.339800	0.607300
C3301	C330	0.834100	0.327400	0.566000
H2561	H256	0.870100	0.324000	0.565100
C3311	C331	0.729100	0.334200	0.569200
H2571	H257	0.693100	0.334100	0.572700
C3321	C332	0.759800	0.342800	0.610600
H2581	H258	0.744600	0.351100	0.642400
C3331	C333	0.802400	0.317900	0.517600
H2591	H259	0.817800	0.307200	0.486600
N871	N87	0.802900	0.696500	0.891700
C3341	C334	0.764100	0.687700	0.923500
H2601	H260	0.729700	0.685200	0.912500
N881	N88	0.778800	0.682500	0.974500
C3351	C335	0.844800	0.697000	0.923300
H2611	H261	0.878800	0.700100	0.911200
C3361	C336	0.833300	0.693000	0.970900
H2621	H262	0.856200	0.696300	0.998700
C3371	C337	0.748000	0.674600	0.021400
C3381	C338	0.688100	0.660200	0.107300
C3391	C339	0.665900	0.672600	0.066000
H2631	H263	0.629900	0.676000	0.065100
C3401	C340	0.770900	0.665800	0.069200
H2641	H264	0.806900	0.665900	0.072700
C3411	C341	0.740200	0.657200	0.110600
H2651	H265	0.755400	0.648900	0.142400
C3421	C342	0.697600	0.682100	0.017600
H2661	H266	0.682200	0.692800	0.986600
N891	N89	0.302900	0.803500	0.108300
C3431	C343	0.264100	0.812300	0.076500
H2671	H267	0.229700	0.814800	0.087500
N901	N90	0.278800	0.817500	0.025500
C3441	C344	0.344800	0.803000	0.076700
H2681	H268	0.378800	0.799900	0.088800
C3451	C345	0.333300	0.807000	0.029100
H2691	H269	0.356200	0.803700	0.001300
C3461	C346	0.248000	0.825400	0.978600
C3471	C347	0.188100	0.839800	0.892700
C3481	C348	0.165900	0.827400	0.934000
H2701	H270	0.129900	0.824000	0.934900
C3491	C349	0.270900	0.834200	0.930800
H2711	H271	0.306900	0.834100	0.927300
C3501	C350	0.240200	0.842800	0.889400
H2721	H272	0.255400	0.851100	0.857600
C3511	C351	0.197600	0.817900	0.982400
H2731	H273	0.182200	0.807200	0.013400
N911	N91	0.197100	0.196500	0.608300
C3521	C352	0.235900	0.187700	0.576500
H2741	H274	0.270300	0.185200	0.587500
N921	N92	0.221200	0.182500	0.525500
C3531	C353	0.155200	0.197000	0.576700
H2751	H275	0.121200	0.200100	0.588800
C3541	C354	0.166700	0.193000	0.529100
H2761	H276	0.143800	0.196300	0.501300
C3551	C355	0.252000	0.174600	0.478600
C3561	C356	0.311900	0.160200	0.392700
C3571	C357	0.334100	0.172600	0.434000
H2771	H277	0.370100	0.176000	0.434900
C3581	C358	0.229100	0.165800	0.430800
H2781	H278	0.193100	0.165900	0.427300
C3591	C359	0.259800	0.157200	0.389400
H2791	H279	0.244600	0.148900	0.357600
C3601	C360	0.302400	0.182100	0.482400
H2801	H280	0.317800	0.192800	0.513400
N931	N93	0.891700	0.697100	0.803500
C3611	C361	0.923500	0.735900	0.812300
H2811	H281	0.912500	0.770300	0.814800
N941	N94	0.974500	0.721200	0.817500
C3621	C362	0.923300	0.655200	0.803000
H2821	H282	0.911200	0.621200	0.799900
C3631	C363	0.970900	0.666700	0.807000
H2831	H283	0.998700	0.643800	0.803700
C3641	C364	0.021400	0.752000	0.825400
C3651	C365	0.107300	0.811900	0.839800
C3661	C366	0.066000	0.834100	0.827400
H2841	H284	0.065100	0.870100	0.824000
C3671	C367	0.069200	0.729100	0.834200
H2851	H285	0.072700	0.693100	0.834100
C3681	C368	0.110600	0.759800	0.842800
H2861	H286	0.142400	0.744600	0.851100
C3691	C369	0.017600	0.802400	0.817900
H2871	H287	0.986600	0.817800	0.807200
N951	N95	0.391700	0.802900	0.196500
C3701	C370	0.423500	0.764100	0.187700
H2881	H288	0.412500	0.729700	0.185200
N961	N96	0.474500	0.778800	0.182500
C3711	C371	0.423300	0.844800	0.197000
H2891	H289	0.411200	0.878800	0.200100
C3721	C372	0.470900	0.833300	0.193000
H2901	H290	0.498700	0.856200	0.196300
C3731	C373	0.521400	0.748000	0.174600
C3741	C374	0.607300	0.688100	0.160200
C3751	C375	0.566000	0.665900	0.172600
H2911	H291	0.565100	0.629900	0.176000
C3761	C376	0.569200	0.770900	0.165800
H2921	H292	0.572700	0.806900	0.165900
C3771	C377	0.610600	0.740200	0.157200
H2931	H293	0.642400	0.755400	0.148900
C3781	C378	0.517600	0.697600	0.182100
H2941	H294	0.486600	0.682200	0.192800
N971	N97	0.608300	0.302900	0.303500
C3791	C379	0.576500	0.264100	0.312300
H2951	H295	0.587500	0.229700	0.314800
N981	N98	0.525500	0.278800	0.317500
C3801	C380	0.576700	0.344800	0.303000
H2961	H296	0.588800	0.378800	0.299900
C3811	C381	0.529100	0.333300	0.307000
H2971	H297	0.501300	0.356200	0.303700
C3821	C382	0.478600	0.248000	0.325400
C3831	C383	0.392700	0.188100	0.339800
C3841	C384	0.434000	0.165900	0.327400
H2981	H298	0.434900	0.129900	0.324000
C3851	C385	0.430800	0.270900	0.334200
H2991	H299	0.427300	0.306900	0.334100
C3861	C386	0.389400	0.240200	0.342800
H3001	H300	0.357600	0.255400	0.351100
C3871	C387	0.482400	0.197600	0.317900
H3011	H301	0.513400	0.182200	0.307200
N991	N99	0.108300	0.197100	0.696500
C3881	C388	0.076500	0.235900	0.687700
H3021	H302	0.087500	0.270300	0.685200
N1001	N100	0.025500	0.221200	0.682500
C3891	C389	0.076700	0.155200	0.697000
H3031	H303	0.088800	0.121200	0.700100
C3901	C390	0.029100	0.166700	0.693000
H3041	H304	0.001300	0.143800	0.696300
C3911	C391	0.978600	0.252000	0.674600
C3921	C392	0.892700	0.311900	0.660200
C3931	C393	0.934000	0.334100	0.672600
H3051	H305	0.934900	0.370100	0.676000
C3941	C394	0.930800	0.229100	0.665800
H3061	H306	0.927300	0.193100	0.665900
C3951	C395	0.889400	0.259800	0.657200
H3071	H307	0.857600	0.244600	0.648900
C3961	C396	0.982400	0.302400	0.682100
H3081	H308	0.013400	0.317800	0.692800
N1011	N101	0.303500	0.891700	0.197100
C3971	C397	0.312300	0.923500	0.235900
H3091	H309	0.314800	0.912500	0.270300
N1021	N102	0.317500	0.974500	0.221200
C3981	C398	0.303000	0.923300	0.155200
H3101	H310	0.299900	0.911200	0.121200
C3991	C399	0.307000	0.970900	0.166700
H3111	H311	0.303700	0.998700	0.143800
C4001	C400	0.325400	0.021400	0.252000
C4011	C401	0.339800	0.107300	0.311900
C4021	C402	0.327400	0.066000	0.334100
H3121	H312	0.324000	0.065100	0.370100
C4031	C403	0.334200	0.069200	0.229100
H3131	H313	0.334100	0.072700	0.193100
C4041	C404	0.342800	0.110600	0.259800
H3141	H314	0.351100	0.142400	0.244600
C4051	C405	0.317900	0.017600	0.302400
H3151	H315	0.307200	0.986600	0.317800
N1031	N103	0.696500	0.391700	0.302900
C4061	C406	0.687700	0.423500	0.264100
H3161	H316	0.685200	0.412500	0.229700
N1041	N104	0.682500	0.474500	0.278800
C4071	C407	0.697000	0.423300	0.344800
H3171	H317	0.700100	0.411200	0.378800
C4081	C408	0.693000	0.470900	0.333300
H3181	H318	0.696300	0.498700	0.356200
C4091	C409	0.674600	0.521400	0.248000
C4101	C410	0.660200	0.607300	0.188100
C4111	C411	0.672600	0.566000	0.165900
H3191	H319	0.676000	0.565100	0.129900
C4121	C412	0.665800	0.569200	0.270900
H3201	H320	0.665900	0.572700	0.306900
C4131	C413	0.657200	0.610600	0.240200
H3211	H321	0.648900	0.642400	0.255400
C4141	C414	0.682100	0.517600	0.197600
H3221	H322	0.692800	0.486600	0.182200
N1051	N105	0.803500	0.608300	0.802900
C4151	C415	0.812300	0.576500	0.764100
H3231	H323	0.814800	0.587500	0.729700
N1061	N106	0.817500	0.525500	0.778800
C4161	C416	0.803000	0.576700	0.844800
H3241	H324	0.799900	0.588800	0.878800
C4171	C417	0.807000	0.529100	0.833300
H3251	H325	0.803700	0.501300	0.856200
C4181	C418	0.825400	0.478600	0.748000
C4191	C419	0.839800	0.392700	0.688100
C4201	C420	0.827400	0.434000	0.665900
H3261	H326	0.824000	0.434900	0.629900
C4211	C421	0.834200	0.430800	0.770900
H3271	H327	0.834100	0.427300	0.806900
C4221	C422	0.842800	0.389400	0.740200
H3281	H328	0.851100	0.357600	0.755400
C4231	C423	0.817900	0.482400	0.697600
H3291	H329	0.807200	0.513400	0.682200
N1071	N107	0.196500	0.108300	0.697100
C4241	C424	0.187700	0.076500	0.735900
H3301	H330	0.185200	0.087500	0.770300
N1081	N108	0.182500	0.025500	0.721200
C4251	C425	0.197000	0.076700	0.655200
H3311	H331	0.200100	0.088800	0.621200
C4261	C426	0.193000	0.029100	0.666700
H3321	H332	0.196300	0.001300	0.643800
C4271	C427	0.174600	0.978600	0.752000
C4281	C428	0.160200	0.892700	0.811900
C4291	C429	0.172600	0.934000	0.834100
H3331	H333	0.176000	0.934900	0.870100
C4301	C430	0.165800	0.930800	0.729100
H3341	H334	0.165900	0.927300	0.693100
C4311	C431	0.157200	0.889400	0.759800
H3351	H335	0.148900	0.857600	0.744600
C4321	C432	0.182100	0.982400	0.802400
H3361	H336	0.192800	0.013400	0.817800
Cd131	Cd13	0.199490	0.199490	0.699490
Cd141	Cd14	0.300510	0.800510	0.199490
Cd151	Cd15	0.699490	0.300510	0.300510
Cd161	Cd16	0.800510	0.699490	0.800510
N1091	N109	0.343200	0.156800	0.343200
N1101	N110	0.656800	0.656800	0.156800
N1111	N111	0.843200	0.343200	0.656800
N1121	N112	0.156800	0.843200	0.843200
