data_VIWMIZ_clean_PM
_symmetry_space_group_name_H-M	'P1'
_cell_length_a	25.396100
_cell_length_b	25.396100
_cell_length_c	25.396100
_cell_angle_alpha	90.000000
_cell_angle_beta	90.000000
_cell_angle_gamma	90.000000
_symmetry_Int_Tables_number 1

loop_
_symmetry_equiv_pos_as_xyz
'x,y,z'

loop_
_atom_site_label
_atom_site_type_symbol
_atom_site_fract_x
_atom_site_fract_y
_atom_site_fract_z
C11	C1	0.189000	0.423400	0.237900
H11	H1	0.186400	0.412600	0.273700
C21	C2	0.196000	0.424300	0.157400
H21	H2	0.201000	0.414200	0.121700
C31	C3	0.186600	0.472300	0.171500
H31	H3	0.182400	0.501600	0.148700
C41	C4	0.177000	0.518200	0.253600
C51	C5	0.165900	0.565900	0.229200
H41	H4	0.165200	0.568100	0.191800
C61	C6	0.155900	0.610500	0.259300
H51	H5	0.148300	0.643100	0.242600
C71	C7	0.156900	0.607300	0.314000
C81	C8	0.168000	0.559600	0.338400
H61	H6	0.168700	0.557400	0.375800
C91	C9	0.178000	0.515000	0.308200
H71	H7	0.185500	0.482400	0.324900
N11	N1	0.198000	0.389300	0.198200
N21	N2	0.184100	0.473000	0.222900
C101	C10	0.311000	0.576600	0.737900
H81	H8	0.313600	0.587400	0.773700
C111	C11	0.304000	0.575700	0.657400
H91	H9	0.299000	0.585800	0.621700
C121	C12	0.313400	0.527700	0.671500
H101	H10	0.317600	0.498400	0.648700
C131	C13	0.323000	0.481800	0.753600
C141	C14	0.334100	0.434100	0.729200
H111	H11	0.334800	0.431900	0.691800
C151	C15	0.344100	0.389500	0.759300
H121	H12	0.351700	0.356900	0.742600
C161	C16	0.343100	0.392700	0.814000
C171	C17	0.332000	0.440400	0.838400
H131	H13	0.331300	0.442600	0.875800
C181	C18	0.322000	0.485000	0.808200
H141	H14	0.314500	0.517600	0.824900
N31	N3	0.302000	0.610700	0.698200
N41	N4	0.315900	0.527000	0.722900
C191	C19	0.811000	0.923400	0.262100
H151	H15	0.813600	0.912600	0.226300
C201	C20	0.804000	0.924300	0.342600
H161	H16	0.799000	0.914200	0.378300
C211	C21	0.813400	0.972300	0.328500
H171	H17	0.817600	0.001600	0.351300
C221	C22	0.823000	0.018200	0.246400
C231	C23	0.834100	0.065900	0.270800
H181	H18	0.834800	0.068100	0.308200
C241	C24	0.844100	0.110500	0.240700
H191	H19	0.851700	0.143100	0.257400
C251	C25	0.843100	0.107300	0.186000
C261	C26	0.832000	0.059600	0.161600
H201	H20	0.831300	0.057400	0.124200
C271	C27	0.822000	0.015000	0.191800
H211	H21	0.814500	0.982400	0.175100
N51	N5	0.802000	0.889300	0.301800
N61	N6	0.815900	0.973000	0.277100
C281	C28	0.689000	0.076600	0.762100
H221	H22	0.686400	0.087400	0.726300
C291	C29	0.696000	0.075700	0.842600
H231	H23	0.701000	0.085800	0.878300
C301	C30	0.686600	0.027700	0.828500
H241	H24	0.682400	0.998400	0.851300
C311	C31	0.677000	0.981800	0.746400
C321	C32	0.665900	0.934100	0.770800
H251	H25	0.665200	0.931900	0.808200
C331	C33	0.655900	0.889500	0.740700
H261	H26	0.648300	0.856900	0.757400
C341	C34	0.656900	0.892700	0.686000
C351	C35	0.668000	0.940400	0.661600
H271	H27	0.668700	0.942600	0.624200
C361	C36	0.678000	0.985000	0.691800
H281	H28	0.685500	0.017600	0.675100
N71	N7	0.698000	0.110700	0.801800
N81	N8	0.684100	0.027000	0.777100
C371	C37	0.737900	0.189000	0.923400
H291	H29	0.773700	0.186400	0.912600
C381	C38	0.657400	0.196000	0.924300
H301	H30	0.621700	0.201000	0.914200
C391	C39	0.671500	0.186600	0.972300
H311	H31	0.648700	0.182400	0.001600
C401	C40	0.753600	0.177000	0.018200
C411	C41	0.729200	0.165900	0.065900
H321	H32	0.691800	0.165200	0.068100
C421	C42	0.759300	0.155900	0.110500
H331	H33	0.742600	0.148300	0.143100
C431	C43	0.814000	0.156900	0.107300
C441	C44	0.838400	0.168000	0.059600
H341	H34	0.875800	0.168700	0.057400
C451	C45	0.808200	0.178000	0.015000
H351	H35	0.824900	0.185500	0.982400
N91	N9	0.698200	0.198000	0.889300
N101	N10	0.722900	0.184100	0.973000
C461	C46	0.237900	0.311000	0.076600
H361	H36	0.273700	0.313600	0.087400
C471	C47	0.157400	0.304000	0.075700
H371	H37	0.121700	0.299000	0.085800
C481	C48	0.171500	0.313400	0.027700
H381	H38	0.148700	0.317600	0.998400
C491	C49	0.253600	0.323000	0.981800
C501	C50	0.229200	0.334100	0.934100
H391	H39	0.191800	0.334800	0.931900
C511	C51	0.259300	0.344100	0.889500
H401	H40	0.242600	0.351700	0.856900
C521	C52	0.314000	0.343100	0.892700
C531	C53	0.338400	0.332000	0.940400
H411	H41	0.375800	0.331300	0.942600
C541	C54	0.308200	0.322000	0.985000
H421	H42	0.324900	0.314500	0.017600
N111	N11	0.198200	0.302000	0.110700
N121	N12	0.222900	0.315900	0.027000
C551	C55	0.762100	0.811000	0.423400
H431	H43	0.726300	0.813600	0.412600
C561	C56	0.842600	0.804000	0.424300
H441	H44	0.878300	0.799000	0.414200
C571	C57	0.828500	0.813400	0.472300
H451	H45	0.851300	0.817600	0.501600
C581	C58	0.746400	0.823000	0.518200
C591	C59	0.770800	0.834100	0.565900
H461	H46	0.808200	0.834800	0.568100
C601	C60	0.740700	0.844100	0.610500
H471	H47	0.757400	0.851700	0.643100
C611	C61	0.686000	0.843100	0.607300
C621	C62	0.661600	0.832000	0.559600
H481	H48	0.624200	0.831300	0.557400
C631	C63	0.691800	0.822000	0.515000
H491	H49	0.675100	0.814500	0.482400
N131	N13	0.801800	0.802000	0.389300
N141	N14	0.777100	0.815900	0.473000
C641	C64	0.262100	0.689000	0.576600
H501	H50	0.226300	0.686400	0.587400
C651	C65	0.342600	0.696000	0.575700
H511	H51	0.378300	0.701000	0.585800
C661	C66	0.328500	0.686600	0.527700
H521	H52	0.351300	0.682400	0.498400
C671	C67	0.246400	0.677000	0.481800
C681	C68	0.270800	0.665900	0.434100
H531	H53	0.308200	0.665200	0.431900
C691	C69	0.240700	0.655900	0.389500
H541	H54	0.257400	0.648300	0.356900
C701	C70	0.186000	0.656900	0.392700
C711	C71	0.161600	0.668000	0.440400
H551	H55	0.124200	0.668700	0.442600
C721	C72	0.191800	0.678000	0.485000
H561	H56	0.175100	0.685500	0.517600
N151	N15	0.301800	0.698000	0.610700
N161	N16	0.277100	0.684100	0.527000
C731	C73	0.423400	0.737900	0.689000
H571	H57	0.412600	0.773700	0.686400
C741	C74	0.424300	0.657400	0.696000
H581	H58	0.414200	0.621700	0.701000
C751	C75	0.472300	0.671500	0.686600
H591	H59	0.501600	0.648700	0.682400
C761	C76	0.518200	0.753600	0.677000
C771	C77	0.565900	0.729200	0.665900
H601	H60	0.568100	0.691800	0.665200
C781	C78	0.610500	0.759300	0.655900
H611	H61	0.643100	0.742600	0.648300
C791	C79	0.607300	0.814000	0.656900
C801	C80	0.559600	0.838400	0.668000
H621	H62	0.557400	0.875800	0.668700
C811	C81	0.515000	0.808200	0.678000
H631	H63	0.482400	0.824900	0.685500
N171	N17	0.389300	0.698200	0.698000
N181	N18	0.473000	0.722900	0.684100
C821	C82	0.576600	0.237900	0.811000
H641	H64	0.587400	0.273700	0.813600
C831	C83	0.575700	0.157400	0.804000
H651	H65	0.585800	0.121700	0.799000
C841	C84	0.527700	0.171500	0.813400
H661	H66	0.498400	0.148700	0.817600
C851	C85	0.481800	0.253600	0.823000
C861	C86	0.434100	0.229200	0.834100
H671	H67	0.431900	0.191800	0.834800
C871	C87	0.389500	0.259300	0.844100
H681	H68	0.356900	0.242600	0.851700
C881	C88	0.392700	0.314000	0.843100
C891	C89	0.440400	0.338400	0.832000
H691	H69	0.442600	0.375800	0.831300
C901	C90	0.485000	0.308200	0.822000
H701	H70	0.517600	0.324900	0.814500
N191	N19	0.610700	0.198200	0.802000
N201	N20	0.527000	0.222900	0.815900
C911	C91	0.923400	0.762100	0.311000
H711	H71	0.912600	0.726300	0.313600
C921	C92	0.924300	0.842600	0.304000
H721	H72	0.914200	0.878300	0.299000
C931	C93	0.972300	0.828500	0.313400
H731	H73	0.001600	0.851300	0.317600
C941	C94	0.018200	0.746400	0.323000
C951	C95	0.065900	0.770800	0.334100
H741	H74	0.068100	0.808200	0.334800
C961	C96	0.110500	0.740700	0.344100
H751	H75	0.143100	0.757400	0.351700
C971	C97	0.107300	0.686000	0.343100
C981	C98	0.059600	0.661600	0.332000
H761	H76	0.057400	0.624200	0.331300
C991	C99	0.015000	0.691800	0.322000
H771	H77	0.982400	0.675100	0.314500
N211	N21	0.889300	0.801800	0.302000
N221	N22	0.973000	0.777100	0.315900
C1001	C100	0.076600	0.262100	0.189000
H781	H78	0.087400	0.226300	0.186400
C1011	C101	0.075700	0.342600	0.196000
H791	H79	0.085800	0.378300	0.201000
C1021	C102	0.027700	0.328500	0.186600
H801	H80	0.998400	0.351300	0.182400
C1031	C103	0.981800	0.246400	0.177000
C1041	C104	0.934100	0.270800	0.165900
H811	H81	0.931900	0.308200	0.165200
C1051	C105	0.889500	0.240700	0.155900
H821	H82	0.856900	0.257400	0.148300
C1061	C106	0.892700	0.186000	0.156900
C1071	C107	0.940400	0.161600	0.168000
H831	H83	0.942600	0.124200	0.168700
C1081	C108	0.985000	0.191800	0.178000
H841	H84	0.017600	0.175100	0.185500
N231	N23	0.110700	0.301800	0.198000
N241	N24	0.027000	0.277100	0.184100
Cd11	Cd1	0.200110	0.299890	0.200110
Cd21	Cd2	0.799890	0.799890	0.299890
Cd31	Cd3	0.299890	0.700110	0.700110
Cd41	Cd4	0.700110	0.200110	0.799890
N251	N25	0.155300	0.655300	0.344700
N261	N26	0.844700	0.155300	0.155300
N271	N27	0.655300	0.844700	0.655300
N281	N28	0.344700	0.344700	0.844700
C1091	C109	0.189000	0.923400	0.737900
H851	H85	0.186400	0.912600	0.773700
C1101	C110	0.196000	0.924300	0.657400
H861	H86	0.201000	0.914200	0.621700
C1111	C111	0.186600	0.972300	0.671500
H871	H87	0.182400	0.001600	0.648700
C1121	C112	0.177000	0.018200	0.753600
C1131	C113	0.165900	0.065900	0.729200
H881	H88	0.165200	0.068100	0.691800
C1141	C114	0.155900	0.110500	0.759300
H891	H89	0.148300	0.143100	0.742600
C1151	C115	0.156900	0.107300	0.814000
C1161	C116	0.168000	0.059600	0.838400
H901	H90	0.168700	0.057400	0.875800
C1171	C117	0.178000	0.015000	0.808200
H911	H91	0.185500	0.982400	0.824900
N291	N29	0.198000	0.889300	0.698200
N301	N30	0.184100	0.973000	0.722900
C1181	C118	0.311000	0.076600	0.237900
H921	H92	0.313600	0.087400	0.273700
C1191	C119	0.304000	0.075700	0.157400
H931	H93	0.299000	0.085800	0.121700
C1201	C120	0.313400	0.027700	0.171500
H941	H94	0.317600	0.998400	0.148700
C1211	C121	0.323000	0.981800	0.253600
C1221	C122	0.334100	0.934100	0.229200
H951	H95	0.334800	0.931900	0.191800
C1231	C123	0.344100	0.889500	0.259300
H961	H96	0.351700	0.856900	0.242600
C1241	C124	0.343100	0.892700	0.314000
C1251	C125	0.332000	0.940400	0.338400
H971	H97	0.331300	0.942600	0.375800
C1261	C126	0.322000	0.985000	0.308200
H981	H98	0.314500	0.017600	0.324900
N311	N31	0.302000	0.110700	0.198200
N321	N32	0.315900	0.027000	0.222900
C1271	C127	0.811000	0.423400	0.762100
H991	H99	0.813600	0.412600	0.726300
C1281	C128	0.804000	0.424300	0.842600
H1001	H100	0.799000	0.414200	0.878300
C1291	C129	0.813400	0.472300	0.828500
H1011	H101	0.817600	0.501600	0.851300
C1301	C130	0.823000	0.518200	0.746400
C1311	C131	0.834100	0.565900	0.770800
H1021	H102	0.834800	0.568100	0.808200
C1321	C132	0.844100	0.610500	0.740700
H1031	H103	0.851700	0.643100	0.757400
C1331	C133	0.843100	0.607300	0.686000
C1341	C134	0.832000	0.559600	0.661600
H1041	H104	0.831300	0.557400	0.624200
C1351	C135	0.822000	0.515000	0.691800
H1051	H105	0.814500	0.482400	0.675100
N331	N33	0.802000	0.389300	0.801800
N341	N34	0.815900	0.473000	0.777100
C1361	C136	0.689000	0.576600	0.262100
H1061	H106	0.686400	0.587400	0.226300
C1371	C137	0.696000	0.575700	0.342600
H1071	H107	0.701000	0.585800	0.378300
C1381	C138	0.686600	0.527700	0.328500
H1081	H108	0.682400	0.498400	0.351300
C1391	C139	0.677000	0.481800	0.246400
C1401	C140	0.665900	0.434100	0.270800
H1091	H109	0.665200	0.431900	0.308200
C1411	C141	0.655900	0.389500	0.240700
H1101	H110	0.648300	0.356900	0.257400
C1421	C142	0.656900	0.392700	0.186000
C1431	C143	0.668000	0.440400	0.161600
H1111	H111	0.668700	0.442600	0.124200
C1441	C144	0.678000	0.485000	0.191800
H1121	H112	0.685500	0.517600	0.175100
N351	N35	0.698000	0.610700	0.301800
N361	N36	0.684100	0.527000	0.277100
C1451	C145	0.737900	0.689000	0.423400
H1131	H113	0.773700	0.686400	0.412600
C1461	C146	0.657400	0.696000	0.424300
H1141	H114	0.621700	0.701000	0.414200
C1471	C147	0.671500	0.686600	0.472300
H1151	H115	0.648700	0.682400	0.501600
C1481	C148	0.753600	0.677000	0.518200
C1491	C149	0.729200	0.665900	0.565900
H1161	H116	0.691800	0.665200	0.568100
C1501	C150	0.759300	0.655900	0.610500
H1171	H117	0.742600	0.648300	0.643100
C1511	C151	0.814000	0.656900	0.607300
C1521	C152	0.838400	0.668000	0.559600
H1181	H118	0.875800	0.668700	0.557400
C1531	C153	0.808200	0.678000	0.515000
H1191	H119	0.824900	0.685500	0.482400
N371	N37	0.698200	0.698000	0.389300
N381	N38	0.722900	0.684100	0.473000
C1541	C154	0.237900	0.811000	0.576600
H1201	H120	0.273700	0.813600	0.587400
C1551	C155	0.157400	0.804000	0.575700
H1211	H121	0.121700	0.799000	0.585800
C1561	C156	0.171500	0.813400	0.527700
H1221	H122	0.148700	0.817600	0.498400
C1571	C157	0.253600	0.823000	0.481800
C1581	C158	0.229200	0.834100	0.434100
H1231	H123	0.191800	0.834800	0.431900
C1591	C159	0.259300	0.844100	0.389500
H1241	H124	0.242600	0.851700	0.356900
C1601	C160	0.314000	0.843100	0.392700
C1611	C161	0.338400	0.832000	0.440400
H1251	H125	0.375800	0.831300	0.442600
C1621	C162	0.308200	0.822000	0.485000
H1261	H126	0.324900	0.814500	0.517600
N391	N39	0.198200	0.802000	0.610700
N401	N40	0.222900	0.815900	0.527000
C1631	C163	0.762100	0.311000	0.923400
H1271	H127	0.726300	0.313600	0.912600
C1641	C164	0.842600	0.304000	0.924300
H1281	H128	0.878300	0.299000	0.914200
C1651	C165	0.828500	0.313400	0.972300
H1291	H129	0.851300	0.317600	0.001600
C1661	C166	0.746400	0.323000	0.018200
C1671	C167	0.770800	0.334100	0.065900
H1301	H130	0.808200	0.334800	0.068100
C1681	C168	0.740700	0.344100	0.110500
H1311	H131	0.757400	0.351700	0.143100
C1691	C169	0.686000	0.343100	0.107300
C1701	C170	0.661600	0.332000	0.059600
H1321	H132	0.624200	0.331300	0.057400
C1711	C171	0.691800	0.322000	0.015000
H1331	H133	0.675100	0.314500	0.982400
N411	N41	0.801800	0.302000	0.889300
N421	N42	0.777100	0.315900	0.973000
C1721	C172	0.262100	0.189000	0.076600
H1341	H134	0.226300	0.186400	0.087400
C1731	C173	0.342600	0.196000	0.075700
H1351	H135	0.378300	0.201000	0.085800
C1741	C174	0.328500	0.186600	0.027700
H1361	H136	0.351300	0.182400	0.998400
C1751	C175	0.246400	0.177000	0.981800
C1761	C176	0.270800	0.165900	0.934100
H1371	H137	0.308200	0.165200	0.931900
C1771	C177	0.240700	0.155900	0.889500
H1381	H138	0.257400	0.148300	0.856900
C1781	C178	0.186000	0.156900	0.892700
C1791	C179	0.161600	0.168000	0.940400
H1391	H139	0.124200	0.168700	0.942600
C1801	C180	0.191800	0.178000	0.985000
H1401	H140	0.175100	0.185500	0.017600
N431	N43	0.301800	0.198000	0.110700
N441	N44	0.277100	0.184100	0.027000
C1811	C181	0.423400	0.237900	0.189000
H1411	H141	0.412600	0.273700	0.186400
C1821	C182	0.424300	0.157400	0.196000
H1421	H142	0.414200	0.121700	0.201000
C1831	C183	0.472300	0.171500	0.186600
H1431	H143	0.501600	0.148700	0.182400
C1841	C184	0.518200	0.253600	0.177000
C1851	C185	0.565900	0.229200	0.165900
H1441	H144	0.568100	0.191800	0.165200
C1861	C186	0.610500	0.259300	0.155900
H1451	H145	0.643100	0.242600	0.148300
C1871	C187	0.607300	0.314000	0.156900
C1881	C188	0.559600	0.338400	0.168000
H1461	H146	0.557400	0.375800	0.168700
C1891	C189	0.515000	0.308200	0.178000
H1471	H147	0.482400	0.324900	0.185500
N451	N45	0.389300	0.198200	0.198000
N461	N46	0.473000	0.222900	0.184100
C1901	C190	0.576600	0.737900	0.311000
H1481	H148	0.587400	0.773700	0.313600
C1911	C191	0.575700	0.657400	0.304000
H1491	H149	0.585800	0.621700	0.299000
C1921	C192	0.527700	0.671500	0.313400
H1501	H150	0.498400	0.648700	0.317600
C1931	C193	0.481800	0.753600	0.323000
C1941	C194	0.434100	0.729200	0.334100
H1511	H151	0.431900	0.691800	0.334800
C1951	C195	0.389500	0.759300	0.344100
H1521	H152	0.356900	0.742600	0.351700
C1961	C196	0.392700	0.814000	0.343100
C1971	C197	0.440400	0.838400	0.332000
H1531	H153	0.442600	0.875800	0.331300
C1981	C198	0.485000	0.808200	0.322000
H1541	H154	0.517600	0.824900	0.314500
N471	N47	0.610700	0.698200	0.302000
N481	N48	0.527000	0.722900	0.315900
C1991	C199	0.923400	0.262100	0.811000
H1551	H155	0.912600	0.226300	0.813600
C2001	C200	0.924300	0.342600	0.804000
H1561	H156	0.914200	0.378300	0.799000
C2011	C201	0.972300	0.328500	0.813400
H1571	H157	0.001600	0.351300	0.817600
C2021	C202	0.018200	0.246400	0.823000
C2031	C203	0.065900	0.270800	0.834100
H1581	H158	0.068100	0.308200	0.834800
C2041	C204	0.110500	0.240700	0.844100
H1591	H159	0.143100	0.257400	0.851700
C2051	C205	0.107300	0.186000	0.843100
C2061	C206	0.059600	0.161600	0.832000
H1601	H160	0.057400	0.124200	0.831300
C2071	C207	0.015000	0.191800	0.822000
H1611	H161	0.982400	0.175100	0.814500
N491	N49	0.889300	0.301800	0.802000
N501	N50	0.973000	0.277100	0.815900
C2081	C208	0.076600	0.762100	0.689000
H1621	H162	0.087400	0.726300	0.686400
C2091	C209	0.075700	0.842600	0.696000
H1631	H163	0.085800	0.878300	0.701000
C2101	C210	0.027700	0.828500	0.686600
H1641	H164	0.998400	0.851300	0.682400
C2111	C211	0.981800	0.746400	0.677000
C2121	C212	0.934100	0.770800	0.665900
H1651	H165	0.931900	0.808200	0.665200
C2131	C213	0.889500	0.740700	0.655900
H1661	H166	0.856900	0.757400	0.648300
C2141	C214	0.892700	0.686000	0.656900
C2151	C215	0.940400	0.661600	0.668000
H1671	H167	0.942600	0.624200	0.668700
C2161	C216	0.985000	0.691800	0.678000
H1681	H168	0.017600	0.675100	0.685500
N511	N51	0.110700	0.801800	0.698000
N521	N52	0.027000	0.777100	0.684100
Cd51	Cd5	0.299890	0.200110	0.200110
Cd61	Cd6	0.799890	0.299890	0.799890
Cd71	Cd7	0.200110	0.799890	0.700110
Cd81	Cd8	0.700110	0.700110	0.299890
N531	N53	0.155300	0.155300	0.844700
N541	N54	0.844700	0.655300	0.655300
N551	N55	0.344700	0.844700	0.344700
N561	N56	0.655300	0.344700	0.155300
C2171	C217	0.689000	0.423400	0.737900
H1691	H169	0.686400	0.412600	0.773700
C2181	C218	0.696000	0.424300	0.657400
H1701	H170	0.701000	0.414200	0.621700
C2191	C219	0.686600	0.472300	0.671500
H1711	H171	0.682400	0.501600	0.648700
C2201	C220	0.677000	0.518200	0.753600
C2211	C221	0.665900	0.565900	0.729200
H1721	H172	0.665200	0.568100	0.691800
C2221	C222	0.655900	0.610500	0.759300
H1731	H173	0.648300	0.643100	0.742600
C2231	C223	0.656900	0.607300	0.814000
C2241	C224	0.668000	0.559600	0.838400
H1741	H174	0.668700	0.557400	0.875800
C2251	C225	0.678000	0.515000	0.808200
H1751	H175	0.685500	0.482400	0.824900
N571	N57	0.698000	0.389300	0.698200
N581	N58	0.684100	0.473000	0.722900
C2261	C226	0.811000	0.576600	0.237900
H1761	H176	0.813600	0.587400	0.273700
C2271	C227	0.804000	0.575700	0.157400
H1771	H177	0.799000	0.585800	0.121700
C2281	C228	0.813400	0.527700	0.171500
H1781	H178	0.817600	0.498400	0.148700
C2291	C229	0.823000	0.481800	0.253600
C2301	C230	0.834100	0.434100	0.229200
H1791	H179	0.834800	0.431900	0.191800
C2311	C231	0.844100	0.389500	0.259300
H1801	H180	0.851700	0.356900	0.242600
C2321	C232	0.843100	0.392700	0.314000
C2331	C233	0.832000	0.440400	0.338400
H1811	H181	0.831300	0.442600	0.375800
C2341	C234	0.822000	0.485000	0.308200
H1821	H182	0.814500	0.517600	0.324900
N591	N59	0.802000	0.610700	0.198200
N601	N60	0.815900	0.527000	0.222900
C2351	C235	0.311000	0.923400	0.762100
H1831	H183	0.313600	0.912600	0.726300
C2361	C236	0.304000	0.924300	0.842600
H1841	H184	0.299000	0.914200	0.878300
C2371	C237	0.313400	0.972300	0.828500
H1851	H185	0.317600	0.001600	0.851300
C2381	C238	0.323000	0.018200	0.746400
C2391	C239	0.334100	0.065900	0.770800
H1861	H186	0.334800	0.068100	0.808200
C2401	C240	0.344100	0.110500	0.740700
H1871	H187	0.351700	0.143100	0.757400
C2411	C241	0.343100	0.107300	0.686000
C2421	C242	0.332000	0.059600	0.661600
H1881	H188	0.331300	0.057400	0.624200
C2431	C243	0.322000	0.015000	0.691800
H1891	H189	0.314500	0.982400	0.675100
N611	N61	0.302000	0.889300	0.801800
N621	N62	0.315900	0.973000	0.777100
C2441	C244	0.189000	0.076600	0.262100
H1901	H190	0.186400	0.087400	0.226300
C2451	C245	0.196000	0.075700	0.342600
H1911	H191	0.201000	0.085800	0.378300
C2461	C246	0.186600	0.027700	0.328500
H1921	H192	0.182400	0.998400	0.351300
C2471	C247	0.177000	0.981800	0.246400
C2481	C248	0.165900	0.934100	0.270800
H1931	H193	0.165200	0.931900	0.308200
C2491	C249	0.155900	0.889500	0.240700
H1941	H194	0.148300	0.856900	0.257400
C2501	C250	0.156900	0.892700	0.186000
C2511	C251	0.168000	0.940400	0.161600
H1951	H195	0.168700	0.942600	0.124200
C2521	C252	0.178000	0.985000	0.191800
H1961	H196	0.185500	0.017600	0.175100
N631	N63	0.198000	0.110700	0.301800
N641	N64	0.184100	0.027000	0.277100
C2531	C253	0.237900	0.189000	0.423400
H1971	H197	0.273700	0.186400	0.412600
C2541	C254	0.157400	0.196000	0.424300
H1981	H198	0.121700	0.201000	0.414200
C2551	C255	0.171500	0.186600	0.472300
H1991	H199	0.148700	0.182400	0.501600
C2561	C256	0.253600	0.177000	0.518200
C2571	C257	0.229200	0.165900	0.565900
H2001	H200	0.191800	0.165200	0.568100
C2581	C258	0.259300	0.155900	0.610500
H2011	H201	0.242600	0.148300	0.643100
C2591	C259	0.314000	0.156900	0.607300
C2601	C260	0.338400	0.168000	0.559600
H2021	H202	0.375800	0.168700	0.557400
C2611	C261	0.308200	0.178000	0.515000
H2031	H203	0.324900	0.185500	0.482400
N651	N65	0.198200	0.198000	0.389300
N661	N66	0.222900	0.184100	0.473000
C2621	C262	0.737900	0.311000	0.576600
H2041	H204	0.773700	0.313600	0.587400
C2631	C263	0.657400	0.304000	0.575700
H2051	H205	0.621700	0.299000	0.585800
C2641	C264	0.671500	0.313400	0.527700
H2061	H206	0.648700	0.317600	0.498400
C2651	C265	0.753600	0.323000	0.481800
C2661	C266	0.729200	0.334100	0.434100
H2071	H207	0.691800	0.334800	0.431900
C2671	C267	0.759300	0.344100	0.389500
H2081	H208	0.742600	0.351700	0.356900
C2681	C268	0.814000	0.343100	0.392700
C2691	C269	0.838400	0.332000	0.440400
H2091	H209	0.875800	0.331300	0.442600
C2701	C270	0.808200	0.322000	0.485000
H2101	H210	0.824900	0.314500	0.517600
N671	N67	0.698200	0.302000	0.610700
N681	N68	0.722900	0.315900	0.527000
C2711	C271	0.262100	0.811000	0.923400
H2111	H211	0.226300	0.813600	0.912600
C2721	C272	0.342600	0.804000	0.924300
H2121	H212	0.378300	0.799000	0.914200
C2731	C273	0.328500	0.813400	0.972300
H2131	H213	0.351300	0.817600	0.001600
C2741	C274	0.246400	0.823000	0.018200
C2751	C275	0.270800	0.834100	0.065900
H2141	H214	0.308200	0.834800	0.068100
C2761	C276	0.240700	0.844100	0.110500
H2151	H215	0.257400	0.851700	0.143100
C2771	C277	0.186000	0.843100	0.107300
C2781	C278	0.161600	0.832000	0.059600
H2161	H216	0.124200	0.831300	0.057400
C2791	C279	0.191800	0.822000	0.015000
H2171	H217	0.175100	0.814500	0.982400
N691	N69	0.301800	0.802000	0.889300
N701	N70	0.277100	0.815900	0.973000
C2801	C280	0.762100	0.689000	0.076600
H2181	H218	0.726300	0.686400	0.087400
C2811	C281	0.842600	0.696000	0.075700
H2191	H219	0.878300	0.701000	0.085800
C2821	C282	0.828500	0.686600	0.027700
H2201	H220	0.851300	0.682400	0.998400
C2831	C283	0.746400	0.677000	0.981800
C2841	C284	0.770800	0.665900	0.934100
H2211	H221	0.808200	0.665200	0.931900
C2851	C285	0.740700	0.655900	0.889500
H2221	H222	0.757400	0.648300	0.856900
C2861	C286	0.686000	0.656900	0.892700
C2871	C287	0.661600	0.668000	0.940400
H2231	H223	0.624200	0.668700	0.942600
C2881	C288	0.691800	0.678000	0.985000
H2241	H224	0.675100	0.685500	0.017600
N711	N71	0.801800	0.698000	0.110700
N721	N72	0.777100	0.684100	0.027000
C2891	C289	0.923400	0.737900	0.189000
H2251	H225	0.912600	0.773700	0.186400
C2901	C290	0.924300	0.657400	0.196000
H2261	H226	0.914200	0.621700	0.201000
C2911	C291	0.972300	0.671500	0.186600
H2271	H227	0.001600	0.648700	0.182400
C2921	C292	0.018200	0.753600	0.177000
C2931	C293	0.065900	0.729200	0.165900
H2281	H228	0.068100	0.691800	0.165200
C2941	C294	0.110500	0.759300	0.155900
H2291	H229	0.143100	0.742600	0.148300
C2951	C295	0.107300	0.814000	0.156900
C2961	C296	0.059600	0.838400	0.168000
H2301	H230	0.057400	0.875800	0.168700
C2971	C297	0.015000	0.808200	0.178000
H2311	H231	0.982400	0.824900	0.185500
N731	N73	0.889300	0.698200	0.198000
N741	N74	0.973000	0.722900	0.184100
C2981	C298	0.076600	0.237900	0.311000
H2321	H232	0.087400	0.273700	0.313600
C2991	C299	0.075700	0.157400	0.304000
H2331	H233	0.085800	0.121700	0.299000
C3001	C300	0.027700	0.171500	0.313400
H2341	H234	0.998400	0.148700	0.317600
C3011	C301	0.981800	0.253600	0.323000
C3021	C302	0.934100	0.229200	0.334100
H2351	H235	0.931900	0.191800	0.334800
C3031	C303	0.889500	0.259300	0.344100
H2361	H236	0.856900	0.242600	0.351700
C3041	C304	0.892700	0.314000	0.343100
C3051	C305	0.940400	0.338400	0.332000
H2371	H237	0.942600	0.375800	0.331300
C3061	C306	0.985000	0.308200	0.322000
H2381	H238	0.017600	0.324900	0.314500
N751	N75	0.110700	0.198200	0.302000
N761	N76	0.027000	0.222900	0.315900
C3071	C307	0.423400	0.762100	0.811000
H2391	H239	0.412600	0.726300	0.813600
C3081	C308	0.424300	0.842600	0.804000
H2401	H240	0.414200	0.878300	0.799000
C3091	C309	0.472300	0.828500	0.813400
H2411	H241	0.501600	0.851300	0.817600
C3101	C310	0.518200	0.746400	0.823000
C3111	C311	0.565900	0.770800	0.834100
H2421	H242	0.568100	0.808200	0.834800
C3121	C312	0.610500	0.740700	0.844100
H2431	H243	0.643100	0.757400	0.851700
C3131	C313	0.607300	0.686000	0.843100
C3141	C314	0.559600	0.661600	0.832000
H2441	H244	0.557400	0.624200	0.831300
C3151	C315	0.515000	0.691800	0.822000
H2451	H245	0.482400	0.675100	0.814500
N771	N77	0.389300	0.801800	0.802000
N781	N78	0.473000	0.777100	0.815900
C3161	C316	0.576600	0.262100	0.689000
H2461	H246	0.587400	0.226300	0.686400
C3171	C317	0.575700	0.342600	0.696000
H2471	H247	0.585800	0.378300	0.701000
C3181	C318	0.527700	0.328500	0.686600
H2481	H248	0.498400	0.351300	0.682400
C3191	C319	0.481800	0.246400	0.677000
C3201	C320	0.434100	0.270800	0.665900
H2491	H249	0.431900	0.308200	0.665200
C3211	C321	0.389500	0.240700	0.655900
H2501	H250	0.356900	0.257400	0.648300
C3221	C322	0.392700	0.186000	0.656900
C3231	C323	0.440400	0.161600	0.668000
H2511	H251	0.442600	0.124200	0.668700
C3241	C324	0.485000	0.191800	0.678000
H2521	H252	0.517600	0.175100	0.685500
N791	N79	0.610700	0.301800	0.698000
N801	N80	0.527000	0.277100	0.684100
Cd91	Cd9	0.799890	0.700110	0.200110
Cd101	Cd10	0.200110	0.200110	0.299890
Cd111	Cd11	0.299890	0.799890	0.799890
Cd121	Cd12	0.700110	0.299890	0.700110
N811	N81	0.844700	0.344700	0.344700
N821	N82	0.155300	0.844700	0.155300
N831	N83	0.344700	0.155300	0.655300
N841	N84	0.655300	0.655300	0.844700
C3251	C325	0.689000	0.923400	0.237900
H2531	H253	0.686400	0.912600	0.273700
C3261	C326	0.696000	0.924300	0.157400
H2541	H254	0.701000	0.914200	0.121700
C3271	C327	0.686600	0.972300	0.171500
H2551	H255	0.682400	0.001600	0.148700
C3281	C328	0.677000	0.018200	0.253600
C3291	C329	0.665900	0.065900	0.229200
H2561	H256	0.665200	0.068100	0.191800
C3301	C330	0.655900	0.110500	0.259300
H2571	H257	0.648300	0.143100	0.242600
C3311	C331	0.656900	0.107300	0.314000
C3321	C332	0.668000	0.059600	0.338400
H2581	H258	0.668700	0.057400	0.375800
C3331	C333	0.678000	0.015000	0.308200
H2591	H259	0.685500	0.982400	0.324900
N851	N85	0.698000	0.889300	0.198200
N861	N86	0.684100	0.973000	0.222900
C3341	C334	0.811000	0.076600	0.737900
H2601	H260	0.813600	0.087400	0.773700
C3351	C335	0.804000	0.075700	0.657400
H2611	H261	0.799000	0.085800	0.621700
C3361	C336	0.813400	0.027700	0.671500
H2621	H262	0.817600	0.998400	0.648700
C3371	C337	0.823000	0.981800	0.753600
C3381	C338	0.834100	0.934100	0.729200
H2631	H263	0.834800	0.931900	0.691800
C3391	C339	0.844100	0.889500	0.759300
H2641	H264	0.851700	0.856900	0.742600
C3401	C340	0.843100	0.892700	0.814000
C3411	C341	0.832000	0.940400	0.838400
H2651	H265	0.831300	0.942600	0.875800
C3421	C342	0.822000	0.985000	0.808200
H2661	H266	0.814500	0.017600	0.824900
N871	N87	0.802000	0.110700	0.698200
N881	N88	0.815900	0.027000	0.722900
C3431	C343	0.311000	0.423400	0.262100
H2671	H267	0.313600	0.412600	0.226300
C3441	C344	0.304000	0.424300	0.342600
H2681	H268	0.299000	0.414200	0.378300
C3451	C345	0.313400	0.472300	0.328500
H2691	H269	0.317600	0.501600	0.351300
C3461	C346	0.323000	0.518200	0.246400
C3471	C347	0.334100	0.565900	0.270800
H2701	H270	0.334800	0.568100	0.308200
C3481	C348	0.344100	0.610500	0.240700
H2711	H271	0.351700	0.643100	0.257400
C3491	C349	0.343100	0.607300	0.186000
C3501	C350	0.332000	0.559600	0.161600
H2721	H272	0.331300	0.557400	0.124200
C3511	C351	0.322000	0.515000	0.191800
H2731	H273	0.314500	0.482400	0.175100
N891	N89	0.302000	0.389300	0.301800
N901	N90	0.315900	0.473000	0.277100
C3521	C352	0.189000	0.576600	0.762100
H2741	H274	0.186400	0.587400	0.726300
C3531	C353	0.196000	0.575700	0.842600
H2751	H275	0.201000	0.585800	0.878300
C3541	C354	0.186600	0.527700	0.828500
H2761	H276	0.182400	0.498400	0.851300
C3551	C355	0.177000	0.481800	0.746400
C3561	C356	0.165900	0.434100	0.770800
H2771	H277	0.165200	0.431900	0.808200
C3571	C357	0.155900	0.389500	0.740700
H2781	H278	0.148300	0.356900	0.757400
C3581	C358	0.156900	0.392700	0.686000
C3591	C359	0.168000	0.440400	0.661600
H2791	H279	0.168700	0.442600	0.624200
C3601	C360	0.178000	0.485000	0.691800
H2801	H280	0.185500	0.517600	0.675100
N911	N91	0.198000	0.610700	0.801800
N921	N92	0.184100	0.527000	0.777100
C3611	C361	0.237900	0.689000	0.923400
H2811	H281	0.273700	0.686400	0.912600
C3621	C362	0.157400	0.696000	0.924300
H2821	H282	0.121700	0.701000	0.914200
C3631	C363	0.171500	0.686600	0.972300
H2831	H283	0.148700	0.682400	0.001600
C3641	C364	0.253600	0.677000	0.018200
C3651	C365	0.229200	0.665900	0.065900
H2841	H284	0.191800	0.665200	0.068100
C3661	C366	0.259300	0.655900	0.110500
H2851	H285	0.242600	0.648300	0.143100
C3671	C367	0.314000	0.656900	0.107300
C3681	C368	0.338400	0.668000	0.059600
H2861	H286	0.375800	0.668700	0.057400
C3691	C369	0.308200	0.678000	0.015000
H2871	H287	0.324900	0.685500	0.982400
N931	N93	0.198200	0.698000	0.889300
N941	N94	0.222900	0.684100	0.973000
C3701	C370	0.737900	0.811000	0.076600
H2881	H288	0.773700	0.813600	0.087400
C3711	C371	0.657400	0.804000	0.075700
H2891	H289	0.621700	0.799000	0.085800
C3721	C372	0.671500	0.813400	0.027700
H2901	H290	0.648700	0.817600	0.998400
C3731	C373	0.753600	0.823000	0.981800
C3741	C374	0.729200	0.834100	0.934100
H2911	H291	0.691800	0.834800	0.931900
C3751	C375	0.759300	0.844100	0.889500
H2921	H292	0.742600	0.851700	0.856900
C3761	C376	0.814000	0.843100	0.892700
C3771	C377	0.838400	0.832000	0.940400
H2931	H293	0.875800	0.831300	0.942600
C3781	C378	0.808200	0.822000	0.985000
H2941	H294	0.824900	0.814500	0.017600
N951	N95	0.698200	0.802000	0.110700
N961	N96	0.722900	0.815900	0.027000
C3791	C379	0.262100	0.311000	0.423400
H2951	H295	0.226300	0.313600	0.412600
C3801	C380	0.342600	0.304000	0.424300
H2961	H296	0.378300	0.299000	0.414200
C3811	C381	0.328500	0.313400	0.472300
H2971	H297	0.351300	0.317600	0.501600
C3821	C382	0.246400	0.323000	0.518200
C3831	C383	0.270800	0.334100	0.565900
H2981	H298	0.308200	0.334800	0.568100
C3841	C384	0.240700	0.344100	0.610500
H2991	H299	0.257400	0.351700	0.643100
C3851	C385	0.186000	0.343100	0.607300
C3861	C386	0.161600	0.332000	0.559600
H3001	H300	0.124200	0.331300	0.557400
C3871	C387	0.191800	0.322000	0.515000
H3011	H301	0.175100	0.314500	0.482400
N971	N97	0.301800	0.302000	0.389300
N981	N98	0.277100	0.315900	0.473000
C3881	C388	0.762100	0.189000	0.576600
H3021	H302	0.726300	0.186400	0.587400
C3891	C389	0.842600	0.196000	0.575700
H3031	H303	0.878300	0.201000	0.585800
C3901	C390	0.828500	0.186600	0.527700
H3041	H304	0.851300	0.182400	0.498400
C3911	C391	0.746400	0.177000	0.481800
C3921	C392	0.770800	0.165900	0.434100
H3051	H305	0.808200	0.165200	0.431900
C3931	C393	0.740700	0.155900	0.389500
H3061	H306	0.757400	0.148300	0.356900
C3941	C394	0.686000	0.156900	0.392700
C3951	C395	0.661600	0.168000	0.440400
H3071	H307	0.624200	0.168700	0.442600
C3961	C396	0.691800	0.178000	0.485000
H3081	H308	0.675100	0.185500	0.517600
N991	N99	0.801800	0.198000	0.610700
N1001	N100	0.777100	0.184100	0.527000
C3971	C397	0.923400	0.237900	0.689000
H3091	H309	0.912600	0.273700	0.686400
C3981	C398	0.924300	0.157400	0.696000
H3101	H310	0.914200	0.121700	0.701000
C3991	C399	0.972300	0.171500	0.686600
H3111	H311	0.001600	0.148700	0.682400
C4001	C400	0.018200	0.253600	0.677000
C4011	C401	0.065900	0.229200	0.665900
H3121	H312	0.068100	0.191800	0.665200
C4021	C402	0.110500	0.259300	0.655900
H3131	H313	0.143100	0.242600	0.648300
C4031	C403	0.107300	0.314000	0.656900
C4041	C404	0.059600	0.338400	0.668000
H3141	H314	0.057400	0.375800	0.668700
C4051	C405	0.015000	0.308200	0.678000
H3151	H315	0.982400	0.324900	0.685500
N1011	N101	0.889300	0.198200	0.698000
N1021	N102	0.973000	0.222900	0.684100
C4061	C406	0.076600	0.737900	0.811000
H3161	H316	0.087400	0.773700	0.813600
C4071	C407	0.075700	0.657400	0.804000
H3171	H317	0.085800	0.621700	0.799000
C4081	C408	0.027700	0.671500	0.813400
H3181	H318	0.998400	0.648700	0.817600
C4091	C409	0.981800	0.753600	0.823000
C4101	C410	0.934100	0.729200	0.834100
H3191	H319	0.931900	0.691800	0.834800
C4111	C411	0.889500	0.759300	0.844100
H3201	H320	0.856900	0.742600	0.851700
C4121	C412	0.892700	0.814000	0.843100
C4131	C413	0.940400	0.838400	0.832000
H3211	H321	0.942600	0.875800	0.831300
C4141	C414	0.985000	0.808200	0.822000
H3221	H322	0.017600	0.824900	0.814500
N1031	N103	0.110700	0.698200	0.802000
N1041	N104	0.027000	0.722900	0.815900
C4151	C415	0.423400	0.262100	0.311000
H3231	H323	0.412600	0.226300	0.313600
C4161	C416	0.424300	0.342600	0.304000
H3241	H324	0.414200	0.378300	0.299000
C4171	C417	0.472300	0.328500	0.313400
H3251	H325	0.501600	0.351300	0.317600
C4181	C418	0.518200	0.246400	0.323000
C4191	C419	0.565900	0.270800	0.334100
H3261	H326	0.568100	0.308200	0.334800
C4201	C420	0.610500	0.240700	0.344100
H3271	H327	0.643100	0.257400	0.351700
C4211	C421	0.607300	0.186000	0.343100
C4221	C422	0.559600	0.161600	0.332000
H3281	H328	0.557400	0.124200	0.331300
C4231	C423	0.515000	0.191800	0.322000
H3291	H329	0.482400	0.175100	0.314500
N1051	N105	0.389300	0.301800	0.302000
N1061	N106	0.473000	0.277100	0.315900
C4241	C424	0.576600	0.762100	0.189000
H3301	H330	0.587400	0.726300	0.186400
C4251	C425	0.575700	0.842600	0.196000
H3311	H331	0.585800	0.878300	0.201000
C4261	C426	0.527700	0.828500	0.186600
H3321	H332	0.498400	0.851300	0.182400
C4271	C427	0.481800	0.746400	0.177000
C4281	C428	0.434100	0.770800	0.165900
H3331	H333	0.431900	0.808200	0.165200
C4291	C429	0.389500	0.740700	0.155900
H3341	H334	0.356900	0.757400	0.148300
C4301	C430	0.392700	0.686000	0.156900
C4311	C431	0.440400	0.661600	0.168000
H3351	H335	0.442600	0.624200	0.168700
C4321	C432	0.485000	0.691800	0.178000
H3361	H336	0.517600	0.675100	0.185500
N1071	N107	0.610700	0.801800	0.198000
N1081	N108	0.527000	0.777100	0.184100
Cd131	Cd13	0.299890	0.299890	0.299890
Cd141	Cd14	0.200110	0.700110	0.799890
Cd151	Cd15	0.799890	0.200110	0.700110
Cd161	Cd16	0.700110	0.799890	0.200110
N1091	N109	0.844700	0.844700	0.844700
N1101	N110	0.155300	0.344700	0.655300
N1111	N111	0.655300	0.155300	0.344700
N1121	N112	0.344700	0.655300	0.155300
