data_VIXCUB_clean_PM
_symmetry_space_group_name_H-M	'P1'
_cell_length_a	11.652500
_cell_length_b	18.355400
_cell_length_c	18.355400
_cell_angle_alpha	84.217600
_cell_angle_beta	71.493400
_cell_angle_gamma	71.493500
_symmetry_Int_Tables_number 1

loop_
_symmetry_equiv_pos_as_xyz
'x,y,z'

loop_
_atom_site_label
_atom_site_type_symbol
_atom_site_fract_x
_atom_site_fract_y
_atom_site_fract_z
Cu11	Cu1	0.414960	0.595230	0.257430
Cu21	Cu2	0.767620	0.904770	0.242570
Cu31	Cu3	0.672390	0.742570	0.095230
Cu41	Cu4	0.010190	0.757430	0.404770
Cu51	Cu5	0.585040	0.404770	0.742570
Cu61	Cu6	0.232380	0.095230	0.757430
Cu71	Cu7	0.327610	0.257430	0.904770
Cu81	Cu8	0.989810	0.242570	0.595230
Cu91	Cu9	0.500000	0.500000	0.500000
Cu101	Cu10	0.000000	0.000000	0.000000
Cu111	Cu11	0.000000	0.500000	0.000000
Cu121	Cu12	0.000000	0.000000	0.500000
H11	H1	0.972600	0.756000	0.569800
H21	H2	0.966200	0.727300	0.696100
H31	H3	0.129800	0.631000	0.727800
H41	H4	0.311000	0.567500	0.630500
H51	H5	0.798400	0.744000	0.930200
H61	H6	0.889600	0.772700	0.803900
H71	H7	0.988600	0.869000	0.772200
H81	H8	0.009000	0.932500	0.869500
H91	H9	0.542400	0.430200	0.256000
H101	H10	0.662300	0.303900	0.227300
H111	H11	0.857600	0.272200	0.131000
H121	H12	0.941500	0.369500	0.067500
H131	H13	0.728600	0.069800	0.244000
H141	H14	0.693500	0.196100	0.272700
H151	H15	0.760800	0.227800	0.369000
H161	H16	0.878500	0.130500	0.432500
H171	H17	0.027400	0.244000	0.430200
H181	H18	0.033800	0.272700	0.303900
H191	H19	0.870200	0.369000	0.272200
H201	H20	0.689000	0.432500	0.369500
H211	H21	0.201600	0.256000	0.069800
H221	H22	0.110400	0.227300	0.196100
H231	H23	0.011400	0.131000	0.227800
H241	H24	0.991000	0.067500	0.130500
H251	H25	0.457600	0.569800	0.744000
H261	H26	0.337700	0.696100	0.772700
H271	H27	0.142400	0.727800	0.869000
H281	H28	0.058500	0.630500	0.932500
H291	H29	0.271400	0.930200	0.756000
H301	H30	0.306500	0.803900	0.727300
H311	H31	0.239200	0.772200	0.631000
H321	H32	0.121500	0.869500	0.567500
C11	C1	0.360440	0.601450	0.410870
C21	C2	0.250470	0.657640	0.391820
C31	C3	0.145630	0.677120	0.522220
C41	C4	0.040810	0.717140	0.581440
C51	C5	0.037480	0.699920	0.656120
C61	C6	0.135890	0.643160	0.675460
C71	C7	0.242270	0.604890	0.617970
C81	C8	0.248030	0.621700	0.540640
C91	C9	0.872760	0.898550	0.089130
C101	C10	0.799930	0.842360	0.108180
C111	C11	0.844970	0.822880	0.977780
C121	C12	0.839390	0.782860	0.918560
C131	C13	0.893520	0.800080	0.843880
C141	C14	0.954510	0.856840	0.824540
C151	C15	0.965130	0.895110	0.882030
C161	C16	0.910370	0.878300	0.959360
C171	C17	0.771310	0.589130	0.101450
C181	C18	0.642290	0.608180	0.157640
C191	C19	0.667850	0.477780	0.177120
C201	C20	0.622250	0.418560	0.217140
C211	C21	0.693600	0.343880	0.199920
C221	C22	0.811350	0.324540	0.143160
C231	C23	0.860240	0.382030	0.104890
C241	C24	0.788670	0.459360	0.121700
C251	C25	0.961890	0.910870	0.398550
C261	C26	0.908110	0.891820	0.342360
C271	C27	0.822750	0.022220	0.322880
C281	C28	0.757950	0.081440	0.282860
C291	C29	0.737400	0.156120	0.300080
C301	C30	0.779050	0.175460	0.356840
C311	C31	0.847160	0.117970	0.395110
C321	C32	0.869730	0.040640	0.378300
C331	C33	0.639560	0.398550	0.589130
C341	C34	0.749530	0.342360	0.608180
C351	C35	0.854370	0.322880	0.477780
C361	C36	0.959190	0.282860	0.418560
C371	C37	0.962520	0.300080	0.343880
C381	C38	0.864110	0.356840	0.324540
C391	C39	0.757730	0.395110	0.382030
C401	C40	0.751970	0.378300	0.459360
C411	C41	0.127240	0.101450	0.910870
C421	C42	0.200070	0.157640	0.891820
C431	C43	0.155030	0.177120	0.022220
C441	C44	0.160610	0.217140	0.081440
C451	C45	0.106480	0.199920	0.156120
C461	C46	0.045490	0.143160	0.175460
C471	C47	0.034870	0.104890	0.117970
C481	C48	0.089630	0.121700	0.040640
C491	C49	0.228690	0.410870	0.898550
C501	C50	0.357710	0.391820	0.842360
C511	C51	0.332150	0.522220	0.822880
C521	C52	0.377750	0.581440	0.782860
C531	C53	0.306400	0.656120	0.800080
C541	C54	0.188650	0.675460	0.856840
C551	C55	0.139760	0.617970	0.895110
C561	C56	0.211330	0.540640	0.878300
C571	C57	0.038110	0.089130	0.601450
C581	C58	0.091890	0.108180	0.657640
C591	C59	0.177250	0.977780	0.677120
C601	C60	0.242050	0.918560	0.717140
C611	C61	0.262600	0.843880	0.699920
C621	C62	0.220950	0.824540	0.643160
C631	C63	0.152840	0.882030	0.604890
C641	C64	0.130270	0.959360	0.621700
N11	N1	0.355490	0.583730	0.482830
N21	N2	0.147300	0.692410	0.446570
N31	N3	0.922050	0.916270	0.017170
N41	N4	0.786280	0.807590	0.053430
N51	N5	0.838320	0.517170	0.083730
N61	N6	0.593870	0.553430	0.192410
N71	N7	0.939220	0.982830	0.416270
N81	N8	0.839710	0.946570	0.307590
N91	N9	0.644510	0.416270	0.517170
N101	N10	0.852700	0.307590	0.553430
N111	N11	0.077950	0.083730	0.982830
N121	N12	0.213720	0.192410	0.946570
N131	N13	0.161680	0.482830	0.916270
N141	N14	0.406130	0.446570	0.807590
N151	N15	0.060780	0.017170	0.583730
N161	N16	0.160290	0.053430	0.692410
Cl11	Cl1	0.596440	0.588000	0.507520
Cl21	Cl2	0.191960	0.912000	0.992480
Cl31	Cl3	0.103960	0.492480	0.088000
Cl41	Cl4	0.184440	0.007520	0.412000
Cl51	Cl5	0.403560	0.412000	0.492480
Cl61	Cl6	0.808040	0.088000	0.007520
Cl71	Cl7	0.896040	0.507520	0.912000
Cl81	Cl8	0.815560	0.992480	0.588000
O11	O1	0.457370	0.570130	0.354230
O21	O2	0.259870	0.669300	0.320640
O31	O3	0.881730	0.929870	0.145770
O41	O4	0.749810	0.830700	0.179360
O51	O5	0.811600	0.645770	0.070130
O61	O6	0.580510	0.679360	0.169300
O71	O7	0.027500	0.854230	0.429870
O81	O8	0.929170	0.820640	0.330700
O91	O9	0.542630	0.429870	0.645770
O101	O10	0.740130	0.330700	0.679360
O111	O11	0.118270	0.070130	0.854230
O121	O12	0.250190	0.169300	0.820640
O131	O13	0.188400	0.354230	0.929870
O141	O14	0.419490	0.320640	0.830700
O151	O15	0.972500	0.145770	0.570130
O161	O16	0.070830	0.179360	0.669300
