data_VIXPUP01_clean_PM
_symmetry_space_group_name_H-M	'P1'
_cell_length_a	18.662700
_cell_length_b	27.916100
_cell_length_c	32.364300
_cell_angle_alpha	112.655000
_cell_angle_beta	90.000000
_cell_angle_gamma	90.000000
_symmetry_Int_Tables_number 1

loop_
_symmetry_equiv_pos_as_xyz
'x,y,z'

loop_
_atom_site_label
_atom_site_type_symbol
_atom_site_fract_x
_atom_site_fract_y
_atom_site_fract_z
Cu11	Cu1	0.992850	0.712840	0.695240
Cu21	Cu2	0.814110	0.790260	0.995140
Cu31	Cu3	0.755410	0.705270	0.490400
Cu41	Cu4	0.492850	0.287160	0.804760
Cu51	Cu5	0.809130	0.296990	0.531830
Cu61	Cu6	0.501970	0.798240	0.269590
Cu71	Cu7	0.190870	0.703010	0.468170
Cu81	Cu8	0.244590	0.294730	0.509600
Cu91	Cu9	0.744590	0.705270	0.990400
Cu101	Cu10	0.761680	0.210370	0.025260
Cu111	Cu11	0.738320	0.210370	0.525260
Cu121	Cu12	0.309130	0.703010	0.968170
Cu131	Cu13	0.185890	0.209740	0.004860
Cu141	Cu14	0.507150	0.712840	0.195240
Cu151	Cu15	0.001970	0.201760	0.230410
Cu161	Cu16	0.998030	0.798240	0.769590
Cu171	Cu17	0.238320	0.789630	0.974740
Cu181	Cu18	0.255410	0.294730	0.009600
Cu191	Cu19	0.314110	0.209740	0.504860
Cu201	Cu20	0.261680	0.789630	0.474740
Cu211	Cu21	0.498030	0.201760	0.730410
Cu221	Cu22	0.690870	0.296990	0.031830
Cu231	Cu23	0.007150	0.287160	0.304760
Cu241	Cu24	0.685890	0.790260	0.495140
H11	H1	0.640100	0.388800	0.512000
H21	H2	0.971900	0.748000	0.467300
H31	H3	0.139500	0.380000	0.260000
H41	H4	0.793300	0.547400	0.737300
H51	H5	0.527400	0.261000	0.506100
H61	H6	0.253800	0.558100	0.213100
H71	H7	0.171500	0.244000	0.374600
H81	H8	0.735300	0.051400	0.320100
H91	H9	0.193500	0.054400	0.796200
H101	H10	0.246400	0.879400	0.612000
H111	H11	0.922600	0.616100	0.003900
H121	H12	0.972600	0.261000	0.006100
H131	H13	0.206700	0.452600	0.262700
H141	H14	0.923600	0.124300	0.533200
H151	H15	0.859300	0.876900	0.480600
H161	H16	0.297300	0.121600	0.364200
H171	H17	0.673400	0.884200	0.240800
H181	H18	0.216100	0.624400	0.326200
H191	H19	0.702700	0.878400	0.635800
H201	H20	0.634900	0.747100	0.355500
H211	H21	0.235300	0.948600	0.179900
H221	H22	0.328500	0.244000	0.874600
H231	H23	0.753800	0.441900	0.286900
H241	H24	0.873200	0.242600	0.391800
H251	H25	0.753600	0.120600	0.388000
H261	H26	0.471900	0.252000	0.032700
H271	H27	0.926900	0.946300	0.465100
H281	H28	0.246200	0.558100	0.713100
H291	H29	0.576400	0.124300	0.033200
H301	H30	0.073100	0.053700	0.534900
H311	H31	0.134900	0.252900	0.144500
H321	H32	0.806500	0.945600	0.203800
H331	H33	0.640700	0.876900	0.980600
H341	H34	0.831900	0.371400	0.278500
H351	H35	0.645000	0.115700	0.775500
H361	H36	0.266100	0.383600	0.648400
H371	H37	0.359300	0.123100	0.019400
H381	H38	0.419000	0.542000	0.492200
H391	H39	0.028100	0.252000	0.532700
H401	H40	0.081000	0.542000	0.992200
H411	H41	0.472600	0.739000	0.493900
H421	H42	0.746400	0.120600	0.888000
H431	H43	0.253600	0.879400	0.112000
H441	H44	0.341500	0.750200	0.342000
H451	H45	0.716100	0.375600	0.173800
H461	H46	0.746200	0.441900	0.786900
H471	H47	0.639500	0.620000	0.240000
H481	H48	0.668100	0.371400	0.778500
H491	H49	0.528100	0.748000	0.967300
H501	H50	0.693500	0.945600	0.703800
H511	H51	0.841500	0.249800	0.158000
H521	H52	0.423600	0.875700	0.966800
H531	H53	0.733900	0.616400	0.351600
H541	H54	0.626800	0.242600	0.891800
H551	H55	0.828500	0.756000	0.625400
H561	H56	0.145000	0.884300	0.724500
H571	H57	0.373200	0.757400	0.108200
H581	H58	0.202700	0.121600	0.864200
H591	H59	0.233900	0.383600	0.148400
H601	H60	0.865100	0.747100	0.855500
H611	H61	0.027400	0.739000	0.993900
H621	H62	0.365100	0.252900	0.644500
H631	H63	0.573100	0.946300	0.965100
H641	H64	0.671500	0.756000	0.125400
H651	H65	0.140100	0.611200	0.988000
H661	H66	0.264700	0.948600	0.679900
H671	H67	0.359900	0.611200	0.488000
H681	H68	0.422600	0.383900	0.496100
H691	H69	0.826600	0.884200	0.740800
H701	H70	0.581000	0.458000	0.507800
H711	H71	0.283900	0.624400	0.826200
H721	H72	0.077400	0.383900	0.996100
H731	H73	0.859900	0.388800	0.012000
H741	H74	0.797300	0.878400	0.135800
H751	H75	0.766100	0.616400	0.851600
H761	H76	0.860500	0.620000	0.740000
H771	H77	0.293300	0.452600	0.762700
H781	H78	0.577400	0.616100	0.503900
H791	H79	0.140700	0.123100	0.519400
H801	H80	0.158500	0.750200	0.842000
H811	H81	0.855000	0.115700	0.275500
H821	H82	0.355000	0.884300	0.224500
H831	H83	0.706700	0.547400	0.237300
H841	H84	0.331900	0.628600	0.221500
H851	H85	0.783900	0.375600	0.673800
H861	H86	0.658500	0.249800	0.658000
H871	H87	0.764700	0.051400	0.820100
H881	H88	0.076400	0.875700	0.466800
H891	H89	0.306500	0.054400	0.296200
H901	H90	0.326600	0.115800	0.759200
H911	H91	0.426900	0.053700	0.034900
H921	H92	0.360500	0.380000	0.760000
H931	H93	0.173400	0.115800	0.259200
H941	H94	0.168100	0.628600	0.721500
H951	H95	0.126800	0.757400	0.608200
H961	H96	0.919000	0.458000	0.007800
C11	C1	0.256300	0.213500	0.425250
C21	C2	0.650500	0.636800	0.271000
C31	C3	0.244700	0.714100	0.889200
C41	C4	0.033200	0.319000	0.000000
C51	C5	0.603900	0.708100	0.501240
C61	C6	0.012900	0.974200	0.500600
C71	C7	0.222300	0.692400	0.841700
C81	C8	0.156600	0.866700	0.693730
C91	C9	0.349500	0.363200	0.729000
C101	C10	0.186100	0.389800	0.207700
C111	C11	0.970800	0.294700	0.005400
C121	C12	0.971300	0.782900	0.469300
C131	C13	0.313900	0.389800	0.707700
C141	C14	0.394900	0.782100	0.963390
C151	C15	0.250200	0.641600	0.814700
C161	C16	0.896100	0.708100	0.001240
C171	C17	0.664500	0.817200	0.186530
C181	C18	0.298500	0.889900	0.171800
C191	C19	0.198000	0.290000	0.089960
C201	C20	0.205800	0.365800	0.162500
C211	C21	0.162100	0.703000	0.982300
C221	C22	0.966700	0.884000	0.473100
C231	C23	0.348400	0.693200	0.279440
C241	C24	0.656600	0.133300	0.806270
C251	C25	0.404100	0.629200	0.491300
C261	C26	0.263000	0.531800	0.755600
C271	C27	0.512900	0.025800	0.999400
C281	C28	0.467100	0.606700	0.497400
C291	C29	0.309700	0.134100	0.788800
C301	C30	0.651600	0.306800	0.720560
C311	C31	0.335500	0.182800	0.813470
C321	C32	0.824500	0.283500	0.176170
C331	C33	0.087200	0.285800	0.230070
C341	C34	0.735700	0.813600	0.123840
C351	C35	0.894900	0.217900	0.536610
C361	C36	0.343400	0.866700	0.193730
C371	C37	0.317500	0.314800	0.638800
C381	C38	0.717200	0.136600	0.872900
C391	C39	0.470800	0.705300	0.494600
C401	C40	0.752000	0.975000	0.754800
C411	C41	0.466800	0.319000	0.500000
C421	C42	0.849500	0.636800	0.771000
C431	C43	0.607100	0.793500	0.204470
C441	C44	0.338600	0.215400	0.019600
C451	C45	0.813900	0.610200	0.792300
C461	C46	0.220200	0.477900	0.218000
C471	C47	0.533200	0.681000	0.500000
C481	C48	0.396100	0.291900	0.498760
C491	C49	0.252000	0.025000	0.745200
C501	C50	0.466200	0.367800	0.499100
C511	C51	0.028700	0.217100	0.530700
C521	C52	0.743700	0.786500	0.574750
C531	C53	0.688300	0.790200	0.142280
C541	C54	0.720200	0.522100	0.282000
C551	C55	0.275700	0.618500	0.269800
C561	C56	0.904100	0.370800	0.008700
C571	C57	0.529200	0.294700	0.505400
C581	C58	0.130300	0.312300	0.206100
C591	C59	0.808900	0.186100	0.395970
C601	C60	0.775700	0.381500	0.230200
C611	C61	0.033200	0.858600	0.468600
C621	C62	0.487100	0.974200	0.000600
C631	C63	0.319700	0.643800	0.252330
C641	C64	0.033800	0.367800	0.999100
C651	C65	0.241300	0.111500	0.307200
C661	C66	0.107100	0.206500	0.295530
C671	C67	0.755300	0.285900	0.110800
C681	C68	0.596000	0.859500	0.976800
C691	C69	0.848400	0.306800	0.220560
C701	C70	0.533300	0.884000	0.973100
C711	C71	0.533200	0.141400	0.031400
C721	C72	0.255300	0.714100	0.389200
C731	C73	0.352400	0.288200	0.660530
C741	C74	0.758700	0.888500	0.692800
C751	C75	0.819700	0.356200	0.247670
C761	C76	0.175500	0.716500	0.823830
C771	C77	0.188300	0.209800	0.357720
C781	C78	0.528700	0.782900	0.969300
C791	C79	0.794200	0.634200	0.837500
C801	C80	0.032900	0.606700	0.997400
C811	C81	0.966800	0.681000	0.000000
C821	C82	0.802000	0.710000	0.910040
C831	C83	0.777700	0.307600	0.158300
C841	C84	0.369700	0.312300	0.706100
C851	C85	0.870300	0.182500	0.330590
C861	C86	0.988100	0.526500	0.001500
C871	C87	0.647600	0.711800	0.339470
C881	C88	0.353800	0.790900	0.124470
C891	C89	0.079300	0.793100	0.692420
C901	C90	0.763500	0.862800	0.148800
C911	C91	0.103900	0.291900	0.998760
C921	C92	0.277700	0.692400	0.341700
C931	C93	0.466800	0.858600	0.968600
C941	C94	0.906200	0.320200	0.009800
C951	C95	0.835500	0.817200	0.686530
C961	C96	0.646200	0.209100	0.875530
C971	C97	0.756300	0.786500	0.074750
C981	C98	0.792400	0.212800	0.445280
C991	C99	0.798500	0.110100	0.328200
C1001	C100	0.852400	0.711800	0.839470
C1011	C101	0.407500	0.190300	0.025100
C1021	C102	0.294200	0.365800	0.662500
C1031	C103	0.817500	0.685200	0.861200
C1041	C104	0.093800	0.679800	0.990200
C1051	C105	0.412800	0.285800	0.730070
C1061	C106	0.292400	0.787200	0.054720
C1071	C107	0.902800	0.281540	0.238400
C1081	C108	0.235700	0.186400	0.376160
C1091	C109	0.912800	0.714200	0.769930
C1101	C110	0.809700	0.865900	0.711200
C1111	C111	0.675500	0.283500	0.676170
C1121	C112	0.595900	0.370800	0.508700
C1131	C113	0.782800	0.136600	0.372900
C1141	C114	0.698000	0.710000	0.410040
C1151	C115	0.737000	0.468200	0.244400
C1161	C116	0.279800	0.477900	0.718000
C1171	C117	0.151600	0.693200	0.779440
C1181	C118	0.324500	0.716500	0.323830
C1191	C119	0.191100	0.813900	0.604030
C1201	C120	0.201500	0.889900	0.671800
C1211	C121	0.263500	0.137200	0.351200
C1221	C122	0.736500	0.862800	0.648800
C1231	C123	0.750200	0.358400	0.685300
C1241	C124	0.471300	0.217100	0.030700
C1251	C125	0.236500	0.137200	0.851200
C1261	C126	0.370300	0.817500	0.169410
C1271	C127	0.243700	0.213500	0.925250
C1281	C128	0.741300	0.888500	0.192800
C1291	C129	0.420700	0.793100	0.192420
C1301	C130	0.701500	0.110100	0.828200
C1311	C131	0.488100	0.473500	0.498500
C1321	C132	0.838600	0.784600	0.480400
C1331	C133	0.843400	0.133300	0.306270
C1341	C134	0.763000	0.468200	0.744400
C1351	C135	0.392900	0.206500	0.795530
C1361	C136	0.146200	0.790900	0.624470
C1371	C137	0.402800	0.718460	0.261600
C1381	C138	0.532900	0.393300	0.502600
C1391	C139	0.097200	0.718460	0.761600
C1401	C140	0.511900	0.526500	0.501500
C1411	C141	0.967100	0.393300	0.002600
C1421	C142	0.308900	0.813900	0.104030
C1431	C143	0.722300	0.307600	0.658300
C1441	C144	0.920700	0.206900	0.307580
C1451	C145	0.092500	0.190300	0.525100
C1461	C146	0.208300	0.975900	0.731400
C1471	C147	0.662100	0.297000	0.517700
C1481	C148	0.690300	0.865900	0.211200
C1491	C149	0.691100	0.186100	0.895970
C1501	C150	0.907500	0.809700	0.474900
C1511	C151	0.579300	0.206900	0.807580
C1521	C152	0.791700	0.024100	0.268600
C1531	C153	0.248000	0.025000	0.245200
C1541	C154	0.587200	0.714200	0.269930
C1551	C155	0.592500	0.809700	0.974900
C1561	C156	0.748000	0.975000	0.254800
C1571	C157	0.302000	0.290000	0.589960
C1581	C158	0.597200	0.281540	0.738400
C1591	C159	0.708300	0.024100	0.768600
C1601	C160	0.661400	0.784600	0.980400
C1611	C161	0.465800	0.807700	0.966800
C1621	C162	0.258700	0.111500	0.807200
C1631	C163	0.686100	0.610200	0.292300
C1641	C164	0.095900	0.629200	0.991300
C1651	C165	0.764300	0.813600	0.623840
C1661	C166	0.406200	0.679800	0.490200
C1671	C167	0.987100	0.025800	0.499400
C1681	C168	0.705800	0.634200	0.337500
C1691	C169	0.029200	0.705300	0.994600
C1701	C170	0.129700	0.817500	0.669410
C1711	C171	0.264300	0.186400	0.876160
C1721	C172	0.853800	0.209100	0.375530
C1731	C173	0.533800	0.632200	0.500900
C1741	C174	0.404000	0.140500	0.023200
C1751	C175	0.837900	0.297000	0.017700
C1761	C176	0.282800	0.863400	0.127100
C1771	C177	0.534200	0.192300	0.033200
C1781	C178	0.869700	0.687700	0.793900
C1791	C179	0.096000	0.140500	0.523200
C1801	C180	0.105100	0.782100	0.463390
C1811	C181	0.682500	0.685200	0.361200
C1821	C182	0.033300	0.116000	0.526900
C1831	C183	0.629700	0.182500	0.830590
C1841	C184	0.291700	0.975900	0.231400
C1851	C185	0.630300	0.687700	0.293900
C1861	C186	0.311700	0.209800	0.857720
C1871	C187	0.892900	0.793500	0.704470
C1881	C188	0.966200	0.632200	0.000900
C1891	C189	0.147600	0.288200	0.160530
C1901	C190	0.965800	0.192300	0.533200
C1911	C191	0.593800	0.320200	0.509800
C1921	C192	0.680300	0.356200	0.747670
C1931	C193	0.749800	0.358400	0.185300
C1941	C194	0.724300	0.381500	0.730200
C1951	C195	0.190300	0.134100	0.288800
C1961	C196	0.249800	0.641600	0.314700
C1971	C197	0.180300	0.643800	0.752330
C1981	C198	0.904000	0.859500	0.476800
C1991	C199	0.217200	0.863400	0.627100
C2001	C200	0.337900	0.703000	0.482300
C2011	C201	0.161400	0.215400	0.519600
C2021	C202	0.150500	0.363200	0.229000
C2031	C203	0.034200	0.807700	0.466800
C2041	C204	0.605100	0.217900	0.036610
C2051	C205	0.011900	0.473500	0.998500
C2061	C206	0.164500	0.182800	0.313470
C2071	C207	0.744700	0.285900	0.610800
C2081	C208	0.466700	0.116000	0.026900
C2091	C209	0.207600	0.787200	0.554720
C2101	C210	0.779800	0.522100	0.782000
C2111	C211	0.237000	0.531800	0.255600
C2121	C212	0.224300	0.618500	0.769800
C2131	C213	0.966800	0.141400	0.531400
C2141	C214	0.707600	0.212800	0.945280
C2151	C215	0.811700	0.790200	0.642280
C2161	C216	0.182500	0.314800	0.138800
N11	N1	0.731100	0.937600	0.716300
N21	N2	0.254400	0.566300	0.242180
N31	N3	0.705200	0.557000	0.266600
N41	N4	0.536800	0.936900	0.977700
N51	N5	0.036800	0.063100	0.522300
N61	N6	0.962300	0.444400	0.003400
N71	N7	0.268900	0.062400	0.283700
N81	N8	0.462300	0.555600	0.496600
N91	N9	0.245600	0.566300	0.742180
N101	N10	0.271000	0.940100	0.193500
N111	N11	0.771000	0.059900	0.306500
N121	N12	0.729000	0.059900	0.806500
N131	N13	0.294800	0.443000	0.733400
N141	N14	0.229000	0.940100	0.693500
N151	N15	0.745600	0.433700	0.757820
N161	N16	0.794800	0.557000	0.766600
N171	N17	0.205200	0.443000	0.233400
N181	N18	0.037700	0.555600	0.996600
N191	N19	0.768900	0.937600	0.216300
N201	N20	0.754400	0.433700	0.257820
N211	N21	0.463200	0.063100	0.022300
N221	N22	0.231100	0.062400	0.783700
N231	N23	0.537700	0.444400	0.503400
N241	N24	0.963200	0.936900	0.477700
O11	O1	0.160100	0.317260	0.999270
O21	O2	0.179800	0.743940	0.533590
O31	O3	0.841700	0.739020	0.478920
O41	O4	0.160500	0.808750	0.467100
O51	O5	0.730900	0.682840	0.427200
O61	O6	0.839500	0.191250	0.532900
O71	O7	0.417500	0.179690	0.757510
O81	O8	0.204800	0.186900	0.941680
O91	O9	0.822000	0.755650	0.929640
O101	O10	0.943700	0.250750	0.329980
O111	O11	0.779100	0.312810	0.595780
O121	O12	0.717900	0.322300	0.520720
O131	O13	0.254700	0.812930	0.037580
O141	O14	0.659800	0.026800	0.746400
O151	O15	0.069200	0.967800	0.513800
O161	O16	0.082500	0.179690	0.257510
O171	O17	0.678000	0.755650	0.429640
O181	O18	0.731100	0.742990	0.054210
O191	O19	0.778700	0.526200	0.819600
O201	O20	0.073200	0.462500	0.993500
O211	O21	0.923200	0.237020	0.213680
O221	O22	0.271800	0.536900	0.794400
O231	O23	0.820200	0.256060	0.466410
O241	O24	0.658300	0.739020	0.978920
O251	O25	0.064600	0.819620	0.733030
O261	O26	0.341700	0.260980	0.021080
O271	O27	0.569700	0.760790	0.293040
O281	O28	0.768900	0.742990	0.554210
O291	O29	0.574600	0.307310	0.777270
O301	O30	0.425400	0.692690	0.222730
O311	O31	0.269100	0.317160	0.572800
O321	O32	0.217700	0.187580	0.513090
O331	O33	0.925400	0.307310	0.277270
O341	O34	0.074600	0.692690	0.722730
O351	O35	0.917500	0.820310	0.742490
O361	O36	0.340200	0.973200	0.253600
O371	O37	0.935400	0.180380	0.266970
O381	O38	0.771800	0.463100	0.705600
O391	O39	0.705200	0.969400	0.278600
O401	O40	0.721300	0.526200	0.319600
O411	O41	0.268900	0.257010	0.945790
O421	O42	0.224500	0.761040	0.910750
O431	O43	0.930300	0.688400	0.731010
O441	O44	0.679800	0.256060	0.966410
O451	O45	0.899200	0.753030	0.000980
O461	O46	0.088300	0.252490	0.318910
O471	O47	0.103900	0.734930	0.459910
O481	O48	0.343000	0.747400	0.480980
O491	O49	0.322000	0.244350	0.570360
O501	O50	0.245300	0.812930	0.537580
O511	O51	0.339900	0.317260	0.499270
O521	O52	0.896100	0.265070	0.540090
O531	O53	0.399200	0.246970	0.499020
O541	O54	0.843000	0.252600	0.019020
O551	O55	0.100800	0.246970	0.999020
O561	O56	0.782100	0.322300	0.020720
O571	O57	0.069700	0.239210	0.206960
O581	O58	0.205200	0.030600	0.221400
O591	O59	0.339500	0.808750	0.967100
O601	O60	0.430800	0.967800	0.013800
O611	O61	0.159800	0.973200	0.753600
O621	O62	0.603900	0.265070	0.040090
O631	O63	0.657000	0.252600	0.519020
O641	O64	0.775500	0.238960	0.089250
O651	O65	0.275500	0.761040	0.410750
O661	O66	0.769100	0.682840	0.927200
O671	O67	0.930300	0.760790	0.793040
O681	O68	0.660100	0.682740	0.500730
O691	O69	0.911700	0.747510	0.681090
O701	O70	0.056300	0.749250	0.670020
O711	O71	0.221300	0.473800	0.180400
O721	O72	0.576800	0.237020	0.713680
O731	O73	0.443700	0.749250	0.170020
O741	O74	0.704800	0.813100	0.558320
O751	O75	0.158300	0.260980	0.521080
O761	O76	0.278700	0.473800	0.680400
O771	O77	0.745300	0.187070	0.962420
O781	O78	0.573200	0.537500	0.506500
O791	O79	0.794800	0.969400	0.778600
O801	O80	0.231100	0.257010	0.445790
O811	O81	0.782300	0.812420	0.486910
O821	O82	0.282100	0.677700	0.479280
O831	O83	0.220900	0.687190	0.404220
O841	O84	0.411700	0.252490	0.818910
O851	O85	0.069700	0.311600	0.268990
O861	O86	0.840200	0.026800	0.246400
O871	O87	0.582500	0.820310	0.242490
O881	O88	0.423200	0.762980	0.286320
O891	O89	0.795200	0.813100	0.058320
O901	O90	0.556300	0.250750	0.829980
O911	O91	0.230900	0.317160	0.072800
O921	O92	0.178000	0.244350	0.070360
O931	O93	0.426800	0.462500	0.493500
O941	O94	0.754700	0.187070	0.462420
O951	O95	0.724500	0.238960	0.589250
O961	O96	0.076800	0.762980	0.786320
O971	O97	0.320200	0.743940	0.033590
O981	O98	0.217900	0.677700	0.979280
O991	O99	0.569200	0.032200	0.986200
O1001	O100	0.294800	0.030600	0.721400
O1011	O101	0.720900	0.312810	0.095780
O1021	O102	0.282300	0.187580	0.013090
O1031	O103	0.564600	0.180380	0.766970
O1041	O104	0.728200	0.463100	0.205600
O1051	O105	0.157000	0.747400	0.980980
O1061	O106	0.295200	0.186900	0.441680
O1071	O107	0.839900	0.682740	0.000730
O1081	O108	0.600800	0.753030	0.500980
O1091	O109	0.430300	0.239210	0.706960
O1101	O110	0.717700	0.812420	0.986910
O1111	O111	0.396100	0.734930	0.959910
O1121	O112	0.228200	0.536900	0.294400
O1131	O113	0.435400	0.819620	0.233030
O1141	O114	0.279100	0.687190	0.904220
O1151	O115	0.930800	0.032200	0.486200
O1161	O116	0.430300	0.311600	0.768990
O1171	O117	0.926800	0.537500	0.006500
O1181	O118	0.588300	0.747510	0.181090
O1191	O119	0.660500	0.191250	0.032900
O1201	O120	0.569700	0.688400	0.231010
