data_VIXZUZ_clean_PM
_symmetry_space_group_name_H-M	'P1'
_cell_length_a	8.435800
_cell_length_b	10.074000
_cell_length_c	15.079000
_cell_angle_alpha	71.071000
_cell_angle_beta	87.931000
_cell_angle_gamma	67.631000
_symmetry_Int_Tables_number 1

loop_
_symmetry_equiv_pos_as_xyz
'x,y,z'

loop_
_atom_site_label
_atom_site_type_symbol
_atom_site_fract_x
_atom_site_fract_y
_atom_site_fract_z
N11	N1	0.780800	0.912500	0.606300
H11	H1	0.717100	0.008200	0.584300
O11	O1	0.575300	0.329200	0.124200
O21	O2	0.768500	0.131300	0.090500
O31	O3	0.832200	0.394000	0.845800
O41	O4	0.765200	0.448600	0.974400
O51	O5	0.802700	0.091300	0.879900
O61	O6	0.923400	0.874900	0.001500
O71	O7	0.949900	0.707400	0.567500
C11	C1	0.723500	0.103700	0.249500
C21	C2	0.849200	0.957100	0.280200
H21	H2	0.908400	0.913300	0.236900
C31	C3	0.885900	0.876500	0.375800
H31	H3	0.969900	0.777900	0.396000
C41	C4	0.802000	0.937600	0.441700
C51	C5	0.675400	0.081300	0.409600
H41	H4	0.614100	0.124000	0.452800
C61	C6	0.636900	0.164000	0.314700
H51	H5	0.551200	0.261800	0.294800
C71	C7	0.804200	0.840500	0.706500
C81	C8	0.806900	0.695900	0.748200
H61	H6	0.801700	0.639300	0.711200
C91	C9	0.817400	0.634700	0.846200
C101	C10	0.835300	0.715300	0.902100
H71	H7	0.847400	0.672900	0.967500
C111	C11	0.834600	0.860900	0.858400
C121	C12	0.815700	0.923400	0.761400
H81	H8	0.810700	0.022000	0.732800
C131	C13	0.685500	0.195500	0.145900
C141	C14	0.803900	0.484400	0.890600
C151	C15	0.857200	0.946800	0.918300
C161	C16	0.851000	0.841900	0.543400
Zn11	Zn1	0.818530	0.210360	0.958240
N21	N2	0.219200	0.087500	0.393700
H91	H9	0.282900	0.991800	0.415700
O81	O8	0.424700	0.670800	0.875800
O91	O9	0.231500	0.868700	0.909500
O101	O10	0.167800	0.606000	0.154200
O111	O11	0.234800	0.551400	0.025600
O121	O12	0.197300	0.908700	0.120100
O131	O13	0.076600	0.125100	0.998500
O141	O14	0.050100	0.292600	0.432500
C171	C17	0.276500	0.896300	0.750500
C181	C18	0.150800	0.042900	0.719800
H101	H10	0.091600	0.086700	0.763100
C191	C19	0.114100	0.123500	0.624200
H111	H11	0.030100	0.222100	0.604000
C201	C20	0.198000	0.062400	0.558300
C211	C21	0.324600	0.918700	0.590400
H121	H12	0.385900	0.876000	0.547200
C221	C22	0.363100	0.836000	0.685300
H131	H13	0.448800	0.738200	0.705200
C231	C23	0.195800	0.159500	0.293500
C241	C24	0.193100	0.304100	0.251800
H141	H14	0.198300	0.360700	0.288800
C251	C25	0.182600	0.365300	0.153800
C261	C26	0.164700	0.284700	0.097900
H151	H15	0.152600	0.327100	0.032500
C271	C27	0.165400	0.139100	0.141600
C281	C28	0.184300	0.076600	0.238600
H161	H16	0.189300	0.978000	0.267200
C291	C29	0.314500	0.804500	0.854100
C301	C30	0.196100	0.515600	0.109400
C311	C31	0.142800	0.053200	0.081700
C321	C32	0.149000	0.158100	0.456600
Zn21	Zn2	0.181470	0.789640	0.041760
Zn31	Zn3	0.500000	0.500000	0.000000
