data_VIYSUT_clean_PM
_symmetry_space_group_name_H-M	'P1'
_cell_length_a	21.540000
_cell_length_b	9.168000
_cell_length_c	23.321000
_cell_angle_alpha	90.000000
_cell_angle_beta	101.736000
_cell_angle_gamma	90.000000
_symmetry_Int_Tables_number 1

loop_
_symmetry_equiv_pos_as_xyz
'x,y,z'

loop_
_atom_site_label
_atom_site_type_symbol
_atom_site_fract_x
_atom_site_fract_y
_atom_site_fract_z
Zn11	Zn1	0.084780	0.623440	0.504140
O11	O1	0.222560	0.555900	0.493310
O21	O2	0.137890	0.678900	0.448970
O31	O3	0.419600	0.761400	0.426950
O41	O4	0.413920	0.725600	0.333130
O51	O5	0.098250	0.580000	0.020910
O61	O6	0.066000	0.839900	0.018270
O71	O7	0.995700	0.648000	0.050610
P11	P1	0.062810	0.695180	0.047980
C11	C1	0.193560	0.626800	0.452480
C21	C2	0.224120	0.662800	0.401800
C31	C3	0.289320	0.682800	0.411680
H11	H1	0.313700	0.671600	0.449200
C41	C4	0.318040	0.719400	0.365760
C51	C5	0.388500	0.737500	0.375440
C61	C6	0.281100	0.733000	0.309660
H21	H2	0.300600	0.758000	0.278900
C71	C7	0.216360	0.710300	0.298350
C81	C8	0.177330	0.715200	0.238160
C91	C9	0.184960	0.822100	0.197920
H31	H3	0.214600	0.895800	0.209100
C101	C10	0.149100	0.820800	0.141380
H41	H4	0.155000	0.893700	0.115200
C111	C11	0.104440	0.712000	0.123180
C121	C12	0.096390	0.607100	0.163330
H51	H5	0.066200	0.534300	0.152400
C131	C13	0.132310	0.608500	0.219390
H61	H6	0.126200	0.535700	0.245400
C141	C14	0.188170	0.676100	0.345500
H71	H7	0.144500	0.661900	0.339100
Zn21	Zn2	0.584780	0.123440	0.504140
O81	O8	0.722560	0.055900	0.493310
O91	O9	0.637890	0.178900	0.448970
O101	O10	0.919600	0.261400	0.426950
O111	O11	0.913920	0.225600	0.333130
O121	O12	0.598250	0.080000	0.020910
O131	O13	0.566000	0.339900	0.018270
O141	O14	0.495700	0.148000	0.050610
P21	P2	0.562810	0.195180	0.047980
C151	C15	0.693560	0.126800	0.452480
C161	C16	0.724120	0.162800	0.401800
C171	C17	0.789320	0.182800	0.411680
H81	H8	0.813700	0.171600	0.449200
C181	C18	0.818040	0.219400	0.365760
C191	C19	0.888500	0.237500	0.375440
C201	C20	0.781100	0.233000	0.309660
H91	H9	0.800600	0.258000	0.278900
C211	C21	0.716360	0.210300	0.298350
C221	C22	0.677330	0.215200	0.238160
C231	C23	0.684960	0.322100	0.197920
H101	H10	0.714600	0.395800	0.209100
C241	C24	0.649100	0.320800	0.141380
H111	H11	0.655000	0.393700	0.115200
C251	C25	0.604440	0.212000	0.123180
C261	C26	0.596390	0.107100	0.163330
H121	H12	0.566200	0.034300	0.152400
C271	C27	0.632310	0.108500	0.219390
H131	H13	0.626200	0.035700	0.245400
C281	C28	0.688170	0.176100	0.345500
H141	H14	0.644500	0.161900	0.339100
Zn31	Zn3	0.915220	0.623440	0.995860
O151	O15	0.777440	0.555900	0.006690
O161	O16	0.862110	0.678900	0.051030
O171	O17	0.580400	0.761400	0.073050
O181	O18	0.586080	0.725600	0.166870
O191	O19	0.901750	0.580000	0.479090
O201	O20	0.934000	0.839900	0.481730
O211	O21	0.004300	0.648000	0.449390
P31	P3	0.937190	0.695180	0.452020
C291	C29	0.806440	0.626800	0.047520
C301	C30	0.775880	0.662800	0.098200
C311	C31	0.710680	0.682800	0.088320
H151	H15	0.686300	0.671600	0.050800
C321	C32	0.681960	0.719400	0.134240
C331	C33	0.611500	0.737500	0.124560
C341	C34	0.718900	0.733000	0.190340
H161	H16	0.699400	0.758000	0.221100
C351	C35	0.783640	0.710300	0.201650
C361	C36	0.822670	0.715200	0.261840
C371	C37	0.815040	0.822100	0.302080
H171	H17	0.785400	0.895800	0.290900
C381	C38	0.850900	0.820800	0.358620
H181	H18	0.845000	0.893700	0.384800
C391	C39	0.895560	0.712000	0.376820
C401	C40	0.903610	0.607100	0.336670
H191	H19	0.933800	0.534300	0.347600
C411	C41	0.867690	0.608500	0.280610
H201	H20	0.873800	0.535700	0.254600
C421	C42	0.811830	0.676100	0.154500
H211	H21	0.855500	0.661900	0.160900
Zn41	Zn4	0.415220	0.123440	0.995860
O221	O22	0.277440	0.055900	0.006690
O231	O23	0.362110	0.178900	0.051030
O241	O24	0.080400	0.261400	0.073050
O251	O25	0.086080	0.225600	0.166870
O261	O26	0.401750	0.080000	0.479090
O271	O27	0.434000	0.339900	0.481730
O281	O28	0.504300	0.148000	0.449390
P41	P4	0.437190	0.195180	0.452020
C431	C43	0.306440	0.126800	0.047520
C441	C44	0.275880	0.162800	0.098200
C451	C45	0.210680	0.182800	0.088320
H221	H22	0.186300	0.171600	0.050800
C461	C46	0.181960	0.219400	0.134240
C471	C47	0.111500	0.237500	0.124560
C481	C48	0.218900	0.233000	0.190340
H231	H23	0.199400	0.258000	0.221100
C491	C49	0.283640	0.210300	0.201650
C501	C50	0.322670	0.215200	0.261840
C511	C51	0.315040	0.322100	0.302080
H241	H24	0.285400	0.395800	0.290900
C521	C52	0.350900	0.320800	0.358620
H251	H25	0.345000	0.393700	0.384800
C531	C53	0.395560	0.212000	0.376820
C541	C54	0.403610	0.107100	0.336670
H261	H26	0.433800	0.034300	0.347600
C551	C55	0.367690	0.108500	0.280610
H271	H27	0.373800	0.035700	0.254600
C561	C56	0.311830	0.176100	0.154500
H281	H28	0.355500	0.161900	0.160900
Zn51	Zn5	0.915220	0.376560	0.495860
O291	O29	0.777440	0.444100	0.506690
O301	O30	0.862110	0.321100	0.551030
O311	O31	0.580400	0.238600	0.573050
O321	O32	0.586080	0.274400	0.666870
O331	O33	0.901750	0.420000	0.979090
O341	O34	0.934000	0.160100	0.981730
O351	O35	0.004300	0.352000	0.949390
P51	P5	0.937190	0.304820	0.952020
C571	C57	0.806440	0.373200	0.547520
C581	C58	0.775880	0.337200	0.598200
C591	C59	0.710680	0.317200	0.588320
H291	H29	0.686300	0.328400	0.550800
C601	C60	0.681960	0.280600	0.634240
C611	C61	0.611500	0.262500	0.624560
C621	C62	0.718900	0.267000	0.690340
H301	H30	0.699400	0.242000	0.721100
C631	C63	0.783640	0.289700	0.701650
C641	C64	0.822670	0.284800	0.761840
C651	C65	0.815040	0.177900	0.802080
H311	H31	0.785400	0.104200	0.790900
C661	C66	0.850900	0.179200	0.858620
H321	H32	0.845000	0.106300	0.884800
C671	C67	0.895560	0.288000	0.876820
C681	C68	0.903610	0.392900	0.836670
H331	H33	0.933800	0.465700	0.847600
C691	C69	0.867690	0.391500	0.780610
H341	H34	0.873800	0.464300	0.754600
C701	C70	0.811830	0.323900	0.654500
H351	H35	0.855500	0.338100	0.660900
Zn61	Zn6	0.415220	0.876560	0.495860
O361	O36	0.277440	0.944100	0.506690
O371	O37	0.362110	0.821100	0.551030
O381	O38	0.080400	0.738600	0.573050
O391	O39	0.086080	0.774400	0.666870
O401	O40	0.401750	0.920000	0.979090
O411	O41	0.434000	0.660100	0.981730
O421	O42	0.504300	0.852000	0.949390
P61	P6	0.437190	0.804820	0.952020
C711	C71	0.306440	0.873200	0.547520
C721	C72	0.275880	0.837200	0.598200
C731	C73	0.210680	0.817200	0.588320
H361	H36	0.186300	0.828400	0.550800
C741	C74	0.181960	0.780600	0.634240
C751	C75	0.111500	0.762500	0.624560
C761	C76	0.218900	0.767000	0.690340
H371	H37	0.199400	0.742000	0.721100
C771	C77	0.283640	0.789700	0.701650
C781	C78	0.322670	0.784800	0.761840
C791	C79	0.315040	0.677900	0.802080
H381	H38	0.285400	0.604200	0.790900
C801	C80	0.350900	0.679200	0.858620
H391	H39	0.345000	0.606300	0.884800
C811	C81	0.395560	0.788000	0.876820
C821	C82	0.403610	0.892900	0.836670
H401	H40	0.433800	0.965700	0.847600
C831	C83	0.367690	0.891500	0.780610
H411	H41	0.373800	0.964300	0.754600
C841	C84	0.311830	0.823900	0.654500
H421	H42	0.355500	0.838100	0.660900
Zn71	Zn7	0.084780	0.376560	0.004140
O431	O43	0.222560	0.444100	0.993310
O441	O44	0.137890	0.321100	0.948970
O451	O45	0.419600	0.238600	0.926950
O461	O46	0.413920	0.274400	0.833130
O471	O47	0.098250	0.420000	0.520910
O481	O48	0.066000	0.160100	0.518270
O491	O49	0.995700	0.352000	0.550610
P71	P7	0.062810	0.304820	0.547980
C851	C85	0.193560	0.373200	0.952480
C861	C86	0.224120	0.337200	0.901800
C871	C87	0.289320	0.317200	0.911680
H431	H43	0.313700	0.328400	0.949200
C881	C88	0.318040	0.280600	0.865760
C891	C89	0.388500	0.262500	0.875440
C901	C90	0.281100	0.267000	0.809660
H441	H44	0.300600	0.242000	0.778900
C911	C91	0.216360	0.289700	0.798350
C921	C92	0.177330	0.284800	0.738160
C931	C93	0.184960	0.177900	0.697920
H451	H45	0.214600	0.104200	0.709100
C941	C94	0.149100	0.179200	0.641380
H461	H46	0.155000	0.106300	0.615200
C951	C95	0.104440	0.288000	0.623180
C961	C96	0.096390	0.392900	0.663330
H471	H47	0.066200	0.465700	0.652400
C971	C97	0.132310	0.391500	0.719390
H481	H48	0.126200	0.464300	0.745400
C981	C98	0.188170	0.323900	0.845500
H491	H49	0.144500	0.338100	0.839100
Zn81	Zn8	0.584780	0.876560	0.004140
O501	O50	0.722560	0.944100	0.993310
O511	O51	0.637890	0.821100	0.948970
O521	O52	0.919600	0.738600	0.926950
O531	O53	0.913920	0.774400	0.833130
O541	O54	0.598250	0.920000	0.520910
O551	O55	0.566000	0.660100	0.518270
O561	O56	0.495700	0.852000	0.550610
P81	P8	0.562810	0.804820	0.547980
C991	C99	0.693560	0.873200	0.952480
C1001	C100	0.724120	0.837200	0.901800
C1011	C101	0.789320	0.817200	0.911680
H501	H50	0.813700	0.828400	0.949200
C1021	C102	0.818040	0.780600	0.865760
C1031	C103	0.888500	0.762500	0.875440
C1041	C104	0.781100	0.767000	0.809660
H511	H51	0.800600	0.742000	0.778900
C1051	C105	0.716360	0.789700	0.798350
C1061	C106	0.677330	0.784800	0.738160
C1071	C107	0.684960	0.677900	0.697920
H521	H52	0.714600	0.604200	0.709100
C1081	C108	0.649100	0.679200	0.641380
H531	H53	0.655000	0.606300	0.615200
C1091	C109	0.604440	0.788000	0.623180
C1101	C110	0.596390	0.892900	0.663330
H541	H54	0.566200	0.965700	0.652400
C1111	C111	0.632310	0.891500	0.719390
H551	H55	0.626200	0.964300	0.745400
C1121	C112	0.688170	0.823900	0.845500
H561	H56	0.644500	0.838100	0.839100
