data_VIYSON_clean_PM
_symmetry_space_group_name_H-M	'P1'
_cell_length_a	20.458000
_cell_length_b	12.115700
_cell_length_c	16.971000
_cell_angle_alpha	90.000000
_cell_angle_beta	90.000000
_cell_angle_gamma	90.000000
_symmetry_Int_Tables_number 1

loop_
_symmetry_equiv_pos_as_xyz
'x,y,z'

loop_
_atom_site_label
_atom_site_type_symbol
_atom_site_fract_x
_atom_site_fract_y
_atom_site_fract_z
Zn11	Zn1	0.912500	0.543540	0.442910
O11	O1	0.976230	0.440800	0.402900
O21	O2	0.057030	0.549600	0.323040
O31	O3	0.094170	0.462300	0.445140
O41	O4	0.059100	0.728000	0.208100
O51	O5	0.076650	0.704800	0.080300
O61	O6	0.326940	0.035600	0.106200
O71	O7	0.307190	0.878300	0.042800
P11	P1	0.046260	0.451370	0.377680
C11	C1	0.068700	0.329800	0.322800
C21	C2	0.105600	0.339400	0.254600
H11	H1	0.116000	0.409300	0.235600
C31	C3	0.127100	0.247400	0.214400
H21	H2	0.151200	0.256300	0.168400
C41	C4	0.113700	0.142500	0.241200
C51	C5	0.138400	0.044400	0.197700
C61	C6	0.199900	0.044100	0.163100
H31	H3	0.226500	0.105900	0.168600
C71	C7	0.223000	0.954500	0.120600
C81	C8	0.183000	0.863600	0.110200
H41	H4	0.196900	0.804900	0.079000
C91	C9	0.122200	0.860200	0.146200
C101	C10	0.100600	0.949500	0.190000
H51	H5	0.060100	0.946000	0.214700
C111	C11	0.077000	0.132900	0.309600
H61	H6	0.067200	0.063100	0.329000
C121	C12	0.054900	0.224800	0.349600
H71	H7	0.030400	0.215800	0.395200
C131	C13	0.290500	0.955200	0.085900
C141	C14	0.082500	0.756400	0.143700
Zn21	Zn2	0.587500	0.956460	0.942910
O81	O8	0.523770	0.059200	0.902900
O91	O9	0.442970	0.950400	0.823040
O101	O10	0.405830	0.037700	0.945140
O111	O11	0.440900	0.772000	0.708100
O121	O12	0.423350	0.795200	0.580300
O131	O13	0.173060	0.464400	0.606200
O141	O14	0.192810	0.621700	0.542800
P21	P2	0.453740	0.048630	0.877680
C151	C15	0.431300	0.170200	0.822800
C161	C16	0.394400	0.160600	0.754600
H81	H8	0.384000	0.090700	0.735600
C171	C17	0.372900	0.252600	0.714400
H91	H9	0.348800	0.243700	0.668400
C181	C18	0.386300	0.357500	0.741200
C191	C19	0.361600	0.455600	0.697700
C201	C20	0.300100	0.455900	0.663100
H101	H10	0.273500	0.394100	0.668600
C211	C21	0.277000	0.545500	0.620600
C221	C22	0.317000	0.636400	0.610200
H111	H11	0.303100	0.695100	0.579000
C231	C23	0.377800	0.639800	0.646200
C241	C24	0.399400	0.550500	0.690000
H121	H12	0.439900	0.554000	0.714700
C251	C25	0.423000	0.367100	0.809600
H131	H13	0.432800	0.436900	0.829000
C261	C26	0.445100	0.275200	0.849600
H141	H14	0.469600	0.284200	0.895200
C271	C27	0.209500	0.544800	0.585900
C281	C28	0.417500	0.743600	0.643700
Zn31	Zn3	0.087500	0.543540	0.057090
O151	O15	0.023770	0.440800	0.097100
O161	O16	0.942970	0.549600	0.176960
O171	O17	0.905830	0.462300	0.054860
O181	O18	0.940900	0.728000	0.291900
O191	O19	0.923350	0.704800	0.419700
O201	O20	0.673060	0.035600	0.393800
O211	O21	0.692810	0.878300	0.457200
P31	P3	0.953740	0.451370	0.122320
C291	C29	0.931300	0.329800	0.177200
C301	C30	0.894400	0.339400	0.245400
H151	H15	0.884000	0.409300	0.264400
C311	C31	0.872900	0.247400	0.285600
H161	H16	0.848800	0.256300	0.331600
C321	C32	0.886300	0.142500	0.258800
C331	C33	0.861600	0.044400	0.302300
C341	C34	0.800100	0.044100	0.336900
H171	H17	0.773500	0.105900	0.331400
C351	C35	0.777000	0.954500	0.379400
C361	C36	0.817000	0.863600	0.389800
H181	H18	0.803100	0.804900	0.421000
C371	C37	0.877800	0.860200	0.353800
C381	C38	0.899400	0.949500	0.310000
H191	H19	0.939900	0.946000	0.285300
C391	C39	0.923000	0.132900	0.190400
H201	H20	0.932800	0.063100	0.171000
C401	C40	0.945100	0.224800	0.150400
H211	H21	0.969600	0.215800	0.104800
C411	C41	0.709500	0.955200	0.414100
C421	C42	0.917500	0.756400	0.356300
Zn41	Zn4	0.412500	0.956460	0.557090
O221	O22	0.476230	0.059200	0.597100
O231	O23	0.557030	0.950400	0.676960
O241	O24	0.594170	0.037700	0.554860
O251	O25	0.559100	0.772000	0.791900
O261	O26	0.576650	0.795200	0.919700
O271	O27	0.826940	0.464400	0.893800
O281	O28	0.807190	0.621700	0.957200
P41	P4	0.546260	0.048630	0.622320
C431	C43	0.568700	0.170200	0.677200
C441	C44	0.605600	0.160600	0.745400
H221	H22	0.616000	0.090700	0.764400
C451	C45	0.627100	0.252600	0.785600
H231	H23	0.651200	0.243700	0.831600
C461	C46	0.613700	0.357500	0.758800
C471	C47	0.638400	0.455600	0.802300
C481	C48	0.699900	0.455900	0.836900
H241	H24	0.726500	0.394100	0.831400
C491	C49	0.723000	0.545500	0.879400
C501	C50	0.683000	0.636400	0.889800
H251	H25	0.696900	0.695100	0.921000
C511	C51	0.622200	0.639800	0.853800
C521	C52	0.600600	0.550500	0.810000
H261	H26	0.560100	0.554000	0.785300
C531	C53	0.577000	0.367100	0.690400
H271	H27	0.567200	0.436900	0.671000
C541	C54	0.554900	0.275200	0.650400
H281	H28	0.530400	0.284200	0.604800
C551	C55	0.790500	0.544800	0.914100
C561	C56	0.582500	0.743600	0.856300
Zn51	Zn5	0.087500	0.456460	0.557090
O291	O29	0.023770	0.559200	0.597100
O301	O30	0.942970	0.450400	0.676960
O311	O31	0.905830	0.537700	0.554860
O321	O32	0.940900	0.272000	0.791900
O331	O33	0.923350	0.295200	0.919700
O341	O34	0.673060	0.964400	0.893800
O351	O35	0.692810	0.121700	0.957200
P51	P5	0.953740	0.548630	0.622320
C571	C57	0.931300	0.670200	0.677200
C581	C58	0.894400	0.660600	0.745400
H291	H29	0.884000	0.590700	0.764400
C591	C59	0.872900	0.752600	0.785600
H301	H30	0.848800	0.743700	0.831600
C601	C60	0.886300	0.857500	0.758800
C611	C61	0.861600	0.955600	0.802300
C621	C62	0.800100	0.955900	0.836900
H311	H31	0.773500	0.894100	0.831400
C631	C63	0.777000	0.045500	0.879400
C641	C64	0.817000	0.136400	0.889800
H321	H32	0.803100	0.195100	0.921000
C651	C65	0.877800	0.139800	0.853800
C661	C66	0.899400	0.050500	0.810000
H331	H33	0.939900	0.054000	0.785300
C671	C67	0.923000	0.867100	0.690400
H341	H34	0.932800	0.936900	0.671000
C681	C68	0.945100	0.775200	0.650400
H351	H35	0.969600	0.784200	0.604800
C691	C69	0.709500	0.044800	0.914100
C701	C70	0.917500	0.243600	0.856300
Zn61	Zn6	0.412500	0.043540	0.057090
O361	O36	0.476230	0.940800	0.097100
O371	O37	0.557030	0.049600	0.176960
O381	O38	0.594170	0.962300	0.054860
O391	O39	0.559100	0.228000	0.291900
O401	O40	0.576650	0.204800	0.419700
O411	O41	0.826940	0.535600	0.393800
O421	O42	0.807190	0.378300	0.457200
P61	P6	0.546260	0.951370	0.122320
C711	C71	0.568700	0.829800	0.177200
C721	C72	0.605600	0.839400	0.245400
H361	H36	0.616000	0.909300	0.264400
C731	C73	0.627100	0.747400	0.285600
H371	H37	0.651200	0.756300	0.331600
C741	C74	0.613700	0.642500	0.258800
C751	C75	0.638400	0.544400	0.302300
C761	C76	0.699900	0.544100	0.336900
H381	H38	0.726500	0.605900	0.331400
C771	C77	0.723000	0.454500	0.379400
C781	C78	0.683000	0.363600	0.389800
H391	H39	0.696900	0.304900	0.421000
C791	C79	0.622200	0.360200	0.353800
C801	C80	0.600600	0.449500	0.310000
H401	H40	0.560100	0.446000	0.285300
C811	C81	0.577000	0.632900	0.190400
H411	H41	0.567200	0.563100	0.171000
C821	C82	0.554900	0.724800	0.150400
H421	H42	0.530400	0.715800	0.104800
C831	C83	0.790500	0.455200	0.414100
C841	C84	0.582500	0.256400	0.356300
Zn71	Zn7	0.912500	0.456460	0.942910
O431	O43	0.976230	0.559200	0.902900
O441	O44	0.057030	0.450400	0.823040
O451	O45	0.094170	0.537700	0.945140
O461	O46	0.059100	0.272000	0.708100
O471	O47	0.076650	0.295200	0.580300
O481	O48	0.326940	0.964400	0.606200
O491	O49	0.307190	0.121700	0.542800
P71	P7	0.046260	0.548630	0.877680
C851	C85	0.068700	0.670200	0.822800
C861	C86	0.105600	0.660600	0.754600
H431	H43	0.116000	0.590700	0.735600
C871	C87	0.127100	0.752600	0.714400
H441	H44	0.151200	0.743700	0.668400
C881	C88	0.113700	0.857500	0.741200
C891	C89	0.138400	0.955600	0.697700
C901	C90	0.199900	0.955900	0.663100
H451	H45	0.226500	0.894100	0.668600
C911	C91	0.223000	0.045500	0.620600
C921	C92	0.183000	0.136400	0.610200
H461	H46	0.196900	0.195100	0.579000
C931	C93	0.122200	0.139800	0.646200
C941	C94	0.100600	0.050500	0.690000
H471	H47	0.060100	0.054000	0.714700
C951	C95	0.077000	0.867100	0.809600
H481	H48	0.067200	0.936900	0.829000
C961	C96	0.054900	0.775200	0.849600
H491	H49	0.030400	0.784200	0.895200
C971	C97	0.290500	0.044800	0.585900
C981	C98	0.082500	0.243600	0.643700
Zn81	Zn8	0.587500	0.043540	0.442910
O501	O50	0.523770	0.940800	0.402900
O511	O51	0.442970	0.049600	0.323040
O521	O52	0.405830	0.962300	0.445140
O531	O53	0.440900	0.228000	0.208100
O541	O54	0.423350	0.204800	0.080300
O551	O55	0.173060	0.535600	0.106200
O561	O56	0.192810	0.378300	0.042800
P81	P8	0.453740	0.951370	0.377680
C991	C99	0.431300	0.829800	0.322800
C1001	C100	0.394400	0.839400	0.254600
H501	H50	0.384000	0.909300	0.235600
C1011	C101	0.372900	0.747400	0.214400
H511	H51	0.348800	0.756300	0.168400
C1021	C102	0.386300	0.642500	0.241200
C1031	C103	0.361600	0.544400	0.197700
C1041	C104	0.300100	0.544100	0.163100
H521	H52	0.273500	0.605900	0.168600
C1051	C105	0.277000	0.454500	0.120600
C1061	C106	0.317000	0.363600	0.110200
H531	H53	0.303100	0.304900	0.079000
C1071	C107	0.377800	0.360200	0.146200
C1081	C108	0.399400	0.449500	0.190000
H541	H54	0.439900	0.446000	0.214700
C1091	C109	0.423000	0.632900	0.309600
H551	H55	0.432800	0.563100	0.329000
C1101	C110	0.445100	0.724800	0.349600
H561	H56	0.469600	0.715800	0.395200
C1111	C111	0.209500	0.455200	0.085900
C1121	C112	0.417500	0.256400	0.143700
Zn91	Zn9	0.000000	0.618990	0.250000
Zn101	Zn10	0.500000	0.881010	0.750000
Zn111	Zn11	0.000000	0.381010	0.750000
Zn121	Zn12	0.500000	0.118990	0.250000
