data_VIYTAA_clean_PM
_symmetry_space_group_name_H-M	'P1'
_cell_length_a	20.583500
_cell_length_b	12.008200
_cell_length_c	17.064000
_cell_angle_alpha	90.000000
_cell_angle_beta	90.000000
_cell_angle_gamma	90.000000
_symmetry_Int_Tables_number 1

loop_
_symmetry_equiv_pos_as_xyz
'x,y,z'

loop_
_atom_site_label
_atom_site_type_symbol
_atom_site_fract_x
_atom_site_fract_y
_atom_site_fract_z
Zn11	Zn1	0.587550	0.040080	0.056100
O11	O1	0.674020	0.034700	0.103920
C11	C1	0.709890	0.954200	0.085400
C21	C2	0.778040	0.956100	0.118100
O21	O2	0.692460	0.874700	0.045200
C31	C3	0.800090	0.047100	0.160500
C41	C4	0.817800	0.864500	0.108200
H11	H1	0.773400	0.109100	0.165900
C51	C5	0.861530	0.047500	0.195200
C61	C6	0.878390	0.862000	0.143200
H21	H2	0.803900	0.804600	0.077900
C71	C7	0.885360	0.145600	0.239600
C81	C8	0.899780	0.952600	0.187200
C91	C9	0.918000	0.757300	0.140400
C101	C10	0.870900	0.252700	0.214600
C111	C11	0.922900	0.135100	0.307000
H31	H3	0.940200	0.949600	0.211600
O31	O3	0.920690	0.703200	0.078300
O41	O4	0.945600	0.734700	0.202000
H41	H4	0.846300	0.262800	0.169400
C121	C12	0.892400	0.344100	0.255500
H51	H5	0.933700	0.064300	0.324800
C131	C13	0.944400	0.226800	0.347800
H61	H6	0.882000	0.414800	0.237400
C141	C14	0.929220	0.333800	0.323100
H71	H7	0.969400	0.216900	0.392600
O51	O5	0.976590	0.440900	0.097350
O61	O6	0.906480	0.532500	0.944830
P11	P1	0.953440	0.455300	0.377450
O71	O7	0.943950	0.553600	0.322300
Zn21	Zn2	0.912450	0.459920	0.556100
O81	O8	0.825980	0.465300	0.603920
C151	C15	0.790110	0.545800	0.585400
C161	C16	0.721960	0.543900	0.618100
O91	O9	0.807540	0.625300	0.545200
C171	C17	0.699910	0.452900	0.660500
C181	C18	0.682200	0.635500	0.608200
H81	H8	0.726600	0.390900	0.665900
C191	C19	0.638470	0.452500	0.695200
C201	C20	0.621610	0.638000	0.643200
H91	H9	0.696100	0.695400	0.577900
C211	C21	0.614640	0.354400	0.739600
C221	C22	0.600220	0.547400	0.687200
C231	C23	0.582000	0.742700	0.640400
C241	C24	0.629100	0.247300	0.714600
C251	C25	0.577100	0.364900	0.807000
H101	H10	0.559800	0.550400	0.711600
O101	O10	0.579310	0.796800	0.578300
O111	O11	0.554400	0.765300	0.702000
H111	H11	0.653700	0.237200	0.669400
C261	C26	0.607600	0.155900	0.755500
H121	H12	0.566300	0.435700	0.824800
C271	C27	0.555600	0.273200	0.847800
H131	H13	0.618000	0.085200	0.737400
C281	C28	0.570780	0.166200	0.823100
H141	H14	0.530600	0.283100	0.892600
O121	O12	0.523410	0.059100	0.597350
O131	O13	0.593520	0.967500	0.444830
P21	P2	0.546560	0.044700	0.877450
O141	O14	0.556050	0.946400	0.822300
Zn31	Zn3	0.412450	0.040080	0.443900
O151	O15	0.325980	0.034700	0.396080
C291	C29	0.290110	0.954200	0.414600
C301	C30	0.221960	0.956100	0.381900
O161	O16	0.307540	0.874700	0.454800
C311	C31	0.199910	0.047100	0.339500
C321	C32	0.182200	0.864500	0.391800
H151	H15	0.226600	0.109100	0.334100
C331	C33	0.138470	0.047500	0.304800
C341	C34	0.121610	0.862000	0.356800
H161	H16	0.196100	0.804600	0.422100
C351	C35	0.114640	0.145600	0.260400
C361	C36	0.100220	0.952600	0.312800
C371	C37	0.082000	0.757300	0.359600
C381	C38	0.129100	0.252700	0.285400
C391	C39	0.077100	0.135100	0.193000
H171	H17	0.059800	0.949600	0.288400
O171	O17	0.079310	0.703200	0.421700
O181	O18	0.054400	0.734700	0.298000
H181	H18	0.153700	0.262800	0.330600
C401	C40	0.107600	0.344100	0.244500
H191	H19	0.066300	0.064300	0.175200
C411	C41	0.055600	0.226800	0.152200
H201	H20	0.118000	0.414800	0.262600
C421	C42	0.070780	0.333800	0.176900
H211	H21	0.030600	0.216900	0.107400
O191	O19	0.023410	0.440900	0.402650
O201	O20	0.093520	0.532500	0.555170
P31	P3	0.046560	0.455300	0.122550
O211	O21	0.056050	0.553600	0.177700
Zn41	Zn4	0.087550	0.459920	0.943900
O221	O22	0.174020	0.465300	0.896080
C431	C43	0.209890	0.545800	0.914600
C441	C44	0.278040	0.543900	0.881900
O231	O23	0.192460	0.625300	0.954800
C451	C45	0.300090	0.452900	0.839500
C461	C46	0.317800	0.635500	0.891800
H221	H22	0.273400	0.390900	0.834100
C471	C47	0.361530	0.452500	0.804800
C481	C48	0.378390	0.638000	0.856800
H231	H23	0.303900	0.695400	0.922100
C491	C49	0.385360	0.354400	0.760400
C501	C50	0.399780	0.547400	0.812800
C511	C51	0.418000	0.742700	0.859600
C521	C52	0.370900	0.247300	0.785400
C531	C53	0.422900	0.364900	0.693000
H241	H24	0.440200	0.550400	0.788400
O241	O24	0.420690	0.796800	0.921700
O251	O25	0.445600	0.765300	0.798000
H251	H25	0.346300	0.237200	0.830600
C541	C54	0.392400	0.155900	0.744500
H261	H26	0.433700	0.435700	0.675200
C551	C55	0.444400	0.273200	0.652200
H271	H27	0.382000	0.085200	0.762600
C561	C56	0.429220	0.166200	0.676900
H281	H28	0.469400	0.283100	0.607400
O261	O26	0.476590	0.059100	0.902650
O271	O27	0.406480	0.967500	0.055170
P41	P4	0.453440	0.044700	0.622550
O281	O28	0.443950	0.946400	0.677700
Zn51	Zn5	0.412450	0.959920	0.943900
O291	O29	0.325980	0.965300	0.896080
C571	C57	0.290110	0.045800	0.914600
C581	C58	0.221960	0.043900	0.881900
O301	O30	0.307540	0.125300	0.954800
C591	C59	0.199910	0.952900	0.839500
C601	C60	0.182200	0.135500	0.891800
H291	H29	0.226600	0.890900	0.834100
C611	C61	0.138470	0.952500	0.804800
C621	C62	0.121610	0.138000	0.856800
H301	H30	0.196100	0.195400	0.922100
C631	C63	0.114640	0.854400	0.760400
C641	C64	0.100220	0.047400	0.812800
C651	C65	0.082000	0.242700	0.859600
C661	C66	0.129100	0.747300	0.785400
C671	C67	0.077100	0.864900	0.693000
H311	H31	0.059800	0.050400	0.788400
O311	O31	0.079310	0.296800	0.921700
O321	O32	0.054400	0.265300	0.798000
H321	H32	0.153700	0.737200	0.830600
C681	C68	0.107600	0.655900	0.744500
H331	H33	0.066300	0.935700	0.675200
C691	C69	0.055600	0.773200	0.652200
H341	H34	0.118000	0.585200	0.762600
C701	C70	0.070780	0.666200	0.676900
H351	H35	0.030600	0.783100	0.607400
O331	O33	0.023410	0.559100	0.902650
O341	O34	0.093520	0.467500	0.055170
P51	P5	0.046560	0.544700	0.622550
O351	O35	0.056050	0.446400	0.677700
Zn61	Zn6	0.087550	0.540080	0.443900
O361	O36	0.174020	0.534700	0.396080
C711	C71	0.209890	0.454200	0.414600
C721	C72	0.278040	0.456100	0.381900
O371	O37	0.192460	0.374700	0.454800
C731	C73	0.300090	0.547100	0.339500
C741	C74	0.317800	0.364500	0.391800
H361	H36	0.273400	0.609100	0.334100
C751	C75	0.361530	0.547500	0.304800
C761	C76	0.378390	0.362000	0.356800
H371	H37	0.303900	0.304600	0.422100
C771	C77	0.385360	0.645600	0.260400
C781	C78	0.399780	0.452600	0.312800
C791	C79	0.418000	0.257300	0.359600
C801	C80	0.370900	0.752700	0.285400
C811	C81	0.422900	0.635100	0.193000
H381	H38	0.440200	0.449600	0.288400
O381	O38	0.420690	0.203200	0.421700
O391	O39	0.445600	0.234700	0.298000
H391	H39	0.346300	0.762800	0.330600
C821	C82	0.392400	0.844100	0.244500
H401	H40	0.433700	0.564300	0.175200
C831	C83	0.444400	0.726800	0.152200
H411	H41	0.382000	0.914800	0.262600
C841	C84	0.429220	0.833800	0.176900
H421	H42	0.469400	0.716900	0.107400
O401	O40	0.476590	0.940900	0.402650
O411	O41	0.406480	0.032500	0.555170
P61	P6	0.453440	0.955300	0.122550
O421	O42	0.443950	0.053600	0.177700
Zn71	Zn7	0.587550	0.959920	0.556100
O431	O43	0.674020	0.965300	0.603920
C851	C85	0.709890	0.045800	0.585400
C861	C86	0.778040	0.043900	0.618100
O441	O44	0.692460	0.125300	0.545200
C871	C87	0.800090	0.952900	0.660500
C881	C88	0.817800	0.135500	0.608200
H431	H43	0.773400	0.890900	0.665900
C891	C89	0.861530	0.952500	0.695200
C901	C90	0.878390	0.138000	0.643200
H441	H44	0.803900	0.195400	0.577900
C911	C91	0.885360	0.854400	0.739600
C921	C92	0.899780	0.047400	0.687200
C931	C93	0.918000	0.242700	0.640400
C941	C94	0.870900	0.747300	0.714600
C951	C95	0.922900	0.864900	0.807000
H451	H45	0.940200	0.050400	0.711600
O451	O45	0.920690	0.296800	0.578300
O461	O46	0.945600	0.265300	0.702000
H461	H46	0.846300	0.737200	0.669400
C961	C96	0.892400	0.655900	0.755500
H471	H47	0.933700	0.935700	0.824800
C971	C97	0.944400	0.773200	0.847800
H481	H48	0.882000	0.585200	0.737400
C981	C98	0.929220	0.666200	0.823100
H491	H49	0.969400	0.783100	0.892600
O471	O47	0.976590	0.559100	0.597350
O481	O48	0.906480	0.467500	0.444830
P71	P7	0.953440	0.544700	0.877450
O491	O49	0.943950	0.446400	0.822300
Zn81	Zn8	0.912450	0.540080	0.056100
O501	O50	0.825980	0.534700	0.103920
C991	C99	0.790110	0.454200	0.085400
C1001	C100	0.721960	0.456100	0.118100
O511	O51	0.807540	0.374700	0.045200
C1011	C101	0.699910	0.547100	0.160500
C1021	C102	0.682200	0.364500	0.108200
H501	H50	0.726600	0.609100	0.165900
C1031	C103	0.638470	0.547500	0.195200
C1041	C104	0.621610	0.362000	0.143200
H511	H51	0.696100	0.304600	0.077900
C1051	C105	0.614640	0.645600	0.239600
C1061	C106	0.600220	0.452600	0.187200
C1071	C107	0.582000	0.257300	0.140400
C1081	C108	0.629100	0.752700	0.214600
C1091	C109	0.577100	0.635100	0.307000
H521	H52	0.559800	0.449600	0.211600
O521	O52	0.579310	0.203200	0.078300
O531	O53	0.554400	0.234700	0.202000
H531	H53	0.653700	0.762800	0.169400
C1101	C110	0.607600	0.844100	0.255500
H541	H54	0.566300	0.564300	0.324800
C1111	C111	0.555600	0.726800	0.347800
H551	H55	0.618000	0.914800	0.237400
C1121	C112	0.570780	0.833800	0.323100
H561	H56	0.530600	0.716900	0.392600
O541	O54	0.523410	0.940900	0.097350
O551	O55	0.593520	0.032500	0.944830
P81	P8	0.546560	0.955300	0.377450
O561	O56	0.556050	0.053600	0.322300
Zn91	Zn9	0.000000	0.622510	0.250000
Zn101	Zn10	0.500000	0.877490	0.750000
Zn111	Zn11	0.000000	0.377490	0.750000
Zn121	Zn12	0.500000	0.122510	0.250000
