data_VIYVIK_clean_PM
_symmetry_space_group_name_H-M	'P1'
_cell_length_a	20.478200
_cell_length_b	12.072400
_cell_length_c	16.909900
_cell_angle_alpha	90.000000
_cell_angle_beta	90.000000
_cell_angle_gamma	90.000000
_symmetry_Int_Tables_number 1

loop_
_symmetry_equiv_pos_as_xyz
'x,y,z'

loop_
_atom_site_label
_atom_site_type_symbol
_atom_site_fract_x
_atom_site_fract_y
_atom_site_fract_z
Zn11	Zn1	0.587470	0.043870	0.057030
P11	P1	0.953110	0.454990	0.376530
O11	O1	0.942140	0.732700	0.206040
O21	O2	0.922570	0.705380	0.079190
O31	O3	0.694080	0.879820	0.039870
O41	O4	0.673720	0.035090	0.104530
O51	O5	0.941830	0.553920	0.321500
O61	O6	0.906310	0.465800	0.445220
O71	O7	0.023910	0.444260	0.400370
C11	C1	0.929700	0.333400	0.322140
C21	C2	0.944350	0.228400	0.348490
H11	H1	0.969100	0.219600	0.394200
C31	C3	0.922890	0.136000	0.308210
H21	H2	0.933500	0.065900	0.327100
C41	C4	0.885630	0.145900	0.239800
C51	C5	0.861890	0.047300	0.195730
C61	C6	0.899820	0.952200	0.188600
H31	H3	0.940000	0.948600	0.214100
C71	C7	0.878550	0.862700	0.143840
C81	C8	0.818030	0.865500	0.107180
H41	H4	0.804200	0.806600	0.075900
C91	C9	0.778320	0.957400	0.117750
C101	C10	0.800450	0.047600	0.160350
H51	H5	0.773800	0.109600	0.165500
C111	C11	0.871540	0.251400	0.213250
H61	H6	0.847100	0.260200	0.167300
C121	C12	0.892940	0.344000	0.253330
H71	H7	0.882700	0.414200	0.234200
C131	C13	0.917610	0.758100	0.141730
C141	C14	0.710180	0.956400	0.083650
Zn21	Zn2	0.912530	0.456130	0.557030
P21	P2	0.546890	0.045010	0.876530
O81	O8	0.557860	0.767300	0.706040
O91	O9	0.577430	0.794620	0.579190
O101	O10	0.805920	0.620180	0.539870
O111	O11	0.826280	0.464910	0.604530
O121	O12	0.558170	0.946080	0.821500
O131	O13	0.593690	0.034200	0.945220
O141	O14	0.476090	0.055740	0.900370
C151	C15	0.570300	0.166600	0.822140
C161	C16	0.555650	0.271600	0.848490
H81	H8	0.530900	0.280400	0.894200
C171	C17	0.577110	0.364000	0.808210
H91	H9	0.566500	0.434100	0.827100
C181	C18	0.614370	0.354100	0.739800
C191	C19	0.638110	0.452700	0.695730
C201	C20	0.600180	0.547800	0.688600
H101	H10	0.560000	0.551400	0.714100
C211	C21	0.621450	0.637300	0.643840
C221	C22	0.681970	0.634500	0.607180
H111	H11	0.695800	0.693400	0.575900
C231	C23	0.721680	0.542600	0.617750
C241	C24	0.699550	0.452400	0.660350
H121	H12	0.726200	0.390400	0.665500
C251	C25	0.628460	0.248600	0.713250
H131	H13	0.652900	0.239800	0.667300
C261	C26	0.607060	0.156000	0.753330
H141	H14	0.617300	0.085800	0.734200
C271	C27	0.582390	0.741900	0.641730
C281	C28	0.789820	0.543600	0.583650
Zn31	Zn3	0.412530	0.043870	0.442970
P31	P3	0.046890	0.454990	0.123470
O151	O15	0.057860	0.732700	0.293960
O161	O16	0.077430	0.705380	0.420810
O171	O17	0.305920	0.879820	0.460130
O181	O18	0.326280	0.035090	0.395470
O191	O19	0.058170	0.553920	0.178500
O201	O20	0.093690	0.465800	0.054780
O211	O21	0.976090	0.444260	0.099630
C291	C29	0.070300	0.333400	0.177860
C301	C30	0.055650	0.228400	0.151510
H151	H15	0.030900	0.219600	0.105800
C311	C31	0.077110	0.136000	0.191790
H161	H16	0.066500	0.065900	0.172900
C321	C32	0.114370	0.145900	0.260200
C331	C33	0.138110	0.047300	0.304270
C341	C34	0.100180	0.952200	0.311400
H171	H17	0.060000	0.948600	0.285900
C351	C35	0.121450	0.862700	0.356160
C361	C36	0.181970	0.865500	0.392820
H181	H18	0.195800	0.806600	0.424100
C371	C37	0.221680	0.957400	0.382250
C381	C38	0.199550	0.047600	0.339650
H191	H19	0.226200	0.109600	0.334500
C391	C39	0.128460	0.251400	0.286750
H201	H20	0.152900	0.260200	0.332700
C401	C40	0.107060	0.344000	0.246670
H211	H21	0.117300	0.414200	0.265800
C411	C41	0.082390	0.758100	0.358270
C421	C42	0.289820	0.956400	0.416350
Zn41	Zn4	0.087470	0.456130	0.942970
P41	P4	0.453110	0.045010	0.623470
O221	O22	0.442140	0.767300	0.793960
O231	O23	0.422570	0.794620	0.920810
O241	O24	0.194080	0.620180	0.960130
O251	O25	0.173720	0.464910	0.895470
O261	O26	0.441830	0.946080	0.678500
O271	O27	0.406310	0.034200	0.554780
O281	O28	0.523910	0.055740	0.599630
C431	C43	0.429700	0.166600	0.677860
C441	C44	0.444350	0.271600	0.651510
H221	H22	0.469100	0.280400	0.605800
C451	C45	0.422890	0.364000	0.691790
H231	H23	0.433500	0.434100	0.672900
C461	C46	0.385630	0.354100	0.760200
C471	C47	0.361890	0.452700	0.804270
C481	C48	0.399820	0.547800	0.811400
H241	H24	0.440000	0.551400	0.785900
C491	C49	0.378550	0.637300	0.856160
C501	C50	0.318030	0.634500	0.892820
H251	H25	0.304200	0.693400	0.924100
C511	C51	0.278320	0.542600	0.882250
C521	C52	0.300450	0.452400	0.839650
H261	H26	0.273800	0.390400	0.834500
C531	C53	0.371540	0.248600	0.786750
H271	H27	0.347100	0.239800	0.832700
C541	C54	0.392940	0.156000	0.746670
H281	H28	0.382700	0.085800	0.765800
C551	C55	0.417610	0.741900	0.858270
C561	C56	0.210180	0.543600	0.916350
Zn51	Zn5	0.412530	0.956130	0.942970
P51	P5	0.046890	0.545010	0.623470
O291	O29	0.057860	0.267300	0.793960
O301	O30	0.077430	0.294620	0.920810
O311	O31	0.305920	0.120180	0.960130
O321	O32	0.326280	0.964910	0.895470
O331	O33	0.058170	0.446080	0.678500
O341	O34	0.093690	0.534200	0.554780
O351	O35	0.976090	0.555740	0.599630
C571	C57	0.070300	0.666600	0.677860
C581	C58	0.055650	0.771600	0.651510
H291	H29	0.030900	0.780400	0.605800
C591	C59	0.077110	0.864000	0.691790
H301	H30	0.066500	0.934100	0.672900
C601	C60	0.114370	0.854100	0.760200
C611	C61	0.138110	0.952700	0.804270
C621	C62	0.100180	0.047800	0.811400
H311	H31	0.060000	0.051400	0.785900
C631	C63	0.121450	0.137300	0.856160
C641	C64	0.181970	0.134500	0.892820
H321	H32	0.195800	0.193400	0.924100
C651	C65	0.221680	0.042600	0.882250
C661	C66	0.199550	0.952400	0.839650
H331	H33	0.226200	0.890400	0.834500
C671	C67	0.128460	0.748600	0.786750
H341	H34	0.152900	0.739800	0.832700
C681	C68	0.107060	0.656000	0.746670
H351	H35	0.117300	0.585800	0.765800
C691	C69	0.082390	0.241900	0.858270
C701	C70	0.289820	0.043600	0.916350
Zn61	Zn6	0.087470	0.543870	0.442970
P61	P6	0.453110	0.954990	0.123470
O361	O36	0.442140	0.232700	0.293960
O371	O37	0.422570	0.205380	0.420810
O381	O38	0.194080	0.379820	0.460130
O391	O39	0.173720	0.535090	0.395470
O401	O40	0.441830	0.053920	0.178500
O411	O41	0.406310	0.965800	0.054780
O421	O42	0.523910	0.944260	0.099630
C711	C71	0.429700	0.833400	0.177860
C721	C72	0.444350	0.728400	0.151510
H361	H36	0.469100	0.719600	0.105800
C731	C73	0.422890	0.636000	0.191790
H371	H37	0.433500	0.565900	0.172900
C741	C74	0.385630	0.645900	0.260200
C751	C75	0.361890	0.547300	0.304270
C761	C76	0.399820	0.452200	0.311400
H381	H38	0.440000	0.448600	0.285900
C771	C77	0.378550	0.362700	0.356160
C781	C78	0.318030	0.365500	0.392820
H391	H39	0.304200	0.306600	0.424100
C791	C79	0.278320	0.457400	0.382250
C801	C80	0.300450	0.547600	0.339650
H401	H40	0.273800	0.609600	0.334500
C811	C81	0.371540	0.751400	0.286750
H411	H41	0.347100	0.760200	0.332700
C821	C82	0.392940	0.844000	0.246670
H421	H42	0.382700	0.914200	0.265800
C831	C83	0.417610	0.258100	0.358270
C841	C84	0.210180	0.456400	0.416350
Zn71	Zn7	0.587470	0.956130	0.557030
P71	P7	0.953110	0.545010	0.876530
O431	O43	0.942140	0.267300	0.706040
O441	O44	0.922570	0.294620	0.579190
O451	O45	0.694080	0.120180	0.539870
O461	O46	0.673720	0.964910	0.604530
O471	O47	0.941830	0.446080	0.821500
O481	O48	0.906310	0.534200	0.945220
O491	O49	0.023910	0.555740	0.900370
C851	C85	0.929700	0.666600	0.822140
C861	C86	0.944350	0.771600	0.848490
H431	H43	0.969100	0.780400	0.894200
C871	C87	0.922890	0.864000	0.808210
H441	H44	0.933500	0.934100	0.827100
C881	C88	0.885630	0.854100	0.739800
C891	C89	0.861890	0.952700	0.695730
C901	C90	0.899820	0.047800	0.688600
H451	H45	0.940000	0.051400	0.714100
C911	C91	0.878550	0.137300	0.643840
C921	C92	0.818030	0.134500	0.607180
H461	H46	0.804200	0.193400	0.575900
C931	C93	0.778320	0.042600	0.617750
C941	C94	0.800450	0.952400	0.660350
H471	H47	0.773800	0.890400	0.665500
C951	C95	0.871540	0.748600	0.713250
H481	H48	0.847100	0.739800	0.667300
C961	C96	0.892940	0.656000	0.753330
H491	H49	0.882700	0.585800	0.734200
C971	C97	0.917610	0.241900	0.641730
C981	C98	0.710180	0.043600	0.583650
Zn81	Zn8	0.912530	0.543870	0.057030
P81	P8	0.546890	0.954990	0.376530
O501	O50	0.557860	0.232700	0.206040
O511	O51	0.577430	0.205380	0.079190
O521	O52	0.805920	0.379820	0.039870
O531	O53	0.826280	0.535090	0.104530
O541	O54	0.558170	0.053920	0.321500
O551	O55	0.593690	0.965800	0.445220
O561	O56	0.476090	0.944260	0.400370
C991	C99	0.570300	0.833400	0.322140
C1001	C100	0.555650	0.728400	0.348490
H501	H50	0.530900	0.719600	0.394200
C1011	C101	0.577110	0.636000	0.308210
H511	H51	0.566500	0.565900	0.327100
C1021	C102	0.614370	0.645900	0.239800
C1031	C103	0.638110	0.547300	0.195730
C1041	C104	0.600180	0.452200	0.188600
H521	H52	0.560000	0.448600	0.214100
C1051	C105	0.621450	0.362700	0.143840
C1061	C106	0.681970	0.365500	0.107180
H531	H53	0.695800	0.306600	0.075900
C1071	C107	0.721680	0.457400	0.117750
C1081	C108	0.699550	0.547600	0.160350
H541	H54	0.726200	0.609600	0.165500
C1091	C109	0.628460	0.751400	0.213250
H551	H55	0.652900	0.760200	0.167300
C1101	C110	0.607060	0.844000	0.253330
H561	H56	0.617300	0.914200	0.234200
C1111	C111	0.582390	0.258100	0.141730
C1121	C112	0.789820	0.456400	0.083650
Zn91	Zn9	0.000000	0.622870	0.250000
Zn101	Zn10	0.500000	0.877130	0.750000
Zn111	Zn11	0.000000	0.377130	0.750000
Zn121	Zn12	0.500000	0.122870	0.250000
