data_VIZSUU_clean_PM
_symmetry_space_group_name_H-M	'P1'
_cell_length_a	44.006000
_cell_length_b	44.006000
_cell_length_c	28.267000
_cell_angle_alpha	90.000000
_cell_angle_beta	90.000000
_cell_angle_gamma	120.000000
_symmetry_Int_Tables_number 1

loop_
_symmetry_equiv_pos_as_xyz
'x,y,z'

loop_
_atom_site_label
_atom_site_type_symbol
_atom_site_fract_x
_atom_site_fract_y
_atom_site_fract_z
Zn11	Zn1	0.492840	0.645560	0.806900
I11	I1	0.454050	0.671970	0.807860
N11	N1	0.543730	0.682550	0.821100
C11	C1	0.558820	0.713030	0.796030
H11	H1	0.545300	0.715800	0.772000
C21	C2	0.591920	0.739540	0.803450
H21	H2	0.601700	0.760200	0.784600
C31	C3	0.611290	0.735720	0.839560
C41	C4	0.596880	0.704880	0.864440
H31	H3	0.609800	0.701600	0.888800
C51	C5	0.562880	0.678420	0.853420
H41	H4	0.553300	0.656700	0.869800
N21	N2	0.795380	0.942340	0.690680
C61	C6	0.810800	0.945120	0.732930
H51	H5	0.833600	0.964600	0.738200
C71	C7	0.795300	0.921220	0.768540
H61	H6	0.806900	0.924300	0.798000
C81	C8	0.762240	0.892330	0.761040
C91	C9	0.745320	0.890220	0.718320
H71	H7	0.722100	0.871600	0.712800
C101	C10	0.762520	0.915070	0.684750
H81	H8	0.750900	0.913200	0.655700
N31	N3	0.793620	0.835200	0.078890
C111	C11	0.764100	0.806900	0.068300
H91	H9	0.754100	0.788500	0.090900
C121	C12	0.746500	0.802370	0.026340
H101	H10	0.724900	0.781300	0.021000
C131	C13	0.759360	0.827090	0.993160
C141	C14	0.789800	0.857800	0.003700
H111	H11	0.799500	0.876700	0.981900
C151	C15	0.806300	0.860500	0.047500
H121	H12	0.827400	0.881500	0.054600
C161	C16	0.647400	0.765560	0.849450
N41	N4	0.661810	0.788940	0.813570
C171	C17	0.694560	0.815580	0.821490
N51	N5	0.711190	0.839960	0.787360
C181	C18	0.743650	0.864800	0.798530
N61	N6	0.762330	0.869960	0.838340
C191	C19	0.745170	0.845830	0.872480
N71	N7	0.761010	0.848420	0.914960
C201	C20	0.742080	0.823590	0.946350
N81	N8	0.709150	0.795420	0.942590
C211	C21	0.693140	0.792610	0.899790
N91	N9	0.660880	0.765720	0.892120
C221	C22	0.711040	0.818120	0.865090
Zn21	Zn2	0.159500	0.978900	0.140230
I21	I2	0.120710	0.005310	0.141190
N101	N10	0.210400	0.015880	0.154430
C231	C23	0.225490	0.046360	0.129360
H131	H13	0.211970	0.049130	0.105330
C241	C24	0.258590	0.072870	0.136780
H141	H14	0.268370	0.093530	0.117930
C251	C25	0.277960	0.069050	0.172890
C261	C26	0.263550	0.038210	0.197770
H151	H15	0.276470	0.034930	0.222130
C271	C27	0.229550	0.011750	0.186750
H161	H16	0.219970	0.990030	0.203130
N111	N11	0.462050	0.275670	0.024010
C281	C28	0.477470	0.278450	0.066260
H171	H17	0.500270	0.297930	0.071530
C291	C29	0.461970	0.254550	0.101870
H181	H18	0.473570	0.257630	0.131330
C301	C30	0.428910	0.225660	0.094370
C311	C31	0.411990	0.223550	0.051650
H191	H19	0.388770	0.204930	0.046130
C321	C32	0.429190	0.248400	0.018080
H201	H20	0.417570	0.246530	0.989030
N121	N12	0.460290	0.168530	0.412220
C331	C33	0.430770	0.140230	0.401630
H211	H21	0.420770	0.121830	0.424230
C341	C34	0.413170	0.135700	0.359670
H221	H22	0.391570	0.114630	0.354330
C351	C35	0.426030	0.160420	0.326490
C361	C36	0.456470	0.191130	0.337030
H231	H23	0.466170	0.210030	0.315230
C371	C37	0.472970	0.193830	0.380830
H241	H24	0.494070	0.214830	0.387930
C381	C38	0.314070	0.098890	0.182780
N131	N13	0.328480	0.122270	0.146900
C391	C39	0.361230	0.148910	0.154820
N141	N14	0.377860	0.173290	0.120690
C401	C40	0.410320	0.198130	0.131860
N151	N15	0.429000	0.203290	0.171670
C411	C41	0.411840	0.179160	0.205810
N161	N16	0.427680	0.181750	0.248290
C421	C42	0.408750	0.156920	0.279680
N171	N17	0.375820	0.128750	0.275920
C431	C43	0.359810	0.125940	0.233120
N181	N18	0.327550	0.099050	0.225450
C441	C44	0.377710	0.151450	0.198420
Zn31	Zn3	0.826170	0.312230	0.473570
I31	I3	0.787380	0.338640	0.474530
N191	N19	0.877060	0.349220	0.487770
C451	C45	0.892150	0.379700	0.462700
H251	H25	0.878630	0.382470	0.438670
C461	C46	0.925250	0.406210	0.470120
H261	H26	0.935030	0.426870	0.451270
C471	C47	0.944620	0.402390	0.506230
C481	C48	0.930210	0.371550	0.531110
H271	H27	0.943130	0.368270	0.555470
C491	C49	0.896210	0.345090	0.520090
H281	H28	0.886630	0.323370	0.536470
N201	N20	0.128710	0.609010	0.357350
C501	C50	0.144130	0.611790	0.399600
H291	H29	0.166930	0.631270	0.404870
C511	C51	0.128630	0.587890	0.435210
H301	H30	0.140230	0.590970	0.464670
C521	C52	0.095570	0.559000	0.427710
C531	C53	0.078650	0.556890	0.384990
H311	H31	0.055430	0.538270	0.379470
C541	C54	0.095850	0.581740	0.351420
H321	H32	0.084230	0.579870	0.322370
N211	N21	0.126950	0.501870	0.745560
C551	C55	0.097430	0.473570	0.734970
H331	H33	0.087430	0.455170	0.757570
C561	C56	0.079830	0.469040	0.693010
H341	H34	0.058230	0.447970	0.687670
C571	C57	0.092690	0.493760	0.659830
C581	C58	0.123130	0.524470	0.670370
H351	H35	0.132830	0.543370	0.648570
C591	C59	0.139630	0.527170	0.714170
H361	H36	0.160730	0.548170	0.721270
C601	C60	0.980730	0.432230	0.516120
N221	N22	0.995140	0.455610	0.480240
C611	C61	0.027890	0.482250	0.488160
N231	N23	0.044520	0.506630	0.454030
C621	C62	0.076980	0.531470	0.465200
N241	N24	0.095660	0.536630	0.505010
C631	C63	0.078500	0.512500	0.539150
N251	N25	0.094340	0.515090	0.581630
C641	C64	0.075410	0.490260	0.613020
N261	N26	0.042480	0.462090	0.609260
C651	C65	0.026470	0.459280	0.566460
N271	N27	0.994210	0.432390	0.558790
C661	C66	0.044370	0.484790	0.531760
Zn41	Zn4	0.354440	0.847270	0.806900
I41	I4	0.328030	0.782070	0.807860
N281	N28	0.317450	0.861180	0.821100
C671	C67	0.286970	0.845790	0.796030
H371	H37	0.284200	0.829500	0.772000
C681	C68	0.260460	0.852380	0.803450
H381	H38	0.239800	0.841500	0.784600
C691	C69	0.264280	0.875570	0.839560
C701	C70	0.295120	0.892000	0.864440
H391	H39	0.298400	0.908200	0.888800
C711	C71	0.321580	0.884460	0.853420
H401	H40	0.343300	0.896600	0.869800
N291	N29	0.057660	0.853040	0.690680
C721	C72	0.054880	0.865680	0.732930
H411	H41	0.035400	0.869000	0.738200
C731	C73	0.078780	0.874080	0.768540
H421	H42	0.075700	0.882600	0.798000
C741	C74	0.107670	0.869910	0.761040
C751	C75	0.109780	0.855100	0.718320
H431	H43	0.128400	0.850500	0.712800
C761	C76	0.084930	0.847450	0.684750
H441	H44	0.086800	0.837700	0.655700
N301	N30	0.164800	0.958420	0.078890
C771	C77	0.193100	0.957200	0.068300
H451	H45	0.211500	0.965600	0.090900
C781	C78	0.197630	0.944130	0.026340
H461	H46	0.218700	0.943600	0.021000
C791	C79	0.172910	0.932270	0.993160
C801	C80	0.142200	0.932000	0.003700
H471	H47	0.123300	0.922800	0.981900
C811	C81	0.139500	0.945800	0.047500
H481	H48	0.118500	0.945900	0.054600
C821	C82	0.234440	0.881840	0.849450
N311	N31	0.211060	0.872870	0.813570
C831	C83	0.184420	0.878980	0.821490
N321	N32	0.160040	0.871230	0.787360
C841	C84	0.135200	0.878850	0.798530
N331	N33	0.130040	0.892370	0.838340
C851	C85	0.154170	0.899340	0.872480
N341	N34	0.151580	0.912590	0.914960
C861	C86	0.176410	0.918490	0.946350
N351	N35	0.204580	0.913730	0.942590
C871	C87	0.207390	0.900530	0.899790
N361	N36	0.234280	0.895160	0.892120
C881	C88	0.181880	0.892920	0.865090
Zn51	Zn5	0.021100	0.180610	0.140230
I51	I5	0.994690	0.115410	0.141190
N371	N37	0.984120	0.194510	0.154430
C891	C89	0.953640	0.179120	0.129360
H491	H49	0.950870	0.162830	0.105330
C901	C90	0.927130	0.185710	0.136780
H501	H50	0.906470	0.174830	0.117930
C911	C91	0.930950	0.208900	0.172890
C921	C92	0.961790	0.225330	0.197770
H511	H51	0.965070	0.241530	0.222130
C931	C93	0.988250	0.217790	0.186750
H521	H52	0.009970	0.229930	0.203130
N381	N38	0.724330	0.186370	0.024010
C941	C94	0.721550	0.199010	0.066260
H531	H53	0.702070	0.202330	0.071530
C951	C95	0.745450	0.207410	0.101870
H541	H54	0.742370	0.215930	0.131330
C961	C96	0.774340	0.203240	0.094370
C971	C97	0.776450	0.188430	0.051650
H551	H55	0.795070	0.183830	0.046130
C981	C98	0.751600	0.180780	0.018080
H561	H56	0.753470	0.171030	0.989030
N391	N39	0.831470	0.291750	0.412220
C991	C99	0.859770	0.290530	0.401630
H571	H57	0.878170	0.298930	0.424230
C1001	C100	0.864300	0.277460	0.359670
H581	H58	0.885370	0.276930	0.354330
C1011	C101	0.839580	0.265600	0.326490
C1021	C102	0.808870	0.265330	0.337030
H591	H59	0.789970	0.256130	0.315230
C1031	C103	0.806170	0.279130	0.380830
H601	H60	0.785170	0.279230	0.387930
C1041	C104	0.901110	0.215170	0.182780
N401	N40	0.877730	0.206200	0.146900
C1051	C105	0.851090	0.212310	0.154820
N411	N41	0.826710	0.204560	0.120690
C1061	C106	0.801870	0.212180	0.131860
N421	N42	0.796710	0.225700	0.171670
C1071	C107	0.820840	0.232670	0.205810
N431	N43	0.818250	0.245920	0.248290
C1081	C108	0.843080	0.251820	0.279680
N441	N44	0.871250	0.247060	0.275920
C1091	C109	0.874060	0.233860	0.233120
N451	N45	0.900950	0.228490	0.225450
C1101	C110	0.848550	0.226250	0.198420
Zn61	Zn6	0.687770	0.513940	0.473570
I61	I6	0.661360	0.448740	0.474530
N461	N46	0.650780	0.527850	0.487770
C1111	C111	0.620300	0.512460	0.462700
H611	H61	0.617530	0.496170	0.438670
C1121	C112	0.593790	0.519050	0.470120
H621	H62	0.573130	0.508170	0.451270
C1131	C113	0.597610	0.542240	0.506230
C1141	C114	0.628450	0.558670	0.531110
H631	H63	0.631730	0.574870	0.555470
C1151	C115	0.654910	0.551130	0.520090
H641	H64	0.676630	0.563270	0.536470
N471	N47	0.390990	0.519710	0.357350
C1161	C116	0.388210	0.532350	0.399600
H651	H65	0.368730	0.535670	0.404870
C1171	C117	0.412110	0.540750	0.435210
H661	H66	0.409030	0.549270	0.464670
C1181	C118	0.441000	0.536580	0.427710
C1191	C119	0.443110	0.521770	0.384990
H671	H67	0.461730	0.517170	0.379470
C1201	C120	0.418260	0.514120	0.351420
H681	H68	0.420130	0.504370	0.322370
N481	N48	0.498130	0.625090	0.745560
C1211	C121	0.526430	0.623870	0.734970
H691	H69	0.544830	0.632270	0.757570
C1221	C122	0.530960	0.610800	0.693010
H701	H70	0.552030	0.610270	0.687670
C1231	C123	0.506240	0.598940	0.659830
C1241	C124	0.475530	0.598670	0.670370
H711	H71	0.456630	0.589470	0.648570
C1251	C125	0.472830	0.612470	0.714170
H721	H72	0.451830	0.612570	0.721270
C1261	C126	0.567770	0.548510	0.516120
N491	N49	0.544390	0.539540	0.480240
C1271	C127	0.517750	0.545650	0.488160
N501	N50	0.493370	0.537900	0.454030
C1281	C128	0.468530	0.545520	0.465200
N511	N51	0.463370	0.559040	0.505010
C1291	C129	0.487500	0.566010	0.539150
N521	N52	0.484910	0.579260	0.581630
C1301	C130	0.509740	0.585160	0.613020
N531	N53	0.537910	0.580400	0.609260
C1311	C131	0.540720	0.567200	0.566460
N541	N54	0.567610	0.561830	0.558790
C1321	C132	0.515210	0.559590	0.531760
Zn71	Zn7	0.152730	0.507160	0.806900
I71	I7	0.217930	0.545950	0.807860
N551	N55	0.138820	0.456270	0.821100
C1331	C133	0.154210	0.441180	0.796030
H731	H73	0.170500	0.454700	0.772000
C1341	C134	0.147620	0.408080	0.803450
H741	H74	0.158500	0.398300	0.784600
C1351	C135	0.124430	0.388710	0.839560
C1361	C136	0.108000	0.403120	0.864440
H751	H75	0.091800	0.390200	0.888800
C1371	C137	0.115540	0.437120	0.853420
H761	H76	0.103400	0.446700	0.869800
N561	N56	0.146960	0.204620	0.690680
C1381	C138	0.134320	0.189200	0.732930
H771	H77	0.131000	0.166400	0.738200
C1391	C139	0.125920	0.204700	0.768540
H781	H78	0.117400	0.193100	0.798000
C1401	C140	0.130090	0.237760	0.761040
C1411	C141	0.144900	0.254680	0.718320
H791	H79	0.149500	0.277900	0.712800
C1421	C142	0.152550	0.237480	0.684750
H801	H80	0.162300	0.249100	0.655700
N571	N57	0.041580	0.206380	0.078890
C1431	C143	0.042800	0.235900	0.068300
H811	H81	0.034400	0.245900	0.090900
C1441	C144	0.055870	0.253500	0.026340
H821	H82	0.056400	0.275100	0.021000
C1451	C145	0.067730	0.240640	0.993160
C1461	C146	0.068000	0.210200	0.003700
H831	H83	0.077200	0.200500	0.981900
C1471	C147	0.054200	0.193700	0.047500
H841	H84	0.054100	0.172600	0.054600
C1481	C148	0.118160	0.352600	0.849450
N581	N58	0.127130	0.338190	0.813570
C1491	C149	0.121020	0.305440	0.821490
N591	N59	0.128770	0.288810	0.787360
C1501	C150	0.121150	0.256350	0.798530
N601	N60	0.107630	0.237670	0.838340
C1511	C151	0.100660	0.254830	0.872480
N611	N61	0.087410	0.238990	0.914960
C1521	C152	0.081510	0.257920	0.946350
N621	N62	0.086270	0.290850	0.942590
C1531	C153	0.099470	0.306860	0.899790
N631	N63	0.104840	0.339120	0.892120
C1541	C154	0.107080	0.288960	0.865090
Zn81	Zn8	0.819390	0.840500	0.140230
I81	I8	0.884590	0.879290	0.141190
N641	N64	0.805490	0.789600	0.154430
C1551	C155	0.820880	0.774510	0.129360
H851	H85	0.837170	0.788030	0.105330
C1561	C156	0.814290	0.741410	0.136780
H861	H86	0.825170	0.731630	0.117930
C1571	C157	0.791100	0.722040	0.172890
C1581	C158	0.774670	0.736450	0.197770
H871	H87	0.758470	0.723530	0.222130
C1591	C159	0.782210	0.770450	0.186750
H881	H88	0.770070	0.780030	0.203130
N651	N65	0.813630	0.537950	0.024010
C1601	C160	0.800990	0.522530	0.066260
H891	H89	0.797670	0.499730	0.071530
C1611	C161	0.792590	0.538030	0.101870
H901	H90	0.784070	0.526430	0.131330
C1621	C162	0.796760	0.571090	0.094370
C1631	C163	0.811570	0.588010	0.051650
H911	H91	0.816170	0.611230	0.046130
C1641	C164	0.819220	0.570810	0.018080
H921	H92	0.828970	0.582430	0.989030
N661	N66	0.708250	0.539710	0.412220
C1651	C165	0.709470	0.569230	0.401630
H931	H93	0.701070	0.579230	0.424230
C1661	C166	0.722540	0.586830	0.359670
H941	H94	0.723070	0.608430	0.354330
C1671	C167	0.734400	0.573970	0.326490
C1681	C168	0.734670	0.543530	0.337030
H951	H95	0.743870	0.533830	0.315230
C1691	C169	0.720870	0.527030	0.380830
H961	H96	0.720770	0.505930	0.387930
C1701	C170	0.784830	0.685930	0.182780
N671	N67	0.793800	0.671520	0.146900
C1711	C171	0.787690	0.638770	0.154820
N681	N68	0.795440	0.622140	0.120690
C1721	C172	0.787820	0.589680	0.131860
N691	N69	0.774300	0.571000	0.171670
C1731	C173	0.767330	0.588160	0.205810
N701	N70	0.754080	0.572320	0.248290
C1741	C174	0.748180	0.591250	0.279680
N711	N71	0.752940	0.624180	0.275920
C1751	C175	0.766140	0.640190	0.233120
N721	N72	0.771510	0.672450	0.225450
C1761	C176	0.773750	0.622290	0.198420
Zn91	Zn9	0.486060	0.173830	0.473570
I91	I9	0.551260	0.212620	0.474530
N731	N73	0.472150	0.122940	0.487770
C1771	C177	0.487540	0.107850	0.462700
H971	H97	0.503830	0.121370	0.438670
C1781	C178	0.480950	0.074750	0.470120
H981	H98	0.491830	0.064970	0.451270
C1791	C179	0.457760	0.055380	0.506230
C1801	C180	0.441330	0.069790	0.531110
H991	H99	0.425130	0.056870	0.555470
C1811	C181	0.448870	0.103790	0.520090
H1001	H100	0.436730	0.113370	0.536470
N741	N74	0.480290	0.871290	0.357350
C1821	C182	0.467650	0.855870	0.399600
H1011	H101	0.464330	0.833070	0.404870
C1831	C183	0.459250	0.871370	0.435210
H1021	H102	0.450730	0.859770	0.464670
C1841	C184	0.463420	0.904430	0.427710
C1851	C185	0.478230	0.921350	0.384990
H1031	H103	0.482830	0.944570	0.379470
C1861	C186	0.485880	0.904150	0.351420
H1041	H104	0.495630	0.915770	0.322370
N751	N75	0.374910	0.873050	0.745560
C1871	C187	0.376130	0.902570	0.734970
H1051	H105	0.367730	0.912570	0.757570
C1881	C188	0.389200	0.920170	0.693010
H1061	H106	0.389730	0.941770	0.687670
C1891	C189	0.401060	0.907310	0.659830
C1901	C190	0.401330	0.876870	0.670370
H1071	H107	0.410530	0.867170	0.648570
C1911	C191	0.387530	0.860370	0.714170
H1081	H108	0.387430	0.839270	0.721270
C1921	C192	0.451490	0.019270	0.516120
N761	N76	0.460460	0.004860	0.480240
C1931	C193	0.454350	0.972110	0.488160
N771	N77	0.462100	0.955480	0.454030
C1941	C194	0.454480	0.923020	0.465200
N781	N78	0.440960	0.904340	0.505010
C1951	C195	0.433990	0.921500	0.539150
N791	N79	0.420740	0.905660	0.581630
C1961	C196	0.414840	0.924590	0.613020
N801	N80	0.419600	0.957520	0.609260
C1971	C197	0.432800	0.973530	0.566460
N811	N81	0.438170	0.005790	0.558790
C1981	C198	0.440410	0.955630	0.531760
Zn101	Zn10	0.354440	0.507160	0.306900
I101	I10	0.328030	0.545950	0.307860
N821	N82	0.317450	0.456270	0.321100
C1991	C199	0.286970	0.441180	0.296030
H1091	H109	0.284200	0.454700	0.272000
C2001	C200	0.260460	0.408080	0.303450
H1101	H110	0.239800	0.398300	0.284600
C2011	C201	0.264280	0.388710	0.339560
C2021	C202	0.295120	0.403120	0.364440
H1111	H111	0.298400	0.390200	0.388800
C2031	C203	0.321580	0.437120	0.353420
H1121	H112	0.343300	0.446700	0.369800
N831	N83	0.057660	0.204620	0.190680
C2041	C204	0.054880	0.189200	0.232930
H1131	H113	0.035400	0.166400	0.238200
C2051	C205	0.078780	0.204700	0.268540
H1141	H114	0.075700	0.193100	0.298000
C2061	C206	0.107670	0.237760	0.261040
C2071	C207	0.109780	0.254680	0.218320
H1151	H115	0.128400	0.277900	0.212800
C2081	C208	0.084930	0.237480	0.184750
H1161	H116	0.086800	0.249100	0.155700
N841	N84	0.164800	0.206380	0.578890
C2091	C209	0.193100	0.235900	0.568300
H1171	H117	0.211500	0.245900	0.590900
C2101	C210	0.197630	0.253500	0.526340
H1181	H118	0.218700	0.275100	0.521000
C2111	C211	0.172910	0.240640	0.493160
C2121	C212	0.142200	0.210200	0.503700
H1191	H119	0.123300	0.200500	0.481900
C2131	C213	0.139500	0.193700	0.547500
H1201	H120	0.118500	0.172600	0.554600
C2141	C214	0.234440	0.352600	0.349450
N851	N85	0.211060	0.338190	0.313570
C2151	C215	0.184420	0.305440	0.321490
N861	N86	0.160040	0.288810	0.287360
C2161	C216	0.135200	0.256350	0.298530
N871	N87	0.130040	0.237670	0.338340
C2171	C217	0.154170	0.254830	0.372480
N881	N88	0.151580	0.238990	0.414960
C2181	C218	0.176410	0.257920	0.446350
N891	N89	0.204580	0.290850	0.442590
C2191	C219	0.207390	0.306860	0.399790
N901	N90	0.234280	0.339120	0.392120
C2201	C220	0.181880	0.288960	0.365090
Zn111	Zn11	0.021100	0.840500	0.640230
I111	I11	0.994690	0.879290	0.641190
N911	N91	0.984120	0.789600	0.654430
C2211	C221	0.953640	0.774510	0.629360
H1211	H121	0.950870	0.788030	0.605330
C2221	C222	0.927130	0.741410	0.636780
H1221	H122	0.906470	0.731630	0.617930
C2231	C223	0.930950	0.722040	0.672890
C2241	C224	0.961790	0.736450	0.697770
H1231	H123	0.965070	0.723530	0.722130
C2251	C225	0.988250	0.770450	0.686750
H1241	H124	0.009970	0.780030	0.703130
N921	N92	0.724330	0.537950	0.524010
C2261	C226	0.721550	0.522530	0.566260
H1251	H125	0.702070	0.499730	0.571530
C2271	C227	0.745450	0.538030	0.601870
H1261	H126	0.742370	0.526430	0.631330
C2281	C228	0.774340	0.571090	0.594370
C2291	C229	0.776450	0.588010	0.551650
H1271	H127	0.795070	0.611230	0.546130
C2301	C230	0.751600	0.570810	0.518080
H1281	H128	0.753470	0.582430	0.489030
N931	N93	0.831470	0.539710	0.912220
C2311	C231	0.859770	0.569230	0.901630
H1291	H129	0.878170	0.579230	0.924230
C2321	C232	0.864300	0.586830	0.859670
H1301	H130	0.885370	0.608430	0.854330
C2331	C233	0.839580	0.573970	0.826490
C2341	C234	0.808870	0.543530	0.837030
H1311	H131	0.789970	0.533830	0.815230
C2351	C235	0.806170	0.527030	0.880830
H1321	H132	0.785170	0.505930	0.887930
C2361	C236	0.901110	0.685930	0.682780
N941	N94	0.877730	0.671520	0.646900
C2371	C237	0.851090	0.638770	0.654820
N951	N95	0.826710	0.622140	0.620690
C2381	C238	0.801870	0.589680	0.631860
N961	N96	0.796710	0.571000	0.671670
C2391	C239	0.820840	0.588160	0.705810
N971	N97	0.818250	0.572320	0.748290
C2401	C240	0.843080	0.591250	0.779680
N981	N98	0.871250	0.624180	0.775920
C2411	C241	0.874060	0.640190	0.733120
N991	N99	0.900950	0.672450	0.725450
C2421	C242	0.848550	0.622290	0.698420
Zn121	Zn12	0.687770	0.173830	0.973570
I121	I12	0.661360	0.212620	0.974530
N1001	N100	0.650780	0.122940	0.987770
C2431	C243	0.620300	0.107850	0.962700
H1331	H133	0.617530	0.121370	0.938670
C2441	C244	0.593790	0.074750	0.970120
H1341	H134	0.573130	0.064970	0.951270
C2451	C245	0.597610	0.055380	0.006230
C2461	C246	0.628450	0.069790	0.031110
H1351	H135	0.631730	0.056870	0.055470
C2471	C247	0.654910	0.103790	0.020090
H1361	H136	0.676630	0.113370	0.036470
N1011	N101	0.390990	0.871290	0.857350
C2481	C248	0.388210	0.855870	0.899600
H1371	H137	0.368730	0.833070	0.904870
C2491	C249	0.412110	0.871370	0.935210
H1381	H138	0.409030	0.859770	0.964670
C2501	C250	0.441000	0.904430	0.927710
C2511	C251	0.443110	0.921350	0.884990
H1391	H139	0.461730	0.944570	0.879470
C2521	C252	0.418260	0.904150	0.851420
H1401	H140	0.420130	0.915770	0.822370
N1021	N102	0.498130	0.873050	0.245560
C2531	C253	0.526430	0.902570	0.234970
H1411	H141	0.544830	0.912570	0.257570
C2541	C254	0.530960	0.920170	0.193010
H1421	H142	0.552030	0.941770	0.187670
C2551	C255	0.506240	0.907310	0.159830
C2561	C256	0.475530	0.876870	0.170370
H1431	H143	0.456630	0.867170	0.148570
C2571	C257	0.472830	0.860370	0.214170
H1441	H144	0.451830	0.839270	0.221270
C2581	C258	0.567770	0.019270	0.016120
N1031	N103	0.544390	0.004860	0.980240
C2591	C259	0.517750	0.972110	0.988160
N1041	N104	0.493370	0.955480	0.954030
C2601	C260	0.468530	0.923020	0.965200
N1051	N105	0.463370	0.904340	0.005010
C2611	C261	0.487500	0.921500	0.039150
N1061	N106	0.484910	0.905660	0.081630
C2621	C262	0.509740	0.924590	0.113020
N1071	N107	0.537910	0.957520	0.109260
C2631	C263	0.540720	0.973530	0.066460
N1081	N108	0.567610	0.005790	0.058790
C2641	C264	0.515210	0.955630	0.031760
Zn131	Zn13	0.152730	0.645560	0.306900
I131	I13	0.217930	0.671970	0.307860
N1091	N109	0.138820	0.682550	0.321100
C2651	C265	0.154210	0.713030	0.296030
H1451	H145	0.170500	0.715800	0.272000
C2661	C266	0.147620	0.739540	0.303450
H1461	H146	0.158500	0.760200	0.284600
C2671	C267	0.124430	0.735720	0.339560
C2681	C268	0.108000	0.704880	0.364440
H1471	H147	0.091800	0.701600	0.388800
C2691	C269	0.115540	0.678420	0.353420
H1481	H148	0.103400	0.656700	0.369800
N1101	N110	0.146960	0.942340	0.190680
C2701	C270	0.134320	0.945120	0.232930
H1491	H149	0.131000	0.964600	0.238200
C2711	C271	0.125920	0.921220	0.268540
H1501	H150	0.117400	0.924300	0.298000
C2721	C272	0.130090	0.892330	0.261040
C2731	C273	0.144900	0.890220	0.218320
H1511	H151	0.149500	0.871600	0.212800
C2741	C274	0.152550	0.915070	0.184750
H1521	H152	0.162300	0.913200	0.155700
N1111	N111	0.041580	0.835200	0.578890
C2751	C275	0.042800	0.806900	0.568300
H1531	H153	0.034400	0.788500	0.590900
C2761	C276	0.055870	0.802370	0.526340
H1541	H154	0.056400	0.781300	0.521000
C2771	C277	0.067730	0.827090	0.493160
C2781	C278	0.068000	0.857800	0.503700
H1551	H155	0.077200	0.876700	0.481900
C2791	C279	0.054200	0.860500	0.547500
H1561	H156	0.054100	0.881500	0.554600
C2801	C280	0.118160	0.765560	0.349450
N1121	N112	0.127130	0.788940	0.313570
C2811	C281	0.121020	0.815580	0.321490
N1131	N113	0.128770	0.839960	0.287360
C2821	C282	0.121150	0.864800	0.298530
N1141	N114	0.107630	0.869960	0.338340
C2831	C283	0.100660	0.845830	0.372480
N1151	N115	0.087410	0.848420	0.414960
C2841	C284	0.081510	0.823590	0.446350
N1161	N116	0.086270	0.795420	0.442590
C2851	C285	0.099470	0.792610	0.399790
N1171	N117	0.104840	0.765720	0.392120
C2861	C286	0.107080	0.818120	0.365090
Zn141	Zn14	0.819390	0.978900	0.640230
I141	I14	0.884590	0.005310	0.641190
N1181	N118	0.805490	0.015880	0.654430
C2871	C287	0.820880	0.046360	0.629360
H1571	H157	0.837170	0.049130	0.605330
C2881	C288	0.814290	0.072870	0.636780
H1581	H158	0.825170	0.093530	0.617930
C2891	C289	0.791100	0.069050	0.672890
C2901	C290	0.774670	0.038210	0.697770
H1591	H159	0.758470	0.034930	0.722130
C2911	C291	0.782210	0.011750	0.686750
H1601	H160	0.770070	0.990030	0.703130
N1191	N119	0.813630	0.275670	0.524010
C2921	C292	0.800990	0.278450	0.566260
H1611	H161	0.797670	0.297930	0.571530
C2931	C293	0.792590	0.254550	0.601870
H1621	H162	0.784070	0.257630	0.631330
C2941	C294	0.796760	0.225660	0.594370
C2951	C295	0.811570	0.223550	0.551650
H1631	H163	0.816170	0.204930	0.546130
C2961	C296	0.819220	0.248400	0.518080
H1641	H164	0.828970	0.246530	0.489030
N1201	N120	0.708250	0.168530	0.912220
C2971	C297	0.709470	0.140230	0.901630
H1651	H165	0.701070	0.121830	0.924230
C2981	C298	0.722540	0.135700	0.859670
H1661	H166	0.723070	0.114630	0.854330
C2991	C299	0.734400	0.160420	0.826490
C3001	C300	0.734670	0.191130	0.837030
H1671	H167	0.743870	0.210030	0.815230
C3011	C301	0.720870	0.193830	0.880830
H1681	H168	0.720770	0.214830	0.887930
C3021	C302	0.784830	0.098890	0.682780
N1211	N121	0.793800	0.122270	0.646900
C3031	C303	0.787690	0.148910	0.654820
N1221	N122	0.795440	0.173290	0.620690
C3041	C304	0.787820	0.198130	0.631860
N1231	N123	0.774300	0.203290	0.671670
C3051	C305	0.767330	0.179160	0.705810
N1241	N124	0.754080	0.181750	0.748290
C3061	C306	0.748180	0.156920	0.779680
N1251	N125	0.752940	0.128750	0.775920
C3071	C307	0.766140	0.125940	0.733120
N1261	N126	0.771510	0.099050	0.725450
C3081	C308	0.773750	0.151450	0.698420
Zn151	Zn15	0.486060	0.312230	0.973570
I151	I15	0.551260	0.338640	0.974530
N1271	N127	0.472150	0.349220	0.987770
C3091	C309	0.487540	0.379700	0.962700
H1691	H169	0.503830	0.382470	0.938670
C3101	C310	0.480950	0.406210	0.970120
H1701	H170	0.491830	0.426870	0.951270
C3111	C311	0.457760	0.402390	0.006230
C3121	C312	0.441330	0.371550	0.031110
H1711	H171	0.425130	0.368270	0.055470
C3131	C313	0.448870	0.345090	0.020090
H1721	H172	0.436730	0.323370	0.036470
N1281	N128	0.480290	0.609010	0.857350
C3141	C314	0.467650	0.611790	0.899600
H1731	H173	0.464330	0.631270	0.904870
C3151	C315	0.459250	0.587890	0.935210
H1741	H174	0.450730	0.590970	0.964670
C3161	C316	0.463420	0.559000	0.927710
C3171	C317	0.478230	0.556890	0.884990
H1751	H175	0.482830	0.538270	0.879470
C3181	C318	0.485880	0.581740	0.851420
H1761	H176	0.495630	0.579870	0.822370
N1291	N129	0.374910	0.501870	0.245560
C3191	C319	0.376130	0.473570	0.234970
H1771	H177	0.367730	0.455170	0.257570
C3201	C320	0.389200	0.469040	0.193010
H1781	H178	0.389730	0.447970	0.187670
C3211	C321	0.401060	0.493760	0.159830
C3221	C322	0.401330	0.524470	0.170370
H1791	H179	0.410530	0.543370	0.148570
C3231	C323	0.387530	0.527170	0.214170
H1801	H180	0.387430	0.548170	0.221270
C3241	C324	0.451490	0.432230	0.016120
N1301	N130	0.460460	0.455610	0.980240
C3251	C325	0.454350	0.482250	0.988160
N1311	N131	0.462100	0.506630	0.954030
C3261	C326	0.454480	0.531470	0.965200
N1321	N132	0.440960	0.536630	0.005010
C3271	C327	0.433990	0.512500	0.039150
N1331	N133	0.420740	0.515090	0.081630
C3281	C328	0.414840	0.490260	0.113020
N1341	N134	0.419600	0.462090	0.109260
C3291	C329	0.432800	0.459280	0.066460
N1351	N135	0.438170	0.432390	0.058790
C3301	C330	0.440410	0.484790	0.031760
Zn161	Zn16	0.492840	0.847270	0.306900
I161	I16	0.454050	0.782070	0.307860
N1361	N136	0.543730	0.861180	0.321100
C3311	C331	0.558820	0.845790	0.296030
H1811	H181	0.545300	0.829500	0.272000
C3321	C332	0.591920	0.852380	0.303450
H1821	H182	0.601700	0.841500	0.284600
C3331	C333	0.611290	0.875570	0.339560
C3341	C334	0.596880	0.892000	0.364440
H1831	H183	0.609800	0.908200	0.388800
C3351	C335	0.562880	0.884460	0.353420
H1841	H184	0.553300	0.896600	0.369800
N1371	N137	0.795380	0.853040	0.190680
C3361	C336	0.810800	0.865680	0.232930
H1851	H185	0.833600	0.869000	0.238200
C3371	C337	0.795300	0.874080	0.268540
H1861	H186	0.806900	0.882600	0.298000
C3381	C338	0.762240	0.869910	0.261040
C3391	C339	0.745320	0.855100	0.218320
H1871	H187	0.722100	0.850500	0.212800
C3401	C340	0.762520	0.847450	0.184750
H1881	H188	0.750900	0.837700	0.155700
N1381	N138	0.793620	0.958420	0.578890
C3411	C341	0.764100	0.957200	0.568300
H1891	H189	0.754100	0.965600	0.590900
C3421	C342	0.746500	0.944130	0.526340
H1901	H190	0.724900	0.943600	0.521000
C3431	C343	0.759360	0.932270	0.493160
C3441	C344	0.789800	0.932000	0.503700
H1911	H191	0.799500	0.922800	0.481900
C3451	C345	0.806300	0.945800	0.547500
H1921	H192	0.827400	0.945900	0.554600
C3461	C346	0.647400	0.881840	0.349450
N1391	N139	0.661810	0.872870	0.313570
C3471	C347	0.694560	0.878980	0.321490
N1401	N140	0.711190	0.871230	0.287360
C3481	C348	0.743650	0.878850	0.298530
N1411	N141	0.762330	0.892370	0.338340
C3491	C349	0.745170	0.899340	0.372480
N1421	N142	0.761010	0.912590	0.414960
C3501	C350	0.742080	0.918490	0.446350
N1431	N143	0.709150	0.913730	0.442590
C3511	C351	0.693140	0.900530	0.399790
N1441	N144	0.660880	0.895160	0.392120
C3521	C352	0.711040	0.892920	0.365090
Zn171	Zn17	0.159500	0.180610	0.640230
I171	I17	0.120710	0.115410	0.641190
N1451	N145	0.210400	0.194510	0.654430
C3531	C353	0.225490	0.179120	0.629360
H1931	H193	0.211970	0.162830	0.605330
C3541	C354	0.258590	0.185710	0.636780
H1941	H194	0.268370	0.174830	0.617930
C3551	C355	0.277960	0.208900	0.672890
C3561	C356	0.263550	0.225330	0.697770
H1951	H195	0.276470	0.241530	0.722130
C3571	C357	0.229550	0.217790	0.686750
H1961	H196	0.219970	0.229930	0.703130
N1461	N146	0.462050	0.186370	0.524010
C3581	C358	0.477470	0.199010	0.566260
H1971	H197	0.500270	0.202330	0.571530
C3591	C359	0.461970	0.207410	0.601870
H1981	H198	0.473570	0.215930	0.631330
C3601	C360	0.428910	0.203240	0.594370
C3611	C361	0.411990	0.188430	0.551650
H1991	H199	0.388770	0.183830	0.546130
C3621	C362	0.429190	0.180780	0.518080
H2001	H200	0.417570	0.171030	0.489030
N1471	N147	0.460290	0.291750	0.912220
C3631	C363	0.430770	0.290530	0.901630
H2011	H201	0.420770	0.298930	0.924230
C3641	C364	0.413170	0.277460	0.859670
H2021	H202	0.391570	0.276930	0.854330
C3651	C365	0.426030	0.265600	0.826490
C3661	C366	0.456470	0.265330	0.837030
H2031	H203	0.466170	0.256130	0.815230
C3671	C367	0.472970	0.279130	0.880830
H2041	H204	0.494070	0.279230	0.887930
C3681	C368	0.314070	0.215170	0.682780
N1481	N148	0.328480	0.206200	0.646900
C3691	C369	0.361230	0.212310	0.654820
N1491	N149	0.377860	0.204560	0.620690
C3701	C370	0.410320	0.212180	0.631860
N1501	N150	0.429000	0.225700	0.671670
C3711	C371	0.411840	0.232670	0.705810
N1511	N151	0.427680	0.245920	0.748290
C3721	C372	0.408750	0.251820	0.779680
N1521	N152	0.375820	0.247060	0.775920
C3731	C373	0.359810	0.233860	0.733120
N1531	N153	0.327550	0.228490	0.725450
C3741	C374	0.377710	0.226250	0.698420
Zn181	Zn18	0.826170	0.513940	0.973570
I181	I18	0.787380	0.448740	0.974530
N1541	N154	0.877060	0.527850	0.987770
C3751	C375	0.892150	0.512460	0.962700
H2051	H205	0.878630	0.496170	0.938670
C3761	C376	0.925250	0.519050	0.970120
H2061	H206	0.935030	0.508170	0.951270
C3771	C377	0.944620	0.542240	0.006230
C3781	C378	0.930210	0.558670	0.031110
H2071	H207	0.943130	0.574870	0.055470
C3791	C379	0.896210	0.551130	0.020090
H2081	H208	0.886630	0.563270	0.036470
N1551	N155	0.128710	0.519710	0.857350
C3801	C380	0.144130	0.532350	0.899600
H2091	H209	0.166930	0.535670	0.904870
C3811	C381	0.128630	0.540750	0.935210
H2101	H210	0.140230	0.549270	0.964670
C3821	C382	0.095570	0.536580	0.927710
C3831	C383	0.078650	0.521770	0.884990
H2111	H211	0.055430	0.517170	0.879470
C3841	C384	0.095850	0.514120	0.851420
H2121	H212	0.084230	0.504370	0.822370
N1561	N156	0.126950	0.625090	0.245560
C3851	C385	0.097430	0.623870	0.234970
H2131	H213	0.087430	0.632270	0.257570
C3861	C386	0.079830	0.610800	0.193010
H2141	H214	0.058230	0.610270	0.187670
C3871	C387	0.092690	0.598940	0.159830
C3881	C388	0.123130	0.598670	0.170370
H2151	H215	0.132830	0.589470	0.148570
C3891	C389	0.139630	0.612470	0.214170
H2161	H216	0.160730	0.612570	0.221270
C3901	C390	0.980730	0.548510	0.016120
N1571	N157	0.995140	0.539540	0.980240
C3911	C391	0.027890	0.545650	0.988160
N1581	N158	0.044520	0.537900	0.954030
C3921	C392	0.076980	0.545520	0.965200
N1591	N159	0.095660	0.559040	0.005010
C3931	C393	0.078500	0.566010	0.039150
N1601	N160	0.094340	0.579260	0.081630
C3941	C394	0.075410	0.585160	0.113020
N1611	N161	0.042480	0.580400	0.109260
C3951	C395	0.026470	0.567200	0.066460
N1621	N162	0.994210	0.561830	0.058790
C3961	C396	0.044370	0.559590	0.031760
Zn191	Zn19	0.645560	0.492840	0.693100
I191	I19	0.671970	0.454050	0.692140
N1631	N163	0.682550	0.543730	0.678900
C3971	C397	0.713030	0.558820	0.703970
H2171	H217	0.715800	0.545300	0.728000
C3981	C398	0.739540	0.591920	0.696550
H2181	H218	0.760200	0.601700	0.715400
C3991	C399	0.735720	0.611290	0.660440
C4001	C400	0.704880	0.596880	0.635560
H2191	H219	0.701600	0.609800	0.611200
C4011	C401	0.678420	0.562880	0.646580
H2201	H220	0.656700	0.553300	0.630200
N1641	N164	0.942340	0.795380	0.809320
C4021	C402	0.945120	0.810800	0.767070
H2211	H221	0.964600	0.833600	0.761800
C4031	C403	0.921220	0.795300	0.731460
H2221	H222	0.924300	0.806900	0.702000
C4041	C404	0.892330	0.762240	0.738960
C4051	C405	0.890220	0.745320	0.781680
H2231	H223	0.871600	0.722100	0.787200
C4061	C406	0.915070	0.762520	0.815250
H2241	H224	0.913200	0.750900	0.844300
N1651	N165	0.835200	0.793620	0.421110
C4071	C407	0.806900	0.764100	0.431700
H2251	H225	0.788500	0.754100	0.409100
C4081	C408	0.802370	0.746500	0.473660
H2261	H226	0.781300	0.724900	0.479000
C4091	C409	0.827090	0.759360	0.506840
C4101	C410	0.857800	0.789800	0.496300
H2271	H227	0.876700	0.799500	0.518100
C4111	C411	0.860500	0.806300	0.452500
H2281	H228	0.881500	0.827400	0.445400
C4121	C412	0.765560	0.647400	0.650550
N1661	N166	0.788940	0.661810	0.686430
C4131	C413	0.815580	0.694560	0.678510
N1671	N167	0.839960	0.711190	0.712640
C4141	C414	0.864800	0.743650	0.701470
N1681	N168	0.869960	0.762330	0.661660
C4151	C415	0.845830	0.745170	0.627520
N1691	N169	0.848420	0.761010	0.585040
C4161	C416	0.823590	0.742080	0.553650
N1701	N170	0.795420	0.709150	0.557410
C4171	C417	0.792610	0.693140	0.600210
N1711	N171	0.765720	0.660880	0.607880
C4181	C418	0.818120	0.711040	0.634910
Zn201	Zn20	0.312230	0.826170	0.026430
I201	I20	0.338640	0.787380	0.025470
N1721	N172	0.349220	0.877060	0.012230
C4191	C419	0.379700	0.892150	0.037300
H2291	H229	0.382470	0.878630	0.061330
C4201	C420	0.406210	0.925250	0.029880
H2301	H230	0.426870	0.935030	0.048730
C4211	C421	0.402390	0.944620	0.993770
C4221	C422	0.371550	0.930210	0.968890
H2311	H231	0.368270	0.943130	0.944530
C4231	C423	0.345090	0.896210	0.979910
H2321	H232	0.323370	0.886630	0.963530
N1731	N173	0.609010	0.128710	0.142650
C4241	C424	0.611790	0.144130	0.100400
H2331	H233	0.631270	0.166930	0.095130
C4251	C425	0.587890	0.128630	0.064790
H2341	H234	0.590970	0.140230	0.035330
C4261	C426	0.559000	0.095570	0.072290
C4271	C427	0.556890	0.078650	0.115010
H2351	H235	0.538270	0.055430	0.120530
C4281	C428	0.581740	0.095850	0.148580
H2361	H236	0.579870	0.084230	0.177630
N1741	N174	0.501870	0.126950	0.754440
C4291	C429	0.473570	0.097430	0.765030
H2371	H237	0.455170	0.087430	0.742430
C4301	C430	0.469040	0.079830	0.806990
H2381	H238	0.447970	0.058230	0.812330
C4311	C431	0.493760	0.092690	0.840170
C4321	C432	0.524470	0.123130	0.829630
H2391	H239	0.543370	0.132830	0.851430
C4331	C433	0.527170	0.139630	0.785830
H2401	H240	0.548170	0.160730	0.778730
C4341	C434	0.432230	0.980730	0.983880
N1751	N175	0.455610	0.995140	0.019760
C4351	C435	0.482250	0.027890	0.011840
N1761	N176	0.506630	0.044520	0.045970
C4361	C436	0.531470	0.076980	0.034800
N1771	N177	0.536630	0.095660	0.994990
C4371	C437	0.512500	0.078500	0.960850
N1781	N178	0.515090	0.094340	0.918370
C4381	C438	0.490260	0.075410	0.886980
N1791	N179	0.462090	0.042480	0.890740
C4391	C439	0.459280	0.026470	0.933540
N1801	N180	0.432390	0.994210	0.941210
C4401	C440	0.484790	0.044370	0.968240
Zn211	Zn21	0.978900	0.159500	0.359770
I211	I21	0.005310	0.120710	0.358810
N1811	N181	0.015880	0.210400	0.345570
C4411	C441	0.046360	0.225490	0.370640
H2411	H241	0.049130	0.211970	0.394670
C4421	C442	0.072870	0.258590	0.363220
H2421	H242	0.093530	0.268370	0.382070
C4431	C443	0.069050	0.277960	0.327110
C4441	C444	0.038210	0.263550	0.302230
H2431	H243	0.034930	0.276470	0.277870
C4451	C445	0.011750	0.229550	0.313250
H2441	H244	0.990030	0.219970	0.296870
N1821	N182	0.275670	0.462050	0.475990
C4461	C446	0.278450	0.477470	0.433740
H2451	H245	0.297930	0.500270	0.428470
C4471	C447	0.254550	0.461970	0.398130
H2461	H246	0.257630	0.473570	0.368670
C4481	C448	0.225660	0.428910	0.405630
C4491	C449	0.223550	0.411990	0.448350
H2471	H247	0.204930	0.388770	0.453870
C4501	C450	0.248400	0.429190	0.481920
H2481	H248	0.246530	0.417570	0.510970
N1831	N183	0.168530	0.460290	0.087780
C4511	C451	0.140230	0.430770	0.098370
H2491	H249	0.121830	0.420770	0.075770
C4521	C452	0.135700	0.413170	0.140330
H2501	H250	0.114630	0.391570	0.145670
C4531	C453	0.160420	0.426030	0.173510
C4541	C454	0.191130	0.456470	0.162970
H2511	H251	0.210030	0.466170	0.184770
C4551	C455	0.193830	0.472970	0.119170
H2521	H252	0.214830	0.494070	0.112070
C4561	C456	0.098890	0.314070	0.317220
N1841	N184	0.122270	0.328480	0.353100
C4571	C457	0.148910	0.361230	0.345180
N1851	N185	0.173290	0.377860	0.379310
C4581	C458	0.198130	0.410320	0.368140
N1861	N186	0.203290	0.429000	0.328330
C4591	C459	0.179160	0.411840	0.294190
N1871	N187	0.181750	0.427680	0.251710
C4601	C460	0.156920	0.408750	0.220320
N1881	N188	0.128750	0.375820	0.224080
C4611	C461	0.125940	0.359810	0.266880
N1891	N189	0.099050	0.327550	0.274550
C4621	C462	0.151450	0.377710	0.301580
Zn221	Zn22	0.847270	0.354440	0.693100
I221	I22	0.782070	0.328030	0.692140
N1901	N190	0.861180	0.317450	0.678900
C4631	C463	0.845790	0.286970	0.703970
H2531	H253	0.829500	0.284200	0.728000
C4641	C464	0.852380	0.260460	0.696550
H2541	H254	0.841500	0.239800	0.715400
C4651	C465	0.875570	0.264280	0.660440
C4661	C466	0.892000	0.295120	0.635560
H2551	H255	0.908200	0.298400	0.611200
C4671	C467	0.884460	0.321580	0.646580
H2561	H256	0.896600	0.343300	0.630200
N1911	N191	0.853040	0.057660	0.809320
C4681	C468	0.865680	0.054880	0.767070
H2571	H257	0.869000	0.035400	0.761800
C4691	C469	0.874080	0.078780	0.731460
H2581	H258	0.882600	0.075700	0.702000
C4701	C470	0.869910	0.107670	0.738960
C4711	C471	0.855100	0.109780	0.781680
H2591	H259	0.850500	0.128400	0.787200
C4721	C472	0.847450	0.084930	0.815250
H2601	H260	0.837700	0.086800	0.844300
N1921	N192	0.958420	0.164800	0.421110
C4731	C473	0.957200	0.193100	0.431700
H2611	H261	0.965600	0.211500	0.409100
C4741	C474	0.944130	0.197630	0.473660
H2621	H262	0.943600	0.218700	0.479000
C4751	C475	0.932270	0.172910	0.506840
C4761	C476	0.932000	0.142200	0.496300
H2631	H263	0.922800	0.123300	0.518100
C4771	C477	0.945800	0.139500	0.452500
H2641	H264	0.945900	0.118500	0.445400
C4781	C478	0.881840	0.234440	0.650550
N1931	N193	0.872870	0.211060	0.686430
C4791	C479	0.878980	0.184420	0.678510
N1941	N194	0.871230	0.160040	0.712640
C4801	C480	0.878850	0.135200	0.701470
N1951	N195	0.892370	0.130040	0.661660
C4811	C481	0.899340	0.154170	0.627520
N1961	N196	0.912590	0.151580	0.585040
C4821	C482	0.918490	0.176410	0.553650
N1971	N197	0.913730	0.204580	0.557410
C4831	C483	0.900530	0.207390	0.600210
N1981	N198	0.895160	0.234280	0.607880
C4841	C484	0.892920	0.181880	0.634910
Zn231	Zn23	0.513940	0.687770	0.026430
I231	I23	0.448740	0.661360	0.025470
N1991	N199	0.527850	0.650780	0.012230
C4851	C485	0.512460	0.620300	0.037300
H2651	H265	0.496170	0.617530	0.061330
C4861	C486	0.519050	0.593790	0.029880
H2661	H266	0.508170	0.573130	0.048730
C4871	C487	0.542240	0.597610	0.993770
C4881	C488	0.558670	0.628450	0.968890
H2671	H267	0.574870	0.631730	0.944530
C4891	C489	0.551130	0.654910	0.979910
H2681	H268	0.563270	0.676630	0.963530
N2001	N200	0.519710	0.390990	0.142650
C4901	C490	0.532350	0.388210	0.100400
H2691	H269	0.535670	0.368730	0.095130
C4911	C491	0.540750	0.412110	0.064790
H2701	H270	0.549270	0.409030	0.035330
C4921	C492	0.536580	0.441000	0.072290
C4931	C493	0.521770	0.443110	0.115010
H2711	H271	0.517170	0.461730	0.120530
C4941	C494	0.514120	0.418260	0.148580
H2721	H272	0.504370	0.420130	0.177630
N2011	N201	0.625090	0.498130	0.754440
C4951	C495	0.623870	0.526430	0.765030
H2731	H273	0.632270	0.544830	0.742430
C4961	C496	0.610800	0.530960	0.806990
H2741	H274	0.610270	0.552030	0.812330
C4971	C497	0.598940	0.506240	0.840170
C4981	C498	0.598670	0.475530	0.829630
H2751	H275	0.589470	0.456630	0.851430
C4991	C499	0.612470	0.472830	0.785830
H2761	H276	0.612570	0.451830	0.778730
C5001	C500	0.548510	0.567770	0.983880
N2021	N202	0.539540	0.544390	0.019760
C5011	C501	0.545650	0.517750	0.011840
N2031	N203	0.537900	0.493370	0.045970
C5021	C502	0.545520	0.468530	0.034800
N2041	N204	0.559040	0.463370	0.994990
C5031	C503	0.566010	0.487500	0.960850
N2051	N205	0.579260	0.484910	0.918370
C5041	C504	0.585160	0.509740	0.886980
N2061	N206	0.580400	0.537910	0.890740
C5051	C505	0.567200	0.540720	0.933540
N2071	N207	0.561830	0.567610	0.941210
C5061	C506	0.559590	0.515210	0.968240
Zn241	Zn24	0.180610	0.021100	0.359770
I241	I24	0.115410	0.994690	0.358810
N2081	N208	0.194510	0.984120	0.345570
C5071	C507	0.179120	0.953640	0.370640
H2771	H277	0.162830	0.950870	0.394670
C5081	C508	0.185710	0.927130	0.363220
H2781	H278	0.174830	0.906470	0.382070
C5091	C509	0.208900	0.930950	0.327110
C5101	C510	0.225330	0.961790	0.302230
H2791	H279	0.241530	0.965070	0.277870
C5111	C511	0.217790	0.988250	0.313250
H2801	H280	0.229930	0.009970	0.296870
N2091	N209	0.186370	0.724330	0.475990
C5121	C512	0.199010	0.721550	0.433740
H2811	H281	0.202330	0.702070	0.428470
C5131	C513	0.207410	0.745450	0.398130
H2821	H282	0.215930	0.742370	0.368670
C5141	C514	0.203240	0.774340	0.405630
C5151	C515	0.188430	0.776450	0.448350
H2831	H283	0.183830	0.795070	0.453870
C5161	C516	0.180780	0.751600	0.481920
H2841	H284	0.171030	0.753470	0.510970
N2101	N210	0.291750	0.831470	0.087780
C5171	C517	0.290530	0.859770	0.098370
H2851	H285	0.298930	0.878170	0.075770
C5181	C518	0.277460	0.864300	0.140330
H2861	H286	0.276930	0.885370	0.145670
C5191	C519	0.265600	0.839580	0.173510
C5201	C520	0.265330	0.808870	0.162970
H2871	H287	0.256130	0.789970	0.184770
C5211	C521	0.279130	0.806170	0.119170
H2881	H288	0.279230	0.785170	0.112070
C5221	C522	0.215170	0.901110	0.317220
N2111	N211	0.206200	0.877730	0.353100
C5231	C523	0.212310	0.851090	0.345180
N2121	N212	0.204560	0.826710	0.379310
C5241	C524	0.212180	0.801870	0.368140
N2131	N213	0.225700	0.796710	0.328330
C5251	C525	0.232670	0.820840	0.294190
N2141	N214	0.245920	0.818250	0.251710
C5261	C526	0.251820	0.843080	0.220320
N2151	N215	0.247060	0.871250	0.224080
C5271	C527	0.233860	0.874060	0.266880
N2161	N216	0.228490	0.900950	0.274550
C5281	C528	0.226250	0.848550	0.301580
Zn251	Zn25	0.507160	0.152730	0.693100
I251	I25	0.545950	0.217930	0.692140
N2171	N217	0.456270	0.138820	0.678900
C5291	C529	0.441180	0.154210	0.703970
H2891	H289	0.454700	0.170500	0.728000
C5301	C530	0.408080	0.147620	0.696550
H2901	H290	0.398300	0.158500	0.715400
C5311	C531	0.388710	0.124430	0.660440
C5321	C532	0.403120	0.108000	0.635560
H2911	H291	0.390200	0.091800	0.611200
C5331	C533	0.437120	0.115540	0.646580
H2921	H292	0.446700	0.103400	0.630200
N2181	N218	0.204620	0.146960	0.809320
C5341	C534	0.189200	0.134320	0.767070
H2931	H293	0.166400	0.131000	0.761800
C5351	C535	0.204700	0.125920	0.731460
H2941	H294	0.193100	0.117400	0.702000
C5361	C536	0.237760	0.130090	0.738960
C5371	C537	0.254680	0.144900	0.781680
H2951	H295	0.277900	0.149500	0.787200
C5381	C538	0.237480	0.152550	0.815250
H2961	H296	0.249100	0.162300	0.844300
N2191	N219	0.206380	0.041580	0.421110
C5391	C539	0.235900	0.042800	0.431700
H2971	H297	0.245900	0.034400	0.409100
C5401	C540	0.253500	0.055870	0.473660
H2981	H298	0.275100	0.056400	0.479000
C5411	C541	0.240640	0.067730	0.506840
C5421	C542	0.210200	0.068000	0.496300
H2991	H299	0.200500	0.077200	0.518100
C5431	C543	0.193700	0.054200	0.452500
H3001	H300	0.172600	0.054100	0.445400
C5441	C544	0.352600	0.118160	0.650550
N2201	N220	0.338190	0.127130	0.686430
C5451	C545	0.305440	0.121020	0.678510
N2211	N221	0.288810	0.128770	0.712640
C5461	C546	0.256350	0.121150	0.701470
N2221	N222	0.237670	0.107630	0.661660
C5471	C547	0.254830	0.100660	0.627520
N2231	N223	0.238990	0.087410	0.585040
C5481	C548	0.257920	0.081510	0.553650
N2241	N224	0.290850	0.086270	0.557410
C5491	C549	0.306860	0.099470	0.600210
N2251	N225	0.339120	0.104840	0.607880
C5501	C550	0.288960	0.107080	0.634910
Zn261	Zn26	0.173830	0.486060	0.026430
I261	I26	0.212620	0.551260	0.025470
N2261	N226	0.122940	0.472150	0.012230
C5511	C551	0.107850	0.487540	0.037300
H3011	H301	0.121370	0.503830	0.061330
C5521	C552	0.074750	0.480950	0.029880
H3021	H302	0.064970	0.491830	0.048730
C5531	C553	0.055380	0.457760	0.993770
C5541	C554	0.069790	0.441330	0.968890
H3031	H303	0.056870	0.425130	0.944530
C5551	C555	0.103790	0.448870	0.979910
H3041	H304	0.113370	0.436730	0.963530
N2271	N227	0.871290	0.480290	0.142650
C5561	C556	0.855870	0.467650	0.100400
H3051	H305	0.833070	0.464330	0.095130
C5571	C557	0.871370	0.459250	0.064790
H3061	H306	0.859770	0.450730	0.035330
C5581	C558	0.904430	0.463420	0.072290
C5591	C559	0.921350	0.478230	0.115010
H3071	H307	0.944570	0.482830	0.120530
C5601	C560	0.904150	0.485880	0.148580
H3081	H308	0.915770	0.495630	0.177630
N2281	N228	0.873050	0.374910	0.754440
C5611	C561	0.902570	0.376130	0.765030
H3091	H309	0.912570	0.367730	0.742430
C5621	C562	0.920170	0.389200	0.806990
H3101	H310	0.941770	0.389730	0.812330
C5631	C563	0.907310	0.401060	0.840170
C5641	C564	0.876870	0.401330	0.829630
H3111	H311	0.867170	0.410530	0.851430
C5651	C565	0.860370	0.387530	0.785830
H3121	H312	0.839270	0.387430	0.778730
C5661	C566	0.019270	0.451490	0.983880
N2291	N229	0.004860	0.460460	0.019760
C5671	C567	0.972110	0.454350	0.011840
N2301	N230	0.955480	0.462100	0.045970
C5681	C568	0.923020	0.454480	0.034800
N2311	N231	0.904340	0.440960	0.994990
C5691	C569	0.921500	0.433990	0.960850
N2321	N232	0.905660	0.420740	0.918370
C5701	C570	0.924590	0.414840	0.886980
N2331	N233	0.957520	0.419600	0.890740
C5711	C571	0.973530	0.432800	0.933540
N2341	N234	0.005790	0.438170	0.941210
C5721	C572	0.955630	0.440410	0.968240
Zn271	Zn27	0.840500	0.819390	0.359770
I271	I27	0.879290	0.884590	0.358810
N2351	N235	0.789600	0.805490	0.345570
C5731	C573	0.774510	0.820880	0.370640
H3131	H313	0.788030	0.837170	0.394670
C5741	C574	0.741410	0.814290	0.363220
H3141	H314	0.731630	0.825170	0.382070
C5751	C575	0.722040	0.791100	0.327110
C5761	C576	0.736450	0.774670	0.302230
H3151	H315	0.723530	0.758470	0.277870
C5771	C577	0.770450	0.782210	0.313250
H3161	H316	0.780030	0.770070	0.296870
N2361	N236	0.537950	0.813630	0.475990
C5781	C578	0.522530	0.800990	0.433740
H3171	H317	0.499730	0.797670	0.428470
C5791	C579	0.538030	0.792590	0.398130
H3181	H318	0.526430	0.784070	0.368670
C5801	C580	0.571090	0.796760	0.405630
C5811	C581	0.588010	0.811570	0.448350
H3191	H319	0.611230	0.816170	0.453870
C5821	C582	0.570810	0.819220	0.481920
H3201	H320	0.582430	0.828970	0.510970
N2371	N237	0.539710	0.708250	0.087780
C5831	C583	0.569230	0.709470	0.098370
H3211	H321	0.579230	0.701070	0.075770
C5841	C584	0.586830	0.722540	0.140330
H3221	H322	0.608430	0.723070	0.145670
C5851	C585	0.573970	0.734400	0.173510
C5861	C586	0.543530	0.734670	0.162970
H3231	H323	0.533830	0.743870	0.184770
C5871	C587	0.527030	0.720870	0.119170
H3241	H324	0.505930	0.720770	0.112070
C5881	C588	0.685930	0.784830	0.317220
N2381	N238	0.671520	0.793800	0.353100
C5891	C589	0.638770	0.787690	0.345180
N2391	N239	0.622140	0.795440	0.379310
C5901	C590	0.589680	0.787820	0.368140
N2401	N240	0.571000	0.774300	0.328330
C5911	C591	0.588160	0.767330	0.294190
N2411	N241	0.572320	0.754080	0.251710
C5921	C592	0.591250	0.748180	0.220320
N2421	N242	0.624180	0.752940	0.224080
C5931	C593	0.640190	0.766140	0.266880
N2431	N243	0.672450	0.771510	0.274550
C5941	C594	0.622290	0.773750	0.301580
Zn281	Zn28	0.507160	0.354440	0.193100
I281	I28	0.545950	0.328030	0.192140
N2441	N244	0.456270	0.317450	0.178900
C5951	C595	0.441180	0.286970	0.203970
H3251	H325	0.454700	0.284200	0.228000
C5961	C596	0.408080	0.260460	0.196550
H3261	H326	0.398300	0.239800	0.215400
C5971	C597	0.388710	0.264280	0.160440
C5981	C598	0.403120	0.295120	0.135560
H3271	H327	0.390200	0.298400	0.111200
C5991	C599	0.437120	0.321580	0.146580
H3281	H328	0.446700	0.343300	0.130200
N2451	N245	0.204620	0.057660	0.309320
C6001	C600	0.189200	0.054880	0.267070
H3291	H329	0.166400	0.035400	0.261800
C6011	C601	0.204700	0.078780	0.231460
H3301	H330	0.193100	0.075700	0.202000
C6021	C602	0.237760	0.107670	0.238960
C6031	C603	0.254680	0.109780	0.281680
H3311	H331	0.277900	0.128400	0.287200
C6041	C604	0.237480	0.084930	0.315250
H3321	H332	0.249100	0.086800	0.344300
N2461	N246	0.206380	0.164800	0.921110
C6051	C605	0.235900	0.193100	0.931700
H3331	H333	0.245900	0.211500	0.909100
C6061	C606	0.253500	0.197630	0.973660
H3341	H334	0.275100	0.218700	0.979000
C6071	C607	0.240640	0.172910	0.006840
C6081	C608	0.210200	0.142200	0.996300
H3351	H335	0.200500	0.123300	0.018100
C6091	C609	0.193700	0.139500	0.952500
H3361	H336	0.172600	0.118500	0.945400
C6101	C610	0.352600	0.234440	0.150550
N2471	N247	0.338190	0.211060	0.186430
C6111	C611	0.305440	0.184420	0.178510
N2481	N248	0.288810	0.160040	0.212640
C6121	C612	0.256350	0.135200	0.201470
N2491	N249	0.237670	0.130040	0.161660
C6131	C613	0.254830	0.154170	0.127520
N2501	N250	0.238990	0.151580	0.085040
C6141	C614	0.257920	0.176410	0.053650
N2511	N251	0.290850	0.204580	0.057410
C6151	C615	0.306860	0.207390	0.100210
N2521	N252	0.339120	0.234280	0.107880
C6161	C616	0.288960	0.181880	0.134910
Zn291	Zn29	0.173830	0.687770	0.526430
I291	I29	0.212620	0.661360	0.525470
N2531	N253	0.122940	0.650780	0.512230
C6171	C617	0.107850	0.620300	0.537300
H3371	H337	0.121370	0.617530	0.561330
C6181	C618	0.074750	0.593790	0.529880
H3381	H338	0.064970	0.573130	0.548730
C6191	C619	0.055380	0.597610	0.493770
C6201	C620	0.069790	0.628450	0.468890
H3391	H339	0.056870	0.631730	0.444530
C6211	C621	0.103790	0.654910	0.479910
H3401	H340	0.113370	0.676630	0.463530
N2541	N254	0.871290	0.390990	0.642650
C6221	C622	0.855870	0.388210	0.600400
H3411	H341	0.833070	0.368730	0.595130
C6231	C623	0.871370	0.412110	0.564790
H3421	H342	0.859770	0.409030	0.535330
C6241	C624	0.904430	0.441000	0.572290
C6251	C625	0.921350	0.443110	0.615010
H3431	H343	0.944570	0.461730	0.620530
C6261	C626	0.904150	0.418260	0.648580
H3441	H344	0.915770	0.420130	0.677630
N2551	N255	0.873050	0.498130	0.254440
C6271	C627	0.902570	0.526430	0.265030
H3451	H345	0.912570	0.544830	0.242430
C6281	C628	0.920170	0.530960	0.306990
H3461	H346	0.941770	0.552030	0.312330
C6291	C629	0.907310	0.506240	0.340170
C6301	C630	0.876870	0.475530	0.329630
H3471	H347	0.867170	0.456630	0.351430
C6311	C631	0.860370	0.472830	0.285830
H3481	H348	0.839270	0.451830	0.278730
C6321	C632	0.019270	0.567770	0.483880
N2561	N256	0.004860	0.544390	0.519760
C6331	C633	0.972110	0.517750	0.511840
N2571	N257	0.955480	0.493370	0.545970
C6341	C634	0.923020	0.468530	0.534800
N2581	N258	0.904340	0.463370	0.494990
C6351	C635	0.921500	0.487500	0.460850
N2591	N259	0.905660	0.484910	0.418370
C6361	C636	0.924590	0.509740	0.386980
N2601	N260	0.957520	0.537910	0.390740
C6371	C637	0.973530	0.540720	0.433540
N2611	N261	0.005790	0.567610	0.441210
C6381	C638	0.955630	0.515210	0.468240
Zn301	Zn30	0.840500	0.021100	0.859770
I301	I30	0.879290	0.994690	0.858810
N2621	N262	0.789600	0.984120	0.845570
C6391	C639	0.774510	0.953640	0.870640
H3491	H349	0.788030	0.950870	0.894670
C6401	C640	0.741410	0.927130	0.863220
H3501	H350	0.731630	0.906470	0.882070
C6411	C641	0.722040	0.930950	0.827110
C6421	C642	0.736450	0.961790	0.802230
H3511	H351	0.723530	0.965070	0.777870
C6431	C643	0.770450	0.988250	0.813250
H3521	H352	0.780030	0.009970	0.796870
N2631	N263	0.537950	0.724330	0.975990
C6441	C644	0.522530	0.721550	0.933740
H3531	H353	0.499730	0.702070	0.928470
C6451	C645	0.538030	0.745450	0.898130
H3541	H354	0.526430	0.742370	0.868670
C6461	C646	0.571090	0.774340	0.905630
C6471	C647	0.588010	0.776450	0.948350
H3551	H355	0.611230	0.795070	0.953870
C6481	C648	0.570810	0.751600	0.981920
H3561	H356	0.582430	0.753470	0.010970
N2641	N264	0.539710	0.831470	0.587780
C6491	C649	0.569230	0.859770	0.598370
H3571	H357	0.579230	0.878170	0.575770
C6501	C650	0.586830	0.864300	0.640330
H3581	H358	0.608430	0.885370	0.645670
C6511	C651	0.573970	0.839580	0.673510
C6521	C652	0.543530	0.808870	0.662970
H3591	H359	0.533830	0.789970	0.684770
C6531	C653	0.527030	0.806170	0.619170
H3601	H360	0.505930	0.785170	0.612070
C6541	C654	0.685930	0.901110	0.817220
N2651	N265	0.671520	0.877730	0.853100
C6551	C655	0.638770	0.851090	0.845180
N2661	N266	0.622140	0.826710	0.879310
C6561	C656	0.589680	0.801870	0.868140
N2671	N267	0.571000	0.796710	0.828330
C6571	C657	0.588160	0.820840	0.794190
N2681	N268	0.572320	0.818250	0.751710
C6581	C658	0.591250	0.843080	0.720320
N2691	N269	0.624180	0.871250	0.724080
C6591	C659	0.640190	0.874060	0.766880
N2701	N270	0.672450	0.900950	0.774550
C6601	C660	0.622290	0.848550	0.801580
Zn311	Zn31	0.645560	0.152730	0.193100
I311	I31	0.671970	0.217930	0.192140
N2711	N271	0.682550	0.138820	0.178900
C6611	C661	0.713030	0.154210	0.203970
H3611	H361	0.715800	0.170500	0.228000
C6621	C662	0.739540	0.147620	0.196550
H3621	H362	0.760200	0.158500	0.215400
C6631	C663	0.735720	0.124430	0.160440
C6641	C664	0.704880	0.108000	0.135560
H3631	H363	0.701600	0.091800	0.111200
C6651	C665	0.678420	0.115540	0.146580
H3641	H364	0.656700	0.103400	0.130200
N2721	N272	0.942340	0.146960	0.309320
C6661	C666	0.945120	0.134320	0.267070
H3651	H365	0.964600	0.131000	0.261800
C6671	C667	0.921220	0.125920	0.231460
H3661	H366	0.924300	0.117400	0.202000
C6681	C668	0.892330	0.130090	0.238960
C6691	C669	0.890220	0.144900	0.281680
H3671	H367	0.871600	0.149500	0.287200
C6701	C670	0.915070	0.152550	0.315250
H3681	H368	0.913200	0.162300	0.344300
N2731	N273	0.835200	0.041580	0.921110
C6711	C671	0.806900	0.042800	0.931700
H3691	H369	0.788500	0.034400	0.909100
C6721	C672	0.802370	0.055870	0.973660
H3701	H370	0.781300	0.056400	0.979000
C6731	C673	0.827090	0.067730	0.006840
C6741	C674	0.857800	0.068000	0.996300
H3711	H371	0.876700	0.077200	0.018100
C6751	C675	0.860500	0.054200	0.952500
H3721	H372	0.881500	0.054100	0.945400
C6761	C676	0.765560	0.118160	0.150550
N2741	N274	0.788940	0.127130	0.186430
C6771	C677	0.815580	0.121020	0.178510
N2751	N275	0.839960	0.128770	0.212640
C6781	C678	0.864800	0.121150	0.201470
N2761	N276	0.869960	0.107630	0.161660
C6791	C679	0.845830	0.100660	0.127520
N2771	N277	0.848420	0.087410	0.085040
C6801	C680	0.823590	0.081510	0.053650
N2781	N278	0.795420	0.086270	0.057410
C6811	C681	0.792610	0.099470	0.100210
N2791	N279	0.765720	0.104840	0.107880
C6821	C682	0.818120	0.107080	0.134910
Zn321	Zn32	0.312230	0.486060	0.526430
I321	I32	0.338640	0.551260	0.525470
N2801	N280	0.349220	0.472150	0.512230
C6831	C683	0.379700	0.487540	0.537300
H3731	H373	0.382470	0.503830	0.561330
C6841	C684	0.406210	0.480950	0.529880
H3741	H374	0.426870	0.491830	0.548730
C6851	C685	0.402390	0.457760	0.493770
C6861	C686	0.371550	0.441330	0.468890
H3751	H375	0.368270	0.425130	0.444530
C6871	C687	0.345090	0.448870	0.479910
H3761	H376	0.323370	0.436730	0.463530
N2811	N281	0.609010	0.480290	0.642650
C6881	C688	0.611790	0.467650	0.600400
H3771	H377	0.631270	0.464330	0.595130
C6891	C689	0.587890	0.459250	0.564790
H3781	H378	0.590970	0.450730	0.535330
C6901	C690	0.559000	0.463420	0.572290
C6911	C691	0.556890	0.478230	0.615010
H3791	H379	0.538270	0.482830	0.620530
C6921	C692	0.581740	0.485880	0.648580
H3801	H380	0.579870	0.495630	0.677630
N2821	N282	0.501870	0.374910	0.254440
C6931	C693	0.473570	0.376130	0.265030
H3811	H381	0.455170	0.367730	0.242430
C6941	C694	0.469040	0.389200	0.306990
H3821	H382	0.447970	0.389730	0.312330
C6951	C695	0.493760	0.401060	0.340170
C6961	C696	0.524470	0.401330	0.329630
H3831	H383	0.543370	0.410530	0.351430
C6971	C697	0.527170	0.387530	0.285830
H3841	H384	0.548170	0.387430	0.278730
C6981	C698	0.432230	0.451490	0.483880
N2831	N283	0.455610	0.460460	0.519760
C6991	C699	0.482250	0.454350	0.511840
N2841	N284	0.506630	0.462100	0.545970
C7001	C700	0.531470	0.454480	0.534800
N2851	N285	0.536630	0.440960	0.494990
C7011	C701	0.512500	0.433990	0.460850
N2861	N286	0.515090	0.420740	0.418370
C7021	C702	0.490260	0.414840	0.386980
N2871	N287	0.462090	0.419600	0.390740
C7031	C703	0.459280	0.432800	0.433540
N2881	N288	0.432390	0.438170	0.441210
C7041	C704	0.484790	0.440410	0.468240
Zn331	Zn33	0.978900	0.819390	0.859770
I331	I33	0.005310	0.884590	0.858810
N2891	N289	0.015880	0.805490	0.845570
C7051	C705	0.046360	0.820880	0.870640
H3851	H385	0.049130	0.837170	0.894670
C7061	C706	0.072870	0.814290	0.863220
H3861	H386	0.093530	0.825170	0.882070
C7071	C707	0.069050	0.791100	0.827110
C7081	C708	0.038210	0.774670	0.802230
H3871	H387	0.034930	0.758470	0.777870
C7091	C709	0.011750	0.782210	0.813250
H3881	H388	0.990030	0.770070	0.796870
N2901	N290	0.275670	0.813630	0.975990
C7101	C710	0.278450	0.800990	0.933740
H3891	H389	0.297930	0.797670	0.928470
C7111	C711	0.254550	0.792590	0.898130
H3901	H390	0.257630	0.784070	0.868670
C7121	C712	0.225660	0.796760	0.905630
C7131	C713	0.223550	0.811570	0.948350
H3911	H391	0.204930	0.816170	0.953870
C7141	C714	0.248400	0.819220	0.981920
H3921	H392	0.246530	0.828970	0.010970
N2911	N291	0.168530	0.708250	0.587780
C7151	C715	0.140230	0.709470	0.598370
H3931	H393	0.121830	0.701070	0.575770
C7161	C716	0.135700	0.722540	0.640330
H3941	H394	0.114630	0.723070	0.645670
C7171	C717	0.160420	0.734400	0.673510
C7181	C718	0.191130	0.734670	0.662970
H3951	H395	0.210030	0.743870	0.684770
C7191	C719	0.193830	0.720870	0.619170
H3961	H396	0.214830	0.720770	0.612070
C7201	C720	0.098890	0.784830	0.817220
N2921	N292	0.122270	0.793800	0.853100
C7211	C721	0.148910	0.787690	0.845180
N2931	N293	0.173290	0.795440	0.879310
C7221	C722	0.198130	0.787820	0.868140
N2941	N294	0.203290	0.774300	0.828330
C7231	C723	0.179160	0.767330	0.794190
N2951	N295	0.181750	0.754080	0.751710
C7241	C724	0.156920	0.748180	0.720320
N2961	N296	0.128750	0.752940	0.724080
C7251	C725	0.125940	0.766140	0.766880
N2971	N297	0.099050	0.771510	0.774550
C7261	C726	0.151450	0.773750	0.801580
Zn341	Zn34	0.847270	0.492840	0.193100
I341	I34	0.782070	0.454050	0.192140
N2981	N298	0.861180	0.543730	0.178900
C7271	C727	0.845790	0.558820	0.203970
H3971	H397	0.829500	0.545300	0.228000
C7281	C728	0.852380	0.591920	0.196550
H3981	H398	0.841500	0.601700	0.215400
C7291	C729	0.875570	0.611290	0.160440
C7301	C730	0.892000	0.596880	0.135560
H3991	H399	0.908200	0.609800	0.111200
C7311	C731	0.884460	0.562880	0.146580
H4001	H400	0.896600	0.553300	0.130200
N2991	N299	0.853040	0.795380	0.309320
C7321	C732	0.865680	0.810800	0.267070
H4011	H401	0.869000	0.833600	0.261800
C7331	C733	0.874080	0.795300	0.231460
H4021	H402	0.882600	0.806900	0.202000
C7341	C734	0.869910	0.762240	0.238960
C7351	C735	0.855100	0.745320	0.281680
H4031	H403	0.850500	0.722100	0.287200
C7361	C736	0.847450	0.762520	0.315250
H4041	H404	0.837700	0.750900	0.344300
N3001	N300	0.958420	0.793620	0.921110
C7371	C737	0.957200	0.764100	0.931700
H4051	H405	0.965600	0.754100	0.909100
C7381	C738	0.944130	0.746500	0.973660
H4061	H406	0.943600	0.724900	0.979000
C7391	C739	0.932270	0.759360	0.006840
C7401	C740	0.932000	0.789800	0.996300
H4071	H407	0.922800	0.799500	0.018100
C7411	C741	0.945800	0.806300	0.952500
H4081	H408	0.945900	0.827400	0.945400
C7421	C742	0.881840	0.647400	0.150550
N3011	N301	0.872870	0.661810	0.186430
C7431	C743	0.878980	0.694560	0.178510
N3021	N302	0.871230	0.711190	0.212640
C7441	C744	0.878850	0.743650	0.201470
N3031	N303	0.892370	0.762330	0.161660
C7451	C745	0.899340	0.745170	0.127520
N3041	N304	0.912590	0.761010	0.085040
C7461	C746	0.918490	0.742080	0.053650
N3051	N305	0.913730	0.709150	0.057410
C7471	C747	0.900530	0.693140	0.100210
N3061	N306	0.895160	0.660880	0.107880
C7481	C748	0.892920	0.711040	0.134910
Zn351	Zn35	0.513940	0.826170	0.526430
I351	I35	0.448740	0.787380	0.525470
N3071	N307	0.527850	0.877060	0.512230
C7491	C749	0.512460	0.892150	0.537300
H4091	H409	0.496170	0.878630	0.561330
C7501	C750	0.519050	0.925250	0.529880
H4101	H410	0.508170	0.935030	0.548730
C7511	C751	0.542240	0.944620	0.493770
C7521	C752	0.558670	0.930210	0.468890
H4111	H411	0.574870	0.943130	0.444530
C7531	C753	0.551130	0.896210	0.479910
H4121	H412	0.563270	0.886630	0.463530
N3081	N308	0.519710	0.128710	0.642650
C7541	C754	0.532350	0.144130	0.600400
H4131	H413	0.535670	0.166930	0.595130
C7551	C755	0.540750	0.128630	0.564790
H4141	H414	0.549270	0.140230	0.535330
C7561	C756	0.536580	0.095570	0.572290
C7571	C757	0.521770	0.078650	0.615010
H4151	H415	0.517170	0.055430	0.620530
C7581	C758	0.514120	0.095850	0.648580
H4161	H416	0.504370	0.084230	0.677630
N3091	N309	0.625090	0.126950	0.254440
C7591	C759	0.623870	0.097430	0.265030
H4171	H417	0.632270	0.087430	0.242430
C7601	C760	0.610800	0.079830	0.306990
H4181	H418	0.610270	0.058230	0.312330
C7611	C761	0.598940	0.092690	0.340170
C7621	C762	0.598670	0.123130	0.329630
H4191	H419	0.589470	0.132830	0.351430
C7631	C763	0.612470	0.139630	0.285830
H4201	H420	0.612570	0.160730	0.278730
C7641	C764	0.548510	0.980730	0.483880
N3101	N310	0.539540	0.995140	0.519760
C7651	C765	0.545650	0.027890	0.511840
N3111	N311	0.537900	0.044520	0.545970
C7661	C766	0.545520	0.076980	0.534800
N3121	N312	0.559040	0.095660	0.494990
C7671	C767	0.566010	0.078500	0.460850
N3131	N313	0.579260	0.094340	0.418370
C7681	C768	0.585160	0.075410	0.386980
N3141	N314	0.580400	0.042480	0.390740
C7691	C769	0.567200	0.026470	0.433540
N3151	N315	0.561830	0.994210	0.441210
C7701	C770	0.559590	0.044370	0.468240
Zn361	Zn36	0.180610	0.159500	0.859770
I361	I36	0.115410	0.120710	0.858810
N3161	N316	0.194510	0.210400	0.845570
C7711	C771	0.179120	0.225490	0.870640
H4211	H421	0.162830	0.211970	0.894670
C7721	C772	0.185710	0.258590	0.863220
H4221	H422	0.174830	0.268370	0.882070
C7731	C773	0.208900	0.277960	0.827110
C7741	C774	0.225330	0.263550	0.802230
H4231	H423	0.241530	0.276470	0.777870
C7751	C775	0.217790	0.229550	0.813250
H4241	H424	0.229930	0.219970	0.796870
N3171	N317	0.186370	0.462050	0.975990
C7761	C776	0.199010	0.477470	0.933740
H4251	H425	0.202330	0.500270	0.928470
C7771	C777	0.207410	0.461970	0.898130
H4261	H426	0.215930	0.473570	0.868670
C7781	C778	0.203240	0.428910	0.905630
C7791	C779	0.188430	0.411990	0.948350
H4271	H427	0.183830	0.388770	0.953870
C7801	C780	0.180780	0.429190	0.981920
H4281	H428	0.171030	0.417570	0.010970
N3181	N318	0.291750	0.460290	0.587780
C7811	C781	0.290530	0.430770	0.598370
H4291	H429	0.298930	0.420770	0.575770
C7821	C782	0.277460	0.413170	0.640330
H4301	H430	0.276930	0.391570	0.645670
C7831	C783	0.265600	0.426030	0.673510
C7841	C784	0.265330	0.456470	0.662970
H4311	H431	0.256130	0.466170	0.684770
C7851	C785	0.279130	0.472970	0.619170
H4321	H432	0.279230	0.494070	0.612070
C7861	C786	0.215170	0.314070	0.817220
N3191	N319	0.206200	0.328480	0.853100
C7871	C787	0.212310	0.361230	0.845180
N3201	N320	0.204560	0.377860	0.879310
C7881	C788	0.212180	0.410320	0.868140
N3211	N321	0.225700	0.429000	0.828330
C7891	C789	0.232670	0.411840	0.794190
N3221	N322	0.245920	0.427680	0.751710
C7901	C790	0.251820	0.408750	0.720320
N3231	N323	0.247060	0.375820	0.724080
C7911	C791	0.233860	0.359810	0.766880
N3241	N324	0.228490	0.327550	0.774550
C7921	C792	0.226250	0.377710	0.801580
