data_VIZSOO_clean_PM
_symmetry_space_group_name_H-M	'P1'
_cell_length_a	21.500000
_cell_length_b	21.500000
_cell_length_c	22.454000
_cell_angle_alpha	90.000000
_cell_angle_beta	90.000000
_cell_angle_gamma	90.000000
_symmetry_Int_Tables_number 1

loop_
_symmetry_equiv_pos_as_xyz
'x,y,z'

loop_
_atom_site_label
_atom_site_type_symbol
_atom_site_fract_x
_atom_site_fract_y
_atom_site_fract_z
Zn11	Zn1	0.004940	0.014590	0.493760
I11	I1	0.952410	0.087710	0.564740
N11	N1	0.956300	0.936200	0.462800
C11	C1	0.943300	0.934700	0.405800
H11	H1	0.951400	0.969600	0.381100
C21	C2	0.917900	0.881800	0.383000
H21	H2	0.906000	0.881100	0.342300
C31	C3	0.908700	0.829000	0.417200
C41	C4	0.920600	0.834900	0.476700
H31	H3	0.912000	0.801700	0.503400
C51	C5	0.946100	0.891200	0.497700
H41	H4	0.955700	0.895500	0.538800
N21	N2	0.957700	0.553000	0.081400
C61	C6	0.921500	0.518900	0.119600
H51	H5	0.912700	0.476800	0.110000
C71	C7	0.898400	0.542500	0.169500
H61	H6	0.874100	0.516600	0.194700
C81	C8	0.907900	0.600800	0.185500
C91	C9	0.944100	0.639400	0.146000
H71	H7	0.953200	0.681500	0.155300
C101	C10	0.964100	0.612800	0.095900
H81	H8	0.984800	0.638800	0.068000
N31	N3	0.579400	0.530200	0.467800
C111	C11	0.605500	0.582700	0.493900
H91	H9	0.587100	0.600300	0.528400
C121	C12	0.658600	0.609300	0.469500
H101	H10	0.676500	0.645200	0.487300
C131	C13	0.685600	0.583500	0.418900
C141	C14	0.659400	0.531000	0.392800
H111	H11	0.677800	0.513400	0.358300
C151	C15	0.606300	0.504400	0.417200
H121	H12	0.588400	0.468600	0.399400
C161	C16	0.885200	0.770900	0.390000
N41	N4	0.909600	0.753100	0.337100
C171	C17	0.888300	0.701200	0.313400
N51	N5	0.908600	0.681500	0.263600
C181	C18	0.882800	0.626300	0.241700
N61	N6	0.836300	0.595200	0.265400
C191	C19	0.813900	0.617600	0.316200
N71	N7	0.761900	0.588800	0.342300
C201	C20	0.743600	0.615900	0.393500
N81	N8	0.764400	0.664100	0.423300
C211	C21	0.814200	0.691400	0.395700
N91	N9	0.838000	0.743900	0.423000
C221	C22	0.837100	0.669300	0.342800
Zn21	Zn2	0.495060	0.985410	0.993760
I21	I2	0.547590	0.912290	0.064740
N101	N10	0.543700	0.063800	0.962800
C231	C23	0.556700	0.065300	0.905800
H131	H13	0.548600	0.030400	0.881100
C241	C24	0.582100	0.118200	0.883000
H141	H14	0.594000	0.118900	0.842300
C251	C25	0.591300	0.171000	0.917200
C261	C26	0.579400	0.165100	0.976700
H151	H15	0.588000	0.198300	0.003400
C271	C27	0.553900	0.108800	0.997700
H161	H16	0.544300	0.104500	0.038800
N111	N11	0.542300	0.447000	0.581400
C281	C28	0.578500	0.481100	0.619600
H171	H17	0.587300	0.523200	0.610000
C291	C29	0.601600	0.457500	0.669500
H181	H18	0.625900	0.483400	0.694700
C301	C30	0.592100	0.399200	0.685500
C311	C31	0.555900	0.360600	0.646000
H191	H19	0.546800	0.318500	0.655300
C321	C32	0.535900	0.387200	0.595900
H201	H20	0.515200	0.361200	0.568000
N121	N12	0.920600	0.469800	0.967800
C331	C33	0.894500	0.417300	0.993900
H211	H21	0.912900	0.399700	0.028400
C341	C34	0.841400	0.390700	0.969500
H221	H22	0.823500	0.354800	0.987300
C351	C35	0.814400	0.416500	0.918900
C361	C36	0.840600	0.469000	0.892800
H231	H23	0.822200	0.486600	0.858300
C371	C37	0.893700	0.495600	0.917200
H241	H24	0.911600	0.531400	0.899400
C381	C38	0.614800	0.229100	0.890000
N131	N13	0.590400	0.246900	0.837100
C391	C39	0.611700	0.298800	0.813400
N141	N14	0.591400	0.318500	0.763600
C401	C40	0.617200	0.373700	0.741700
N151	N15	0.663700	0.404800	0.765400
C411	C41	0.686100	0.382400	0.816200
N161	N16	0.738100	0.411200	0.842300
C421	C42	0.756400	0.384100	0.893500
N171	N17	0.735600	0.335900	0.923300
C431	C43	0.685800	0.308600	0.895700
N181	N18	0.662000	0.256100	0.923000
C441	C44	0.662900	0.330700	0.842800
Zn31	Zn3	0.995060	0.514590	0.006240
I31	I3	0.047590	0.587710	0.935260
N191	N19	0.043700	0.436200	0.037200
C451	C45	0.056700	0.434700	0.094200
H251	H25	0.048600	0.469600	0.118900
C461	C46	0.082100	0.381800	0.117000
H261	H26	0.094000	0.381100	0.157700
C471	C47	0.091300	0.329000	0.082800
C481	C48	0.079400	0.334900	0.023300
H271	H27	0.088000	0.301700	0.996600
C491	C49	0.053900	0.391200	0.002300
H281	H28	0.044300	0.395500	0.961200
N201	N20	0.042300	0.053000	0.418600
C501	C50	0.078500	0.018900	0.380400
H291	H29	0.087300	0.976800	0.390000
C511	C51	0.101600	0.042500	0.330500
H301	H30	0.125900	0.016600	0.305300
C521	C52	0.092100	0.100800	0.314500
C531	C53	0.055900	0.139400	0.354000
H311	H31	0.046800	0.181500	0.344700
C541	C54	0.035900	0.112800	0.404100
H321	H32	0.015200	0.138800	0.432000
N211	N21	0.420600	0.030200	0.032200
C551	C55	0.394500	0.082700	0.006100
H331	H33	0.412900	0.100300	0.971600
C561	C56	0.341400	0.109300	0.030500
H341	H34	0.323500	0.145200	0.012700
C571	C57	0.314400	0.083500	0.081100
C581	C58	0.340600	0.031000	0.107200
H351	H35	0.322200	0.013400	0.141700
C591	C59	0.393700	0.004400	0.082800
H361	H36	0.411600	0.968600	0.100600
C601	C60	0.114800	0.270900	0.110000
N221	N22	0.090400	0.253100	0.162900
C611	C61	0.111700	0.201200	0.186600
N231	N23	0.091400	0.181500	0.236400
C621	C62	0.117200	0.126300	0.258300
N241	N24	0.163700	0.095200	0.234600
C631	C63	0.186100	0.117600	0.183800
N251	N25	0.238100	0.088800	0.157700
C641	C64	0.256400	0.115900	0.106500
N261	N26	0.235600	0.164100	0.076700
C651	C65	0.185800	0.191400	0.104300
N271	N27	0.162000	0.243900	0.077000
C661	C66	0.162900	0.169300	0.157200
Zn41	Zn4	0.504940	0.485410	0.506240
I41	I4	0.452410	0.412290	0.435260
N281	N28	0.456300	0.563800	0.537200
C671	C67	0.443300	0.565300	0.594200
H371	H37	0.451400	0.530400	0.618900
C681	C68	0.417900	0.618200	0.617000
H381	H38	0.406000	0.618900	0.657700
C691	C69	0.408700	0.671000	0.582800
C701	C70	0.420600	0.665100	0.523300
H391	H39	0.412000	0.698300	0.496600
C711	C71	0.446100	0.608800	0.502300
H401	H40	0.455700	0.604500	0.461200
N291	N29	0.457700	0.947000	0.918600
C721	C72	0.421500	0.981100	0.880400
H411	H41	0.412700	0.023200	0.890000
C731	C73	0.398400	0.957500	0.830500
H421	H42	0.374100	0.983400	0.805300
C741	C74	0.407900	0.899200	0.814500
C751	C75	0.444100	0.860600	0.854000
H431	H43	0.453200	0.818500	0.844700
C761	C76	0.464100	0.887200	0.904100
H441	H44	0.484800	0.861200	0.932000
N301	N30	0.079400	0.969800	0.532200
C771	C77	0.105500	0.917300	0.506100
H451	H45	0.087100	0.899700	0.471600
C781	C78	0.158600	0.890700	0.530500
H461	H46	0.176500	0.854800	0.512700
C791	C79	0.185600	0.916500	0.581100
C801	C80	0.159400	0.969000	0.607200
H471	H47	0.177800	0.986600	0.641700
C811	C81	0.106300	0.995600	0.582800
H481	H48	0.088400	0.031400	0.600600
C821	C82	0.385200	0.729100	0.610000
N311	N31	0.409600	0.746900	0.662900
C831	C83	0.388300	0.798800	0.686600
N321	N32	0.408600	0.818500	0.736400
C841	C84	0.382800	0.873700	0.758300
N331	N33	0.336300	0.904800	0.734600
C851	C85	0.313900	0.882400	0.683800
N341	N34	0.261900	0.911200	0.657700
C861	C86	0.243600	0.884100	0.606500
N351	N35	0.264400	0.835900	0.576700
C871	C87	0.314200	0.808600	0.604300
N361	N36	0.338000	0.756100	0.577000
C881	C88	0.337100	0.830700	0.657200
Zn51	Zn5	0.506720	0.993090	0.501310
I51	I5	0.431070	0.942380	0.571670
N371	N37	0.538100	0.946500	0.429200
C891	C89	0.496200	0.930200	0.384700
H491	H49	0.452800	0.934900	0.391200
C901	C90	0.517800	0.907000	0.330800
H501	H50	0.489200	0.895900	0.300400
C911	C91	0.581300	0.900100	0.321300
C921	C92	0.623200	0.916400	0.365800
H511	H51	0.666600	0.911700	0.359300
C931	C93	0.601600	0.939600	0.419700
H521	H52	0.630200	0.950700	0.450200
N381	N38	0.533400	0.568500	0.038800
C941	C94	0.583700	0.594900	0.017100
H531	H53	0.602600	0.576300	0.983200
C951	C95	0.611000	0.647900	0.039900
H541	H54	0.646300	0.665600	0.021100
C961	C96	0.586300	0.674700	0.090300
C971	C97	0.535600	0.644300	0.118600
H551	H55	0.519000	0.658900	0.155300
C981	C98	0.510800	0.590800	0.089300
H561	H56	0.476300	0.570200	0.107000
N391	N39	0.912500	0.971300	0.037500
C991	C99	0.894500	0.986700	0.092200
H571	H57	0.920100	0.013000	0.115900
C1001	C100	0.838700	0.964800	0.115000
H581	H58	0.823700	0.980900	0.151700
C1011	C101	0.805700	0.921600	0.086200
C1021	C102	0.824100	0.906200	0.028200
H591	H59	0.801100	0.877300	0.004900
C1031	C103	0.877900	0.935200	0.005700
H601	H60	0.889200	0.927900	0.965400
C1041	C104	0.603800	0.876700	0.259600
N401	N40	0.576600	0.826700	0.238600
C1051	C105	0.603500	0.805200	0.189400
N411	N41	0.581400	0.751000	0.165200
C1061	C106	0.610600	0.732600	0.117200
N421	N42	0.658900	0.755800	0.088300
C1071	C107	0.681500	0.807400	0.113300
N431	N43	0.733100	0.837900	0.088000
C1081	C108	0.748700	0.889600	0.115000
N441	N44	0.727600	0.918100	0.163200
C1091	C109	0.679800	0.887900	0.188700
N451	N45	0.654600	0.911800	0.239500
C1101	C110	0.654700	0.834000	0.163000
Zn61	Zn6	0.993280	0.006910	0.001310
I61	I6	0.068930	0.057620	0.071670
N461	N46	0.961900	0.053500	0.929200
C1111	C111	0.003800	0.069800	0.884700
H611	H61	0.047200	0.065100	0.891200
C1121	C112	0.982200	0.093000	0.830800
H621	H62	0.010800	0.104100	0.800400
C1131	C113	0.918700	0.099900	0.821300
C1141	C114	0.876800	0.083600	0.865800
H631	H63	0.833400	0.088300	0.859300
C1151	C115	0.898400	0.060400	0.919700
H641	H64	0.869800	0.049300	0.950200
N471	N47	0.966600	0.431500	0.538800
C1161	C116	0.916300	0.405100	0.517100
H651	H65	0.897400	0.423700	0.483200
C1171	C117	0.889000	0.352100	0.539900
H661	H66	0.853700	0.334400	0.521100
C1181	C118	0.913700	0.325300	0.590300
C1191	C119	0.964400	0.355700	0.618600
H671	H67	0.981000	0.341100	0.655300
C1201	C120	0.989200	0.409200	0.589300
H681	H68	0.023700	0.429800	0.607000
N481	N48	0.587500	0.028700	0.537500
C1211	C121	0.605500	0.013300	0.592200
H691	H69	0.579900	0.987000	0.615900
C1221	C122	0.661300	0.035200	0.615000
H701	H70	0.676300	0.019100	0.651700
C1231	C123	0.694300	0.078400	0.586200
C1241	C124	0.675900	0.093800	0.528200
H711	H71	0.698900	0.122700	0.504900
C1251	C125	0.622100	0.064800	0.505700
H721	H72	0.610800	0.072100	0.465400
C1261	C126	0.896200	0.123300	0.759600
N491	N49	0.923400	0.173300	0.738600
C1271	C127	0.896500	0.194800	0.689400
N501	N50	0.918600	0.249000	0.665200
C1281	C128	0.889400	0.267400	0.617200
N511	N51	0.841100	0.244200	0.588300
C1291	C129	0.818500	0.192600	0.613300
N521	N52	0.766900	0.162100	0.588000
C1301	C130	0.751300	0.110400	0.615000
N531	N53	0.772400	0.081900	0.663200
C1311	C131	0.820200	0.112100	0.688700
N541	N54	0.845400	0.088200	0.739500
C1321	C132	0.845300	0.166000	0.663000
Zn71	Zn7	0.493280	0.493090	0.998690
I71	I7	0.568930	0.442380	0.928330
N551	N55	0.461900	0.446500	0.070800
C1331	C133	0.503800	0.430200	0.115300
H731	H73	0.547200	0.434900	0.108800
C1341	C134	0.482200	0.407000	0.169200
H741	H74	0.510800	0.395900	0.199600
C1351	C135	0.418700	0.400100	0.178700
C1361	C136	0.376800	0.416400	0.134200
H751	H75	0.333400	0.411700	0.140700
C1371	C137	0.398400	0.439600	0.080300
H761	H76	0.369800	0.450700	0.049800
N561	N56	0.466600	0.068500	0.461200
C1381	C138	0.416300	0.094900	0.482900
H771	H77	0.397400	0.076300	0.516800
C1391	C139	0.389000	0.147900	0.460100
H781	H78	0.353700	0.165600	0.478900
C1401	C140	0.413700	0.174700	0.409700
C1411	C141	0.464400	0.144300	0.381400
H791	H79	0.481000	0.158900	0.344700
C1421	C142	0.489200	0.090800	0.410700
H801	H80	0.523700	0.070200	0.393000
N571	N57	0.087500	0.471300	0.462500
C1431	C143	0.105500	0.486700	0.407800
H811	H81	0.079900	0.513000	0.384100
C1441	C144	0.161300	0.464800	0.385000
H821	H82	0.176300	0.480900	0.348300
C1451	C145	0.194300	0.421600	0.413800
C1461	C146	0.175900	0.406200	0.471800
H831	H83	0.198900	0.377300	0.495100
C1471	C147	0.122100	0.435200	0.494300
H841	H84	0.110800	0.427900	0.534600
C1481	C148	0.396200	0.376700	0.240400
N581	N58	0.423400	0.326700	0.261400
C1491	C149	0.396500	0.305200	0.310600
N591	N59	0.418600	0.251000	0.334800
C1501	C150	0.389400	0.232600	0.382800
N601	N60	0.341100	0.255800	0.411700
C1511	C151	0.318500	0.307400	0.386700
N611	N61	0.266900	0.337900	0.412000
C1521	C152	0.251300	0.389600	0.385000
N621	N62	0.272400	0.418100	0.336800
C1531	C153	0.320200	0.387900	0.311300
N631	N63	0.345400	0.411800	0.260500
C1541	C154	0.345300	0.334000	0.337000
Zn81	Zn8	0.006720	0.506910	0.498690
I81	I8	0.931070	0.557620	0.428330
N641	N64	0.038100	0.553500	0.570800
C1551	C155	0.996200	0.569800	0.615300
H851	H85	0.952800	0.565100	0.608800
C1561	C156	0.017800	0.593000	0.669200
H861	H86	0.989200	0.604100	0.699600
C1571	C157	0.081300	0.599900	0.678700
C1581	C158	0.123200	0.583600	0.634200
H871	H87	0.166600	0.588300	0.640700
C1591	C159	0.101600	0.560400	0.580300
H881	H88	0.130200	0.549300	0.549800
N651	N65	0.033400	0.931500	0.961200
C1601	C160	0.083700	0.905100	0.982900
H891	H89	0.102600	0.923700	0.016800
C1611	C161	0.111000	0.852100	0.960100
H901	H90	0.146300	0.834400	0.978900
C1621	C162	0.086300	0.825300	0.909700
C1631	C163	0.035600	0.855700	0.881400
H911	H91	0.019000	0.841100	0.844700
C1641	C164	0.010800	0.909200	0.910700
H921	H92	0.976300	0.929800	0.893000
N661	N66	0.412500	0.528700	0.962500
C1651	C165	0.394500	0.513300	0.907800
H931	H93	0.420100	0.487000	0.884100
C1661	C166	0.338700	0.535200	0.885000
H941	H94	0.323700	0.519100	0.848300
C1671	C167	0.305700	0.578400	0.913800
C1681	C168	0.324100	0.593800	0.971800
H951	H95	0.301100	0.622700	0.995100
C1691	C169	0.377900	0.564800	0.994300
H961	H96	0.389200	0.572100	0.034600
C1701	C170	0.103800	0.623300	0.740400
N671	N67	0.076600	0.673300	0.761400
C1711	C171	0.103500	0.694800	0.810600
N681	N68	0.081400	0.749000	0.834800
C1721	C172	0.110600	0.767400	0.882800
N691	N69	0.158900	0.744200	0.911700
C1731	C173	0.181500	0.692600	0.886700
N701	N70	0.233100	0.662100	0.912000
C1741	C174	0.248700	0.610400	0.885000
N711	N71	0.227600	0.581900	0.836800
C1751	C175	0.179800	0.612100	0.811300
N721	N72	0.154600	0.588200	0.760500
C1761	C176	0.154700	0.666000	0.837000
