data_VOBGAW_clean_PM
_symmetry_space_group_name_H-M	'P1'
_cell_length_a	18.115200
_cell_length_b	18.115200
_cell_length_c	24.851500
_cell_angle_alpha	90.000000
_cell_angle_beta	90.000000
_cell_angle_gamma	120.000000
_symmetry_Int_Tables_number 1

loop_
_symmetry_equiv_pos_as_xyz
'x,y,z'

loop_
_atom_site_label
_atom_site_type_symbol
_atom_site_fract_x
_atom_site_fract_y
_atom_site_fract_z
C11	C1	0.156400	0.205600	0.110900
C21	C2	0.174800	0.494600	0.884900
C31	C3	0.167100	0.589100	0.932200
H11	H1	0.181200	0.641300	0.948000
N11	N1	0.097600	0.519000	0.942700
N21	N2	0.217900	0.579500	0.895800
N31	N3	0.100500	0.456200	0.913100
N41	N4	0.204100	0.456000	0.853000
H21	H2	0.253300	0.485200	0.837800
H31	H3	0.173800	0.401700	0.847400
O11	O1	0.079200	0.162700	0.124200
O21	O2	0.085600	0.280900	0.205500
O31	O3	0.195600	0.282000	0.098800
C41	C4	0.794400	0.950800	0.110900
C51	C5	0.505400	0.680200	0.884900
C61	C6	0.410900	0.578000	0.932200
H41	H4	0.358700	0.539900	0.948000
N51	N5	0.481000	0.578600	0.942700
N61	N6	0.420500	0.638400	0.895800
N71	N7	0.543800	0.644300	0.913100
N81	N8	0.544000	0.748100	0.853000
H51	H5	0.514800	0.768100	0.837800
H61	H6	0.598300	0.772100	0.847400
O41	O4	0.837300	0.916500	0.124200
O51	O5	0.719100	0.804700	0.205500
O61	O6	0.718000	0.913600	0.098800
C71	C7	0.049200	0.843600	0.110900
C81	C8	0.319800	0.825200	0.884900
C91	C9	0.422000	0.832900	0.932200
H71	H7	0.460100	0.818800	0.948000
N91	N9	0.421400	0.902400	0.942700
N101	N10	0.361600	0.782100	0.895800
N111	N11	0.355700	0.899500	0.913100
N121	N12	0.251900	0.795900	0.853000
H81	H8	0.231900	0.746700	0.837800
H91	H9	0.227900	0.826200	0.847400
O71	O7	0.083500	0.920800	0.124200
O81	O8	0.195300	0.914400	0.205500
O91	O9	0.086400	0.804400	0.098800
C101	C10	0.843600	0.794400	0.610900
C111	C11	0.825200	0.505400	0.384900
C121	C12	0.832900	0.410900	0.432200
H101	H10	0.818800	0.358700	0.448000
N131	N13	0.902400	0.481000	0.442700
N141	N14	0.782100	0.420500	0.395800
N151	N15	0.899500	0.543800	0.413100
N161	N16	0.795900	0.544000	0.353000
H111	H11	0.746700	0.514800	0.337800
H121	H12	0.826200	0.598300	0.347400
O101	O10	0.920800	0.837300	0.624200
O111	O11	0.914400	0.719100	0.705500
O121	O12	0.804400	0.718000	0.598800
C131	C13	0.205600	0.049200	0.610900
C141	C14	0.494600	0.319800	0.384900
C151	C15	0.589100	0.422000	0.432200
H131	H13	0.641300	0.460100	0.448000
N171	N17	0.519000	0.421400	0.442700
N181	N18	0.579500	0.361600	0.395800
N191	N19	0.456200	0.355700	0.413100
N201	N20	0.456000	0.251900	0.353000
H141	H14	0.485200	0.231900	0.337800
H151	H15	0.401700	0.227900	0.347400
O131	O13	0.162700	0.083500	0.624200
O141	O14	0.280900	0.195300	0.705500
O151	O15	0.282000	0.086400	0.598800
C161	C16	0.950800	0.156400	0.610900
C171	C17	0.680200	0.174800	0.384900
C181	C18	0.578000	0.167100	0.432200
H161	H16	0.539900	0.181200	0.448000
N211	N21	0.578600	0.097600	0.442700
N221	N22	0.638400	0.217900	0.395800
N231	N23	0.644300	0.100500	0.413100
N241	N24	0.748100	0.204100	0.353000
H171	H17	0.768100	0.253300	0.337800
H181	H18	0.772100	0.173800	0.347400
O161	O16	0.916500	0.079200	0.624200
O171	O17	0.804700	0.085600	0.705500
O181	O18	0.913600	0.195600	0.598800
C191	C19	0.205600	0.156400	0.389100
C201	C20	0.494600	0.174800	0.615100
C211	C21	0.589100	0.167100	0.567800
H191	H19	0.641300	0.181200	0.552000
N251	N25	0.519000	0.097600	0.557300
N261	N26	0.579500	0.217900	0.604200
N271	N27	0.456200	0.100500	0.586900
N281	N28	0.456000	0.204100	0.647000
H201	H20	0.485200	0.253300	0.662200
H211	H21	0.401700	0.173800	0.652600
O191	O19	0.162700	0.079200	0.375800
O201	O20	0.280900	0.085600	0.294500
O211	O21	0.282000	0.195600	0.401200
C221	C22	0.950800	0.794400	0.389100
C231	C23	0.680200	0.505400	0.615100
C241	C24	0.578000	0.410900	0.567800
H221	H22	0.539900	0.358700	0.552000
N291	N29	0.578600	0.481000	0.557300
N301	N30	0.638400	0.420500	0.604200
N311	N31	0.644300	0.543800	0.586900
N321	N32	0.748100	0.544000	0.647000
H231	H23	0.768100	0.514800	0.662200
H241	H24	0.772100	0.598300	0.652600
O221	O22	0.916500	0.837300	0.375800
O231	O23	0.804700	0.719100	0.294500
O241	O24	0.913600	0.718000	0.401200
C251	C25	0.843600	0.049200	0.389100
C261	C26	0.825200	0.319800	0.615100
C271	C27	0.832900	0.422000	0.567800
H251	H25	0.818800	0.460100	0.552000
N331	N33	0.902400	0.421400	0.557300
N341	N34	0.782100	0.361600	0.604200
N351	N35	0.899500	0.355700	0.586900
N361	N36	0.795900	0.251900	0.647000
H261	H26	0.746700	0.231900	0.662200
H271	H27	0.826200	0.227900	0.652600
O251	O25	0.920800	0.083500	0.375800
O261	O26	0.914400	0.195300	0.294500
O271	O27	0.804400	0.086400	0.401200
C281	C28	0.794400	0.843600	0.889100
C291	C29	0.505400	0.825200	0.115100
C301	C30	0.410900	0.832900	0.067800
H281	H28	0.358700	0.818800	0.052000
N371	N37	0.481000	0.902400	0.057300
N381	N38	0.420500	0.782100	0.104200
N391	N39	0.543800	0.899500	0.086900
N401	N40	0.544000	0.795900	0.147000
H291	H29	0.514800	0.746700	0.162200
H301	H30	0.598300	0.826200	0.152600
O281	O28	0.837300	0.920800	0.875800
O291	O29	0.719100	0.914400	0.794500
O301	O30	0.718000	0.804400	0.901200
C311	C31	0.049200	0.205600	0.889100
C321	C32	0.319800	0.494600	0.115100
C331	C33	0.422000	0.589100	0.067800
H311	H31	0.460100	0.641300	0.052000
N411	N41	0.421400	0.519000	0.057300
N421	N42	0.361600	0.579500	0.104200
N431	N43	0.355700	0.456200	0.086900
N441	N44	0.251900	0.456000	0.147000
H321	H32	0.231900	0.485200	0.162200
H331	H33	0.227900	0.401700	0.152600
O311	O31	0.083500	0.162700	0.875800
O321	O32	0.195300	0.280900	0.794500
O331	O33	0.086400	0.282000	0.901200
C341	C34	0.156400	0.950800	0.889100
C351	C35	0.174800	0.680200	0.115100
C361	C36	0.167100	0.578000	0.067800
H341	H34	0.181200	0.539900	0.052000
N451	N45	0.097600	0.578600	0.057300
N461	N46	0.217900	0.638400	0.104200
N471	N47	0.100500	0.644300	0.086900
N481	N48	0.204100	0.748100	0.147000
H351	H35	0.253300	0.768100	0.162200
H361	H36	0.173800	0.772100	0.152600
O341	O34	0.079200	0.916500	0.875800
O351	O35	0.085600	0.804700	0.794500
O361	O36	0.195600	0.913600	0.901200
C371	C37	0.843600	0.794400	0.889100
C381	C38	0.825200	0.505400	0.115100
C391	C39	0.832900	0.410900	0.067800
H371	H37	0.818800	0.358700	0.052000
N491	N49	0.902400	0.481000	0.057300
N501	N50	0.782100	0.420500	0.104200
N511	N51	0.899500	0.543800	0.086900
N521	N52	0.795900	0.544000	0.147000
H381	H38	0.746700	0.514800	0.162200
H391	H39	0.826200	0.598300	0.152600
O371	O37	0.920800	0.837300	0.875800
O381	O38	0.914400	0.719100	0.794500
O391	O39	0.804400	0.718000	0.901200
C401	C40	0.205600	0.049200	0.889100
C411	C41	0.494600	0.319800	0.115100
C421	C42	0.589100	0.422000	0.067800
H401	H40	0.641300	0.460100	0.052000
N531	N53	0.519000	0.421400	0.057300
N541	N54	0.579500	0.361600	0.104200
N551	N55	0.456200	0.355700	0.086900
N561	N56	0.456000	0.251900	0.147000
H411	H41	0.485200	0.231900	0.162200
H421	H42	0.401700	0.227900	0.152600
O401	O40	0.162700	0.083500	0.875800
O411	O41	0.280900	0.195300	0.794500
O421	O42	0.282000	0.086400	0.901200
C431	C43	0.950800	0.156400	0.889100
C441	C44	0.680200	0.174800	0.115100
C451	C45	0.578000	0.167100	0.067800
H431	H43	0.539900	0.181200	0.052000
N571	N57	0.578600	0.097600	0.057300
N581	N58	0.638400	0.217900	0.104200
N591	N59	0.644300	0.100500	0.086900
N601	N60	0.748100	0.204100	0.147000
H441	H44	0.768100	0.253300	0.162200
H451	H45	0.772100	0.173800	0.152600
O431	O43	0.916500	0.079200	0.875800
O441	O44	0.804700	0.085600	0.794500
O451	O45	0.913600	0.195600	0.901200
C461	C46	0.156400	0.205600	0.389100
C471	C47	0.174800	0.494600	0.615100
C481	C48	0.167100	0.589100	0.567800
H461	H46	0.181200	0.641300	0.552000
N611	N61	0.097600	0.519000	0.557300
N621	N62	0.217900	0.579500	0.604200
N631	N63	0.100500	0.456200	0.586900
N641	N64	0.204100	0.456000	0.647000
H471	H47	0.253300	0.485200	0.662200
H481	H48	0.173800	0.401700	0.652600
O461	O46	0.079200	0.162700	0.375800
O471	O47	0.085600	0.280900	0.294500
O481	O48	0.195600	0.282000	0.401200
C491	C49	0.794400	0.950800	0.389100
C501	C50	0.505400	0.680200	0.615100
C511	C51	0.410900	0.578000	0.567800
H491	H49	0.358700	0.539900	0.552000
N651	N65	0.481000	0.578600	0.557300
N661	N66	0.420500	0.638400	0.604200
N671	N67	0.543800	0.644300	0.586900
N681	N68	0.544000	0.748100	0.647000
H501	H50	0.514800	0.768100	0.662200
H511	H51	0.598300	0.772100	0.652600
O491	O49	0.837300	0.916500	0.375800
O501	O50	0.719100	0.804700	0.294500
O511	O51	0.718000	0.913600	0.401200
C521	C52	0.049200	0.843600	0.389100
C531	C53	0.319800	0.825200	0.615100
C541	C54	0.422000	0.832900	0.567800
H521	H52	0.460100	0.818800	0.552000
N691	N69	0.421400	0.902400	0.557300
N701	N70	0.361600	0.782100	0.604200
N711	N71	0.355700	0.899500	0.586900
N721	N72	0.251900	0.795900	0.647000
H531	H53	0.231900	0.746700	0.662200
H541	H54	0.227900	0.826200	0.652600
O521	O52	0.083500	0.920800	0.375800
O531	O53	0.195300	0.914400	0.294500
O541	O54	0.086400	0.804400	0.401200
C551	C55	0.794400	0.843600	0.610900
C561	C56	0.505400	0.825200	0.384900
C571	C57	0.410900	0.832900	0.432200
H551	H55	0.358700	0.818800	0.448000
N731	N73	0.481000	0.902400	0.442700
N741	N74	0.420500	0.782100	0.395800
N751	N75	0.543800	0.899500	0.413100
N761	N76	0.544000	0.795900	0.353000
H561	H56	0.514800	0.746700	0.337800
H571	H57	0.598300	0.826200	0.347400
O551	O55	0.837300	0.920800	0.624200
O561	O56	0.719100	0.914400	0.705500
O571	O57	0.718000	0.804400	0.598800
C581	C58	0.049200	0.205600	0.610900
C591	C59	0.319800	0.494600	0.384900
C601	C60	0.422000	0.589100	0.432200
H581	H58	0.460100	0.641300	0.448000
N771	N77	0.421400	0.519000	0.442700
N781	N78	0.361600	0.579500	0.395800
N791	N79	0.355700	0.456200	0.413100
N801	N80	0.251900	0.456000	0.353000
H591	H59	0.231900	0.485200	0.337800
H601	H60	0.227900	0.401700	0.347400
O581	O58	0.083500	0.162700	0.624200
O591	O59	0.195300	0.280900	0.705500
O601	O60	0.086400	0.282000	0.598800
C611	C61	0.156400	0.950800	0.610900
C621	C62	0.174800	0.680200	0.384900
C631	C63	0.167100	0.578000	0.432200
H611	H61	0.181200	0.539900	0.448000
N811	N81	0.097600	0.578600	0.442700
N821	N82	0.217900	0.638400	0.395800
N831	N83	0.100500	0.644300	0.413100
N841	N84	0.204100	0.748100	0.353000
H621	H62	0.253300	0.768100	0.337800
H631	H63	0.173800	0.772100	0.347400
O611	O61	0.079200	0.916500	0.624200
O621	O62	0.085600	0.804700	0.705500
O631	O63	0.195600	0.913600	0.598800
C641	C64	0.205600	0.156400	0.110900
C651	C65	0.494600	0.174800	0.884900
C661	C66	0.589100	0.167100	0.932200
H641	H64	0.641300	0.181200	0.948000
N851	N85	0.519000	0.097600	0.942700
N861	N86	0.579500	0.217900	0.895800
N871	N87	0.456200	0.100500	0.913100
N881	N88	0.456000	0.204100	0.853000
H651	H65	0.485200	0.253300	0.837800
H661	H66	0.401700	0.173800	0.847400
O641	O64	0.162700	0.079200	0.124200
O651	O65	0.280900	0.085600	0.205500
O661	O66	0.282000	0.195600	0.098800
C671	C67	0.950800	0.794400	0.110900
C681	C68	0.680200	0.505400	0.884900
C691	C69	0.578000	0.410900	0.932200
H671	H67	0.539900	0.358700	0.948000
N891	N89	0.578600	0.481000	0.942700
N901	N90	0.638400	0.420500	0.895800
N911	N91	0.644300	0.543800	0.913100
N921	N92	0.748100	0.544000	0.853000
H681	H68	0.768100	0.514800	0.837800
H691	H69	0.772100	0.598300	0.847400
O671	O67	0.916500	0.837300	0.124200
O681	O68	0.804700	0.719100	0.205500
O691	O69	0.913600	0.718000	0.098800
C701	C70	0.843600	0.049200	0.110900
C711	C71	0.825200	0.319800	0.884900
C721	C72	0.832900	0.422000	0.932200
H701	H70	0.818800	0.460100	0.948000
N931	N93	0.902400	0.421400	0.942700
N941	N94	0.782100	0.361600	0.895800
N951	N95	0.899500	0.355700	0.913100
N961	N96	0.795900	0.251900	0.853000
H711	H71	0.746700	0.231900	0.837800
H721	H72	0.826200	0.227900	0.847400
O701	O70	0.920800	0.083500	0.124200
O711	O71	0.914400	0.195300	0.205500
O721	O72	0.804400	0.086400	0.098800
C731	C73	0.049100	0.263100	0.250000
C741	C74	0.736900	0.786000	0.250000
C751	C75	0.214000	0.950900	0.250000
C761	C76	0.950900	0.736900	0.750000
C771	C77	0.263100	0.214000	0.750000
C781	C78	0.786000	0.049100	0.750000
C791	C79	0.263100	0.049100	0.250000
C801	C80	0.786000	0.736900	0.250000
C811	C81	0.950900	0.214000	0.250000
C821	C82	0.736900	0.950900	0.750000
C831	C83	0.214000	0.263100	0.750000
C841	C84	0.049100	0.786000	0.750000
C851	C85	0.000000	0.262200	0.031000
H731	H73	0.000000	0.213500	0.018500
C861	C86	0.000000	0.357300	0.082300
N971	N97	0.000000	0.281400	0.083300
N981	N98	0.000000	0.322700	0.998400
N991	N99	0.000000	0.384100	0.032500
N1001	N100	0.000000	0.399000	0.128200
H741	H74	0.000000	0.446600	0.126100
H751	H75	0.000000	0.377700	0.159300
Cl11	Cl1	0.000000	0.336900	0.820800
Zn11	Zn1	0.000000	0.211040	0.143490
Zn21	Zn2	0.000000	0.332910	0.914160
C871	C87	0.737800	0.737800	0.031000
H761	H76	0.786500	0.786500	0.018500
C881	C88	0.642700	0.642700	0.082300
N1011	N101	0.718600	0.718600	0.083300
N1021	N102	0.677300	0.677300	0.998400
N1031	N103	0.615900	0.615900	0.032500
N1041	N104	0.601000	0.601000	0.128200
H771	H77	0.553400	0.553400	0.126100
H781	H78	0.622300	0.622300	0.159300
Cl21	Cl2	0.663100	0.663100	0.820800
Zn31	Zn3	0.788960	0.788960	0.143490
Zn41	Zn4	0.667090	0.667090	0.914160
C891	C89	0.262200	0.000000	0.031000
H791	H79	0.213500	0.000000	0.018500
C901	C90	0.357300	0.000000	0.082300
N1051	N105	0.281400	0.000000	0.083300
N1061	N106	0.322700	0.000000	0.998400
N1071	N107	0.384100	0.000000	0.032500
N1081	N108	0.399000	0.000000	0.128200
H801	H80	0.446600	0.000000	0.126100
H811	H81	0.377700	0.000000	0.159300
Cl31	Cl3	0.336900	0.000000	0.820800
Zn51	Zn5	0.211040	0.000000	0.143490
Zn61	Zn6	0.332910	0.000000	0.914160
C911	C91	0.000000	0.737800	0.531000
H821	H82	0.000000	0.786500	0.518500
C921	C92	0.000000	0.642700	0.582300
N1091	N109	0.000000	0.718600	0.583300
N1101	N110	0.000000	0.677300	0.498400
N1111	N111	0.000000	0.615900	0.532500
N1121	N112	0.000000	0.601000	0.628200
H831	H83	0.000000	0.553400	0.626100
H841	H84	0.000000	0.622300	0.659300
Cl41	Cl4	0.000000	0.663100	0.320800
Zn71	Zn7	0.000000	0.788960	0.643490
Zn81	Zn8	0.000000	0.667090	0.414160
C931	C93	0.262200	0.262200	0.531000
H851	H85	0.213500	0.213500	0.518500
C941	C94	0.357300	0.357300	0.582300
N1131	N113	0.281400	0.281400	0.583300
N1141	N114	0.322700	0.322700	0.498400
N1151	N115	0.384100	0.384100	0.532500
N1161	N116	0.399000	0.399000	0.628200
H861	H86	0.446600	0.446600	0.626100
H871	H87	0.377700	0.377700	0.659300
Cl51	Cl5	0.336900	0.336900	0.320800
Zn91	Zn9	0.211040	0.211040	0.643490
Zn101	Zn10	0.332910	0.332910	0.414160
C951	C95	0.737800	0.000000	0.531000
H881	H88	0.786500	0.000000	0.518500
C961	C96	0.642700	0.000000	0.582300
N1171	N117	0.718600	0.000000	0.583300
N1181	N118	0.677300	0.000000	0.498400
N1191	N119	0.615900	0.000000	0.532500
N1201	N120	0.601000	0.000000	0.628200
H891	H89	0.553400	0.000000	0.626100
H901	H90	0.622300	0.000000	0.659300
Cl61	Cl6	0.663100	0.000000	0.320800
Zn111	Zn11	0.788960	0.000000	0.643490
Zn121	Zn12	0.667090	0.000000	0.414160
C971	C97	0.262200	0.000000	0.469000
H911	H91	0.213500	0.000000	0.481500
C981	C98	0.357300	0.000000	0.417700
N1211	N121	0.281400	0.000000	0.416700
N1221	N122	0.322700	0.000000	0.501600
N1231	N123	0.384100	0.000000	0.467500
N1241	N124	0.399000	0.000000	0.371800
H921	H92	0.446600	0.000000	0.373900
H931	H93	0.377700	0.000000	0.340700
Cl71	Cl7	0.336900	0.000000	0.679200
Zn131	Zn13	0.211040	0.000000	0.356510
Zn141	Zn14	0.332910	0.000000	0.585840
C991	C99	0.737800	0.737800	0.469000
H941	H94	0.786500	0.786500	0.481500
C1001	C100	0.642700	0.642700	0.417700
N1251	N125	0.718600	0.718600	0.416700
N1261	N126	0.677300	0.677300	0.501600
N1271	N127	0.615900	0.615900	0.467500
N1281	N128	0.601000	0.601000	0.371800
H951	H95	0.553400	0.553400	0.373900
H961	H96	0.622300	0.622300	0.340700
Cl81	Cl8	0.663100	0.663100	0.679200
Zn151	Zn15	0.788960	0.788960	0.356510
Zn161	Zn16	0.667090	0.667090	0.585840
C1011	C101	0.000000	0.262200	0.469000
H971	H97	0.000000	0.213500	0.481500
C1021	C102	0.000000	0.357300	0.417700
N1291	N129	0.000000	0.281400	0.416700
N1301	N130	0.000000	0.322700	0.501600
N1311	N131	0.000000	0.384100	0.467500
N1321	N132	0.000000	0.399000	0.371800
H981	H98	0.000000	0.446600	0.373900
H991	H99	0.000000	0.377700	0.340700
Cl91	Cl9	0.000000	0.336900	0.679200
Zn171	Zn17	0.000000	0.211040	0.356510
Zn181	Zn18	0.000000	0.332910	0.585840
C1031	C103	0.737800	0.000000	0.969000
H1001	H100	0.786500	0.000000	0.981500
C1041	C104	0.642700	0.000000	0.917700
N1331	N133	0.718600	0.000000	0.916700
N1341	N134	0.677300	0.000000	0.001600
N1351	N135	0.615900	0.000000	0.967500
N1361	N136	0.601000	0.000000	0.871800
H1011	H101	0.553400	0.000000	0.873900
H1021	H102	0.622300	0.000000	0.840700
Cl101	Cl10	0.663100	0.000000	0.179200
Zn191	Zn19	0.788960	0.000000	0.856510
Zn201	Zn20	0.667090	0.000000	0.085840
C1051	C105	0.262200	0.262200	0.969000
H1031	H103	0.213500	0.213500	0.981500
C1061	C106	0.357300	0.357300	0.917700
N1371	N137	0.281400	0.281400	0.916700
N1381	N138	0.322700	0.322700	0.001600
N1391	N139	0.384100	0.384100	0.967500
N1401	N140	0.399000	0.399000	0.871800
H1041	H104	0.446600	0.446600	0.873900
H1051	H105	0.377700	0.377700	0.840700
Cl111	Cl11	0.336900	0.336900	0.179200
Zn211	Zn21	0.211040	0.211040	0.856510
Zn221	Zn22	0.332910	0.332910	0.085840
C1071	C107	0.000000	0.737800	0.969000
H1061	H106	0.000000	0.786500	0.981500
C1081	C108	0.000000	0.642700	0.917700
N1411	N141	0.000000	0.718600	0.916700
N1421	N142	0.000000	0.677300	0.001600
N1431	N143	0.000000	0.615900	0.967500
N1441	N144	0.000000	0.601000	0.871800
H1071	H107	0.000000	0.553400	0.873900
H1081	H108	0.000000	0.622300	0.840700
Cl121	Cl12	0.000000	0.663100	0.179200
Zn231	Zn23	0.000000	0.788960	0.856510
Zn241	Zn24	0.000000	0.667090	0.085840
Cl131	Cl13	0.000000	0.000000	0.250000
Cl141	Cl14	0.000000	0.000000	0.750000
Cl151	Cl15	0.000000	0.000000	0.000000
Cl161	Cl16	0.000000	0.000000	0.500000
Gd11	Gd1	0.000000	0.000000	0.124640
Gd21	Gd2	0.000000	0.000000	0.624640
Gd31	Gd3	0.000000	0.000000	0.375360
Gd41	Gd4	0.000000	0.000000	0.875360
Zn251	Zn25	0.000000	0.500000	0.000000
Zn261	Zn26	0.500000	0.500000	0.000000
Zn271	Zn27	0.500000	0.000000	0.000000
Zn281	Zn28	0.000000	0.500000	0.500000
Zn291	Zn29	0.500000	0.500000	0.500000
Zn301	Zn30	0.500000	0.000000	0.500000
Zn311	Zn31	0.333330	0.666670	0.872440
Zn321	Zn32	0.666670	0.333330	0.372440
Zn331	Zn33	0.666670	0.333330	0.627560
Zn341	Zn34	0.333330	0.666670	0.127560
Zn351	Zn35	0.666670	0.333330	0.127560
Zn361	Zn36	0.333330	0.666670	0.627560
Zn371	Zn37	0.333330	0.666670	0.372440
Zn381	Zn38	0.666670	0.333330	0.872440
