data_VOBKAA_clean_PM
_symmetry_space_group_name_H-M	'P1'
_cell_length_a	18.112800
_cell_length_b	8.793100
_cell_length_c	19.205300
_cell_angle_alpha	90.000000
_cell_angle_beta	102.909000
_cell_angle_gamma	90.000000
_symmetry_Int_Tables_number 1

loop_
_symmetry_equiv_pos_as_xyz
'x,y,z'

loop_
_atom_site_label
_atom_site_type_symbol
_atom_site_fract_x
_atom_site_fract_y
_atom_site_fract_z
Cd11	Cd1	0.208660	0.907030	0.047580
O11	O1	0.076300	0.159800	0.955200
C11	C1	0.117100	0.419600	0.650600
C21	C2	0.129300	0.217300	0.856000
O21	O2	0.178300	0.434200	0.629700
O31	O3	0.190800	0.066500	0.952800
C31	C3	0.058600	0.349200	0.752500
O41	O4	0.053600	0.461300	0.616300
O51	O5	0.087400	0.815000	0.005400
C41	C4	0.062000	0.282600	0.818400
C51	C5	0.097900	0.696300	0.971400
O61	O6	0.316900	0.826400	0.008700
C61	C6	0.188600	0.286900	0.760600
C71	C7	0.132700	0.142500	0.926700
C81	C8	0.476500	0.090000	0.048200
O71	O7	0.334200	0.023900	0.080100
C91	C9	0.031000	0.616700	0.929100
H11	H1	0.987900	0.636500	0.949200
H21	H2	0.040600	0.509300	0.929900
H31	H3	0.020800	0.652400	0.880700
C101	C10	0.192000	0.218100	0.826200
C111	C11	0.122000	0.350800	0.722800
C121	C12	0.355800	0.937100	0.037600
C131	C13	0.431700	0.970000	0.018900
C141	C14	0.543900	0.119200	0.031300
O81	O8	0.259200	0.140600	0.855000
H41	H4	0.257000	0.104900	0.894000
O91	O9	0.993000	0.408700	0.722200
H51	H5	0.994400	0.440000	0.682300
O101	O10	0.462100	0.166100	0.101000
O111	O11	0.992300	0.282800	0.838000
H61	H6	0.993400	0.221400	0.870300
O121	O12	0.255100	0.305000	0.739800
H71	H7	0.246300	0.323200	0.696800
O131	O13	0.580200	0.249300	0.058100
H81	H8	0.618100	0.260600	0.041900
O141	O14	0.163500	0.654000	0.972200
Cd21	Cd2	0.791340	0.407030	0.452420
O151	O15	0.923700	0.659800	0.544800
C151	C15	0.882900	0.919600	0.849400
C161	C16	0.870700	0.717300	0.644000
O161	O16	0.821700	0.934200	0.870300
O171	O17	0.809200	0.566500	0.547200
C171	C17	0.941400	0.849200	0.747500
O181	O18	0.946400	0.961300	0.883700
O191	O19	0.912600	0.315000	0.494600
C181	C18	0.938000	0.782600	0.681600
C191	C19	0.902100	0.196300	0.528600
O201	O20	0.683100	0.326400	0.491300
C201	C20	0.811400	0.786900	0.739400
C211	C21	0.867300	0.642500	0.573300
C221	C22	0.523500	0.590000	0.451800
O211	O21	0.665800	0.523900	0.419900
C231	C23	0.969000	0.116700	0.570900
H91	H9	0.012100	0.136500	0.550800
H101	H10	0.959400	0.009300	0.570100
H111	H11	0.979200	0.152400	0.619300
C241	C24	0.808000	0.718100	0.673800
C251	C25	0.878000	0.850800	0.777200
C261	C26	0.644200	0.437100	0.462400
C271	C27	0.568300	0.470000	0.481100
C281	C28	0.456100	0.619200	0.468700
O221	O22	0.740800	0.640600	0.645000
H121	H12	0.743000	0.604900	0.606000
O231	O23	0.007000	0.908700	0.777800
H131	H13	0.005600	0.940000	0.817700
O241	O24	0.537900	0.666100	0.399000
O251	O25	0.007700	0.782800	0.662000
H141	H14	0.006600	0.721400	0.629700
O261	O26	0.744900	0.805000	0.760200
H151	H15	0.753700	0.823200	0.803200
O271	O27	0.419800	0.749300	0.441900
H161	H16	0.381900	0.760600	0.458100
O281	O28	0.836500	0.154000	0.527800
Cd31	Cd3	0.791340	0.092970	0.952420
O291	O29	0.923700	0.840200	0.044800
C291	C29	0.882900	0.580400	0.349400
C301	C30	0.870700	0.782700	0.144000
O301	O30	0.821700	0.565800	0.370300
O311	O31	0.809200	0.933500	0.047200
C311	C31	0.941400	0.650800	0.247500
O321	O32	0.946400	0.538700	0.383700
O331	O33	0.912600	0.185000	0.994600
C321	C32	0.938000	0.717400	0.181600
C331	C33	0.902100	0.303700	0.028600
O341	O34	0.683100	0.173600	0.991300
C341	C34	0.811400	0.713100	0.239400
C351	C35	0.867300	0.857500	0.073300
C361	C36	0.523500	0.910000	0.951800
O351	O35	0.665800	0.976100	0.919900
C371	C37	0.969000	0.383300	0.070900
H171	H17	0.012100	0.363500	0.050800
H181	H18	0.959400	0.490700	0.070100
H191	H19	0.979200	0.347600	0.119300
C381	C38	0.808000	0.781900	0.173800
C391	C39	0.878000	0.649200	0.277200
C401	C40	0.644200	0.062900	0.962400
C411	C41	0.568300	0.030000	0.981100
C421	C42	0.456100	0.880800	0.968700
O361	O36	0.740800	0.859400	0.145000
H201	H20	0.743000	0.895100	0.106000
O371	O37	0.007000	0.591300	0.277800
H211	H21	0.005600	0.560000	0.317700
O381	O38	0.537900	0.833900	0.899000
O391	O39	0.007700	0.717200	0.162000
H221	H22	0.006600	0.778600	0.129700
O401	O40	0.744900	0.695000	0.260200
H231	H23	0.753700	0.676800	0.303200
O411	O41	0.419800	0.750700	0.941900
H241	H24	0.381900	0.739400	0.958100
O421	O42	0.836500	0.346000	0.027800
Cd41	Cd4	0.208660	0.592970	0.547580
O431	O43	0.076300	0.340200	0.455200
C431	C43	0.117100	0.080400	0.150600
C441	C44	0.129300	0.282700	0.356000
O441	O44	0.178300	0.065800	0.129700
O451	O45	0.190800	0.433500	0.452800
C451	C45	0.058600	0.150800	0.252500
O461	O46	0.053600	0.038700	0.116300
O471	O47	0.087400	0.685000	0.505400
C461	C46	0.062000	0.217400	0.318400
C471	C47	0.097900	0.803700	0.471400
O481	O48	0.316900	0.673600	0.508700
C481	C48	0.188600	0.213100	0.260600
C491	C49	0.132700	0.357500	0.426700
C501	C50	0.476500	0.410000	0.548200
O491	O49	0.334200	0.476100	0.580100
C511	C51	0.031000	0.883300	0.429100
H251	H25	0.987900	0.863500	0.449200
H261	H26	0.040600	0.990700	0.429900
H271	H27	0.020800	0.847600	0.380700
C521	C52	0.192000	0.281900	0.326200
C531	C53	0.122000	0.149200	0.222800
C541	C54	0.355800	0.562900	0.537600
C551	C55	0.431700	0.530000	0.518900
C561	C56	0.543900	0.380800	0.531300
O501	O50	0.259200	0.359400	0.355000
H281	H28	0.257000	0.395100	0.394000
O511	O51	0.993000	0.091300	0.222200
H291	H29	0.994400	0.060000	0.182300
O521	O52	0.462100	0.333900	0.601000
O531	O53	0.992300	0.217200	0.338000
H301	H30	0.993400	0.278600	0.370300
O541	O54	0.255100	0.195000	0.239800
H311	H31	0.246300	0.176800	0.196800
O551	O55	0.580200	0.250700	0.558100
H321	H32	0.618100	0.239400	0.541900
O561	O56	0.163500	0.846000	0.472200
Cd51	Cd5	0.000000	0.000000	0.000000
Cd61	Cd6	0.000000	0.500000	0.500000
