data_VOBQEK_clean_PM
_symmetry_space_group_name_H-M	'P1'
_cell_length_a	9.806000
_cell_length_b	9.998000
_cell_length_c	10.674000
_cell_angle_alpha	99.980000
_cell_angle_beta	111.380000
_cell_angle_gamma	108.560000
_symmetry_Int_Tables_number 1

loop_
_symmetry_equiv_pos_as_xyz
'x,y,z'

loop_
_atom_site_label
_atom_site_type_symbol
_atom_site_fract_x
_atom_site_fract_y
_atom_site_fract_z
Mn11	Mn1	0.070090	0.886840	0.701960
Mn21	Mn2	0.929910	0.113160	0.298040
Mn31	Mn3	0.000000	0.000000	0.000000
H11	H1	0.652900	0.929100	0.403300
H21	H2	0.482500	0.312200	0.826300
H31	H3	0.428200	0.955400	0.259900
H41	H4	0.517500	0.687800	0.173700
H51	H5	0.160700	0.605500	0.243800
H61	H6	0.347100	0.070900	0.596700
H71	H7	0.855200	0.243900	0.897600
H81	H8	0.144800	0.756100	0.102400
H91	H9	0.325300	0.447600	0.101200
H101	H10	0.571800	0.044600	0.740100
H111	H11	0.839300	0.394500	0.756200
H121	H12	0.674700	0.552400	0.898800
C11	C1	0.617600	0.644800	0.044600
C21	C2	0.395100	0.468400	0.060100
C31	C3	0.364400	0.015900	0.412900
C41	C4	0.086200	0.653200	0.061300
C51	C5	0.913800	0.346800	0.938700
C61	C6	0.255100	0.198900	0.906900
C71	C7	0.010800	0.408800	0.084600
C81	C8	0.218000	0.033000	0.318300
C91	C9	0.489100	0.387600	0.895900
C101	C10	0.782000	0.967000	0.681700
C111	C11	0.635600	0.984100	0.587100
C121	C12	0.604900	0.531600	0.939900
C131	C13	0.457000	0.973400	0.356500
C141	C14	0.984000	0.690400	0.825600
C151	C15	0.382400	0.355200	0.955400
C161	C16	0.744900	0.801100	0.093100
C171	C17	0.543000	0.026600	0.643500
C181	C18	0.591600	0.957500	0.442100
C191	C19	0.016000	0.309600	0.174400
C201	C20	0.096500	0.563000	0.145900
C211	C21	0.989200	0.591200	0.915400
C221	C22	0.510900	0.612400	0.104100
C231	C23	0.903500	0.437000	0.854100
C241	C24	0.408400	0.042500	0.557900
O11	O1	0.121100	0.043500	0.368920
O21	O2	0.245800	0.104220	0.805890
O31	O3	0.800600	0.965010	0.803260
O41	O4	0.831420	0.826020	0.030410
O51	O5	0.944890	0.168310	0.111550
O61	O6	0.921200	0.638480	0.692790
O71	O7	0.754200	0.895780	0.194110
O81	O8	0.199400	0.034990	0.196740
O91	O9	0.168580	0.173980	0.969590
O101	O10	0.878900	0.956500	0.631080
O111	O11	0.078800	0.361520	0.307210
O121	O12	0.055110	0.831690	0.888450
