data_VOCNOQ_clean_PM
_symmetry_space_group_name_H-M	'P1'
_cell_length_a	14.015600
_cell_length_b	20.089000
_cell_length_c	20.089000
_cell_angle_alpha	90.000000
_cell_angle_beta	90.000000
_cell_angle_gamma	90.000000
_symmetry_Int_Tables_number 1

loop_
_symmetry_equiv_pos_as_xyz
'x,y,z'

loop_
_atom_site_label
_atom_site_type_symbol
_atom_site_fract_x
_atom_site_fract_y
_atom_site_fract_z
Ni11	Ni1	0.841380	0.381710	0.966510
Ni21	Ni2	0.841380	0.118290	0.533490
Ni31	Ni3	0.841380	0.533490	0.381710
Ni41	Ni4	0.841380	0.966510	0.118290
Ni51	Ni5	0.658620	0.618290	0.466510
Ni61	Ni6	0.658620	0.881710	0.033490
Ni71	Ni7	0.658620	0.466510	0.881710
Ni81	Ni8	0.658620	0.033490	0.618290
Ni91	Ni9	0.158620	0.618290	0.033490
Ni101	Ni10	0.158620	0.881710	0.466510
Ni111	Ni11	0.158620	0.466510	0.618290
Ni121	Ni12	0.158620	0.033490	0.881710
Ni131	Ni13	0.341380	0.381710	0.533490
Ni141	Ni14	0.341380	0.118290	0.966510
Ni151	Ni15	0.341380	0.533490	0.118290
Ni161	Ni16	0.341380	0.966510	0.381710
H11	H1	0.123000	0.451900	0.906700
H21	H2	0.262400	0.491700	0.859500
H31	H3	0.276500	0.498600	0.744600
H41	H4	0.019200	0.426000	0.722500
H51	H5	0.884700	0.611600	0.817100
H61	H6	0.021800	0.677800	0.807400
H71	H7	0.135900	0.677100	0.890200
H81	H8	0.981200	0.553400	0.996100
H91	H9	0.123000	0.048100	0.593300
H101	H10	0.262400	0.008300	0.640500
H111	H11	0.276500	0.001400	0.755400
H121	H12	0.019200	0.074000	0.777500
H131	H13	0.884700	0.888400	0.682900
H141	H14	0.021800	0.822200	0.692600
H151	H15	0.135900	0.822900	0.609800
H161	H16	0.981200	0.946600	0.503900
H171	H17	0.123000	0.593300	0.451900
H181	H18	0.262400	0.640500	0.491700
H191	H19	0.276500	0.755400	0.498600
H201	H20	0.019200	0.777500	0.426000
H211	H21	0.884700	0.682900	0.611600
H221	H22	0.021800	0.692600	0.677800
H231	H23	0.135900	0.609800	0.677100
H241	H24	0.981200	0.503900	0.553400
H251	H25	0.123000	0.906700	0.048100
H261	H26	0.262400	0.859500	0.008300
H271	H27	0.276500	0.744600	0.001400
H281	H28	0.019200	0.722500	0.074000
H291	H29	0.884700	0.817100	0.888400
H301	H30	0.021800	0.807400	0.822200
H311	H31	0.135900	0.890200	0.822900
H321	H32	0.981200	0.996100	0.946600
H331	H33	0.377000	0.548100	0.406700
H341	H34	0.237600	0.508300	0.359500
H351	H35	0.223500	0.501400	0.244600
H361	H36	0.480800	0.574000	0.222500
H371	H37	0.615300	0.388400	0.317100
H381	H38	0.478200	0.322200	0.307400
H391	H39	0.364100	0.322900	0.390200
H401	H40	0.518800	0.446600	0.496100
H411	H41	0.377000	0.951900	0.093300
H421	H42	0.237600	0.991700	0.140500
H431	H43	0.223500	0.998600	0.255400
H441	H44	0.480800	0.926000	0.277500
H451	H45	0.615300	0.111600	0.182900
H461	H46	0.478200	0.177800	0.192600
H471	H47	0.364100	0.177100	0.109800
H481	H48	0.518800	0.053400	0.003900
H491	H49	0.377000	0.406700	0.951900
H501	H50	0.237600	0.359500	0.991700
H511	H51	0.223500	0.244600	0.998600
H521	H52	0.480800	0.222500	0.926000
H531	H53	0.615300	0.317100	0.111600
H541	H54	0.478200	0.307400	0.177800
H551	H55	0.364100	0.390200	0.177100
H561	H56	0.518800	0.496100	0.053400
H571	H57	0.377000	0.093300	0.548100
H581	H58	0.237600	0.140500	0.508300
H591	H59	0.223500	0.255400	0.501400
H601	H60	0.480800	0.277500	0.574000
H611	H61	0.615300	0.182900	0.388400
H621	H62	0.478200	0.192600	0.322200
H631	H63	0.364100	0.109800	0.322900
H641	H64	0.518800	0.003900	0.446600
H651	H65	0.877000	0.548100	0.093300
H661	H66	0.737600	0.508300	0.140500
H671	H67	0.723500	0.501400	0.255400
H681	H68	0.980800	0.574000	0.277500
H691	H69	0.115300	0.388400	0.182900
H701	H70	0.978200	0.322200	0.192600
H711	H71	0.864100	0.322900	0.109800
H721	H72	0.018800	0.446600	0.003900
H731	H73	0.877000	0.951900	0.406700
H741	H74	0.737600	0.991700	0.359500
H751	H75	0.723500	0.998600	0.244600
H761	H76	0.980800	0.926000	0.222500
H771	H77	0.115300	0.111600	0.317100
H781	H78	0.978200	0.177800	0.307400
H791	H79	0.864100	0.177100	0.390200
H801	H80	0.018800	0.053400	0.496100
H811	H81	0.877000	0.406700	0.548100
H821	H82	0.737600	0.359500	0.508300
H831	H83	0.723500	0.244600	0.501400
H841	H84	0.980800	0.222500	0.574000
H851	H85	0.115300	0.317100	0.388400
H861	H86	0.978200	0.307400	0.322200
H871	H87	0.864100	0.390200	0.322900
H881	H88	0.018800	0.496100	0.446600
H891	H89	0.877000	0.093300	0.951900
H901	H90	0.737600	0.140500	0.991700
H911	H91	0.723500	0.255400	0.998600
H921	H92	0.980800	0.277500	0.926000
H931	H93	0.115300	0.182900	0.111600
H941	H94	0.978200	0.192600	0.177800
H951	H95	0.864100	0.109800	0.177100
H961	H96	0.018800	0.003900	0.053400
H971	H97	0.623000	0.451900	0.593300
H981	H98	0.762400	0.491700	0.640500
H991	H99	0.776500	0.498600	0.755400
H1001	H100	0.519200	0.426000	0.777500
H1011	H101	0.384700	0.611600	0.682900
H1021	H102	0.521800	0.677800	0.692600
H1031	H103	0.635900	0.677100	0.609800
H1041	H104	0.481200	0.553400	0.503900
H1051	H105	0.623000	0.048100	0.906700
H1061	H106	0.762400	0.008300	0.859500
H1071	H107	0.776500	0.001400	0.744600
H1081	H108	0.519200	0.074000	0.722500
H1091	H109	0.384700	0.888400	0.817100
H1101	H110	0.521800	0.822200	0.807400
H1111	H111	0.635900	0.822900	0.890200
H1121	H112	0.481200	0.946600	0.996100
H1131	H113	0.623000	0.593300	0.048100
H1141	H114	0.762400	0.640500	0.008300
H1151	H115	0.776500	0.755400	0.001400
H1161	H116	0.519200	0.777500	0.074000
H1171	H117	0.384700	0.682900	0.888400
H1181	H118	0.521800	0.692600	0.822200
H1191	H119	0.635900	0.609800	0.822900
H1201	H120	0.481200	0.503900	0.946600
H1211	H121	0.623000	0.906700	0.451900
H1221	H122	0.762400	0.859500	0.491700
H1231	H123	0.776500	0.744600	0.498600
H1241	H124	0.519200	0.722500	0.426000
H1251	H125	0.384700	0.817100	0.611600
H1261	H126	0.521800	0.807400	0.677800
H1271	H127	0.635900	0.890200	0.677100
H1281	H128	0.481200	0.996100	0.553400
C11	C1	0.964900	0.403800	0.845700
C21	C2	0.057700	0.432100	0.818300
C31	C3	0.130000	0.453700	0.859700
C41	C4	0.211200	0.477600	0.832000
C51	C5	0.219300	0.481500	0.763200
C61	C6	0.070200	0.438700	0.750900
C71	C7	0.840500	0.525190	0.917940
C81	C8	0.920700	0.574410	0.908000
C91	C9	0.931400	0.612200	0.851400
C101	C10	0.012400	0.651200	0.846000
C111	C11	0.079200	0.651800	0.895900
C121	C12	0.989400	0.579150	0.956890
C131	C13	0.964900	0.096200	0.654300
C141	C14	0.057700	0.067900	0.681700
C151	C15	0.130000	0.046300	0.640300
C161	C16	0.211200	0.022400	0.668000
C171	C17	0.219300	0.018500	0.736800
C181	C18	0.070200	0.061300	0.749100
C191	C19	0.840500	0.974810	0.582060
C201	C20	0.920700	0.925590	0.592000
C211	C21	0.931400	0.887800	0.648600
C221	C22	0.012400	0.848800	0.654000
C231	C23	0.079200	0.848200	0.604100
C241	C24	0.989400	0.920850	0.543110
C251	C25	0.964900	0.654300	0.403800
C261	C26	0.057700	0.681700	0.432100
C271	C27	0.130000	0.640300	0.453700
C281	C28	0.211200	0.668000	0.477600
C291	C29	0.219300	0.736800	0.481500
C301	C30	0.070200	0.749100	0.438700
C311	C31	0.840500	0.582060	0.525190
C321	C32	0.920700	0.592000	0.574410
C331	C33	0.931400	0.648600	0.612200
C341	C34	0.012400	0.654000	0.651200
C351	C35	0.079200	0.604100	0.651800
C361	C36	0.989400	0.543110	0.579150
C371	C37	0.964900	0.845700	0.096200
C381	C38	0.057700	0.818300	0.067900
C391	C39	0.130000	0.859700	0.046300
C401	C40	0.211200	0.832000	0.022400
C411	C41	0.219300	0.763200	0.018500
C421	C42	0.070200	0.750900	0.061300
C431	C43	0.840500	0.917940	0.974810
C441	C44	0.920700	0.908000	0.925590
C451	C45	0.931400	0.851400	0.887800
C461	C46	0.012400	0.846000	0.848800
C471	C47	0.079200	0.895900	0.848200
C481	C48	0.989400	0.956890	0.920850
C491	C49	0.535100	0.596200	0.345700
C501	C50	0.442300	0.567900	0.318300
C511	C51	0.370000	0.546300	0.359700
C521	C52	0.288800	0.522400	0.332000
C531	C53	0.280700	0.518500	0.263200
C541	C54	0.429800	0.561300	0.250900
C551	C55	0.659500	0.474810	0.417940
C561	C56	0.579300	0.425590	0.408000
C571	C57	0.568600	0.387800	0.351400
C581	C58	0.487600	0.348800	0.346000
C591	C59	0.420800	0.348200	0.395900
C601	C60	0.510600	0.420850	0.456890
C611	C61	0.535100	0.903800	0.154300
C621	C62	0.442300	0.932100	0.181700
C631	C63	0.370000	0.953700	0.140300
C641	C64	0.288800	0.977600	0.168000
C651	C65	0.280700	0.981500	0.236800
C661	C66	0.429800	0.938700	0.249100
C671	C67	0.659500	0.025190	0.082060
C681	C68	0.579300	0.074410	0.092000
C691	C69	0.568600	0.112200	0.148600
C701	C70	0.487600	0.151200	0.154000
C711	C71	0.420800	0.151800	0.104100
C721	C72	0.510600	0.079150	0.043110
C731	C73	0.535100	0.345700	0.903800
C741	C74	0.442300	0.318300	0.932100
C751	C75	0.370000	0.359700	0.953700
C761	C76	0.288800	0.332000	0.977600
C771	C77	0.280700	0.263200	0.981500
C781	C78	0.429800	0.250900	0.938700
C791	C79	0.659500	0.417940	0.025190
C801	C80	0.579300	0.408000	0.074410
C811	C81	0.568600	0.351400	0.112200
C821	C82	0.487600	0.346000	0.151200
C831	C83	0.420800	0.395900	0.151800
C841	C84	0.510600	0.456890	0.079150
C851	C85	0.535100	0.154300	0.596200
C861	C86	0.442300	0.181700	0.567900
C871	C87	0.370000	0.140300	0.546300
C881	C88	0.288800	0.168000	0.522400
C891	C89	0.280700	0.236800	0.518500
C901	C90	0.429800	0.249100	0.561300
C911	C91	0.659500	0.082060	0.474810
C921	C92	0.579300	0.092000	0.425590
C931	C93	0.568600	0.148600	0.387800
C941	C94	0.487600	0.154000	0.348800
C951	C95	0.420800	0.104100	0.348200
C961	C96	0.510600	0.043110	0.420850
C971	C97	0.035100	0.596200	0.154300
C981	C98	0.942300	0.567900	0.181700
C991	C99	0.870000	0.546300	0.140300
C1001	C100	0.788800	0.522400	0.168000
C1011	C101	0.780700	0.518500	0.236800
C1021	C102	0.929800	0.561300	0.249100
C1031	C103	0.159500	0.474810	0.082060
C1041	C104	0.079300	0.425590	0.092000
C1051	C105	0.068600	0.387800	0.148600
C1061	C106	0.987600	0.348800	0.154000
C1071	C107	0.920800	0.348200	0.104100
C1081	C108	0.010600	0.420850	0.043110
C1091	C109	0.035100	0.903800	0.345700
C1101	C110	0.942300	0.932100	0.318300
C1111	C111	0.870000	0.953700	0.359700
C1121	C112	0.788800	0.977600	0.332000
C1131	C113	0.780700	0.981500	0.263200
C1141	C114	0.929800	0.938700	0.250900
C1151	C115	0.159500	0.025190	0.417940
C1161	C116	0.079300	0.074410	0.408000
C1171	C117	0.068600	0.112200	0.351400
C1181	C118	0.987600	0.151200	0.346000
C1191	C119	0.920800	0.151800	0.395900
C1201	C120	0.010600	0.079150	0.456890
C1211	C121	0.035100	0.345700	0.596200
C1221	C122	0.942300	0.318300	0.567900
C1231	C123	0.870000	0.359700	0.546300
C1241	C124	0.788800	0.332000	0.522400
C1251	C125	0.780700	0.263200	0.518500
C1261	C126	0.929800	0.250900	0.561300
C1271	C127	0.159500	0.417940	0.474810
C1281	C128	0.079300	0.408000	0.425590
C1291	C129	0.068600	0.351400	0.387800
C1301	C130	0.987600	0.346000	0.348800
C1311	C131	0.920800	0.395900	0.348200
C1321	C132	0.010600	0.456890	0.420850
C1331	C133	0.035100	0.154300	0.903800
C1341	C134	0.942300	0.181700	0.932100
C1351	C135	0.870000	0.140300	0.953700
C1361	C136	0.788800	0.168000	0.977600
C1371	C137	0.780700	0.236800	0.981500
C1381	C138	0.929800	0.249100	0.938700
C1391	C139	0.159500	0.082060	0.025190
C1401	C140	0.079300	0.092000	0.074410
C1411	C141	0.068600	0.148600	0.112200
C1421	C142	0.987600	0.154000	0.151200
C1431	C143	0.920800	0.104100	0.151800
C1441	C144	0.010600	0.043110	0.079150
C1451	C145	0.464900	0.403800	0.654300
C1461	C146	0.557700	0.432100	0.681700
C1471	C147	0.630000	0.453700	0.640300
C1481	C148	0.711200	0.477600	0.668000
C1491	C149	0.719300	0.481500	0.736800
C1501	C150	0.570200	0.438700	0.749100
C1511	C151	0.340500	0.525190	0.582060
C1521	C152	0.420700	0.574410	0.592000
C1531	C153	0.431400	0.612200	0.648600
C1541	C154	0.512400	0.651200	0.654000
C1551	C155	0.579200	0.651800	0.604100
C1561	C156	0.489400	0.579150	0.543110
C1571	C157	0.464900	0.096200	0.845700
C1581	C158	0.557700	0.067900	0.818300
C1591	C159	0.630000	0.046300	0.859700
C1601	C160	0.711200	0.022400	0.832000
C1611	C161	0.719300	0.018500	0.763200
C1621	C162	0.570200	0.061300	0.750900
C1631	C163	0.340500	0.974810	0.917940
C1641	C164	0.420700	0.925590	0.908000
C1651	C165	0.431400	0.887800	0.851400
C1661	C166	0.512400	0.848800	0.846000
C1671	C167	0.579200	0.848200	0.895900
C1681	C168	0.489400	0.920850	0.956890
C1691	C169	0.464900	0.654300	0.096200
C1701	C170	0.557700	0.681700	0.067900
C1711	C171	0.630000	0.640300	0.046300
C1721	C172	0.711200	0.668000	0.022400
C1731	C173	0.719300	0.736800	0.018500
C1741	C174	0.570200	0.749100	0.061300
C1751	C175	0.340500	0.582060	0.974810
C1761	C176	0.420700	0.592000	0.925590
C1771	C177	0.431400	0.648600	0.887800
C1781	C178	0.512400	0.654000	0.848800
C1791	C179	0.579200	0.604100	0.848200
C1801	C180	0.489400	0.543110	0.920850
C1811	C181	0.464900	0.845700	0.403800
C1821	C182	0.557700	0.818300	0.432100
C1831	C183	0.630000	0.859700	0.453700
C1841	C184	0.711200	0.832000	0.477600
C1851	C185	0.719300	0.763200	0.481500
C1861	C186	0.570200	0.750900	0.438700
C1871	C187	0.340500	0.917940	0.525190
C1881	C188	0.420700	0.908000	0.574410
C1891	C189	0.431400	0.851400	0.612200
C1901	C190	0.512400	0.846000	0.651200
C1911	C191	0.579200	0.895900	0.651800
C1921	C192	0.489400	0.956890	0.579150
N11	N1	0.150100	0.462050	0.722700
N21	N2	0.066500	0.617530	0.952660
N31	N3	0.150100	0.037950	0.777300
N41	N4	0.066500	0.882470	0.547340
N51	N5	0.150100	0.777300	0.462050
N61	N6	0.066500	0.547340	0.617530
N71	N7	0.150100	0.722700	0.037950
N81	N8	0.066500	0.952660	0.882470
N91	N9	0.349900	0.537950	0.222700
N101	N10	0.433500	0.382470	0.452660
N111	N11	0.349900	0.962050	0.277300
N121	N12	0.433500	0.117530	0.047340
N131	N13	0.349900	0.222700	0.962050
N141	N14	0.433500	0.452660	0.117530
N151	N15	0.349900	0.277300	0.537950
N161	N16	0.433500	0.047340	0.382470
N171	N17	0.849900	0.537950	0.277300
N181	N18	0.933500	0.382470	0.047340
N191	N19	0.849900	0.962050	0.222700
N201	N20	0.933500	0.117530	0.452660
N211	N21	0.849900	0.222700	0.537950
N221	N22	0.933500	0.452660	0.382470
N231	N23	0.849900	0.277300	0.962050
N241	N24	0.933500	0.047340	0.117530
N251	N25	0.650100	0.462050	0.777300
N261	N26	0.566500	0.617530	0.547340
N271	N27	0.650100	0.037950	0.722700
N281	N28	0.566500	0.882470	0.952660
N291	N29	0.650100	0.777300	0.037950
N301	N30	0.566500	0.547340	0.882470
N311	N31	0.650100	0.722700	0.462050
N321	N32	0.566500	0.952660	0.617530
O11	O1	0.960060	0.392600	0.905270
O21	O2	0.896600	0.394900	0.804800
O31	O3	0.848920	0.485400	0.965850
O41	O4	0.773240	0.527080	0.876010
O51	O5	0.960060	0.107400	0.594730
O61	O6	0.896600	0.105100	0.695200
O71	O7	0.848920	0.014600	0.534150
O81	O8	0.773240	0.972920	0.623990
O91	O9	0.960060	0.594730	0.392600
O101	O10	0.896600	0.695200	0.394900
O111	O11	0.848920	0.534150	0.485400
O121	O12	0.773240	0.623990	0.527080
O131	O13	0.960060	0.905270	0.107400
O141	O14	0.896600	0.804800	0.105100
O151	O15	0.848920	0.965850	0.014600
O161	O16	0.773240	0.876010	0.972920
O171	O17	0.539940	0.607400	0.405270
O181	O18	0.603400	0.605100	0.304800
O191	O19	0.651080	0.514600	0.465850
O201	O20	0.726760	0.472920	0.376010
O211	O21	0.539940	0.892600	0.094730
O221	O22	0.603400	0.894900	0.195200
O231	O23	0.651080	0.985400	0.034150
O241	O24	0.726760	0.027080	0.123990
O251	O25	0.539940	0.405270	0.892600
O261	O26	0.603400	0.304800	0.894900
O271	O27	0.651080	0.465850	0.985400
O281	O28	0.726760	0.376010	0.027080
O291	O29	0.539940	0.094730	0.607400
O301	O30	0.603400	0.195200	0.605100
O311	O31	0.651080	0.034150	0.514600
O321	O32	0.726760	0.123990	0.472920
O331	O33	0.039940	0.607400	0.094730
O341	O34	0.103400	0.605100	0.195200
O351	O35	0.151080	0.514600	0.034150
O361	O36	0.226760	0.472920	0.123990
O371	O37	0.039940	0.892600	0.405270
O381	O38	0.103400	0.894900	0.304800
O391	O39	0.151080	0.985400	0.465850
O401	O40	0.226760	0.027080	0.376010
O411	O41	0.039940	0.405270	0.607400
O421	O42	0.103400	0.304800	0.605100
O431	O43	0.151080	0.465850	0.514600
O441	O44	0.226760	0.376010	0.472920
O451	O45	0.039940	0.094730	0.892600
O461	O46	0.103400	0.195200	0.894900
O471	O47	0.151080	0.034150	0.985400
O481	O48	0.226760	0.123990	0.027080
O491	O49	0.460060	0.392600	0.594730
O501	O50	0.396600	0.394900	0.695200
O511	O51	0.348920	0.485400	0.534150
O521	O52	0.273240	0.527080	0.623990
O531	O53	0.460060	0.107400	0.905270
O541	O54	0.396600	0.105100	0.804800
O551	O55	0.348920	0.014600	0.965850
O561	O56	0.273240	0.972920	0.876010
O571	O57	0.460060	0.594730	0.107400
O581	O58	0.396600	0.695200	0.105100
O591	O59	0.348920	0.534150	0.014600
O601	O60	0.273240	0.623990	0.972920
O611	O61	0.460060	0.905270	0.392600
O621	O62	0.396600	0.804800	0.394900
O631	O63	0.348920	0.965850	0.485400
O641	O64	0.273240	0.876010	0.527080
O651	O65	0.750000	0.382600	0.882600
O661	O66	0.750000	0.117400	0.617400
O671	O67	0.750000	0.617400	0.382600
O681	O68	0.750000	0.882600	0.117400
O691	O69	0.250000	0.617400	0.117400
O701	O70	0.250000	0.882600	0.382600
O711	O71	0.250000	0.382600	0.617400
O721	O72	0.250000	0.117400	0.882600
