data_VOCQEJ_clean_PM
_symmetry_space_group_name_H-M	'P1'
_cell_length_a	14.082100
_cell_length_b	15.249800
_cell_length_c	18.605800
_cell_angle_alpha	90.000000
_cell_angle_beta	106.747000
_cell_angle_gamma	90.000000
_symmetry_Int_Tables_number 1

loop_
_symmetry_equiv_pos_as_xyz
'x,y,z'

loop_
_atom_site_label
_atom_site_type_symbol
_atom_site_fract_x
_atom_site_fract_y
_atom_site_fract_z
Ni11	Ni1	0.366650	0.619920	0.216590
O11	O1	0.326400	0.554000	0.113560
O21	O2	0.435100	0.711100	0.164660
C11	C1	0.383200	0.512300	0.084900
C21	C2	0.510700	0.703100	0.142700
O31	O3	0.464200	0.477700	0.120800
N11	N1	0.288000	0.473900	0.762400
C31	C3	0.178500	0.587400	0.824900
H11	H1	0.140800	0.626300	0.845800
C41	C4	0.252700	0.536000	0.871200
C51	C5	0.278900	0.539900	0.954000
H21	H2	0.235300	0.572000	0.974800
C61	C6	0.305200	0.480500	0.836700
H31	H3	0.356200	0.445300	0.867900
C71	C7	0.355900	0.503800	0.001400
H41	H4	0.398100	0.469200	0.981100
C81	C8	0.160300	0.581200	0.748000
H51	H5	0.110300	0.616200	0.715400
C91	C9	0.215300	0.523700	0.719000
H61	H6	0.201000	0.519200	0.666100
O41	O4	0.597300	0.682400	0.182210
N21	N2	0.263100	0.806700	0.822600
C101	C10	0.384000	0.747400	0.931200
C111	C11	0.300300	0.795100	0.896900
H71	H7	0.266100	0.821900	0.928400
C121	C12	0.412800	0.739800	0.013500
H81	H8	0.362900	0.754700	0.036500
C131	C13	0.499100	0.714900	0.060200
H91	H9	0.554000	0.704500	0.041400
C141	C14	0.310000	0.767400	0.779100
H101	H10	0.285400	0.774800	0.726200
C151	C15	0.394300	0.715700	0.808000
H111	H11	0.425500	0.687800	0.775100
C161	C16	0.432000	0.705400	0.884800
H121	H12	0.489300	0.670500	0.905500
Ni21	Ni2	0.866650	0.119920	0.216590
O51	O5	0.826400	0.054000	0.113560
O61	O6	0.935100	0.211100	0.164660
C171	C17	0.883200	0.012300	0.084900
C181	C18	0.010700	0.203100	0.142700
O71	O7	0.964200	0.977700	0.120800
N31	N3	0.788000	0.973900	0.762400
C191	C19	0.678500	0.087400	0.824900
H131	H13	0.640800	0.126300	0.845800
C201	C20	0.752700	0.036000	0.871200
C211	C21	0.778900	0.039900	0.954000
H141	H14	0.735300	0.072000	0.974800
C221	C22	0.805200	0.980500	0.836700
H151	H15	0.856200	0.945300	0.867900
C231	C23	0.855900	0.003800	0.001400
H161	H16	0.898100	0.969200	0.981100
C241	C24	0.660300	0.081200	0.748000
H171	H17	0.610300	0.116200	0.715400
C251	C25	0.715300	0.023700	0.719000
H181	H18	0.701000	0.019200	0.666100
O81	O8	0.097300	0.182400	0.182210
N41	N4	0.763100	0.306700	0.822600
C261	C26	0.884000	0.247400	0.931200
C271	C27	0.800300	0.295100	0.896900
H191	H19	0.766100	0.321900	0.928400
C281	C28	0.912800	0.239800	0.013500
H201	H20	0.862900	0.254700	0.036500
C291	C29	0.999100	0.214900	0.060200
H211	H21	0.054000	0.204500	0.041400
C301	C30	0.810000	0.267400	0.779100
H221	H22	0.785400	0.274800	0.726200
C311	C31	0.894300	0.215700	0.808000
H231	H23	0.925500	0.187800	0.775100
C321	C32	0.932000	0.205400	0.884800
H241	H24	0.989300	0.170500	0.905500
Ni31	Ni3	0.633350	0.619920	0.283410
O91	O9	0.673600	0.554000	0.386440
O101	O10	0.564900	0.711100	0.335340
C331	C33	0.616800	0.512300	0.415100
C341	C34	0.489300	0.703100	0.357300
O111	O11	0.535800	0.477700	0.379200
N51	N5	0.712000	0.473900	0.737600
C351	C35	0.821500	0.587400	0.675100
H251	H25	0.859200	0.626300	0.654200
C361	C36	0.747300	0.536000	0.628800
C371	C37	0.721100	0.539900	0.546000
H261	H26	0.764700	0.572000	0.525200
C381	C38	0.694800	0.480500	0.663300
H271	H27	0.643800	0.445300	0.632100
C391	C39	0.644100	0.503800	0.498600
H281	H28	0.601900	0.469200	0.518900
C401	C40	0.839700	0.581200	0.752000
H291	H29	0.889700	0.616200	0.784600
C411	C41	0.784700	0.523700	0.781000
H301	H30	0.799000	0.519200	0.833900
O121	O12	0.402700	0.682400	0.317790
N61	N6	0.736900	0.806700	0.677400
C421	C42	0.616000	0.747400	0.568800
C431	C43	0.699700	0.795100	0.603100
H311	H31	0.733900	0.821900	0.571600
C441	C44	0.587200	0.739800	0.486500
H321	H32	0.637100	0.754700	0.463500
C451	C45	0.500900	0.714900	0.439800
H331	H33	0.446000	0.704500	0.458600
C461	C46	0.690000	0.767400	0.720900
H341	H34	0.714600	0.774800	0.773800
C471	C47	0.605700	0.715700	0.692000
H351	H35	0.574500	0.687800	0.724900
C481	C48	0.568000	0.705400	0.615200
H361	H36	0.510700	0.670500	0.594500
Ni41	Ni4	0.133350	0.119920	0.283410
O131	O13	0.173600	0.054000	0.386440
O141	O14	0.064900	0.211100	0.335340
C491	C49	0.116800	0.012300	0.415100
C501	C50	0.989300	0.203100	0.357300
O151	O15	0.035800	0.977700	0.379200
N71	N7	0.212000	0.973900	0.737600
C511	C51	0.321500	0.087400	0.675100
H371	H37	0.359200	0.126300	0.654200
C521	C52	0.247300	0.036000	0.628800
C531	C53	0.221100	0.039900	0.546000
H381	H38	0.264700	0.072000	0.525200
C541	C54	0.194800	0.980500	0.663300
H391	H39	0.143800	0.945300	0.632100
C551	C55	0.144100	0.003800	0.498600
H401	H40	0.101900	0.969200	0.518900
C561	C56	0.339700	0.081200	0.752000
H411	H41	0.389700	0.116200	0.784600
C571	C57	0.284700	0.023700	0.781000
H421	H42	0.299000	0.019200	0.833900
O161	O16	0.902700	0.182400	0.317790
N81	N8	0.236900	0.306700	0.677400
C581	C58	0.116000	0.247400	0.568800
C591	C59	0.199700	0.295100	0.603100
H431	H43	0.233900	0.321900	0.571600
C601	C60	0.087200	0.239800	0.486500
H441	H44	0.137100	0.254700	0.463500
C611	C61	0.000900	0.214900	0.439800
H451	H45	0.946000	0.204500	0.458600
C621	C62	0.190000	0.267400	0.720900
H461	H46	0.214600	0.274800	0.773800
C631	C63	0.105700	0.215700	0.692000
H471	H47	0.074500	0.187800	0.724900
C641	C64	0.068000	0.205400	0.615200
H481	H48	0.010700	0.170500	0.594500
Ni51	Ni5	0.633350	0.380080	0.783410
O171	O17	0.673600	0.446000	0.886440
O181	O18	0.564900	0.288900	0.835340
C651	C65	0.616800	0.487700	0.915100
C661	C66	0.489300	0.296900	0.857300
O191	O19	0.535800	0.522300	0.879200
N91	N9	0.712000	0.526100	0.237600
C671	C67	0.821500	0.412600	0.175100
H491	H49	0.859200	0.373700	0.154200
C681	C68	0.747300	0.464000	0.128800
C691	C69	0.721100	0.460100	0.046000
H501	H50	0.764700	0.428000	0.025200
C701	C70	0.694800	0.519500	0.163300
H511	H51	0.643800	0.554700	0.132100
C711	C71	0.644100	0.496200	0.998600
H521	H52	0.601900	0.530800	0.018900
C721	C72	0.839700	0.418800	0.252000
H531	H53	0.889700	0.383800	0.284600
C731	C73	0.784700	0.476300	0.281000
H541	H54	0.799000	0.480800	0.333900
O201	O20	0.402700	0.317600	0.817790
N101	N10	0.736900	0.193300	0.177400
C741	C74	0.616000	0.252600	0.068800
C751	C75	0.699700	0.204900	0.103100
H551	H55	0.733900	0.178100	0.071600
C761	C76	0.587200	0.260200	0.986500
H561	H56	0.637100	0.245300	0.963500
C771	C77	0.500900	0.285100	0.939800
H571	H57	0.446000	0.295500	0.958600
C781	C78	0.690000	0.232600	0.220900
H581	H58	0.714600	0.225200	0.273800
C791	C79	0.605700	0.284300	0.192000
H591	H59	0.574500	0.312200	0.224900
C801	C80	0.568000	0.294600	0.115200
H601	H60	0.510700	0.329500	0.094500
Ni61	Ni6	0.133350	0.880080	0.783410
O211	O21	0.173600	0.946000	0.886440
O221	O22	0.064900	0.788900	0.835340
C811	C81	0.116800	0.987700	0.915100
C821	C82	0.989300	0.796900	0.857300
O231	O23	0.035800	0.022300	0.879200
N111	N11	0.212000	0.026100	0.237600
C831	C83	0.321500	0.912600	0.175100
H611	H61	0.359200	0.873700	0.154200
C841	C84	0.247300	0.964000	0.128800
C851	C85	0.221100	0.960100	0.046000
H621	H62	0.264700	0.928000	0.025200
C861	C86	0.194800	0.019500	0.163300
H631	H63	0.143800	0.054700	0.132100
C871	C87	0.144100	0.996200	0.998600
H641	H64	0.101900	0.030800	0.018900
C881	C88	0.339700	0.918800	0.252000
H651	H65	0.389700	0.883800	0.284600
C891	C89	0.284700	0.976300	0.281000
H661	H66	0.299000	0.980800	0.333900
O241	O24	0.902700	0.817600	0.817790
N121	N12	0.236900	0.693300	0.177400
C901	C90	0.116000	0.752600	0.068800
C911	C91	0.199700	0.704900	0.103100
H671	H67	0.233900	0.678100	0.071600
C921	C92	0.087200	0.760200	0.986500
H681	H68	0.137100	0.745300	0.963500
C931	C93	0.000900	0.785100	0.939800
H691	H69	0.946000	0.795500	0.958600
C941	C94	0.190000	0.732600	0.220900
H701	H70	0.214600	0.725200	0.273800
C951	C95	0.105700	0.784300	0.192000
H711	H71	0.074500	0.812200	0.224900
C961	C96	0.068000	0.794600	0.115200
H721	H72	0.010700	0.829500	0.094500
Ni71	Ni7	0.366650	0.380080	0.716590
O251	O25	0.326400	0.446000	0.613560
O261	O26	0.435100	0.288900	0.664660
C971	C97	0.383200	0.487700	0.584900
C981	C98	0.510700	0.296900	0.642700
O271	O27	0.464200	0.522300	0.620800
N131	N13	0.288000	0.526100	0.262400
C991	C99	0.178500	0.412600	0.324900
H731	H73	0.140800	0.373700	0.345800
C1001	C100	0.252700	0.464000	0.371200
C1011	C101	0.278900	0.460100	0.454000
H741	H74	0.235300	0.428000	0.474800
C1021	C102	0.305200	0.519500	0.336700
H751	H75	0.356200	0.554700	0.367900
C1031	C103	0.355900	0.496200	0.501400
H761	H76	0.398100	0.530800	0.481100
C1041	C104	0.160300	0.418800	0.248000
H771	H77	0.110300	0.383800	0.215400
C1051	C105	0.215300	0.476300	0.219000
H781	H78	0.201000	0.480800	0.166100
O281	O28	0.597300	0.317600	0.682210
N141	N14	0.263100	0.193300	0.322600
C1061	C106	0.384000	0.252600	0.431200
C1071	C107	0.300300	0.204900	0.396900
H791	H79	0.266100	0.178100	0.428400
C1081	C108	0.412800	0.260200	0.513500
H801	H80	0.362900	0.245300	0.536500
C1091	C109	0.499100	0.285100	0.560200
H811	H81	0.554000	0.295500	0.541400
C1101	C110	0.310000	0.232600	0.279100
H821	H82	0.285400	0.225200	0.226200
C1111	C111	0.394300	0.284300	0.308000
H831	H83	0.425500	0.312200	0.275100
C1121	C112	0.432000	0.294600	0.384800
H841	H84	0.489300	0.329500	0.405500
Ni81	Ni8	0.866650	0.880080	0.716590
O291	O29	0.826400	0.946000	0.613560
O301	O30	0.935100	0.788900	0.664660
C1131	C113	0.883200	0.987700	0.584900
C1141	C114	0.010700	0.796900	0.642700
O311	O31	0.964200	0.022300	0.620800
N151	N15	0.788000	0.026100	0.262400
C1151	C115	0.678500	0.912600	0.324900
H851	H85	0.640800	0.873700	0.345800
C1161	C116	0.752700	0.964000	0.371200
C1171	C117	0.778900	0.960100	0.454000
H861	H86	0.735300	0.928000	0.474800
C1181	C118	0.805200	0.019500	0.336700
H871	H87	0.856200	0.054700	0.367900
C1191	C119	0.855900	0.996200	0.501400
H881	H88	0.898100	0.030800	0.481100
C1201	C120	0.660300	0.918800	0.248000
H891	H89	0.610300	0.883800	0.215400
C1211	C121	0.715300	0.976300	0.219000
H901	H90	0.701000	0.980800	0.166100
O321	O32	0.097300	0.817600	0.682210
N161	N16	0.763100	0.693300	0.322600
C1221	C122	0.884000	0.752600	0.431200
C1231	C123	0.800300	0.704900	0.396900
H911	H91	0.766100	0.678100	0.428400
C1241	C124	0.912800	0.760200	0.513500
H921	H92	0.862900	0.745300	0.536500
C1251	C125	0.999100	0.785100	0.560200
H931	H93	0.054000	0.795500	0.541400
C1261	C126	0.810000	0.732600	0.279100
H941	H94	0.785400	0.725200	0.226200
C1271	C127	0.894300	0.784300	0.308000
H951	H95	0.925500	0.812200	0.275100
C1281	C128	0.932000	0.794600	0.384800
H961	H96	0.989300	0.829500	0.405500
O331	O33	0.500000	0.548600	0.250000
H971	H97	0.500000	0.486300	0.250000
O341	O34	0.000000	0.048600	0.250000
H981	H98	0.000000	0.986300	0.250000
O351	O35	0.500000	0.451400	0.750000
H991	H99	0.500000	0.513700	0.750000
O361	O36	0.000000	0.951400	0.750000
H1001	H100	0.000000	0.013700	0.750000
