data_VODPOU_clean_PM
_symmetry_space_group_name_H-M	'P1'
_cell_length_a	13.477000
_cell_length_b	15.239600
_cell_length_c	26.220000
_cell_angle_alpha	90.000000
_cell_angle_beta	90.000000
_cell_angle_gamma	90.000000
_symmetry_Int_Tables_number 1

loop_
_symmetry_equiv_pos_as_xyz
'x,y,z'

loop_
_atom_site_label
_atom_site_type_symbol
_atom_site_fract_x
_atom_site_fract_y
_atom_site_fract_z
Mn11	Mn1	0.303670	0.959280	0.639820
Mn21	Mn2	0.310940	0.250260	0.307430
Mn31	Mn3	0.578200	0.469760	0.825760
Mn41	Mn4	0.696330	0.540720	0.139820
Mn51	Mn5	0.689060	0.249740	0.807430
Mn61	Mn6	0.421800	0.030240	0.325760
Mn71	Mn7	0.803670	0.040720	0.860180
Mn81	Mn8	0.810940	0.749740	0.192570
Mn91	Mn9	0.078200	0.530240	0.674240
Mn101	Mn10	0.196330	0.459280	0.360180
Mn111	Mn11	0.189060	0.750260	0.692570
Mn121	Mn12	0.921800	0.969760	0.174240
Mn131	Mn13	0.696330	0.040720	0.360180
Mn141	Mn14	0.689060	0.749740	0.692570
Mn151	Mn15	0.421800	0.530240	0.174240
Mn161	Mn16	0.303670	0.459280	0.860180
Mn171	Mn17	0.310940	0.750260	0.192570
Mn181	Mn18	0.578200	0.969760	0.674240
Mn191	Mn19	0.196330	0.959280	0.139820
Mn201	Mn20	0.189060	0.250260	0.807430
Mn211	Mn21	0.921800	0.469760	0.325760
Mn221	Mn22	0.803670	0.540720	0.639820
Mn231	Mn23	0.810940	0.249740	0.307430
Mn241	Mn24	0.078200	0.030240	0.825760
H11	H1	0.368700	0.578700	0.634900
H21	H2	0.488000	0.387400	0.719000
H31	H3	0.512100	0.628900	0.763800
H41	H4	0.310800	0.029400	0.531900
H51	H5	0.393800	0.430600	0.649400
H61	H6	0.123400	0.222900	0.503600
H71	H7	0.081400	0.223300	0.589500
H81	H8	0.139700	0.114200	0.640100
H91	H9	0.631300	0.921300	0.134900
H101	H10	0.512000	0.112600	0.219000
H111	H11	0.487900	0.871100	0.263800
H121	H12	0.689200	0.470600	0.031900
H131	H13	0.606200	0.069400	0.149400
H141	H14	0.876600	0.277100	0.003600
H151	H15	0.918600	0.276700	0.089500
H161	H16	0.860300	0.385800	0.140100
H171	H17	0.868700	0.421300	0.865100
H181	H18	0.988000	0.612600	0.781000
H191	H19	0.012100	0.371100	0.736200
H201	H20	0.810800	0.970600	0.968100
H211	H21	0.893800	0.569400	0.850600
H221	H22	0.623400	0.777100	0.996400
H231	H23	0.581400	0.776700	0.910500
H241	H24	0.639700	0.885800	0.859900
H251	H25	0.131300	0.078700	0.365100
H261	H26	0.012000	0.887400	0.281000
H271	H27	0.987900	0.128900	0.236200
H281	H28	0.189200	0.529400	0.468100
H291	H29	0.106200	0.930600	0.350600
H301	H30	0.376600	0.722900	0.496400
H311	H31	0.418600	0.723300	0.410500
H321	H32	0.360300	0.614200	0.359900
H331	H33	0.631300	0.421300	0.365100
H341	H34	0.512000	0.612600	0.281000
H351	H35	0.487900	0.371100	0.236200
H361	H36	0.689200	0.970600	0.468100
H371	H37	0.606200	0.569400	0.350600
H381	H38	0.876600	0.777100	0.496400
H391	H39	0.918600	0.776700	0.410500
H401	H40	0.860300	0.885800	0.359900
H411	H41	0.368700	0.078700	0.865100
H421	H42	0.488000	0.887400	0.781000
H431	H43	0.512100	0.128900	0.736200
H441	H44	0.310800	0.529400	0.968100
H451	H45	0.393800	0.930600	0.850600
H461	H46	0.123400	0.722900	0.996400
H471	H47	0.081400	0.723300	0.910500
H481	H48	0.139700	0.614200	0.859900
H491	H49	0.131300	0.578700	0.134900
H501	H50	0.012000	0.387400	0.219000
H511	H51	0.987900	0.628900	0.263800
H521	H52	0.189200	0.029400	0.031900
H531	H53	0.106200	0.430600	0.149400
H541	H54	0.376600	0.222900	0.003600
H551	H55	0.418600	0.223300	0.089500
H561	H56	0.360300	0.114200	0.140100
H571	H57	0.868700	0.921300	0.634900
H581	H58	0.988000	0.112600	0.719000
H591	H59	0.012100	0.871100	0.763800
H601	H60	0.810800	0.470600	0.531900
H611	H61	0.893800	0.069400	0.649400
H621	H62	0.623400	0.277100	0.503600
H631	H63	0.581400	0.276700	0.589500
H641	H64	0.639700	0.385800	0.640100
C11	C1	0.404100	0.559700	0.663300
C21	C2	0.473700	0.446600	0.714500
C31	C3	0.489700	0.588300	0.739900
C41	C4	0.442200	0.619200	0.697600
C51	C5	0.322600	0.068900	0.436700
C61	C6	0.263400	0.069200	0.543300
C71	C7	0.437500	0.716400	0.690000
C81	C8	0.419300	0.472300	0.671800
C91	C9	0.229700	0.131400	0.509400
C101	C10	0.154700	0.184900	0.526200
C111	C11	0.125800	0.182200	0.576600
C121	C12	0.163400	0.118700	0.606900
C131	C13	0.595900	0.940300	0.163300
C141	C14	0.526300	0.053400	0.214500
C151	C15	0.510300	0.911700	0.239900
C161	C16	0.557800	0.880800	0.197600
C171	C17	0.677400	0.431100	0.936700
C181	C18	0.736600	0.430800	0.043300
C191	C19	0.562500	0.783600	0.190000
C201	C20	0.580700	0.027700	0.171800
C211	C21	0.770300	0.368600	0.009400
C221	C22	0.845300	0.315100	0.026200
C231	C23	0.874200	0.317800	0.076600
C241	C24	0.836600	0.381300	0.106900
C251	C25	0.904100	0.440300	0.836700
C261	C26	0.973700	0.553400	0.785500
C271	C27	0.989700	0.411700	0.760100
C281	C28	0.942200	0.380800	0.802400
C291	C29	0.822600	0.931100	0.063300
C301	C30	0.763400	0.930800	0.956700
C311	C31	0.937500	0.283600	0.810000
C321	C32	0.919300	0.527700	0.828200
C331	C33	0.729700	0.868600	0.990600
C341	C34	0.654700	0.815100	0.973800
C351	C35	0.625800	0.817800	0.923400
C361	C36	0.663400	0.881300	0.893100
C371	C37	0.095900	0.059700	0.336700
C381	C38	0.026300	0.946600	0.285500
C391	C39	0.010300	0.088300	0.260100
C401	C40	0.057800	0.119200	0.302400
C411	C41	0.177400	0.568900	0.563300
C421	C42	0.236600	0.569200	0.456700
C431	C43	0.062500	0.216400	0.310000
C441	C44	0.080700	0.972300	0.328200
C451	C45	0.270300	0.631400	0.490600
C461	C46	0.345300	0.684900	0.473800
C471	C47	0.374200	0.682200	0.423400
C481	C48	0.336600	0.618700	0.393100
C491	C49	0.595900	0.440300	0.336700
C501	C50	0.526300	0.553400	0.285500
C511	C51	0.510300	0.411700	0.260100
C521	C52	0.557800	0.380800	0.302400
C531	C53	0.677400	0.931100	0.563300
C541	C54	0.736600	0.930800	0.456700
C551	C55	0.562500	0.283600	0.310000
C561	C56	0.580700	0.527700	0.328200
C571	C57	0.770300	0.868600	0.490600
C581	C58	0.845300	0.815100	0.473800
C591	C59	0.874200	0.817800	0.423400
C601	C60	0.836600	0.881300	0.393100
C611	C61	0.404100	0.059700	0.836700
C621	C62	0.473700	0.946600	0.785500
C631	C63	0.489700	0.088300	0.760100
C641	C64	0.442200	0.119200	0.802400
C651	C65	0.322600	0.568900	0.063300
C661	C66	0.263400	0.569200	0.956700
C671	C67	0.437500	0.216400	0.810000
C681	C68	0.419300	0.972300	0.828200
C691	C69	0.229700	0.631400	0.990600
C701	C70	0.154700	0.684900	0.973800
C711	C71	0.125800	0.682200	0.923400
C721	C72	0.163400	0.618700	0.893100
C731	C73	0.095900	0.559700	0.163300
C741	C74	0.026300	0.446600	0.214500
C751	C75	0.010300	0.588300	0.239900
C761	C76	0.057800	0.619200	0.197600
C771	C77	0.177400	0.068900	0.936700
C781	C78	0.236600	0.069200	0.043300
C791	C79	0.062500	0.716400	0.190000
C801	C80	0.080700	0.472300	0.171800
C811	C81	0.270300	0.131400	0.009400
C821	C82	0.345300	0.184900	0.026200
C831	C83	0.374200	0.182200	0.076600
C841	C84	0.336600	0.118700	0.106900
C851	C85	0.904100	0.940300	0.663300
C861	C86	0.973700	0.053400	0.714500
C871	C87	0.989700	0.911700	0.739900
C881	C88	0.942200	0.880800	0.697600
C891	C89	0.822600	0.431100	0.436700
C901	C90	0.763400	0.430800	0.543300
C911	C91	0.937500	0.783600	0.690000
C921	C92	0.919300	0.027700	0.671800
C931	C93	0.729700	0.368600	0.509400
C941	C94	0.654700	0.315100	0.526200
C951	C95	0.625800	0.317800	0.576600
C961	C96	0.663400	0.381300	0.606900
N11	N1	0.307500	0.177300	0.383270
N21	N2	0.058400	0.870500	0.580000
N31	N3	0.173000	0.874600	0.650600
N41	N4	0.258200	0.201900	0.425600
N51	N5	0.506000	0.503700	0.749100
N61	N6	0.229100	0.074000	0.743600
N71	N7	0.344900	0.097900	0.390600
N81	N8	0.114600	0.873300	0.614300
N91	N9	0.447800	0.101700	0.627500
N101	N10	0.291700	0.298700	0.231700
N111	N11	0.312500	0.358600	0.203300
N121	N12	0.268800	0.035000	0.710600
N131	N13	0.355200	0.763200	0.682780
N141	N14	0.331200	0.416700	0.172600
N151	N15	0.519300	0.765100	0.689420
N161	N16	0.484900	0.847500	0.680940
N171	N17	0.188400	0.111900	0.777600
N181	N18	0.450100	0.024200	0.634700
N191	N19	0.270800	0.132200	0.456800
N201	N20	0.444400	0.180300	0.625200
N211	N21	0.232000	0.062600	0.591800
N221	N22	0.388500	0.845900	0.677040
N231	N23	0.692500	0.322700	0.883270
N241	N24	0.941600	0.629500	0.080000
N251	N25	0.827000	0.625400	0.150600
N261	N26	0.741800	0.298100	0.925600
N271	N27	0.494000	0.996300	0.249100
N281	N28	0.770900	0.426000	0.243600
N291	N29	0.655100	0.402100	0.890600
N301	N30	0.885400	0.626700	0.114300
N311	N31	0.552200	0.398300	0.127500
N321	N32	0.708300	0.201300	0.731700
N331	N33	0.687500	0.141400	0.703300
N341	N34	0.731200	0.465000	0.210600
N351	N35	0.644800	0.736800	0.182780
N361	N36	0.668800	0.083300	0.672600
N371	N37	0.480700	0.734900	0.189420
N381	N38	0.515100	0.652500	0.180940
N391	N39	0.811600	0.388100	0.277600
N401	N40	0.549900	0.475800	0.134700
N411	N41	0.729200	0.367800	0.956800
N421	N42	0.555600	0.319700	0.125200
N431	N43	0.768000	0.437400	0.091800
N441	N44	0.611500	0.654100	0.177040
N451	N45	0.807500	0.822700	0.116730
N461	N46	0.558400	0.129500	0.920000
N471	N47	0.673000	0.125400	0.849400
N481	N48	0.758200	0.798100	0.074400
N491	N49	0.006000	0.496300	0.750900
N501	N50	0.729100	0.926000	0.756400
N511	N51	0.844900	0.902100	0.109400
N521	N52	0.614600	0.126700	0.885700
N531	N53	0.947800	0.898300	0.872500
N541	N54	0.791700	0.701300	0.268300
N551	N55	0.812500	0.641400	0.296700
N561	N56	0.768800	0.965000	0.789400
N571	N57	0.855200	0.236800	0.817220
N581	N58	0.831200	0.583300	0.327400
N591	N59	0.019300	0.234900	0.810580
N601	N60	0.984900	0.152500	0.819060
N611	N61	0.688400	0.888100	0.722400
N621	N62	0.950100	0.975800	0.865300
N631	N63	0.770800	0.867800	0.043200
N641	N64	0.944400	0.819700	0.874800
N651	N65	0.732000	0.937400	0.908200
N661	N66	0.888500	0.154100	0.822960
N671	N67	0.192500	0.677300	0.616730
N681	N68	0.441600	0.370500	0.420000
N691	N69	0.327000	0.374600	0.349400
N701	N70	0.241800	0.701900	0.574400
N711	N71	0.994000	0.003700	0.250900
N721	N72	0.270900	0.574000	0.256400
N731	N73	0.155100	0.597900	0.609400
N741	N74	0.385400	0.373300	0.385700
N751	N75	0.052200	0.601700	0.372500
N761	N76	0.208300	0.798700	0.768300
N771	N77	0.187500	0.858600	0.796700
N781	N78	0.231200	0.535000	0.289400
N791	N79	0.144800	0.263200	0.317220
N801	N80	0.168800	0.916700	0.827400
N811	N81	0.980700	0.265100	0.310580
N821	N82	0.015100	0.347500	0.319060
N831	N83	0.311600	0.611900	0.222400
N841	N84	0.049900	0.524200	0.365300
N851	N85	0.229200	0.632200	0.543200
N861	N86	0.055600	0.680300	0.374800
N871	N87	0.268000	0.562600	0.408200
N881	N88	0.111500	0.345900	0.322960
N891	N89	0.692500	0.822700	0.616730
N901	N90	0.941600	0.129500	0.420000
N911	N91	0.827000	0.125400	0.349400
N921	N92	0.741800	0.798100	0.574400
N931	N93	0.494000	0.496300	0.250900
N941	N94	0.770900	0.926000	0.256400
N951	N95	0.655100	0.902100	0.609400
N961	N96	0.885400	0.126700	0.385700
N971	N97	0.552200	0.898300	0.372500
N981	N98	0.708300	0.701300	0.768300
N991	N99	0.687500	0.641400	0.796700
N1001	N100	0.731200	0.965000	0.289400
N1011	N101	0.644800	0.236800	0.317220
N1021	N102	0.668800	0.583300	0.827400
N1031	N103	0.480700	0.234900	0.310580
N1041	N104	0.515100	0.152500	0.319060
N1051	N105	0.811600	0.888100	0.222400
N1061	N106	0.549900	0.975800	0.365300
N1071	N107	0.729200	0.867800	0.543200
N1081	N108	0.555600	0.819700	0.374800
N1091	N109	0.768000	0.937400	0.408200
N1101	N110	0.611500	0.154100	0.322960
N1111	N111	0.307500	0.677300	0.116730
N1121	N112	0.058400	0.370500	0.920000
N1131	N113	0.173000	0.374600	0.849400
N1141	N114	0.258200	0.701900	0.074400
N1151	N115	0.506000	0.003700	0.750900
N1161	N116	0.229100	0.574000	0.756400
N1171	N117	0.344900	0.597900	0.109400
N1181	N118	0.114600	0.373300	0.885700
N1191	N119	0.447800	0.601700	0.872500
N1201	N120	0.291700	0.798700	0.268300
N1211	N121	0.312500	0.858600	0.296700
N1221	N122	0.268800	0.535000	0.789400
N1231	N123	0.355200	0.263200	0.817220
N1241	N124	0.331200	0.916700	0.327400
N1251	N125	0.519300	0.265100	0.810580
N1261	N126	0.484900	0.347500	0.819060
N1271	N127	0.188400	0.611900	0.722400
N1281	N128	0.450100	0.524200	0.865300
N1291	N129	0.270800	0.632200	0.043200
N1301	N130	0.444400	0.680300	0.874800
N1311	N131	0.232000	0.562600	0.908200
N1321	N132	0.388500	0.345900	0.822960
N1331	N133	0.192500	0.177300	0.883270
N1341	N134	0.441600	0.870500	0.080000
N1351	N135	0.327000	0.874600	0.150600
N1361	N136	0.241800	0.201900	0.925600
N1371	N137	0.994000	0.503700	0.249100
N1381	N138	0.270900	0.074000	0.243600
N1391	N139	0.155100	0.097900	0.890600
N1401	N140	0.385400	0.873300	0.114300
N1411	N141	0.052200	0.101700	0.127500
N1421	N142	0.208300	0.298700	0.731700
N1431	N143	0.187500	0.358600	0.703300
N1441	N144	0.231200	0.035000	0.210600
N1451	N145	0.144800	0.763200	0.182780
N1461	N146	0.168800	0.416700	0.672600
N1471	N147	0.980700	0.765100	0.189420
N1481	N148	0.015100	0.847500	0.180940
N1491	N149	0.311600	0.111900	0.277600
N1501	N150	0.049900	0.024200	0.134700
N1511	N151	0.229200	0.132200	0.956800
N1521	N152	0.055600	0.180300	0.125200
N1531	N153	0.268000	0.062600	0.091800
N1541	N154	0.111500	0.845900	0.177040
N1551	N155	0.807500	0.322700	0.383270
N1561	N156	0.558400	0.629500	0.580000
N1571	N157	0.673000	0.625400	0.650600
N1581	N158	0.758200	0.298100	0.425600
N1591	N159	0.006000	0.996300	0.749100
N1601	N160	0.729100	0.426000	0.743600
N1611	N161	0.844900	0.402100	0.390600
N1621	N162	0.614600	0.626700	0.614300
N1631	N163	0.947800	0.398300	0.627500
N1641	N164	0.791700	0.201300	0.231700
N1651	N165	0.812500	0.141400	0.203300
N1661	N166	0.768800	0.465000	0.710600
N1671	N167	0.855200	0.736800	0.682780
N1681	N168	0.831200	0.083300	0.172600
N1691	N169	0.019300	0.734900	0.689420
N1701	N170	0.984900	0.652500	0.680940
N1711	N171	0.688400	0.388100	0.777600
N1721	N172	0.950100	0.475800	0.634700
N1731	N173	0.770800	0.367800	0.456800
N1741	N174	0.944400	0.319700	0.625200
N1751	N175	0.732000	0.437400	0.591800
N1761	N176	0.888500	0.654100	0.677040
