data_VODSEM_clean_PM
_symmetry_space_group_name_H-M	'P1'
_cell_length_a	6.724000
_cell_length_b	14.096000
_cell_length_c	23.984000
_cell_angle_alpha	90.000000
_cell_angle_beta	90.000000
_cell_angle_gamma	90.000000
_symmetry_Int_Tables_number 1

loop_
_symmetry_equiv_pos_as_xyz
'x,y,z'

loop_
_atom_site_label
_atom_site_type_symbol
_atom_site_fract_x
_atom_site_fract_y
_atom_site_fract_z
La11	La1	0.882310	0.205890	0.633990
La21	La2	0.382310	0.294110	0.866010
La31	La3	0.617690	0.205890	0.366010
La41	La4	0.117690	0.294110	0.133990
La51	La5	0.117690	0.794110	0.366010
La61	La6	0.617690	0.705890	0.133990
La71	La7	0.382310	0.794110	0.633990
La81	La8	0.882310	0.705890	0.866010
C11	C1	0.024500	0.391100	0.732500
C21	C2	0.056600	0.433600	0.787600
C31	C3	0.015200	0.526900	0.766200
C41	C4	0.989400	0.487100	0.709500
C51	C5	0.859600	0.203500	0.491400
C61	C6	0.524500	0.108900	0.767500
C71	C7	0.556600	0.066400	0.712400
C81	C8	0.515200	0.973100	0.733800
C91	C9	0.489400	0.012900	0.790500
C101	C10	0.359600	0.296500	0.008600
C111	C11	0.475500	0.391100	0.267500
C121	C12	0.443400	0.433600	0.212400
C131	C13	0.484800	0.526900	0.233800
C141	C14	0.510600	0.487100	0.290500
C151	C15	0.640400	0.203500	0.508600
C161	C16	0.975500	0.108900	0.232500
C171	C17	0.943400	0.066400	0.287600
C181	C18	0.984800	0.973100	0.266200
C191	C19	0.010600	0.012900	0.209500
C201	C20	0.140400	0.296500	0.991400
C211	C21	0.975500	0.608900	0.267500
C221	C22	0.943400	0.566400	0.212400
C231	C23	0.984800	0.473100	0.233800
C241	C24	0.010600	0.512900	0.290500
C251	C25	0.140400	0.796500	0.508600
C261	C26	0.475500	0.891100	0.232500
C271	C27	0.443400	0.933600	0.287600
C281	C28	0.484800	0.026900	0.266200
C291	C29	0.510600	0.987100	0.209500
C301	C30	0.640400	0.703500	0.991400
C311	C31	0.524500	0.608900	0.732500
C321	C32	0.556600	0.566400	0.787600
C331	C33	0.515200	0.473100	0.766200
C341	C34	0.489400	0.512900	0.709500
C351	C35	0.359600	0.796500	0.491400
C361	C36	0.024500	0.891100	0.767500
C371	C37	0.056600	0.933600	0.712400
C381	C38	0.015200	0.026900	0.733800
C391	C39	0.989400	0.987100	0.790500
C401	C40	0.859600	0.703500	0.008600
O11	O1	0.024800	0.308600	0.713400
O21	O2	0.104800	0.403500	0.835300
O31	O3	0.005900	0.609400	0.785800
O41	O4	0.955100	0.520600	0.662600
O51	O5	0.987600	0.205900	0.529200
O61	O6	0.894300	0.199400	0.439750
O71	O7	0.524800	0.191400	0.786600
O81	O8	0.604800	0.096500	0.664700
O91	O9	0.505900	0.890600	0.714200
O101	O10	0.455100	0.979400	0.837400
O111	O11	0.487600	0.294100	0.970800
O121	O12	0.394300	0.300600	0.060250
O131	O13	0.475200	0.308600	0.286600
O141	O14	0.395200	0.403500	0.164700
O151	O15	0.494100	0.609400	0.214200
O161	O16	0.544900	0.520600	0.337400
O171	O17	0.512400	0.205900	0.470800
O181	O18	0.605700	0.199400	0.560250
O191	O19	0.975200	0.191400	0.213400
O201	O20	0.895200	0.096500	0.335300
O211	O21	0.994100	0.890600	0.285800
O221	O22	0.044900	0.979400	0.162600
O231	O23	0.012400	0.294100	0.029200
O241	O24	0.105700	0.300600	0.939750
O251	O25	0.975200	0.691400	0.286600
O261	O26	0.895200	0.596500	0.164700
O271	O27	0.994100	0.390600	0.214200
O281	O28	0.044900	0.479400	0.337400
O291	O29	0.012400	0.794100	0.470800
O301	O30	0.105700	0.800600	0.560250
O311	O31	0.475200	0.808600	0.213400
O321	O32	0.395200	0.903500	0.335300
O331	O33	0.494100	0.109400	0.285800
O341	O34	0.544900	0.020600	0.162600
O351	O35	0.512400	0.705900	0.029200
O361	O36	0.605700	0.699400	0.939750
O371	O37	0.524800	0.691400	0.713400
O381	O38	0.604800	0.596500	0.835300
O391	O39	0.505900	0.390600	0.785800
O401	O40	0.455100	0.479400	0.662600
O411	O41	0.487600	0.794100	0.529200
O421	O42	0.394300	0.800600	0.439750
O431	O43	0.024800	0.808600	0.786600
O441	O44	0.104800	0.903500	0.664700
O451	O45	0.005900	0.109400	0.714200
O461	O46	0.955100	0.020600	0.837400
O471	O47	0.987600	0.705900	0.970800
O481	O48	0.894300	0.699400	0.060250
