data_VOFFED_clean_PM
_symmetry_space_group_name_H-M	'P1'
_cell_length_a	30.802000
_cell_length_b	15.945000
_cell_length_c	16.473800
_cell_angle_alpha	90.000000
_cell_angle_beta	90.000000
_cell_angle_gamma	90.000000
_symmetry_Int_Tables_number 1

loop_
_symmetry_equiv_pos_as_xyz
'x,y,z'

loop_
_atom_site_label
_atom_site_type_symbol
_atom_site_fract_x
_atom_site_fract_y
_atom_site_fract_z
S11	S1	0.332630	0.682680	0.510540
O11	O1	0.288870	0.961900	0.247800
O21	O2	0.250920	0.845000	0.274200
O31	O3	0.425330	0.015200	0.387500
O41	O4	0.441790	0.945700	0.500500
O51	O5	0.374820	0.644200	0.513100
O61	O6	0.301560	0.632400	0.465700
O71	O7	0.316700	0.708100	0.589700
N11	N1	0.284700	0.555300	0.064300
N21	N2	0.289200	0.549000	0.893100
N31	N3	0.287760	0.945000	0.080200
N41	N4	0.482100	0.921300	0.087200
C11	C1	0.309100	0.799600	0.396800
H11	H1	0.285200	0.763600	0.386700
C21	C2	0.339400	0.778500	0.454800
C31	C3	0.374400	0.829900	0.470200
H21	H2	0.395300	0.813900	0.509600
C41	C4	0.379300	0.904900	0.428600
C51	C5	0.348900	0.926400	0.369400
H31	H3	0.352200	0.977300	0.340100
C61	C6	0.313700	0.874000	0.352800
C71	C7	0.281500	0.894100	0.286700
C81	C8	0.417700	0.960300	0.438900
C91	C9	0.331500	0.942000	0.089700
H41	H4	0.344100	0.971400	0.134000
C101	C10	0.270600	0.902800	0.015400
C111	C11	0.341600	0.855800	0.972800
C121	C12	0.297500	0.860600	0.962600
H51	H5	0.284900	0.833500	0.917000
C131	C13	0.358300	0.898800	0.038700
H61	H6	0.388700	0.898300	0.048500
C141	C14	0.370600	0.803300	0.919800
H71	H7	0.367600	0.743900	0.936200
H81	H8	0.401100	0.820100	0.929700
C151	C15	0.361400	0.810200	0.828500
H91	H9	0.330300	0.823400	0.820800
H101	H10	0.378400	0.857500	0.806200
C161	C16	0.372200	0.731100	0.780400
H111	H11	0.366400	0.740300	0.721900
H121	H12	0.403300	0.716900	0.787000
C171	C17	0.344600	0.661200	0.811600
C181	C18	0.300300	0.659900	0.796900
H131	H13	0.288000	0.697500	0.758400
C191	C19	0.274100	0.604900	0.837500
H141	H14	0.243800	0.605800	0.826400
C201	C20	0.332400	0.545000	0.901000
H151	H15	0.344200	0.503500	0.936100
C211	C21	0.361300	0.598500	0.860600
C221	C22	0.306000	0.512600	0.120800
H161	H16	0.303800	0.453200	0.119300
C231	C23	0.286700	0.639000	0.070300
H171	H17	0.272000	0.672500	0.031300
C241	C24	0.309300	0.677400	0.131400
H181	H18	0.309200	0.736900	0.134600
C251	C25	0.330600	0.546900	0.180400
H191	H19	0.346400	0.512000	0.216500
C261	C26	0.332300	0.632200	0.188100
C271	C27	0.359600	0.674200	0.249600
H201	H20	0.340300	0.701100	0.290000
H211	H21	0.376700	0.630900	0.278400
C281	C28	0.385200	0.728600	0.222700
H221	H22	0.368400	0.781200	0.217400
H231	H23	0.393100	0.711100	0.167000
C291	C29	0.426500	0.750900	0.264600
H241	H24	0.446000	0.701600	0.267700
H251	H25	0.420700	0.771200	0.320300
C301	C30	0.448300	0.824300	0.210100
C311	C31	0.444900	0.903400	0.207000
H261	H26	0.429000	0.931700	0.248100
C321	C32	0.466600	0.785200	0.139800
H271	H27	0.464700	0.726300	0.131800
C331	C33	0.462100	0.945800	0.150400
H281	H28	0.459700	0.004900	0.156200
C341	C34	0.488000	0.838400	0.081400
H291	H29	0.505800	0.815200	0.040000
S21	S2	0.167370	0.317320	0.510540
O81	O8	0.211130	0.038100	0.247800
O91	O9	0.249080	0.155000	0.274200
O101	O10	0.074670	0.984800	0.387500
O111	O11	0.058210	0.054300	0.500500
O121	O12	0.125180	0.355800	0.513100
O131	O13	0.198440	0.367600	0.465700
O141	O14	0.183300	0.291900	0.589700
N51	N5	0.215300	0.444700	0.064300
N61	N6	0.210800	0.451000	0.893100
N71	N7	0.212240	0.055000	0.080200
N81	N8	0.017900	0.078700	0.087200
C351	C35	0.190900	0.200400	0.396800
H301	H30	0.214800	0.236400	0.386700
C361	C36	0.160600	0.221500	0.454800
C371	C37	0.125600	0.170100	0.470200
H311	H31	0.104700	0.186100	0.509600
C381	C38	0.120700	0.095100	0.428600
C391	C39	0.151100	0.073600	0.369400
H321	H32	0.147800	0.022700	0.340100
C401	C40	0.186300	0.126000	0.352800
C411	C41	0.218500	0.105900	0.286700
C421	C42	0.082300	0.039700	0.438900
C431	C43	0.168500	0.058000	0.089700
H331	H33	0.155900	0.028600	0.134000
C441	C44	0.229400	0.097200	0.015400
C451	C45	0.158400	0.144200	0.972800
C461	C46	0.202500	0.139400	0.962600
H341	H34	0.215100	0.166500	0.917000
C471	C47	0.141700	0.101200	0.038700
H351	H35	0.111300	0.101700	0.048500
C481	C48	0.129400	0.196700	0.919800
H361	H36	0.132400	0.256100	0.936200
H371	H37	0.098900	0.179900	0.929700
C491	C49	0.138600	0.189800	0.828500
H381	H38	0.169700	0.176600	0.820800
H391	H39	0.121600	0.142500	0.806200
C501	C50	0.127800	0.268900	0.780400
H401	H40	0.133600	0.259700	0.721900
H411	H41	0.096700	0.283100	0.787000
C511	C51	0.155400	0.338800	0.811600
C521	C52	0.199700	0.340100	0.796900
H421	H42	0.212000	0.302500	0.758400
C531	C53	0.225900	0.395100	0.837500
H431	H43	0.256200	0.394200	0.826400
C541	C54	0.167600	0.455000	0.901000
H441	H44	0.155800	0.496500	0.936100
C551	C55	0.138700	0.401500	0.860600
C561	C56	0.194000	0.487400	0.120800
H451	H45	0.196200	0.546800	0.119300
C571	C57	0.213300	0.361000	0.070300
H461	H46	0.228000	0.327500	0.031300
C581	C58	0.190700	0.322600	0.131400
H471	H47	0.190800	0.263100	0.134600
C591	C59	0.169400	0.453100	0.180400
H481	H48	0.153600	0.488000	0.216500
C601	C60	0.167700	0.367800	0.188100
C611	C61	0.140400	0.325800	0.249600
H491	H49	0.159700	0.298900	0.290000
H501	H50	0.123300	0.369100	0.278400
C621	C62	0.114800	0.271400	0.222700
H511	H51	0.131600	0.218800	0.217400
H521	H52	0.106900	0.288900	0.167000
C631	C63	0.073500	0.249100	0.264600
H531	H53	0.054000	0.298400	0.267700
H541	H54	0.079300	0.228800	0.320300
C641	C64	0.051700	0.175700	0.210100
C651	C65	0.055100	0.096600	0.207000
H551	H55	0.071000	0.068300	0.248100
C661	C66	0.033400	0.214800	0.139800
H561	H56	0.035300	0.273700	0.131800
C671	C67	0.037900	0.054200	0.150400
H571	H57	0.040300	0.995100	0.156200
C681	C68	0.012000	0.161600	0.081400
H581	H58	0.994200	0.184800	0.040000
S31	S3	0.667370	0.682680	0.989460
O151	O15	0.711130	0.961900	0.252200
O161	O16	0.749080	0.845000	0.225800
O171	O17	0.574670	0.015200	0.112500
O181	O18	0.558210	0.945700	0.999500
O191	O19	0.625180	0.644200	0.986900
O201	O20	0.698440	0.632400	0.034300
O211	O21	0.683300	0.708100	0.910300
N91	N9	0.715300	0.555300	0.435700
N101	N10	0.710800	0.549000	0.606900
N111	N11	0.712240	0.945000	0.419800
N121	N12	0.517900	0.921300	0.412800
C691	C69	0.690900	0.799600	0.103200
H591	H59	0.714800	0.763600	0.113300
C701	C70	0.660600	0.778500	0.045200
C711	C71	0.625600	0.829900	0.029800
H601	H60	0.604700	0.813900	0.990400
C721	C72	0.620700	0.904900	0.071400
C731	C73	0.651100	0.926400	0.130600
H611	H61	0.647800	0.977300	0.159900
C741	C74	0.686300	0.874000	0.147200
C751	C75	0.718500	0.894100	0.213300
C761	C76	0.582300	0.960300	0.061100
C771	C77	0.668500	0.942000	0.410300
H621	H62	0.655900	0.971400	0.366000
C781	C78	0.729400	0.902800	0.484600
C791	C79	0.658400	0.855800	0.527200
C801	C80	0.702500	0.860600	0.537400
H631	H63	0.715100	0.833500	0.583000
C811	C81	0.641700	0.898800	0.461300
H641	H64	0.611300	0.898300	0.451500
C821	C82	0.629400	0.803300	0.580200
H651	H65	0.632400	0.743900	0.563800
H661	H66	0.598900	0.820100	0.570300
C831	C83	0.638600	0.810200	0.671500
H671	H67	0.669700	0.823400	0.679200
H681	H68	0.621600	0.857500	0.693800
C841	C84	0.627800	0.731100	0.719600
H691	H69	0.633600	0.740300	0.778100
H701	H70	0.596700	0.716900	0.713000
C851	C85	0.655400	0.661200	0.688400
C861	C86	0.699700	0.659900	0.703100
H711	H71	0.712000	0.697500	0.741600
C871	C87	0.725900	0.604900	0.662500
H721	H72	0.756200	0.605800	0.673600
C881	C88	0.667600	0.545000	0.599000
H731	H73	0.655800	0.503500	0.563900
C891	C89	0.638700	0.598500	0.639400
C901	C90	0.694000	0.512600	0.379200
H741	H74	0.696200	0.453200	0.380700
C911	C91	0.713300	0.639000	0.429700
H751	H75	0.728000	0.672500	0.468700
C921	C92	0.690700	0.677400	0.368600
H761	H76	0.690800	0.736900	0.365400
C931	C93	0.669400	0.546900	0.319600
H771	H77	0.653600	0.512000	0.283500
C941	C94	0.667700	0.632200	0.311900
C951	C95	0.640400	0.674200	0.250400
H781	H78	0.659700	0.701100	0.210000
H791	H79	0.623300	0.630900	0.221600
C961	C96	0.614800	0.728600	0.277300
H801	H80	0.631600	0.781200	0.282600
H811	H81	0.606900	0.711100	0.333000
C971	C97	0.573500	0.750900	0.235400
H821	H82	0.554000	0.701600	0.232300
H831	H83	0.579300	0.771200	0.179700
C981	C98	0.551700	0.824300	0.289900
C991	C99	0.555100	0.903400	0.293000
H841	H84	0.571000	0.931700	0.251900
C1001	C100	0.533400	0.785200	0.360200
H851	H85	0.535300	0.726300	0.368200
C1011	C101	0.537900	0.945800	0.349600
H861	H86	0.540300	0.004900	0.343800
C1021	C102	0.512000	0.838400	0.418600
H871	H87	0.494200	0.815200	0.460000
S41	S4	0.832630	0.317320	0.989460
O221	O22	0.788870	0.038100	0.252200
O231	O23	0.750920	0.155000	0.225800
O241	O24	0.925330	0.984800	0.112500
O251	O25	0.941790	0.054300	0.999500
O261	O26	0.874820	0.355800	0.986900
O271	O27	0.801560	0.367600	0.034300
O281	O28	0.816700	0.291900	0.910300
N131	N13	0.784700	0.444700	0.435700
N141	N14	0.789200	0.451000	0.606900
N151	N15	0.787760	0.055000	0.419800
N161	N16	0.982100	0.078700	0.412800
C1031	C103	0.809100	0.200400	0.103200
H881	H88	0.785200	0.236400	0.113300
C1041	C104	0.839400	0.221500	0.045200
C1051	C105	0.874400	0.170100	0.029800
H891	H89	0.895300	0.186100	0.990400
C1061	C106	0.879300	0.095100	0.071400
C1071	C107	0.848900	0.073600	0.130600
H901	H90	0.852200	0.022700	0.159900
C1081	C108	0.813700	0.126000	0.147200
C1091	C109	0.781500	0.105900	0.213300
C1101	C110	0.917700	0.039700	0.061100
C1111	C111	0.831500	0.058000	0.410300
H911	H91	0.844100	0.028600	0.366000
C1121	C112	0.770600	0.097200	0.484600
C1131	C113	0.841600	0.144200	0.527200
C1141	C114	0.797500	0.139400	0.537400
H921	H92	0.784900	0.166500	0.583000
C1151	C115	0.858300	0.101200	0.461300
H931	H93	0.888700	0.101700	0.451500
C1161	C116	0.870600	0.196700	0.580200
H941	H94	0.867600	0.256100	0.563800
H951	H95	0.901100	0.179900	0.570300
C1171	C117	0.861400	0.189800	0.671500
H961	H96	0.830300	0.176600	0.679200
H971	H97	0.878400	0.142500	0.693800
C1181	C118	0.872200	0.268900	0.719600
H981	H98	0.866400	0.259700	0.778100
H991	H99	0.903300	0.283100	0.713000
C1191	C119	0.844600	0.338800	0.688400
C1201	C120	0.800300	0.340100	0.703100
H1001	H100	0.788000	0.302500	0.741600
C1211	C121	0.774100	0.395100	0.662500
H1011	H101	0.743800	0.394200	0.673600
C1221	C122	0.832400	0.455000	0.599000
H1021	H102	0.844200	0.496500	0.563900
C1231	C123	0.861300	0.401500	0.639400
C1241	C124	0.806000	0.487400	0.379200
H1031	H103	0.803800	0.546800	0.380700
C1251	C125	0.786700	0.361000	0.429700
H1041	H104	0.772000	0.327500	0.468700
C1261	C126	0.809300	0.322600	0.368600
H1051	H105	0.809200	0.263100	0.365400
C1271	C127	0.830600	0.453100	0.319600
H1061	H106	0.846400	0.488000	0.283500
C1281	C128	0.832300	0.367800	0.311900
C1291	C129	0.859600	0.325800	0.250400
H1071	H107	0.840300	0.298900	0.210000
H1081	H108	0.876700	0.369100	0.221600
C1301	C130	0.885200	0.271400	0.277300
H1091	H109	0.868400	0.218800	0.282600
H1101	H110	0.893100	0.288900	0.333000
C1311	C131	0.926500	0.249100	0.235400
H1111	H111	0.946000	0.298400	0.232300
H1121	H112	0.920700	0.228800	0.179700
C1321	C132	0.948300	0.175700	0.289900
C1331	C133	0.944900	0.096600	0.293000
H1131	H113	0.929000	0.068300	0.251900
C1341	C134	0.966600	0.214800	0.360200
H1141	H114	0.964700	0.273700	0.368200
C1351	C135	0.962100	0.054200	0.349600
H1151	H115	0.959700	0.995100	0.343800
C1361	C136	0.988000	0.161600	0.418600
H1161	H116	0.005800	0.184800	0.460000
S51	S5	0.667370	0.317320	0.489460
O291	O29	0.711130	0.038100	0.752200
O301	O30	0.749080	0.155000	0.725800
O311	O31	0.574670	0.984800	0.612500
O321	O32	0.558210	0.054300	0.499500
O331	O33	0.625180	0.355800	0.486900
O341	O34	0.698440	0.367600	0.534300
O351	O35	0.683300	0.291900	0.410300
N171	N17	0.715300	0.444700	0.935700
N181	N18	0.710800	0.451000	0.106900
N191	N19	0.712240	0.055000	0.919800
N201	N20	0.517900	0.078700	0.912800
C1371	C137	0.690900	0.200400	0.603200
H1171	H117	0.714800	0.236400	0.613300
C1381	C138	0.660600	0.221500	0.545200
C1391	C139	0.625600	0.170100	0.529800
H1181	H118	0.604700	0.186100	0.490400
C1401	C140	0.620700	0.095100	0.571400
C1411	C141	0.651100	0.073600	0.630600
H1191	H119	0.647800	0.022700	0.659900
C1421	C142	0.686300	0.126000	0.647200
C1431	C143	0.718500	0.105900	0.713300
C1441	C144	0.582300	0.039700	0.561100
C1451	C145	0.668500	0.058000	0.910300
H1201	H120	0.655900	0.028600	0.866000
C1461	C146	0.729400	0.097200	0.984600
C1471	C147	0.658400	0.144200	0.027200
C1481	C148	0.702500	0.139400	0.037400
H1211	H121	0.715100	0.166500	0.083000
C1491	C149	0.641700	0.101200	0.961300
H1221	H122	0.611300	0.101700	0.951500
C1501	C150	0.629400	0.196700	0.080200
H1231	H123	0.632400	0.256100	0.063800
H1241	H124	0.598900	0.179900	0.070300
C1511	C151	0.638600	0.189800	0.171500
H1251	H125	0.669700	0.176600	0.179200
H1261	H126	0.621600	0.142500	0.193800
C1521	C152	0.627800	0.268900	0.219600
H1271	H127	0.633600	0.259700	0.278100
H1281	H128	0.596700	0.283100	0.213000
C1531	C153	0.655400	0.338800	0.188400
C1541	C154	0.699700	0.340100	0.203100
H1291	H129	0.712000	0.302500	0.241600
C1551	C155	0.725900	0.395100	0.162500
H1301	H130	0.756200	0.394200	0.173600
C1561	C156	0.667600	0.455000	0.099000
H1311	H131	0.655800	0.496500	0.063900
C1571	C157	0.638700	0.401500	0.139400
C1581	C158	0.694000	0.487400	0.879200
H1321	H132	0.696200	0.546800	0.880700
C1591	C159	0.713300	0.361000	0.929700
H1331	H133	0.728000	0.327500	0.968700
C1601	C160	0.690700	0.322600	0.868600
H1341	H134	0.690800	0.263100	0.865400
C1611	C161	0.669400	0.453100	0.819600
H1351	H135	0.653600	0.488000	0.783500
C1621	C162	0.667700	0.367800	0.811900
C1631	C163	0.640400	0.325800	0.750400
H1361	H136	0.659700	0.298900	0.710000
H1371	H137	0.623300	0.369100	0.721600
C1641	C164	0.614800	0.271400	0.777300
H1381	H138	0.631600	0.218800	0.782600
H1391	H139	0.606900	0.288900	0.833000
C1651	C165	0.573500	0.249100	0.735400
H1401	H140	0.554000	0.298400	0.732300
H1411	H141	0.579300	0.228800	0.679700
C1661	C166	0.551700	0.175700	0.789900
C1671	C167	0.555100	0.096600	0.793000
H1421	H142	0.571000	0.068300	0.751900
C1681	C168	0.533400	0.214800	0.860200
H1431	H143	0.535300	0.273700	0.868200
C1691	C169	0.537900	0.054200	0.849600
H1441	H144	0.540300	0.995100	0.843800
C1701	C170	0.512000	0.161600	0.918600
H1451	H145	0.494200	0.184800	0.960000
S61	S6	0.832630	0.682680	0.489460
O361	O36	0.788870	0.961900	0.752200
O371	O37	0.750920	0.845000	0.725800
O381	O38	0.925330	0.015200	0.612500
O391	O39	0.941790	0.945700	0.499500
O401	O40	0.874820	0.644200	0.486900
O411	O41	0.801560	0.632400	0.534300
O421	O42	0.816700	0.708100	0.410300
N211	N21	0.784700	0.555300	0.935700
N221	N22	0.789200	0.549000	0.106900
N231	N23	0.787760	0.945000	0.919800
N241	N24	0.982100	0.921300	0.912800
C1711	C171	0.809100	0.799600	0.603200
H1461	H146	0.785200	0.763600	0.613300
C1721	C172	0.839400	0.778500	0.545200
C1731	C173	0.874400	0.829900	0.529800
H1471	H147	0.895300	0.813900	0.490400
C1741	C174	0.879300	0.904900	0.571400
C1751	C175	0.848900	0.926400	0.630600
H1481	H148	0.852200	0.977300	0.659900
C1761	C176	0.813700	0.874000	0.647200
C1771	C177	0.781500	0.894100	0.713300
C1781	C178	0.917700	0.960300	0.561100
C1791	C179	0.831500	0.942000	0.910300
H1491	H149	0.844100	0.971400	0.866000
C1801	C180	0.770600	0.902800	0.984600
C1811	C181	0.841600	0.855800	0.027200
C1821	C182	0.797500	0.860600	0.037400
H1501	H150	0.784900	0.833500	0.083000
C1831	C183	0.858300	0.898800	0.961300
H1511	H151	0.888700	0.898300	0.951500
C1841	C184	0.870600	0.803300	0.080200
H1521	H152	0.867600	0.743900	0.063800
H1531	H153	0.901100	0.820100	0.070300
C1851	C185	0.861400	0.810200	0.171500
H1541	H154	0.830300	0.823400	0.179200
H1551	H155	0.878400	0.857500	0.193800
C1861	C186	0.872200	0.731100	0.219600
H1561	H156	0.866400	0.740300	0.278100
H1571	H157	0.903300	0.716900	0.213000
C1871	C187	0.844600	0.661200	0.188400
C1881	C188	0.800300	0.659900	0.203100
H1581	H158	0.788000	0.697500	0.241600
C1891	C189	0.774100	0.604900	0.162500
H1591	H159	0.743800	0.605800	0.173600
C1901	C190	0.832400	0.545000	0.099000
H1601	H160	0.844200	0.503500	0.063900
C1911	C191	0.861300	0.598500	0.139400
C1921	C192	0.806000	0.512600	0.879200
H1611	H161	0.803800	0.453200	0.880700
C1931	C193	0.786700	0.639000	0.929700
H1621	H162	0.772000	0.672500	0.968700
C1941	C194	0.809300	0.677400	0.868600
H1631	H163	0.809200	0.736900	0.865400
C1951	C195	0.830600	0.546900	0.819600
H1641	H164	0.846400	0.512000	0.783500
C1961	C196	0.832300	0.632200	0.811900
C1971	C197	0.859600	0.674200	0.750400
H1651	H165	0.840300	0.701100	0.710000
H1661	H166	0.876700	0.630900	0.721600
C1981	C198	0.885200	0.728600	0.777300
H1671	H167	0.868400	0.781200	0.782600
H1681	H168	0.893100	0.711100	0.833000
C1991	C199	0.926500	0.750900	0.735400
H1691	H169	0.946000	0.701600	0.732300
H1701	H170	0.920700	0.771200	0.679700
C2001	C200	0.948300	0.824300	0.789900
C2011	C201	0.944900	0.903400	0.793000
H1711	H171	0.929000	0.931700	0.751900
C2021	C202	0.966600	0.785200	0.860200
H1721	H172	0.964700	0.726300	0.868200
C2031	C203	0.962100	0.945800	0.849600
H1731	H173	0.959700	0.004900	0.843800
C2041	C204	0.988000	0.838400	0.918600
H1741	H174	0.005800	0.815200	0.960000
S71	S7	0.332630	0.317320	0.010540
O431	O43	0.288870	0.038100	0.747800
O441	O44	0.250920	0.155000	0.774200
O451	O45	0.425330	0.984800	0.887500
O461	O46	0.441790	0.054300	0.000500
O471	O47	0.374820	0.355800	0.013100
O481	O48	0.301560	0.367600	0.965700
O491	O49	0.316700	0.291900	0.089700
N251	N25	0.284700	0.444700	0.564300
N261	N26	0.289200	0.451000	0.393100
N271	N27	0.287760	0.055000	0.580200
N281	N28	0.482100	0.078700	0.587200
C2051	C205	0.309100	0.200400	0.896800
H1751	H175	0.285200	0.236400	0.886700
C2061	C206	0.339400	0.221500	0.954800
C2071	C207	0.374400	0.170100	0.970200
H1761	H176	0.395300	0.186100	0.009600
C2081	C208	0.379300	0.095100	0.928600
C2091	C209	0.348900	0.073600	0.869400
H1771	H177	0.352200	0.022700	0.840100
C2101	C210	0.313700	0.126000	0.852800
C2111	C211	0.281500	0.105900	0.786700
C2121	C212	0.417700	0.039700	0.938900
C2131	C213	0.331500	0.058000	0.589700
H1781	H178	0.344100	0.028600	0.634000
C2141	C214	0.270600	0.097200	0.515400
C2151	C215	0.341600	0.144200	0.472800
C2161	C216	0.297500	0.139400	0.462600
H1791	H179	0.284900	0.166500	0.417000
C2171	C217	0.358300	0.101200	0.538700
H1801	H180	0.388700	0.101700	0.548500
C2181	C218	0.370600	0.196700	0.419800
H1811	H181	0.367600	0.256100	0.436200
H1821	H182	0.401100	0.179900	0.429700
C2191	C219	0.361400	0.189800	0.328500
H1831	H183	0.330300	0.176600	0.320800
H1841	H184	0.378400	0.142500	0.306200
C2201	C220	0.372200	0.268900	0.280400
H1851	H185	0.366400	0.259700	0.221900
H1861	H186	0.403300	0.283100	0.287000
C2211	C221	0.344600	0.338800	0.311600
C2221	C222	0.300300	0.340100	0.296900
H1871	H187	0.288000	0.302500	0.258400
C2231	C223	0.274100	0.395100	0.337500
H1881	H188	0.243800	0.394200	0.326400
C2241	C224	0.332400	0.455000	0.401000
H1891	H189	0.344200	0.496500	0.436100
C2251	C225	0.361300	0.401500	0.360600
C2261	C226	0.306000	0.487400	0.620800
H1901	H190	0.303800	0.546800	0.619300
C2271	C227	0.286700	0.361000	0.570300
H1911	H191	0.272000	0.327500	0.531300
C2281	C228	0.309300	0.322600	0.631400
H1921	H192	0.309200	0.263100	0.634600
C2291	C229	0.330600	0.453100	0.680400
H1931	H193	0.346400	0.488000	0.716500
C2301	C230	0.332300	0.367800	0.688100
C2311	C231	0.359600	0.325800	0.749600
H1941	H194	0.340300	0.298900	0.790000
H1951	H195	0.376700	0.369100	0.778400
C2321	C232	0.385200	0.271400	0.722700
H1961	H196	0.368400	0.218800	0.717400
H1971	H197	0.393100	0.288900	0.667000
C2331	C233	0.426500	0.249100	0.764600
H1981	H198	0.446000	0.298400	0.767700
H1991	H199	0.420700	0.228800	0.820300
C2341	C234	0.448300	0.175700	0.710100
C2351	C235	0.444900	0.096600	0.707000
H2001	H200	0.429000	0.068300	0.748100
C2361	C236	0.466600	0.214800	0.639800
H2011	H201	0.464700	0.273700	0.631800
C2371	C237	0.462100	0.054200	0.650400
H2021	H202	0.459700	0.995100	0.656200
C2381	C238	0.488000	0.161600	0.581400
H2031	H203	0.505800	0.184800	0.540000
S81	S8	0.167370	0.682680	0.010540
O501	O50	0.211130	0.961900	0.747800
O511	O51	0.249080	0.845000	0.774200
O521	O52	0.074670	0.015200	0.887500
O531	O53	0.058210	0.945700	0.000500
O541	O54	0.125180	0.644200	0.013100
O551	O55	0.198440	0.632400	0.965700
O561	O56	0.183300	0.708100	0.089700
N291	N29	0.215300	0.555300	0.564300
N301	N30	0.210800	0.549000	0.393100
N311	N31	0.212240	0.945000	0.580200
N321	N32	0.017900	0.921300	0.587200
C2391	C239	0.190900	0.799600	0.896800
H2041	H204	0.214800	0.763600	0.886700
C2401	C240	0.160600	0.778500	0.954800
C2411	C241	0.125600	0.829900	0.970200
H2051	H205	0.104700	0.813900	0.009600
C2421	C242	0.120700	0.904900	0.928600
C2431	C243	0.151100	0.926400	0.869400
H2061	H206	0.147800	0.977300	0.840100
C2441	C244	0.186300	0.874000	0.852800
C2451	C245	0.218500	0.894100	0.786700
C2461	C246	0.082300	0.960300	0.938900
C2471	C247	0.168500	0.942000	0.589700
H2071	H207	0.155900	0.971400	0.634000
C2481	C248	0.229400	0.902800	0.515400
C2491	C249	0.158400	0.855800	0.472800
C2501	C250	0.202500	0.860600	0.462600
H2081	H208	0.215100	0.833500	0.417000
C2511	C251	0.141700	0.898800	0.538700
H2091	H209	0.111300	0.898300	0.548500
C2521	C252	0.129400	0.803300	0.419800
H2101	H210	0.132400	0.743900	0.436200
H2111	H211	0.098900	0.820100	0.429700
C2531	C253	0.138600	0.810200	0.328500
H2121	H212	0.169700	0.823400	0.320800
H2131	H213	0.121600	0.857500	0.306200
C2541	C254	0.127800	0.731100	0.280400
H2141	H214	0.133600	0.740300	0.221900
H2151	H215	0.096700	0.716900	0.287000
C2551	C255	0.155400	0.661200	0.311600
C2561	C256	0.199700	0.659900	0.296900
H2161	H216	0.212000	0.697500	0.258400
C2571	C257	0.225900	0.604900	0.337500
H2171	H217	0.256200	0.605800	0.326400
C2581	C258	0.167600	0.545000	0.401000
H2181	H218	0.155800	0.503500	0.436100
C2591	C259	0.138700	0.598500	0.360600
C2601	C260	0.194000	0.512600	0.620800
H2191	H219	0.196200	0.453200	0.619300
C2611	C261	0.213300	0.639000	0.570300
H2201	H220	0.228000	0.672500	0.531300
C2621	C262	0.190700	0.677400	0.631400
H2211	H221	0.190800	0.736900	0.634600
C2631	C263	0.169400	0.546900	0.680400
H2221	H222	0.153600	0.512000	0.716500
C2641	C264	0.167700	0.632200	0.688100
C2651	C265	0.140400	0.674200	0.749600
H2231	H223	0.159700	0.701100	0.790000
H2241	H224	0.123300	0.630900	0.778400
C2661	C266	0.114800	0.728600	0.722700
H2251	H225	0.131600	0.781200	0.717400
H2261	H226	0.106900	0.711100	0.667000
C2671	C267	0.073500	0.750900	0.764600
H2271	H227	0.054000	0.701600	0.767700
H2281	H228	0.079300	0.771200	0.820300
C2681	C268	0.051700	0.824300	0.710100
C2691	C269	0.055100	0.903400	0.707000
H2291	H229	0.071000	0.931700	0.748100
C2701	C270	0.033400	0.785200	0.639800
H2301	H230	0.035300	0.726300	0.631800
C2711	C271	0.037900	0.945800	0.650400
H2311	H231	0.040300	0.004900	0.656200
C2721	C272	0.012000	0.838400	0.581400
H2321	H232	0.994200	0.815200	0.540000
Cu11	Cu1	0.250000	0.000000	0.162740
Cu21	Cu2	0.750000	0.000000	0.337260
Cu31	Cu3	0.750000	0.000000	0.837260
Cu41	Cu4	0.250000	0.000000	0.662740
Cu51	Cu5	0.250000	0.500000	0.976360
Cu61	Cu6	0.750000	0.500000	0.523640
Cu71	Cu7	0.750000	0.500000	0.023640
Cu81	Cu8	0.250000	0.500000	0.476360
Cu91	Cu9	0.500000	0.000000	0.500000
Cu101	Cu10	0.000000	0.000000	0.500000
Cu111	Cu11	0.500000	0.000000	0.000000
Cu121	Cu12	0.000000	0.000000	0.000000
