data_VOGTIV_clean_h_PM
_symmetry_space_group_name_H-M	'P1'
_cell_length_a	6.758800
_cell_length_b	15.194100
_cell_length_c	15.194100
_cell_angle_alpha	62.158900
_cell_angle_beta	81.472900
_cell_angle_gamma	98.527100
_symmetry_Int_Tables_number 1

loop_
_symmetry_equiv_pos_as_xyz
'x,y,z'

loop_
_atom_site_label
_atom_site_type_symbol
_atom_site_fract_x
_atom_site_fract_y
_atom_site_fract_z
Mg11	Mg1	0.389980	0.420240	0.314160
Mg21	Mg2	0.704140	0.314160	0.265600
Mg31	Mg3	0.969740	0.265600	0.420240
Mg41	Mg4	0.610020	0.579760	0.685840
Mg51	Mg5	0.295860	0.685840	0.734400
Mg61	Mg6	0.030260	0.734400	0.579760
C11	C1	0.765250	0.438030	0.382680
C21	C2	0.890680	0.462290	0.448850
C31	C3	0.808880	0.535760	0.476420
C41	C4	0.064250	0.437930	0.467780
C51	C5	0.147930	0.382680	0.179290
C61	C6	0.339530	0.448850	0.088860
C71	C7	0.285300	0.476420	0.987820
C81	C8	0.532030	0.467780	0.094290
C91	C9	0.327220	0.179290	0.438030
C101	C10	0.428390	0.088860	0.462290
C111	C11	0.273120	0.987820	0.535760
C121	C12	0.626320	0.094290	0.437930
C131	C13	0.234750	0.561970	0.617320
C141	C14	0.109320	0.537710	0.551150
C151	C15	0.191120	0.464240	0.523580
C161	C16	0.935750	0.562070	0.532220
C171	C17	0.852070	0.617320	0.820710
C181	C18	0.660470	0.551150	0.911140
C191	C19	0.714700	0.523580	0.012180
C201	C20	0.467970	0.532220	0.905710
C211	C21	0.672780	0.820710	0.561970
C221	C22	0.571610	0.911140	0.537710
C231	C23	0.726880	0.012180	0.464240
C241	C24	0.373680	0.905710	0.562070
O11	O1	0.602830	0.475020	0.368730
O21	O2	0.820300	0.380600	0.352400
O31	O3	0.135010	0.371490	0.438660
O41	O4	0.971560	0.368730	0.156250
O51	O5	0.172700	0.352400	0.267000
O61	O6	0.573670	0.438660	0.189850
O71	O7	0.127810	0.156250	0.475020
O81	O8	0.439700	0.267000	0.380600
O91	O9	0.763520	0.189850	0.371490
O101	O10	0.397170	0.524980	0.631270
O111	O11	0.179700	0.619400	0.647600
O121	O12	0.864990	0.628510	0.561340
O131	O13	0.028440	0.631270	0.843750
O141	O14	0.827300	0.647600	0.733000
O151	O15	0.426330	0.561340	0.810150
O161	O16	0.872190	0.843750	0.524980
O171	O17	0.560300	0.733000	0.619400
O181	O18	0.236480	0.810150	0.628510
H11	H1	0.666030	0.561290	0.452350
H21	H2	0.118380	0.452350	0.986360
H31	H3	0.104750	0.986360	0.561290
H41	H4	0.329570	0.430190	0.540370
H51	H5	0.869940	0.540370	0.029450
H61	H6	0.895250	0.013640	0.438710
