data_VOHQEO_clean_PM
_symmetry_space_group_name_H-M	'P1'
_cell_length_a	9.265000
_cell_length_b	9.397000
_cell_length_c	9.238000
_cell_angle_alpha	94.360000
_cell_angle_beta	90.640000
_cell_angle_gamma	103.670000
_symmetry_Int_Tables_number 1

loop_
_symmetry_equiv_pos_as_xyz
'x,y,z'

loop_
_atom_site_label
_atom_site_type_symbol
_atom_site_fract_x
_atom_site_fract_y
_atom_site_fract_z
Ga11	Ga1	0.139080	0.085990	0.435650
Ga21	Ga2	0.608900	0.341380	0.392300
Ga31	Ga3	0.625000	0.921410	0.157170
P11	P1	0.377220	0.090210	0.185260
P21	P2	0.379560	0.329510	0.626640
P31	P3	0.167760	0.850140	0.643410
F11	F1	0.979900	0.909400	0.387500
O11	O1	0.439400	0.953100	0.177600
O21	O2	0.271200	0.266700	0.502300
O31	O3	0.539600	0.346200	0.574700
O41	O4	0.231400	0.911600	0.797500
O51	O5	0.210900	0.702500	0.608500
O61	O6	0.236700	0.959700	0.536100
O71	O7	0.227600	0.059700	0.255100
O81	O8	0.357300	0.240500	0.758700
O91	O9	0.998400	0.811800	0.646700
O101	O10	0.487700	0.218500	0.262200
O111	O11	0.358900	0.481200	0.681900
O121	O12	0.354300	0.132900	0.032000
Ga41	Ga4	0.860920	0.914010	0.564350
Ga51	Ga5	0.391100	0.658620	0.607700
Ga61	Ga6	0.375000	0.078590	0.842830
P41	P4	0.622780	0.909790	0.814740
P51	P5	0.620440	0.670490	0.373360
P61	P6	0.832240	0.149860	0.356590
F21	F2	0.020100	0.090600	0.612500
O131	O13	0.560600	0.046900	0.822400
O141	O14	0.728800	0.733300	0.497700
O151	O15	0.460400	0.653800	0.425300
O161	O16	0.768600	0.088400	0.202500
O171	O17	0.789100	0.297500	0.391500
O181	O18	0.763300	0.040300	0.463900
O191	O19	0.772400	0.940300	0.744900
O201	O20	0.642700	0.759500	0.241300
O211	O21	0.001600	0.188200	0.353300
O221	O22	0.512300	0.781500	0.737800
O231	O23	0.641100	0.518800	0.318100
O241	O24	0.645700	0.867100	0.968000
