data_VOKJIQ_clean_PM
_symmetry_space_group_name_H-M	'P1'
_cell_length_a	8.583100
_cell_length_b	17.677000
_cell_length_c	10.435300
_cell_angle_alpha	90.000000
_cell_angle_beta	123.887000
_cell_angle_gamma	90.000000
_symmetry_Int_Tables_number 1

loop_
_symmetry_equiv_pos_as_xyz
'x,y,z'

loop_
_atom_site_label
_atom_site_type_symbol
_atom_site_fract_x
_atom_site_fract_y
_atom_site_fract_z
P11	P1	0.665270	0.706750	0.473530
P21	P2	0.229870	0.830520	0.496180
P31	P3	0.009520	0.572570	0.357900
Al11	Al1	0.210900	0.703920	0.287200
Al21	Al2	0.022700	0.609270	0.661560
Al31	Al3	0.666600	0.676680	0.191420
O11	O1	0.133300	0.794040	0.179600
H11	H1	0.147800	0.785300	0.103200
O21	O2	0.193000	0.748980	0.438800
O31	O3	0.083800	0.587050	0.526000
O41	O4	0.436500	0.850600	0.570100
O51	O5	0.461500	0.690740	0.407000
O61	O6	0.780200	0.636520	0.555800
O71	O7	0.030800	0.490720	0.328800
O81	O8	0.801900	0.595250	0.258100
O91	O9	0.179900	0.841380	0.613100
O101	O10	0.692600	0.728650	0.344900
O111	O11	0.119200	0.617930	0.310200
O121	O12	0.114200	0.886060	0.364600
O131	O13	0.735600	0.772150	0.589000
P41	P4	0.334730	0.206750	0.026470
P51	P5	0.770130	0.330520	0.003820
P61	P6	0.990480	0.072570	0.142100
Al41	Al4	0.789100	0.203920	0.212800
Al51	Al5	0.977300	0.109270	0.838440
Al61	Al6	0.333400	0.176680	0.308580
O141	O14	0.866700	0.294040	0.320400
H21	H2	0.852200	0.285300	0.396800
O151	O15	0.807000	0.248980	0.061200
O161	O16	0.916200	0.087050	0.974000
O171	O17	0.563500	0.350600	0.929900
O181	O18	0.538500	0.190740	0.093000
O191	O19	0.219800	0.136520	0.944200
O201	O20	0.969200	0.990720	0.171200
O211	O21	0.198100	0.095250	0.241900
O221	O22	0.820100	0.341380	0.886900
O231	O23	0.307400	0.228650	0.155100
O241	O24	0.880800	0.117930	0.189800
O251	O25	0.885800	0.386060	0.135400
O261	O26	0.264400	0.272150	0.911000
P71	P7	0.334730	0.293250	0.526470
P81	P8	0.770130	0.169480	0.503820
P91	P9	0.990480	0.427430	0.642100
Al71	Al7	0.789100	0.296080	0.712800
Al81	Al8	0.977300	0.390730	0.338440
Al91	Al9	0.333400	0.323320	0.808580
O271	O27	0.866700	0.205960	0.820400
H31	H3	0.852200	0.214700	0.896800
O281	O28	0.807000	0.251020	0.561200
O291	O29	0.916200	0.412950	0.474000
O301	O30	0.563500	0.149400	0.429900
O311	O31	0.538500	0.309260	0.593000
O321	O32	0.219800	0.363480	0.444200
O331	O33	0.969200	0.509280	0.671200
O341	O34	0.198100	0.404750	0.741900
O351	O35	0.820100	0.158620	0.386900
O361	O36	0.307400	0.271350	0.655100
O371	O37	0.880800	0.382070	0.689800
O381	O38	0.885800	0.113940	0.635400
O391	O39	0.264400	0.227850	0.411000
P101	P10	0.665270	0.793250	0.973530
P111	P11	0.229870	0.669480	0.996180
P121	P12	0.009520	0.927430	0.857900
Al101	Al10	0.210900	0.796080	0.787200
Al111	Al11	0.022700	0.890730	0.161560
Al121	Al12	0.666600	0.823320	0.691420
O401	O40	0.133300	0.705960	0.679600
H41	H4	0.147800	0.714700	0.603200
O411	O41	0.193000	0.751020	0.938800
O421	O42	0.083800	0.912950	0.026000
O431	O43	0.436500	0.649400	0.070100
O441	O44	0.461500	0.809260	0.907000
O451	O45	0.780200	0.863480	0.055800
O461	O46	0.030800	0.009280	0.828800
O471	O47	0.801900	0.904750	0.758100
O481	O48	0.179900	0.658620	0.113100
O491	O49	0.692600	0.771350	0.844900
O501	O50	0.119200	0.882070	0.810200
O511	O51	0.114200	0.613940	0.864600
O521	O52	0.735600	0.727850	0.089000
