data_VONDEJ_clean_PM
_symmetry_space_group_name_H-M	'P1'
_cell_length_a	10.553600
_cell_length_b	17.313000
_cell_length_c	10.393700
_cell_angle_alpha	90.000000
_cell_angle_beta	99.502000
_cell_angle_gamma	90.000000
_symmetry_Int_Tables_number 1

loop_
_symmetry_equiv_pos_as_xyz
'x,y,z'

loop_
_atom_site_label
_atom_site_type_symbol
_atom_site_fract_x
_atom_site_fract_y
_atom_site_fract_z
Zn11	Zn1	0.151300	0.165190	0.822310
Zn21	Zn2	0.949980	0.167240	0.116380
P11	P1	0.870000	0.286250	0.326000
P21	P2	0.225600	0.226700	0.100000
O11	O1	0.135900	0.159700	0.123400
O21	O2	0.967200	0.350000	0.303200
O31	O3	0.909600	0.207200	0.279000
O41	O4	0.903700	0.057000	0.117700
O51	O5	0.231800	0.236100	0.956000
O61	O6	0.854300	0.281700	0.468800
O71	O7	0.180100	0.303400	0.150400
O81	O8	0.776100	0.938900	0.148400
C11	C1	0.486200	0.266100	0.165300
H11	H1	0.501500	0.262900	0.074000
H21	H2	0.455000	0.318900	0.179300
C21	C2	0.381500	0.207800	0.184700
H31	H3	0.377300	0.205100	0.279000
H41	H4	0.408200	0.156200	0.157800
C31	C3	0.611000	0.253400	0.255200
H51	H5	0.640300	0.199900	0.244100
H61	H6	0.596500	0.259100	0.346400
C41	C4	0.717600	0.309700	0.231300
H71	H7	0.725100	0.308800	0.137600
H81	H8	0.693400	0.362800	0.253200
P31	P3	0.789200	0.009000	0.063400
O91	O9	0.796100	0.984600	0.920200
H91	H9	0.818600	0.938100	0.918900
C51	C5	0.526600	0.035800	0.967300
H101	H10	0.546400	0.020700	0.880900
H111	H11	0.459900	0.076500	0.953500
C61	C6	0.647800	0.068300	0.050700
H121	H12	0.629300	0.077600	0.139700
H131	H13	0.667100	0.118900	0.014100
Zn31	Zn3	0.848700	0.665190	0.677690
Zn41	Zn4	0.050020	0.667240	0.383620
P41	P4	0.130000	0.786250	0.174000
P51	P5	0.774400	0.726700	0.400000
O101	O10	0.864100	0.659700	0.376600
O111	O11	0.032800	0.850000	0.196800
O121	O12	0.090400	0.707200	0.221000
O131	O13	0.096300	0.557000	0.382300
O141	O14	0.768200	0.736100	0.544000
O151	O15	0.145700	0.781700	0.031200
O161	O16	0.819900	0.803400	0.349600
O171	O17	0.223900	0.438900	0.351600
C71	C7	0.513800	0.766100	0.334700
H141	H14	0.498500	0.762900	0.426000
H151	H15	0.545000	0.818900	0.320700
C81	C8	0.618500	0.707800	0.315300
H161	H16	0.622700	0.705100	0.221000
H171	H17	0.591800	0.656200	0.342200
C91	C9	0.389000	0.753400	0.244800
H181	H18	0.359700	0.699900	0.255900
H191	H19	0.403500	0.759100	0.153600
C101	C10	0.282400	0.809700	0.268700
H201	H20	0.274900	0.808800	0.362400
H211	H21	0.306600	0.862800	0.246800
P61	P6	0.210800	0.509000	0.436600
O181	O18	0.203900	0.484600	0.579800
H221	H22	0.181400	0.438100	0.581100
C111	C11	0.473400	0.535800	0.532700
H231	H23	0.453600	0.520700	0.619100
H241	H24	0.540100	0.576500	0.546500
C121	C12	0.352200	0.568300	0.449300
H251	H25	0.370700	0.577600	0.360300
H261	H26	0.332900	0.618900	0.485900
Zn51	Zn5	0.848700	0.834810	0.177690
Zn61	Zn6	0.050020	0.832760	0.883620
P71	P7	0.130000	0.713750	0.674000
P81	P8	0.774400	0.773300	0.900000
O191	O19	0.864100	0.840300	0.876600
O201	O20	0.032800	0.650000	0.696800
O211	O21	0.090400	0.792800	0.721000
O221	O22	0.096300	0.943000	0.882300
O231	O23	0.768200	0.763900	0.044000
O241	O24	0.145700	0.718300	0.531200
O251	O25	0.819900	0.696600	0.849600
O261	O26	0.223900	0.061100	0.851600
C131	C13	0.513800	0.733900	0.834700
H271	H27	0.498500	0.737100	0.926000
H281	H28	0.545000	0.681100	0.820700
C141	C14	0.618500	0.792200	0.815300
H291	H29	0.622700	0.794900	0.721000
H301	H30	0.591800	0.843800	0.842200
C151	C15	0.389000	0.746600	0.744800
H311	H31	0.359700	0.800100	0.755900
H321	H32	0.403500	0.740900	0.653600
C161	C16	0.282400	0.690300	0.768700
H331	H33	0.274900	0.691200	0.862400
H341	H34	0.306600	0.637200	0.746800
P91	P9	0.210800	0.991000	0.936600
O271	O27	0.203900	0.015400	0.079800
H351	H35	0.181400	0.061900	0.081100
C171	C17	0.473400	0.964200	0.032700
H361	H36	0.453600	0.979300	0.119100
H371	H37	0.540100	0.923500	0.046500
C181	C18	0.352200	0.931700	0.949300
H381	H38	0.370700	0.922400	0.860300
H391	H39	0.332900	0.881100	0.985900
Zn71	Zn7	0.151300	0.334810	0.322310
Zn81	Zn8	0.949980	0.332760	0.616380
P101	P10	0.870000	0.213750	0.826000
P111	P11	0.225600	0.273300	0.600000
O281	O28	0.135900	0.340300	0.623400
O291	O29	0.967200	0.150000	0.803200
O301	O30	0.909600	0.292800	0.779000
O311	O31	0.903700	0.443000	0.617700
O321	O32	0.231800	0.263900	0.456000
O331	O33	0.854300	0.218300	0.968800
O341	O34	0.180100	0.196600	0.650400
O351	O35	0.776100	0.561100	0.648400
C191	C19	0.486200	0.233900	0.665300
H401	H40	0.501500	0.237100	0.574000
H411	H41	0.455000	0.181100	0.679300
C201	C20	0.381500	0.292200	0.684700
H421	H42	0.377300	0.294900	0.779000
H431	H43	0.408200	0.343800	0.657800
C211	C21	0.611000	0.246600	0.755200
H441	H44	0.640300	0.300100	0.744100
H451	H45	0.596500	0.240900	0.846400
C221	C22	0.717600	0.190300	0.731300
H461	H46	0.725100	0.191200	0.637600
H471	H47	0.693400	0.137200	0.753200
P121	P12	0.789200	0.491000	0.563400
O361	O36	0.796100	0.515400	0.420200
H481	H48	0.818600	0.561900	0.418900
C231	C23	0.526600	0.464200	0.467300
H491	H49	0.546400	0.479300	0.380900
H501	H50	0.459900	0.423500	0.453500
C241	C24	0.647800	0.431700	0.550700
H511	H51	0.629300	0.422400	0.639700
H521	H52	0.667100	0.381100	0.514100
