data_VOTKEW_clean_PM
_symmetry_space_group_name_H-M	'P1'
_cell_length_a	23.984000
_cell_length_b	13.122000
_cell_length_c	11.917000
_cell_angle_alpha	90.000000
_cell_angle_beta	90.000000
_cell_angle_gamma	90.000000
_symmetry_Int_Tables_number 1

loop_
_symmetry_equiv_pos_as_xyz
'x,y,z'

loop_
_atom_site_label
_atom_site_type_symbol
_atom_site_fract_x
_atom_site_fract_y
_atom_site_fract_z
O11	O1	0.480750	0.681700	0.883300
O21	O2	0.503030	0.584800	0.739500
N11	N1	0.326690	0.200100	0.988300
N21	N2	0.319810	0.122600	0.061100
N31	N3	0.355180	0.128600	0.144000
N41	N4	0.387400	0.210800	0.126000
C11	C1	0.368920	0.253700	0.032300
C21	C2	0.392930	0.345400	0.980100
C31	C3	0.399110	0.435300	0.039300
H11	H1	0.386200	0.439900	0.112700
C41	C4	0.424720	0.519100	0.988900
H21	H2	0.428100	0.579900	0.028600
C51	C5	0.445060	0.512800	0.881000
C61	C6	0.437400	0.423900	0.821400
H31	H3	0.449300	0.419900	0.747200
C71	C7	0.412100	0.340200	0.871400
H41	H4	0.408100	0.280000	0.831000
C81	C8	0.478210	0.598900	0.830600
C91	C9	0.244830	0.086400	0.310300
H51	H5	0.241900	0.147400	0.270900
C101	C10	0.243620	0.090000	0.426300
H61	H6	0.238600	0.151800	0.463100
C111	C11	0.265700	0.085200	0.673800
H71	H7	0.276600	0.144400	0.637000
C121	C12	0.265200	0.082200	0.789400
H81	H8	0.275900	0.140400	0.828300
O31	O3	0.019250	0.318300	0.883300
O41	O4	0.996970	0.415200	0.739500
N51	N5	0.173310	0.799900	0.988300
N61	N6	0.180190	0.877400	0.061100
N71	N7	0.144820	0.871400	0.144000
N81	N8	0.112600	0.789200	0.126000
C131	C13	0.131080	0.746300	0.032300
C141	C14	0.107070	0.654600	0.980100
C151	C15	0.100890	0.564700	0.039300
H91	H9	0.113800	0.560100	0.112700
C161	C16	0.075280	0.480900	0.988900
H101	H10	0.071900	0.420100	0.028600
C171	C17	0.054940	0.487200	0.881000
C181	C18	0.062600	0.576100	0.821400
H111	H11	0.050700	0.580100	0.747200
C191	C19	0.087900	0.659800	0.871400
H121	H12	0.091900	0.720000	0.831000
C201	C20	0.021790	0.401100	0.830600
C211	C21	0.255170	0.913600	0.310300
H131	H13	0.258100	0.852600	0.270900
C221	C22	0.256380	0.910000	0.426300
H141	H14	0.261400	0.848200	0.463100
C231	C23	0.234300	0.914800	0.673800
H151	H15	0.223400	0.855600	0.637000
C241	C24	0.234800	0.917800	0.789400
H161	H16	0.224100	0.859600	0.828300
O51	O5	0.019250	0.181700	0.616700
O61	O6	0.996970	0.084800	0.760500
N91	N9	0.173310	0.700100	0.511700
N101	N10	0.180190	0.622600	0.438900
N111	N11	0.144820	0.628600	0.356000
N121	N12	0.112600	0.710800	0.374000
C251	C25	0.131080	0.753700	0.467700
C261	C26	0.107070	0.845400	0.519900
C271	C27	0.100890	0.935300	0.460700
H171	H17	0.113800	0.939900	0.387300
C281	C28	0.075280	0.019100	0.511100
H181	H18	0.071900	0.079900	0.471400
C291	C29	0.054940	0.012800	0.619000
C301	C30	0.062600	0.923900	0.678600
H191	H19	0.050700	0.919900	0.752800
C311	C31	0.087900	0.840200	0.628600
H201	H20	0.091900	0.780000	0.669000
C321	C32	0.021790	0.098900	0.669400
C331	C33	0.255170	0.586400	0.189700
H211	H21	0.258100	0.647400	0.229100
C341	C34	0.256380	0.590000	0.073700
H221	H22	0.261400	0.651800	0.036900
C351	C35	0.234300	0.585200	0.826200
H231	H23	0.223400	0.644400	0.863000
C361	C36	0.234800	0.582200	0.710600
H241	H24	0.224100	0.640400	0.671700
O71	O7	0.480750	0.818300	0.616700
O81	O8	0.503030	0.915200	0.760500
N131	N13	0.326690	0.299900	0.511700
N141	N14	0.319810	0.377400	0.438900
N151	N15	0.355180	0.371400	0.356000
N161	N16	0.387400	0.289200	0.374000
C371	C37	0.368920	0.246300	0.467700
C381	C38	0.392930	0.154600	0.519900
C391	C39	0.399110	0.064700	0.460700
H251	H25	0.386200	0.060100	0.387300
C401	C40	0.424720	0.980900	0.511100
H261	H26	0.428100	0.920100	0.471400
C411	C41	0.445060	0.987200	0.619000
C421	C42	0.437400	0.076100	0.678600
H271	H27	0.449300	0.080100	0.752800
C431	C43	0.412100	0.159800	0.628600
H281	H28	0.408100	0.220000	0.669000
C441	C44	0.478210	0.901100	0.669400
C451	C45	0.244830	0.413600	0.189700
H291	H29	0.241900	0.352600	0.229100
C461	C46	0.243620	0.410000	0.073700
H301	H30	0.238600	0.348200	0.036900
C471	C47	0.265700	0.414800	0.826200
H311	H31	0.276600	0.355600	0.863000
C481	C48	0.265200	0.417800	0.710600
H321	H32	0.275900	0.359600	0.671700
O91	O9	0.519250	0.318300	0.116700
O101	O10	0.496970	0.415200	0.260500
N171	N17	0.673310	0.799900	0.011700
N181	N18	0.680190	0.877400	0.938900
N191	N19	0.644820	0.871400	0.856000
N201	N20	0.612600	0.789200	0.874000
C491	C49	0.631080	0.746300	0.967700
C501	C50	0.607070	0.654600	0.019900
C511	C51	0.600890	0.564700	0.960700
H331	H33	0.613800	0.560100	0.887300
C521	C52	0.575280	0.480900	0.011100
H341	H34	0.571900	0.420100	0.971400
C531	C53	0.554940	0.487200	0.119000
C541	C54	0.562600	0.576100	0.178600
H351	H35	0.550700	0.580100	0.252800
C551	C55	0.587900	0.659800	0.128600
H361	H36	0.591900	0.720000	0.169000
C561	C56	0.521790	0.401100	0.169400
C571	C57	0.755170	0.913600	0.689700
H371	H37	0.758100	0.852600	0.729100
C581	C58	0.756380	0.910000	0.573700
H381	H38	0.761400	0.848200	0.536900
C591	C59	0.734300	0.914800	0.326200
H391	H39	0.723400	0.855600	0.363000
C601	C60	0.734800	0.917800	0.210600
H401	H40	0.724100	0.859600	0.171700
O111	O11	0.980750	0.681700	0.116700
O121	O12	0.003030	0.584800	0.260500
N211	N21	0.826690	0.200100	0.011700
N221	N22	0.819810	0.122600	0.938900
N231	N23	0.855180	0.128600	0.856000
N241	N24	0.887400	0.210800	0.874000
C611	C61	0.868920	0.253700	0.967700
C621	C62	0.892930	0.345400	0.019900
C631	C63	0.899110	0.435300	0.960700
H411	H41	0.886200	0.439900	0.887300
C641	C64	0.924720	0.519100	0.011100
H421	H42	0.928100	0.579900	0.971400
C651	C65	0.945060	0.512800	0.119000
C661	C66	0.937400	0.423900	0.178600
H431	H43	0.949300	0.419900	0.252800
C671	C67	0.912100	0.340200	0.128600
H441	H44	0.908100	0.280000	0.169000
C681	C68	0.978210	0.598900	0.169400
C691	C69	0.744830	0.086400	0.689700
H451	H45	0.741900	0.147400	0.729100
C701	C70	0.743620	0.090000	0.573700
H461	H46	0.738600	0.151800	0.536900
C711	C71	0.765700	0.085200	0.326200
H471	H47	0.776600	0.144400	0.363000
C721	C72	0.765200	0.082200	0.210600
H481	H48	0.775900	0.140400	0.171700
O131	O13	0.980750	0.818300	0.383300
O141	O14	0.003030	0.915200	0.239500
N251	N25	0.826690	0.299900	0.488300
N261	N26	0.819810	0.377400	0.561100
N271	N27	0.855180	0.371400	0.644000
N281	N28	0.887400	0.289200	0.626000
C731	C73	0.868920	0.246300	0.532300
C741	C74	0.892930	0.154600	0.480100
C751	C75	0.899110	0.064700	0.539300
H491	H49	0.886200	0.060100	0.612700
C761	C76	0.924720	0.980900	0.488900
H501	H50	0.928100	0.920100	0.528600
C771	C77	0.945060	0.987200	0.381000
C781	C78	0.937400	0.076100	0.321400
H511	H51	0.949300	0.080100	0.247200
C791	C79	0.912100	0.159800	0.371400
H521	H52	0.908100	0.220000	0.331000
C801	C80	0.978210	0.901100	0.330600
C811	C81	0.744830	0.413600	0.810300
H531	H53	0.741900	0.352600	0.770900
C821	C82	0.743620	0.410000	0.926300
H541	H54	0.738600	0.348200	0.963100
C831	C83	0.765700	0.414800	0.173800
H551	H55	0.776600	0.355600	0.137000
C841	C84	0.765200	0.417800	0.289400
H561	H56	0.775900	0.359600	0.328300
O151	O15	0.519250	0.181700	0.383300
O161	O16	0.496970	0.084800	0.239500
N291	N29	0.673310	0.700100	0.488300
N301	N30	0.680190	0.622600	0.561100
N311	N31	0.644820	0.628600	0.644000
N321	N32	0.612600	0.710800	0.626000
C851	C85	0.631080	0.753700	0.532300
C861	C86	0.607070	0.845400	0.480100
C871	C87	0.600890	0.935300	0.539300
H571	H57	0.613800	0.939900	0.612700
C881	C88	0.575280	0.019100	0.488900
H581	H58	0.571900	0.079900	0.528600
C891	C89	0.554940	0.012800	0.381000
C901	C90	0.562600	0.923900	0.321400
H591	H59	0.550700	0.919900	0.247200
C911	C91	0.587900	0.840200	0.371400
H601	H60	0.591900	0.780000	0.331000
C921	C92	0.521790	0.098900	0.330600
C931	C93	0.755170	0.586400	0.810300
H611	H61	0.758100	0.647400	0.770900
C941	C94	0.756380	0.590000	0.926300
H621	H62	0.761400	0.651800	0.963100
C951	C95	0.734300	0.585200	0.173800
H631	H63	0.723400	0.644400	0.137000
C961	C96	0.734800	0.582200	0.289400
H641	H64	0.724100	0.640400	0.328300
Cd11	Cd1	0.250000	0.000000	0.051180
N331	N33	0.250000	0.000000	0.251600
N341	N34	0.250000	0.000000	0.848700
C971	C97	0.250000	0.000000	0.487400
C981	C98	0.250000	0.000000	0.612200
Cd21	Cd2	0.250000	0.500000	0.448820
N351	N35	0.250000	0.500000	0.248400
N361	N36	0.250000	0.500000	0.651300
C991	C99	0.250000	0.500000	0.012600
C1001	C100	0.250000	0.500000	0.887800
Cd31	Cd3	0.750000	0.000000	0.948820
N371	N37	0.750000	0.000000	0.748400
N381	N38	0.750000	0.000000	0.151300
C1011	C101	0.750000	0.000000	0.512600
C1021	C102	0.750000	0.000000	0.387800
Cd41	Cd4	0.750000	0.500000	0.551180
N391	N39	0.750000	0.500000	0.751600
N401	N40	0.750000	0.500000	0.348700
C1031	C103	0.750000	0.500000	0.987400
C1041	C104	0.750000	0.500000	0.112200
Cd51	Cd5	0.457540	0.250000	0.250000
Cd61	Cd6	0.042460	0.750000	0.250000
Cd71	Cd7	0.542460	0.750000	0.750000
Cd81	Cd8	0.957540	0.250000	0.750000
