data_VOTMAS_clean_PM
_symmetry_space_group_name_H-M	'P1'
_cell_length_a	11.357400
_cell_length_b	11.357400
_cell_length_c	16.028000
_cell_angle_alpha	85.207900
_cell_angle_beta	85.207900
_cell_angle_gamma	61.037200
_symmetry_Int_Tables_number 1

loop_
_symmetry_equiv_pos_as_xyz
'x,y,z'

loop_
_atom_site_label
_atom_site_type_symbol
_atom_site_fract_x
_atom_site_fract_y
_atom_site_fract_z
Sr11	Sr1	0.057850	0.660770	0.986880
Sr21	Sr2	0.339230	0.942150	0.513120
Sr31	Sr3	0.942150	0.339230	0.013120
Sr41	Sr4	0.660770	0.057850	0.486880
Ca11	Ca1	0.880440	0.312240	0.748270
Ca21	Ca2	0.687760	0.119560	0.751730
Ca31	Ca3	0.119560	0.687760	0.251730
Ca41	Ca4	0.312240	0.880440	0.248270
H11	H1	0.761900	0.636900	0.554300
H21	H2	0.753200	0.654600	0.660700
H31	H3	0.975100	0.597900	0.608600
H41	H4	0.983900	0.461900	0.562500
H51	H5	0.701800	0.463000	0.518100
H61	H6	0.847000	0.375800	0.521100
H71	H7	0.560100	0.500100	0.659300
H81	H8	0.547300	0.646500	0.633900
H91	H9	0.201700	0.388700	0.652800
H101	H10	0.181600	0.293000	0.730900
H111	H11	0.069200	0.561000	0.751800
H121	H12	0.901700	0.600500	0.779600
H131	H13	0.363100	0.238100	0.945700
H141	H14	0.345400	0.246800	0.839300
H151	H15	0.402100	0.024900	0.891400
H161	H16	0.538100	0.016100	0.937500
H171	H17	0.537000	0.298200	0.981900
H181	H18	0.624200	0.153000	0.978900
H191	H19	0.499900	0.439900	0.840700
H201	H20	0.353500	0.452700	0.866100
H211	H21	0.611300	0.798300	0.847200
H221	H22	0.707000	0.818400	0.769100
H231	H23	0.439000	0.930800	0.748200
H241	H24	0.399500	0.098300	0.720400
H251	H25	0.238100	0.363100	0.445700
H261	H26	0.246800	0.345400	0.339300
H271	H27	0.024900	0.402100	0.391400
H281	H28	0.016100	0.538100	0.437500
H291	H29	0.298200	0.537000	0.481900
H301	H30	0.153000	0.624200	0.478900
H311	H31	0.439900	0.499900	0.340700
H321	H32	0.452700	0.353500	0.366100
H331	H33	0.798300	0.611300	0.347200
H341	H34	0.818400	0.707000	0.269100
H351	H35	0.930800	0.439000	0.248200
H361	H36	0.098300	0.399500	0.220400
H371	H37	0.636900	0.761900	0.054300
H381	H38	0.654600	0.753200	0.160700
H391	H39	0.597900	0.975100	0.108600
H401	H40	0.461900	0.983900	0.062500
H411	H41	0.463000	0.701800	0.018100
H421	H42	0.375800	0.847000	0.021100
H431	H43	0.500100	0.560100	0.159300
H441	H44	0.646500	0.547300	0.133900
H451	H45	0.388700	0.201700	0.152800
H461	H46	0.293000	0.181600	0.230900
H471	H47	0.561000	0.069200	0.251800
H481	H48	0.600500	0.901700	0.279600
C11	C1	0.795400	0.592000	0.618800
C21	C2	0.944300	0.532100	0.618600
C31	C3	0.748700	0.290500	0.582900
C41	C4	0.759100	0.418100	0.559800
C51	C5	0.609800	0.566800	0.662900
C61	C6	0.589900	0.599300	0.754400
C71	C7	0.142300	0.343500	0.674700
C81	C8	0.143500	0.239300	0.620400
C91	C9	0.000400	0.522400	0.765500
C101	C10	0.021000	0.441400	0.848300
C111	C11	0.408000	0.204600	0.881200
C121	C12	0.467900	0.055700	0.881400
C131	C13	0.709500	0.251300	0.917100
C141	C14	0.581900	0.240900	0.940200
C151	C15	0.433200	0.390200	0.837100
C161	C16	0.400700	0.410100	0.745600
C171	C17	0.656500	0.857700	0.825300
C181	C18	0.760700	0.856500	0.879600
C191	C19	0.477600	0.999600	0.734500
C201	C20	0.558600	0.979000	0.651700
C211	C21	0.204600	0.408000	0.381200
C221	C22	0.055700	0.467900	0.381400
C231	C23	0.251300	0.709500	0.417100
C241	C24	0.240900	0.581900	0.440200
C251	C25	0.390200	0.433200	0.337100
C261	C26	0.410100	0.400700	0.245600
C271	C27	0.857700	0.656500	0.325300
C281	C28	0.856500	0.760700	0.379600
C291	C29	0.999600	0.477600	0.234500
C301	C30	0.979000	0.558600	0.151700
C311	C31	0.592000	0.795400	0.118800
C321	C32	0.532100	0.944300	0.118600
C331	C33	0.290500	0.748700	0.082900
C341	C34	0.418100	0.759100	0.059800
C351	C35	0.566800	0.609800	0.162900
C361	C36	0.599300	0.589900	0.254400
C371	C37	0.343500	0.142300	0.174700
C381	C38	0.239300	0.143500	0.120400
C391	C39	0.522400	0.000400	0.265500
C401	C40	0.441400	0.021000	0.348300
N11	N1	0.746000	0.492200	0.633300
N21	N2	0.003300	0.446100	0.695300
N31	N3	0.507800	0.254000	0.866700
N41	N4	0.553900	0.996700	0.804700
N51	N5	0.254000	0.507800	0.366700
N61	N6	0.996700	0.553900	0.304700
N71	N7	0.492200	0.746000	0.133300
N81	N8	0.446100	0.003300	0.195300
O11	O1	0.764300	0.246100	0.658500
O21	O2	0.727300	0.237100	0.525400
O31	O3	0.686600	0.526800	0.799500
O41	O4	0.480700	0.697300	0.776600
O51	O5	0.042300	0.221900	0.626200
O61	O6	0.247000	0.174600	0.574500
O71	O7	0.992600	0.348000	0.854200
O81	O8	0.059700	0.475100	0.907900
O91	O9	0.753900	0.235700	0.841500
O101	O10	0.762900	0.272700	0.974600
O111	O11	0.473200	0.313400	0.700500
O121	O12	0.302700	0.519300	0.723400
O131	O13	0.778100	0.957700	0.873800
O141	O14	0.825400	0.753000	0.925500
O151	O15	0.652000	0.007400	0.645800
O161	O16	0.524900	0.940300	0.592100
O171	O17	0.235700	0.753900	0.341500
O181	O18	0.272700	0.762900	0.474600
O191	O19	0.313400	0.473200	0.200500
O201	O20	0.519300	0.302700	0.223400
O211	O21	0.957700	0.778100	0.373800
O221	O22	0.753000	0.825400	0.425500
O231	O23	0.007400	0.652000	0.145800
O241	O24	0.940300	0.524900	0.092100
O251	O25	0.246100	0.764300	0.158500
O261	O26	0.237100	0.727300	0.025400
O271	O27	0.526800	0.686600	0.299500
O281	O28	0.697300	0.480700	0.276600
O291	O29	0.221900	0.042300	0.126200
O301	O30	0.174600	0.247000	0.074500
O311	O31	0.348000	0.992600	0.354200
O321	O32	0.475100	0.059700	0.407900
