data_VOVKUO_clean_PM
_symmetry_space_group_name_H-M	'P1'
_cell_length_a	12.647000
_cell_length_b	13.284000
_cell_length_c	24.926000
_cell_angle_alpha	90.000000
_cell_angle_beta	90.000000
_cell_angle_gamma	90.000000
_symmetry_Int_Tables_number 1

loop_
_symmetry_equiv_pos_as_xyz
'x,y,z'

loop_
_atom_site_label
_atom_site_type_symbol
_atom_site_fract_x
_atom_site_fract_y
_atom_site_fract_z
O11	O1	0.592500	0.335800	0.727200
U11	U1	0.611110	0.211920	0.802530
U21	U2	0.761060	0.307270	0.677980
U31	U3	0.905640	0.171510	0.794090
O21	O2	0.756500	0.127900	0.847200
O31	O3	0.933100	0.228300	0.700500
O41	O4	0.758200	0.237100	0.756900
O51	O5	0.658100	0.396500	0.612000
O61	O6	0.484800	0.393500	0.629900
O71	O7	0.873800	0.341800	0.603000
O81	O8	0.032600	0.391300	0.630800
C11	C1	0.563100	0.414200	0.600200
C21	C2	0.535700	0.460700	0.547800
C31	C3	0.957200	0.393200	0.599000
C41	C4	0.974000	0.453100	0.548800
O91	O9	0.407500	0.664200	0.727200
U41	U4	0.388890	0.788080	0.802530
U51	U5	0.238940	0.692730	0.677980
U61	U6	0.094360	0.828490	0.794090
O101	O10	0.243500	0.872100	0.847200
O111	O11	0.066900	0.771700	0.700500
O121	O12	0.241800	0.762900	0.756900
O131	O13	0.341900	0.603500	0.612000
O141	O14	0.515200	0.606500	0.629900
O151	O15	0.126200	0.658200	0.603000
O161	O16	0.967400	0.608700	0.630800
C51	C5	0.436900	0.585800	0.600200
C61	C6	0.464300	0.539300	0.547800
C71	C7	0.042800	0.606800	0.599000
C81	C8	0.026000	0.546900	0.548800
O171	O17	0.907500	0.835800	0.772800
U71	U7	0.888890	0.711920	0.697470
U81	U8	0.738940	0.807270	0.822020
U91	U9	0.594360	0.671510	0.705910
O181	O18	0.743500	0.627900	0.652800
O191	O19	0.566900	0.728300	0.799500
O201	O20	0.741800	0.737100	0.743100
O211	O21	0.841900	0.896500	0.888000
O221	O22	0.015200	0.893500	0.870100
O231	O23	0.626200	0.841800	0.897000
O241	O24	0.467400	0.891300	0.869200
C91	C9	0.936900	0.914200	0.899800
C101	C10	0.964300	0.960700	0.952200
C111	C11	0.542800	0.893200	0.901000
C121	C12	0.526000	0.953100	0.951200
O251	O25	0.092500	0.164200	0.772800
U101	U10	0.111110	0.288080	0.697470
U111	U11	0.261060	0.192730	0.822020
U121	U12	0.405640	0.328490	0.705910
O261	O26	0.256500	0.372100	0.652800
O271	O27	0.433100	0.271700	0.799500
O281	O28	0.258200	0.262900	0.743100
O291	O29	0.158100	0.103500	0.888000
O301	O30	0.984800	0.106500	0.870100
O311	O31	0.373800	0.158200	0.897000
O321	O32	0.532600	0.108700	0.869200
C131	C13	0.063100	0.085800	0.899800
C141	C14	0.035700	0.039300	0.952200
C151	C15	0.457200	0.106800	0.901000
C161	C16	0.474000	0.046900	0.951200
O331	O33	0.407500	0.664200	0.272800
U131	U13	0.388890	0.788080	0.197470
U141	U14	0.238940	0.692730	0.322020
U151	U15	0.094360	0.828490	0.205910
O341	O34	0.243500	0.872100	0.152800
O351	O35	0.066900	0.771700	0.299500
O361	O36	0.241800	0.762900	0.243100
O371	O37	0.341900	0.603500	0.388000
O381	O38	0.515200	0.606500	0.370100
O391	O39	0.126200	0.658200	0.397000
O401	O40	0.967400	0.608700	0.369200
C171	C17	0.436900	0.585800	0.399800
C181	C18	0.464300	0.539300	0.452200
C191	C19	0.042800	0.606800	0.401000
C201	C20	0.026000	0.546900	0.451200
O411	O41	0.592500	0.335800	0.272800
U161	U16	0.611110	0.211920	0.197470
U171	U17	0.761060	0.307270	0.322020
U181	U18	0.905640	0.171510	0.205910
O421	O42	0.756500	0.127900	0.152800
O431	O43	0.933100	0.228300	0.299500
O441	O44	0.758200	0.237100	0.243100
O451	O45	0.658100	0.396500	0.388000
O461	O46	0.484800	0.393500	0.370100
O471	O47	0.873800	0.341800	0.397000
O481	O48	0.032600	0.391300	0.369200
C211	C21	0.563100	0.414200	0.399800
C221	C22	0.535700	0.460700	0.452200
C231	C23	0.957200	0.393200	0.401000
C241	C24	0.974000	0.453100	0.451200
O491	O49	0.092500	0.164200	0.227200
U191	U19	0.111110	0.288080	0.302530
U201	U20	0.261060	0.192730	0.177980
U211	U21	0.405640	0.328490	0.294090
O501	O50	0.256500	0.372100	0.347200
O511	O51	0.433100	0.271700	0.200500
O521	O52	0.258200	0.262900	0.256900
O531	O53	0.158100	0.103500	0.112000
O541	O54	0.984800	0.106500	0.129900
O551	O55	0.373800	0.158200	0.103000
O561	O56	0.532600	0.108700	0.130800
C251	C25	0.063100	0.085800	0.100200
C261	C26	0.035700	0.039300	0.047800
C271	C27	0.457200	0.106800	0.099000
C281	C28	0.474000	0.046900	0.048800
O571	O57	0.907500	0.835800	0.227200
U221	U22	0.888890	0.711920	0.302530
U231	U23	0.738940	0.807270	0.177980
U241	U24	0.594360	0.671510	0.294090
O581	O58	0.743500	0.627900	0.347200
O591	O59	0.566900	0.728300	0.200500
O601	O60	0.741800	0.737100	0.256900
O611	O61	0.841900	0.896500	0.112000
O621	O62	0.015200	0.893500	0.129900
O631	O63	0.626200	0.841800	0.103000
O641	O64	0.467400	0.891300	0.130800
C291	C29	0.936900	0.914200	0.100200
C301	C30	0.964300	0.960700	0.047800
C311	C31	0.542800	0.893200	0.099000
C321	C32	0.526000	0.953100	0.048800
C331	C33	0.573000	0.421000	0.500000
H11	H1	0.621600	0.368900	0.500000
C341	C34	0.949000	0.409000	0.500000
H21	H2	0.913800	0.347100	0.500000
C351	C35	0.427000	0.579000	0.500000
H31	H3	0.378400	0.631100	0.500000
C361	C36	0.051000	0.591000	0.500000
H41	H4	0.086200	0.652900	0.500000
C371	C37	0.927000	0.921000	0.000000
H51	H5	0.878400	0.868900	0.000000
C381	C38	0.551000	0.909000	0.000000
H61	H6	0.586200	0.847100	0.000000
C391	C39	0.073000	0.079000	0.000000
H71	H7	0.121600	0.131100	0.000000
C401	C40	0.449000	0.091000	0.000000
H81	H8	0.413800	0.152900	0.000000
