data_VOVLAV_clean_PM
_symmetry_space_group_name_H-M	'P1'
_cell_length_a	11.683000
_cell_length_b	16.583000
_cell_length_c	22.832000
_cell_angle_alpha	90.000000
_cell_angle_beta	90.000000
_cell_angle_gamma	90.000000
_symmetry_Int_Tables_number 1

loop_
_symmetry_equiv_pos_as_xyz
'x,y,z'

loop_
_atom_site_label
_atom_site_type_symbol
_atom_site_fract_x
_atom_site_fract_y
_atom_site_fract_z
U11	U1	0.204970	0.034350	0.099310
O11	O1	0.635000	0.161600	0.269100
O21	O2	0.675300	0.036900	0.296800
O31	O3	0.438400	0.114200	0.211100
O41	O4	0.391300	0.034900	0.136400
O51	O5	0.666300	0.978500	0.984600
O61	O6	0.850600	0.977100	0.003100
O71	O7	0.008900	0.037000	0.105600
O81	O8	0.949400	0.910500	0.118000
C11	C1	0.463800	0.069000	0.168500
C21	C2	0.585400	0.053200	0.154300
C31	C3	0.614100	0.027100	0.098700
H11	H1	0.556100	0.022500	0.071000
C41	C4	0.723300	0.007700	0.082400
C51	C5	0.748400	0.985500	0.021400
C61	C6	0.812400	0.012400	0.124700
C71	C7	0.931600	0.983600	0.114000
C81	C8	0.786400	0.039800	0.180400
H21	H2	0.844200	0.043400	0.208300
C91	C9	0.674900	0.062300	0.195600
C101	C10	0.657800	0.089600	0.258600
U21	U2	0.295030	0.965650	0.599310
O91	O9	0.865000	0.838400	0.769100
O101	O10	0.824700	0.963100	0.796800
O111	O11	0.061600	0.885800	0.711100
O121	O12	0.108700	0.965100	0.636400
O131	O13	0.833700	0.021500	0.484600
O141	O14	0.649400	0.022900	0.503100
O151	O15	0.491100	0.963000	0.605600
O161	O16	0.550600	0.089500	0.618000
C111	C11	0.036200	0.931000	0.668500
C121	C12	0.914600	0.946800	0.654300
C131	C13	0.885900	0.972900	0.598700
H31	H3	0.943900	0.977500	0.571000
C141	C14	0.776700	0.992300	0.582400
C151	C15	0.751600	0.014500	0.521400
C161	C16	0.687600	0.987600	0.624700
C171	C17	0.568400	0.016400	0.614000
C181	C18	0.713600	0.960200	0.680400
H41	H4	0.655800	0.956600	0.708300
C191	C19	0.825100	0.937700	0.695600
C201	C20	0.842200	0.910400	0.758600
U31	U3	0.795030	0.534350	0.900690
O171	O17	0.365000	0.661600	0.730900
O181	O18	0.324700	0.536900	0.703200
O191	O19	0.561600	0.614200	0.788900
O201	O20	0.608700	0.534900	0.863600
O211	O21	0.333700	0.478500	0.015400
O221	O22	0.149400	0.477100	0.996900
O231	O23	0.991100	0.537000	0.894400
O241	O24	0.050600	0.410500	0.882000
C211	C21	0.536200	0.569000	0.831500
C221	C22	0.414600	0.553200	0.845700
C231	C23	0.385900	0.527100	0.901300
H51	H5	0.443900	0.522500	0.929000
C241	C24	0.276700	0.507700	0.917600
C251	C25	0.251600	0.485500	0.978600
C261	C26	0.187600	0.512400	0.875300
C271	C27	0.068400	0.483600	0.886000
C281	C28	0.213600	0.539800	0.819600
H61	H6	0.155800	0.543400	0.791700
C291	C29	0.325100	0.562300	0.804400
C301	C30	0.342200	0.589600	0.741400
U41	U4	0.704970	0.465650	0.400690
O251	O25	0.135000	0.338400	0.230900
O261	O26	0.175300	0.463100	0.203200
O271	O27	0.938400	0.385800	0.288900
O281	O28	0.891300	0.465100	0.363600
O291	O29	0.166300	0.521500	0.515400
O301	O30	0.350600	0.522900	0.496900
O311	O31	0.508900	0.463000	0.394400
O321	O32	0.449400	0.589500	0.382000
C311	C31	0.963800	0.431000	0.331500
C321	C32	0.085400	0.446800	0.345700
C331	C33	0.114100	0.472900	0.401300
H71	H7	0.056100	0.477500	0.429000
C341	C34	0.223300	0.492300	0.417600
C351	C35	0.248400	0.514500	0.478600
C361	C36	0.312400	0.487600	0.375300
C371	C37	0.431600	0.516400	0.386000
C381	C38	0.286400	0.460200	0.319600
H81	H8	0.344200	0.456600	0.291700
C391	C39	0.174900	0.437700	0.304400
C401	C40	0.157800	0.410400	0.241400
U51	U5	0.795030	0.965650	0.900690
O331	O33	0.365000	0.838400	0.730900
O341	O34	0.324700	0.963100	0.703200
O351	O35	0.561600	0.885800	0.788900
O361	O36	0.608700	0.965100	0.863600
O371	O37	0.333700	0.021500	0.015400
O381	O38	0.149400	0.022900	0.996900
O391	O39	0.991100	0.963000	0.894400
O401	O40	0.050600	0.089500	0.882000
C411	C41	0.536200	0.931000	0.831500
C421	C42	0.414600	0.946800	0.845700
C431	C43	0.385900	0.972900	0.901300
H91	H9	0.443900	0.977500	0.929000
C441	C44	0.276700	0.992300	0.917600
C451	C45	0.251600	0.014500	0.978600
C461	C46	0.187600	0.987600	0.875300
C471	C47	0.068400	0.016400	0.886000
C481	C48	0.213600	0.960200	0.819600
H101	H10	0.155800	0.956600	0.791700
C491	C49	0.325100	0.937700	0.804400
C501	C50	0.342200	0.910400	0.741400
U61	U6	0.704970	0.034350	0.400690
O411	O41	0.135000	0.161600	0.230900
O421	O42	0.175300	0.036900	0.203200
O431	O43	0.938400	0.114200	0.288900
O441	O44	0.891300	0.034900	0.363600
O451	O45	0.166300	0.978500	0.515400
O461	O46	0.350600	0.977100	0.496900
O471	O47	0.508900	0.037000	0.394400
O481	O48	0.449400	0.910500	0.382000
C511	C51	0.963800	0.069000	0.331500
C521	C52	0.085400	0.053200	0.345700
C531	C53	0.114100	0.027100	0.401300
H111	H11	0.056100	0.022500	0.429000
C541	C54	0.223300	0.007700	0.417600
C551	C55	0.248400	0.985500	0.478600
C561	C56	0.312400	0.012400	0.375300
C571	C57	0.431600	0.983600	0.386000
C581	C58	0.286400	0.039800	0.319600
H121	H12	0.344200	0.043400	0.291700
C591	C59	0.174900	0.062300	0.304400
C601	C60	0.157800	0.089600	0.241400
U71	U7	0.204970	0.465650	0.099310
O491	O49	0.635000	0.338400	0.269100
O501	O50	0.675300	0.463100	0.296800
O511	O51	0.438400	0.385800	0.211100
O521	O52	0.391300	0.465100	0.136400
O531	O53	0.666300	0.521500	0.984600
O541	O54	0.850600	0.522900	0.003100
O551	O55	0.008900	0.463000	0.105600
O561	O56	0.949400	0.589500	0.118000
C611	C61	0.463800	0.431000	0.168500
C621	C62	0.585400	0.446800	0.154300
C631	C63	0.614100	0.472900	0.098700
H131	H13	0.556100	0.477500	0.071000
C641	C64	0.723300	0.492300	0.082400
C651	C65	0.748400	0.514500	0.021400
C661	C66	0.812400	0.487600	0.124700
C671	C67	0.931600	0.516400	0.114000
C681	C68	0.786400	0.460200	0.180400
H141	H14	0.844200	0.456600	0.208300
C691	C69	0.674900	0.437700	0.195600
C701	C70	0.657800	0.410400	0.258600
U81	U8	0.295030	0.534350	0.599310
O571	O57	0.865000	0.661600	0.769100
O581	O58	0.824700	0.536900	0.796800
O591	O59	0.061600	0.614200	0.711100
O601	O60	0.108700	0.534900	0.636400
O611	O61	0.833700	0.478500	0.484600
O621	O62	0.649400	0.477100	0.503100
O631	O63	0.491100	0.537000	0.605600
O641	O64	0.550600	0.410500	0.618000
C711	C71	0.036200	0.569000	0.668500
C721	C72	0.914600	0.553200	0.654300
C731	C73	0.885900	0.527100	0.598700
H151	H15	0.943900	0.522500	0.571000
C741	C74	0.776700	0.507700	0.582400
C751	C75	0.751600	0.485500	0.521400
C761	C76	0.687600	0.512400	0.624700
C771	C77	0.568400	0.483600	0.614000
C781	C78	0.713600	0.539800	0.680400
H161	H16	0.655800	0.543400	0.708300
C791	C79	0.825100	0.562300	0.695600
C801	C80	0.842200	0.589600	0.758600
U91	U9	0.492140	0.250000	0.227670
U101	U10	0.007860	0.750000	0.727670
U111	U11	0.507860	0.750000	0.772330
U121	U12	0.992140	0.250000	0.272330
