data_VOXVEL_clean_PM
_symmetry_space_group_name_H-M	'P1'
_cell_length_a	14.695800
_cell_length_b	11.645100
_cell_length_c	20.591200
_cell_angle_alpha	90.000000
_cell_angle_beta	93.811000
_cell_angle_gamma	90.000000
_symmetry_Int_Tables_number 1

loop_
_symmetry_equiv_pos_as_xyz
'x,y,z'

loop_
_atom_site_label
_atom_site_type_symbol
_atom_site_fract_x
_atom_site_fract_y
_atom_site_fract_z
Be11	Be1	0.600600	0.673200	0.235200
Be21	Be2	0.655100	0.718300	0.506400
Be31	Be3	0.414500	0.930900	0.637800
Be41	Be4	0.347200	0.614300	0.596100
Be51	Be5	0.381500	0.274400	0.617000
P11	P1	0.635800	0.750940	0.364660
P21	P2	0.475460	0.770140	0.542380
P31	P3	0.286830	0.772680	0.695560
P41	P4	0.441690	0.463360	0.695960
P51	P5	0.285400	0.413090	0.522460
P61	P6	0.264980	0.083410	0.592380
P71	P7	0.527230	0.130460	0.661280
O11	O1	0.616400	0.660800	0.313100
O21	O2	0.627100	0.702400	0.429430
O31	O3	0.562200	0.843900	0.356600
H11	H1	0.545400	0.850200	0.318000
O41	O4	0.727000	0.806300	0.357700
O51	O5	0.563600	0.703400	0.544670
O61	O6	0.480000	0.859200	0.594860
O71	O7	0.393900	0.692700	0.545220
O81	O8	0.462300	0.832700	0.475640
H21	H2	0.501500	0.811200	0.451800
O91	O9	0.364300	0.855300	0.690570
O101	O10	0.274500	0.691800	0.638010
O111	O11	0.198000	0.839100	0.701870
O121	O12	0.307800	0.698900	0.757940
H31	H3	0.269900	0.712700	0.784400
O131	O13	0.425800	0.557100	0.646510
O141	O14	0.384000	0.357300	0.680200
O151	O15	0.411100	0.509100	0.763970
H41	H4	0.379900	0.567000	0.758100
O161	O16	0.541000	0.432800	0.706540
O171	O17	0.279200	0.524600	0.558740
O181	O18	0.367700	0.342700	0.548270
O191	O19	0.303900	0.445700	0.449470
H51	H5	0.278100	0.399400	0.424500
O201	O20	0.197700	0.345700	0.521570
O211	O21	0.298100	0.189200	0.630980
O221	O22	0.186200	0.032900	0.630900
H61	H6	0.203500	0.973700	0.649300
O231	O23	0.225500	0.116400	0.525250
O241	O24	0.339700	0.995500	0.585530
O251	O25	0.477400	0.205500	0.610240
O261	O26	0.471400	0.029000	0.680740
O271	O27	0.613000	0.081200	0.630220
H71	H7	0.656000	0.125500	0.637000
O281	O28	0.555100	0.200400	0.721940
Be61	Be6	0.100600	0.173200	0.235200
Be71	Be7	0.155100	0.218300	0.506400
Be81	Be8	0.914500	0.430900	0.637800
Be91	Be9	0.847200	0.114300	0.596100
Be101	Be10	0.881500	0.774400	0.617000
P81	P8	0.135800	0.250940	0.364660
P91	P9	0.975460	0.270140	0.542380
P101	P10	0.786830	0.272680	0.695560
P111	P11	0.941690	0.963360	0.695960
P121	P12	0.785400	0.913090	0.522460
P131	P13	0.764980	0.583410	0.592380
P141	P14	0.027230	0.630460	0.661280
O291	O29	0.116400	0.160800	0.313100
O301	O30	0.127100	0.202400	0.429430
O311	O31	0.062200	0.343900	0.356600
H81	H8	0.045400	0.350200	0.318000
O321	O32	0.227000	0.306300	0.357700
O331	O33	0.063600	0.203400	0.544670
O341	O34	0.980000	0.359200	0.594860
O351	O35	0.893900	0.192700	0.545220
O361	O36	0.962300	0.332700	0.475640
H91	H9	0.001500	0.311200	0.451800
O371	O37	0.864300	0.355300	0.690570
O381	O38	0.774500	0.191800	0.638010
O391	O39	0.698000	0.339100	0.701870
O401	O40	0.807800	0.198900	0.757940
H101	H10	0.769900	0.212700	0.784400
O411	O41	0.925800	0.057100	0.646510
O421	O42	0.884000	0.857300	0.680200
O431	O43	0.911100	0.009100	0.763970
H111	H11	0.879900	0.067000	0.758100
O441	O44	0.041000	0.932800	0.706540
O451	O45	0.779200	0.024600	0.558740
O461	O46	0.867700	0.842700	0.548270
O471	O47	0.803900	0.945700	0.449470
H121	H12	0.778100	0.899400	0.424500
O481	O48	0.697700	0.845700	0.521570
O491	O49	0.798100	0.689200	0.630980
O501	O50	0.686200	0.532900	0.630900
H131	H13	0.703500	0.473700	0.649300
O511	O51	0.725500	0.616400	0.525250
O521	O52	0.839700	0.495500	0.585530
O531	O53	0.977400	0.705500	0.610240
O541	O54	0.971400	0.529000	0.680740
O551	O55	0.113000	0.581200	0.630220
H141	H14	0.156000	0.625500	0.637000
O561	O56	0.055100	0.700400	0.721940
Be111	Be11	0.600600	0.326800	0.735200
Be121	Be12	0.655100	0.281700	0.006400
Be131	Be13	0.414500	0.069100	0.137800
Be141	Be14	0.347200	0.385700	0.096100
Be151	Be15	0.381500	0.725600	0.117000
P151	P15	0.635800	0.249060	0.864660
P161	P16	0.475460	0.229860	0.042380
P171	P17	0.286830	0.227320	0.195560
P181	P18	0.441690	0.536640	0.195960
P191	P19	0.285400	0.586910	0.022460
P201	P20	0.264980	0.916590	0.092380
P211	P21	0.527230	0.869540	0.161280
O571	O57	0.616400	0.339200	0.813100
O581	O58	0.627100	0.297600	0.929430
O591	O59	0.562200	0.156100	0.856600
H151	H15	0.545400	0.149800	0.818000
O601	O60	0.727000	0.193700	0.857700
O611	O61	0.563600	0.296600	0.044670
O621	O62	0.480000	0.140800	0.094860
O631	O63	0.393900	0.307300	0.045220
O641	O64	0.462300	0.167300	0.975640
H161	H16	0.501500	0.188800	0.951800
O651	O65	0.364300	0.144700	0.190570
O661	O66	0.274500	0.308200	0.138010
O671	O67	0.198000	0.160900	0.201870
O681	O68	0.307800	0.301100	0.257940
H171	H17	0.269900	0.287300	0.284400
O691	O69	0.425800	0.442900	0.146510
O701	O70	0.384000	0.642700	0.180200
O711	O71	0.411100	0.490900	0.263970
H181	H18	0.379900	0.433000	0.258100
O721	O72	0.541000	0.567200	0.206540
O731	O73	0.279200	0.475400	0.058740
O741	O74	0.367700	0.657300	0.048270
O751	O75	0.303900	0.554300	0.949470
H191	H19	0.278100	0.600600	0.924500
O761	O76	0.197700	0.654300	0.021570
O771	O77	0.298100	0.810800	0.130980
O781	O78	0.186200	0.967100	0.130900
H201	H20	0.203500	0.026300	0.149300
O791	O79	0.225500	0.883600	0.025250
O801	O80	0.339700	0.004500	0.085530
O811	O81	0.477400	0.794500	0.110240
O821	O82	0.471400	0.971000	0.180740
O831	O83	0.613000	0.918800	0.130220
H211	H21	0.656000	0.874500	0.137000
O841	O84	0.555100	0.799600	0.221940
Be161	Be16	0.100600	0.826800	0.735200
Be171	Be17	0.155100	0.781700	0.006400
Be181	Be18	0.914500	0.569100	0.137800
Be191	Be19	0.847200	0.885700	0.096100
Be201	Be20	0.881500	0.225600	0.117000
P221	P22	0.135800	0.749060	0.864660
P231	P23	0.975460	0.729860	0.042380
P241	P24	0.786830	0.727320	0.195560
P251	P25	0.941690	0.036640	0.195960
P261	P26	0.785400	0.086910	0.022460
P271	P27	0.764980	0.416590	0.092380
P281	P28	0.027230	0.369540	0.161280
O851	O85	0.116400	0.839200	0.813100
O861	O86	0.127100	0.797600	0.929430
O871	O87	0.062200	0.656100	0.856600
H221	H22	0.045400	0.649800	0.818000
O881	O88	0.227000	0.693700	0.857700
O891	O89	0.063600	0.796600	0.044670
O901	O90	0.980000	0.640800	0.094860
O911	O91	0.893900	0.807300	0.045220
O921	O92	0.962300	0.667300	0.975640
H231	H23	0.001500	0.688800	0.951800
O931	O93	0.864300	0.644700	0.190570
O941	O94	0.774500	0.808200	0.138010
O951	O95	0.698000	0.660900	0.201870
O961	O96	0.807800	0.801100	0.257940
H241	H24	0.769900	0.787300	0.284400
O971	O97	0.925800	0.942900	0.146510
O981	O98	0.884000	0.142700	0.180200
O991	O99	0.911100	0.990900	0.263970
H251	H25	0.879900	0.933000	0.258100
O1001	O100	0.041000	0.067200	0.206540
O1011	O101	0.779200	0.975400	0.058740
O1021	O102	0.867700	0.157300	0.048270
O1031	O103	0.803900	0.054300	0.949470
H261	H26	0.778100	0.100600	0.924500
O1041	O104	0.697700	0.154300	0.021570
O1051	O105	0.798100	0.310800	0.130980
O1061	O106	0.686200	0.467100	0.130900
H271	H27	0.703500	0.526300	0.149300
O1071	O107	0.725500	0.383600	0.025250
O1081	O108	0.839700	0.504500	0.085530
O1091	O109	0.977400	0.294500	0.110240
O1101	O110	0.971400	0.471000	0.180740
O1111	O111	0.113000	0.418800	0.130220
H281	H28	0.156000	0.374500	0.137000
O1121	O112	0.055100	0.299600	0.221940
