data_VOXYUE_clean_PM
_symmetry_space_group_name_H-M	'P1'
_cell_length_a	15.397900
_cell_length_b	11.594100
_cell_length_c	12.587900
_cell_angle_alpha	90.000000
_cell_angle_beta	93.862000
_cell_angle_gamma	90.000000
_symmetry_Int_Tables_number 1

loop_
_symmetry_equiv_pos_as_xyz
'x,y,z'

loop_
_atom_site_label
_atom_site_type_symbol
_atom_site_fract_x
_atom_site_fract_y
_atom_site_fract_z
Cd11	Cd1	0.109750	0.397740	0.036230
S11	S1	0.142950	0.220920	0.166920
Cl11	Cl1	0.154800	0.557330	0.171380
Cl21	Cl2	0.047050	0.264170	0.885310
Cl31	Cl3	0.051360	0.578220	0.896360
N11	N1	0.259700	0.108600	0.040800
C11	C1	0.212600	0.157300	0.092200
Cd21	Cd2	0.609760	0.897740	0.036230
S21	S2	0.642950	0.720920	0.166920
Cl41	Cl4	0.654800	0.057330	0.171380
Cl51	Cl5	0.547050	0.764170	0.885310
Cl61	Cl6	0.551360	0.078220	0.896360
N21	N2	0.759700	0.608600	0.040800
C21	C2	0.712600	0.657300	0.092200
Cd31	Cd3	0.890240	0.397740	0.463770
S31	S3	0.857050	0.220920	0.333080
Cl71	Cl7	0.845200	0.557330	0.328620
Cl81	Cl8	0.952950	0.264170	0.614690
Cl91	Cl9	0.948640	0.578220	0.603640
N31	N3	0.740300	0.108600	0.459200
C31	C3	0.787400	0.157300	0.407800
Cd41	Cd4	0.390250	0.897740	0.463770
S41	S4	0.357050	0.720920	0.333080
Cl101	Cl10	0.345200	0.057330	0.328620
Cl111	Cl11	0.452950	0.764170	0.614690
Cl121	Cl12	0.448640	0.078220	0.603640
N41	N4	0.240300	0.608600	0.459200
C41	C4	0.287400	0.657300	0.407800
Cd51	Cd5	0.890240	0.602260	0.963770
S51	S5	0.857050	0.779080	0.833080
Cl131	Cl13	0.845200	0.442670	0.828620
Cl141	Cl14	0.952950	0.735830	0.114690
Cl151	Cl15	0.948640	0.421780	0.103640
N51	N5	0.740300	0.891400	0.959200
C51	C5	0.787400	0.842700	0.907800
Cd61	Cd6	0.390250	0.102260	0.963770
S61	S6	0.357050	0.279080	0.833080
Cl161	Cl16	0.345200	0.942670	0.828620
Cl171	Cl17	0.452950	0.235830	0.114690
Cl181	Cl18	0.448640	0.921780	0.103640
N61	N6	0.240300	0.391400	0.959200
C61	C6	0.287400	0.342700	0.907800
Cd71	Cd7	0.109750	0.602260	0.536230
S71	S7	0.142950	0.779080	0.666920
Cl191	Cl19	0.154800	0.442670	0.671380
Cl201	Cl20	0.047050	0.735830	0.385310
Cl211	Cl21	0.051360	0.421780	0.396360
N71	N7	0.259700	0.891400	0.540800
C71	C7	0.212600	0.842700	0.592200
Cd81	Cd8	0.609760	0.102260	0.536230
S81	S8	0.642950	0.279080	0.666920
Cl221	Cl22	0.654800	0.942670	0.671380
Cl231	Cl23	0.547050	0.235830	0.385310
Cl241	Cl24	0.551360	0.921780	0.396360
N81	N8	0.759700	0.391400	0.540800
C81	C8	0.712600	0.342700	0.592200
Cd91	Cd9	0.000000	0.576000	0.250000
Cd101	Cd10	0.500000	0.076000	0.250000
Cd111	Cd11	0.000000	0.424000	0.750000
Cd121	Cd12	0.500000	0.924000	0.750000
