data_VOYGOH_clean_PM
_symmetry_space_group_name_H-M	'P1'
_cell_length_a	21.685400
_cell_length_b	29.727600
_cell_length_c	34.828600
_cell_angle_alpha	90.000000
_cell_angle_beta	96.342000
_cell_angle_gamma	90.000000
_symmetry_Int_Tables_number 1

loop_
_symmetry_equiv_pos_as_xyz
'x,y,z'

loop_
_atom_site_label
_atom_site_type_symbol
_atom_site_fract_x
_atom_site_fract_y
_atom_site_fract_z
Mo11	Mo1	0.071660	0.917200	0.030510
Mo21	Mo2	0.985840	0.929030	0.939850
Mo31	Mo3	0.229270	0.040810	0.986650
Mo41	Mo4	0.149970	0.052070	0.904380
Mo51	Mo5	0.019620	0.986030	0.889040
Mo61	Mo6	0.172950	0.964120	0.047860
Mo71	Mo7	0.308940	0.941570	0.000330
Mo81	Mo8	0.061750	0.830740	0.964940
Mo91	Mo9	0.181080	0.811270	0.921530
Mo101	Mo10	0.307460	0.877580	0.948930
Mo111	Mo11	0.218150	0.890540	0.856200
Mo121	Mo12	0.154780	0.964070	0.840970
Zn11	Zn1	0.067430	0.028770	0.983200
Zn21	Zn2	0.060300	0.869350	0.869550
Zn31	Zn3	0.203990	0.848810	0.018320
Zn41	Zn4	0.288110	0.991190	0.906550
O11	O1	0.009280	0.071160	0.002280
O21	O2	0.091970	0.980260	0.021310
O31	O3	0.018200	0.990190	0.944740
O41	O4	0.142500	0.048470	0.961420
O51	O5	0.016000	0.920470	0.889420
O61	O6	0.994000	0.861280	0.943000
O71	O7	0.153700	0.821980	0.974240
O81	O8	0.092800	0.830440	0.912170
O91	O9	0.234100	0.033360	0.929560
O101	O10	0.061800	0.852310	0.013430
O111	O11	0.198700	0.025220	0.030940
O121	O12	0.261200	0.819510	0.942610
O131	O13	0.313400	0.943360	0.944600
O141	O14	0.274900	0.880750	0.998760
O151	O15	0.066500	0.043890	0.895090
O161	O16	0.128900	0.901850	0.848000
O171	O17	0.266400	0.946960	0.050230
O181	O18	0.237600	0.953630	0.867000
O191	O19	0.301500	0.008350	0.995210
O201	O20	0.301000	0.879130	0.889610
O211	O21	0.060100	0.976650	0.837940
O221	O22	0.159540	0.899890	0.038890
O231	O23	0.169400	0.026990	0.859320
O241	O24	0.193000	0.829570	0.872590
C11	C1	0.489600	0.635800	0.300100
C21	C2	0.454700	0.662200	0.267200
C31	C3	0.456300	0.707500	0.267300
H11	H1	0.478300	0.722500	0.287900
C41	C4	0.425400	0.732500	0.237100
H21	H2	0.426200	0.763700	0.238400
C51	C5	0.394000	0.712000	0.205600
C61	C6	0.392100	0.666300	0.206000
H31	H3	0.370600	0.651200	0.185300
C71	C7	0.421900	0.641800	0.236700
H41	H4	0.419300	0.610600	0.236200
C81	C8	0.362600	0.740400	0.173700
C91	C9	0.374700	0.784700	0.172600
H51	H5	0.403300	0.797100	0.191500
C101	C10	0.345700	0.812700	0.143700
H61	H6	0.355100	0.843200	0.143700
C111	C11	0.304000	0.795600	0.115700
C121	C12	0.293200	0.750700	0.115900
H71	H7	0.266300	0.737900	0.096300
C131	C13	0.322300	0.723700	0.145300
H81	H8	0.313500	0.693000	0.145200
C141	C14	0.272400	0.827100	0.085300
O251	O25	0.496700	0.595410	0.296830
O261	O26	0.509400	0.660420	0.329160
O271	O27	0.237500	0.808320	0.058390
O281	O28	0.281600	0.867200	0.088780
C151	C15	0.618100	0.045900	0.634800
C161	C16	0.582400	0.036300	0.668400
C171	C17	0.598700	0.001700	0.693400
H91	H9	0.631500	0.982900	0.689000
C181	C18	0.567000	0.994400	0.725300
H101	H10	0.579400	0.971100	0.742200
C191	C19	0.517900	0.020700	0.732500
C201	C20	0.502200	0.055400	0.707300
H111	H11	0.468700	0.073700	0.711300
C211	C21	0.534300	0.063900	0.676300
H121	H12	0.523500	0.088500	0.660400
C221	C22	0.482700	0.011300	0.765900
C231	C23	0.479000	0.968400	0.780300
H131	H13	0.499600	0.945100	0.769100
C241	C24	0.445300	0.958700	0.811000
H141	H14	0.442000	0.929200	0.819500
C251	C25	0.417100	0.992700	0.828700
C261	C26	0.420400	0.035100	0.815400
H151	H15	0.401000	0.058400	0.827300
C271	C27	0.452800	0.043900	0.784100
H161	H16	0.454100	0.073300	0.775200
C281	C28	0.380500	0.980500	0.862100
O291	O29	0.617500	0.084300	0.621690
O301	O30	0.353000	0.013000	0.877360
O311	O31	0.647500	0.011720	0.622420
O321	O32	0.379400	0.940600	0.871500
Mo131	Mo13	0.922500	0.070020	0.455730
Mo141	Mo14	0.008450	0.084060	0.546010
Mo151	Mo15	0.977890	0.041460	0.606660
Mo161	Mo16	0.825190	0.017090	0.447540
Mo171	Mo17	0.853360	0.969740	0.605530
Mo181	Mo18	0.926330	0.171980	0.502770
Mo191	Mo19	0.803470	0.199420	0.539820
Mo201	Mo20	0.774430	0.957960	0.523100
Mo211	Mo21	0.686840	0.048810	0.489920
Mo221	Mo22	0.839970	0.072410	0.648730
Mo231	Mo23	0.771690	0.138750	0.618860
Mo241	Mo24	0.681660	0.125030	0.526730
Zn51	Zn5	0.934440	0.974180	0.523360
Zn61	Zn6	0.928080	0.159450	0.602830
Zn71	Zn7	0.786340	0.136140	0.454970
Zn81	Zn8	0.711190	0.026480	0.590290
O331	O33	0.907280	0.010680	0.476780
O341	O34	0.833540	0.082220	0.443840
O351	O35	0.996160	0.930480	0.510470
O361	O36	0.927700	0.137750	0.459670
O371	O37	0.980020	0.022630	0.553190
O381	O38	0.977000	0.105340	0.593370
O391	O39	0.995700	0.149050	0.529660
O401	O40	0.935800	0.982050	0.612600
O411	O41	0.934100	0.062080	0.653350
O421	O42	0.804300	0.962020	0.476730
O431	O43	0.730900	0.031130	0.442250
O441	O44	0.830800	0.005960	0.644060
O451	O45	0.861500	0.958850	0.549120
O461	O46	0.767800	0.979500	0.577360
O471	O47	0.716500	0.109040	0.479290
O481	O48	0.680200	0.062130	0.544280
O491	O49	0.699800	0.985480	0.508610
O501	O50	0.757000	0.074160	0.621440
O511	O51	0.861100	0.131560	0.629210
O521	O52	0.792800	0.194610	0.590900
O531	O53	0.687200	0.139810	0.584860
O541	O54	0.893200	0.185330	0.553860
O551	O55	0.833300	0.175470	0.491670
O561	O56	0.724500	0.183750	0.521410
C291	C29	0.987800	0.177900	0.673600
C301	C30	0.015600	0.207300	0.706100
C311	C31	0.061600	0.190700	0.731000
H171	H17	0.075200	0.161300	0.728200
C321	C32	0.089100	0.217600	0.760900
H181	H18	0.121700	0.205800	0.777500
C331	C33	0.070300	0.260000	0.766500
C341	C34	0.023400	0.276900	0.741300
H191	H19	0.009500	0.306200	0.744500
C351	C35	0.996000	0.250900	0.710600
H201	H20	0.964600	0.263000	0.693200
C361	C36	0.102100	0.288000	0.798100
C371	C37	0.125300	0.267400	0.832300
H211	H21	0.118300	0.236900	0.835900
C381	C38	0.159100	0.292200	0.861300
H221	H22	0.172500	0.278600	0.884800
C391	C39	0.172600	0.336000	0.855700
C401	C40	0.148600	0.357000	0.822500
H231	H23	0.155500	0.387600	0.819200
C411	C41	0.114200	0.332700	0.794000
H241	H24	0.098800	0.347200	0.771200
C421	C42	0.212900	0.361000	0.886800
O571	O57	0.988200	0.137500	0.678810
O581	O58	0.967700	0.198270	0.642450
O591	O59	0.210000	0.402000	0.888270
O601	O60	0.248200	0.336000	0.909170
Mo251	Mo25	0.428340	0.417200	0.469490
Mo261	Mo26	0.514160	0.429030	0.560150
Mo271	Mo27	0.270730	0.540810	0.513350
Mo281	Mo28	0.350030	0.552070	0.595620
Mo291	Mo29	0.480380	0.486030	0.610960
Mo301	Mo30	0.327050	0.464120	0.452140
Mo311	Mo31	0.191060	0.441570	0.499670
Mo321	Mo32	0.438250	0.330740	0.535060
Mo331	Mo33	0.318920	0.311270	0.578470
Mo341	Mo34	0.192540	0.377580	0.551070
Mo351	Mo35	0.281850	0.390540	0.643800
Mo361	Mo36	0.345220	0.464070	0.659030
Zn91	Zn9	0.432570	0.528770	0.516800
Zn101	Zn10	0.439700	0.369350	0.630450
Zn111	Zn11	0.296010	0.348810	0.481680
Zn121	Zn12	0.211890	0.491190	0.593450
O611	O61	0.490720	0.571160	0.497720
O621	O62	0.408030	0.480260	0.478690
O631	O63	0.481800	0.490190	0.555260
O641	O64	0.357500	0.548470	0.538580
O651	O65	0.484000	0.420470	0.610580
O661	O66	0.506000	0.361280	0.557000
O671	O67	0.346300	0.321980	0.525760
O681	O68	0.407200	0.330440	0.587830
O691	O69	0.265900	0.533360	0.570440
O701	O70	0.438200	0.352310	0.486570
O711	O71	0.301300	0.525220	0.469060
O721	O72	0.238800	0.319510	0.557390
O731	O73	0.186600	0.443360	0.555400
O741	O74	0.225100	0.380750	0.501240
O751	O75	0.433500	0.543890	0.604910
O761	O76	0.371100	0.401850	0.652000
O771	O77	0.233600	0.446960	0.449770
O781	O78	0.262400	0.453630	0.633000
O791	O79	0.198500	0.508350	0.504790
O801	O80	0.199000	0.379130	0.610390
O811	O81	0.439900	0.476650	0.662060
O821	O82	0.340460	0.399890	0.461110
O831	O83	0.330600	0.526990	0.640680
O841	O84	0.307000	0.329570	0.627410
C431	C43	0.010400	0.135800	0.199900
C441	C44	0.045300	0.162200	0.232800
C451	C45	0.043700	0.207500	0.232700
H251	H25	0.021700	0.222500	0.212100
C461	C46	0.074600	0.232500	0.262900
H261	H26	0.073800	0.263700	0.261600
C471	C47	0.106000	0.212000	0.294400
C481	C48	0.107900	0.166300	0.294000
H271	H27	0.129400	0.151200	0.314700
C491	C49	0.078100	0.141800	0.263300
H281	H28	0.080700	0.110600	0.263800
C501	C50	0.137400	0.240400	0.326300
C511	C51	0.125300	0.284700	0.327400
H291	H29	0.096700	0.297100	0.308500
C521	C52	0.154300	0.312700	0.356300
H301	H30	0.144900	0.343200	0.356300
C531	C53	0.196000	0.295600	0.384300
C541	C54	0.206800	0.250700	0.384100
H311	H31	0.233700	0.237900	0.403700
C551	C55	0.177700	0.223700	0.354700
H321	H32	0.186500	0.193000	0.354800
C561	C56	0.227600	0.327100	0.414700
O851	O85	0.003300	0.095410	0.203170
O861	O86	0.990600	0.160420	0.170840
O871	O87	0.262500	0.308320	0.441610
O881	O88	0.218400	0.367200	0.411220
C571	C57	0.881900	0.545900	0.865200
C581	C58	0.917600	0.536300	0.831600
C591	C59	0.901300	0.501700	0.806600
H331	H33	0.868500	0.482900	0.811000
C601	C60	0.933000	0.494400	0.774700
H341	H34	0.920600	0.471100	0.757800
C611	C61	0.982100	0.520700	0.767500
C621	C62	0.997800	0.555400	0.792700
H351	H35	0.031300	0.573700	0.788700
C631	C63	0.965700	0.563900	0.823700
H361	H36	0.976500	0.588500	0.839600
C641	C64	0.017300	0.511300	0.734100
C651	C65	0.021000	0.468400	0.719700
H371	H37	0.000400	0.445100	0.730900
C661	C66	0.054700	0.458700	0.689000
H381	H38	0.058000	0.429200	0.680500
C671	C67	0.082900	0.492700	0.671300
C681	C68	0.079600	0.535100	0.684600
H391	H39	0.099000	0.558400	0.672700
C691	C69	0.047200	0.543900	0.715900
H401	H40	0.045900	0.573300	0.724800
C701	C70	0.119500	0.480500	0.637900
O891	O89	0.882500	0.584300	0.878310
O901	O90	0.147000	0.513000	0.622640
O911	O91	0.852500	0.511720	0.877580
O921	O92	0.120600	0.440600	0.628500
Mo371	Mo37	0.577500	0.570020	0.044270
Mo381	Mo38	0.491550	0.584060	0.953990
Mo391	Mo39	0.522110	0.541460	0.893340
Mo401	Mo40	0.674810	0.517090	0.052460
Mo411	Mo41	0.646640	0.469740	0.894470
Mo421	Mo42	0.573670	0.671980	0.997230
Mo431	Mo43	0.696530	0.699420	0.960180
Mo441	Mo44	0.725570	0.457960	0.976900
Mo451	Mo45	0.813160	0.548810	0.010080
Mo461	Mo46	0.660030	0.572410	0.851270
Mo471	Mo47	0.728310	0.638750	0.881140
Mo481	Mo48	0.818340	0.625030	0.973270
Zn131	Zn13	0.565560	0.474180	0.976640
Zn141	Zn14	0.571920	0.659450	0.897170
Zn151	Zn15	0.713660	0.636140	0.045030
Zn161	Zn16	0.788810	0.526480	0.909710
O931	O93	0.592720	0.510680	0.023220
O941	O94	0.666460	0.582220	0.056160
O951	O95	0.503840	0.430480	0.989530
O961	O96	0.572300	0.637750	0.040330
O971	O97	0.519980	0.522630	0.946810
O981	O98	0.523000	0.605340	0.906630
O991	O99	0.504300	0.649050	0.970340
O1001	O100	0.564200	0.482050	0.887400
O1011	O101	0.565900	0.562080	0.846650
O1021	O102	0.695700	0.462020	0.023270
O1031	O103	0.769100	0.531130	0.057750
O1041	O104	0.669200	0.505960	0.855940
O1051	O105	0.638500	0.458850	0.950880
O1061	O106	0.732200	0.479500	0.922640
O1071	O107	0.783500	0.609040	0.020710
O1081	O108	0.819800	0.562130	0.955720
O1091	O109	0.800200	0.485480	0.991390
O1101	O110	0.743000	0.574160	0.878560
O1111	O111	0.638900	0.631560	0.870790
O1121	O112	0.707200	0.694610	0.909100
O1131	O113	0.812800	0.639810	0.915140
O1141	O114	0.606800	0.685330	0.946140
O1151	O115	0.666700	0.675470	0.008330
O1161	O116	0.775500	0.683750	0.978590
C711	C71	0.512200	0.677900	0.826400
C721	C72	0.484400	0.707300	0.793900
C731	C73	0.438400	0.690700	0.769000
H411	H41	0.424800	0.661300	0.771800
C741	C74	0.410900	0.717600	0.739100
H421	H42	0.378300	0.705800	0.722500
C751	C75	0.429700	0.760000	0.733500
C761	C76	0.476600	0.776900	0.758700
H431	H43	0.490500	0.806200	0.755500
C771	C77	0.504000	0.750900	0.789400
H441	H44	0.535400	0.763000	0.806800
C781	C78	0.397900	0.788000	0.701900
C791	C79	0.374700	0.767400	0.667700
H451	H45	0.381700	0.736900	0.664100
C801	C80	0.340900	0.792200	0.638700
H461	H46	0.327500	0.778600	0.615200
C811	C81	0.327400	0.836000	0.644300
C821	C82	0.351400	0.857000	0.677500
H471	H47	0.344500	0.887600	0.680800
C831	C83	0.385800	0.832700	0.706000
H481	H48	0.401200	0.847200	0.728800
C841	C84	0.287100	0.861000	0.613200
O1171	O117	0.511800	0.637500	0.821190
O1181	O118	0.532300	0.698270	0.857550
O1191	O119	0.290000	0.902000	0.611730
O1201	O120	0.251800	0.836000	0.590830
Mo491	Mo49	0.928340	0.082800	0.969490
Mo501	Mo50	0.014160	0.070970	0.060150
Mo511	Mo51	0.770730	0.959190	0.013350
Mo521	Mo52	0.850030	0.947930	0.095620
Mo531	Mo53	0.980380	0.013970	0.110960
Mo541	Mo54	0.827050	0.035880	0.952140
Mo551	Mo55	0.691060	0.058430	0.999670
Mo561	Mo56	0.938250	0.169260	0.035060
Mo571	Mo57	0.818920	0.188730	0.078470
Mo581	Mo58	0.692540	0.122420	0.051080
Mo591	Mo59	0.781850	0.109460	0.143800
Mo601	Mo60	0.845220	0.035930	0.159030
Zn171	Zn17	0.932570	0.971230	0.016800
Zn181	Zn18	0.939700	0.130650	0.130450
Zn191	Zn19	0.796010	0.151190	0.981680
Zn201	Zn20	0.711890	0.008810	0.093450
O1211	O121	0.990720	0.928840	0.997720
O1221	O122	0.908030	0.019740	0.978690
O1231	O123	0.981800	0.009810	0.055260
O1241	O124	0.857500	0.951530	0.038580
O1251	O125	0.984000	0.079530	0.110580
O1261	O126	0.006000	0.138720	0.057000
O1271	O127	0.846300	0.178020	0.025760
O1281	O128	0.907200	0.169560	0.087830
O1291	O129	0.765900	0.966640	0.070440
O1301	O130	0.938200	0.147690	0.986570
O1311	O131	0.801300	0.974780	0.969060
O1321	O132	0.738800	0.180490	0.057390
O1331	O133	0.686600	0.056640	0.055400
O1341	O134	0.725100	0.119250	0.001240
O1351	O135	0.933500	0.956110	0.104910
O1361	O136	0.871100	0.098150	0.152000
O1371	O137	0.733600	0.053040	0.949770
O1381	O138	0.762400	0.046370	0.133000
O1391	O139	0.698500	0.991650	0.004790
O1401	O140	0.699000	0.120870	0.110390
O1411	O141	0.939900	0.023350	0.162060
O1421	O142	0.840460	0.100110	0.961110
O1431	O143	0.830600	0.973010	0.140680
O1441	O144	0.807000	0.170430	0.127410
C851	C85	0.510400	0.364200	0.699900
C861	C86	0.545300	0.337800	0.732800
C871	C87	0.543700	0.292500	0.732700
H491	H49	0.521700	0.277500	0.712100
C881	C88	0.574600	0.267500	0.762900
H501	H50	0.573800	0.236300	0.761600
C891	C89	0.606000	0.288000	0.794400
C901	C90	0.607900	0.333700	0.794000
H511	H51	0.629400	0.348800	0.814700
C911	C91	0.578100	0.358200	0.763300
H521	H52	0.580700	0.389400	0.763800
C921	C92	0.637400	0.259600	0.826300
C931	C93	0.625300	0.215300	0.827400
H531	H53	0.596700	0.202900	0.808500
C941	C94	0.654300	0.187300	0.856300
H541	H54	0.644900	0.156800	0.856300
C951	C95	0.696000	0.204400	0.884300
C961	C96	0.706800	0.249300	0.884100
H551	H55	0.733700	0.262100	0.903700
C971	C97	0.677700	0.276300	0.854700
H561	H56	0.686500	0.307000	0.854800
C981	C98	0.727600	0.172900	0.914700
O1451	O145	0.503300	0.404590	0.703170
O1461	O146	0.490600	0.339580	0.670840
O1471	O147	0.762500	0.191680	0.941610
O1481	O148	0.718400	0.132800	0.911220
C991	C99	0.381900	0.954100	0.365200
C1001	C100	0.417600	0.963700	0.331600
C1011	C101	0.401300	0.998300	0.306600
H571	H57	0.368500	0.017100	0.311000
C1021	C102	0.433000	0.005600	0.274700
H581	H58	0.420600	0.028900	0.257800
C1031	C103	0.482100	0.979300	0.267500
C1041	C104	0.497800	0.944600	0.292700
H591	H59	0.531300	0.926300	0.288700
C1051	C105	0.465700	0.936100	0.323700
H601	H60	0.476500	0.911500	0.339600
C1061	C106	0.517300	0.988700	0.234100
C1071	C107	0.521000	0.031600	0.219700
H611	H61	0.500400	0.054900	0.230900
C1081	C108	0.554700	0.041300	0.189000
H621	H62	0.558000	0.070800	0.180500
C1091	C109	0.582900	0.007300	0.171300
C1101	C110	0.579600	0.964900	0.184600
H631	H63	0.599000	0.941600	0.172700
C1111	C111	0.547200	0.956100	0.215900
H641	H64	0.545900	0.926700	0.224800
C1121	C112	0.619500	0.019500	0.137900
O1491	O149	0.382500	0.915700	0.378310
O1501	O150	0.647000	0.987000	0.122640
O1511	O151	0.352500	0.988280	0.377580
O1521	O152	0.620600	0.059400	0.128500
Mo611	Mo61	0.077500	0.929980	0.544270
Mo621	Mo62	0.991550	0.915940	0.453990
Mo631	Mo63	0.022110	0.958540	0.393340
Mo641	Mo64	0.174810	0.982910	0.552460
Mo651	Mo65	0.146640	0.030260	0.394470
Mo661	Mo66	0.073670	0.828020	0.497240
Mo671	Mo67	0.196530	0.800580	0.460180
Mo681	Mo68	0.225570	0.042040	0.476900
Mo691	Mo69	0.313160	0.951190	0.510080
Mo701	Mo70	0.160030	0.927590	0.351270
Mo711	Mo71	0.228310	0.861250	0.381140
Mo721	Mo72	0.318340	0.874970	0.473270
Zn211	Zn21	0.065560	0.025820	0.476640
Zn221	Zn22	0.071920	0.840550	0.397170
Zn231	Zn23	0.213660	0.863860	0.545030
Zn241	Zn24	0.288810	0.973520	0.409710
O1531	O153	0.092720	0.989320	0.523220
O1541	O154	0.166460	0.917780	0.556160
O1551	O155	0.003840	0.069520	0.489530
O1561	O156	0.072300	0.862250	0.540330
O1571	O157	0.019980	0.977370	0.446810
O1581	O158	0.023000	0.894660	0.406630
O1591	O159	0.004300	0.850950	0.470340
O1601	O160	0.064200	0.017950	0.387400
O1611	O161	0.065900	0.937920	0.346650
O1621	O162	0.195700	0.037980	0.523270
O1631	O163	0.269100	0.968870	0.557750
O1641	O164	0.169200	0.994040	0.355940
O1651	O165	0.138500	0.041150	0.450880
O1661	O166	0.232200	0.020500	0.422640
O1671	O167	0.283500	0.890960	0.520710
O1681	O168	0.319800	0.937870	0.455720
O1691	O169	0.300200	0.014520	0.491390
O1701	O170	0.243000	0.925840	0.378560
O1711	O171	0.138900	0.868440	0.370790
O1721	O172	0.207200	0.805390	0.409100
O1731	O173	0.312800	0.860190	0.415140
O1741	O174	0.106800	0.814670	0.446140
O1751	O175	0.166700	0.824530	0.508330
O1761	O176	0.275500	0.816250	0.478590
C1131	C113	0.012200	0.822100	0.326400
C1141	C114	0.984400	0.792700	0.293900
C1151	C115	0.938400	0.809300	0.269000
H651	H65	0.924800	0.838700	0.271800
C1161	C116	0.910900	0.782400	0.239100
H661	H66	0.878300	0.794200	0.222500
C1171	C117	0.929700	0.740000	0.233500
C1181	C118	0.976600	0.723100	0.258700
H671	H67	0.990500	0.693800	0.255500
C1191	C119	0.004000	0.749100	0.289400
H681	H68	0.035400	0.737000	0.306800
C1201	C120	0.897900	0.712000	0.201900
C1211	C121	0.874700	0.732600	0.167700
H691	H69	0.881700	0.763100	0.164100
C1221	C122	0.840900	0.707800	0.138700
H701	H70	0.827500	0.721400	0.115200
C1231	C123	0.827400	0.664000	0.144300
C1241	C124	0.851400	0.643000	0.177500
H711	H71	0.844500	0.612400	0.180800
C1251	C125	0.885800	0.667300	0.206000
H721	H72	0.901200	0.652800	0.228800
C1261	C126	0.787100	0.639000	0.113200
O1771	O177	0.011800	0.862500	0.321190
O1781	O178	0.032300	0.801730	0.357550
O1791	O179	0.790000	0.598000	0.111730
O1801	O180	0.751800	0.664000	0.090830
Mo731	Mo73	0.571660	0.582800	0.530510
Mo741	Mo74	0.485840	0.570970	0.439850
Mo751	Mo75	0.729270	0.459190	0.486650
Mo761	Mo76	0.649970	0.447930	0.404380
Mo771	Mo77	0.519620	0.513970	0.389040
Mo781	Mo78	0.672950	0.535880	0.547860
Mo791	Mo79	0.808940	0.558430	0.500330
Mo801	Mo80	0.561750	0.669260	0.464940
Mo811	Mo81	0.681080	0.688730	0.421530
Mo821	Mo82	0.807460	0.622420	0.448920
Mo831	Mo83	0.718150	0.609460	0.356200
Mo841	Mo84	0.654780	0.535930	0.340970
Zn251	Zn25	0.567430	0.471230	0.483200
Zn261	Zn26	0.560300	0.630650	0.369550
Zn271	Zn27	0.703990	0.651190	0.518320
Zn281	Zn28	0.788110	0.508810	0.406550
O1811	O181	0.509280	0.428840	0.502280
O1821	O182	0.591970	0.519740	0.521310
O1831	O183	0.518200	0.509810	0.444740
O1841	O184	0.642500	0.451530	0.461420
O1851	O185	0.516000	0.579530	0.389420
O1861	O186	0.494000	0.638720	0.443000
O1871	O187	0.653700	0.678020	0.474240
O1881	O188	0.592800	0.669560	0.412170
O1891	O189	0.734100	0.466640	0.429560
O1901	O190	0.561800	0.647690	0.513430
O1911	O191	0.698700	0.474780	0.530940
O1921	O192	0.761200	0.680490	0.442610
O1931	O193	0.813400	0.556640	0.444600
O1941	O194	0.774900	0.619250	0.498760
O1951	O195	0.566500	0.456110	0.395090
O1961	O196	0.628900	0.598150	0.348000
O1971	O197	0.766400	0.553040	0.550230
O1981	O198	0.737600	0.546370	0.367000
O1991	O199	0.801500	0.491650	0.495210
O2001	O200	0.801000	0.620870	0.389610
O2011	O201	0.560100	0.523350	0.337940
O2021	O202	0.659540	0.600110	0.538890
O2031	O203	0.669400	0.473010	0.359320
O2041	O204	0.693000	0.670430	0.372590
C1271	C127	0.989600	0.864200	0.800100
C1281	C128	0.954700	0.837800	0.767200
C1291	C129	0.956300	0.792500	0.767300
H731	H73	0.978300	0.777500	0.787900
C1301	C130	0.925400	0.767500	0.737100
H741	H74	0.926200	0.736300	0.738400
C1311	C131	0.894000	0.788000	0.705600
C1321	C132	0.892100	0.833700	0.706000
H751	H75	0.870600	0.848800	0.685300
C1331	C133	0.921900	0.858200	0.736700
H761	H76	0.919300	0.889400	0.736200
C1341	C134	0.862600	0.759600	0.673700
C1351	C135	0.874700	0.715300	0.672600
H771	H77	0.903300	0.702900	0.691500
C1361	C136	0.845700	0.687300	0.643700
H781	H78	0.855100	0.656800	0.643700
C1371	C137	0.804000	0.704400	0.615700
C1381	C138	0.793200	0.749300	0.615900
H791	H79	0.766300	0.762100	0.596300
C1391	C139	0.822300	0.776300	0.645300
H801	H80	0.813500	0.807000	0.645200
C1401	C140	0.772400	0.672900	0.585300
O2051	O205	0.996700	0.904590	0.796830
O2061	O206	0.009400	0.839580	0.829160
O2071	O207	0.737500	0.691680	0.558390
O2081	O208	0.781600	0.632800	0.588780
C1411	C141	0.118100	0.454100	0.134800
C1421	C142	0.082400	0.463700	0.168400
C1431	C143	0.098700	0.498300	0.193400
H811	H81	0.131500	0.517100	0.189000
C1441	C144	0.067000	0.505600	0.225300
H821	H82	0.079400	0.528900	0.242200
C1451	C145	0.017900	0.479300	0.232500
C1461	C146	0.002200	0.444600	0.207300
H831	H83	0.968700	0.426300	0.211300
C1471	C147	0.034300	0.436100	0.176300
H841	H84	0.023500	0.411500	0.160400
C1481	C148	0.982700	0.488700	0.265900
C1491	C149	0.979000	0.531600	0.280300
H851	H85	0.999600	0.554900	0.269100
C1501	C150	0.945300	0.541300	0.311000
H861	H86	0.942000	0.570800	0.319500
C1511	C151	0.917100	0.507300	0.328700
C1521	C152	0.920400	0.464900	0.315400
H871	H87	0.901000	0.441600	0.327300
C1531	C153	0.952800	0.456100	0.284100
H881	H88	0.954100	0.426700	0.275200
C1541	C154	0.880500	0.519500	0.362100
O2091	O209	0.117500	0.415700	0.121690
O2101	O210	0.853000	0.487000	0.377360
O2111	O211	0.147500	0.488280	0.122420
O2121	O212	0.879400	0.559400	0.371500
Mo851	Mo85	0.422500	0.429980	0.955730
Mo861	Mo86	0.508450	0.415940	0.046010
Mo871	Mo87	0.477890	0.458540	0.106660
Mo881	Mo88	0.325190	0.482910	0.947540
Mo891	Mo89	0.353360	0.530260	0.105530
Mo901	Mo90	0.426330	0.328020	0.002770
Mo911	Mo91	0.303470	0.300580	0.039820
Mo921	Mo92	0.274430	0.542040	0.023100
Mo931	Mo93	0.186840	0.451190	0.989920
Mo941	Mo94	0.339970	0.427590	0.148730
Mo951	Mo95	0.271690	0.361250	0.118860
Mo961	Mo96	0.181660	0.374970	0.026730
Zn291	Zn29	0.434440	0.525820	0.023360
Zn301	Zn30	0.428080	0.340550	0.102830
Zn311	Zn31	0.286340	0.363860	0.954970
Zn321	Zn32	0.211190	0.473520	0.090290
O2131	O213	0.407280	0.489320	0.976780
O2141	O214	0.333540	0.417780	0.943840
O2151	O215	0.496160	0.569520	0.010470
O2161	O216	0.427700	0.362250	0.959670
O2171	O217	0.480020	0.477370	0.053190
O2181	O218	0.477000	0.394660	0.093370
O2191	O219	0.495700	0.350950	0.029660
O2201	O220	0.435800	0.517950	0.112600
O2211	O221	0.434100	0.437920	0.153350
O2221	O222	0.304300	0.537980	0.976730
O2231	O223	0.230900	0.468870	0.942250
O2241	O224	0.330800	0.494040	0.144060
O2251	O225	0.361500	0.541150	0.049120
O2261	O226	0.267800	0.520500	0.077360
O2271	O227	0.216500	0.390960	0.979290
O2281	O228	0.180200	0.437870	0.044280
O2291	O229	0.199800	0.514520	0.008610
O2301	O230	0.257000	0.425840	0.121440
O2311	O231	0.361100	0.368440	0.129210
O2321	O232	0.292800	0.305390	0.090900
O2331	O233	0.187200	0.360190	0.084860
O2341	O234	0.393200	0.314670	0.053860
O2351	O235	0.333300	0.324530	0.991670
O2361	O236	0.224500	0.316250	0.021410
C1551	C155	0.487800	0.322100	0.173600
C1561	C156	0.515600	0.292700	0.206100
C1571	C157	0.561600	0.309300	0.231000
H891	H89	0.575200	0.338700	0.228200
C1581	C158	0.589100	0.282400	0.260900
H901	H90	0.621700	0.294200	0.277500
C1591	C159	0.570300	0.240000	0.266500
C1601	C160	0.523400	0.223100	0.241300
H911	H91	0.509500	0.193800	0.244500
C1611	C161	0.496000	0.249100	0.210600
H921	H92	0.464600	0.237000	0.193200
C1621	C162	0.602100	0.212000	0.298100
C1631	C163	0.625300	0.232600	0.332300
H931	H93	0.618300	0.263100	0.335900
C1641	C164	0.659100	0.207800	0.361300
H941	H94	0.672500	0.221400	0.384800
C1651	C165	0.672600	0.164000	0.355700
C1661	C166	0.648600	0.143000	0.322500
H951	H95	0.655500	0.112400	0.319200
C1671	C167	0.614200	0.167300	0.294000
H961	H96	0.598800	0.152800	0.271200
C1681	C168	0.712900	0.139000	0.386800
O2371	O237	0.488200	0.362500	0.178810
O2381	O238	0.467700	0.301730	0.142450
O2391	O239	0.710000	0.098000	0.388270
O2401	O240	0.748200	0.164000	0.409170
