data_VOZVIR01_clean_PM
_symmetry_space_group_name_H-M	'P1'
_cell_length_a	33.914000
_cell_length_b	15.135000
_cell_length_c	30.963000
_cell_angle_alpha	90.000000
_cell_angle_beta	100.727000
_cell_angle_gamma	90.000000
_symmetry_Int_Tables_number 1

loop_
_symmetry_equiv_pos_as_xyz
'x,y,z'

loop_
_atom_site_label
_atom_site_type_symbol
_atom_site_fract_x
_atom_site_fract_y
_atom_site_fract_z
Zn11	Zn1	0.230800	0.141000	0.036900
I11	I1	0.291560	0.240300	0.062930
I21	I2	0.183770	0.167200	0.963600
N11	N1	0.197700	0.156100	0.088900
C11	C1	0.182600	0.088000	0.107600
H11	H1	0.187900	0.029800	0.098100
C21	C2	0.159800	0.096000	0.139700
H21	H2	0.149300	0.045600	0.152100
C31	C3	0.153000	0.180000	0.153100
C41	C4	0.167700	0.253000	0.134700
H31	H3	0.163000	0.311100	0.143900
C51	C5	0.189500	0.237000	0.102500
H41	H4	0.199300	0.286500	0.088900
C61	C6	0.130500	0.192300	0.189400
N21	N2	0.100100	0.136400	0.194200
C71	C7	0.075700	0.156100	0.223200
N31	N3	0.081700	0.231600	0.247400
C81	C8	0.112100	0.287400	0.242600
N41	N4	0.136500	0.267800	0.213700
N51	N5	0.973500	0.990000	0.228000
C91	C9	0.989900	0.043000	0.260700
H51	H5	0.977100	0.045900	0.285500
C101	C10	0.023300	0.095000	0.262100
H61	H6	0.033100	0.130700	0.287100
C111	C11	0.042400	0.095000	0.226600
C121	C12	0.027400	0.038000	0.192400
H71	H7	0.040300	0.032800	0.167800
C131	C13	0.993500	0.991000	0.194800
H81	H8	0.983200	0.954400	0.170300
Zn21	Zn2	0.918900	0.912300	0.230900
I31	I3	0.933900	0.763000	0.201000
I41	I4	0.885700	0.947700	0.299700
N61	N6	0.129500	0.528000	0.315800
C141	C14	0.155100	0.501000	0.291000
H91	H9	0.178300	0.535800	0.290300
C151	C15	0.149600	0.426000	0.266400
H101	H10	0.168600	0.410100	0.248700
C161	C16	0.117200	0.372000	0.267000
C171	C17	0.091100	0.400000	0.293000
H111	H11	0.068400	0.364700	0.295400
C181	C18	0.097300	0.478000	0.315600
H121	H12	0.077800	0.497000	0.331900
I51	I5	0.185770	0.737500	0.328490
Zn31	Zn3	0.144000	0.626600	0.362800
I61	I6	0.083660	0.659700	0.398500
N71	N7	0.180700	0.555900	0.411400
C191	C19	0.210500	0.594000	0.439400
H131	H13	0.215600	0.654700	0.435600
C201	C20	0.234200	0.550700	0.473200
H141	H14	0.255900	0.580000	0.491600
C211	C21	0.225900	0.464100	0.479900
C221	C22	0.198000	0.417500	0.451500
H151	H15	0.194300	0.355600	0.453800
C231	C23	0.175800	0.467900	0.419500
H161	H16	0.154400	0.438700	0.400700
C241	C24	0.245200	0.410600	0.517600
N81	N8	0.273800	0.450100	0.549000
C251	C25	0.298700	0.399000	0.579300
N91	N9	0.294900	0.308400	0.578200
C261	C26	0.266300	0.268900	0.546800
N101	N10	0.241400	0.320000	0.516500
N111	N11	0.379200	0.524700	0.681800
C271	C27	0.373500	0.437600	0.682400
H171	H17	0.385400	0.405500	0.707800
C281	C28	0.351300	0.392000	0.648000
H181	H18	0.350200	0.329600	0.648600
C291	C29	0.330700	0.438000	0.612600
C301	C30	0.335700	0.527900	0.611200
H191	H19	0.322500	0.561900	0.587000
C311	C31	0.360600	0.567000	0.646000
H201	H20	0.364700	0.628900	0.644500
N121	N12	0.246600	0.990800	0.540800
C321	C32	0.223300	0.046500	0.514200
H211	H21	0.202600	0.024400	0.491900
C331	C33	0.229300	0.135000	0.518900
H221	H22	0.210900	0.173800	0.501100
C341	C34	0.260100	0.172500	0.547900
C351	C35	0.281600	0.113100	0.576200
H231	H23	0.302100	0.134100	0.599100
C361	C36	0.274400	0.024200	0.572500
H241	H24	0.289700	0.985300	0.593100
Zn41	Zn4	0.730800	0.641000	0.036900
I71	I7	0.791560	0.740300	0.062930
I81	I8	0.683770	0.667200	0.963600
N131	N13	0.697700	0.656100	0.088900
C371	C37	0.682600	0.588000	0.107600
H251	H25	0.687900	0.529800	0.098100
C381	C38	0.659800	0.596000	0.139700
H261	H26	0.649300	0.545600	0.152100
C391	C39	0.653000	0.680000	0.153100
C401	C40	0.667700	0.753000	0.134700
H271	H27	0.663000	0.811100	0.143900
C411	C41	0.689500	0.737000	0.102500
H281	H28	0.699300	0.786500	0.088900
C421	C42	0.630500	0.692300	0.189400
N141	N14	0.600100	0.636400	0.194200
C431	C43	0.575700	0.656100	0.223200
N151	N15	0.581700	0.731600	0.247400
C441	C44	0.612100	0.787400	0.242600
N161	N16	0.636500	0.767800	0.213700
N171	N17	0.473500	0.490000	0.228000
C451	C45	0.489900	0.543000	0.260700
H291	H29	0.477100	0.545900	0.285500
C461	C46	0.523300	0.595000	0.262100
H301	H30	0.533100	0.630700	0.287100
C471	C47	0.542400	0.595000	0.226600
C481	C48	0.527400	0.538000	0.192400
H311	H31	0.540300	0.532800	0.167800
C491	C49	0.493500	0.491000	0.194800
H321	H32	0.483200	0.454400	0.170300
Zn51	Zn5	0.418900	0.412300	0.230900
I91	I9	0.433900	0.263000	0.201000
I101	I10	0.385700	0.447700	0.299700
N181	N18	0.629500	0.028000	0.315800
C501	C50	0.655100	0.001000	0.291000
H331	H33	0.678300	0.035800	0.290300
C511	C51	0.649600	0.926000	0.266400
H341	H34	0.668600	0.910100	0.248700
C521	C52	0.617200	0.872000	0.267000
C531	C53	0.591100	0.900000	0.293000
H351	H35	0.568400	0.864700	0.295400
C541	C54	0.597300	0.978000	0.315600
H361	H36	0.577800	0.997000	0.331900
I111	I11	0.685770	0.237500	0.328490
Zn61	Zn6	0.644000	0.126600	0.362800
I121	I12	0.583660	0.159700	0.398500
N191	N19	0.680700	0.055900	0.411400
C551	C55	0.710500	0.094000	0.439400
H371	H37	0.715600	0.154700	0.435600
C561	C56	0.734200	0.050700	0.473200
H381	H38	0.755900	0.080000	0.491600
C571	C57	0.725900	0.964100	0.479900
C581	C58	0.698000	0.917500	0.451500
H391	H39	0.694300	0.855600	0.453800
C591	C59	0.675800	0.967900	0.419500
H401	H40	0.654400	0.938700	0.400700
C601	C60	0.745200	0.910600	0.517600
N201	N20	0.773800	0.950100	0.549000
C611	C61	0.798700	0.899000	0.579300
N211	N21	0.794900	0.808400	0.578200
C621	C62	0.766300	0.768900	0.546800
N221	N22	0.741400	0.820000	0.516500
N231	N23	0.879200	0.024700	0.681800
C631	C63	0.873500	0.937600	0.682400
H411	H41	0.885400	0.905500	0.707800
C641	C64	0.851300	0.892000	0.648000
H421	H42	0.850200	0.829600	0.648600
C651	C65	0.830700	0.938000	0.612600
C661	C66	0.835700	0.027900	0.611200
H431	H43	0.822500	0.061900	0.587000
C671	C67	0.860600	0.067000	0.646000
H441	H44	0.864700	0.128900	0.644500
N241	N24	0.746600	0.490800	0.540800
C681	C68	0.723300	0.546500	0.514200
H451	H45	0.702600	0.524400	0.491900
C691	C69	0.729300	0.635000	0.518900
H461	H46	0.710900	0.673800	0.501100
C701	C70	0.760100	0.672500	0.547900
C711	C71	0.781600	0.613100	0.576200
H471	H47	0.802100	0.634100	0.599100
C721	C72	0.774400	0.524200	0.572500
H481	H48	0.789700	0.485300	0.593100
Zn71	Zn7	0.230800	0.859000	0.536900
I131	I13	0.291560	0.759700	0.562930
I141	I14	0.183770	0.832800	0.463600
N251	N25	0.197700	0.843900	0.588900
C731	C73	0.182600	0.912000	0.607600
H491	H49	0.187900	0.970200	0.598100
C741	C74	0.159800	0.904000	0.639700
H501	H50	0.149300	0.954400	0.652100
C751	C75	0.153000	0.820000	0.653100
C761	C76	0.167700	0.747000	0.634700
H511	H51	0.163000	0.688900	0.643900
C771	C77	0.189500	0.763000	0.602500
H521	H52	0.199300	0.713500	0.588900
C781	C78	0.130500	0.807700	0.689400
N261	N26	0.100100	0.863600	0.694200
C791	C79	0.075700	0.843900	0.723200
N271	N27	0.081700	0.768400	0.747400
C801	C80	0.112100	0.712600	0.742600
N281	N28	0.136500	0.732200	0.713700
N291	N29	0.973500	0.010000	0.728000
C811	C81	0.989900	0.957000	0.760700
H531	H53	0.977100	0.954100	0.785500
C821	C82	0.023300	0.905000	0.762100
H541	H54	0.033100	0.869300	0.787100
C831	C83	0.042400	0.905000	0.726600
C841	C84	0.027400	0.962000	0.692400
H551	H55	0.040300	0.967200	0.667800
C851	C85	0.993500	0.009000	0.694800
H561	H56	0.983200	0.045600	0.670300
Zn81	Zn8	0.918900	0.087700	0.730900
I151	I15	0.933900	0.237000	0.701000
I161	I16	0.885700	0.052300	0.799700
N301	N30	0.129500	0.472000	0.815800
C861	C86	0.155100	0.499000	0.791000
H571	H57	0.178300	0.464200	0.790300
C871	C87	0.149600	0.574000	0.766400
H581	H58	0.168600	0.589900	0.748700
C881	C88	0.117200	0.628000	0.767000
C891	C89	0.091100	0.600000	0.793000
H591	H59	0.068400	0.635300	0.795400
C901	C90	0.097300	0.522000	0.815600
H601	H60	0.077800	0.503000	0.831900
I171	I17	0.185770	0.262500	0.828490
Zn91	Zn9	0.144000	0.373400	0.862800
I181	I18	0.083660	0.340300	0.898500
N311	N31	0.180700	0.444100	0.911400
C911	C91	0.210500	0.406000	0.939400
H611	H61	0.215600	0.345300	0.935600
C921	C92	0.234200	0.449300	0.973200
H621	H62	0.255900	0.420000	0.991600
C931	C93	0.225900	0.535900	0.979900
C941	C94	0.198000	0.582500	0.951500
H631	H63	0.194300	0.644400	0.953800
C951	C95	0.175800	0.532100	0.919500
H641	H64	0.154400	0.561300	0.900700
C961	C96	0.245200	0.589400	0.017600
N321	N32	0.273800	0.549900	0.049000
C971	C97	0.298700	0.601000	0.079300
N331	N33	0.294900	0.691600	0.078200
C981	C98	0.266300	0.731100	0.046800
N341	N34	0.241400	0.680000	0.016500
N351	N35	0.379200	0.475300	0.181800
C991	C99	0.373500	0.562400	0.182400
H651	H65	0.385400	0.594500	0.207800
C1001	C100	0.351300	0.608000	0.148000
H661	H66	0.350200	0.670400	0.148600
C1011	C101	0.330700	0.562000	0.112600
C1021	C102	0.335700	0.472100	0.111200
H671	H67	0.322500	0.438100	0.087000
C1031	C103	0.360600	0.433000	0.146000
H681	H68	0.364700	0.371100	0.144500
N361	N36	0.246600	0.009200	0.040800
C1041	C104	0.223300	0.953500	0.014200
H691	H69	0.202600	0.975600	0.991900
C1051	C105	0.229300	0.865000	0.018900
H701	H70	0.210900	0.826200	0.001100
C1061	C106	0.260100	0.827500	0.047900
C1071	C107	0.281600	0.886900	0.076200
H711	H71	0.302100	0.865900	0.099100
C1081	C108	0.274400	0.975800	0.072500
H721	H72	0.289700	0.014700	0.093100
Zn101	Zn10	0.730800	0.359000	0.536900
I191	I19	0.791560	0.259700	0.562930
I201	I20	0.683770	0.332800	0.463600
N371	N37	0.697700	0.343900	0.588900
C1091	C109	0.682600	0.412000	0.607600
H731	H73	0.687900	0.470200	0.598100
C1101	C110	0.659800	0.404000	0.639700
H741	H74	0.649300	0.454400	0.652100
C1111	C111	0.653000	0.320000	0.653100
C1121	C112	0.667700	0.247000	0.634700
H751	H75	0.663000	0.188900	0.643900
C1131	C113	0.689500	0.263000	0.602500
H761	H76	0.699300	0.213500	0.588900
C1141	C114	0.630500	0.307700	0.689400
N381	N38	0.600100	0.363600	0.694200
C1151	C115	0.575700	0.343900	0.723200
N391	N39	0.581700	0.268400	0.747400
C1161	C116	0.612100	0.212600	0.742600
N401	N40	0.636500	0.232200	0.713700
N411	N41	0.473500	0.510000	0.728000
C1171	C117	0.489900	0.457000	0.760700
H771	H77	0.477100	0.454100	0.785500
C1181	C118	0.523300	0.405000	0.762100
H781	H78	0.533100	0.369300	0.787100
C1191	C119	0.542400	0.405000	0.726600
C1201	C120	0.527400	0.462000	0.692400
H791	H79	0.540300	0.467200	0.667800
C1211	C121	0.493500	0.509000	0.694800
H801	H80	0.483200	0.545600	0.670300
Zn111	Zn11	0.418900	0.587700	0.730900
I211	I21	0.433900	0.737000	0.701000
I221	I22	0.385700	0.552300	0.799700
N421	N42	0.629500	0.972000	0.815800
C1221	C122	0.655100	0.999000	0.791000
H811	H81	0.678300	0.964200	0.790300
C1231	C123	0.649600	0.074000	0.766400
H821	H82	0.668600	0.089900	0.748700
C1241	C124	0.617200	0.128000	0.767000
C1251	C125	0.591100	0.100000	0.793000
H831	H83	0.568400	0.135300	0.795400
C1261	C126	0.597300	0.022000	0.815600
H841	H84	0.577800	0.003000	0.831900
I231	I23	0.685770	0.762500	0.828490
Zn121	Zn12	0.644000	0.873400	0.862800
I241	I24	0.583660	0.840300	0.898500
N431	N43	0.680700	0.944100	0.911400
C1271	C127	0.710500	0.906000	0.939400
H851	H85	0.715600	0.845300	0.935600
C1281	C128	0.734200	0.949300	0.973200
H861	H86	0.755900	0.920000	0.991600
C1291	C129	0.725900	0.035900	0.979900
C1301	C130	0.698000	0.082500	0.951500
H871	H87	0.694300	0.144400	0.953800
C1311	C131	0.675800	0.032100	0.919500
H881	H88	0.654400	0.061300	0.900700
C1321	C132	0.745200	0.089400	0.017600
N441	N44	0.773800	0.049900	0.049000
C1331	C133	0.798700	0.101000	0.079300
N451	N45	0.794900	0.191600	0.078200
C1341	C134	0.766300	0.231100	0.046800
N461	N46	0.741400	0.180000	0.016500
N471	N47	0.879200	0.975300	0.181800
C1351	C135	0.873500	0.062400	0.182400
H891	H89	0.885400	0.094500	0.207800
C1361	C136	0.851300	0.108000	0.148000
H901	H90	0.850200	0.170400	0.148600
C1371	C137	0.830700	0.062000	0.112600
C1381	C138	0.835700	0.972100	0.111200
H911	H91	0.822500	0.938100	0.087000
C1391	C139	0.860600	0.933000	0.146000
H921	H92	0.864700	0.871100	0.144500
N481	N48	0.746600	0.509200	0.040800
C1401	C140	0.723300	0.453500	0.014200
H931	H93	0.702600	0.475600	0.991900
C1411	C141	0.729300	0.365000	0.018900
H941	H94	0.710900	0.326200	0.001100
C1421	C142	0.760100	0.327500	0.047900
C1431	C143	0.781600	0.386900	0.076200
H951	H95	0.802100	0.365900	0.099100
C1441	C144	0.774400	0.475800	0.072500
H961	H96	0.789700	0.514700	0.093100
Zn131	Zn13	0.379600	0.370100	0.487400
I251	I25	0.311980	0.306500	0.447800
I261	I26	0.420100	0.327100	0.562090
N491	N49	0.416700	0.361900	0.438500
C1451	C145	0.408600	0.293000	0.412000
H971	H97	0.385600	0.257000	0.412500
C1461	C146	0.434300	0.274000	0.384100
H981	H98	0.429900	0.224200	0.364900
C1471	C147	0.466300	0.328000	0.384600
C1481	C148	0.475600	0.402000	0.409500
H991	H99	0.497400	0.440900	0.408000
C1491	C149	0.448700	0.412600	0.436900
H1001	H100	0.453200	0.460800	0.456900
C1501	C150	0.493600	0.312300	0.353400
N501	N50	0.488600	0.238600	0.328700
C1511	C151	0.513300	0.221800	0.300400
N511	N51	0.543000	0.278700	0.296800
C1521	C152	0.548000	0.352500	0.321500
N521	N52	0.523200	0.369200	0.349800
N531	N53	0.646400	0.523000	0.318500
C1531	C153	0.628100	0.529000	0.353000
H1011	H101	0.632900	0.575900	0.373600
C1541	C154	0.601600	0.462000	0.356100
H1021	H102	0.596300	0.447900	0.384400
C1551	C155	0.582200	0.412000	0.320500
C1561	C156	0.602200	0.408000	0.286100
H1031	H103	0.595200	0.365200	0.263400
C1571	C157	0.632600	0.467000	0.285800
H1041	H104	0.644700	0.469100	0.260400
Zn141	Zn14	0.695700	0.603700	0.323410
I271	I27	0.720810	0.585400	0.252880
I281	I28	0.681030	0.748200	0.356390
N541	N54	0.500000	0.982300	0.227000
C1581	C158	0.527300	0.043600	0.222600
H1051	H105	0.544400	0.032000	0.202200
C1591	C159	0.532600	0.122000	0.245200
H1061	H106	0.551700	0.164200	0.239500
C1601	C160	0.509400	0.137400	0.276200
C1611	C161	0.481000	0.079100	0.281100
H1071	H107	0.462800	0.091000	0.300300
C1621	C162	0.478600	0.001600	0.257700
H1081	H108	0.460200	0.958300	0.263900
Zn151	Zn15	0.481000	0.880900	0.182600
I291	I29	0.539150	0.851700	0.142990
I301	I30	0.442400	0.767200	0.219500
N551	N55	0.438200	0.949900	0.136500
C1631	C163	0.437600	0.037600	0.135000
H1091	H109	0.452300	0.067800	0.159800
C1641	C164	0.418100	0.089100	0.101200
H1101	H110	0.421200	0.151400	0.099700
C1651	C165	0.393500	0.040500	0.069900
C1661	C166	0.386200	0.952300	0.072000
H1111	H111	0.364700	0.922500	0.053600
C1671	C167	0.413300	0.912400	0.103600
H1121	H112	0.414600	0.849800	0.102000
C1681	C168	0.368500	0.083100	0.031800
N561	N56	0.379200	0.168500	0.025400
C1691	C169	0.358600	0.216000	0.990800
N571	N57	0.327300	0.178100	0.962700
C1701	C170	0.316600	0.092700	0.969200
N581	N58	0.337200	0.045200	0.003700
N591	N59	0.370200	0.493000	0.987800
C1711	C171	0.345400	0.447000	0.957500
H1131	H113	0.327000	0.479500	0.936600
C1721	C172	0.344100	0.357000	0.953800
H1141	H114	0.331600	0.326800	0.927900
C1731	C173	0.362600	0.313200	0.991000
C1741	C174	0.385100	0.355200	0.026500
H1151	H115	0.396400	0.325200	0.052800
C1751	C175	0.389700	0.443800	0.020800
H1161	H116	0.408600	0.473400	0.042500
N601	N60	0.235800	0.960100	0.874300
C1761	C176	0.260300	0.912000	0.903700
H1171	H117	0.258800	0.848800	0.903200
C1771	C177	0.287800	0.955000	0.934500
H1181	H118	0.304300	0.921900	0.956900
C1781	C178	0.291800	0.041000	0.933900
C1791	C179	0.271700	0.083000	0.897500
H1191	H119	0.281300	0.138600	0.889400
C1801	C180	0.237800	0.048000	0.872200
H1201	H120	0.217500	0.082400	0.854800
Zn161	Zn16	0.879600	0.870100	0.487400
I311	I31	0.811980	0.806500	0.447800
I321	I32	0.920100	0.827100	0.562090
N611	N61	0.916700	0.861900	0.438500
C1811	C181	0.908600	0.793000	0.412000
H1211	H121	0.885600	0.757000	0.412500
C1821	C182	0.934300	0.774000	0.384100
H1221	H122	0.929900	0.724200	0.364900
C1831	C183	0.966300	0.828000	0.384600
C1841	C184	0.975600	0.902000	0.409500
H1231	H123	0.997400	0.940900	0.408000
C1851	C185	0.948700	0.912600	0.436900
H1241	H124	0.953200	0.960800	0.456900
C1861	C186	0.993600	0.812300	0.353400
N621	N62	0.988600	0.738600	0.328700
C1871	C187	0.013300	0.721800	0.300400
N631	N63	0.043000	0.778700	0.296800
C1881	C188	0.048000	0.852500	0.321500
N641	N64	0.023200	0.869200	0.349800
N651	N65	0.146400	0.023000	0.318500
C1891	C189	0.128100	0.029000	0.353000
H1251	H125	0.132900	0.075900	0.373600
C1901	C190	0.101600	0.962000	0.356100
H1261	H126	0.096300	0.947900	0.384400
C1911	C191	0.082200	0.912000	0.320500
C1921	C192	0.102200	0.908000	0.286100
H1271	H127	0.095200	0.865200	0.263400
C1931	C193	0.132600	0.967000	0.285800
H1281	H128	0.144700	0.969100	0.260400
Zn171	Zn17	0.195700	0.103700	0.323410
I331	I33	0.220810	0.085400	0.252880
I341	I34	0.181030	0.248200	0.356390
N661	N66	0.000000	0.482300	0.227000
C1941	C194	0.027300	0.543600	0.222600
H1291	H129	0.044400	0.532000	0.202200
C1951	C195	0.032600	0.622000	0.245200
H1301	H130	0.051700	0.664200	0.239500
C1961	C196	0.009400	0.637400	0.276200
C1971	C197	0.981000	0.579100	0.281100
H1311	H131	0.962800	0.591000	0.300300
C1981	C198	0.978600	0.501600	0.257700
H1321	H132	0.960200	0.458300	0.263900
Zn181	Zn18	0.981000	0.380900	0.182600
I351	I35	0.039150	0.351700	0.142990
I361	I36	0.942400	0.267200	0.219500
N671	N67	0.938200	0.449900	0.136500
C1991	C199	0.937600	0.537600	0.135000
H1331	H133	0.952300	0.567800	0.159800
C2001	C200	0.918100	0.589100	0.101200
H1341	H134	0.921200	0.651400	0.099700
C2011	C201	0.893500	0.540500	0.069900
C2021	C202	0.886200	0.452300	0.072000
H1351	H135	0.864700	0.422500	0.053600
C2031	C203	0.913300	0.412400	0.103600
H1361	H136	0.914600	0.349800	0.102000
C2041	C204	0.868500	0.583100	0.031800
N681	N68	0.879200	0.668500	0.025400
C2051	C205	0.858600	0.716000	0.990800
N691	N69	0.827300	0.678100	0.962700
C2061	C206	0.816600	0.592700	0.969200
N701	N70	0.837200	0.545200	0.003700
N711	N71	0.870200	0.993000	0.987800
C2071	C207	0.845400	0.947000	0.957500
H1371	H137	0.827000	0.979500	0.936600
C2081	C208	0.844100	0.857000	0.953800
H1381	H138	0.831600	0.826800	0.927900
C2091	C209	0.862600	0.813200	0.991000
C2101	C210	0.885100	0.855200	0.026500
H1391	H139	0.896400	0.825200	0.052800
C2111	C211	0.889700	0.943800	0.020800
H1401	H140	0.908600	0.973400	0.042500
N721	N72	0.735800	0.460100	0.874300
C2121	C212	0.760300	0.412000	0.903700
H1411	H141	0.758800	0.348800	0.903200
C2131	C213	0.787800	0.455000	0.934500
H1421	H142	0.804300	0.421900	0.956900
C2141	C214	0.791800	0.541000	0.933900
C2151	C215	0.771700	0.583000	0.897500
H1431	H143	0.781300	0.638600	0.889400
C2161	C216	0.737800	0.548000	0.872200
H1441	H144	0.717500	0.582400	0.854800
Zn191	Zn19	0.379600	0.629900	0.987400
I371	I37	0.311980	0.693500	0.947800
I381	I38	0.420100	0.672900	0.062090
N731	N73	0.416700	0.638100	0.938500
C2171	C217	0.408600	0.707000	0.912000
H1451	H145	0.385600	0.743000	0.912500
C2181	C218	0.434300	0.726000	0.884100
H1461	H146	0.429900	0.775800	0.864900
C2191	C219	0.466300	0.672000	0.884600
C2201	C220	0.475600	0.598000	0.909500
H1471	H147	0.497400	0.559100	0.908000
C2211	C221	0.448700	0.587400	0.936900
H1481	H148	0.453200	0.539200	0.956900
C2221	C222	0.493600	0.687700	0.853400
N741	N74	0.488600	0.761400	0.828700
C2231	C223	0.513300	0.778200	0.800400
N751	N75	0.543000	0.721300	0.796800
C2241	C224	0.548000	0.647500	0.821500
N761	N76	0.523200	0.630800	0.849800
N771	N77	0.646400	0.477000	0.818500
C2251	C225	0.628100	0.471000	0.853000
H1491	H149	0.632900	0.424100	0.873600
C2261	C226	0.601600	0.538000	0.856100
H1501	H150	0.596300	0.552100	0.884400
C2271	C227	0.582200	0.588000	0.820500
C2281	C228	0.602200	0.592000	0.786100
H1511	H151	0.595200	0.634800	0.763400
C2291	C229	0.632600	0.533000	0.785800
H1521	H152	0.644700	0.530900	0.760400
Zn201	Zn20	0.695700	0.396300	0.823410
I391	I39	0.720810	0.414600	0.752880
I401	I40	0.681030	0.251800	0.856390
N781	N78	0.500000	0.017700	0.727000
C2301	C230	0.527300	0.956400	0.722600
H1531	H153	0.544400	0.968000	0.702200
C2311	C231	0.532600	0.878000	0.745200
H1541	H154	0.551700	0.835800	0.739500
C2321	C232	0.509400	0.862600	0.776200
C2331	C233	0.481000	0.920900	0.781100
H1551	H155	0.462800	0.909000	0.800300
C2341	C234	0.478600	0.998400	0.757700
H1561	H156	0.460200	0.041700	0.763900
Zn211	Zn21	0.481000	0.119100	0.682600
I411	I41	0.539150	0.148300	0.642990
I421	I42	0.442400	0.232800	0.719500
N791	N79	0.438200	0.050100	0.636500
C2351	C235	0.437600	0.962400	0.635000
H1571	H157	0.452300	0.932200	0.659800
C2361	C236	0.418100	0.910900	0.601200
H1581	H158	0.421200	0.848600	0.599700
C2371	C237	0.393500	0.959500	0.569900
C2381	C238	0.386200	0.047700	0.572000
H1591	H159	0.364700	0.077500	0.553600
C2391	C239	0.413300	0.087600	0.603600
H1601	H160	0.414600	0.150200	0.602000
C2401	C240	0.368500	0.916900	0.531800
N801	N80	0.379200	0.831500	0.525400
C2411	C241	0.358600	0.784000	0.490800
N811	N81	0.327300	0.821900	0.462700
C2421	C242	0.316600	0.907300	0.469200
N821	N82	0.337200	0.954800	0.503700
N831	N83	0.370200	0.507000	0.487800
C2431	C243	0.345400	0.553000	0.457500
H1611	H161	0.327000	0.520500	0.436600
C2441	C244	0.344100	0.643000	0.453800
H1621	H162	0.331600	0.673200	0.427900
C2451	C245	0.362600	0.686800	0.491000
C2461	C246	0.385100	0.644800	0.526500
H1631	H163	0.396400	0.674800	0.552800
C2471	C247	0.389700	0.556200	0.520800
H1641	H164	0.408600	0.526600	0.542500
N841	N84	0.235800	0.039900	0.374300
C2481	C248	0.260300	0.088000	0.403700
H1651	H165	0.258800	0.151200	0.403200
C2491	C249	0.287800	0.045000	0.434500
H1661	H166	0.304300	0.078100	0.456900
C2501	C250	0.291800	0.959000	0.433900
C2511	C251	0.271700	0.917000	0.397500
H1671	H167	0.281300	0.861400	0.389400
C2521	C252	0.237800	0.952000	0.372200
H1681	H168	0.217500	0.917600	0.354800
Zn221	Zn22	0.879600	0.129900	0.987400
I431	I43	0.811980	0.193500	0.947800
I441	I44	0.920100	0.172900	0.062090
N851	N85	0.916700	0.138100	0.938500
C2531	C253	0.908600	0.207000	0.912000
H1691	H169	0.885600	0.243000	0.912500
C2541	C254	0.934300	0.226000	0.884100
H1701	H170	0.929900	0.275800	0.864900
C2551	C255	0.966300	0.172000	0.884600
C2561	C256	0.975600	0.098000	0.909500
H1711	H171	0.997400	0.059100	0.908000
C2571	C257	0.948700	0.087400	0.936900
H1721	H172	0.953200	0.039200	0.956900
C2581	C258	0.993600	0.187700	0.853400
N861	N86	0.988600	0.261400	0.828700
C2591	C259	0.013300	0.278200	0.800400
N871	N87	0.043000	0.221300	0.796800
C2601	C260	0.048000	0.147500	0.821500
N881	N88	0.023200	0.130800	0.849800
N891	N89	0.146400	0.977000	0.818500
C2611	C261	0.128100	0.971000	0.853000
H1731	H173	0.132900	0.924100	0.873600
C2621	C262	0.101600	0.038000	0.856100
H1741	H174	0.096300	0.052100	0.884400
C2631	C263	0.082200	0.088000	0.820500
C2641	C264	0.102200	0.092000	0.786100
H1751	H175	0.095200	0.134800	0.763400
C2651	C265	0.132600	0.033000	0.785800
H1761	H176	0.144700	0.030900	0.760400
Zn231	Zn23	0.195700	0.896300	0.823410
I451	I45	0.220810	0.914600	0.752880
I461	I46	0.181030	0.751800	0.856390
N901	N90	0.000000	0.517700	0.727000
C2661	C266	0.027300	0.456400	0.722600
H1771	H177	0.044400	0.468000	0.702200
C2671	C267	0.032600	0.378000	0.745200
H1781	H178	0.051700	0.335800	0.739500
C2681	C268	0.009400	0.362600	0.776200
C2691	C269	0.981000	0.420900	0.781100
H1791	H179	0.962800	0.409000	0.800300
C2701	C270	0.978600	0.498400	0.757700
H1801	H180	0.960200	0.541700	0.763900
Zn241	Zn24	0.981000	0.619100	0.682600
I471	I47	0.039150	0.648300	0.642990
I481	I48	0.942400	0.732800	0.719500
N911	N91	0.938200	0.550100	0.636500
C2711	C271	0.937600	0.462400	0.635000
H1811	H181	0.952300	0.432200	0.659800
C2721	C272	0.918100	0.410900	0.601200
H1821	H182	0.921200	0.348600	0.599700
C2731	C273	0.893500	0.459500	0.569900
C2741	C274	0.886200	0.547700	0.572000
H1831	H183	0.864700	0.577500	0.553600
C2751	C275	0.913300	0.587600	0.603600
H1841	H184	0.914600	0.650200	0.602000
C2761	C276	0.868500	0.416900	0.531800
N921	N92	0.879200	0.331500	0.525400
C2771	C277	0.858600	0.284000	0.490800
N931	N93	0.827300	0.321900	0.462700
C2781	C278	0.816600	0.407300	0.469200
N941	N94	0.837200	0.454800	0.503700
N951	N95	0.870200	0.007000	0.487800
C2791	C279	0.845400	0.053000	0.457500
H1851	H185	0.827000	0.020500	0.436600
C2801	C280	0.844100	0.143000	0.453800
H1861	H186	0.831600	0.173200	0.427900
C2811	C281	0.862600	0.186800	0.491000
C2821	C282	0.885100	0.144800	0.526500
H1871	H187	0.896400	0.174800	0.552800
C2831	C283	0.889700	0.056200	0.520800
H1881	H188	0.908600	0.026600	0.542500
N961	N96	0.735800	0.539900	0.374300
C2841	C284	0.760300	0.588000	0.403700
H1891	H189	0.758800	0.651200	0.403200
C2851	C285	0.787800	0.545000	0.434500
H1901	H190	0.804300	0.578100	0.456900
C2861	C286	0.791800	0.459000	0.433900
C2871	C287	0.771700	0.417000	0.397500
H1911	H191	0.781300	0.361400	0.389400
C2881	C288	0.737800	0.452000	0.372200
H1921	H192	0.717500	0.417600	0.354800
