data_VUCDAA_clean_PM
_symmetry_space_group_name_H-M	'P1'
_cell_length_a	10.238600
_cell_length_b	10.238600
_cell_length_c	31.013000
_cell_angle_alpha	90.000000
_cell_angle_beta	90.000000
_cell_angle_gamma	120.000000
_symmetry_Int_Tables_number 1

loop_
_symmetry_equiv_pos_as_xyz
'x,y,z'

loop_
_atom_site_label
_atom_site_type_symbol
_atom_site_fract_x
_atom_site_fract_y
_atom_site_fract_z
O11	O1	0.276990	0.091180	0.021200
O21	O2	0.161730	0.156170	0.069970
O31	O3	0.254270	0.006380	0.131600
O41	O4	0.497230	0.143760	0.148980
C11	C1	0.277950	0.151460	0.056560
C21	C2	0.415710	0.213650	0.085140
H11	H1	0.443500	0.315100	0.094100
H21	H2	0.499300	0.219000	0.069000
C31	C3	0.386180	0.114750	0.124960
O51	O5	0.943660	0.424510	0.354530
O61	O6	0.828400	0.489500	0.403300
O71	O7	0.920940	0.339710	0.464930
O81	O8	0.163900	0.477090	0.482310
C41	C4	0.944620	0.484790	0.389890
C51	C5	0.082380	0.546980	0.418470
H31	H3	0.110170	0.648430	0.427430
H41	H4	0.165970	0.552330	0.402330
C61	C6	0.052850	0.448080	0.458290
O91	O9	0.610320	0.757850	0.687870
O101	O10	0.495060	0.822840	0.736640
O111	O11	0.587600	0.673050	0.798270
O121	O12	0.830560	0.810430	0.815650
C71	C7	0.611280	0.818130	0.723230
C81	C8	0.749040	0.880320	0.751810
H51	H5	0.776830	0.981770	0.760770
H61	H6	0.832630	0.885670	0.735670
C91	C9	0.719510	0.781420	0.791630
O131	O13	0.908820	0.185810	0.021200
O141	O14	0.843830	0.005560	0.069970
O151	O15	0.993620	0.247890	0.131600
O161	O16	0.856240	0.353470	0.148980
C101	C10	0.848540	0.126490	0.056560
C111	C11	0.786350	0.202060	0.085140
H71	H7	0.684900	0.128400	0.094100
H81	H8	0.781000	0.280300	0.069000
C121	C12	0.885250	0.271430	0.124960
O171	O17	0.575490	0.519140	0.354530
O181	O18	0.510500	0.338890	0.403300
O191	O19	0.660290	0.581220	0.464930
O201	O20	0.522910	0.686800	0.482310
C131	C13	0.515210	0.459820	0.389890
C141	C14	0.453020	0.535390	0.418470
H91	H9	0.351570	0.461730	0.427430
H101	H10	0.447670	0.613630	0.402330
C151	C15	0.551920	0.604760	0.458290
O211	O21	0.242150	0.852480	0.687870
O221	O22	0.177160	0.672230	0.736640
O231	O23	0.326950	0.914560	0.798270
O241	O24	0.189570	0.020140	0.815650
C161	C16	0.181870	0.793160	0.723230
C171	C17	0.119680	0.868730	0.751810
H111	H11	0.018230	0.795070	0.760770
H121	H12	0.114330	0.946970	0.735670
C181	C18	0.218580	0.938100	0.791630
O251	O25	0.814190	0.723010	0.021200
O261	O26	0.994440	0.838270	0.069970
O271	O27	0.752110	0.745730	0.131600
O281	O28	0.646530	0.502770	0.148980
C191	C19	0.873510	0.722050	0.056560
C201	C20	0.797940	0.584290	0.085140
H131	H13	0.871600	0.556500	0.094100
H141	H14	0.719700	0.500700	0.069000
C211	C21	0.728570	0.613820	0.124960
O291	O29	0.480860	0.056340	0.354530
O301	O30	0.661110	0.171600	0.403300
O311	O31	0.418780	0.079060	0.464930
O321	O32	0.313200	0.836100	0.482310
C221	C22	0.540180	0.055380	0.389890
C231	C23	0.464610	0.917620	0.418470
H151	H15	0.538270	0.889830	0.427430
H161	H16	0.386370	0.834030	0.402330
C241	C24	0.395240	0.947150	0.458290
O331	O33	0.147520	0.389680	0.687870
O341	O34	0.327770	0.504940	0.736640
O351	O35	0.085440	0.412400	0.798270
O361	O36	0.979860	0.169440	0.815650
C251	C25	0.206840	0.388720	0.723230
C261	C26	0.131270	0.250960	0.751810
H171	H17	0.204930	0.223170	0.760770
H181	H18	0.053030	0.167370	0.735670
C271	C27	0.061900	0.280490	0.791630
O371	O37	0.723010	0.908820	0.978800
O381	O38	0.838270	0.843830	0.930030
O391	O39	0.745730	0.993620	0.868400
O401	O40	0.502770	0.856240	0.851020
C281	C28	0.722050	0.848540	0.943440
C291	C29	0.584290	0.786350	0.914860
H191	H19	0.556500	0.684900	0.905900
H201	H20	0.500700	0.781000	0.931000
C301	C30	0.613820	0.885250	0.875040
O411	O41	0.389680	0.242150	0.312130
O421	O42	0.504940	0.177160	0.263360
O431	O43	0.412400	0.326950	0.201730
O441	O44	0.169440	0.189570	0.184350
C311	C31	0.388720	0.181870	0.276770
C321	C32	0.250960	0.119680	0.248190
H211	H21	0.223170	0.018230	0.239230
H221	H22	0.167370	0.114330	0.264330
C331	C33	0.280490	0.218580	0.208370
O451	O45	0.056340	0.575490	0.645470
O461	O46	0.171600	0.510500	0.596700
O471	O47	0.079060	0.660290	0.535070
O481	O48	0.836100	0.522910	0.517690
C341	C34	0.055380	0.515210	0.610110
C351	C35	0.917620	0.453020	0.581530
H231	H23	0.889830	0.351570	0.572570
H241	H24	0.834030	0.447670	0.597670
C361	C36	0.947150	0.551920	0.541710
O491	O49	0.091180	0.814190	0.978800
O501	O50	0.156170	0.994440	0.930030
O511	O51	0.006380	0.752110	0.868400
O521	O52	0.143760	0.646530	0.851020
C371	C37	0.151460	0.873510	0.943440
C381	C38	0.213650	0.797940	0.914860
H251	H25	0.315100	0.871600	0.905900
H261	H26	0.219000	0.719700	0.931000
C391	C39	0.114750	0.728570	0.875040
O531	O53	0.757850	0.147520	0.312130
O541	O54	0.822840	0.327770	0.263360
O551	O55	0.673050	0.085440	0.201730
O561	O56	0.810430	0.979860	0.184350
C401	C40	0.818130	0.206840	0.276770
C411	C41	0.880320	0.131270	0.248190
H271	H27	0.981770	0.204930	0.239230
H281	H28	0.885670	0.053030	0.264330
C421	C42	0.781420	0.061900	0.208370
O571	O57	0.424510	0.480860	0.645470
O581	O58	0.489500	0.661110	0.596700
O591	O59	0.339710	0.418780	0.535070
O601	O60	0.477090	0.313200	0.517690
C431	C43	0.484790	0.540180	0.610110
C441	C44	0.546980	0.464610	0.581530
H291	H29	0.648430	0.538270	0.572570
H301	H30	0.552330	0.386370	0.597670
C451	C45	0.448080	0.395240	0.541710
O611	O61	0.185810	0.276990	0.978800
O621	O62	0.005560	0.161730	0.930030
O631	O63	0.247890	0.254270	0.868400
O641	O64	0.353470	0.497230	0.851020
C461	C46	0.126490	0.277950	0.943440
C471	C47	0.202060	0.415710	0.914860
H311	H31	0.128400	0.443500	0.905900
H321	H32	0.280300	0.499300	0.931000
C481	C48	0.271430	0.386180	0.875040
O651	O65	0.852480	0.610320	0.312130
O661	O66	0.672230	0.495060	0.263360
O671	O67	0.914560	0.587600	0.201730
O681	O68	0.020140	0.830560	0.184350
C491	C49	0.793160	0.611280	0.276770
C501	C50	0.868730	0.749040	0.248190
H331	H33	0.795070	0.776830	0.239230
H341	H34	0.946970	0.832630	0.264330
C511	C51	0.938100	0.719510	0.208370
O691	O69	0.519140	0.943660	0.645470
O701	O70	0.338890	0.828400	0.596700
O711	O71	0.581220	0.920940	0.535070
O721	O72	0.686800	0.163900	0.517690
C521	C52	0.459820	0.944620	0.610110
C531	C53	0.535390	0.082380	0.581530
H351	H35	0.461730	0.110170	0.572570
H361	H36	0.613630	0.165970	0.597670
C541	C54	0.604760	0.052850	0.541710
Nd11	Nd1	0.000000	0.000000	0.000000
Nd21	Nd2	0.666670	0.333330	0.333330
Nd31	Nd3	0.333330	0.666670	0.666670
Nd41	Nd4	0.000000	0.000000	0.131880
Nd51	Nd5	0.666670	0.333330	0.465210
Nd61	Nd6	0.333330	0.666670	0.798550
Nd71	Nd7	0.000000	0.000000	0.868120
Nd81	Nd8	0.666670	0.333330	0.201450
Nd91	Nd9	0.333330	0.666670	0.534790
