data_VUDQOB_clean_PM
_symmetry_space_group_name_H-M	'P1'
_cell_length_a	10.742800
_cell_length_b	11.278600
_cell_length_c	26.172000
_cell_angle_alpha	85.060000
_cell_angle_beta	88.106000
_cell_angle_gamma	62.367000
_symmetry_Int_Tables_number 1

loop_
_symmetry_equiv_pos_as_xyz
'x,y,z'

loop_
_atom_site_label
_atom_site_type_symbol
_atom_site_fract_x
_atom_site_fract_y
_atom_site_fract_z
Yb11	Yb1	0.379980	0.535810	0.560350
Yb21	Yb2	0.411420	0.117230	0.899640
Yb31	Yb3	0.343800	0.346390	0.741820
Yb41	Yb4	0.620020	0.464190	0.439650
Yb51	Yb5	0.588580	0.882770	0.100360
Yb61	Yb6	0.656200	0.653610	0.258180
H11	H1	0.855900	0.268100	0.651200
H21	H2	0.826300	0.516000	0.526700
H31	H3	0.460200	0.109100	0.574100
H41	H4	0.551500	0.091000	0.425200
H51	H5	0.434000	0.621100	0.777700
H61	H6	0.334300	0.859100	0.646800
H71	H7	0.073300	0.248400	0.670500
H81	H8	0.036900	0.504500	0.550000
H91	H9	0.053900	0.156600	0.030800
H101	H10	0.131200	0.872300	0.935900
H111	H11	0.592500	0.280100	0.034800
H121	H12	0.357300	0.568400	0.928300
H131	H13	0.815700	0.164300	0.902500
H141	H14	0.710800	0.325300	0.759200
H151	H15	0.016100	0.188000	0.896400
H161	H16	0.917800	0.337900	0.751200
H171	H17	0.459700	0.782100	0.818500
H181	H18	0.367700	0.017500	0.687600
H191	H19	0.144100	0.731900	0.348800
H201	H20	0.173700	0.484000	0.473300
H211	H21	0.539800	0.890900	0.425900
H221	H22	0.448500	0.909000	0.574800
H231	H23	0.566000	0.378900	0.222300
H241	H24	0.665700	0.140900	0.353200
H251	H25	0.926700	0.751600	0.329500
H261	H26	0.963100	0.495500	0.450000
H271	H27	0.946100	0.843400	0.969200
H281	H28	0.868800	0.127700	0.064100
H291	H29	0.407500	0.719900	0.965200
H301	H30	0.642700	0.431600	0.071700
H311	H31	0.184300	0.835700	0.097500
H321	H32	0.289200	0.674700	0.240800
H331	H33	0.983900	0.812000	0.103600
H341	H34	0.082200	0.662100	0.248800
H351	H35	0.540300	0.217900	0.181500
H361	H36	0.632300	0.982500	0.312400
C11	C1	0.674400	0.415700	0.575400
C21	C2	0.817300	0.395300	0.587900
C31	C3	0.892800	0.315100	0.630500
C41	C4	0.873500	0.464900	0.556300
C51	C5	0.511700	0.252200	0.498800
C61	C6	0.475700	0.065400	0.544200
C71	C7	0.530200	0.054800	0.455400
C81	C8	0.369500	0.617500	0.680600
C91	C9	0.383100	0.723100	0.708300
C101	C10	0.420100	0.700800	0.759500
C111	C11	0.361500	0.842800	0.681100
C121	C12	0.208900	0.377500	0.627500
C131	C13	0.074400	0.377400	0.612300
C141	C14	0.022100	0.304300	0.642400
C151	C15	0.000400	0.455900	0.570000
C161	C16	0.232300	0.036600	0.956400
C171	C17	0.114500	0.015100	0.980400
C181	C18	0.033100	0.092800	0.018400
C191	C19	0.078600	0.923700	0.962100
C201	C20	0.438700	0.308600	0.953400
C211	C21	0.470400	0.408900	0.977900
C221	C22	0.555300	0.368400	0.020800
C231	C23	0.415000	0.540900	0.957200
C241	C24	0.610800	0.224000	0.835900
C251	C25	0.741400	0.240700	0.831500
C261	C26	0.835300	0.200300	0.871800
C271	C27	0.773700	0.294300	0.786700
C281	C28	0.129200	0.266800	0.817200
C291	C29	0.992600	0.258500	0.822500
C301	C30	0.957200	0.211900	0.868000
C311	C31	0.897600	0.302500	0.781900
C321	C32	0.439800	0.018000	0.783400
C331	C33	0.419100	0.913300	0.756900
C341	C34	0.436600	0.796700	0.783800
C351	C35	0.380700	0.937800	0.705600
C361	C36	0.505000	0.119900	0.498800
C371	C37	0.325600	0.584300	0.424600
C381	C38	0.182700	0.604700	0.412100
C391	C39	0.107200	0.684900	0.369500
C401	C40	0.126500	0.535100	0.443700
C411	C41	0.488300	0.747800	0.501200
C421	C42	0.524300	0.934600	0.455800
C431	C43	0.469800	0.945200	0.544600
C441	C44	0.630500	0.382500	0.319400
C451	C45	0.616900	0.276900	0.291700
C461	C46	0.579900	0.299200	0.240500
C471	C47	0.638500	0.157200	0.318900
C481	C48	0.791100	0.622500	0.372500
C491	C49	0.925600	0.622600	0.387700
C501	C50	0.977900	0.695700	0.357600
C511	C51	0.999600	0.544100	0.430000
C521	C52	0.767700	0.963400	0.043600
C531	C53	0.885500	0.984900	0.019600
C541	C54	0.966900	0.907200	0.981600
C551	C55	0.921400	0.076300	0.037900
C561	C56	0.561300	0.691400	0.046600
C571	C57	0.529600	0.591100	0.022100
C581	C58	0.444700	0.631600	0.979200
C591	C59	0.585000	0.459100	0.042800
C601	C60	0.389200	0.776000	0.164100
C611	C61	0.258600	0.759300	0.168500
C621	C62	0.164700	0.799700	0.128200
C631	C63	0.226300	0.705700	0.213300
C641	C64	0.870800	0.733200	0.182800
C651	C65	0.007400	0.741500	0.177500
C661	C66	0.042800	0.788100	0.132000
C671	C67	0.102400	0.697500	0.218100
C681	C68	0.560200	0.982000	0.216600
C691	C69	0.580900	0.086700	0.243100
C701	C70	0.563400	0.203300	0.216200
C711	C71	0.619300	0.062200	0.294400
C721	C72	0.495000	0.880100	0.501200
O11	O1	0.628600	0.449900	0.529730
O21	O2	0.595100	0.408900	0.610600
O31	O3	0.334200	0.645100	0.634000
O41	O4	0.244200	0.454900	0.600600
O51	O5	0.455800	0.320600	0.535200
O61	O6	0.573200	0.281300	0.461600
O71	O7	0.302900	0.968100	0.921800
O81	O8	0.255100	0.128900	0.971600
O91	O9	0.355400	0.346900	0.915800
O101	O10	0.494500	0.189100	0.971970
O111	O11	0.605500	0.144000	0.870600
O121	O12	0.464700	0.996700	0.830000
O131	O13	0.206500	0.234400	0.856100
O141	O14	0.395400	0.509000	0.706210
O151	O15	0.273500	0.305500	0.665700
O161	O16	0.159100	0.302600	0.774400
O171	O17	0.435600	0.116000	0.755800
O181	O18	0.513100	0.293200	0.804800
O191	O19	0.371400	0.550100	0.470270
O201	O20	0.404900	0.591100	0.389400
O211	O21	0.665800	0.354900	0.366000
O221	O22	0.755800	0.545100	0.399400
O231	O23	0.544200	0.679400	0.464800
O241	O24	0.426800	0.718700	0.538400
O251	O25	0.697100	0.031900	0.078200
O261	O26	0.744900	0.871100	0.028400
O271	O27	0.644600	0.653100	0.084200
O281	O28	0.505500	0.810900	0.028030
O291	O29	0.394500	0.856000	0.129400
O301	O30	0.535300	0.003300	0.170000
O311	O31	0.793500	0.765600	0.143900
O321	O32	0.604600	0.491000	0.293790
O331	O33	0.726500	0.694500	0.334300
O341	O34	0.840900	0.697400	0.225600
O351	O35	0.564400	0.884000	0.244200
O361	O36	0.486900	0.706800	0.195200
