data_VUDXID_clean_PM
_symmetry_space_group_name_H-M	'P1'
_cell_length_a	17.005000
_cell_length_b	17.539000
_cell_length_c	21.668000
_cell_angle_alpha	92.010000
_cell_angle_beta	104.490000
_cell_angle_gamma	107.160000
_symmetry_Int_Tables_number 1

loop_
_symmetry_equiv_pos_as_xyz
'x,y,z'

loop_
_atom_site_label
_atom_site_type_symbol
_atom_site_fract_x
_atom_site_fract_y
_atom_site_fract_z
Dy11	Dy1	0.880680	0.711200	0.092990
Dy21	Dy2	0.002250	0.758980	0.295760
Cu11	Cu1	0.432200	0.710860	0.190270
Cu21	Cu2	0.878100	0.217790	0.191070
Cu31	Cu3	0.885170	0.707210	0.678230
O11	O1	0.974500	0.691300	0.388370
O21	O2	0.984000	0.817100	0.395070
O31	O3	0.947000	0.547500	0.586100
O41	O4	0.909500	0.607800	0.658300
O51	O5	0.923000	0.113900	0.348000
O61	O6	0.914200	0.208700	0.282400
O71	O7	0.956500	0.861600	0.245420
O81	O8	0.926000	0.845500	0.140620
O91	O9	0.873100	0.891200	0.781800
O101	O10	0.894500	0.645900	0.995570
O111	O11	0.901000	0.774600	0.995870
O121	O12	0.953000	0.626300	0.251580
O131	O13	0.056100	0.765700	0.208620
O141	O14	0.028200	0.749200	0.101560
O151	O15	0.427800	0.724200	0.280390
O161	O16	0.348500	0.749500	0.339400
O171	O17	0.830900	0.706100	0.180620
O181	O18	0.853800	0.722900	0.286500
O191	O19	0.526100	0.684700	0.046200
O201	O20	0.438400	0.700100	0.101540
O211	O21	0.927500	0.610200	0.142190
O221	O22	0.860900	0.327000	0.033300
O231	O23	0.867500	0.232400	0.101400
O241	O24	0.881000	0.813300	0.700700
N11	N1	0.896600	0.699300	0.770500
N21	N2	0.898100	0.114600	0.183800
N31	N3	0.905600	0.728800	0.594700
N41	N4	0.891900	0.334000	0.201800
N51	N5	0.546700	0.699600	0.209200
N61	N6	0.322400	0.731700	0.172500
C11	C1	0.937000	0.883800	0.193900
C21	C2	0.807800	0.710700	0.230900
C31	C3	0.712600	0.703900	0.220900
C41	C4	0.970300	0.751400	0.416600
C51	C5	0.900900	0.710000	0.968100
C61	C6	0.904400	0.705600	0.900100
C71	C7	0.657600	0.697800	0.162700
H11	H1	0.675500	0.694400	0.125800
C81	C8	0.188600	0.741300	0.107800
H21	H2	0.152500	0.739900	0.067300
C91	C9	0.268500	0.732300	0.114900
H31	H3	0.286200	0.726400	0.078200
C101	C10	0.219400	0.752500	0.225300
H41	H4	0.204000	0.758900	0.262900
C111	C11	0.299300	0.742200	0.225300
C121	C12	0.076400	0.756500	0.157000
C131	C13	0.922100	0.963300	0.191500
C141	C14	0.510000	0.692600	0.097800
C151	C15	0.364300	0.740000	0.289000
C161	C16	0.164400	0.752400	0.163100
C171	C17	0.575400	0.696400	0.158100
C181	C18	0.598600	0.703900	0.267400
H51	H5	0.577800	0.705700	0.303100
C191	C19	0.909900	0.640500	0.869200
H61	H6	0.916400	0.597200	0.891200
C201	C20	0.906100	0.637900	0.804800
H71	H7	0.910200	0.592300	0.784200
C211	C21	0.890900	0.762700	0.800600
C221	C22	0.896600	0.769000	0.865600
H81	H8	0.895200	0.815900	0.886000
C231	C23	0.899800	0.445200	0.140800
H91	H9	0.896300	0.466100	0.101800
C241	C24	0.920800	0.496200	0.198500
C251	C25	0.935100	0.585500	0.197700
C261	C26	0.884700	0.364600	0.143500
C271	C27	0.907800	0.381200	0.255900
H101	H10	0.908400	0.359300	0.294500
C281	C28	0.923300	0.462200	0.254300
H111	H11	0.936000	0.495000	0.292400
C291	C29	0.892600	0.072400	0.130700
H121	H12	0.882700	0.094300	0.092100
C301	C30	0.914400	0.085800	0.240700
C311	C31	0.882200	0.827000	0.758600
C321	C32	0.949800	0.677800	0.509400
H131	H13	0.965600	0.637200	0.492100
C331	C33	0.928000	0.670600	0.568000
C341	C34	0.905300	0.796800	0.564600
H141	H14	0.894000	0.838600	0.584600
C351	C35	0.901300	0.994500	0.130600
H151	H15	0.893700	0.964000	0.092300
C361	C36	0.927100	0.009400	0.244500
H161	H16	0.939100	0.990800	0.284400
C371	C37	0.948100	0.745500	0.476400
C381	C38	0.683900	0.706000	0.276200
H171	H17	0.719900	0.708700	0.316900
C391	C39	0.919800	0.139600	0.295400
C401	C40	0.869500	0.306100	0.086200
C411	C41	0.926100	0.603200	0.606300
C421	C42	0.921800	0.804500	0.503700
H181	H18	0.915300	0.848000	0.482100
Dy31	Dy3	0.119320	0.288800	0.907010
Dy41	Dy4	0.997760	0.241020	0.704240
Cu41	Cu4	0.567800	0.289140	0.809730
Cu51	Cu5	0.121900	0.782210	0.808930
Cu61	Cu6	0.114830	0.292790	0.321770
O251	O25	0.025500	0.308700	0.611630
O261	O26	0.016000	0.182900	0.604930
O271	O27	0.053000	0.452500	0.413900
O281	O28	0.090500	0.392200	0.341700
O291	O29	0.077000	0.886100	0.652000
O301	O30	0.085800	0.791300	0.717600
O311	O31	0.043500	0.138400	0.754580
O321	O32	0.074000	0.154500	0.859380
O331	O33	0.126900	0.108800	0.218200
O341	O34	0.105500	0.354100	0.004430
O351	O35	0.099000	0.225400	0.004130
O361	O36	0.047000	0.373700	0.748420
O371	O37	0.943900	0.234300	0.791380
O381	O38	0.971800	0.250800	0.898440
O391	O39	0.572200	0.275800	0.719610
O401	O40	0.651500	0.250500	0.660600
O411	O41	0.169100	0.293900	0.819380
O421	O42	0.146200	0.277100	0.713500
O431	O43	0.473900	0.315300	0.953800
O441	O44	0.561600	0.299900	0.898460
O451	O45	0.072500	0.389800	0.857810
O461	O46	0.139100	0.673000	0.966700
O471	O47	0.132500	0.767600	0.898600
O481	O48	0.119000	0.186700	0.299300
N71	N7	0.103400	0.300700	0.229500
N81	N8	0.101900	0.885400	0.816200
N91	N9	0.094400	0.271200	0.405300
N101	N10	0.108100	0.666000	0.798200
N111	N11	0.453300	0.300400	0.790800
N121	N12	0.677600	0.268300	0.827500
C431	C43	0.063000	0.116200	0.806100
C441	C44	0.192200	0.289300	0.769100
C451	C45	0.287400	0.296100	0.779100
C461	C46	0.029700	0.248600	0.583400
C471	C47	0.099100	0.290000	0.031900
C481	C48	0.095600	0.294400	0.099900
C491	C49	0.342400	0.302200	0.837300
H191	H19	0.324500	0.305600	0.874200
C501	C50	0.811400	0.258700	0.892200
H201	H20	0.847500	0.260100	0.932700
C511	C51	0.731500	0.267700	0.885100
H211	H21	0.713800	0.273600	0.921800
C521	C52	0.780600	0.247500	0.774700
H221	H22	0.796000	0.241100	0.737100
C531	C53	0.700700	0.257800	0.774700
C541	C54	0.923600	0.243500	0.843000
C551	C55	0.077900	0.036700	0.808500
C561	C56	0.490000	0.307400	0.902200
C571	C57	0.635700	0.260000	0.711000
C581	C58	0.835600	0.247600	0.836900
C591	C59	0.424600	0.303600	0.841900
C601	C60	0.401400	0.296100	0.732600
H231	H23	0.422200	0.294300	0.696900
C611	C61	0.090100	0.359500	0.130800
H241	H24	0.083600	0.402800	0.108800
C621	C62	0.093900	0.362100	0.195200
H251	H25	0.089800	0.407700	0.215800
C631	C63	0.109100	0.237300	0.199400
C641	C64	0.103400	0.231000	0.134400
H261	H26	0.104800	0.184100	0.114000
C651	C65	0.100200	0.554800	0.859200
H271	H27	0.103700	0.533900	0.898200
C661	C66	0.079200	0.503800	0.801500
C671	C67	0.064900	0.414500	0.802300
C681	C68	0.115300	0.635400	0.856500
C691	C69	0.092200	0.618800	0.744100
H281	H28	0.091600	0.640700	0.705500
C701	C70	0.076700	0.537800	0.745700
H291	H29	0.064000	0.505000	0.707600
C711	C71	0.107400	0.927600	0.869300
H301	H30	0.117300	0.905700	0.907900
C721	C72	0.085600	0.914200	0.759300
C731	C73	0.117800	0.173000	0.241400
C741	C74	0.050200	0.322200	0.490600
H311	H31	0.034400	0.362800	0.507900
C751	C75	0.072000	0.329400	0.432000
C761	C76	0.094700	0.203200	0.435400
H321	H32	0.106000	0.161400	0.415400
C771	C77	0.098700	0.005500	0.869400
H331	H33	0.106300	0.036000	0.907700
C781	C78	0.072900	0.990600	0.755500
H341	H34	0.060900	0.009200	0.715600
C791	C79	0.051900	0.254500	0.523600
C801	C80	0.316100	0.294000	0.723800
H351	H35	0.280100	0.291300	0.683100
C811	C81	0.080200	0.860400	0.704600
C821	C82	0.130500	0.693900	0.913800
C831	C83	0.073900	0.396800	0.393700
C841	C84	0.078200	0.195500	0.496300
H361	H36	0.084700	0.152000	0.517900
