data_VUGXIG_clean_PM
_symmetry_space_group_name_H-M	'P1'
_cell_length_a	9.529700
_cell_length_b	12.699600
_cell_length_c	18.820300
_cell_angle_alpha	106.347000
_cell_angle_beta	98.630000
_cell_angle_gamma	100.059000
_symmetry_Int_Tables_number 1

loop_
_symmetry_equiv_pos_as_xyz
'x,y,z'

loop_
_atom_site_label
_atom_site_type_symbol
_atom_site_fract_x
_atom_site_fract_y
_atom_site_fract_z
Nd11	Nd1	0.766650	0.983680	0.996680
O11	O1	0.454200	0.030100	0.086800
N11	N1	0.000500	0.148300	0.679900
O21	O2	0.686600	0.024400	0.117400
O31	O3	0.860800	0.065200	0.904000
O41	O4	0.008700	0.890900	0.926100
N21	N2	0.958700	0.607300	0.674600
O51	O5	0.769800	0.822900	0.887800
O61	O6	0.105300	0.120000	0.936500
N31	N3	0.566300	0.167200	0.366600
C11	C1	0.919900	0.231700	0.578000
C21	C2	0.567500	0.041400	0.132900
C31	C3	0.565000	0.082500	0.216300
C41	C4	0.905400	0.418200	0.574100
C51	C5	0.437600	0.102100	0.240200
H11	H1	0.348800	0.086100	0.204400
C61	C6	0.687500	0.145700	0.346100
H21	H2	0.773000	0.159700	0.383700
C71	C7	0.772300	0.375300	0.523400
C81	C8	0.979500	0.346700	0.602500
C91	C9	0.709600	0.258000	0.502300
C101	C10	0.782000	0.186100	0.528500
C111	C11	0.897500	0.823500	0.880000
C121	C12	0.988600	0.118500	0.816700
C131	C13	0.691000	0.102800	0.270400
H31	H3	0.778400	0.087400	0.255800
C141	C14	0.059200	0.737600	0.797100
H41	H4	0.142300	0.781100	0.835300
C151	C15	0.983300	0.100200	0.892900
C161	C16	0.801900	0.675600	0.753300
H51	H5	0.705800	0.676000	0.761200
C171	C17	0.123000	0.396200	0.659500
H61	H6	0.157600	0.336000	0.674900
H71	H7	0.109000	0.452500	0.704000
H81	H8	0.195200	0.432000	0.636400
C181	C18	0.006700	0.153700	0.600400
H91	H9	0.109600	0.179200	0.598000
H101	H10	0.969000	0.077000	0.563600
C191	C19	0.874200	0.143600	0.703100
H111	H11	0.790300	0.150300	0.671900
C201	C20	0.920700	0.742500	0.809100
C211	C21	0.442800	0.145200	0.316800
H121	H12	0.356900	0.159200	0.333900
C221	C22	0.118000	0.125200	0.791500
H131	H13	0.203900	0.120800	0.822400
C231	C23	0.866400	0.129300	0.771600
H141	H14	0.777100	0.126700	0.788400
C241	C24	0.075900	0.669200	0.729300
H151	H15	0.171000	0.665600	0.720900
C251	C25	0.823000	0.608500	0.686200
H161	H16	0.741300	0.562700	0.647900
C261	C26	0.979000	0.543100	0.598800
H171	H17	0.084700	0.551000	0.600100
H181	H18	0.939100	0.576300	0.560700
C271	C27	0.559100	0.210900	0.450400
H191	H19	0.503400	0.270600	0.457500
H201	H20	0.506200	0.148500	0.464900
C281	C28	0.689100	0.448400	0.490500
H211	H21	0.607600	0.460300	0.515600
H221	H22	0.651600	0.410800	0.436000
H231	H23	0.754600	0.521400	0.498600
C291	C29	0.121700	0.138200	0.721400
H241	H24	0.209000	0.140100	0.702800
C301	C30	0.717600	0.060900	0.502800
H251	H25	0.618900	0.044600	0.472400
H261	H26	0.713700	0.035400	0.547200
H271	H27	0.778500	0.021200	0.472200
Nd21	Nd2	0.233350	0.016320	0.003320
O71	O7	0.545800	0.969900	0.913200
N41	N4	0.999500	0.851700	0.320100
O81	O8	0.313400	0.975600	0.882600
O91	O9	0.139200	0.934800	0.096000
O101	O10	0.991300	0.109100	0.073900
N51	N5	0.041300	0.392700	0.325400
O111	O11	0.230200	0.177100	0.112200
O121	O12	0.894700	0.880000	0.063500
N61	N6	0.433700	0.832800	0.633400
C311	C31	0.080100	0.768300	0.422000
C321	C32	0.432500	0.958600	0.867100
C331	C33	0.435000	0.917500	0.783700
C341	C34	0.094600	0.581800	0.425900
C351	C35	0.562400	0.897900	0.759800
H281	H28	0.651200	0.913900	0.795600
C361	C36	0.312500	0.854300	0.653900
H291	H29	0.227000	0.840300	0.616300
C371	C37	0.227700	0.624700	0.476600
C381	C38	0.020500	0.653300	0.397500
C391	C39	0.290400	0.742000	0.497700
C401	C40	0.218000	0.813900	0.471500
C411	C41	0.102500	0.176500	0.120000
C421	C42	0.011400	0.881500	0.183300
C431	C43	0.309000	0.897200	0.729600
H301	H30	0.221600	0.912600	0.744200
C441	C44	0.940800	0.262400	0.202900
H311	H31	0.857700	0.218900	0.164700
C451	C45	0.016700	0.899800	0.107100
C461	C46	0.198100	0.324400	0.246700
H321	H32	0.294200	0.324000	0.238800
C471	C47	0.877000	0.603800	0.340500
H331	H33	0.842400	0.664000	0.325100
H341	H34	0.891000	0.547500	0.296000
H351	H35	0.804800	0.568000	0.363600
C481	C48	0.993300	0.846300	0.399600
H361	H36	0.890400	0.820800	0.402000
H371	H37	0.031000	0.923000	0.436400
C491	C49	0.125800	0.856400	0.296900
H381	H38	0.209700	0.849700	0.328100
C501	C50	0.079300	0.257500	0.190900
C511	C51	0.557200	0.854800	0.683200
H391	H39	0.643100	0.840800	0.666100
C521	C52	0.882000	0.874800	0.208500
H401	H40	0.796100	0.879200	0.177600
C531	C53	0.133600	0.870700	0.228400
H411	H41	0.222900	0.873300	0.211600
C541	C54	0.924100	0.330800	0.270700
H421	H42	0.829000	0.334400	0.279100
C551	C55	0.177000	0.391500	0.313800
H431	H43	0.258700	0.437300	0.352100
C561	C56	0.021000	0.456900	0.401200
H441	H44	0.915300	0.449000	0.399900
H451	H45	0.060900	0.423700	0.439300
C571	C57	0.440900	0.789100	0.549600
H461	H46	0.496600	0.729400	0.542500
H471	H47	0.493800	0.851500	0.535100
C581	C58	0.310900	0.551600	0.509500
H481	H48	0.392400	0.539700	0.484400
H491	H49	0.348400	0.589200	0.564000
H501	H50	0.245400	0.478600	0.501400
C591	C59	0.878300	0.861800	0.278600
H511	H51	0.791000	0.859900	0.297200
C601	C60	0.282400	0.939100	0.497200
H521	H52	0.381100	0.955400	0.527600
H531	H53	0.286300	0.964600	0.452800
H541	H54	0.221500	0.978800	0.527800
