data_VUGXEC_clean_PM
_symmetry_space_group_name_H-M	'P1'
_cell_length_a	9.530000
_cell_length_b	12.540100
_cell_length_c	18.871900
_cell_angle_alpha	105.932000
_cell_angle_beta	98.860000
_cell_angle_gamma	100.482000
_symmetry_Int_Tables_number 1

loop_
_symmetry_equiv_pos_as_xyz
'x,y,z'

loop_
_atom_site_label
_atom_site_type_symbol
_atom_site_fract_x
_atom_site_fract_y
_atom_site_fract_z
Pr11	Pr1	0.765820	0.482220	0.496360
O11	O1	0.456300	0.529800	0.586670
O21	O2	0.686700	0.519800	0.617440
N11	N1	0.003500	0.651900	0.181600
N21	N2	0.567300	0.662900	0.866300
N31	N3	0.957000	0.110000	0.174100
O31	O3	0.766800	0.319800	0.385600
C11	C1	0.905400	0.920100	0.073300
C21	C2	0.979900	0.849200	0.101600
C31	C3	0.568100	0.538100	0.632700
O41	O4	0.006300	0.391300	0.424900
C41	C4	0.922600	0.731900	0.078000
O51	O5	0.861200	0.569400	0.405000
C51	C5	0.772600	0.875800	0.022500
C61	C6	0.920700	0.243400	0.307400
C71	C7	0.710200	0.755700	0.001300
C81	C8	0.691400	0.598200	0.770700
H11	H1	0.778400	0.582000	0.756300
C91	C9	0.439500	0.597900	0.740000
H21	H2	0.351000	0.582800	0.704100
C101	C10	0.565700	0.578600	0.716300
C111	C11	0.895800	0.323900	0.378500
C121	C12	0.442900	0.639000	0.815600
H31	H3	0.355900	0.650500	0.832000
C131	C13	0.786500	0.684500	0.028400
C141	C14	0.124400	0.899500	0.158800
H41	H4	0.162400	0.837900	0.171400
H51	H5	0.109100	0.951800	0.204700
H61	H6	0.194700	0.941400	0.137400
C151	C15	0.869100	0.634300	0.273600
H71	H7	0.779500	0.631400	0.289900
C161	C16	0.989600	0.625200	0.318700
C171	C17	0.009100	0.654500	0.101100
H81	H8	0.112000	0.680200	0.098300
H91	H9	0.970400	0.576300	0.065400
C181	C18	0.057900	0.236800	0.296600
H101	H10	0.141200	0.277500	0.335700
C191	C19	0.689000	0.641500	0.845900
H111	H11	0.775000	0.656000	0.883400
C201	C20	0.073800	0.170800	0.228800
H121	H12	0.169100	0.168200	0.220300
C211	C21	0.975500	0.045800	0.097100
H131	H13	0.932100	0.078900	0.059500
H141	H14	0.081100	0.056000	0.097500
C221	C22	0.120700	0.631200	0.294000
H151	H15	0.206100	0.626300	0.325200
C231	C23	0.125400	0.644200	0.224300
H161	H16	0.213600	0.647600	0.206600
C241	C24	0.877300	0.647700	0.203900
H171	H17	0.793600	0.654000	0.172200
C251	C25	0.799300	0.177100	0.251600
H181	H18	0.703300	0.177800	0.259400
C261	C26	0.686700	0.948000	0.988800
H191	H19	0.601200	0.954400	0.011200
H201	H20	0.654500	0.911800	0.934100
H211	H21	0.749200	0.024300	0.999400
C271	C27	0.821500	0.109500	0.184000
H221	H22	0.740200	0.063200	0.145100
C281	C28	0.561700	0.707200	0.950300
H231	H23	0.505300	0.766900	0.957100
H241	H24	0.509600	0.643700	0.965100
C291	C29	0.723700	0.556800	0.003300
H251	H25	0.796400	0.517200	0.984200
H261	H26	0.635900	0.536800	0.963200
H271	H27	0.698300	0.533900	0.046200
O61	O6	0.106700	0.625500	0.438600
C301	C30	0.984500	0.605900	0.395100
Pr21	Pr2	0.234180	0.517780	0.503640
O71	O7	0.543700	0.470200	0.413330
O81	O8	0.313300	0.480200	0.382560
N41	N4	0.996500	0.348100	0.818400
N51	N5	0.432700	0.337100	0.133700
N61	N6	0.043000	0.890000	0.825900
O91	O9	0.233200	0.680200	0.614400
C311	C31	0.094600	0.079900	0.926700
C321	C32	0.020100	0.150800	0.898400
C331	C33	0.431900	0.461900	0.367300
O101	O10	0.993700	0.608700	0.575100
C341	C34	0.077400	0.268100	0.922000
O111	O11	0.138800	0.430600	0.595000
C351	C35	0.227400	0.124200	0.977500
C361	C36	0.079300	0.756600	0.692600
C371	C37	0.289800	0.244300	0.998700
C381	C38	0.308600	0.401800	0.229300
H281	H28	0.221600	0.418000	0.243700
C391	C39	0.560500	0.402100	0.260000
H291	H29	0.649000	0.417200	0.295900
C401	C40	0.434300	0.421400	0.283700
C411	C41	0.104200	0.676100	0.621500
C421	C42	0.557100	0.361000	0.184400
H301	H30	0.644100	0.349500	0.168000
C431	C43	0.213500	0.315500	0.971600
C441	C44	0.875600	0.100500	0.841200
H311	H31	0.837600	0.162100	0.828600
H321	H32	0.890900	0.048200	0.795300
H331	H33	0.805300	0.058600	0.862600
C451	C45	0.130900	0.365700	0.726400
H341	H34	0.220500	0.368600	0.710100
C461	C46	0.010400	0.374800	0.681300
C471	C47	0.990900	0.345500	0.898900
H351	H35	0.888000	0.319800	0.901700
H361	H36	0.029600	0.423700	0.934600
C481	C48	0.942100	0.763200	0.703400
H371	H37	0.858800	0.722500	0.664300
C491	C49	0.311000	0.358500	0.154100
H381	H38	0.225000	0.344000	0.116600
C501	C50	0.926200	0.829200	0.771200
H391	H39	0.830900	0.831800	0.779700
C511	C51	0.024500	0.954200	0.902900
H401	H40	0.067900	0.921100	0.940500
H411	H41	0.918900	0.944000	0.902500
C521	C52	0.879300	0.368800	0.706000
H421	H42	0.793900	0.373700	0.674800
C531	C53	0.874600	0.355800	0.775700
H431	H43	0.786400	0.352400	0.793400
C541	C54	0.122700	0.352300	0.796100
H441	H44	0.206400	0.346000	0.827800
C551	C55	0.200700	0.822900	0.748400
H451	H45	0.296700	0.822200	0.740600
C561	C56	0.313300	0.052000	0.011200
H461	H46	0.398800	0.045600	0.988800
H471	H47	0.345500	0.088200	0.065900
H481	H48	0.250800	0.975700	0.000600
C571	C57	0.178500	0.890500	0.816000
H491	H49	0.259800	0.936800	0.854900
C581	C58	0.438300	0.292800	0.049700
H501	H50	0.494700	0.233100	0.042900
H511	H51	0.490400	0.356300	0.034900
C591	C59	0.276300	0.443200	0.996700
H521	H52	0.203600	0.482800	0.015800
H531	H53	0.364100	0.463200	0.036800
H541	H54	0.301700	0.466100	0.953800
O121	O12	0.893300	0.374500	0.561400
C601	C60	0.015500	0.394100	0.604900
