data_VUGYIH_clean_PM
_symmetry_space_group_name_H-M	'P1'
_cell_length_a	9.495100
_cell_length_b	12.559500
_cell_length_c	18.919100
_cell_angle_alpha	106.107000
_cell_angle_beta	98.869000
_cell_angle_gamma	100.650000
_symmetry_Int_Tables_number 1

loop_
_symmetry_equiv_pos_as_xyz
'x,y,z'

loop_
_atom_site_label
_atom_site_type_symbol
_atom_site_fract_x
_atom_site_fract_y
_atom_site_fract_z
Yb11	Yb1	0.234130	0.017810	0.003910
O11	O1	0.457800	0.029500	0.087700
O21	O2	0.689000	0.020400	0.118800
O31	O3	0.002400	0.891200	0.924300
N11	N1	0.567800	0.158900	0.367300
O41	O4	0.763500	0.818800	0.883700
N21	N2	0.005400	0.152900	0.681900
O51	O5	0.106500	0.127100	0.938800
O61	O6	0.860500	0.071100	0.905000
N31	N3	0.954500	0.610400	0.672700
C11	C1	0.924100	0.232300	0.578400
C21	C2	0.891600	0.823200	0.877000
C31	C3	0.565900	0.076400	0.217000
C41	C4	0.905500	0.419100	0.573300
C51	C5	0.569900	0.037900	0.134000
C61	C6	0.980800	0.348500	0.602200
C71	C7	0.440400	0.096400	0.240400
H11	H1	0.352200	0.082200	0.204200
C81	C8	0.711000	0.253500	0.501600
C91	C9	0.692400	0.096400	0.271200
H21	H2	0.780000	0.081200	0.256600
C101	C10	0.442200	0.136700	0.315800
H31	H3	0.354900	0.149100	0.331800
C111	C11	0.770100	0.372000	0.522500
C121	C12	0.690000	0.138500	0.346600
H41	H4	0.776600	0.152900	0.384000
C131	C13	0.916200	0.742500	0.805400
C141	C14	0.991300	0.126500	0.819100
C151	C15	0.786500	0.183000	0.528400
C161	C16	0.878700	0.147800	0.704400
H51	H5	0.794500	0.153300	0.672500
C171	C17	0.011700	0.155200	0.602600
H61	H6	0.115300	0.181400	0.600200
H71	H7	0.973600	0.076700	0.567000
C181	C18	0.122000	0.133500	0.794600
H81	H8	0.208000	0.130000	0.826200
C191	C19	0.869100	0.134800	0.773200
H91	H9	0.778700	0.131600	0.789100
C201	C20	0.124500	0.401700	0.659500
H101	H10	0.163700	0.341700	0.673500
H111	H11	0.108000	0.455000	0.704500
H121	H12	0.195000	0.442900	0.637700
C211	C21	0.055400	0.739800	0.795100
H131	H13	0.138500	0.784000	0.833900
C221	C22	0.797700	0.675800	0.749900
H141	H14	0.701100	0.675900	0.757500
C231	C23	0.072800	0.672400	0.727900
H151	H15	0.168600	0.669400	0.720100
C241	C24	0.818000	0.609400	0.683800
H161	H16	0.735600	0.562400	0.645500
C251	C25	0.974700	0.545300	0.597100
H171	H17	0.081100	0.556300	0.598300
H181	H18	0.931700	0.577200	0.558900
C261	C26	0.985600	0.107500	0.894700
C271	C27	0.128200	0.145300	0.725100
H191	H19	0.217000	0.148200	0.707600
C281	C28	0.561000	0.202100	0.450200
H201	H20	0.502400	0.260300	0.456900
H211	H21	0.510300	0.137900	0.464800
C291	C29	0.684900	0.444100	0.488700
H221	H22	0.604200	0.456700	0.514200
H231	H23	0.645000	0.404300	0.434800
H241	H24	0.750700	0.517800	0.495300
C301	C30	0.725400	0.055700	0.503300
H251	H25	0.626100	0.036600	0.472100
H261	H26	0.721700	0.030100	0.547500
H271	H27	0.788500	0.017600	0.473800
Yb21	Yb2	0.765870	0.982190	0.996090
O71	O7	0.542200	0.970500	0.912300
O81	O8	0.311000	0.979600	0.881200
O91	O9	0.997600	0.108800	0.075700
N41	N4	0.432200	0.841100	0.632700
O101	O10	0.236500	0.181200	0.116300
N51	N5	0.994600	0.847100	0.318100
O111	O11	0.893500	0.872900	0.061200
O121	O12	0.139500	0.928900	0.095000
N61	N6	0.045500	0.389600	0.327300
C311	C31	0.075900	0.767700	0.421600
C321	C32	0.108400	0.176800	0.123000
C331	C33	0.434100	0.923600	0.783000
C341	C34	0.094500	0.580900	0.426700
C351	C35	0.430100	0.962100	0.866000
C361	C36	0.019200	0.651500	0.397800
C371	C37	0.559600	0.903600	0.759600
H281	H28	0.647800	0.917800	0.795800
C381	C38	0.289000	0.746500	0.498400
C391	C39	0.307600	0.903600	0.728800
H291	H29	0.220000	0.918800	0.743400
C401	C40	0.557800	0.863300	0.684200
H301	H30	0.645100	0.850900	0.668200
C411	C41	0.229900	0.628000	0.477500
C421	C42	0.310000	0.861500	0.653400
H311	H31	0.223400	0.847100	0.616000
C431	C43	0.083800	0.257500	0.194600
C441	C44	0.008700	0.873500	0.180900
C451	C45	0.213500	0.817000	0.471600
C461	C46	0.121300	0.852200	0.295600
H321	H32	0.205500	0.846700	0.327500
C471	C47	0.988300	0.844800	0.397400
H331	H33	0.884700	0.818600	0.399800
H341	H34	0.026400	0.923300	0.433000
C481	C48	0.878000	0.866500	0.205400
H351	H35	0.792000	0.870000	0.173800
C491	C49	0.130900	0.865200	0.226800
H361	H36	0.221300	0.868400	0.210900
C501	C50	0.875500	0.598300	0.340500
H371	H37	0.836300	0.658300	0.326500
H381	H38	0.892000	0.545000	0.295500
H391	H39	0.805000	0.557100	0.362300
C511	C51	0.944600	0.260200	0.204900
H401	H40	0.861500	0.216000	0.166100
C521	C52	0.202300	0.324200	0.250100
H411	H41	0.298900	0.324100	0.242500
C531	C53	0.927200	0.327600	0.272100
H421	H42	0.831400	0.330600	0.279900
C541	C54	0.182000	0.390600	0.316200
H431	H43	0.264400	0.437600	0.354500
C551	C55	0.025300	0.454700	0.402900
H441	H44	0.918900	0.443700	0.401700
H451	H45	0.068300	0.422800	0.441100
C561	C56	0.014400	0.892500	0.105300
C571	C57	0.871800	0.854700	0.274900
H461	H46	0.783000	0.851800	0.292400
C581	C58	0.439000	0.797900	0.549800
H471	H47	0.497600	0.739700	0.543100
H481	H48	0.489700	0.862100	0.535200
C591	C59	0.315100	0.555900	0.511300
H491	H49	0.395800	0.543300	0.485800
H501	H50	0.355000	0.595700	0.565200
H511	H51	0.249300	0.482200	0.504700
C601	C60	0.274600	0.944300	0.496700
H521	H52	0.373900	0.963400	0.527900
H531	H53	0.278300	0.969900	0.452500
H541	H54	0.211500	0.982400	0.526200
