data_VUGYAZ_clean_PM
_symmetry_space_group_name_H-M	'P1'
_cell_length_a	9.472700
_cell_length_b	12.652000
_cell_length_c	18.601700
_cell_angle_alpha	106.106000
_cell_angle_beta	98.088000
_cell_angle_gamma	100.255000
_symmetry_Int_Tables_number 1

loop_
_symmetry_equiv_pos_as_xyz
'x,y,z'

loop_
_atom_site_label
_atom_site_type_symbol
_atom_site_fract_x
_atom_site_fract_y
_atom_site_fract_z
Dy11	Dy1	0.763840	0.484370	0.497150
O11	O1	0.551600	0.468200	0.414700
N11	N1	0.995600	0.348500	0.817200
O21	O2	0.975700	0.608100	0.574300
O31	O3	0.889500	0.383000	0.559700
O41	O4	0.319600	0.479100	0.386700
O51	O5	0.218500	0.667700	0.607700
N21	N2	0.438800	0.337200	0.133200
C11	C1	0.098700	0.081900	0.926400
C21	C2	0.439800	0.420100	0.285100
N31	N3	0.043900	0.892100	0.826200
C31	C3	0.080400	0.268400	0.921300
C41	C4	0.090500	0.670700	0.617500
C51	C5	0.439100	0.460900	0.370600
C61	C6	0.565800	0.398100	0.260400
H11	H1	0.653800	0.410700	0.296300
C71	C7	0.075200	0.756100	0.689500
C81	C8	0.218700	0.315600	0.970700
C91	C9	0.232900	0.127900	0.977100
C101	C10	0.314200	0.402100	0.231200
H21	H2	0.227700	0.419400	0.247200
C111	C11	0.295300	0.245500	0.997500
C121	C12	0.562500	0.357900	0.183500
H31	H3	0.649300	0.344800	0.166100
C131	C13	0.878100	0.102100	0.842400
H41	H4	0.833000	0.163100	0.834600
H51	H5	0.812800	0.053700	0.862700
H61	H6	0.894800	0.057100	0.793500
C141	C14	0.314200	0.359100	0.154000
H71	H7	0.228000	0.345400	0.116700
C151	C15	0.197100	0.821700	0.744500
H81	H8	0.292700	0.819400	0.735200
C161	C16	0.875400	0.370400	0.704600
H91	H9	0.788600	0.374300	0.673900
C171	C17	0.937000	0.762900	0.704300
H101	H10	0.851800	0.720200	0.667100
C181	C18	0.130400	0.367700	0.723300
H111	H11	0.220100	0.371000	0.705700
C191	C19	0.925100	0.831800	0.772700
H121	H12	0.830700	0.837100	0.782900
C201	C20	0.011600	0.399200	0.602400
C211	C21	0.021600	0.151800	0.898000
C221	C22	0.122200	0.353100	0.793000
H131	H13	0.206500	0.346200	0.824100
C231	C23	0.991600	0.345000	0.898400
H141	H14	0.029200	0.422400	0.934500
H151	H15	0.888700	0.319100	0.902100
C241	C24	0.279500	0.441600	0.995000
H161	H16	0.222900	0.479900	0.030000
H171	H17	0.272900	0.467500	0.949900
H181	H18	0.382200	0.459200	0.021000
C251	C25	0.179000	0.889500	0.812100
H191	H19	0.262400	0.935300	0.849500
C261	C26	0.873300	0.357300	0.775700
H201	H20	0.785600	0.354600	0.795100
C271	C27	0.005800	0.377800	0.678500
C281	C28	0.027000	0.957800	0.903800
H211	H21	0.070300	0.925400	0.942000
H221	H22	0.921400	0.949300	0.904600
C291	C29	0.446700	0.296900	0.049200
H231	H23	0.506800	0.239700	0.041300
H241	H24	0.495700	0.361500	0.034600
C301	C30	0.319400	0.054700	0.010200
H251	H25	0.255700	0.980200	0.001200
H261	H26	0.354800	0.091300	0.065300
H271	H27	0.403000	0.045800	0.985300
O61	O6	0.136100	0.435300	0.591200
Dy21	Dy2	0.236160	0.515630	0.502850
O71	O7	0.448400	0.531800	0.585300
N41	N4	0.004400	0.651500	0.182800
O81	O8	0.024300	0.391900	0.425700
O91	O9	0.110500	0.617000	0.440300
O101	O10	0.680400	0.520900	0.613300
O111	O11	0.781500	0.332300	0.392300
N51	N5	0.561200	0.662800	0.866800
C311	C31	0.901300	0.918100	0.073600
C321	C32	0.560200	0.579900	0.714900
N61	N6	0.956100	0.107900	0.173800
C331	C33	0.919600	0.731600	0.078700
C341	C34	0.909500	0.329300	0.382500
C351	C35	0.560900	0.539100	0.629400
C361	C36	0.434200	0.601900	0.739600
H281	H28	0.346200	0.589300	0.703700
C371	C37	0.924800	0.243900	0.310500
C381	C38	0.781300	0.684400	0.029300
C391	C39	0.767100	0.872100	0.022900
C401	C40	0.685800	0.597900	0.768800
H291	H29	0.772300	0.580600	0.752800
C411	C41	0.704700	0.754500	0.002500
C421	C42	0.437500	0.642100	0.816500
H301	H30	0.350700	0.655200	0.833900
C431	C43	0.121900	0.897900	0.157600
H311	H31	0.167000	0.836900	0.165400
H321	H32	0.187200	0.946300	0.137300
H331	H33	0.105200	0.942900	0.206500
C441	C44	0.685800	0.640900	0.846000
H341	H34	0.772000	0.654600	0.883300
C451	C45	0.802900	0.178300	0.255500
H351	H35	0.707300	0.180600	0.264800
C461	C46	0.124600	0.629600	0.295400
H361	H36	0.211400	0.625700	0.326100
C471	C47	0.063000	0.237100	0.295700
H371	H37	0.148200	0.279800	0.332900
C481	C48	0.869600	0.632300	0.276700
H381	H38	0.779900	0.629000	0.294300
C491	C49	0.074900	0.168200	0.227300
H391	H39	0.169300	0.162900	0.217100
C501	C50	0.988400	0.600800	0.397600
C511	C51	0.978400	0.848200	0.102000
C521	C52	0.877800	0.646900	0.207000
H401	H40	0.793500	0.653800	0.175900
C531	C53	0.008400	0.655000	0.101600
H411	H41	0.970800	0.577600	0.065500
H421	H42	0.111300	0.680900	0.097900
C541	C54	0.720500	0.558400	0.005000
H431	H43	0.777100	0.520100	0.970000
H441	H44	0.727100	0.532500	0.050100
H451	H45	0.617800	0.540800	0.979000
C551	C55	0.821000	0.110500	0.187900
H461	H46	0.737600	0.064700	0.150500
C561	C56	0.126700	0.642700	0.224300
H471	H47	0.214400	0.645400	0.204900
C571	C57	0.994200	0.622200	0.321500
C581	C58	0.973000	0.042200	0.096200
H481	H48	0.929700	0.074600	0.058000
H491	H49	0.078600	0.050700	0.095400
C591	C59	0.553300	0.703100	0.950800
H501	H50	0.493200	0.760300	0.958700
H511	H51	0.504300	0.638500	0.965400
C601	C60	0.680600	0.945300	0.989800
H521	H52	0.744300	0.019800	0.998800
H531	H53	0.645200	0.908700	0.934700
H541	H54	0.597000	0.954200	0.014700
O121	O12	0.863900	0.564700	0.408800
