data_VUGYED_clean_PM
_symmetry_space_group_name_H-M	'P1'
_cell_length_a	9.464400
_cell_length_b	12.720600
_cell_length_c	18.553900
_cell_angle_alpha	106.206000
_cell_angle_beta	97.893000
_cell_angle_gamma	100.266000
_symmetry_Int_Tables_number 1

loop_
_symmetry_equiv_pos_as_xyz
'x,y,z'

loop_
_atom_site_label
_atom_site_type_symbol
_atom_site_fract_x
_atom_site_fract_y
_atom_site_fract_z
Ho11	Ho1	0.263840	0.485090	0.497280
O11	O1	0.284000	0.333300	0.394300
N11	N1	0.458100	0.106300	0.174100
C11	C1	0.401700	0.916900	0.074000
O21	O2	0.526700	0.391300	0.426900
N21	N2	0.504100	0.649400	0.180800
C21	C2	0.477800	0.847000	0.102200
O31	O3	0.364500	0.562000	0.407700
N31	N3	0.060800	0.664300	0.868000
C31	C3	0.418600	0.730600	0.078100
O41	O4	0.611000	0.613500	0.438700
C41	C4	0.281900	0.685000	0.029900
O51	O5	0.179600	0.523800	0.613170
C51	C5	0.205900	0.756500	0.003800
O61	O6	0.946800	0.532900	0.585290
C61	C6	0.266000	0.872100	0.023500
C71	C7	0.472100	0.039900	0.096700
H11	H1	0.577400	0.048400	0.094800
H21	H2	0.427500	0.071800	0.058600
C81	C8	0.508500	0.654500	0.100800
H31	H3	0.611500	0.681200	0.097400
H41	H4	0.472100	0.577800	0.064100
C91	C9	0.055600	0.708800	0.952700
H51	H5	0.999200	0.768200	0.960000
H61	H6	0.003100	0.647000	0.968500
C101	C10	0.620700	0.896300	0.157800
H71	H7	0.662200	0.835700	0.168500
H81	H8	0.604700	0.945700	0.205500
H91	H9	0.688800	0.939900	0.135700
C111	C11	0.216800	0.560700	0.004500
H101	H10	0.291400	0.519800	0.988400
H111	H11	0.134200	0.541700	0.961500
H121	H12	0.182400	0.539500	0.047000
C121	C12	0.182100	0.945400	0.991500
H131	H13	0.133900	0.904600	0.938200
H141	H14	0.250000	0.014500	0.993700
H151	H15	0.108000	0.964400	0.021900
C131	C13	0.577600	0.166900	0.227400
H161	H16	0.672200	0.162500	0.217000
C141	C14	0.564100	0.235400	0.297200
H171	H17	0.649000	0.276000	0.335300
C151	C15	0.427400	0.244600	0.311400
C161	C16	0.303700	0.178000	0.257000
H181	H18	0.208300	0.180200	0.267100
C171	C17	0.321600	0.109300	0.188800
H191	H19	0.238000	0.063600	0.151600
C181	C18	0.411300	0.328500	0.383800
C191	C19	0.625800	0.639900	0.222600
H201	H20	0.713900	0.643000	0.203300
C201	C20	0.623300	0.625600	0.292900
H211	H21	0.710100	0.620500	0.323000
C211	C21	0.494000	0.618800	0.320200
C221	C22	0.369600	0.629500	0.275700
H221	H22	0.279900	0.625900	0.293500
C231	C23	0.377300	0.645300	0.206800
H231	H23	0.292800	0.653400	0.176600
C241	C24	0.487900	0.596400	0.395800
C251	C25	0.184600	0.643500	0.845400
H241	H24	0.271500	0.657900	0.882500
C261	C26	0.185900	0.601700	0.769000
H251	H25	0.272900	0.585700	0.752900
C271	C27	0.059000	0.582800	0.715300
C281	C28	0.932800	0.603400	0.740500
H261	H26	0.844000	0.588300	0.704600
C291	C29	0.936500	0.646200	0.818200
H271	H27	0.850900	0.662500	0.835900
C301	C30	0.061000	0.542000	0.629900
Ho21	Ho2	0.736160	0.514910	0.502720
O71	O7	0.716000	0.666700	0.605700
N41	N4	0.541900	0.893700	0.825900
C311	C31	0.598300	0.083100	0.926000
O81	O8	0.473300	0.608700	0.573100
N51	N5	0.495900	0.350600	0.819200
C321	C32	0.522200	0.153000	0.897800
O91	O9	0.635500	0.438000	0.592300
N61	N6	0.939200	0.335700	0.132000
C331	C33	0.581400	0.269400	0.921900
O101	O10	0.389000	0.386500	0.561300
C341	C34	0.718100	0.315000	0.970100
O111	O11	0.820400	0.476200	0.386830
C351	C35	0.794100	0.243500	0.996200
O121	O12	0.053200	0.467100	0.414710
C361	C36	0.734000	0.127900	0.976500
C371	C37	0.527900	0.960100	0.903300
H281	H28	0.422600	0.951600	0.905200
H291	H29	0.572500	0.928200	0.941400
C381	C38	0.491500	0.345500	0.899200
H301	H30	0.388500	0.318800	0.902600
H311	H31	0.527900	0.422200	0.935900
C391	C39	0.944400	0.291200	0.047300
H321	H32	0.000800	0.231800	0.040000
H331	H33	0.996900	0.353000	0.031500
C401	C40	0.379300	0.103700	0.842200
H341	H34	0.337800	0.164300	0.831500
H351	H35	0.395300	0.054300	0.794500
H361	H36	0.311200	0.060100	0.864300
C411	C41	0.783200	0.439300	0.995500
H371	H37	0.708600	0.480200	0.011600
H381	H38	0.865800	0.458300	0.038500
H391	H39	0.817600	0.460500	0.953000
C421	C42	0.817900	0.054600	0.008500
H401	H40	0.866100	0.095400	0.061800
H411	H41	0.750000	0.985500	0.006300
H421	H42	0.892000	0.035600	0.978100
C431	C43	0.422400	0.833100	0.772600
H431	H43	0.327800	0.837500	0.783000
C441	C44	0.435900	0.764600	0.702800
H441	H44	0.351000	0.724000	0.664700
C451	C45	0.572600	0.755400	0.688600
C461	C46	0.696300	0.822000	0.743000
H451	H45	0.791700	0.819800	0.732900
C471	C47	0.678400	0.890700	0.811200
H461	H46	0.762000	0.936400	0.848400
C481	C48	0.588700	0.671500	0.616200
C491	C49	0.374200	0.360100	0.777400
H471	H47	0.286100	0.357000	0.796700
C501	C50	0.376700	0.374400	0.707100
H481	H48	0.289900	0.379500	0.677000
C511	C51	0.506000	0.381200	0.679800
C521	C52	0.630400	0.370500	0.724300
H491	H49	0.720100	0.374100	0.706500
C531	C53	0.622700	0.354700	0.793200
H501	H50	0.707200	0.346600	0.823400
C541	C54	0.512100	0.403600	0.604200
C551	C55	0.815400	0.356500	0.154600
H511	H51	0.728500	0.342100	0.117500
C561	C56	0.814100	0.398300	0.231000
H521	H52	0.727100	0.414300	0.247100
C571	C57	0.941000	0.417200	0.284700
C581	C58	0.067200	0.396600	0.259500
H531	H53	0.156000	0.411700	0.295400
C591	C59	0.063500	0.353800	0.181800
H541	H54	0.149100	0.337500	0.164100
C601	C60	0.939000	0.458000	0.370100
