data_VUHNET_clean_PM
_symmetry_space_group_name_H-M	'P1'
_cell_length_a	34.307000
_cell_length_b	14.392000
_cell_length_c	34.931000
_cell_angle_alpha	90.000000
_cell_angle_beta	106.220000
_cell_angle_gamma	90.000000
_symmetry_Int_Tables_number 1

loop_
_symmetry_equiv_pos_as_xyz
'x,y,z'

loop_
_atom_site_label
_atom_site_type_symbol
_atom_site_fract_x
_atom_site_fract_y
_atom_site_fract_z
Zn11	Zn1	0.141030	0.616170	0.074960
Zn21	Zn2	0.161820	0.842800	0.261280
Zn31	Zn3	0.884470	0.087010	0.437440
I11	I1	0.081100	0.717610	0.073180
I21	I2	0.207400	0.676160	0.065100
I31	I3	0.226960	0.751180	0.288720
I41	I4	0.116600	0.817070	0.191280
I51	I5	0.864120	0.074520	0.501270
I61	I6	0.901230	0.236230	0.406620
N11	N1	0.157400	0.549700	0.129800
C11	C1	0.172300	0.597700	0.163600
H11	H1	0.172900	0.663600	0.162600
C21	C2	0.186800	0.553900	0.199900
H21	H2	0.198600	0.589700	0.223100
C31	C3	0.184400	0.458300	0.202900
C41	C4	0.167400	0.408400	0.167600
H31	H3	0.165000	0.342700	0.168100
C51	C5	0.154500	0.456300	0.132700
H41	H4	0.142700	0.422100	0.109000
N21	N2	0.176300	0.983700	0.268400
C61	C6	0.205000	0.017800	0.299700
H51	H5	0.218900	0.975700	0.319800
C71	C7	0.215500	0.109400	0.304100
H61	H6	0.235800	0.130700	0.326800
C81	C8	0.195200	0.171800	0.273800
C91	C9	0.165700	0.137300	0.241600
H71	H7	0.151900	0.177900	0.220800
C101	C10	0.156300	0.043900	0.239600
H81	H8	0.135400	0.021200	0.217600
N31	N3	0.339600	0.523000	0.393500
C111	C11	0.330000	0.432400	0.395600
H91	H9	0.344600	0.397400	0.418000
C121	C12	0.300100	0.388300	0.366600
H101	H10	0.294500	0.324400	0.369400
C131	C13	0.278300	0.437200	0.333800
C141	C14	0.287600	0.531200	0.330800
H111	H11	0.273700	0.567000	0.308300
C151	C15	0.317900	0.570700	0.361800
H121	H12	0.323500	0.635000	0.360300
C161	C16	0.201100	0.407000	0.240300
N41	N4	0.188000	0.320000	0.242300
C171	C17	0.207100	0.272900	0.274200
N51	N5	0.236500	0.303900	0.305500
C181	C18	0.246200	0.394400	0.301100
N61	N6	0.230000	0.448200	0.269000
N71	N7	0.131900	0.824200	0.304100
C191	C19	0.109900	0.892300	0.313800
H131	H13	0.106500	0.948400	0.298900
C201	C20	0.091700	0.885200	0.344500
H141	H14	0.076700	0.935600	0.350900
C211	C21	0.095800	0.803600	0.365400
C221	C22	0.117100	0.730000	0.354600
H151	H15	0.119800	0.672200	0.368200
C231	C23	0.133900	0.743700	0.323500
H161	H16	0.147700	0.693300	0.315500
N81	N8	0.933100	0.002900	0.438100
C241	C24	0.952700	0.951300	0.469300
H171	H17	0.943800	0.952900	0.492700
C251	C25	0.985600	0.895400	0.468900
H181	H18	0.998800	0.859100	0.491500
C261	C26	0.998600	0.893500	0.435500
C271	C27	0.978300	0.947500	0.402300
H191	H19	0.986600	0.947200	0.378500
C281	C28	0.946300	0.000100	0.405600
H201	H20	0.932700	0.037200	0.383500
N91	N9	0.120500	0.492600	0.536000
C291	C29	0.083200	0.525600	0.530600
H211	H21	0.066100	0.496800	0.544400
C301	C30	0.068000	0.600900	0.505600
H221	H22	0.041700	0.625000	0.503600
C311	C31	0.091500	0.639100	0.484000
C321	C32	0.131500	0.604100	0.489200
H231	H23	0.148700	0.629900	0.474900
C331	C33	0.144800	0.531300	0.515800
H241	H24	0.171500	0.508200	0.519900
C341	C34	0.078800	0.791700	0.400000
N101	N10	0.049000	0.849600	0.402000
C351	C35	0.033500	0.833100	0.432400
N111	N11	0.045400	0.765800	0.459700
C361	C36	0.076200	0.715800	0.454700
N121	N12	0.094000	0.724900	0.425800
Zn41	Zn4	0.641030	0.116170	0.074960
Zn51	Zn5	0.661820	0.342800	0.261280
Zn61	Zn6	0.384470	0.587010	0.437440
I71	I7	0.581100	0.217610	0.073180
I81	I8	0.707400	0.176160	0.065100
I91	I9	0.726960	0.251180	0.288720
I101	I10	0.616600	0.317070	0.191280
I111	I11	0.364120	0.574520	0.501270
I121	I12	0.401230	0.736230	0.406620
N131	N13	0.657400	0.049700	0.129800
C371	C37	0.672300	0.097700	0.163600
H251	H25	0.672900	0.163600	0.162600
C381	C38	0.686800	0.053900	0.199900
H261	H26	0.698600	0.089700	0.223100
C391	C39	0.684400	0.958300	0.202900
C401	C40	0.667400	0.908400	0.167600
H271	H27	0.665000	0.842700	0.168100
C411	C41	0.654500	0.956300	0.132700
H281	H28	0.642700	0.922100	0.109000
N141	N14	0.676300	0.483700	0.268400
C421	C42	0.705000	0.517800	0.299700
H291	H29	0.718900	0.475700	0.319800
C431	C43	0.715500	0.609400	0.304100
H301	H30	0.735800	0.630700	0.326800
C441	C44	0.695200	0.671800	0.273800
C451	C45	0.665700	0.637300	0.241600
H311	H31	0.651900	0.677900	0.220800
C461	C46	0.656300	0.543900	0.239600
H321	H32	0.635400	0.521200	0.217600
N151	N15	0.839600	0.023000	0.393500
C471	C47	0.830000	0.932400	0.395600
H331	H33	0.844600	0.897400	0.418000
C481	C48	0.800100	0.888300	0.366600
H341	H34	0.794500	0.824400	0.369400
C491	C49	0.778300	0.937200	0.333800
C501	C50	0.787600	0.031200	0.330800
H351	H35	0.773700	0.067000	0.308300
C511	C51	0.817900	0.070700	0.361800
H361	H36	0.823500	0.135000	0.360300
C521	C52	0.701100	0.907000	0.240300
N161	N16	0.688000	0.820000	0.242300
C531	C53	0.707100	0.772900	0.274200
N171	N17	0.736500	0.803900	0.305500
C541	C54	0.746200	0.894400	0.301100
N181	N18	0.730000	0.948200	0.269000
N191	N19	0.631900	0.324200	0.304100
C551	C55	0.609900	0.392300	0.313800
H371	H37	0.606500	0.448400	0.298900
C561	C56	0.591700	0.385200	0.344500
H381	H38	0.576700	0.435600	0.350900
C571	C57	0.595800	0.303600	0.365400
C581	C58	0.617100	0.230000	0.354600
H391	H39	0.619800	0.172200	0.368200
C591	C59	0.633900	0.243700	0.323500
H401	H40	0.647700	0.193300	0.315500
N201	N20	0.433100	0.502900	0.438100
C601	C60	0.452700	0.451300	0.469300
H411	H41	0.443800	0.452900	0.492700
C611	C61	0.485600	0.395400	0.468900
H421	H42	0.498800	0.359100	0.491500
C621	C62	0.498600	0.393500	0.435500
C631	C63	0.478300	0.447500	0.402300
H431	H43	0.486600	0.447200	0.378500
C641	C64	0.446300	0.500100	0.405600
H441	H44	0.432700	0.537200	0.383500
N211	N21	0.620500	0.992600	0.536000
C651	C65	0.583200	0.025600	0.530600
H451	H45	0.566100	0.996800	0.544400
C661	C66	0.568000	0.100900	0.505600
H461	H46	0.541700	0.125000	0.503600
C671	C67	0.591500	0.139100	0.484000
C681	C68	0.631500	0.104100	0.489200
H471	H47	0.648700	0.129900	0.474900
C691	C69	0.644800	0.031300	0.515800
H481	H48	0.671500	0.008200	0.519900
C701	C70	0.578800	0.291700	0.400000
N221	N22	0.549000	0.349600	0.402000
C711	C71	0.533500	0.333100	0.432400
N231	N23	0.545400	0.265800	0.459700
C721	C72	0.576200	0.215800	0.454700
N241	N24	0.594000	0.224900	0.425800
Zn71	Zn7	0.141030	0.383830	0.574960
Zn81	Zn8	0.161820	0.157200	0.761280
Zn91	Zn9	0.884470	0.912990	0.937440
I131	I13	0.081100	0.282390	0.573180
I141	I14	0.207400	0.323840	0.565100
I151	I15	0.226960	0.248820	0.788720
I161	I16	0.116600	0.182930	0.691280
I171	I17	0.864120	0.925480	0.001270
I181	I18	0.901230	0.763770	0.906620
N251	N25	0.157400	0.450300	0.629800
C731	C73	0.172300	0.402300	0.663600
H491	H49	0.172900	0.336400	0.662600
C741	C74	0.186800	0.446100	0.699900
H501	H50	0.198600	0.410300	0.723100
C751	C75	0.184400	0.541700	0.702900
C761	C76	0.167400	0.591600	0.667600
H511	H51	0.165000	0.657300	0.668100
C771	C77	0.154500	0.543700	0.632700
H521	H52	0.142700	0.577900	0.609000
N261	N26	0.176300	0.016300	0.768400
C781	C78	0.205000	0.982200	0.799700
H531	H53	0.218900	0.024300	0.819800
C791	C79	0.215500	0.890600	0.804100
H541	H54	0.235800	0.869300	0.826800
C801	C80	0.195200	0.828200	0.773800
C811	C81	0.165700	0.862700	0.741600
H551	H55	0.151900	0.822100	0.720800
C821	C82	0.156300	0.956100	0.739600
H561	H56	0.135400	0.978800	0.717600
N271	N27	0.339600	0.477000	0.893500
C831	C83	0.330000	0.567600	0.895600
H571	H57	0.344600	0.602600	0.918000
C841	C84	0.300100	0.611700	0.866600
H581	H58	0.294500	0.675600	0.869400
C851	C85	0.278300	0.562800	0.833800
C861	C86	0.287600	0.468800	0.830800
H591	H59	0.273700	0.433000	0.808300
C871	C87	0.317900	0.429300	0.861800
H601	H60	0.323500	0.365000	0.860300
C881	C88	0.201100	0.593000	0.740300
N281	N28	0.188000	0.680000	0.742300
C891	C89	0.207100	0.727100	0.774200
N291	N29	0.236500	0.696100	0.805500
C901	C90	0.246200	0.605600	0.801100
N301	N30	0.230000	0.551800	0.769000
N311	N31	0.131900	0.175800	0.804100
C911	C91	0.109900	0.107700	0.813800
H611	H61	0.106500	0.051600	0.798900
C921	C92	0.091700	0.114800	0.844500
H621	H62	0.076700	0.064400	0.850900
C931	C93	0.095800	0.196400	0.865400
C941	C94	0.117100	0.270000	0.854600
H631	H63	0.119800	0.327800	0.868200
C951	C95	0.133900	0.256300	0.823500
H641	H64	0.147700	0.306700	0.815500
N321	N32	0.933100	0.997100	0.938100
C961	C96	0.952700	0.048700	0.969300
H651	H65	0.943800	0.047100	0.992700
C971	C97	0.985600	0.104600	0.968900
H661	H66	0.998800	0.140900	0.991500
C981	C98	0.998600	0.106500	0.935500
C991	C99	0.978300	0.052500	0.902300
H671	H67	0.986600	0.052800	0.878500
C1001	C100	0.946300	0.999900	0.905600
H681	H68	0.932700	0.962800	0.883500
N331	N33	0.120500	0.507400	0.036000
C1011	C101	0.083200	0.474400	0.030600
H691	H69	0.066100	0.503200	0.044400
C1021	C102	0.068000	0.399100	0.005600
H701	H70	0.041700	0.375000	0.003600
C1031	C103	0.091500	0.360900	0.984000
C1041	C104	0.131500	0.395900	0.989200
H711	H71	0.148700	0.370100	0.974900
C1051	C105	0.144800	0.468700	0.015800
H721	H72	0.171500	0.491800	0.019900
C1061	C106	0.078800	0.208300	0.900000
N341	N34	0.049000	0.150400	0.902000
C1071	C107	0.033500	0.166900	0.932400
N351	N35	0.045400	0.234200	0.959700
C1081	C108	0.076200	0.284200	0.954700
N361	N36	0.094000	0.275100	0.925800
Zn101	Zn10	0.641030	0.883830	0.574960
Zn111	Zn11	0.661820	0.657200	0.761280
Zn121	Zn12	0.384470	0.412990	0.937440
I191	I19	0.581100	0.782390	0.573180
I201	I20	0.707400	0.823840	0.565100
I211	I21	0.726960	0.748820	0.788720
I221	I22	0.616600	0.682930	0.691280
I231	I23	0.364120	0.425480	0.001270
I241	I24	0.401230	0.263770	0.906620
N371	N37	0.657400	0.950300	0.629800
C1091	C109	0.672300	0.902300	0.663600
H731	H73	0.672900	0.836400	0.662600
C1101	C110	0.686800	0.946100	0.699900
H741	H74	0.698600	0.910300	0.723100
C1111	C111	0.684400	0.041700	0.702900
C1121	C112	0.667400	0.091600	0.667600
H751	H75	0.665000	0.157300	0.668100
C1131	C113	0.654500	0.043700	0.632700
H761	H76	0.642700	0.077900	0.609000
N381	N38	0.676300	0.516300	0.768400
C1141	C114	0.705000	0.482200	0.799700
H771	H77	0.718900	0.524300	0.819800
C1151	C115	0.715500	0.390600	0.804100
H781	H78	0.735800	0.369300	0.826800
C1161	C116	0.695200	0.328200	0.773800
C1171	C117	0.665700	0.362700	0.741600
H791	H79	0.651900	0.322100	0.720800
C1181	C118	0.656300	0.456100	0.739600
H801	H80	0.635400	0.478800	0.717600
N391	N39	0.839600	0.977000	0.893500
C1191	C119	0.830000	0.067600	0.895600
H811	H81	0.844600	0.102600	0.918000
C1201	C120	0.800100	0.111700	0.866600
H821	H82	0.794500	0.175600	0.869400
C1211	C121	0.778300	0.062800	0.833800
C1221	C122	0.787600	0.968800	0.830800
H831	H83	0.773700	0.933000	0.808300
C1231	C123	0.817900	0.929300	0.861800
H841	H84	0.823500	0.865000	0.860300
C1241	C124	0.701100	0.093000	0.740300
N401	N40	0.688000	0.180000	0.742300
C1251	C125	0.707100	0.227100	0.774200
N411	N41	0.736500	0.196100	0.805500
C1261	C126	0.746200	0.105600	0.801100
N421	N42	0.730000	0.051800	0.769000
N431	N43	0.631900	0.675800	0.804100
C1271	C127	0.609900	0.607700	0.813800
H851	H85	0.606500	0.551600	0.798900
C1281	C128	0.591700	0.614800	0.844500
H861	H86	0.576700	0.564400	0.850900
C1291	C129	0.595800	0.696400	0.865400
C1301	C130	0.617100	0.770000	0.854600
H871	H87	0.619800	0.827800	0.868200
C1311	C131	0.633900	0.756300	0.823500
H881	H88	0.647700	0.806700	0.815500
N441	N44	0.433100	0.497100	0.938100
C1321	C132	0.452700	0.548700	0.969300
H891	H89	0.443800	0.547100	0.992700
C1331	C133	0.485600	0.604600	0.968900
H901	H90	0.498800	0.640900	0.991500
C1341	C134	0.498600	0.606500	0.935500
C1351	C135	0.478300	0.552500	0.902300
H911	H91	0.486600	0.552800	0.878500
C1361	C136	0.446300	0.499900	0.905600
H921	H92	0.432700	0.462800	0.883500
N451	N45	0.620500	0.007400	0.036000
C1371	C137	0.583200	0.974400	0.030600
H931	H93	0.566100	0.003200	0.044400
C1381	C138	0.568000	0.899100	0.005600
H941	H94	0.541700	0.875000	0.003600
C1391	C139	0.591500	0.860900	0.984000
C1401	C140	0.631500	0.895900	0.989200
H951	H95	0.648700	0.870100	0.974900
C1411	C141	0.644800	0.968700	0.015800
H961	H96	0.671500	0.991800	0.019900
C1421	C142	0.578800	0.708300	0.900000
N461	N46	0.549000	0.650400	0.902000
C1431	C143	0.533500	0.666900	0.932400
N471	N47	0.545400	0.734200	0.959700
C1441	C144	0.576200	0.784200	0.954700
N481	N48	0.594000	0.775100	0.925800
Zn131	Zn13	0.858970	0.616170	0.425040
Zn141	Zn14	0.838180	0.842800	0.238720
Zn151	Zn15	0.115530	0.087010	0.062560
I251	I25	0.918900	0.717610	0.426820
I261	I26	0.792600	0.676160	0.434900
I271	I27	0.773040	0.751180	0.211280
I281	I28	0.883400	0.817070	0.308720
I291	I29	0.135880	0.074520	0.998730
I301	I30	0.098770	0.236230	0.093380
N491	N49	0.842600	0.549700	0.370200
C1451	C145	0.827700	0.597700	0.336400
H971	H97	0.827100	0.663600	0.337400
C1461	C146	0.813200	0.553900	0.300100
H981	H98	0.801400	0.589700	0.276900
C1471	C147	0.815600	0.458300	0.297100
C1481	C148	0.832600	0.408400	0.332400
H991	H99	0.835000	0.342700	0.331900
C1491	C149	0.845500	0.456300	0.367300
H1001	H100	0.857300	0.422100	0.391000
N501	N50	0.823700	0.983700	0.231600
C1501	C150	0.795000	0.017800	0.200300
H1011	H101	0.781100	0.975700	0.180200
C1511	C151	0.784500	0.109400	0.195900
H1021	H102	0.764200	0.130700	0.173200
C1521	C152	0.804800	0.171800	0.226200
C1531	C153	0.834300	0.137300	0.258400
H1031	H103	0.848100	0.177900	0.279200
C1541	C154	0.843700	0.043900	0.260400
H1041	H104	0.864600	0.021200	0.282400
N511	N51	0.660400	0.523000	0.106500
C1551	C155	0.670000	0.432400	0.104400
H1051	H105	0.655400	0.397400	0.082000
C1561	C156	0.699900	0.388300	0.133400
H1061	H106	0.705500	0.324400	0.130600
C1571	C157	0.721700	0.437200	0.166200
C1581	C158	0.712400	0.531200	0.169200
H1071	H107	0.726300	0.567000	0.191700
C1591	C159	0.682100	0.570700	0.138200
H1081	H108	0.676500	0.635000	0.139700
C1601	C160	0.798900	0.407000	0.259700
N521	N52	0.812000	0.320000	0.257700
C1611	C161	0.792900	0.272900	0.225800
N531	N53	0.763500	0.303900	0.194500
C1621	C162	0.753800	0.394400	0.198900
N541	N54	0.770000	0.448200	0.231000
N551	N55	0.868100	0.824200	0.195900
C1631	C163	0.890100	0.892300	0.186200
H1091	H109	0.893500	0.948400	0.201100
C1641	C164	0.908300	0.885200	0.155500
H1101	H110	0.923300	0.935600	0.149100
C1651	C165	0.904200	0.803600	0.134600
C1661	C166	0.882900	0.730000	0.145400
H1111	H111	0.880200	0.672200	0.131800
C1671	C167	0.866100	0.743700	0.176500
H1121	H112	0.852300	0.693300	0.184500
N561	N56	0.066900	0.002900	0.061900
C1681	C168	0.047300	0.951300	0.030700
H1131	H113	0.056200	0.952900	0.007300
C1691	C169	0.014400	0.895400	0.031100
H1141	H114	0.001200	0.859100	0.008500
C1701	C170	0.001400	0.893500	0.064500
C1711	C171	0.021700	0.947500	0.097700
H1151	H115	0.013400	0.947200	0.121500
C1721	C172	0.053700	0.000100	0.094400
H1161	H116	0.067300	0.037200	0.116500
N571	N57	0.879500	0.492600	0.964000
C1731	C173	0.916800	0.525600	0.969400
H1171	H117	0.933900	0.496800	0.955600
C1741	C174	0.932000	0.600900	0.994400
H1181	H118	0.958300	0.625000	0.996400
C1751	C175	0.908500	0.639100	0.016000
C1761	C176	0.868500	0.604100	0.010800
H1191	H119	0.851300	0.629900	0.025100
C1771	C177	0.855200	0.531300	0.984200
H1201	H120	0.828500	0.508200	0.980100
C1781	C178	0.921200	0.791700	0.100000
N581	N58	0.951000	0.849600	0.098000
C1791	C179	0.966500	0.833100	0.067600
N591	N59	0.954600	0.765800	0.040300
C1801	C180	0.923800	0.715800	0.045300
N601	N60	0.906000	0.724900	0.074200
Zn161	Zn16	0.358970	0.116170	0.425040
Zn171	Zn17	0.338180	0.342800	0.238720
Zn181	Zn18	0.615530	0.587010	0.062560
I311	I31	0.418900	0.217610	0.426820
I321	I32	0.292600	0.176160	0.434900
I331	I33	0.273040	0.251180	0.211280
I341	I34	0.383400	0.317070	0.308720
I351	I35	0.635880	0.574520	0.998730
I361	I36	0.598770	0.736230	0.093380
N611	N61	0.342600	0.049700	0.370200
C1811	C181	0.327700	0.097700	0.336400
H1211	H121	0.327100	0.163600	0.337400
C1821	C182	0.313200	0.053900	0.300100
H1221	H122	0.301400	0.089700	0.276900
C1831	C183	0.315600	0.958300	0.297100
C1841	C184	0.332600	0.908400	0.332400
H1231	H123	0.335000	0.842700	0.331900
C1851	C185	0.345500	0.956300	0.367300
H1241	H124	0.357300	0.922100	0.391000
N621	N62	0.323700	0.483700	0.231600
C1861	C186	0.295000	0.517800	0.200300
H1251	H125	0.281100	0.475700	0.180200
C1871	C187	0.284500	0.609400	0.195900
H1261	H126	0.264200	0.630700	0.173200
C1881	C188	0.304800	0.671800	0.226200
C1891	C189	0.334300	0.637300	0.258400
H1271	H127	0.348100	0.677900	0.279200
C1901	C190	0.343700	0.543900	0.260400
H1281	H128	0.364600	0.521200	0.282400
N631	N63	0.160400	0.023000	0.106500
C1911	C191	0.170000	0.932400	0.104400
H1291	H129	0.155400	0.897400	0.082000
C1921	C192	0.199900	0.888300	0.133400
H1301	H130	0.205500	0.824400	0.130600
C1931	C193	0.221700	0.937200	0.166200
C1941	C194	0.212400	0.031200	0.169200
H1311	H131	0.226300	0.067000	0.191700
C1951	C195	0.182100	0.070700	0.138200
H1321	H132	0.176500	0.135000	0.139700
C1961	C196	0.298900	0.907000	0.259700
N641	N64	0.312000	0.820000	0.257700
C1971	C197	0.292900	0.772900	0.225800
N651	N65	0.263500	0.803900	0.194500
C1981	C198	0.253800	0.894400	0.198900
N661	N66	0.270000	0.948200	0.231000
N671	N67	0.368100	0.324200	0.195900
C1991	C199	0.390100	0.392300	0.186200
H1331	H133	0.393500	0.448400	0.201100
C2001	C200	0.408300	0.385200	0.155500
H1341	H134	0.423300	0.435600	0.149100
C2011	C201	0.404200	0.303600	0.134600
C2021	C202	0.382900	0.230000	0.145400
H1351	H135	0.380200	0.172200	0.131800
C2031	C203	0.366100	0.243700	0.176500
H1361	H136	0.352300	0.193300	0.184500
N681	N68	0.566900	0.502900	0.061900
C2041	C204	0.547300	0.451300	0.030700
H1371	H137	0.556200	0.452900	0.007300
C2051	C205	0.514400	0.395400	0.031100
H1381	H138	0.501200	0.359100	0.008500
C2061	C206	0.501400	0.393500	0.064500
C2071	C207	0.521700	0.447500	0.097700
H1391	H139	0.513400	0.447200	0.121500
C2081	C208	0.553700	0.500100	0.094400
H1401	H140	0.567300	0.537200	0.116500
N691	N69	0.379500	0.992600	0.964000
C2091	C209	0.416800	0.025600	0.969400
H1411	H141	0.433900	0.996800	0.955600
C2101	C210	0.432000	0.100900	0.994400
H1421	H142	0.458300	0.125000	0.996400
C2111	C211	0.408500	0.139100	0.016000
C2121	C212	0.368500	0.104100	0.010800
H1431	H143	0.351300	0.129900	0.025100
C2131	C213	0.355200	0.031300	0.984200
H1441	H144	0.328500	0.008200	0.980100
C2141	C214	0.421200	0.291700	0.100000
N701	N70	0.451000	0.349600	0.098000
C2151	C215	0.466500	0.333100	0.067600
N711	N71	0.454600	0.265800	0.040300
C2161	C216	0.423800	0.215800	0.045300
N721	N72	0.406000	0.224900	0.074200
Zn191	Zn19	0.858970	0.383830	0.925040
Zn201	Zn20	0.838180	0.157200	0.738720
Zn211	Zn21	0.115530	0.912990	0.562560
I371	I37	0.918900	0.282390	0.926820
I381	I38	0.792600	0.323840	0.934900
I391	I39	0.773040	0.248820	0.711280
I401	I40	0.883400	0.182930	0.808720
I411	I41	0.135880	0.925480	0.498730
I421	I42	0.098770	0.763770	0.593380
N731	N73	0.842600	0.450300	0.870200
C2171	C217	0.827700	0.402300	0.836400
H1451	H145	0.827100	0.336400	0.837400
C2181	C218	0.813200	0.446100	0.800100
H1461	H146	0.801400	0.410300	0.776900
C2191	C219	0.815600	0.541700	0.797100
C2201	C220	0.832600	0.591600	0.832400
H1471	H147	0.835000	0.657300	0.831900
C2211	C221	0.845500	0.543700	0.867300
H1481	H148	0.857300	0.577900	0.891000
N741	N74	0.823700	0.016300	0.731600
C2221	C222	0.795000	0.982200	0.700300
H1491	H149	0.781100	0.024300	0.680200
C2231	C223	0.784500	0.890600	0.695900
H1501	H150	0.764200	0.869300	0.673200
C2241	C224	0.804800	0.828200	0.726200
C2251	C225	0.834300	0.862700	0.758400
H1511	H151	0.848100	0.822100	0.779200
C2261	C226	0.843700	0.956100	0.760400
H1521	H152	0.864600	0.978800	0.782400
N751	N75	0.660400	0.477000	0.606500
C2271	C227	0.670000	0.567600	0.604400
H1531	H153	0.655400	0.602600	0.582000
C2281	C228	0.699900	0.611700	0.633400
H1541	H154	0.705500	0.675600	0.630600
C2291	C229	0.721700	0.562800	0.666200
C2301	C230	0.712400	0.468800	0.669200
H1551	H155	0.726300	0.433000	0.691700
C2311	C231	0.682100	0.429300	0.638200
H1561	H156	0.676500	0.365000	0.639700
C2321	C232	0.798900	0.593000	0.759700
N761	N76	0.812000	0.680000	0.757700
C2331	C233	0.792900	0.727100	0.725800
N771	N77	0.763500	0.696100	0.694500
C2341	C234	0.753800	0.605600	0.698900
N781	N78	0.770000	0.551800	0.731000
N791	N79	0.868100	0.175800	0.695900
C2351	C235	0.890100	0.107700	0.686200
H1571	H157	0.893500	0.051600	0.701100
C2361	C236	0.908300	0.114800	0.655500
H1581	H158	0.923300	0.064400	0.649100
C2371	C237	0.904200	0.196400	0.634600
C2381	C238	0.882900	0.270000	0.645400
H1591	H159	0.880200	0.327800	0.631800
C2391	C239	0.866100	0.256300	0.676500
H1601	H160	0.852300	0.306700	0.684500
N801	N80	0.066900	0.997100	0.561900
C2401	C240	0.047300	0.048700	0.530700
H1611	H161	0.056200	0.047100	0.507300
C2411	C241	0.014400	0.104600	0.531100
H1621	H162	0.001200	0.140900	0.508500
C2421	C242	0.001400	0.106500	0.564500
C2431	C243	0.021700	0.052500	0.597700
H1631	H163	0.013400	0.052800	0.621500
C2441	C244	0.053700	0.999900	0.594400
H1641	H164	0.067300	0.962800	0.616500
N811	N81	0.879500	0.507400	0.464000
C2451	C245	0.916800	0.474400	0.469400
H1651	H165	0.933900	0.503200	0.455600
C2461	C246	0.932000	0.399100	0.494400
H1661	H166	0.958300	0.375000	0.496400
C2471	C247	0.908500	0.360900	0.516000
C2481	C248	0.868500	0.395900	0.510800
H1671	H167	0.851300	0.370100	0.525100
C2491	C249	0.855200	0.468700	0.484200
H1681	H168	0.828500	0.491800	0.480100
C2501	C250	0.921200	0.208300	0.600000
N821	N82	0.951000	0.150400	0.598000
C2511	C251	0.966500	0.166900	0.567600
N831	N83	0.954600	0.234200	0.540300
C2521	C252	0.923800	0.284200	0.545300
N841	N84	0.906000	0.275100	0.574200
Zn221	Zn22	0.358970	0.883830	0.925040
Zn231	Zn23	0.338180	0.657200	0.738720
Zn241	Zn24	0.615530	0.412990	0.562560
I431	I43	0.418900	0.782390	0.926820
I441	I44	0.292600	0.823840	0.934900
I451	I45	0.273040	0.748820	0.711280
I461	I46	0.383400	0.682930	0.808720
I471	I47	0.635880	0.425480	0.498730
I481	I48	0.598770	0.263770	0.593380
N851	N85	0.342600	0.950300	0.870200
C2531	C253	0.327700	0.902300	0.836400
H1691	H169	0.327100	0.836400	0.837400
C2541	C254	0.313200	0.946100	0.800100
H1701	H170	0.301400	0.910300	0.776900
C2551	C255	0.315600	0.041700	0.797100
C2561	C256	0.332600	0.091600	0.832400
H1711	H171	0.335000	0.157300	0.831900
C2571	C257	0.345500	0.043700	0.867300
H1721	H172	0.357300	0.077900	0.891000
N861	N86	0.323700	0.516300	0.731600
C2581	C258	0.295000	0.482200	0.700300
H1731	H173	0.281100	0.524300	0.680200
C2591	C259	0.284500	0.390600	0.695900
H1741	H174	0.264200	0.369300	0.673200
C2601	C260	0.304800	0.328200	0.726200
C2611	C261	0.334300	0.362700	0.758400
H1751	H175	0.348100	0.322100	0.779200
C2621	C262	0.343700	0.456100	0.760400
H1761	H176	0.364600	0.478800	0.782400
N871	N87	0.160400	0.977000	0.606500
C2631	C263	0.170000	0.067600	0.604400
H1771	H177	0.155400	0.102600	0.582000
C2641	C264	0.199900	0.111700	0.633400
H1781	H178	0.205500	0.175600	0.630600
C2651	C265	0.221700	0.062800	0.666200
C2661	C266	0.212400	0.968800	0.669200
H1791	H179	0.226300	0.933000	0.691700
C2671	C267	0.182100	0.929300	0.638200
H1801	H180	0.176500	0.865000	0.639700
C2681	C268	0.298900	0.093000	0.759700
N881	N88	0.312000	0.180000	0.757700
C2691	C269	0.292900	0.227100	0.725800
N891	N89	0.263500	0.196100	0.694500
C2701	C270	0.253800	0.105600	0.698900
N901	N90	0.270000	0.051800	0.731000
N911	N91	0.368100	0.675800	0.695900
C2711	C271	0.390100	0.607700	0.686200
H1811	H181	0.393500	0.551600	0.701100
C2721	C272	0.408300	0.614800	0.655500
H1821	H182	0.423300	0.564400	0.649100
C2731	C273	0.404200	0.696400	0.634600
C2741	C274	0.382900	0.770000	0.645400
H1831	H183	0.380200	0.827800	0.631800
C2751	C275	0.366100	0.756300	0.676500
H1841	H184	0.352300	0.806700	0.684500
N921	N92	0.566900	0.497100	0.561900
C2761	C276	0.547300	0.548700	0.530700
H1851	H185	0.556200	0.547100	0.507300
C2771	C277	0.514400	0.604600	0.531100
H1861	H186	0.501200	0.640900	0.508500
C2781	C278	0.501400	0.606500	0.564500
C2791	C279	0.521700	0.552500	0.597700
H1871	H187	0.513400	0.552800	0.621500
C2801	C280	0.553700	0.499900	0.594400
H1881	H188	0.567300	0.462800	0.616500
N931	N93	0.379500	0.007400	0.464000
C2811	C281	0.416800	0.974400	0.469400
H1891	H189	0.433900	0.003200	0.455600
C2821	C282	0.432000	0.899100	0.494400
H1901	H190	0.458300	0.875000	0.496400
C2831	C283	0.408500	0.860900	0.516000
C2841	C284	0.368500	0.895900	0.510800
H1911	H191	0.351300	0.870100	0.525100
C2851	C285	0.355200	0.968700	0.484200
H1921	H192	0.328500	0.991800	0.480100
C2861	C286	0.421200	0.708300	0.600000
N941	N94	0.451000	0.650400	0.598000
C2871	C287	0.466500	0.666900	0.567600
N951	N95	0.454600	0.734200	0.540300
C2881	C288	0.423800	0.784200	0.545300
N961	N96	0.406000	0.775100	0.574200
