data_VUJBEI_clean_PM
_symmetry_space_group_name_H-M	'P1'
_cell_length_a	30.294900
_cell_length_b	30.294900
_cell_length_c	30.294900
_cell_angle_alpha	60.000000
_cell_angle_beta	60.000000
_cell_angle_gamma	60.000000
_symmetry_Int_Tables_number 1

loop_
_symmetry_equiv_pos_as_xyz
'x,y,z'

loop_
_atom_site_label
_atom_site_type_symbol
_atom_site_fract_x
_atom_site_fract_y
_atom_site_fract_z
Zn11	Zn1	0.742270	0.000000	0.000000
Zn21	Zn2	0.642210	0.000000	0.000000
Zn31	Zn3	0.000000	0.742270	0.257730
Zn41	Zn4	0.000000	0.642210	0.357790
Zn51	Zn5	0.000000	0.257730	0.742270
Zn61	Zn6	0.000000	0.357790	0.642210
Zn71	Zn7	0.257730	0.000000	0.000000
Zn81	Zn8	0.357790	0.000000	0.000000
Zn91	Zn9	0.742270	0.000000	0.257730
Zn101	Zn10	0.642210	0.000000	0.357790
Zn111	Zn11	0.000000	0.257730	0.000000
Zn121	Zn12	0.000000	0.357790	0.000000
Zn131	Zn13	0.000000	0.742270	0.000000
Zn141	Zn14	0.000000	0.642210	0.000000
Zn151	Zn15	0.257730	0.000000	0.742270
Zn161	Zn16	0.357790	0.000000	0.642210
Zn171	Zn17	0.742270	0.257730	0.000000
Zn181	Zn18	0.642210	0.357790	0.000000
Zn191	Zn19	0.000000	0.000000	0.742270
Zn201	Zn20	0.000000	0.000000	0.642210
Zn211	Zn21	0.000000	0.000000	0.257730
Zn221	Zn22	0.000000	0.000000	0.357790
Zn231	Zn23	0.257730	0.742270	0.000000
Zn241	Zn24	0.357790	0.642210	0.000000
H11	H1	0.558300	0.966100	0.170700
H21	H2	0.966100	0.558300	0.304900
H31	H3	0.170700	0.304900	0.558300
H41	H4	0.304900	0.170700	0.966100
H51	H5	0.558300	0.170700	0.304900
H61	H6	0.966100	0.304900	0.170700
H71	H7	0.170700	0.558300	0.966100
H81	H8	0.304900	0.966100	0.558300
H91	H9	0.558300	0.304900	0.966100
H101	H10	0.966100	0.170700	0.558300
H111	H11	0.170700	0.966100	0.304900
H121	H12	0.304900	0.558300	0.170700
H131	H13	0.033900	0.441700	0.829300
H141	H14	0.441700	0.033900	0.695100
H151	H15	0.695100	0.829300	0.441700
H161	H16	0.829300	0.695100	0.033900
H171	H17	0.829300	0.441700	0.695100
H181	H18	0.695100	0.033900	0.829300
H191	H19	0.441700	0.829300	0.033900
H201	H20	0.033900	0.695100	0.441700
H211	H21	0.695100	0.441700	0.033900
H221	H22	0.829300	0.033900	0.441700
H231	H23	0.033900	0.829300	0.695100
H241	H24	0.441700	0.695100	0.829300
H251	H25	0.441700	0.033900	0.829300
H261	H26	0.033900	0.441700	0.695100
H271	H27	0.829300	0.695100	0.441700
H281	H28	0.695100	0.829300	0.033900
H291	H29	0.441700	0.829300	0.695100
H301	H30	0.033900	0.695100	0.829300
H311	H31	0.829300	0.441700	0.033900
H321	H32	0.695100	0.033900	0.441700
H331	H33	0.441700	0.695100	0.033900
H341	H34	0.033900	0.829300	0.441700
H351	H35	0.829300	0.033900	0.695100
H361	H36	0.695100	0.441700	0.829300
H371	H37	0.966100	0.558300	0.170700
H381	H38	0.558300	0.966100	0.304900
H391	H39	0.304900	0.170700	0.558300
H401	H40	0.170700	0.304900	0.966100
H411	H41	0.170700	0.558300	0.304900
H421	H42	0.304900	0.966100	0.170700
H431	H43	0.558300	0.170700	0.966100
H441	H44	0.966100	0.304900	0.558300
H451	H45	0.304900	0.558300	0.966100
H461	H46	0.170700	0.966100	0.558300
H471	H47	0.966100	0.170700	0.304900
H481	H48	0.558300	0.304900	0.170700
H491	H49	0.686500	0.982500	0.165500
H501	H50	0.982500	0.686500	0.165500
H511	H51	0.165500	0.165500	0.686500
H521	H52	0.165500	0.165500	0.982500
H531	H53	0.686500	0.165500	0.165500
H541	H54	0.982500	0.165500	0.165500
H551	H55	0.165500	0.686500	0.982500
H561	H56	0.165500	0.982500	0.686500
H571	H57	0.686500	0.165500	0.982500
H581	H58	0.982500	0.165500	0.686500
H591	H59	0.165500	0.982500	0.165500
H601	H60	0.165500	0.686500	0.165500
H611	H61	0.017500	0.313500	0.834500
H621	H62	0.313500	0.017500	0.834500
H631	H63	0.834500	0.834500	0.313500
H641	H64	0.834500	0.834500	0.017500
H651	H65	0.834500	0.313500	0.834500
H661	H66	0.834500	0.017500	0.834500
H671	H67	0.313500	0.834500	0.017500
H681	H68	0.017500	0.834500	0.313500
H691	H69	0.834500	0.313500	0.017500
H701	H70	0.834500	0.017500	0.313500
H711	H71	0.017500	0.834500	0.834500
H721	H72	0.313500	0.834500	0.834500
H731	H73	0.399400	0.935600	0.265600
H741	H74	0.935600	0.399400	0.399400
H751	H75	0.265600	0.399400	0.399400
H761	H76	0.399400	0.265600	0.935600
H771	H77	0.399400	0.265600	0.399400
H781	H78	0.935600	0.399400	0.265600
H791	H79	0.265600	0.399400	0.935600
H801	H80	0.399400	0.935600	0.399400
H811	H81	0.399400	0.399400	0.935600
H821	H82	0.935600	0.265600	0.399400
H831	H83	0.265600	0.935600	0.399400
H841	H84	0.399400	0.399400	0.265600
H851	H85	0.064400	0.600600	0.734400
H861	H86	0.600600	0.064400	0.600600
H871	H87	0.600600	0.734400	0.600600
H881	H88	0.734400	0.600600	0.064400
H891	H89	0.734400	0.600600	0.600600
H901	H90	0.600600	0.064400	0.734400
H911	H91	0.600600	0.734400	0.064400
H921	H92	0.064400	0.600600	0.600600
H931	H93	0.600600	0.600600	0.064400
H941	H94	0.734400	0.064400	0.600600
H951	H95	0.064400	0.734400	0.600600
H961	H96	0.600600	0.600600	0.734400
C11	C1	0.649670	0.983630	0.102430
C21	C2	0.624840	0.977340	0.159780
C31	C3	0.575240	0.968440	0.188320
C41	C4	0.983630	0.649670	0.264270
C51	C5	0.977340	0.624840	0.238040
C61	C6	0.968440	0.575240	0.268000
C71	C7	0.102430	0.264270	0.649670
C81	C8	0.159780	0.238040	0.624840
C91	C9	0.188320	0.268000	0.575240
C101	C10	0.264270	0.102430	0.983630
C111	C11	0.238040	0.159780	0.977340
C121	C12	0.268000	0.188320	0.968440
C131	C13	0.649670	0.102430	0.264270
C141	C14	0.624840	0.159780	0.238040
C151	C15	0.575240	0.188320	0.268000
C161	C16	0.983630	0.264270	0.102430
C171	C17	0.977340	0.238040	0.159780
C181	C18	0.968440	0.268000	0.188320
C191	C19	0.102430	0.649670	0.983630
C201	C20	0.159780	0.624840	0.977340
C211	C21	0.188320	0.575240	0.968440
C221	C22	0.264270	0.983630	0.649670
C231	C23	0.238040	0.977340	0.624840
C241	C24	0.268000	0.968440	0.575240
C251	C25	0.649670	0.264270	0.983630
C261	C26	0.624840	0.238040	0.977340
C271	C27	0.575240	0.268000	0.968440
C281	C28	0.983630	0.102430	0.649670
C291	C29	0.977340	0.159780	0.624840
C301	C30	0.968440	0.188320	0.575240
C311	C31	0.102430	0.983630	0.264270
C321	C32	0.159780	0.977340	0.238040
C331	C33	0.188320	0.968440	0.268000
C341	C34	0.264270	0.649670	0.102430
C351	C35	0.238040	0.624840	0.159780
C361	C36	0.268000	0.575240	0.188320
C371	C37	0.016370	0.350330	0.897570
C381	C38	0.022660	0.375160	0.840220
C391	C39	0.031560	0.424760	0.811680
C401	C40	0.350330	0.016370	0.735730
C411	C41	0.375160	0.022660	0.761960
C421	C42	0.424760	0.031560	0.732000
C431	C43	0.735730	0.897570	0.350330
C441	C44	0.761960	0.840220	0.375160
C451	C45	0.732000	0.811680	0.424760
C461	C46	0.897570	0.735730	0.016370
C471	C47	0.840220	0.761960	0.022660
C481	C48	0.811680	0.732000	0.031560
C491	C49	0.897570	0.350330	0.735730
C501	C50	0.840220	0.375160	0.761960
C511	C51	0.811680	0.424760	0.732000
C521	C52	0.735730	0.016370	0.897570
C531	C53	0.761960	0.022660	0.840220
C541	C54	0.732000	0.031560	0.811680
C551	C55	0.350330	0.897570	0.016370
C561	C56	0.375160	0.840220	0.022660
C571	C57	0.424760	0.811680	0.031560
C581	C58	0.016370	0.735730	0.350330
C591	C59	0.022660	0.761960	0.375160
C601	C60	0.031560	0.732000	0.424760
C611	C61	0.735730	0.350330	0.016370
C621	C62	0.761960	0.375160	0.022660
C631	C63	0.732000	0.424760	0.031560
C641	C64	0.897570	0.016370	0.350330
C651	C65	0.840220	0.022660	0.375160
C661	C66	0.811680	0.031560	0.424760
C671	C67	0.016370	0.897570	0.735730
C681	C68	0.022660	0.840220	0.761960
C691	C69	0.031560	0.811680	0.732000
C701	C70	0.350330	0.735730	0.897570
C711	C71	0.375160	0.761960	0.840220
C721	C72	0.424760	0.732000	0.811680
C731	C73	0.350330	0.016370	0.897570
C741	C74	0.375160	0.022660	0.840220
C751	C75	0.424760	0.031560	0.811680
C761	C76	0.016370	0.350330	0.735730
C771	C77	0.022660	0.375160	0.761960
C781	C78	0.031560	0.424760	0.732000
C791	C79	0.897570	0.735730	0.350330
C801	C80	0.840220	0.761960	0.375160
C811	C81	0.811680	0.732000	0.424760
C821	C82	0.735730	0.897570	0.016370
C831	C83	0.761960	0.840220	0.022660
C841	C84	0.732000	0.811680	0.031560
C851	C85	0.350330	0.897570	0.735730
C861	C86	0.375160	0.840220	0.761960
C871	C87	0.424760	0.811680	0.732000
C881	C88	0.016370	0.735730	0.897570
C891	C89	0.022660	0.761960	0.840220
C901	C90	0.031560	0.732000	0.811680
C911	C91	0.897570	0.350330	0.016370
C921	C92	0.840220	0.375160	0.022660
C931	C93	0.811680	0.424760	0.031560
C941	C94	0.735730	0.016370	0.350330
C951	C95	0.761960	0.022660	0.375160
C961	C96	0.732000	0.031560	0.424760
C971	C97	0.350330	0.735730	0.016370
C981	C98	0.375160	0.761960	0.022660
C991	C99	0.424760	0.732000	0.031560
C1001	C100	0.016370	0.897570	0.350330
C1011	C101	0.022660	0.840220	0.375160
C1021	C102	0.031560	0.811680	0.424760
C1031	C103	0.897570	0.016370	0.735730
C1041	C104	0.840220	0.022660	0.761960
C1051	C105	0.811680	0.031560	0.732000
C1061	C106	0.735730	0.350330	0.897570
C1071	C107	0.761960	0.375160	0.840220
C1081	C108	0.732000	0.424760	0.811680
C1091	C109	0.983630	0.649670	0.102430
C1101	C110	0.977340	0.624840	0.159780
C1111	C111	0.968440	0.575240	0.188320
C1121	C112	0.649670	0.983630	0.264270
C1131	C113	0.624840	0.977340	0.238040
C1141	C114	0.575240	0.968440	0.268000
C1151	C115	0.264270	0.102430	0.649670
C1161	C116	0.238040	0.159780	0.624840
C1171	C117	0.268000	0.188320	0.575240
C1181	C118	0.102430	0.264270	0.983630
C1191	C119	0.159780	0.238040	0.977340
C1201	C120	0.188320	0.268000	0.968440
C1211	C121	0.102430	0.649670	0.264270
C1221	C122	0.159780	0.624840	0.238040
C1231	C123	0.188320	0.575240	0.268000
C1241	C124	0.264270	0.983630	0.102430
C1251	C125	0.238040	0.977340	0.159780
C1261	C126	0.268000	0.968440	0.188320
C1271	C127	0.649670	0.102430	0.983630
C1281	C128	0.624840	0.159780	0.977340
C1291	C129	0.575240	0.188320	0.968440
C1301	C130	0.983630	0.264270	0.649670
C1311	C131	0.977340	0.238040	0.624840
C1321	C132	0.968440	0.268000	0.575240
C1331	C133	0.264270	0.649670	0.983630
C1341	C134	0.238040	0.624840	0.977340
C1351	C135	0.268000	0.575240	0.968440
C1361	C136	0.102430	0.983630	0.649670
C1371	C137	0.159780	0.977340	0.624840
C1381	C138	0.188320	0.968440	0.575240
C1391	C139	0.983630	0.102430	0.264270
C1401	C140	0.977340	0.159780	0.238040
C1411	C141	0.968440	0.188320	0.268000
C1421	C142	0.649670	0.264270	0.102430
C1431	C143	0.624840	0.238040	0.159780
C1441	C144	0.575240	0.268000	0.188320
C1451	C145	0.651400	0.979520	0.184540
C1461	C146	0.551240	0.963160	0.242800
C1471	C147	0.503140	0.955060	0.270900
C1481	C148	0.459700	0.948100	0.296100
C1491	C149	0.405260	0.940140	0.327300
C1501	C150	0.979520	0.651400	0.184540
C1511	C151	0.963160	0.551240	0.242800
C1521	C152	0.955060	0.503140	0.270900
C1531	C153	0.948100	0.459700	0.296100
C1541	C154	0.940140	0.405260	0.327300
C1551	C155	0.184540	0.184540	0.651400
C1561	C156	0.242800	0.242800	0.551240
C1571	C157	0.270900	0.270900	0.503140
C1581	C158	0.296100	0.296100	0.459700
C1591	C159	0.327300	0.327300	0.405260
C1601	C160	0.184540	0.184540	0.979520
C1611	C161	0.242800	0.242800	0.963160
C1621	C162	0.270900	0.270900	0.955060
C1631	C163	0.296100	0.296100	0.948100
C1641	C164	0.327300	0.327300	0.940140
C1651	C165	0.651400	0.184540	0.184540
C1661	C166	0.551240	0.242800	0.242800
C1671	C167	0.503140	0.270900	0.270900
C1681	C168	0.459700	0.296100	0.296100
C1691	C169	0.405260	0.327300	0.327300
C1701	C170	0.979520	0.184540	0.184540
C1711	C171	0.963160	0.242800	0.242800
C1721	C172	0.955060	0.270900	0.270900
C1731	C173	0.948100	0.296100	0.296100
C1741	C174	0.940140	0.327300	0.327300
C1751	C175	0.184540	0.651400	0.979520
C1761	C176	0.242800	0.551240	0.963160
C1771	C177	0.270900	0.503140	0.955060
C1781	C178	0.296100	0.459700	0.948100
C1791	C179	0.327300	0.405260	0.940140
C1801	C180	0.184540	0.979520	0.651400
C1811	C181	0.242800	0.963160	0.551240
C1821	C182	0.270900	0.955060	0.503140
C1831	C183	0.296100	0.948100	0.459700
C1841	C184	0.327300	0.940140	0.405260
C1851	C185	0.651400	0.184540	0.979520
C1861	C186	0.551240	0.242800	0.963160
C1871	C187	0.503140	0.270900	0.955060
C1881	C188	0.459700	0.296100	0.948100
C1891	C189	0.405260	0.327300	0.940140
C1901	C190	0.979520	0.184540	0.651400
C1911	C191	0.963160	0.242800	0.551240
C1921	C192	0.955060	0.270900	0.503140
C1931	C193	0.948100	0.296100	0.459700
C1941	C194	0.940140	0.327300	0.405260
C1951	C195	0.184540	0.979520	0.184540
C1961	C196	0.242800	0.963160	0.242800
C1971	C197	0.270900	0.955060	0.270900
C1981	C198	0.296100	0.948100	0.296100
C1991	C199	0.327300	0.940140	0.327300
C2001	C200	0.184540	0.651400	0.184540
C2011	C201	0.242800	0.551240	0.242800
C2021	C202	0.270900	0.503140	0.270900
C2031	C203	0.296100	0.459700	0.296100
C2041	C204	0.327300	0.405260	0.327300
C2051	C205	0.020480	0.348600	0.815460
C2061	C206	0.036840	0.448760	0.757200
C2071	C207	0.044940	0.496860	0.729100
C2081	C208	0.051900	0.540300	0.703900
C2091	C209	0.059860	0.594740	0.672700
C2101	C210	0.348600	0.020480	0.815460
C2111	C211	0.448760	0.036840	0.757200
C2121	C212	0.496860	0.044940	0.729100
C2131	C213	0.540300	0.051900	0.703900
C2141	C214	0.594740	0.059860	0.672700
C2151	C215	0.815460	0.815460	0.348600
C2161	C216	0.757200	0.757200	0.448760
C2171	C217	0.729100	0.729100	0.496860
C2181	C218	0.703900	0.703900	0.540300
C2191	C219	0.672700	0.672700	0.594740
C2201	C220	0.815460	0.815460	0.020480
C2211	C221	0.757200	0.757200	0.036840
C2221	C222	0.729100	0.729100	0.044940
C2231	C223	0.703900	0.703900	0.051900
C2241	C224	0.672700	0.672700	0.059860
C2251	C225	0.815460	0.348600	0.815460
C2261	C226	0.757200	0.448760	0.757200
C2271	C227	0.729100	0.496860	0.729100
C2281	C228	0.703900	0.540300	0.703900
C2291	C229	0.672700	0.594740	0.672700
C2301	C230	0.815460	0.020480	0.815460
C2311	C231	0.757200	0.036840	0.757200
C2321	C232	0.729100	0.044940	0.729100
C2331	C233	0.703900	0.051900	0.703900
C2341	C234	0.672700	0.059860	0.672700
C2351	C235	0.348600	0.815460	0.020480
C2361	C236	0.448760	0.757200	0.036840
C2371	C237	0.496860	0.729100	0.044940
C2381	C238	0.540300	0.703900	0.051900
C2391	C239	0.594740	0.672700	0.059860
C2401	C240	0.020480	0.815460	0.348600
C2411	C241	0.036840	0.757200	0.448760
C2421	C242	0.044940	0.729100	0.496860
C2431	C243	0.051900	0.703900	0.540300
C2441	C244	0.059860	0.672700	0.594740
C2451	C245	0.815460	0.348600	0.020480
C2461	C246	0.757200	0.448760	0.036840
C2471	C247	0.729100	0.496860	0.044940
C2481	C248	0.703900	0.540300	0.051900
C2491	C249	0.672700	0.594740	0.059860
C2501	C250	0.815460	0.020480	0.348600
C2511	C251	0.757200	0.036840	0.448760
C2521	C252	0.729100	0.044940	0.496860
C2531	C253	0.703900	0.051900	0.540300
C2541	C254	0.672700	0.059860	0.594740
C2551	C255	0.020480	0.815460	0.815460
C2561	C256	0.036840	0.757200	0.757200
C2571	C257	0.044940	0.729100	0.729100
C2581	C258	0.051900	0.703900	0.703900
C2591	C259	0.059860	0.672700	0.672700
C2601	C260	0.348600	0.815460	0.815460
C2611	C261	0.448760	0.757200	0.757200
C2621	C262	0.496860	0.729100	0.729100
C2631	C263	0.540300	0.703900	0.703900
C2641	C264	0.594740	0.672700	0.672700
C2651	C265	0.380500	0.938300	0.300700
C2661	C266	0.938300	0.380500	0.380500
C2671	C267	0.300700	0.380500	0.380500
C2681	C268	0.380500	0.300700	0.938300
C2691	C269	0.380500	0.300700	0.380500
C2701	C270	0.938300	0.380500	0.300700
C2711	C271	0.300700	0.380500	0.938300
C2721	C272	0.380500	0.938300	0.380500
C2731	C273	0.380500	0.380500	0.938300
C2741	C274	0.938300	0.300700	0.380500
C2751	C275	0.300700	0.938300	0.380500
C2761	C276	0.380500	0.380500	0.300700
C2771	C277	0.061700	0.619500	0.699300
C2781	C278	0.619500	0.061700	0.619500
C2791	C279	0.619500	0.699300	0.619500
C2801	C280	0.699300	0.619500	0.061700
C2811	C281	0.699300	0.619500	0.619500
C2821	C282	0.619500	0.061700	0.699300
C2831	C283	0.619500	0.699300	0.061700
C2841	C284	0.061700	0.619500	0.619500
C2851	C285	0.619500	0.619500	0.061700
C2861	C286	0.699300	0.061700	0.619500
C2871	C287	0.061700	0.699300	0.619500
C2881	C288	0.619500	0.619500	0.699300
O11	O1	0.696170	0.986670	0.079030
O21	O2	0.623710	0.986030	0.079190
O31	O3	0.986670	0.696170	0.238130
O41	O4	0.986030	0.623710	0.311070
O51	O5	0.079030	0.238130	0.696170
O61	O6	0.079190	0.311070	0.623710
O71	O7	0.238130	0.079030	0.986670
O81	O8	0.311070	0.079190	0.986030
O91	O9	0.696170	0.079030	0.238130
O101	O10	0.623710	0.079190	0.311070
O111	O11	0.986670	0.238130	0.079030
O121	O12	0.986030	0.311070	0.079190
O131	O13	0.079030	0.696170	0.986670
O141	O14	0.079190	0.623710	0.986030
O151	O15	0.238130	0.986670	0.696170
O161	O16	0.311070	0.986030	0.623710
O171	O17	0.696170	0.238130	0.986670
O181	O18	0.623710	0.311070	0.986030
O191	O19	0.986670	0.079030	0.696170
O201	O20	0.986030	0.079190	0.623710
O211	O21	0.079030	0.986670	0.238130
O221	O22	0.079190	0.986030	0.311070
O231	O23	0.238130	0.696170	0.079030
O241	O24	0.311070	0.623710	0.079190
O251	O25	0.013330	0.303830	0.920970
O261	O26	0.013970	0.376290	0.920810
O271	O27	0.303830	0.013330	0.761870
O281	O28	0.376290	0.013970	0.688930
O291	O29	0.761870	0.920970	0.303830
O301	O30	0.688930	0.920810	0.376290
O311	O31	0.920970	0.761870	0.013330
O321	O32	0.920810	0.688930	0.013970
O331	O33	0.920970	0.303830	0.761870
O341	O34	0.920810	0.376290	0.688930
O351	O35	0.761870	0.013330	0.920970
O361	O36	0.688930	0.013970	0.920810
O371	O37	0.303830	0.920970	0.013330
O381	O38	0.376290	0.920810	0.013970
O391	O39	0.013330	0.761870	0.303830
O401	O40	0.013970	0.688930	0.376290
O411	O41	0.761870	0.303830	0.013330
O421	O42	0.688930	0.376290	0.013970
O431	O43	0.920970	0.013330	0.303830
O441	O44	0.920810	0.013970	0.376290
O451	O45	0.013330	0.920970	0.761870
O461	O46	0.013970	0.920810	0.688930
O471	O47	0.303830	0.761870	0.920970
O481	O48	0.376290	0.688930	0.920810
O491	O49	0.303830	0.013330	0.920970
O501	O50	0.376290	0.013970	0.920810
O511	O51	0.013330	0.303830	0.761870
O521	O52	0.013970	0.376290	0.688930
O531	O53	0.920970	0.761870	0.303830
O541	O54	0.920810	0.688930	0.376290
O551	O55	0.761870	0.920970	0.013330
O561	O56	0.688930	0.920810	0.013970
O571	O57	0.303830	0.920970	0.761870
O581	O58	0.376290	0.920810	0.688930
O591	O59	0.013330	0.761870	0.920970
O601	O60	0.013970	0.688930	0.920810
O611	O61	0.920970	0.303830	0.013330
O621	O62	0.920810	0.376290	0.013970
O631	O63	0.761870	0.013330	0.303830
O641	O64	0.688930	0.013970	0.376290
O651	O65	0.303830	0.761870	0.013330
O661	O66	0.376290	0.688930	0.013970
O671	O67	0.013330	0.920970	0.303830
O681	O68	0.013970	0.920810	0.376290
O691	O69	0.920970	0.013330	0.761870
O701	O70	0.920810	0.013970	0.688930
O711	O71	0.761870	0.303830	0.920970
O721	O72	0.688930	0.376290	0.920810
O731	O73	0.986670	0.696170	0.079030
O741	O74	0.986030	0.623710	0.079190
O751	O75	0.696170	0.986670	0.238130
O761	O76	0.623710	0.986030	0.311070
O771	O77	0.238130	0.079030	0.696170
O781	O78	0.311070	0.079190	0.623710
O791	O79	0.079030	0.238130	0.986670
O801	O80	0.079190	0.311070	0.986030
O811	O81	0.079030	0.696170	0.238130
O821	O82	0.079190	0.623710	0.311070
O831	O83	0.238130	0.986670	0.079030
O841	O84	0.311070	0.986030	0.079190
O851	O85	0.696170	0.079030	0.986670
O861	O86	0.623710	0.079190	0.986030
O871	O87	0.986670	0.238130	0.696170
O881	O88	0.986030	0.311070	0.623710
O891	O89	0.238130	0.696170	0.986670
O901	O90	0.311070	0.623710	0.986030
O911	O91	0.079030	0.986670	0.696170
O921	O92	0.079190	0.986030	0.623710
O931	O93	0.986670	0.079030	0.238130
O941	O94	0.986030	0.079190	0.311070
O951	O95	0.696170	0.238130	0.079030
O961	O96	0.623710	0.311070	0.079190
