data_VUKRUQ_clean_PM
_symmetry_space_group_name_H-M	'P1'
_cell_length_a	9.477800
_cell_length_b	11.065700
_cell_length_c	12.693600
_cell_angle_alpha	101.544000
_cell_angle_beta	92.065400
_cell_angle_gamma	100.591000
_symmetry_Int_Tables_number 1

loop_
_symmetry_equiv_pos_as_xyz
'x,y,z'

loop_
_atom_site_label
_atom_site_type_symbol
_atom_site_fract_x
_atom_site_fract_y
_atom_site_fract_z
Ni11	Ni1	0.167620	0.266340	0.454720
O11	O1	0.178910	0.337500	0.333190
O21	O2	0.942410	0.327010	0.340250
O31	O3	0.982710	0.422770	0.570720
O41	O4	0.849940	0.135300	0.393580
N11	N1	0.397630	0.274160	0.464950
C11	C1	0.475850	0.380770	0.552820
C21	C2	0.433460	0.156980	0.492260
C31	C3	0.461900	0.289030	0.365870
C41	C4	0.054720	0.333260	0.286880
C51	C5	0.025850	0.307000	0.168800
C61	C6	0.137880	0.308780	0.099430
C71	C7	0.108050	0.281070	0.986620
C81	C8	0.218850	0.273570	0.916930
C91	C9	0.883540	0.286070	0.123710
C101	C10	0.104590	0.470490	0.546280
C111	C11	0.092960	0.591480	0.510380
C121	C12	0.977260	0.646900	0.534710
C131	C13	0.966850	0.751850	0.499040
C141	C14	0.844130	0.806170	0.517350
C151	C15	0.210030	0.643310	0.460550
Ni21	Ni2	0.904800	0.273670	0.477090
O51	O5	0.899280	0.205510	0.597320
O61	O6	0.133890	0.208930	0.589250
O71	O7	0.076540	0.117920	0.359720
O81	O8	0.209420	0.402320	0.543070
N21	N2	0.682410	0.279890	0.476250
C161	C16	0.639820	0.385410	0.560910
C171	C17	0.595110	0.165910	0.498530
C181	C18	0.622280	0.294900	0.370340
C191	C19	0.021950	0.206940	0.643110
C201	C20	0.047590	0.235160	0.760900
C211	C21	0.935040	0.238660	0.830090
C221	C22	0.964570	0.260220	0.942540
C231	C23	0.853470	0.263070	0.011860
C241	C24	0.188870	0.250140	0.805510
C251	C25	0.952210	0.081880	0.388660
C261	C26	0.945330	0.955980	0.421080
C271	C27	0.065430	0.907950	0.402940
C281	C28	0.080610	0.804790	0.443280
C291	C29	0.200490	0.749980	0.422460
C301	C30	0.831220	0.908680	0.475330
H11	H1	0.247310	0.324450	0.133390
H21	H2	0.328760	0.285900	0.948320
H31	H3	0.795040	0.286290	0.174700
H41	H4	0.825400	0.227910	0.796660
H51	H5	0.743030	0.243000	0.979010
H61	H6	0.276640	0.245800	0.754120
H71	H7	0.891440	0.604190	0.584490
H81	H8	0.756910	0.764710	0.566710
H91	H9	0.308690	0.597680	0.452500
H101	H10	0.151690	0.953240	0.354860
H111	H11	0.289770	0.791760	0.374860
H121	H12	0.732980	0.954890	0.483210
H131	H13	0.431750	0.368860	0.633280
H141	H14	0.457010	0.474020	0.535590
H151	H15	0.380630	0.072140	0.427300
H161	H16	0.391540	0.145420	0.573440
H171	H17	0.438930	0.379100	0.344360
H181	H18	0.411470	0.206150	0.298310
H191	H19	0.698020	0.480420	0.547910
H201	H20	0.673050	0.374670	0.645240
H211	H21	0.630970	0.156470	0.582710
H221	H22	0.614840	0.080560	0.438170
H231	H23	0.647000	0.217350	0.303990
H241	H24	0.675300	0.389970	0.354280
