data_VUKSAX_clean_PM
_symmetry_space_group_name_H-M	'P1'
_cell_length_a	18.656900
_cell_length_b	18.735900
_cell_length_c	9.433100
_cell_angle_alpha	90.000000
_cell_angle_beta	94.424300
_cell_angle_gamma	90.000000
_symmetry_Int_Tables_number 1

loop_
_symmetry_equiv_pos_as_xyz
'x,y,z'

loop_
_atom_site_label
_atom_site_type_symbol
_atom_site_fract_x
_atom_site_fract_y
_atom_site_fract_z
O11	O1	0.322220	0.178910	0.391850
O21	O2	0.173080	0.174230	0.604210
O31	O3	0.184250	0.175020	0.368790
O41	O4	0.303640	0.173460	0.624890
C11	C1	0.153500	0.150290	0.477940
C21	C2	0.097560	0.098380	0.468940
C31	C3	0.056180	0.076130	0.582290
H11	H1	0.063580	0.103610	0.683560
C41	C4	0.417600	0.056850	0.672370
H21	H2	0.393180	0.072830	0.767650
C51	C5	0.962810	0.997610	0.676010
H31	H3	0.967960	0.025890	0.776250
C61	C6	0.004800	0.018720	0.565140
H41	H4	0.350230	0.297260	0.107680
H51	H5	0.349640	0.202730	0.860520
C71	C7	0.334990	0.148710	0.515800
C81	C8	0.391030	0.085470	0.539880
C91	C9	0.425870	0.060880	0.419200
H61	H6	0.405550	0.079210	0.315340
C101	C10	0.086220	0.060150	0.340060
H71	H7	0.116090	0.074760	0.250520
C111	C11	0.476560	0.008760	0.685930
H81	H8	0.494140	0.989210	0.790790
C121	C12	0.486990	0.013080	0.432610
C131	C13	0.208850	0.186690	0.049110
H91	H9	0.234380	0.136820	0.092330
H101	H10	0.152150	0.184920	0.078490
C141	C14	0.207820	0.186940	0.878160
H111	H11	0.150610	0.185680	0.833790
H121	H12	0.232220	0.137210	0.840100
O51	O5	0.677780	0.678910	0.608150
O61	O6	0.826920	0.674230	0.395790
O71	O7	0.815750	0.675020	0.631210
O81	O8	0.696360	0.673460	0.375110
C151	C15	0.846500	0.650290	0.522060
C161	C16	0.902440	0.598380	0.531060
C171	C17	0.943820	0.576130	0.417710
H131	H13	0.936420	0.603610	0.316440
C181	C18	0.582400	0.556850	0.327630
H141	H14	0.606820	0.572830	0.232350
C191	C19	0.037190	0.497610	0.323990
H151	H15	0.032040	0.525890	0.223750
C201	C20	0.995200	0.518720	0.434860
H161	H16	0.649770	0.797260	0.892320
H171	H17	0.650360	0.702730	0.139480
C211	C21	0.665010	0.648710	0.484200
C221	C22	0.608970	0.585470	0.460120
C231	C23	0.574130	0.560880	0.580800
H181	H18	0.594450	0.579210	0.684660
C241	C24	0.913780	0.560150	0.659940
H191	H19	0.883910	0.574760	0.749480
C251	C25	0.523440	0.508760	0.314070
H201	H20	0.505860	0.489210	0.209210
C261	C26	0.513010	0.513080	0.567390
C271	C27	0.791150	0.686690	0.950890
H211	H21	0.765620	0.636820	0.907670
H221	H22	0.847850	0.684920	0.921510
C281	C28	0.792180	0.686940	0.121840
H231	H23	0.849390	0.685680	0.166210
H241	H24	0.767780	0.637210	0.159900
O91	O9	0.677780	0.821090	0.608150
O101	O10	0.826920	0.825770	0.395790
O111	O11	0.815750	0.824980	0.631210
O121	O12	0.696360	0.826540	0.375110
C291	C29	0.846500	0.849710	0.522060
C301	C30	0.902440	0.901620	0.531060
C311	C31	0.943820	0.923870	0.417710
H251	H25	0.936420	0.896390	0.316440
C321	C32	0.582400	0.943150	0.327630
H261	H26	0.606820	0.927170	0.232350
C331	C33	0.037190	0.002390	0.323990
H271	H27	0.032040	0.974110	0.223750
C341	C34	0.995200	0.981280	0.434860
H281	H28	0.649770	0.702740	0.892320
H291	H29	0.650360	0.797270	0.139480
C351	C35	0.665010	0.851290	0.484200
C361	C36	0.608970	0.914530	0.460120
C371	C37	0.574130	0.939120	0.580800
H301	H30	0.594450	0.920790	0.684660
C381	C38	0.913780	0.939850	0.659940
H311	H31	0.883910	0.925240	0.749480
C391	C39	0.523440	0.991240	0.314070
H321	H32	0.505860	0.010790	0.209210
C401	C40	0.513010	0.986920	0.567390
C411	C41	0.791150	0.813310	0.950890
H331	H33	0.765620	0.863180	0.907670
H341	H34	0.847850	0.815080	0.921510
C421	C42	0.792180	0.813060	0.121840
H351	H35	0.849390	0.814320	0.166210
H361	H36	0.767780	0.862790	0.159900
O131	O13	0.322220	0.321090	0.391850
O141	O14	0.173080	0.325770	0.604210
O151	O15	0.184250	0.324980	0.368790
O161	O16	0.303640	0.326540	0.624890
C431	C43	0.153500	0.349710	0.477940
C441	C44	0.097560	0.401620	0.468940
C451	C45	0.056180	0.423870	0.582290
H371	H37	0.063580	0.396390	0.683560
C461	C46	0.417600	0.443150	0.672370
H381	H38	0.393180	0.427170	0.767650
C471	C47	0.962810	0.502390	0.676010
H391	H39	0.967960	0.474110	0.776250
C481	C48	0.004800	0.481280	0.565140
H401	H40	0.350230	0.202740	0.107680
H411	H41	0.349640	0.297270	0.860520
C491	C49	0.334990	0.351290	0.515800
C501	C50	0.391030	0.414530	0.539880
C511	C51	0.425870	0.439120	0.419200
H421	H42	0.405550	0.420790	0.315340
C521	C52	0.086220	0.439850	0.340060
H431	H43	0.116090	0.425240	0.250520
C531	C53	0.476560	0.491240	0.685930
H441	H44	0.494140	0.510790	0.790790
C541	C54	0.486990	0.486920	0.432610
C551	C55	0.208850	0.313310	0.049110
H451	H45	0.234380	0.363180	0.092330
H461	H46	0.152150	0.315080	0.078490
C561	C56	0.207820	0.313060	0.878160
H471	H47	0.150610	0.314320	0.833790
H481	H48	0.232220	0.362790	0.840100
Ni11	Ni1	0.237550	0.250000	0.618720
Ni21	Ni2	0.255510	0.250000	0.349870
N11	N1	0.245030	0.250000	0.819460
N21	N2	0.246170	0.250000	0.118500
C571	C57	0.319770	0.250000	0.064890
C581	C58	0.319200	0.250000	0.894200
Ni31	Ni3	0.762450	0.750000	0.381280
Ni41	Ni4	0.744490	0.750000	0.650130
N31	N3	0.754970	0.750000	0.180540
N41	N4	0.753830	0.750000	0.881500
C591	C59	0.680230	0.750000	0.935110
C601	C60	0.680800	0.750000	0.105800
