data_VUKTAY_clean_PM
_symmetry_space_group_name_H-M	'P1'
_cell_length_a	14.604000
_cell_length_b	15.309000
_cell_length_c	22.870000
_cell_angle_alpha	84.603000
_cell_angle_beta	83.640000
_cell_angle_gamma	86.655000
_symmetry_Int_Tables_number 1

loop_
_symmetry_equiv_pos_as_xyz
'x,y,z'

loop_
_atom_site_label
_atom_site_type_symbol
_atom_site_fract_x
_atom_site_fract_y
_atom_site_fract_z
Sm11	Sm1	0.707820	0.620020	0.259370
O11	O1	0.610400	0.500800	0.280800
O21	O2	0.799600	0.696300	0.328600
O31	O3	0.673600	0.631500	0.366900
O41	O4	0.561600	0.703100	0.266400
O51	O5	0.833100	0.701000	0.209500
O61	O6	0.669800	0.793400	0.271600
O71	O7	0.816700	0.519800	0.300300
O81	O8	0.739500	0.519500	0.178600
O91	O9	0.667700	0.645300	0.154400
Sm21	Sm2	0.680930	0.370560	0.216730
C11	C1	0.531400	0.466600	0.285600
Sm31	Sm3	0.828760	0.833600	0.272330
C21	C2	0.746600	0.666000	0.373900
C31	C3	0.586300	0.774500	0.280000
C41	C4	0.713100	0.579400	0.139100
O101	O10	0.518100	0.403200	0.256700
O111	O11	0.786500	0.326900	0.134600
O121	O12	0.819500	0.234300	0.209800
O131	O13	0.816700	0.395700	0.257000
O141	O14	0.668400	0.300000	0.312800
O151	O15	0.601400	0.248300	0.191000
C51	C5	0.455200	0.501300	0.327500
O161	O16	0.913300	0.963400	0.260600
O171	O17	0.758200	0.952000	0.212500
O181	O18	0.929400	0.804100	0.179500
O191	O19	0.803100	0.871000	0.369100
C61	C6	0.773700	0.671700	0.434300
C71	C7	0.516300	0.838300	0.305900
C81	C8	0.742300	0.566400	0.076000
C91	C9	0.469800	0.558200	0.368200
C101	C10	0.365900	0.473900	0.326000
Sm41	Sm4	0.791910	0.097650	0.264240
C111	C11	0.975800	0.017500	0.261800
C121	C12	0.791800	0.989800	0.163900
C131	C13	0.865000	0.681300	0.441900
C141	C14	0.707500	0.668400	0.482400
C151	C15	0.538800	0.916200	0.322500
C161	C16	0.426700	0.815600	0.315200
C171	C17	0.821600	0.512100	0.062300
C181	C18	0.698400	0.607300	0.031300
C191	C19	0.397900	0.587000	0.406700
H11	H1	0.528700	0.577300	0.369700
C201	C20	0.295200	0.503300	0.364800
H21	H2	0.354500	0.435700	0.298600
O201	O20	0.956100	0.087900	0.286400
O211	O21	0.821800	0.066900	0.160800
O221	O22	0.767200	0.193000	0.338300
O231	O23	0.646200	0.125200	0.240800
O241	O24	0.737500	0.999400	0.342200
C211	C21	0.069100	0.003100	0.232100
C221	C22	0.794200	0.944400	0.109900
H31	H3	0.909200	0.684500	0.409300
C231	C23	0.891000	0.686300	0.497800
H41	H4	0.646100	0.661500	0.477300
C241	C24	0.732400	0.675200	0.537800
H51	H5	0.599600	0.932800	0.316500
C251	C25	0.469100	0.971900	0.349100
H61	H6	0.411300	0.761300	0.305200
C261	C26	0.358500	0.871600	0.339200
H71	H7	0.853800	0.484500	0.092300
C271	C27	0.851300	0.500100	0.003700
H81	H8	0.648200	0.645800	0.040100
C281	C28	0.725600	0.593800	0.973500
H91	H9	0.408600	0.625900	0.433800
C291	C29	0.312100	0.559600	0.405800
H101	H10	0.235800	0.485400	0.363600
C301	C30	0.078900	0.958000	0.181100
C311	C31	0.146400	0.036200	0.250100
C321	C32	0.853500	0.969600	0.060800
C331	C33	0.741600	0.874100	0.108400
H111	H11	0.952500	0.690900	0.503400
C341	C34	0.823300	0.684300	0.545100
H121	H12	0.687900	0.673700	0.570200
H131	H13	0.484500	0.024500	0.361800
C351	C35	0.380900	0.949700	0.356100
H141	H14	0.297400	0.856000	0.343800
C361	C36	0.803600	0.539800	0.959800
H151	H15	0.904000	0.464900	0.994400
H161	H16	0.692300	0.620400	0.943600
O251	O25	0.235800	0.586900	0.442000
H171	H17	0.028500	0.932200	0.169500
C371	C37	0.163700	0.952200	0.148100
H181	H18	0.140900	0.064300	0.284700
C381	C38	0.231000	0.028400	0.217900
H191	H19	0.889500	0.017600	0.061200
C391	C39	0.860000	0.923800	0.010900
H201	H20	0.701300	0.856700	0.141300
C401	C40	0.747400	0.828200	0.058600
O261	O26	0.842800	0.697700	0.601700
O271	O27	0.313100	0.007900	0.377900
O281	O28	0.827500	0.532500	0.901000
C411	C41	0.249200	0.623800	0.493600
C421	C42	0.240300	0.988400	0.165400
H211	H21	0.169700	0.923500	0.113700
H221	H22	0.282400	0.050000	0.231300
C431	C43	0.807900	0.853500	0.010200
H231	H23	0.900000	0.941300	0.977900
H241	H24	0.710800	0.780700	0.057900
C441	C44	0.922000	0.661800	0.622800
C451	C45	0.299000	0.016200	0.437100
C461	C46	0.894100	0.468200	0.884400
C471	C47	0.298000	0.578100	0.535100
C481	C48	0.208000	0.703700	0.502200
O291	O29	0.319600	0.981700	0.128500
O301	O30	0.809100	0.805800	0.961700
C491	C49	0.960600	0.580200	0.609900
C501	C50	0.957500	0.708500	0.662000
C511	C51	0.244500	0.087700	0.453500
C521	C52	0.330900	0.954800	0.480200
C531	C53	0.973000	0.492900	0.852900
C541	C54	0.877500	0.380900	0.896900
H251	H25	0.325100	0.523100	0.528200
C551	C55	0.306700	0.613500	0.586600
C561	C56	0.218600	0.740200	0.555200
H261	H26	0.173800	0.733600	0.474000
C571	C57	0.392000	0.028000	0.142900
C581	C58	0.897400	0.785700	0.933300
C591	C59	0.036600	0.546300	0.637200
H271	H27	0.935700	0.548400	0.583300
C601	C60	0.033000	0.674700	0.688600
H281	H28	0.930700	0.763100	0.670600
C611	C61	0.226900	0.100900	0.513000
H291	H29	0.219700	0.126800	0.425100
C621	C62	0.311200	0.968100	0.539100
H301	H30	0.365400	0.904900	0.469100
C631	C63	0.038800	0.430000	0.832700
H311	H31	0.983700	0.552200	0.844500
C641	C64	0.942100	0.316600	0.876100
H321	H32	0.823100	0.364300	0.919300
H331	H33	0.339400	0.581900	0.615000
C651	C65	0.267900	0.695300	0.597100
H341	H34	0.191800	0.795500	0.561900
C661	C66	0.461000	0.983400	0.168600
C671	C67	0.392700	0.115900	0.129500
C681	C68	0.909600	0.803100	0.874200
C691	C69	0.964400	0.746200	0.963500
C701	C70	0.072300	0.592500	0.677800
H351	H35	0.063900	0.492100	0.628100
H361	H36	0.058300	0.707600	0.714500
C711	C71	0.258900	0.039800	0.554300
H371	H37	0.193500	0.151100	0.524600
H381	H38	0.333700	0.928300	0.568000
H391	H39	0.092900	0.447900	0.810500
C721	C72	0.025200	0.342600	0.844800
H401	H40	0.929800	0.257400	0.883100
C731	C73	0.277700	0.738600	0.652500
H411	H41	0.462200	0.922400	0.173500
C741	C74	0.530900	0.028000	0.188000
C751	C75	0.459900	0.163300	0.148100
H421	H42	0.347900	0.144400	0.107800
C761	C76	0.994900	0.785200	0.843100
H431	H43	0.860800	0.827100	0.854100
C771	C77	0.049600	0.727900	0.933300
H441	H44	0.953700	0.731500	0.004000
C781	C78	0.150900	0.555500	0.708700
C791	C79	0.237400	0.057500	0.618000
C801	C80	0.091500	0.275100	0.817800
H451	H45	0.577900	0.998000	0.207200
C811	C81	0.527800	0.117600	0.177700
H461	H46	0.459400	0.224100	0.140900
C821	C82	0.064400	0.748400	0.873100
H471	H47	0.004000	0.798200	0.802400
H481	H48	0.097200	0.701600	0.953600
C831	C83	0.595900	0.168000	0.204400
C841	C84	0.158800	0.729100	0.842100
Sm51	Sm5	0.292180	0.379980	0.740630
O311	O31	0.389600	0.499200	0.719200
O321	O32	0.200400	0.303700	0.671400
O331	O33	0.326400	0.368500	0.633100
O341	O34	0.438400	0.296900	0.733600
O351	O35	0.166900	0.299000	0.790500
O361	O36	0.330200	0.206600	0.728400
O371	O37	0.183300	0.480200	0.699700
O381	O38	0.260500	0.480500	0.821400
O391	O39	0.332300	0.354700	0.845600
Sm61	Sm6	0.319070	0.629440	0.783270
C851	C85	0.468600	0.533400	0.714400
Sm71	Sm7	0.171240	0.166400	0.727670
C861	C86	0.253400	0.334000	0.626100
C871	C87	0.413700	0.225500	0.720000
C881	C88	0.286900	0.420600	0.860900
O401	O40	0.481900	0.596800	0.743300
O411	O41	0.213500	0.673100	0.865400
O421	O42	0.180500	0.765700	0.790200
O431	O43	0.183300	0.604300	0.743000
O441	O44	0.331600	0.700000	0.687200
O451	O45	0.398600	0.751700	0.809000
C891	C89	0.544800	0.498700	0.672500
O461	O46	0.086700	0.036600	0.739400
O471	O47	0.241800	0.048000	0.787500
O481	O48	0.070600	0.195900	0.820500
O491	O49	0.196900	0.129000	0.630900
C901	C90	0.226300	0.328300	0.565700
C911	C91	0.483700	0.161700	0.694100
C921	C92	0.257700	0.433600	0.924000
C931	C93	0.530200	0.441800	0.631800
C941	C94	0.634100	0.526100	0.674000
Sm81	Sm8	0.208090	0.902350	0.735760
C951	C95	0.024200	0.982500	0.738200
C961	C96	0.208200	0.010200	0.836100
C971	C97	0.135000	0.318700	0.558100
C981	C98	0.292500	0.331600	0.517600
C991	C99	0.461200	0.083800	0.677500
C1001	C100	0.573300	0.184400	0.684800
C1011	C101	0.178400	0.487900	0.937700
C1021	C102	0.301600	0.392700	0.968700
C1031	C103	0.602100	0.413000	0.593300
H491	H49	0.471300	0.422700	0.630300
C1041	C104	0.704800	0.496700	0.635200
H501	H50	0.645500	0.564300	0.701400
O501	O50	0.043900	0.912100	0.713600
O511	O51	0.178200	0.933100	0.839200
O521	O52	0.232800	0.807000	0.661700
O531	O53	0.353800	0.874800	0.759200
O541	O54	0.262500	0.000600	0.657800
C1051	C105	0.930900	0.996900	0.767900
C1061	C106	0.205800	0.055600	0.890100
H511	H51	0.090800	0.315500	0.590700
C1071	C107	0.109000	0.313700	0.502200
H521	H52	0.353900	0.338500	0.522700
C1081	C108	0.267600	0.324800	0.462200
H531	H53	0.400400	0.067200	0.683500
C1091	C109	0.530900	0.028100	0.650900
H541	H54	0.588700	0.238700	0.694800
C1101	C110	0.641500	0.128400	0.660800
H551	H55	0.146200	0.515500	0.907700
C1111	C111	0.148700	0.499900	0.996300
H561	H56	0.351800	0.354200	0.959900
C1121	C112	0.274400	0.406200	0.026500
H571	H57	0.591400	0.374100	0.566200
C1131	C113	0.687900	0.440400	0.594200
H581	H58	0.764200	0.514600	0.636400
C1141	C114	0.921100	0.042000	0.818900
C1151	C115	0.853600	0.963800	0.749900
C1161	C116	0.146500	0.030400	0.939200
C1171	C117	0.258400	0.125900	0.891600
H591	H59	0.047500	0.309100	0.496600
C1181	C118	0.176700	0.315700	0.454900
H601	H60	0.312100	0.326300	0.429800
H611	H61	0.515500	0.975500	0.638200
C1191	C119	0.619100	0.050300	0.643900
H621	H62	0.702600	0.144000	0.656200
C1201	C120	0.196400	0.460200	0.040200
H631	H63	0.096000	0.535100	0.005600
H641	H64	0.307700	0.379600	0.056400
O551	O55	0.764200	0.413100	0.558000
H651	H65	0.971500	0.067800	0.830500
C1211	C121	0.836300	0.047800	0.851900
H661	H66	0.859100	0.935700	0.715300
C1221	C122	0.769000	0.971600	0.782100
H671	H67	0.110500	0.982400	0.938800
C1231	C123	0.140000	0.076200	0.989100
H681	H68	0.298700	0.143300	0.858700
C1241	C124	0.252600	0.171800	0.941400
O561	O56	0.157200	0.302300	0.398300
O571	O57	0.686900	0.992100	0.622100
O581	O58	0.172500	0.467500	0.099000
C1251	C125	0.750800	0.376200	0.506400
C1261	C126	0.759700	0.011600	0.834600
H691	H69	0.830300	0.076500	0.886300
H701	H70	0.717600	0.950000	0.768700
C1271	C127	0.192100	0.146500	0.989800
H711	H71	0.100000	0.058700	0.022100
H721	H72	0.289200	0.219300	0.942100
C1281	C128	0.078000	0.338200	0.377200
C1291	C129	0.701000	0.983800	0.562900
C1301	C130	0.105900	0.531800	0.115600
C1311	C131	0.702000	0.421900	0.464900
C1321	C132	0.792000	0.296300	0.497800
O591	O59	0.680400	0.018300	0.871500
O601	O60	0.190900	0.194200	0.038300
C1331	C133	0.039400	0.419800	0.390100
C1341	C134	0.042500	0.291500	0.338000
C1351	C135	0.755500	0.912300	0.546500
C1361	C136	0.669100	0.045200	0.519800
C1371	C137	0.027000	0.507100	0.147100
C1381	C138	0.122500	0.619100	0.103100
H731	H73	0.674900	0.476900	0.471800
C1391	C139	0.693300	0.386500	0.413400
C1401	C140	0.781400	0.259800	0.444800
H741	H74	0.826200	0.266400	0.526000
C1411	C141	0.608000	0.972000	0.857100
C1421	C142	0.102600	0.214300	0.066700
C1431	C143	0.963400	0.453700	0.362800
H751	H75	0.064300	0.451600	0.416700
C1441	C144	0.967000	0.325300	0.311400
H761	H76	0.069300	0.236900	0.329400
C1451	C145	0.773100	0.899100	0.487000
H771	H77	0.780300	0.873200	0.574900
C1461	C146	0.688800	0.031900	0.460900
H781	H78	0.634600	0.095100	0.530900
C1471	C147	0.961200	0.570000	0.167300
H791	H79	0.016300	0.447800	0.155500
C1481	C148	0.057900	0.683400	0.123900
H801	H80	0.176900	0.635700	0.080700
H811	H81	0.660600	0.418100	0.385000
C1491	C149	0.732100	0.304700	0.402900
H821	H82	0.808200	0.204500	0.438100
C1501	C150	0.539000	0.016600	0.831400
C1511	C151	0.607300	0.884100	0.870500
C1521	C152	0.090400	0.196900	0.125800
C1531	C153	0.035600	0.253800	0.036500
C1541	C154	0.927700	0.407500	0.322200
H831	H83	0.936100	0.507900	0.371900
H841	H84	0.941700	0.292400	0.285500
C1551	C155	0.741100	0.960200	0.445700
H851	H85	0.806500	0.848900	0.475400
H861	H86	0.666300	0.071700	0.432000
H871	H87	0.907100	0.552100	0.189500
C1561	C156	0.974800	0.657400	0.155200
H881	H88	0.070200	0.742600	0.116900
C1571	C157	0.722300	0.261400	0.347500
H891	H89	0.537800	0.077600	0.826500
C1581	C158	0.469100	0.972000	0.812000
C1591	C159	0.540100	0.836700	0.851900
H901	H90	0.652100	0.855600	0.892200
C1601	C160	0.005100	0.214800	0.156900
H911	H91	0.139200	0.172900	0.145900
C1611	C161	0.950400	0.272100	0.066700
H921	H92	0.046300	0.268500	0.996000
C1621	C162	0.849100	0.444500	0.291300
C1631	C163	0.762600	0.942500	0.382000
C1641	C164	0.908500	0.724900	0.182200
H931	H93	0.422100	0.002000	0.792800
C1651	C165	0.472200	0.882400	0.822300
H941	H94	0.540600	0.775900	0.859100
C1661	C166	0.935600	0.251600	0.126900
H951	H95	0.996000	0.201800	0.197600
H961	H96	0.902800	0.298400	0.046400
C1671	C167	0.404100	0.832000	0.795600
C1681	C168	0.841200	0.270900	0.157900
