data_VUKTUS_clean_PM
_symmetry_space_group_name_H-M	'P1'
_cell_length_a	15.189000
_cell_length_b	15.232000
_cell_length_c	23.855000
_cell_angle_alpha	85.890000
_cell_angle_beta	79.971000
_cell_angle_gamma	86.842000
_symmetry_Int_Tables_number 1

loop_
_symmetry_equiv_pos_as_xyz
'x,y,z'

loop_
_atom_site_label
_atom_site_type_symbol
_atom_site_fract_x
_atom_site_fract_y
_atom_site_fract_z
C11	C1	0.500600	0.010000	0.776100
C21	C2	0.599800	0.990500	0.751900
C31	C3	0.623300	0.939000	0.706700
H11	H1	0.579900	0.910400	0.692800
C41	C4	0.712100	0.929900	0.681900
H21	H2	0.727400	0.895600	0.650600
C51	C5	0.778900	0.969800	0.701700
C61	C6	0.755700	0.018000	0.749600
H31	H3	0.800100	0.041100	0.765700
C71	C7	0.665900	0.032000	0.773700
H41	H4	0.650000	0.068500	0.803900
C81	C8	0.931100	0.008400	0.690100
C91	C9	0.999100	0.967500	0.709400
H51	H5	0.001200	0.906400	0.715200
C101	C10	0.066400	0.014900	0.720700
H61	H6	0.114300	0.984700	0.734100
C111	C11	0.067200	0.103200	0.713500
C121	C12	0.995100	0.143700	0.692100
H71	H7	0.992800	0.204600	0.685400
C131	C13	0.927900	0.097100	0.680600
H81	H8	0.880000	0.125600	0.666300
C141	C14	0.137900	0.154300	0.730200
C151	C15	0.325900	0.976100	0.680900
C161	C16	0.323000	0.931600	0.627900
C171	C17	0.270900	0.862900	0.628700
H91	H9	0.238500	0.841200	0.663200
C181	C18	0.264900	0.824800	0.580000
H101	H10	0.227100	0.778500	0.581000
C191	C19	0.314400	0.854400	0.529500
C201	C20	0.366000	0.920700	0.525700
H111	H11	0.397300	0.941200	0.490600
C211	C21	0.373500	0.960300	0.575500
H121	H12	0.412300	0.005900	0.573900
C221	C22	0.379700	0.799500	0.442500
C231	C23	0.451200	0.747800	0.459800
H131	H13	0.447900	0.725000	0.497300
C241	C24	0.524600	0.732200	0.420400
H141	H14	0.571500	0.697200	0.431500
C251	C25	0.533500	0.765600	0.364500
C261	C26	0.462000	0.813100	0.350200
H151	H15	0.466200	0.835900	0.312700
C271	C27	0.381700	0.830900	0.387600
H161	H16	0.333200	0.862000	0.375600
C281	C28	0.618800	0.748100	0.325100
C291	C29	0.299300	0.939000	0.889500
C301	C30	0.266100	0.965200	0.948700
C311	C31	0.291500	0.914000	0.993000
H171	H17	0.326300	0.862500	0.985900
C321	C32	0.265100	0.938800	0.048900
H181	H18	0.282300	0.904100	0.079100
C331	C33	0.213300	0.015300	0.058900
C341	C34	0.187100	0.067000	0.015300
H191	H19	0.153300	0.119000	0.022500
C351	C35	0.212100	0.040700	0.959200
H201	H20	0.192400	0.074000	0.929100
C361	C36	0.109400	0.081600	0.131300
C371	C37	0.032200	0.043900	0.127900
H211	H21	0.032700	0.989200	0.112800
C381	C38	0.950800	0.089600	0.147800
H221	H22	0.897000	0.065500	0.144900
C391	C39	0.949900	0.169000	0.171200
C401	C40	0.030700	0.204700	0.172900
H231	H23	0.031400	0.258900	0.188500
C411	C41	0.109900	0.161700	0.152200
H241	H24	0.163900	0.187600	0.152400
C421	C42	0.863300	0.212800	0.196800
C431	C43	0.274900	0.655700	0.877600
C441	C44	0.296700	0.666600	0.934700
C451	C45	0.229000	0.666300	0.981700
H251	H25	0.170200	0.659600	0.977200
C461	C46	0.248500	0.675800	0.034200
H261	H26	0.203300	0.673700	0.066000
C471	C47	0.334400	0.688400	0.040700
C481	C48	0.405900	0.689200	0.995400
H271	H27	0.464400	0.695600	0.000800
C491	C49	0.385000	0.679900	0.942000
H281	H28	0.430200	0.682600	0.910200
C501	C50	0.418800	0.668800	0.117800
C511	C51	0.449600	0.585400	0.108700
H291	H29	0.426600	0.552600	0.083600
C521	C52	0.515900	0.549700	0.137400
H301	H30	0.536800	0.491700	0.132200
C531	C53	0.552600	0.599900	0.174700
C541	C54	0.520300	0.686000	0.179800
H311	H31	0.545100	0.720900	0.202900
C551	C55	0.454300	0.722200	0.152900
H321	H32	0.433400	0.780200	0.157600
C561	C56	0.627300	0.562000	0.205000
C571	C57	0.235100	0.561900	0.657800
C581	C58	0.259800	0.550500	0.594600
C591	C59	0.327800	0.492300	0.573800
H331	H33	0.358300	0.458800	0.599000
C601	C60	0.351400	0.482600	0.516600
H341	H34	0.399400	0.445000	0.503000
C611	C61	0.304100	0.528400	0.479500
C621	C62	0.234700	0.587400	0.497900
H351	H35	0.203100	0.619400	0.472600
C631	C63	0.214600	0.596300	0.556500
H361	H36	0.168000	0.635400	0.570400
C641	C64	0.382200	0.458200	0.398500
C651	C65	0.370600	0.368900	0.401400
H371	H37	0.318600	0.346500	0.422900
C661	C66	0.433500	0.312600	0.373600
H381	H38	0.423600	0.252600	0.376300
C671	C67	0.510400	0.342800	0.342000
C681	C68	0.524900	0.429900	0.337500
H391	H39	0.576900	0.451500	0.315600
C691	C69	0.458200	0.488300	0.367200
H401	H40	0.467700	0.548300	0.364700
C701	C70	0.573600	0.282300	0.307200
C711	C71	0.064700	0.460900	0.796300
C721	C72	0.985900	0.495400	0.835100
C731	C73	0.902500	0.468300	0.830600
H411	H41	0.896900	0.429400	0.803200
C741	C74	0.828600	0.497800	0.865700
H421	H42	0.772700	0.479100	0.862000
C751	C75	0.835200	0.556000	0.907400
C761	C76	0.918100	0.585200	0.911700
H431	H43	0.923400	0.624700	0.938700
C771	C77	0.992400	0.555400	0.875700
H441	H44	0.048200	0.575600	0.878300
C781	C78	0.751900	0.621900	0.991400
C791	C79	0.709200	0.700500	0.999400
H451	H45	0.681000	0.728600	0.971000
C801	C80	0.707500	0.739400	0.050200
H461	H46	0.677100	0.793600	0.056000
C811	C81	0.749900	0.699300	0.092100
C821	C82	0.789300	0.617200	0.084000
H471	H47	0.815500	0.587800	0.112900
C831	C83	0.790600	0.576900	0.033300
H481	H48	0.817100	0.520900	0.028000
C841	C84	0.752000	0.743500	0.147200
Dy11	Dy1	0.327040	0.087120	0.776150
Dy21	Dy2	0.356130	0.831290	0.787880
Dy31	Dy3	0.240100	0.607430	0.770000
Dy41	Dy4	0.213940	0.360150	0.731250
O11	O1	0.476300	0.082300	0.798500
O21	O2	0.442800	0.956300	0.769600
O31	O3	0.864700	0.958100	0.676300
O41	O4	0.141100	0.235000	0.713800
O51	O5	0.191500	0.112900	0.759400
O61	O6	0.358500	0.050400	0.678700
O71	O7	0.294500	0.938500	0.729200
O81	O8	0.303800	0.816500	0.480800
O91	O9	0.628400	0.787700	0.275500
O101	O10	0.676500	0.692100	0.340200
O111	O11	0.278000	0.989700	0.849000
O121	O12	0.343500	0.868100	0.881300
O131	O13	0.191800	0.040300	0.114500
O141	O14	0.867900	0.284000	0.218600
O151	O15	0.794200	0.175400	0.191200
O161	O16	0.324200	0.691500	0.833300
O171	O17	0.209000	0.614200	0.871700
O181	O18	0.346000	0.707900	0.094500
O191	O19	0.659900	0.611400	0.234400
O201	O20	0.649400	0.482600	0.200800
O211	O21	0.189900	0.627900	0.675500
O221	O22	0.265500	0.503000	0.691700
O231	O23	0.319800	0.521600	0.421300
O241	O24	0.649300	0.307900	0.283000
O251	O25	0.552600	0.206700	0.300900
O261	O26	0.141100	0.495300	0.794800
O271	O27	0.060200	0.396600	0.769300
O281	O28	0.752400	0.585200	0.939000
O291	O29	0.798700	0.709300	0.179900
O301	O30	0.706300	0.814800	0.153900
C851	C85	0.499400	0.990000	0.223900
C861	C86	0.400200	0.009500	0.248100
C871	C87	0.376700	0.061000	0.293300
H491	H49	0.420100	0.089600	0.307200
C881	C88	0.287900	0.070100	0.318100
H501	H50	0.272600	0.104400	0.349400
C891	C89	0.221100	0.030200	0.298300
C901	C90	0.244300	0.982000	0.250400
H511	H51	0.199900	0.958900	0.234300
C911	C91	0.334100	0.968000	0.226300
H521	H52	0.350000	0.931500	0.196100
C921	C92	0.068900	0.991600	0.309900
C931	C93	0.000900	0.032500	0.290600
H531	H53	0.998800	0.093600	0.284800
C941	C94	0.933600	0.985100	0.279300
H541	H54	0.885700	0.015300	0.265900
C951	C95	0.932800	0.896800	0.286500
C961	C96	0.004900	0.856300	0.307900
H551	H55	0.007200	0.795400	0.314600
C971	C97	0.072100	0.902900	0.319400
H561	H56	0.120000	0.874400	0.333700
C981	C98	0.862100	0.845700	0.269800
C991	C99	0.674100	0.023900	0.319100
C1001	C100	0.677000	0.068400	0.372100
C1011	C101	0.729100	0.137100	0.371300
H571	H57	0.761500	0.158800	0.336800
C1021	C102	0.735100	0.175200	0.420000
H581	H58	0.772900	0.221500	0.419000
C1031	C103	0.685600	0.145600	0.470500
C1041	C104	0.634000	0.079300	0.474300
H591	H59	0.602700	0.058800	0.509400
C1051	C105	0.626500	0.039700	0.424500
H601	H60	0.587700	0.994100	0.426100
C1061	C106	0.620300	0.200500	0.557500
C1071	C107	0.548800	0.252200	0.540200
H611	H61	0.552100	0.275000	0.502700
C1081	C108	0.475400	0.267800	0.579600
H621	H62	0.428500	0.302800	0.568500
C1091	C109	0.466500	0.234400	0.635500
C1101	C110	0.538000	0.186900	0.649800
H631	H63	0.533800	0.164100	0.687300
C1111	C111	0.618300	0.169100	0.612400
H641	H64	0.666800	0.138000	0.624400
C1121	C112	0.381200	0.251900	0.674900
C1131	C113	0.700700	0.061000	0.110500
C1141	C114	0.733900	0.034800	0.051300
C1151	C115	0.708500	0.086000	0.007000
H651	H65	0.673700	0.137500	0.014100
C1161	C116	0.734900	0.061200	0.951100
H661	H66	0.717700	0.095900	0.920900
C1171	C117	0.786700	0.984700	0.941100
C1181	C118	0.812900	0.933000	0.984700
H671	H67	0.846700	0.881000	0.977500
C1191	C119	0.787900	0.959300	0.040800
H681	H68	0.807600	0.926000	0.070900
C1201	C120	0.890600	0.918400	0.868700
C1211	C121	0.967800	0.956100	0.872100
H691	H69	0.967300	0.010800	0.887200
C1221	C122	0.049200	0.910400	0.852200
H701	H70	0.103000	0.934500	0.855100
C1231	C123	0.050100	0.831000	0.828800
C1241	C124	0.969300	0.795300	0.827100
H711	H71	0.968600	0.741100	0.811500
C1251	C125	0.890100	0.838300	0.847800
H721	H72	0.836100	0.812400	0.847600
C1261	C126	0.136700	0.787200	0.803200
C1271	C127	0.725100	0.344300	0.122400
C1281	C128	0.703300	0.333400	0.065300
C1291	C129	0.771000	0.333700	0.018300
H731	H73	0.829800	0.340400	0.022800
C1301	C130	0.751500	0.324200	0.965800
H741	H74	0.796700	0.326300	0.934000
C1311	C131	0.665600	0.311600	0.959300
C1321	C132	0.594100	0.310800	0.004600
H751	H75	0.535600	0.304400	0.999200
C1331	C133	0.615000	0.320100	0.058000
H761	H76	0.569800	0.317400	0.089800
C1341	C134	0.581200	0.331200	0.882200
C1351	C135	0.550400	0.414600	0.891300
H771	H77	0.573400	0.447400	0.916400
C1361	C136	0.484100	0.450300	0.862600
H781	H78	0.463200	0.508300	0.867800
C1371	C137	0.447400	0.400100	0.825300
C1381	C138	0.479700	0.314000	0.820200
H791	H79	0.454900	0.279100	0.797100
C1391	C139	0.545700	0.277800	0.847100
H801	H80	0.566600	0.219800	0.842400
C1401	C140	0.372700	0.438000	0.795000
C1411	C141	0.764900	0.438100	0.342200
C1421	C142	0.740200	0.449500	0.405400
C1431	C143	0.672200	0.507700	0.426200
H811	H81	0.641700	0.541200	0.401000
C1441	C144	0.648600	0.517400	0.483400
H821	H82	0.600600	0.555000	0.497000
C1451	C145	0.695900	0.471600	0.520500
C1461	C146	0.765300	0.412600	0.502100
H831	H83	0.796900	0.380600	0.527400
C1471	C147	0.785400	0.403700	0.443500
H841	H84	0.832000	0.364600	0.429600
C1481	C148	0.617800	0.541800	0.601500
C1491	C149	0.629400	0.631100	0.598600
H851	H85	0.681400	0.653500	0.577100
C1501	C150	0.566500	0.687400	0.626400
H861	H86	0.576400	0.747400	0.623700
C1511	C151	0.489600	0.657200	0.658000
C1521	C152	0.475100	0.570100	0.662500
H871	H87	0.423100	0.548500	0.684400
C1531	C153	0.541800	0.511700	0.632800
H881	H88	0.532300	0.451700	0.635300
C1541	C154	0.426400	0.717700	0.692800
C1551	C155	0.935300	0.539100	0.203700
C1561	C156	0.014100	0.504600	0.164900
C1571	C157	0.097500	0.531700	0.169400
H891	H89	0.103100	0.570600	0.196800
C1581	C158	0.171400	0.502200	0.134300
H901	H90	0.227300	0.520900	0.138000
C1591	C159	0.164800	0.444000	0.092600
C1601	C160	0.081900	0.414800	0.088300
H911	H91	0.076600	0.375300	0.061300
C1611	C161	0.007600	0.444600	0.124300
H921	H92	0.951800	0.424400	0.121700
C1621	C162	0.248100	0.378100	0.008600
C1631	C163	0.290800	0.299500	0.000600
H931	H93	0.319000	0.271400	0.029000
C1641	C164	0.292500	0.260600	0.949800
H941	H94	0.322900	0.206400	0.944000
C1651	C165	0.250100	0.300700	0.907900
C1661	C166	0.210700	0.382800	0.916000
H951	H95	0.184500	0.412200	0.887100
C1671	C167	0.209400	0.423100	0.966700
H961	H96	0.182900	0.479100	0.972000
C1681	C168	0.248000	0.256500	0.852800
Dy51	Dy5	0.672960	0.912880	0.223850
Dy61	Dy6	0.643870	0.168710	0.212120
Dy71	Dy7	0.759900	0.392570	0.230000
Dy81	Dy8	0.786060	0.639850	0.268750
O311	O31	0.523700	0.917700	0.201500
O321	O32	0.557200	0.043700	0.230400
O331	O33	0.135300	0.041900	0.323700
O341	O34	0.858900	0.765000	0.286200
O351	O35	0.808500	0.887100	0.240600
O361	O36	0.641500	0.949600	0.321300
O371	O37	0.705500	0.061500	0.270800
O381	O38	0.696200	0.183500	0.519200
O391	O39	0.371600	0.212300	0.724500
O401	O40	0.323500	0.307900	0.659800
O411	O41	0.722000	0.010300	0.151000
O421	O42	0.656500	0.131900	0.118700
O431	O43	0.808200	0.959700	0.885500
O441	O44	0.132100	0.716000	0.781400
O451	O45	0.205800	0.824600	0.808800
O461	O46	0.675800	0.308500	0.166700
O471	O47	0.791000	0.385800	0.128300
O481	O48	0.654000	0.292100	0.905500
O491	O49	0.340100	0.388600	0.765600
O501	O50	0.350600	0.517400	0.799200
O511	O51	0.810100	0.372100	0.324500
O521	O52	0.734500	0.497000	0.308300
O531	O53	0.680200	0.478400	0.578700
O541	O54	0.350700	0.692100	0.717000
O551	O55	0.447400	0.793300	0.699100
O561	O56	0.858900	0.504700	0.205200
O571	O57	0.939800	0.603400	0.230700
O581	O58	0.247600	0.414800	0.061000
O591	O59	0.201300	0.290700	0.820100
O601	O60	0.293700	0.185200	0.846100
