data_VULFIT_clean_PM
_symmetry_space_group_name_H-M	'P1'
_cell_length_a	13.549700
_cell_length_b	10.856700
_cell_length_c	14.626300
_cell_angle_alpha	90.000000
_cell_angle_beta	109.784000
_cell_angle_gamma	90.000000
_symmetry_Int_Tables_number 1

loop_
_symmetry_equiv_pos_as_xyz
'x,y,z'

loop_
_atom_site_label
_atom_site_type_symbol
_atom_site_fract_x
_atom_site_fract_y
_atom_site_fract_z
Co11	Co1	0.403600	0.915090	0.457130
Co21	Co2	0.504780	0.021440	0.294750
O11	O1	0.296800	0.037940	0.369460
O21	O2	0.391200	0.147300	0.299330
O31	O3	0.379940	0.420220	0.235120
O41	O4	0.317400	0.287500	0.112410
O51	O5	0.633070	0.284090	0.154890
O61	O6	0.627770	0.405620	0.277210
O71	O7	0.616490	0.161220	0.348140
O81	O8	0.714990	0.153990	0.504530
O91	O9	0.538400	0.956380	0.433310
C11	C1	0.310330	0.126970	0.321110
C21	C2	0.222120	0.217740	0.285230
C31	C3	0.136320	0.204160	0.316350
H11	H1	0.135500	0.138600	0.357000
C41	C4	0.051650	0.285360	0.288740
C51	C5	0.055250	0.382630	0.228080
H21	H2	0.000000	0.438500	0.208700
C61	C6	0.139600	0.397700	0.196140
H31	H3	0.140000	0.463400	0.155400
C71	C7	0.224580	0.315680	0.224060
C81	C8	0.315660	0.340980	0.187940
C91	C9	0.962490	0.266430	0.325670
C101	C10	0.860470	0.300920	0.269570
H41	H4	0.848400	0.339400	0.210000
C111	C11	0.777050	0.278240	0.301990
C121	C12	0.793180	0.216860	0.390360
C131	C13	0.895140	0.185740	0.447220
H51	H5	0.907300	0.148000	0.507100
C141	C14	0.979010	0.210360	0.415740
H61	H6	0.046700	0.189400	0.454900
C151	C15	0.669190	0.324070	0.240380
C161	C16	0.700950	0.174880	0.416920
H71	H7	0.585200	0.897700	0.441800
Co31	Co3	0.596400	0.415090	0.042870
Co41	Co4	0.495220	0.521440	0.205250
O101	O10	0.703200	0.537940	0.130540
O111	O11	0.608800	0.647300	0.200670
O121	O12	0.620060	0.920220	0.264880
O131	O13	0.682600	0.787500	0.387590
O141	O14	0.366930	0.784090	0.345110
O151	O15	0.372230	0.905620	0.222790
O161	O16	0.383510	0.661220	0.151860
O171	O17	0.285010	0.653990	0.995470
O181	O18	0.461600	0.456380	0.066690
C171	C17	0.689670	0.626970	0.178890
C181	C18	0.777880	0.717740	0.214770
C191	C19	0.863680	0.704160	0.183650
H81	H8	0.864500	0.638600	0.143000
C201	C20	0.948350	0.785360	0.211260
C211	C21	0.944750	0.882630	0.271920
H91	H9	0.000000	0.938500	0.291300
C221	C22	0.860400	0.897700	0.303860
H101	H10	0.860000	0.963400	0.344600
C231	C23	0.775420	0.815680	0.275940
C241	C24	0.684340	0.840980	0.312060
C251	C25	0.037510	0.766430	0.174330
C261	C26	0.139530	0.800920	0.230430
H111	H11	0.151600	0.839400	0.290000
C271	C27	0.222950	0.778240	0.198010
C281	C28	0.206820	0.716860	0.109640
C291	C29	0.104860	0.685740	0.052780
H121	H12	0.092700	0.648000	0.992900
C301	C30	0.020990	0.710360	0.084260
H131	H13	0.953300	0.689400	0.045100
C311	C31	0.330810	0.824070	0.259620
C321	C32	0.299050	0.674880	0.083080
H141	H14	0.414800	0.397700	0.058200
Co51	Co5	0.596400	0.084910	0.542870
Co61	Co6	0.495220	0.978560	0.705250
O191	O19	0.703200	0.962060	0.630540
O201	O20	0.608800	0.852700	0.700670
O211	O21	0.620060	0.579780	0.764880
O221	O22	0.682600	0.712500	0.887590
O231	O23	0.366930	0.715910	0.845110
O241	O24	0.372230	0.594380	0.722790
O251	O25	0.383510	0.838780	0.651860
O261	O26	0.285010	0.846010	0.495470
O271	O27	0.461600	0.043620	0.566690
C331	C33	0.689670	0.873030	0.678890
C341	C34	0.777880	0.782260	0.714770
C351	C35	0.863680	0.795840	0.683650
H151	H15	0.864500	0.861400	0.643000
C361	C36	0.948350	0.714640	0.711260
C371	C37	0.944750	0.617370	0.771920
H161	H16	0.000000	0.561500	0.791300
C381	C38	0.860400	0.602300	0.803860
H171	H17	0.860000	0.536600	0.844600
C391	C39	0.775420	0.684320	0.775940
C401	C40	0.684340	0.659020	0.812060
C411	C41	0.037510	0.733570	0.674330
C421	C42	0.139530	0.699080	0.730430
H181	H18	0.151600	0.660600	0.790000
C431	C43	0.222950	0.721760	0.698010
C441	C44	0.206820	0.783140	0.609640
C451	C45	0.104860	0.814260	0.552780
H191	H19	0.092700	0.852000	0.492900
C461	C46	0.020990	0.789640	0.584260
H201	H20	0.953300	0.810600	0.545100
C471	C47	0.330810	0.675930	0.759620
C481	C48	0.299050	0.825120	0.583080
H211	H21	0.414800	0.102300	0.558200
Co71	Co7	0.403600	0.584910	0.957130
Co81	Co8	0.504780	0.478560	0.794750
O281	O28	0.296800	0.462060	0.869460
O291	O29	0.391200	0.352700	0.799330
O301	O30	0.379940	0.079780	0.735120
O311	O31	0.317400	0.212500	0.612410
O321	O32	0.633070	0.215910	0.654890
O331	O33	0.627770	0.094380	0.777210
O341	O34	0.616490	0.338780	0.848140
O351	O35	0.714990	0.346010	0.004530
O361	O36	0.538400	0.543620	0.933310
C491	C49	0.310330	0.373030	0.821110
C501	C50	0.222120	0.282260	0.785230
C511	C51	0.136320	0.295840	0.816350
H221	H22	0.135500	0.361400	0.857000
C521	C52	0.051650	0.214640	0.788740
C531	C53	0.055250	0.117370	0.728080
H231	H23	0.000000	0.061500	0.708700
C541	C54	0.139600	0.102300	0.696140
H241	H24	0.140000	0.036600	0.655400
C551	C55	0.224580	0.184320	0.724060
C561	C56	0.315660	0.159020	0.687940
C571	C57	0.962490	0.233570	0.825670
C581	C58	0.860470	0.199080	0.769570
H251	H25	0.848400	0.160600	0.710000
C591	C59	0.777050	0.221760	0.801990
C601	C60	0.793180	0.283140	0.890360
C611	C61	0.895140	0.314260	0.947220
H261	H26	0.907300	0.352000	0.007100
C621	C62	0.979010	0.289640	0.915740
H271	H27	0.046700	0.310600	0.954900
C631	C63	0.669190	0.175930	0.740380
C641	C64	0.700950	0.325120	0.916920
H281	H28	0.585200	0.602300	0.941800
