data_VUMCEM_clean_PM
_symmetry_space_group_name_H-M	'P1'
_cell_length_a	8.096000
_cell_length_b	21.507000
_cell_length_c	13.935000
_cell_angle_alpha	90.000000
_cell_angle_beta	111.810000
_cell_angle_gamma	90.000000
_symmetry_Int_Tables_number 1

loop_
_symmetry_equiv_pos_as_xyz
'x,y,z'

loop_
_atom_site_label
_atom_site_type_symbol
_atom_site_fract_x
_atom_site_fract_y
_atom_site_fract_z
N11	N1	0.760400	0.545060	0.399940
N21	N2	0.573200	0.612580	0.296650
N31	N3	0.946000	0.528620	0.636240
N41	N4	0.935600	0.531080	0.792800
N51	N5	0.148600	0.915600	0.010080
N61	N6	0.306200	0.830740	0.072220
C11	C1	0.741100	0.601950	0.363500
H11	H1	0.831700	0.631400	0.381400
C21	C2	0.594000	0.517800	0.354700
H21	H2	0.566000	0.477300	0.366700
C31	C3	0.478800	0.558660	0.290600
H31	H3	0.359600	0.551700	0.250500
C41	C4	0.506200	0.669290	0.242000
C51	C5	0.334800	0.688280	0.226500
H41	H4	0.264500	0.664900	0.252700
C61	C6	0.613400	0.703850	0.204500
H51	H5	0.728000	0.690500	0.214800
C71	C7	0.548100	0.758500	0.151600
H61	H6	0.619900	0.782900	0.127800
C81	C8	0.011600	0.505260	0.730510
H71	H7	0.099300	0.474800	0.751600
C91	C9	0.822400	0.572310	0.638900
H81	H8	0.753800	0.596600	0.583100
C101	C10	0.815600	0.574690	0.734100
H91	H9	0.744300	0.600600	0.755800
C111	C11	0.969000	0.515180	0.898570
C121	C12	0.025300	0.455640	0.934400
H101	H10	0.041900	0.426100	0.890100
C131	C13	0.943100	0.559640	0.963700
H111	H11	0.904900	0.599400	0.939200
C141	C14	0.184900	0.871450	0.080600
H121	H12	0.133400	0.868600	0.130000
C151	C15	0.253300	0.902060	0.953800
H131	H13	0.256500	0.925400	0.898300
C161	C16	0.350300	0.850230	0.990400
H141	H14	0.430200	0.831500	0.965700
C171	C17	0.375700	0.776660	0.134200
C181	C18	0.268700	0.742330	0.171500
H151	H15	0.153300	0.755300	0.159900
N71	N7	0.239600	0.045060	0.100060
N81	N8	0.426800	0.112580	0.203350
N91	N9	0.054000	0.028620	0.863760
N101	N10	0.064400	0.031080	0.707200
N111	N11	0.851400	0.415600	0.489920
N121	N12	0.693800	0.330740	0.427780
C191	C19	0.258900	0.101950	0.136500
H161	H16	0.168300	0.131400	0.118600
C201	C20	0.406000	0.017800	0.145300
H171	H17	0.434000	0.977300	0.133300
C211	C21	0.521200	0.058660	0.209400
H181	H18	0.640400	0.051700	0.249500
C221	C22	0.493800	0.169290	0.258000
C231	C23	0.665200	0.188280	0.273500
H191	H19	0.735500	0.164900	0.247300
C241	C24	0.386600	0.203850	0.295500
H201	H20	0.272000	0.190500	0.285200
C251	C25	0.451900	0.258500	0.348400
H211	H21	0.380100	0.282900	0.372200
C261	C26	0.988400	0.005260	0.769490
H221	H22	0.900700	0.974800	0.748400
C271	C27	0.177600	0.072310	0.861100
H231	H23	0.246200	0.096600	0.916900
C281	C28	0.184400	0.074690	0.765900
H241	H24	0.255700	0.100600	0.744200
C291	C29	0.031000	0.015180	0.601430
C301	C30	0.974700	0.955640	0.565600
H251	H25	0.958100	0.926100	0.609900
C311	C31	0.056900	0.059640	0.536300
H261	H26	0.095100	0.099400	0.560800
C321	C32	0.815100	0.371450	0.419400
H271	H27	0.866600	0.368600	0.370000
C331	C33	0.746700	0.402060	0.546200
H281	H28	0.743500	0.425400	0.601700
C341	C34	0.649700	0.350230	0.509600
H291	H29	0.569800	0.331500	0.534300
C351	C35	0.624300	0.276660	0.365800
C361	C36	0.731300	0.242330	0.328500
H301	H30	0.846700	0.255300	0.340100
N131	N13	0.239600	0.454940	0.600060
N141	N14	0.426800	0.387420	0.703350
N151	N15	0.054000	0.471380	0.363760
N161	N16	0.064400	0.468920	0.207200
N171	N17	0.851400	0.084400	0.989920
N181	N18	0.693800	0.169260	0.927780
C371	C37	0.258900	0.398050	0.636500
H311	H31	0.168300	0.368600	0.618600
C381	C38	0.406000	0.482200	0.645300
H321	H32	0.434000	0.522700	0.633300
C391	C39	0.521200	0.441340	0.709400
H331	H33	0.640400	0.448300	0.749500
C401	C40	0.493800	0.330710	0.758000
C411	C41	0.665200	0.311720	0.773500
H341	H34	0.735500	0.335100	0.747300
C421	C42	0.386600	0.296150	0.795500
H351	H35	0.272000	0.309500	0.785200
C431	C43	0.451900	0.241500	0.848400
H361	H36	0.380100	0.217100	0.872200
C441	C44	0.988400	0.494740	0.269490
H371	H37	0.900700	0.525200	0.248400
C451	C45	0.177600	0.427690	0.361100
H381	H38	0.246200	0.403400	0.416900
C461	C46	0.184400	0.425310	0.265900
H391	H39	0.255700	0.399400	0.244200
C471	C47	0.031000	0.484820	0.101430
C481	C48	0.974700	0.544360	0.065600
H401	H40	0.958100	0.573900	0.109900
C491	C49	0.056900	0.440360	0.036300
H411	H41	0.095100	0.400600	0.060800
C501	C50	0.815100	0.128550	0.919400
H421	H42	0.866600	0.131400	0.870000
C511	C51	0.746700	0.097940	0.046200
H431	H43	0.743500	0.074600	0.101700
C521	C52	0.649700	0.149770	0.009600
H441	H44	0.569800	0.168500	0.034300
C531	C53	0.624300	0.223340	0.865800
C541	C54	0.731300	0.257670	0.828500
H451	H45	0.846700	0.244700	0.840100
N191	N19	0.760400	0.954940	0.899940
N201	N20	0.573200	0.887420	0.796650
N211	N21	0.946000	0.971380	0.136240
N221	N22	0.935600	0.968920	0.292800
N231	N23	0.148600	0.584400	0.510080
N241	N24	0.306200	0.669260	0.572220
C551	C55	0.741100	0.898050	0.863500
H461	H46	0.831700	0.868600	0.881400
C561	C56	0.594000	0.982200	0.854700
H471	H47	0.566000	0.022700	0.866700
C571	C57	0.478800	0.941340	0.790600
H481	H48	0.359600	0.948300	0.750500
C581	C58	0.506200	0.830710	0.742000
C591	C59	0.334800	0.811720	0.726500
H491	H49	0.264500	0.835100	0.752700
C601	C60	0.613400	0.796150	0.704500
H501	H50	0.728000	0.809500	0.714800
C611	C61	0.548100	0.741500	0.651600
H511	H51	0.619900	0.717100	0.627800
C621	C62	0.011600	0.994740	0.230510
H521	H52	0.099300	0.025200	0.251600
C631	C63	0.822400	0.927690	0.138900
H531	H53	0.753800	0.903400	0.083100
C641	C64	0.815600	0.925310	0.234100
H541	H54	0.744300	0.899400	0.255800
C651	C65	0.969000	0.984820	0.398570
C661	C66	0.025300	0.044360	0.434400
H551	H55	0.041900	0.073900	0.390100
C671	C67	0.943100	0.940360	0.463700
H561	H56	0.904900	0.900600	0.439200
C681	C68	0.184900	0.628550	0.580600
H571	H57	0.133400	0.631400	0.630000
C691	C69	0.253300	0.597940	0.453800
H581	H58	0.256500	0.574600	0.398300
C701	C70	0.350300	0.649770	0.490400
H591	H59	0.430200	0.668500	0.465700
C711	C71	0.375700	0.723340	0.634200
C721	C72	0.268700	0.757670	0.671500
H601	H60	0.153300	0.744700	0.659900
Co11	Co1	0.000000	0.500000	0.500000
Co21	Co2	0.000000	0.000000	0.000000
