data_VUMYUZ_clean_PM
_symmetry_space_group_name_H-M	'P1'
_cell_length_a	24.980000
_cell_length_b	19.327000
_cell_length_c	21.407000
_cell_angle_alpha	90.000000
_cell_angle_beta	96.019000
_cell_angle_gamma	90.000000
_symmetry_Int_Tables_number 1

loop_
_symmetry_equiv_pos_as_xyz
'x,y,z'

loop_
_atom_site_label
_atom_site_type_symbol
_atom_site_fract_x
_atom_site_fract_y
_atom_site_fract_z
Ag11	Ag1	0.989430	0.206350	0.276450
Ag21	Ag2	0.058970	0.518420	0.234510
Ag31	Ag3	0.733340	0.328360	0.925300
Ag41	Ag4	0.593440	0.218580	0.874760
Ag51	Ag5	0.537190	0.286860	0.715460
Ag61	Ag6	0.553250	0.481020	0.730530
Ag71	Ag7	0.491250	0.567150	0.566020
Ag81	Ag8	0.194520	0.712680	0.448010
Ag91	Ag9	0.921690	0.292050	0.122490
C11	C1	0.514000	0.633600	0.763800
C21	C2	0.532800	0.625900	0.829600
C31	C3	0.558700	0.680300	0.862100
H11	H1	0.562700	0.721900	0.841200
C41	C4	0.578600	0.674700	0.924400
C51	C5	0.571100	0.613300	0.954400
H21	H2	0.585400	0.608200	0.996000
C61	C6	0.543100	0.559000	0.925300
H31	H3	0.537000	0.518900	0.947500
C71	C7	0.524100	0.564900	0.862300
H41	H4	0.505600	0.528300	0.841800
C81	C8	0.609100	0.734100	0.957600
H51	H5	0.620100	0.721300	0.000300
H61	H6	0.586200	0.774000	0.956900
H71	H7	0.640200	0.744500	0.936600
C91	C9	0.529900	0.343500	0.567000
C101	C10	0.539100	0.276900	0.537800
C111	C11	0.576600	0.231900	0.567500
H81	H8	0.594600	0.243300	0.606300
C121	C12	0.587500	0.168300	0.538200
H91	H9	0.613700	0.138800	0.557100
C131	C13	0.560100	0.150500	0.483500
H101	H10	0.567300	0.108200	0.465500
C141	C14	0.521400	0.193200	0.453100
C151	C15	0.511500	0.257100	0.480500
H111	H11	0.486100	0.286900	0.460200
C161	C16	0.486200	0.169100	0.395000
H121	H12	0.498400	0.124700	0.382300
H131	H13	0.488400	0.201800	0.361700
H141	H14	0.449600	0.165600	0.404400
C171	C17	0.641300	0.425500	0.847200
C181	C18	0.665000	0.490400	0.873200
C191	C19	0.664300	0.548900	0.834700
H151	H15	0.647500	0.547100	0.793800
C201	C20	0.689000	0.610700	0.857900
C211	C21	0.711800	0.610200	0.919800
H161	H16	0.728000	0.650400	0.936500
C221	C22	0.711600	0.553000	0.957200
H171	H17	0.727200	0.555100	0.998600
C231	C23	0.688700	0.493100	0.934600
H181	H18	0.688900	0.454100	0.960100
C241	C24	0.687200	0.671400	0.814300
H191	H19	0.704700	0.710200	0.835700
H201	H20	0.650400	0.683000	0.800900
H211	H21	0.705400	0.659900	0.778400
C251	C25	0.849200	0.403700	0.964800
C261	C26	0.844300	0.460800	0.920200
C271	C27	0.859700	0.530600	0.938100
H221	H22	0.874100	0.538800	0.979300
C281	C28	0.854200	0.584200	0.898200
C291	C29	0.834100	0.569500	0.836000
H231	H23	0.829200	0.605200	0.806800
C301	C30	0.821300	0.500800	0.817400
H241	H24	0.810900	0.490600	0.775400
C311	C31	0.824300	0.450300	0.860900
H251	H25	0.811800	0.406400	0.849100
C321	C32	0.867700	0.657500	0.916300
H261	H26	0.881400	0.659300	0.959900
H271	H27	0.835900	0.685500	0.909600
H281	H28	0.894400	0.674700	0.891200
C331	C33	0.032900	0.361400	0.257700
C341	C34	0.050000	0.369500	0.325400
C351	C35	0.034200	0.426000	0.357900
H291	H29	0.011100	0.458900	0.338100
C361	C36	0.053700	0.432900	0.421300
H301	H30	0.043900	0.471100	0.444000
C371	C37	0.086800	0.384400	0.449800
H311	H31	0.098700	0.389600	0.492200
C381	C38	0.102400	0.330300	0.419700
C391	C39	0.082200	0.320600	0.356500
H321	H32	0.090800	0.280500	0.335700
C401	C40	0.139300	0.278200	0.454800
H331	H33	0.148500	0.293800	0.497100
H341	H34	0.171500	0.273500	0.434300
H351	H35	0.121400	0.234300	0.455200
C411	C41	0.136800	0.592900	0.350400
C421	C42	0.167200	0.534800	0.380300
C431	C43	0.191100	0.539200	0.440400
H361	H36	0.185600	0.578100	0.464400
C441	C44	0.222800	0.487100	0.465500
H371	H37	0.239300	0.490600	0.506400
C451	C45	0.230500	0.428700	0.430100
H381	H38	0.252300	0.393200	0.447600
C461	C46	0.206900	0.422300	0.370100
C471	C47	0.175100	0.474400	0.346000
H391	H39	0.157900	0.470100	0.305500
C481	C48	0.217700	0.362000	0.331500
H401	H40	0.198100	0.366600	0.290700
H411	H41	0.206400	0.320700	0.351200
H421	H42	0.255500	0.359500	0.327300
C491	C49	0.682100	0.152400	0.042800
C501	C50	0.697300	0.128400	0.110100
C511	C51	0.726200	0.167900	0.156200
H431	H43	0.739000	0.211400	0.146300
C521	C52	0.736100	0.142600	0.217100
C531	C53	0.717100	0.077600	0.231800
H441	H44	0.723800	0.060600	0.272500
C541	C54	0.688200	0.038000	0.185700
H451	H45	0.675500	0.994600	0.195500
C551	C55	0.678300	0.063400	0.124800
H461	H46	0.659000	0.037000	0.093900
C561	C56	0.774900	0.193000	0.263100
H471	H47	0.780600	0.172900	0.304200
H481	H48	0.758100	0.237500	0.265600
H491	H49	0.808900	0.198400	0.246400
N11	N1	0.490000	0.689200	0.738200
N21	N2	0.478900	0.675200	0.676400
N31	N3	0.496800	0.614200	0.665000
N41	N4	0.518800	0.585400	0.719200
N51	N5	0.520200	0.403200	0.535200
N61	N6	0.517400	0.451300	0.581000
N71	N7	0.525700	0.422300	0.635400
N81	N8	0.533800	0.353500	0.629400
N91	N9	0.601600	0.417700	0.800800
N101	N10	0.594000	0.348900	0.793800
N111	N11	0.627700	0.315300	0.833700
N121	N12	0.658900	0.362000	0.868100
N131	N13	0.819500	0.348700	0.959900
N141	N14	0.838300	0.308300	0.007800
N151	N15	0.878300	0.340800	0.040000
N161	N16	0.886900	0.399500	0.014400
N171	N17	0.034200	0.410900	0.216400
N181	N18	0.014900	0.383000	0.161400
N191	N19	0.003500	0.318100	0.170200
N201	N20	0.014700	0.302200	0.232400
N211	N21	0.142800	0.656600	0.373800
N221	N22	0.109300	0.697100	0.335900
N231	N23	0.085400	0.658200	0.290800
N241	N24	0.102000	0.594100	0.299300
N251	N25	0.640400	0.148500	0.000300
N261	N26	0.648800	0.196400	0.958600
N271	N27	0.693500	0.226300	0.974900
N281	N28	0.716500	0.199200	0.028400
Ag101	Ag10	0.021150	0.936050	0.439580
C571	C57	0.985200	0.158300	0.425400
C581	C58	0.972300	0.228000	0.448700
C591	C59	0.995600	0.250200	0.507900
H501	H50	0.019800	0.222300	0.532300
C601	C60	0.981300	0.315600	0.529300
C611	C61	0.943300	0.353800	0.492200
H511	H51	0.933000	0.396700	0.506600
C621	C62	0.920100	0.330400	0.434400
H521	H52	0.895100	0.357300	0.410100
C631	C63	0.934500	0.267900	0.413900
H531	H53	0.918600	0.251400	0.375600
C641	C64	0.011200	0.342800	0.591200
H541	H54	0.997700	0.387800	0.600300
H551	H55	0.005600	0.311600	0.624800
H561	H56	0.049000	0.345900	0.586900
N291	N29	0.000400	0.103800	0.460800
N301	N30	0.005300	0.051400	0.418500
N311	N31	0.995300	0.075000	0.362500
N321	N32	0.983100	0.143400	0.364100
Ag111	Ag11	0.069280	0.979300	0.443270
Ag121	Ag12	0.970420	0.912800	0.436470
Ag131	Ag13	0.010570	0.706350	0.223550
Ag141	Ag14	0.941030	0.018420	0.265490
Ag151	Ag15	0.266660	0.828360	0.574700
Ag161	Ag16	0.406560	0.718580	0.625240
Ag171	Ag17	0.462810	0.786860	0.784540
Ag181	Ag18	0.446750	0.981020	0.769470
Ag191	Ag19	0.508750	0.067150	0.933980
Ag201	Ag20	0.805480	0.212680	0.051990
Ag211	Ag21	0.078310	0.792050	0.377510
C651	C65	0.486000	0.133600	0.736200
C661	C66	0.467200	0.125900	0.670400
C671	C67	0.441300	0.180300	0.637900
H571	H57	0.437300	0.221900	0.658800
C681	C68	0.421400	0.174700	0.575600
C691	C69	0.428900	0.113300	0.545600
H581	H58	0.414600	0.108200	0.504000
C701	C70	0.456900	0.059000	0.574700
H591	H59	0.463000	0.018900	0.552500
C711	C71	0.475900	0.064900	0.637700
H601	H60	0.494400	0.028300	0.658200
C721	C72	0.390900	0.234100	0.542400
H611	H61	0.379900	0.221300	0.499700
H621	H62	0.413800	0.274000	0.543100
H631	H63	0.359800	0.244500	0.563400
C731	C73	0.470100	0.843500	0.933000
C741	C74	0.460900	0.776900	0.962200
C751	C75	0.423400	0.731900	0.932500
H641	H64	0.405400	0.743300	0.893700
C761	C76	0.412500	0.668300	0.961800
H651	H65	0.386300	0.638800	0.942900
C771	C77	0.439900	0.650500	0.016500
H661	H66	0.432700	0.608200	0.034500
C781	C78	0.478600	0.693200	0.046900
C791	C79	0.488500	0.757100	0.019500
H671	H67	0.513900	0.786900	0.039800
C801	C80	0.513800	0.669100	0.105000
H681	H68	0.501600	0.624700	0.117700
H691	H69	0.511600	0.701800	0.138300
H701	H70	0.550400	0.665600	0.095600
C811	C81	0.358700	0.925500	0.652800
C821	C82	0.335000	0.990400	0.626800
C831	C83	0.335700	0.048900	0.665300
H711	H71	0.352500	0.047100	0.706200
C841	C84	0.311000	0.110700	0.642100
C851	C85	0.288200	0.110200	0.580200
H721	H72	0.272000	0.150400	0.563500
C861	C86	0.288400	0.053000	0.542800
H731	H73	0.272800	0.055100	0.501400
C871	C87	0.311300	0.993100	0.565400
H741	H74	0.311100	0.954100	0.539900
C881	C88	0.312800	0.171400	0.685700
H751	H75	0.295300	0.210200	0.664300
H761	H76	0.349600	0.183000	0.699100
H771	H77	0.294600	0.159900	0.721600
C891	C89	0.150800	0.903700	0.535200
C901	C90	0.155700	0.960800	0.579800
C911	C91	0.140300	0.030600	0.561900
H781	H78	0.125900	0.038800	0.520700
C921	C92	0.145800	0.084200	0.601800
C931	C93	0.165900	0.069500	0.664000
H791	H79	0.170800	0.105200	0.693200
C941	C94	0.178700	0.000800	0.682600
H801	H80	0.189100	0.990600	0.724600
C951	C95	0.175700	0.950300	0.639100
H811	H81	0.188200	0.906400	0.650900
C961	C96	0.132300	0.157500	0.583700
H821	H82	0.118600	0.159300	0.540100
H831	H83	0.164100	0.185500	0.590400
H841	H84	0.105600	0.174700	0.608800
C971	C97	0.967100	0.861400	0.242300
C981	C98	0.950000	0.869500	0.174600
C991	C99	0.965800	0.926000	0.142100
H851	H85	0.988900	0.958900	0.161900
C1001	C100	0.946300	0.932900	0.078700
H861	H86	0.956100	0.971100	0.056000
C1011	C101	0.913200	0.884400	0.050200
H871	H87	0.901300	0.889600	0.007800
C1021	C102	0.897600	0.830300	0.080300
C1031	C103	0.917800	0.820600	0.143500
H881	H88	0.909200	0.780500	0.164300
C1041	C104	0.860700	0.778200	0.045200
H891	H89	0.851500	0.793800	0.002900
H901	H90	0.828500	0.773500	0.065700
H911	H91	0.878600	0.734300	0.044800
C1051	C105	0.863200	0.092900	0.149600
C1061	C106	0.832800	0.034800	0.119700
C1071	C107	0.808900	0.039200	0.059600
H921	H92	0.814400	0.078100	0.035600
C1081	C108	0.777200	0.987100	0.034500
H931	H93	0.760700	0.990600	0.993600
C1091	C109	0.769500	0.928700	0.069900
H941	H94	0.747700	0.893200	0.052400
C1101	C110	0.793100	0.922300	0.129900
C1111	C111	0.824900	0.974400	0.154000
H951	H95	0.842100	0.970100	0.194500
C1121	C112	0.782300	0.862000	0.168500
H961	H96	0.801900	0.866600	0.209300
H971	H97	0.793600	0.820700	0.148800
H981	H98	0.744500	0.859500	0.172700
C1131	C113	0.317900	0.652400	0.457200
C1141	C114	0.302700	0.628400	0.389900
C1151	C115	0.273800	0.667900	0.343800
H991	H99	0.261000	0.711400	0.353700
C1161	C116	0.263900	0.642600	0.282900
C1171	C117	0.282900	0.577600	0.268200
H1001	H100	0.276200	0.560600	0.227500
C1181	C118	0.311800	0.538000	0.314300
H1011	H101	0.324500	0.494600	0.304500
C1191	C119	0.321700	0.563400	0.375200
H1021	H102	0.341000	0.537000	0.406100
C1201	C120	0.225100	0.693000	0.236900
H1031	H103	0.219400	0.672900	0.195800
H1041	H104	0.241900	0.737500	0.234400
H1051	H105	0.191100	0.698400	0.253600
N331	N33	0.510000	0.189200	0.761800
N341	N34	0.521100	0.175200	0.823600
N351	N35	0.503200	0.114200	0.835000
N361	N36	0.481200	0.085400	0.780800
N371	N37	0.479800	0.903200	0.964800
N381	N38	0.482600	0.951300	0.919000
N391	N39	0.474300	0.922300	0.864600
N401	N40	0.466200	0.853500	0.870600
N411	N41	0.398400	0.917700	0.699200
N421	N42	0.406000	0.848900	0.706200
N431	N43	0.372300	0.815300	0.666300
N441	N44	0.341100	0.862000	0.631900
N451	N45	0.180500	0.848700	0.540100
N461	N46	0.161700	0.808300	0.492200
N471	N47	0.121700	0.840800	0.460000
N481	N48	0.113100	0.899500	0.485600
N491	N49	0.965800	0.910900	0.283600
N501	N50	0.985100	0.883000	0.338600
N511	N51	0.996500	0.818100	0.329800
N521	N52	0.985300	0.802200	0.267600
N531	N53	0.857200	0.156600	0.126200
N541	N54	0.890700	0.197100	0.164100
N551	N55	0.914600	0.158200	0.209200
N561	N56	0.898000	0.094100	0.200700
N571	N57	0.359600	0.648500	0.499700
N581	N58	0.351200	0.696400	0.541400
N591	N59	0.306500	0.726300	0.525100
N601	N60	0.283500	0.699200	0.471600
Ag221	Ag22	0.978850	0.436050	0.060420
C1211	C121	0.014800	0.658300	0.074600
C1221	C122	0.027700	0.728000	0.051300
C1231	C123	0.004400	0.750200	0.992100
H1061	H106	0.980200	0.722300	0.967700
C1241	C124	0.018700	0.815600	0.970700
C1251	C125	0.056700	0.853800	0.007800
H1071	H107	0.067000	0.896700	0.993400
C1261	C126	0.079900	0.830400	0.065600
H1081	H108	0.104900	0.857300	0.089900
C1271	C127	0.065500	0.767900	0.086100
H1091	H109	0.081400	0.751400	0.124400
C1281	C128	0.988800	0.842800	0.908800
H1101	H110	0.002300	0.887800	0.899700
H1111	H111	0.994400	0.811600	0.875200
H1121	H112	0.951000	0.845900	0.913100
N611	N61	0.999600	0.603800	0.039200
N621	N62	0.994700	0.551400	0.081500
N631	N63	0.004700	0.575000	0.137500
N641	N64	0.016900	0.643400	0.135900
Ag231	Ag23	0.930720	0.479300	0.056730
Ag241	Ag24	0.029580	0.412800	0.063530
Ag251	Ag25	0.010570	0.793650	0.723550
Ag261	Ag26	0.941030	0.481580	0.765490
Ag271	Ag27	0.266660	0.671640	0.074700
Ag281	Ag28	0.406560	0.781420	0.125240
Ag291	Ag29	0.462810	0.713140	0.284540
Ag301	Ag30	0.446750	0.518980	0.269470
Ag311	Ag31	0.508750	0.432850	0.433980
Ag321	Ag32	0.805480	0.287320	0.551990
Ag331	Ag33	0.078310	0.707950	0.877510
C1291	C129	0.486000	0.366400	0.236200
C1301	C130	0.467200	0.374100	0.170400
C1311	C131	0.441300	0.319700	0.137900
H1131	H113	0.437300	0.278100	0.158800
C1321	C132	0.421400	0.325300	0.075600
C1331	C133	0.428900	0.386700	0.045600
H1141	H114	0.414600	0.391800	0.004000
C1341	C134	0.456900	0.441000	0.074700
H1151	H115	0.463000	0.481100	0.052500
C1351	C135	0.475900	0.435100	0.137700
H1161	H116	0.494400	0.471700	0.158200
C1361	C136	0.390900	0.265900	0.042400
H1171	H117	0.379900	0.278700	0.999700
H1181	H118	0.413800	0.226000	0.043100
H1191	H119	0.359800	0.255500	0.063400
C1371	C137	0.470100	0.656500	0.433000
C1381	C138	0.460900	0.723100	0.462200
C1391	C139	0.423400	0.768100	0.432500
H1201	H120	0.405400	0.756700	0.393700
C1401	C140	0.412500	0.831700	0.461800
H1211	H121	0.386300	0.861200	0.442900
C1411	C141	0.439900	0.849500	0.516500
H1221	H122	0.432700	0.891800	0.534500
C1421	C142	0.478600	0.806800	0.546900
C1431	C143	0.488500	0.742900	0.519500
H1231	H123	0.513900	0.713100	0.539800
C1441	C144	0.513800	0.830900	0.605000
H1241	H124	0.501600	0.875300	0.617700
H1251	H125	0.511600	0.798200	0.638300
H1261	H126	0.550400	0.834400	0.595600
C1451	C145	0.358700	0.574500	0.152800
C1461	C146	0.335000	0.509600	0.126800
C1471	C147	0.335700	0.451100	0.165300
H1271	H127	0.352500	0.452900	0.206200
C1481	C148	0.311000	0.389300	0.142100
C1491	C149	0.288200	0.389800	0.080200
H1281	H128	0.272000	0.349600	0.063500
C1501	C150	0.288400	0.447000	0.042800
H1291	H129	0.272800	0.444900	0.001400
C1511	C151	0.311300	0.506900	0.065400
H1301	H130	0.311100	0.545900	0.039900
C1521	C152	0.312800	0.328600	0.185700
H1311	H131	0.295300	0.289800	0.164300
H1321	H132	0.349600	0.317000	0.199100
H1331	H133	0.294600	0.340100	0.221600
C1531	C153	0.150800	0.596300	0.035200
C1541	C154	0.155700	0.539200	0.079800
C1551	C155	0.140300	0.469400	0.061900
H1341	H134	0.125900	0.461200	0.020700
C1561	C156	0.145800	0.415800	0.101800
C1571	C157	0.165900	0.430500	0.164000
H1351	H135	0.170800	0.394800	0.193200
C1581	C158	0.178700	0.499200	0.182600
H1361	H136	0.189100	0.509400	0.224600
C1591	C159	0.175700	0.549700	0.139100
H1371	H137	0.188200	0.593600	0.150900
C1601	C160	0.132300	0.342500	0.083700
H1381	H138	0.118600	0.340700	0.040100
H1391	H139	0.164100	0.314500	0.090400
H1401	H140	0.105600	0.325300	0.108800
C1611	C161	0.967100	0.638600	0.742300
C1621	C162	0.950000	0.630500	0.674600
C1631	C163	0.965800	0.574000	0.642100
H1411	H141	0.988900	0.541100	0.661900
C1641	C164	0.946300	0.567100	0.578700
H1421	H142	0.956100	0.528900	0.556000
C1651	C165	0.913200	0.615600	0.550200
H1431	H143	0.901300	0.610400	0.507800
C1661	C166	0.897600	0.669700	0.580300
C1671	C167	0.917800	0.679400	0.643500
H1441	H144	0.909200	0.719500	0.664300
C1681	C168	0.860700	0.721800	0.545200
H1451	H145	0.851500	0.706200	0.502900
H1461	H146	0.828500	0.726500	0.565700
H1471	H147	0.878600	0.765700	0.544800
C1691	C169	0.863200	0.407100	0.649600
C1701	C170	0.832800	0.465200	0.619700
C1711	C171	0.808900	0.460800	0.559600
H1481	H148	0.814400	0.421900	0.535600
C1721	C172	0.777200	0.512900	0.534500
H1491	H149	0.760700	0.509400	0.493600
C1731	C173	0.769500	0.571300	0.569900
H1501	H150	0.747700	0.606800	0.552400
C1741	C174	0.793100	0.577700	0.629900
C1751	C175	0.824900	0.525600	0.654000
H1511	H151	0.842100	0.529900	0.694500
C1761	C176	0.782300	0.638000	0.668500
H1521	H152	0.801900	0.633400	0.709300
H1531	H153	0.793600	0.679300	0.648800
H1541	H154	0.744500	0.640500	0.672700
C1771	C177	0.317900	0.847600	0.957200
C1781	C178	0.302700	0.871600	0.889900
C1791	C179	0.273800	0.832100	0.843800
H1551	H155	0.261000	0.788600	0.853700
C1801	C180	0.263900	0.857400	0.782900
C1811	C181	0.282900	0.922400	0.768200
H1561	H156	0.276200	0.939400	0.727500
C1821	C182	0.311800	0.962000	0.814300
H1571	H157	0.324500	0.005400	0.804500
C1831	C183	0.321700	0.936600	0.875200
H1581	H158	0.341000	0.963000	0.906100
C1841	C184	0.225100	0.807000	0.736900
H1591	H159	0.219400	0.827100	0.695800
H1601	H160	0.241900	0.762500	0.734400
H1611	H161	0.191100	0.801600	0.753600
N651	N65	0.510000	0.310800	0.261800
N661	N66	0.521100	0.324800	0.323600
N671	N67	0.503200	0.385800	0.335000
N681	N68	0.481200	0.414600	0.280800
N691	N69	0.479800	0.596800	0.464800
N701	N70	0.482600	0.548700	0.419000
N711	N71	0.474300	0.577700	0.364600
N721	N72	0.466200	0.646500	0.370600
N731	N73	0.398400	0.582300	0.199200
N741	N74	0.406000	0.651100	0.206200
N751	N75	0.372300	0.684700	0.166300
N761	N76	0.341100	0.638000	0.131900
N771	N77	0.180500	0.651300	0.040100
N781	N78	0.161700	0.691700	0.992200
N791	N79	0.121700	0.659200	0.960000
N801	N80	0.113100	0.600500	0.985600
N811	N81	0.965800	0.589100	0.783600
N821	N82	0.985100	0.617000	0.838600
N831	N83	0.996500	0.681900	0.829800
N841	N84	0.985300	0.697800	0.767600
N851	N85	0.857200	0.343400	0.626200
N861	N86	0.890700	0.302900	0.664100
N871	N87	0.914600	0.341800	0.709200
N881	N88	0.898000	0.405900	0.700700
N891	N89	0.359600	0.851500	0.999700
N901	N90	0.351200	0.803600	0.041400
N911	N91	0.306500	0.773700	0.025100
N921	N92	0.283500	0.800800	0.971600
Ag341	Ag34	0.978850	0.063950	0.560420
C1851	C185	0.014800	0.841700	0.574600
C1861	C186	0.027700	0.772000	0.551300
C1871	C187	0.004400	0.749800	0.492100
H1621	H162	0.980200	0.777700	0.467700
C1881	C188	0.018700	0.684400	0.470700
C1891	C189	0.056700	0.646200	0.507800
H1631	H163	0.067000	0.603300	0.493400
C1901	C190	0.079900	0.669600	0.565600
H1641	H164	0.104900	0.642700	0.589900
C1911	C191	0.065500	0.732100	0.586100
H1651	H165	0.081400	0.748600	0.624400
C1921	C192	0.988800	0.657200	0.408800
H1661	H166	0.002300	0.612200	0.399700
H1671	H167	0.994400	0.688400	0.375200
H1681	H168	0.951000	0.654100	0.413100
N931	N93	0.999600	0.896200	0.539200
N941	N94	0.994700	0.948600	0.581500
N951	N95	0.004700	0.925000	0.637500
N961	N96	0.016900	0.856600	0.635900
Ag351	Ag35	0.930720	0.020700	0.556730
Ag361	Ag36	0.029580	0.087200	0.563530
Ag371	Ag37	0.989430	0.293650	0.776450
Ag381	Ag38	0.058970	0.981580	0.734510
Ag391	Ag39	0.733340	0.171640	0.425300
Ag401	Ag40	0.593440	0.281420	0.374760
Ag411	Ag41	0.537190	0.213140	0.215460
Ag421	Ag42	0.553250	0.018980	0.230530
Ag431	Ag43	0.491250	0.932850	0.066020
Ag441	Ag44	0.194520	0.787320	0.948010
Ag451	Ag45	0.921690	0.207950	0.622490
C1931	C193	0.514000	0.866400	0.263800
C1941	C194	0.532800	0.874100	0.329600
C1951	C195	0.558700	0.819700	0.362100
H1691	H169	0.562700	0.778100	0.341200
C1961	C196	0.578600	0.825300	0.424400
C1971	C197	0.571100	0.886700	0.454400
H1701	H170	0.585400	0.891800	0.496000
C1981	C198	0.543100	0.941000	0.425300
H1711	H171	0.537000	0.981100	0.447500
C1991	C199	0.524100	0.935100	0.362300
H1721	H172	0.505600	0.971700	0.341800
C2001	C200	0.609100	0.765900	0.457600
H1731	H173	0.620100	0.778700	0.500300
H1741	H174	0.586200	0.726000	0.456900
H1751	H175	0.640200	0.755500	0.436600
C2011	C201	0.529900	0.156500	0.067000
C2021	C202	0.539100	0.223100	0.037800
C2031	C203	0.576600	0.268100	0.067500
H1761	H176	0.594600	0.256700	0.106300
C2041	C204	0.587500	0.331700	0.038200
H1771	H177	0.613700	0.361200	0.057100
C2051	C205	0.560100	0.349500	0.983500
H1781	H178	0.567300	0.391800	0.965500
C2061	C206	0.521400	0.306800	0.953100
C2071	C207	0.511500	0.242900	0.980500
H1791	H179	0.486100	0.213100	0.960200
C2081	C208	0.486200	0.330900	0.895000
H1801	H180	0.498400	0.375300	0.882300
H1811	H181	0.488400	0.298200	0.861700
H1821	H182	0.449600	0.334400	0.904400
C2091	C209	0.641300	0.074500	0.347200
C2101	C210	0.665000	0.009600	0.373200
C2111	C211	0.664300	0.951100	0.334700
H1831	H183	0.647500	0.952900	0.293800
C2121	C212	0.689000	0.889300	0.357900
C2131	C213	0.711800	0.889800	0.419800
H1841	H184	0.728000	0.849600	0.436500
C2141	C214	0.711600	0.947000	0.457200
H1851	H185	0.727200	0.944900	0.498600
C2151	C215	0.688700	0.006900	0.434600
H1861	H186	0.688900	0.045900	0.460100
C2161	C216	0.687200	0.828600	0.314300
H1871	H187	0.704700	0.789800	0.335700
H1881	H188	0.650400	0.817000	0.300900
H1891	H189	0.705400	0.840100	0.278400
C2171	C217	0.849200	0.096300	0.464800
C2181	C218	0.844300	0.039200	0.420200
C2191	C219	0.859700	0.969400	0.438100
H1901	H190	0.874100	0.961200	0.479300
C2201	C220	0.854200	0.915800	0.398200
C2211	C221	0.834100	0.930500	0.336000
H1911	H191	0.829200	0.894800	0.306800
C2221	C222	0.821300	0.999200	0.317400
H1921	H192	0.810900	0.009400	0.275400
C2231	C223	0.824300	0.049700	0.360900
H1931	H193	0.811800	0.093600	0.349100
C2241	C224	0.867700	0.842500	0.416300
H1941	H194	0.881400	0.840700	0.459900
H1951	H195	0.835900	0.814500	0.409600
H1961	H196	0.894400	0.825300	0.391200
C2251	C225	0.032900	0.138600	0.757700
C2261	C226	0.050000	0.130500	0.825400
C2271	C227	0.034200	0.074000	0.857900
H1971	H197	0.011100	0.041100	0.838100
C2281	C228	0.053700	0.067100	0.921300
H1981	H198	0.043900	0.028900	0.944000
C2291	C229	0.086800	0.115600	0.949800
H1991	H199	0.098700	0.110400	0.992200
C2301	C230	0.102400	0.169700	0.919700
C2311	C231	0.082200	0.179400	0.856500
H2001	H200	0.090800	0.219500	0.835700
C2321	C232	0.139300	0.221800	0.954800
H2011	H201	0.148500	0.206200	0.997100
H2021	H202	0.171500	0.226500	0.934300
H2031	H203	0.121400	0.265700	0.955200
C2331	C233	0.136800	0.907100	0.850400
C2341	C234	0.167200	0.965200	0.880300
C2351	C235	0.191100	0.960800	0.940400
H2041	H204	0.185600	0.921900	0.964400
C2361	C236	0.222800	0.012900	0.965500
H2051	H205	0.239300	0.009400	0.006400
C2371	C237	0.230500	0.071300	0.930100
H2061	H206	0.252300	0.106800	0.947600
C2381	C238	0.206900	0.077700	0.870100
C2391	C239	0.175100	0.025600	0.846000
H2071	H207	0.157900	0.029900	0.805500
C2401	C240	0.217700	0.138000	0.831500
H2081	H208	0.198100	0.133400	0.790700
H2091	H209	0.206400	0.179300	0.851200
H2101	H210	0.255500	0.140500	0.827300
C2411	C241	0.682100	0.347600	0.542800
C2421	C242	0.697300	0.371600	0.610100
C2431	C243	0.726200	0.332100	0.656200
H2111	H211	0.739000	0.288600	0.646300
C2441	C244	0.736100	0.357400	0.717100
C2451	C245	0.717100	0.422400	0.731800
H2121	H212	0.723800	0.439400	0.772500
C2461	C246	0.688200	0.462000	0.685700
H2131	H213	0.675500	0.505400	0.695500
C2471	C247	0.678300	0.436600	0.624800
H2141	H214	0.659000	0.463000	0.593900
C2481	C248	0.774900	0.307000	0.763100
H2151	H215	0.780600	0.327100	0.804200
H2161	H216	0.758100	0.262500	0.765600
H2171	H217	0.808900	0.301600	0.746400
N971	N97	0.490000	0.810800	0.238200
N981	N98	0.478900	0.824800	0.176400
N991	N99	0.496800	0.885800	0.165000
N1001	N100	0.518800	0.914600	0.219200
N1011	N101	0.520200	0.096800	0.035200
N1021	N102	0.517400	0.048700	0.081000
N1031	N103	0.525700	0.077700	0.135400
N1041	N104	0.533800	0.146500	0.129400
N1051	N105	0.601600	0.082300	0.300800
N1061	N106	0.594000	0.151100	0.293800
N1071	N107	0.627700	0.184700	0.333700
N1081	N108	0.658900	0.138000	0.368100
N1091	N109	0.819500	0.151300	0.459900
N1101	N110	0.838300	0.191700	0.507800
N1111	N111	0.878300	0.159200	0.540000
N1121	N112	0.886900	0.100500	0.514400
N1131	N113	0.034200	0.089100	0.716400
N1141	N114	0.014900	0.117000	0.661400
N1151	N115	0.003500	0.181900	0.670200
N1161	N116	0.014700	0.197800	0.732400
N1171	N117	0.142800	0.843400	0.873800
N1181	N118	0.109300	0.802900	0.835900
N1191	N119	0.085400	0.841800	0.790800
N1201	N120	0.102000	0.905900	0.799300
N1211	N121	0.640400	0.351500	0.500300
N1221	N122	0.648800	0.303600	0.458600
N1231	N123	0.693500	0.273700	0.474900
N1241	N124	0.716500	0.300800	0.528400
Ag461	Ag46	0.021150	0.563950	0.939580
C2491	C249	0.985200	0.341700	0.925400
C2501	C250	0.972300	0.272000	0.948700
C2511	C251	0.995600	0.249800	0.007900
H2181	H218	0.019800	0.277700	0.032300
C2521	C252	0.981300	0.184400	0.029300
C2531	C253	0.943300	0.146200	0.992200
H2191	H219	0.933000	0.103300	0.006600
C2541	C254	0.920100	0.169600	0.934400
H2201	H220	0.895100	0.142700	0.910100
C2551	C255	0.934500	0.232100	0.913900
H2211	H221	0.918600	0.248600	0.875600
C2561	C256	0.011200	0.157200	0.091200
H2221	H222	0.997700	0.112200	0.100300
H2231	H223	0.005600	0.188400	0.124800
H2241	H224	0.049000	0.154100	0.086900
N1251	N125	0.000400	0.396200	0.960800
N1261	N126	0.005300	0.448600	0.918500
N1271	N127	0.995300	0.425000	0.862500
N1281	N128	0.983100	0.356600	0.864100
Ag471	Ag47	0.069280	0.520700	0.943270
Ag481	Ag48	0.970420	0.587200	0.936470
