data_VUNCEM_clean_PM
_symmetry_space_group_name_H-M	'P1'
_cell_length_a	9.681000
_cell_length_b	9.657000
_cell_length_c	9.762000
_cell_angle_alpha	90.000000
_cell_angle_beta	102.900000
_cell_angle_gamma	90.000000
_symmetry_Int_Tables_number 1

loop_
_symmetry_equiv_pos_as_xyz
'x,y,z'

loop_
_atom_site_label
_atom_site_type_symbol
_atom_site_fract_x
_atom_site_fract_y
_atom_site_fract_z
Ga11	Ga1	0.101860	0.232200	0.315590
Ga21	Ga2	0.113270	0.457860	0.629370
P11	P1	0.292780	0.185470	0.632950
P21	P2	0.202670	0.533290	0.350420
O11	O1	0.999580	0.358470	0.442360
O21	O2	0.212710	0.389470	0.283710
O31	O3	0.238210	0.516870	0.512900
O41	O4	0.312440	0.629120	0.313950
O51	O5	0.239080	0.169680	0.475230
O61	O6	0.204870	0.288600	0.696370
O71	O7	0.448170	0.228940	0.659410
O81	O8	0.051070	0.590540	0.299290
O91	O9	0.279830	0.042410	0.701820
Ga31	Ga3	0.398140	0.732200	0.184410
Ga41	Ga4	0.386730	0.957860	0.870630
P31	P3	0.207220	0.685470	0.867050
P41	P4	0.297330	0.033290	0.149580
O101	O10	0.500420	0.858470	0.057640
O111	O11	0.287290	0.889470	0.216290
O121	O12	0.261790	0.016870	0.987100
O131	O13	0.187560	0.129120	0.186050
O141	O14	0.260920	0.669680	0.024770
O151	O15	0.295130	0.788600	0.803630
O161	O16	0.051830	0.728940	0.840590
O171	O17	0.448930	0.090540	0.200710
O181	O18	0.220170	0.542410	0.798180
Ga51	Ga5	0.898140	0.767800	0.684410
Ga61	Ga6	0.886730	0.542140	0.370630
P51	P5	0.707220	0.814530	0.367050
P61	P6	0.797330	0.466710	0.649580
O191	O19	0.000420	0.641530	0.557640
O201	O20	0.787290	0.610530	0.716290
O211	O21	0.761790	0.483130	0.487100
O221	O22	0.687560	0.370880	0.686050
O231	O23	0.760920	0.830320	0.524770
O241	O24	0.795130	0.711400	0.303630
O251	O25	0.551830	0.771060	0.340590
O261	O26	0.948930	0.409460	0.700710
O271	O27	0.720170	0.957590	0.298180
Ga71	Ga7	0.601860	0.267800	0.815590
Ga81	Ga8	0.613270	0.042140	0.129370
P71	P7	0.792780	0.314530	0.132950
P81	P8	0.702670	0.966710	0.850420
O281	O28	0.499580	0.141530	0.942360
O291	O29	0.712710	0.110530	0.783710
O301	O30	0.738210	0.983130	0.012900
O311	O31	0.812440	0.870880	0.813950
O321	O32	0.739080	0.330320	0.975230
O331	O33	0.704870	0.211400	0.196370
O341	O34	0.948170	0.271060	0.159410
O351	O35	0.551070	0.909460	0.799290
O361	O36	0.779830	0.457590	0.201820
