data_VUNCEM01_clean_PM
_symmetry_space_group_name_H-M	'P1'
_cell_length_a	9.681400
_cell_length_b	9.656800
_cell_length_c	9.761800
_cell_angle_alpha	90.000000
_cell_angle_beta	102.900000
_cell_angle_gamma	90.000000
_symmetry_Int_Tables_number 1

loop_
_symmetry_equiv_pos_as_xyz
'x,y,z'

loop_
_atom_site_label
_atom_site_type_symbol
_atom_site_fract_x
_atom_site_fract_y
_atom_site_fract_z
P11	P1	0.207230	0.185480	0.867040
P21	P2	0.297300	0.533300	0.149600
Ga11	Ga1	0.398150	0.232190	0.184420
Ga21	Ga2	0.386740	0.457860	0.870630
O11	O1	0.500200	0.358800	0.057800
O21	O2	0.287300	0.389500	0.216400
O31	O3	0.261700	0.516900	0.987200
O41	O4	0.187600	0.629000	0.186100
O51	O5	0.260900	0.169600	0.024800
O61	O6	0.295200	0.288500	0.803600
O71	O7	0.051700	0.228900	0.840600
O81	O8	0.448800	0.590500	0.200600
O91	O9	0.220200	0.042400	0.798200
H11	H1	0.568500	0.292900	0.028800
P31	P3	0.292770	0.685480	0.632960
P41	P4	0.202700	0.033300	0.350400
Ga31	Ga3	0.101850	0.732190	0.315580
Ga41	Ga4	0.113260	0.957860	0.629370
O101	O10	0.999800	0.858800	0.442200
O111	O11	0.212700	0.889500	0.283600
O121	O12	0.238300	0.016900	0.512800
O131	O13	0.312400	0.129000	0.313900
O141	O14	0.239100	0.669600	0.475200
O151	O15	0.204800	0.788500	0.696400
O161	O16	0.448300	0.728900	0.659400
O171	O17	0.051200	0.090500	0.299400
O181	O18	0.279800	0.542400	0.701800
H21	H2	0.931500	0.792900	0.471200
P51	P5	0.792770	0.814520	0.132960
P61	P6	0.702700	0.466700	0.850400
Ga51	Ga5	0.601850	0.767810	0.815580
Ga61	Ga6	0.613260	0.542140	0.129370
O191	O19	0.499800	0.641200	0.942200
O201	O20	0.712700	0.610500	0.783600
O211	O21	0.738300	0.483100	0.012800
O221	O22	0.812400	0.371000	0.813900
O231	O23	0.739100	0.830400	0.975200
O241	O24	0.704800	0.711500	0.196400
O251	O25	0.948300	0.771100	0.159400
O261	O26	0.551200	0.409500	0.799400
O271	O27	0.779800	0.957600	0.201800
H31	H3	0.431500	0.707100	0.971200
P71	P7	0.707230	0.314520	0.367040
P81	P8	0.797300	0.966700	0.649600
Ga71	Ga7	0.898150	0.267810	0.684420
Ga81	Ga8	0.886740	0.042140	0.370630
O281	O28	0.000200	0.141200	0.557800
O291	O29	0.787300	0.110500	0.716400
O301	O30	0.761700	0.983100	0.487200
O311	O31	0.687600	0.871000	0.686100
O321	O32	0.760900	0.330400	0.524800
O331	O33	0.795200	0.211500	0.303600
O341	O34	0.551700	0.271100	0.340600
O351	O35	0.948800	0.909500	0.700600
O361	O36	0.720200	0.457600	0.298200
H41	H4	0.068500	0.207100	0.528800
