data_VUNHAO_clean_PM
_symmetry_space_group_name_H-M	'P1'
_cell_length_a	29.846000
_cell_length_b	21.310000
_cell_length_c	12.090000
_cell_angle_alpha	90.000000
_cell_angle_beta	90.000000
_cell_angle_gamma	90.000000
_symmetry_Int_Tables_number 1

loop_
_symmetry_equiv_pos_as_xyz
'x,y,z'

loop_
_atom_site_label
_atom_site_type_symbol
_atom_site_fract_x
_atom_site_fract_y
_atom_site_fract_z
Fe11	Fe1	0.474850	0.240620	0.155660
Fe21	Fe2	0.648920	0.112450	0.663800
Fe31	Fe3	0.657840	0.546530	0.160110
N11	N1	0.517500	0.179700	0.256000
C11	C1	0.537200	0.146600	0.309800
N21	N2	0.556500	0.104900	0.370200
C21	C2	0.584400	0.113900	0.445300
N31	N3	0.608700	0.114000	0.512800
N41	N4	0.530400	0.302500	0.120700
C31	C3	0.552200	0.341600	0.082600
N51	N5	0.575800	0.380200	0.028800
C41	C4	0.598600	0.424900	0.089300
N61	N6	0.617900	0.465400	0.121100
N71	N7	0.432100	0.300700	0.063400
C51	C5	0.426400	0.345400	0.007800
N81	N8	0.427800	0.401600	0.962600
C61	C6	0.399900	0.410300	0.882900
N91	N9	0.381100	0.429400	0.809600
N101	N10	0.490600	0.191700	0.010300
C71	C7	0.503400	0.173400	0.927700
N111	N11	0.512600	0.151600	0.823300
C81	C8	0.555400	0.147300	0.790300
N121	N12	0.589700	0.143100	0.750800
N131	N13	0.421400	0.175600	0.192700
C91	C9	0.406100	0.130100	0.230600
N141	N14	0.387800	0.081600	0.282700
C101	C10	0.376900	0.030200	0.234000
N151	N15	0.366600	0.983600	0.191600
N161	N16	0.457700	0.295400	0.304600
C111	C11	0.450800	0.314600	0.389500
N171	N17	0.449700	0.341400	0.484700
C121	C12	0.412900	0.369200	0.518300
N181	N18	0.383500	0.397200	0.567000
N191	N19	0.689900	0.111600	0.811800
C131	C13	0.706300	0.092800	0.889800
N201	N20	0.725000	0.065000	0.971400
C141	C14	0.761200	0.082800	0.020600
N211	N21	0.793600	0.091600	0.071000
N221	N22	0.702200	0.494700	0.261500
C151	C15	0.734900	0.487100	0.308300
N231	N23	0.772600	0.466000	0.359100
C161	C16	0.787700	0.496300	0.452200
N241	N24	0.800100	0.524500	0.520800
Fe41	Fe4	0.525150	0.759380	0.655660
Fe51	Fe5	0.351080	0.887550	0.163800
Fe61	Fe6	0.342160	0.453470	0.660110
N251	N25	0.482500	0.820300	0.756000
C171	C17	0.462800	0.853400	0.809800
N261	N26	0.443500	0.895100	0.870200
C181	C18	0.415600	0.886100	0.945300
N271	N27	0.391300	0.886000	0.012800
N281	N28	0.469600	0.697500	0.620700
C191	C19	0.447800	0.658400	0.582600
N291	N29	0.424200	0.619800	0.528800
C201	C20	0.401400	0.575100	0.589300
N301	N30	0.382100	0.534600	0.621100
N311	N31	0.567900	0.699300	0.563400
C211	C21	0.573600	0.654600	0.507800
N321	N32	0.572200	0.598400	0.462600
C221	C22	0.600100	0.589700	0.382900
N331	N33	0.618900	0.570600	0.309600
N341	N34	0.509400	0.808300	0.510300
C231	C23	0.496600	0.826600	0.427700
N351	N35	0.487400	0.848400	0.323300
C241	C24	0.444600	0.852700	0.290300
N361	N36	0.410300	0.856900	0.250800
N371	N37	0.578600	0.824400	0.692700
C251	C25	0.593900	0.869900	0.730600
N381	N38	0.612200	0.918400	0.782700
C261	C26	0.623100	0.969800	0.734000
N391	N39	0.633400	0.016400	0.691600
N401	N40	0.542300	0.704600	0.804600
C271	C27	0.549200	0.685400	0.889500
N411	N41	0.550300	0.658600	0.984700
C281	C28	0.587100	0.630800	0.018300
N421	N42	0.616500	0.602800	0.067000
N431	N43	0.310100	0.888400	0.311800
C291	C29	0.293700	0.907200	0.389800
N441	N44	0.275000	0.935000	0.471400
C301	C30	0.238800	0.917200	0.520600
N451	N45	0.206400	0.908400	0.571000
N461	N46	0.297800	0.505300	0.761500
C311	C31	0.265100	0.512900	0.808300
N471	N47	0.227400	0.534000	0.859100
C321	C32	0.212300	0.503700	0.952200
N481	N48	0.199900	0.475500	0.020800
Fe71	Fe7	0.974850	0.759380	0.155660
Fe81	Fe8	0.148920	0.887550	0.663800
Fe91	Fe9	0.157840	0.453470	0.160110
N491	N49	0.017500	0.820300	0.256000
C331	C33	0.037200	0.853400	0.309800
N501	N50	0.056500	0.895100	0.370200
C341	C34	0.084400	0.886100	0.445300
N511	N51	0.108700	0.886000	0.512800
N521	N52	0.030400	0.697500	0.120700
C351	C35	0.052200	0.658400	0.082600
N531	N53	0.075800	0.619800	0.028800
C361	C36	0.098600	0.575100	0.089300
N541	N54	0.117900	0.534600	0.121100
N551	N55	0.932100	0.699300	0.063400
C371	C37	0.926400	0.654600	0.007800
N561	N56	0.927800	0.598400	0.962600
C381	C38	0.899900	0.589700	0.882900
N571	N57	0.881100	0.570600	0.809600
N581	N58	0.990600	0.808300	0.010300
C391	C39	0.003400	0.826600	0.927700
N591	N59	0.012600	0.848400	0.823300
C401	C40	0.055400	0.852700	0.790300
N601	N60	0.089700	0.856900	0.750800
N611	N61	0.921400	0.824400	0.192700
C411	C41	0.906100	0.869900	0.230600
N621	N62	0.887800	0.918400	0.282700
C421	C42	0.876900	0.969800	0.234000
N631	N63	0.866600	0.016400	0.191600
N641	N64	0.957700	0.704600	0.304600
C431	C43	0.950800	0.685400	0.389500
N651	N65	0.949700	0.658600	0.484700
C441	C44	0.912900	0.630800	0.518300
N661	N66	0.883500	0.602800	0.567000
N671	N67	0.189900	0.888400	0.811800
C451	C45	0.206300	0.907200	0.889800
N681	N68	0.225000	0.935000	0.971400
C461	C46	0.261200	0.917200	0.020600
N691	N69	0.293600	0.908400	0.071000
N701	N70	0.202200	0.505300	0.261500
C471	C47	0.234900	0.512900	0.308300
N711	N71	0.272600	0.534000	0.359100
C481	C48	0.287700	0.503700	0.452200
N721	N72	0.300100	0.475500	0.520800
Fe101	Fe10	0.025150	0.240620	0.655660
Fe111	Fe11	0.851080	0.112450	0.163800
Fe121	Fe12	0.842160	0.546530	0.660110
N731	N73	0.982500	0.179700	0.756000
C491	C49	0.962800	0.146600	0.809800
N741	N74	0.943500	0.104900	0.870200
C501	C50	0.915600	0.113900	0.945300
N751	N75	0.891300	0.114000	0.012800
N761	N76	0.969600	0.302500	0.620700
C511	C51	0.947800	0.341600	0.582600
N771	N77	0.924200	0.380200	0.528800
C521	C52	0.901400	0.424900	0.589300
N781	N78	0.882100	0.465400	0.621100
N791	N79	0.067900	0.300700	0.563400
C531	C53	0.073600	0.345400	0.507800
N801	N80	0.072200	0.401600	0.462600
C541	C54	0.100100	0.410300	0.382900
N811	N81	0.118900	0.429400	0.309600
N821	N82	0.009400	0.191700	0.510300
C551	C55	0.996600	0.173400	0.427700
N831	N83	0.987400	0.151600	0.323300
C561	C56	0.944600	0.147300	0.290300
N841	N84	0.910300	0.143100	0.250800
N851	N85	0.078600	0.175600	0.692700
C571	C57	0.093900	0.130100	0.730600
N861	N86	0.112200	0.081600	0.782700
C581	C58	0.123100	0.030200	0.734000
N871	N87	0.133400	0.983600	0.691600
N881	N88	0.042300	0.295400	0.804600
C591	C59	0.049200	0.314600	0.889500
N891	N89	0.050300	0.341400	0.984700
C601	C60	0.087100	0.369200	0.018300
N901	N90	0.116500	0.397200	0.067000
N911	N91	0.810100	0.111600	0.311800
C611	C61	0.793700	0.092800	0.389800
N921	N92	0.775000	0.065000	0.471400
C621	C62	0.738800	0.082800	0.520600
N931	N93	0.706400	0.091600	0.571000
N941	N94	0.797800	0.494700	0.761500
C631	C63	0.765100	0.487100	0.808300
N951	N95	0.727400	0.466000	0.859100
C641	C64	0.712300	0.496300	0.952200
N961	N96	0.699900	0.524500	0.020800
