data_VUNNEZ_clean_PM
_symmetry_space_group_name_H-M	'P1'
_cell_length_a	18.610700
_cell_length_b	18.610700
_cell_length_c	4.802200
_cell_angle_alpha	90.000000
_cell_angle_beta	90.000000
_cell_angle_gamma	90.000000
_symmetry_Int_Tables_number 1

loop_
_symmetry_equiv_pos_as_xyz
'x,y,z'

loop_
_atom_site_label
_atom_site_type_symbol
_atom_site_fract_x
_atom_site_fract_y
_atom_site_fract_z
C11	C1	0.983490	0.694150	0.399000
H11	H1	0.979100	0.679200	0.594000
C21	C2	0.969730	0.631450	0.207400
O11	O1	0.921620	0.631910	0.026700
O21	O2	0.013370	0.579730	0.243600
C31	C3	0.483490	0.194150	0.899000
H21	H2	0.479100	0.179200	0.094000
C41	C4	0.469730	0.131450	0.707400
O31	O3	0.421620	0.131910	0.526700
O41	O4	0.513370	0.079730	0.743600
C51	C5	0.516510	0.305850	0.899000
H31	H3	0.520900	0.320800	0.094000
C61	C6	0.530270	0.368550	0.707400
O51	O5	0.578380	0.368090	0.526700
O61	O6	0.486630	0.420270	0.743600
C71	C7	0.016510	0.805850	0.399000
H41	H4	0.020900	0.820800	0.594000
C81	C8	0.030270	0.868550	0.207400
O71	O7	0.078380	0.868090	0.026700
O81	O8	0.986630	0.920270	0.243600
C91	C9	0.055850	0.233490	0.649000
H51	H5	0.070800	0.229100	0.844000
C101	C10	0.118550	0.219730	0.457400
O91	O9	0.118090	0.171620	0.276700
O101	O10	0.170270	0.263370	0.493600
C111	C11	0.555850	0.733490	0.149000
H61	H6	0.570800	0.729100	0.344000
C121	C12	0.618550	0.719730	0.957400
O111	O11	0.618090	0.671620	0.776700
O121	O12	0.670270	0.763370	0.993600
C131	C13	0.444150	0.766510	0.149000
H71	H7	0.429200	0.770900	0.344000
C141	C14	0.381450	0.780270	0.957400
O131	O13	0.381910	0.828380	0.776700
O141	O14	0.329730	0.736630	0.993600
C151	C15	0.944150	0.266510	0.649000
H81	H8	0.929200	0.270900	0.844000
C161	C16	0.881450	0.280270	0.457400
O151	O15	0.881910	0.328380	0.276700
O161	O16	0.829730	0.236630	0.493600
C171	C17	0.016510	0.305850	0.601000
H91	H9	0.020900	0.320800	0.406000
C181	C18	0.030270	0.368550	0.792600
O171	O17	0.078380	0.368090	0.973300
O181	O18	0.986630	0.420270	0.756400
C191	C19	0.516510	0.805850	0.101000
H101	H10	0.520900	0.820800	0.906000
C201	C20	0.530270	0.868550	0.292600
O191	O19	0.578380	0.868090	0.473300
O201	O20	0.486630	0.920270	0.256400
C211	C21	0.483490	0.694150	0.101000
H111	H11	0.479100	0.679200	0.906000
C221	C22	0.469730	0.631450	0.292600
O211	O21	0.421620	0.631910	0.473300
O221	O22	0.513370	0.579730	0.256400
C231	C23	0.983490	0.194150	0.601000
H121	H12	0.979100	0.179200	0.406000
C241	C24	0.969730	0.131450	0.792600
O231	O23	0.921620	0.131910	0.973300
O241	O24	0.013370	0.079730	0.756400
C251	C25	0.944150	0.766510	0.351000
H131	H13	0.929200	0.770900	0.156000
C261	C26	0.881450	0.780270	0.542600
O251	O25	0.881910	0.828380	0.723300
O261	O26	0.829730	0.736630	0.506400
C271	C27	0.444150	0.266510	0.851000
H141	H14	0.429200	0.270900	0.656000
C281	C28	0.381450	0.280270	0.042600
O271	O27	0.381910	0.328380	0.223300
O281	O28	0.329730	0.236630	0.006400
C291	C29	0.555850	0.233490	0.851000
H151	H15	0.570800	0.229100	0.656000
C301	C30	0.618550	0.219730	0.042600
O291	O29	0.618090	0.171620	0.223300
O301	O30	0.670270	0.263370	0.006400
C311	C31	0.055850	0.733490	0.351000
H161	H16	0.070800	0.729100	0.156000
C321	C32	0.118550	0.719730	0.542600
O311	O31	0.118090	0.671620	0.723300
O321	O32	0.170270	0.763370	0.506400
Cu11	Cu1	0.000000	0.500000	0.000000
Cu21	Cu2	0.500000	0.000000	0.500000
Cu31	Cu3	0.500000	0.500000	0.500000
Cu41	Cu4	0.000000	0.000000	0.000000
Cu51	Cu5	0.250000	0.250000	0.250000
Cu61	Cu6	0.750000	0.750000	0.750000
Cu71	Cu7	0.250000	0.750000	0.750000
Cu81	Cu8	0.750000	0.250000	0.250000
