data_VUNXUY_clean_PM
_symmetry_space_group_name_H-M	'P1'
_cell_length_a	20.276000
_cell_length_b	20.276000
_cell_length_c	20.276000
_cell_angle_alpha	90.000000
_cell_angle_beta	90.000000
_cell_angle_gamma	90.000000
_symmetry_Int_Tables_number 1

loop_
_symmetry_equiv_pos_as_xyz
'x,y,z'

loop_
_atom_site_label
_atom_site_type_symbol
_atom_site_fract_x
_atom_site_fract_y
_atom_site_fract_z
Cu11	Cu1	0.845070	0.606410	0.860900
Cu21	Cu2	0.729560	0.504240	0.947780
C11	C1	0.690500	0.706200	0.968700
H11	H1	0.667000	0.691700	0.008400
C21	C2	0.642100	0.731900	0.916700
H21	H2	0.629500	0.695000	0.888100
C31	C3	0.731700	0.806600	0.918200
H31	H3	0.774100	0.801600	0.895400
C41	C4	0.733600	0.767600	0.983400
H41	H4	0.710600	0.794000	0.016800
C51	C5	0.728300	0.648700	0.937300
C61	C6	0.579200	0.763100	0.944100
C71	C7	0.718200	0.879200	0.929500
C81	C8	0.802300	0.751200	0.010600
O11	O1	0.779260	0.661400	0.905470
O21	O2	0.701560	0.593840	0.945500
O31	O3	0.762500	0.909900	0.959700
O41	O4	0.665340	0.904740	0.909720
O51	O5	0.560650	0.817430	0.921120
O61	O6	0.547630	0.730300	0.985900
O71	O7	0.800640	0.711000	0.058420
O81	O8	0.851430	0.778060	0.987170
O91	O9	0.680270	0.777800	0.878390
Cu31	Cu3	0.654930	0.393590	0.360900
Cu41	Cu4	0.770440	0.495760	0.447780
C91	C9	0.809500	0.293800	0.468700
H51	H5	0.833000	0.308300	0.508400
C101	C10	0.857900	0.268100	0.416700
H61	H6	0.870500	0.305000	0.388100
C111	C11	0.768300	0.193400	0.418200
H71	H7	0.725900	0.198400	0.395400
C121	C12	0.766400	0.232400	0.483400
H81	H8	0.789400	0.206000	0.516800
C131	C13	0.771700	0.351300	0.437300
C141	C14	0.920800	0.236900	0.444100
C151	C15	0.781800	0.120800	0.429500
C161	C16	0.697700	0.248800	0.510600
O101	O10	0.720740	0.338600	0.405470
O111	O11	0.798440	0.406160	0.445500
O121	O12	0.737500	0.090100	0.459700
O131	O13	0.834660	0.095260	0.409720
O141	O14	0.939350	0.182570	0.421120
O151	O15	0.952370	0.269700	0.485900
O161	O16	0.699360	0.289000	0.558420
O171	O17	0.648570	0.221940	0.487170
O181	O18	0.819730	0.222200	0.378390
Cu51	Cu5	0.154930	0.106410	0.639100
Cu61	Cu6	0.270440	0.004240	0.552220
C171	C17	0.309500	0.206200	0.531300
H91	H9	0.333000	0.191700	0.491600
C181	C18	0.357900	0.231900	0.583300
H101	H10	0.370500	0.195000	0.611900
C191	C19	0.268300	0.306600	0.581800
H111	H11	0.225900	0.301600	0.604600
C201	C20	0.266400	0.267600	0.516600
H121	H12	0.289400	0.294000	0.483200
C211	C21	0.271700	0.148700	0.562700
C221	C22	0.420800	0.263100	0.555900
C231	C23	0.281800	0.379200	0.570500
C241	C24	0.197700	0.251200	0.489400
O191	O19	0.220740	0.161400	0.594530
O201	O20	0.298440	0.093840	0.554500
O211	O21	0.237500	0.409900	0.540300
O221	O22	0.334660	0.404740	0.590280
O231	O23	0.439350	0.317430	0.578880
O241	O24	0.452370	0.230300	0.514100
O251	O25	0.199360	0.211000	0.441580
O261	O26	0.148570	0.278060	0.512830
O271	O27	0.319730	0.277800	0.621610
Cu71	Cu7	0.345070	0.893590	0.139100
Cu81	Cu8	0.229560	0.995760	0.052220
C251	C25	0.190500	0.793800	0.031300
H131	H13	0.167000	0.808300	0.991600
C261	C26	0.142100	0.768100	0.083300
H141	H14	0.129500	0.805000	0.111900
C271	C27	0.231700	0.693400	0.081800
H151	H15	0.274100	0.698400	0.104600
C281	C28	0.233600	0.732400	0.016600
H161	H16	0.210600	0.706000	0.983200
C291	C29	0.228300	0.851300	0.062700
C301	C30	0.079200	0.736900	0.055900
C311	C31	0.218200	0.620800	0.070500
C321	C32	0.302300	0.748800	0.989400
O281	O28	0.279260	0.838600	0.094530
O291	O29	0.201560	0.906160	0.054500
O301	O30	0.262500	0.590100	0.040300
O311	O31	0.165340	0.595260	0.090280
O321	O32	0.060650	0.682570	0.078880
O331	O33	0.047630	0.769700	0.014100
O341	O34	0.300640	0.789000	0.941580
O351	O35	0.351430	0.721940	0.012830
O361	O36	0.180270	0.722200	0.121610
Cu91	Cu9	0.860900	0.845070	0.606410
Cu101	Cu10	0.947780	0.729560	0.504240
C331	C33	0.968700	0.690500	0.706200
H171	H17	0.008400	0.667000	0.691700
C341	C34	0.916700	0.642100	0.731900
H181	H18	0.888100	0.629500	0.695000
C351	C35	0.918200	0.731700	0.806600
H191	H19	0.895400	0.774100	0.801600
C361	C36	0.983400	0.733600	0.767600
H201	H20	0.016800	0.710600	0.794000
C371	C37	0.937300	0.728300	0.648700
C381	C38	0.944100	0.579200	0.763100
C391	C39	0.929500	0.718200	0.879200
C401	C40	0.010600	0.802300	0.751200
O371	O37	0.905470	0.779260	0.661400
O381	O38	0.945500	0.701560	0.593840
O391	O39	0.959700	0.762500	0.909900
O401	O40	0.909720	0.665340	0.904740
O411	O41	0.921120	0.560650	0.817430
O421	O42	0.985900	0.547630	0.730300
O431	O43	0.058420	0.800640	0.711000
O441	O44	0.987170	0.851430	0.778060
O451	O45	0.878390	0.680270	0.777800
Cu111	Cu11	0.360900	0.654930	0.393590
Cu121	Cu12	0.447780	0.770440	0.495760
C411	C41	0.468700	0.809500	0.293800
H211	H21	0.508400	0.833000	0.308300
C421	C42	0.416700	0.857900	0.268100
H221	H22	0.388100	0.870500	0.305000
C431	C43	0.418200	0.768300	0.193400
H231	H23	0.395400	0.725900	0.198400
C441	C44	0.483400	0.766400	0.232400
H241	H24	0.516800	0.789400	0.206000
C451	C45	0.437300	0.771700	0.351300
C461	C46	0.444100	0.920800	0.236900
C471	C47	0.429500	0.781800	0.120800
C481	C48	0.510600	0.697700	0.248800
O461	O46	0.405470	0.720740	0.338600
O471	O47	0.445500	0.798440	0.406160
O481	O48	0.459700	0.737500	0.090100
O491	O49	0.409720	0.834660	0.095260
O501	O50	0.421120	0.939350	0.182570
O511	O51	0.485900	0.952370	0.269700
O521	O52	0.558420	0.699360	0.289000
O531	O53	0.487170	0.648570	0.221940
O541	O54	0.378390	0.819730	0.222200
Cu131	Cu13	0.639100	0.154930	0.106410
Cu141	Cu14	0.552220	0.270440	0.004240
C491	C49	0.531300	0.309500	0.206200
H251	H25	0.491600	0.333000	0.191700
C501	C50	0.583300	0.357900	0.231900
H261	H26	0.611900	0.370500	0.195000
C511	C51	0.581800	0.268300	0.306600
H271	H27	0.604600	0.225900	0.301600
C521	C52	0.516600	0.266400	0.267600
H281	H28	0.483200	0.289400	0.294000
C531	C53	0.562700	0.271700	0.148700
C541	C54	0.555900	0.420800	0.263100
C551	C55	0.570500	0.281800	0.379200
C561	C56	0.489400	0.197700	0.251200
O551	O55	0.594530	0.220740	0.161400
O561	O56	0.554500	0.298440	0.093840
O571	O57	0.540300	0.237500	0.409900
O581	O58	0.590280	0.334660	0.404740
O591	O59	0.578880	0.439350	0.317430
O601	O60	0.514100	0.452370	0.230300
O611	O61	0.441580	0.199360	0.211000
O621	O62	0.512830	0.148570	0.278060
O631	O63	0.621610	0.319730	0.277800
Cu151	Cu15	0.139100	0.345070	0.893590
Cu161	Cu16	0.052220	0.229560	0.995760
C571	C57	0.031300	0.190500	0.793800
H291	H29	0.991600	0.167000	0.808300
C581	C58	0.083300	0.142100	0.768100
H301	H30	0.111900	0.129500	0.805000
C591	C59	0.081800	0.231700	0.693400
H311	H31	0.104600	0.274100	0.698400
C601	C60	0.016600	0.233600	0.732400
H321	H32	0.983200	0.210600	0.706000
C611	C61	0.062700	0.228300	0.851300
C621	C62	0.055900	0.079200	0.736900
C631	C63	0.070500	0.218200	0.620800
C641	C64	0.989400	0.302300	0.748800
O641	O64	0.094530	0.279260	0.838600
O651	O65	0.054500	0.201560	0.906160
O661	O66	0.040300	0.262500	0.590100
O671	O67	0.090280	0.165340	0.595260
O681	O68	0.078880	0.060650	0.682570
O691	O69	0.014100	0.047630	0.769700
O701	O70	0.941580	0.300640	0.789000
O711	O71	0.012830	0.351430	0.721940
O721	O72	0.121610	0.180270	0.722200
Cu171	Cu17	0.606410	0.860900	0.845070
Cu181	Cu18	0.504240	0.947780	0.729560
C651	C65	0.706200	0.968700	0.690500
H331	H33	0.691700	0.008400	0.667000
C661	C66	0.731900	0.916700	0.642100
H341	H34	0.695000	0.888100	0.629500
C671	C67	0.806600	0.918200	0.731700
H351	H35	0.801600	0.895400	0.774100
C681	C68	0.767600	0.983400	0.733600
H361	H36	0.794000	0.016800	0.710600
C691	C69	0.648700	0.937300	0.728300
C701	C70	0.763100	0.944100	0.579200
C711	C71	0.879200	0.929500	0.718200
C721	C72	0.751200	0.010600	0.802300
O731	O73	0.661400	0.905470	0.779260
O741	O74	0.593840	0.945500	0.701560
O751	O75	0.909900	0.959700	0.762500
O761	O76	0.904740	0.909720	0.665340
O771	O77	0.817430	0.921120	0.560650
O781	O78	0.730300	0.985900	0.547630
O791	O79	0.711000	0.058420	0.800640
O801	O80	0.778060	0.987170	0.851430
O811	O81	0.777800	0.878390	0.680270
Cu191	Cu19	0.393590	0.360900	0.654930
Cu201	Cu20	0.495760	0.447780	0.770440
C731	C73	0.293800	0.468700	0.809500
H371	H37	0.308300	0.508400	0.833000
C741	C74	0.268100	0.416700	0.857900
H381	H38	0.305000	0.388100	0.870500
C751	C75	0.193400	0.418200	0.768300
H391	H39	0.198400	0.395400	0.725900
C761	C76	0.232400	0.483400	0.766400
H401	H40	0.206000	0.516800	0.789400
C771	C77	0.351300	0.437300	0.771700
C781	C78	0.236900	0.444100	0.920800
C791	C79	0.120800	0.429500	0.781800
C801	C80	0.248800	0.510600	0.697700
O821	O82	0.338600	0.405470	0.720740
O831	O83	0.406160	0.445500	0.798440
O841	O84	0.090100	0.459700	0.737500
O851	O85	0.095260	0.409720	0.834660
O861	O86	0.182570	0.421120	0.939350
O871	O87	0.269700	0.485900	0.952370
O881	O88	0.289000	0.558420	0.699360
O891	O89	0.221940	0.487170	0.648570
O901	O90	0.222200	0.378390	0.819730
Cu211	Cu21	0.106410	0.639100	0.154930
Cu221	Cu22	0.004240	0.552220	0.270440
C811	C81	0.206200	0.531300	0.309500
H411	H41	0.191700	0.491600	0.333000
C821	C82	0.231900	0.583300	0.357900
H421	H42	0.195000	0.611900	0.370500
C831	C83	0.306600	0.581800	0.268300
H431	H43	0.301600	0.604600	0.225900
C841	C84	0.267600	0.516600	0.266400
H441	H44	0.294000	0.483200	0.289400
C851	C85	0.148700	0.562700	0.271700
C861	C86	0.263100	0.555900	0.420800
C871	C87	0.379200	0.570500	0.281800
C881	C88	0.251200	0.489400	0.197700
O911	O91	0.161400	0.594530	0.220740
O921	O92	0.093840	0.554500	0.298440
O931	O93	0.409900	0.540300	0.237500
O941	O94	0.404740	0.590280	0.334660
O951	O95	0.317430	0.578880	0.439350
O961	O96	0.230300	0.514100	0.452370
O971	O97	0.211000	0.441580	0.199360
O981	O98	0.278060	0.512830	0.148570
O991	O99	0.277800	0.621610	0.319730
Cu231	Cu23	0.893590	0.139100	0.345070
Cu241	Cu24	0.995760	0.052220	0.229560
C891	C89	0.793800	0.031300	0.190500
H451	H45	0.808300	0.991600	0.167000
C901	C90	0.768100	0.083300	0.142100
H461	H46	0.805000	0.111900	0.129500
C911	C91	0.693400	0.081800	0.231700
H471	H47	0.698400	0.104600	0.274100
C921	C92	0.732400	0.016600	0.233600
H481	H48	0.706000	0.983200	0.210600
C931	C93	0.851300	0.062700	0.228300
C941	C94	0.736900	0.055900	0.079200
C951	C95	0.620800	0.070500	0.218200
C961	C96	0.748800	0.989400	0.302300
O1001	O100	0.838600	0.094530	0.279260
O1011	O101	0.906160	0.054500	0.201560
O1021	O102	0.590100	0.040300	0.262500
O1031	O103	0.595260	0.090280	0.165340
O1041	O104	0.682570	0.078880	0.060650
O1051	O105	0.769700	0.014100	0.047630
O1061	O106	0.789000	0.941580	0.300640
O1071	O107	0.721940	0.012830	0.351430
O1081	O108	0.722200	0.121610	0.180270
Cu251	Cu25	0.154930	0.393590	0.139100
Cu261	Cu26	0.270440	0.495760	0.052220
C971	C97	0.309500	0.293800	0.031300
H491	H49	0.333000	0.308300	0.991600
C981	C98	0.357900	0.268100	0.083300
H501	H50	0.370500	0.305000	0.111900
C991	C99	0.268300	0.193400	0.081800
H511	H51	0.225900	0.198400	0.104600
C1001	C100	0.266400	0.232400	0.016600
H521	H52	0.289400	0.206000	0.983200
C1011	C101	0.271700	0.351300	0.062700
C1021	C102	0.420800	0.236900	0.055900
C1031	C103	0.281800	0.120800	0.070500
C1041	C104	0.197700	0.248800	0.989400
O1091	O109	0.220740	0.338600	0.094530
O1101	O110	0.298440	0.406160	0.054500
O1111	O111	0.237500	0.090100	0.040300
O1121	O112	0.334660	0.095260	0.090280
O1131	O113	0.439350	0.182570	0.078880
O1141	O114	0.452370	0.269700	0.014100
O1151	O115	0.199360	0.289000	0.941580
O1161	O116	0.148570	0.221940	0.012830
O1171	O117	0.319730	0.222200	0.121610
Cu271	Cu27	0.345070	0.606410	0.639100
Cu281	Cu28	0.229560	0.504240	0.552220
C1051	C105	0.190500	0.706200	0.531300
H531	H53	0.167000	0.691700	0.491600
C1061	C106	0.142100	0.731900	0.583300
H541	H54	0.129500	0.695000	0.611900
C1071	C107	0.231700	0.806600	0.581800
H551	H55	0.274100	0.801600	0.604600
C1081	C108	0.233600	0.767600	0.516600
H561	H56	0.210600	0.794000	0.483200
C1091	C109	0.228300	0.648700	0.562700
C1101	C110	0.079200	0.763100	0.555900
C1111	C111	0.218200	0.879200	0.570500
C1121	C112	0.302300	0.751200	0.489400
O1181	O118	0.279260	0.661400	0.594530
O1191	O119	0.201560	0.593840	0.554500
O1201	O120	0.262500	0.909900	0.540300
O1211	O121	0.165340	0.904740	0.590280
O1221	O122	0.060650	0.817430	0.578880
O1231	O123	0.047630	0.730300	0.514100
O1241	O124	0.300640	0.711000	0.441580
O1251	O125	0.351430	0.778060	0.512830
O1261	O126	0.180270	0.777800	0.621610
Cu291	Cu29	0.845070	0.893590	0.360900
Cu301	Cu30	0.729560	0.995760	0.447780
C1131	C113	0.690500	0.793800	0.468700
H571	H57	0.667000	0.808300	0.508400
C1141	C114	0.642100	0.768100	0.416700
H581	H58	0.629500	0.805000	0.388100
C1151	C115	0.731700	0.693400	0.418200
H591	H59	0.774100	0.698400	0.395400
C1161	C116	0.733600	0.732400	0.483400
H601	H60	0.710600	0.706000	0.516800
C1171	C117	0.728300	0.851300	0.437300
C1181	C118	0.579200	0.736900	0.444100
C1191	C119	0.718200	0.620800	0.429500
C1201	C120	0.802300	0.748800	0.510600
O1271	O127	0.779260	0.838600	0.405470
O1281	O128	0.701560	0.906160	0.445500
O1291	O129	0.762500	0.590100	0.459700
O1301	O130	0.665340	0.595260	0.409720
O1311	O131	0.560650	0.682570	0.421120
O1321	O132	0.547630	0.769700	0.485900
O1331	O133	0.800640	0.789000	0.558420
O1341	O134	0.851430	0.721940	0.487170
O1351	O135	0.680270	0.722200	0.378390
Cu311	Cu31	0.654930	0.106410	0.860900
Cu321	Cu32	0.770440	0.004240	0.947780
C1211	C121	0.809500	0.206200	0.968700
H611	H61	0.833000	0.191700	0.008400
C1221	C122	0.857900	0.231900	0.916700
H621	H62	0.870500	0.195000	0.888100
C1231	C123	0.768300	0.306600	0.918200
H631	H63	0.725900	0.301600	0.895400
C1241	C124	0.766400	0.267600	0.983400
H641	H64	0.789400	0.294000	0.016800
C1251	C125	0.771700	0.148700	0.937300
C1261	C126	0.920800	0.263100	0.944100
C1271	C127	0.781800	0.379200	0.929500
C1281	C128	0.697700	0.251200	0.010600
O1361	O136	0.720740	0.161400	0.905470
O1371	O137	0.798440	0.093840	0.945500
O1381	O138	0.737500	0.409900	0.959700
O1391	O139	0.834660	0.404740	0.909720
O1401	O140	0.939350	0.317430	0.921120
O1411	O141	0.952370	0.230300	0.985900
O1421	O142	0.699360	0.211000	0.058420
O1431	O143	0.648570	0.278060	0.987170
O1441	O144	0.819730	0.277800	0.878390
Cu331	Cu33	0.139100	0.154930	0.393590
Cu341	Cu34	0.052220	0.270440	0.495760
C1291	C129	0.031300	0.309500	0.293800
H651	H65	0.991600	0.333000	0.308300
C1301	C130	0.083300	0.357900	0.268100
H661	H66	0.111900	0.370500	0.305000
C1311	C131	0.081800	0.268300	0.193400
H671	H67	0.104600	0.225900	0.198400
C1321	C132	0.016600	0.266400	0.232400
H681	H68	0.983200	0.289400	0.206000
C1331	C133	0.062700	0.271700	0.351300
C1341	C134	0.055900	0.420800	0.236900
C1351	C135	0.070500	0.281800	0.120800
C1361	C136	0.989400	0.197700	0.248800
O1451	O145	0.094530	0.220740	0.338600
O1461	O146	0.054500	0.298440	0.406160
O1471	O147	0.040300	0.237500	0.090100
O1481	O148	0.090280	0.334660	0.095260
O1491	O149	0.078880	0.439350	0.182570
O1501	O150	0.014100	0.452370	0.269700
O1511	O151	0.941580	0.199360	0.289000
O1521	O152	0.012830	0.148570	0.221940
O1531	O153	0.121610	0.319730	0.222200
Cu351	Cu35	0.639100	0.345070	0.606410
Cu361	Cu36	0.552220	0.229560	0.504240
C1371	C137	0.531300	0.190500	0.706200
H691	H69	0.491600	0.167000	0.691700
C1381	C138	0.583300	0.142100	0.731900
H701	H70	0.611900	0.129500	0.695000
C1391	C139	0.581800	0.231700	0.806600
H711	H71	0.604600	0.274100	0.801600
C1401	C140	0.516600	0.233600	0.767600
H721	H72	0.483200	0.210600	0.794000
C1411	C141	0.562700	0.228300	0.648700
C1421	C142	0.555900	0.079200	0.763100
C1431	C143	0.570500	0.218200	0.879200
C1441	C144	0.489400	0.302300	0.751200
O1541	O154	0.594530	0.279260	0.661400
O1551	O155	0.554500	0.201560	0.593840
O1561	O156	0.540300	0.262500	0.909900
O1571	O157	0.590280	0.165340	0.904740
O1581	O158	0.578880	0.060650	0.817430
O1591	O159	0.514100	0.047630	0.730300
O1601	O160	0.441580	0.300640	0.711000
O1611	O161	0.512830	0.351430	0.778060
O1621	O162	0.621610	0.180270	0.777800
Cu371	Cu37	0.360900	0.845070	0.893590
Cu381	Cu38	0.447780	0.729560	0.995760
C1451	C145	0.468700	0.690500	0.793800
H731	H73	0.508400	0.667000	0.808300
C1461	C146	0.416700	0.642100	0.768100
H741	H74	0.388100	0.629500	0.805000
C1471	C147	0.418200	0.731700	0.693400
H751	H75	0.395400	0.774100	0.698400
C1481	C148	0.483400	0.733600	0.732400
H761	H76	0.516800	0.710600	0.706000
C1491	C149	0.437300	0.728300	0.851300
C1501	C150	0.444100	0.579200	0.736900
C1511	C151	0.429500	0.718200	0.620800
C1521	C152	0.510600	0.802300	0.748800
O1631	O163	0.405470	0.779260	0.838600
O1641	O164	0.445500	0.701560	0.906160
O1651	O165	0.459700	0.762500	0.590100
O1661	O166	0.409720	0.665340	0.595260
O1671	O167	0.421120	0.560650	0.682570
O1681	O168	0.485900	0.547630	0.769700
O1691	O169	0.558420	0.800640	0.789000
O1701	O170	0.487170	0.851430	0.721940
O1711	O171	0.378390	0.680270	0.722200
Cu391	Cu39	0.860900	0.654930	0.106410
Cu401	Cu40	0.947780	0.770440	0.004240
C1531	C153	0.968700	0.809500	0.206200
H771	H77	0.008400	0.833000	0.191700
C1541	C154	0.916700	0.857900	0.231900
H781	H78	0.888100	0.870500	0.195000
C1551	C155	0.918200	0.768300	0.306600
H791	H79	0.895400	0.725900	0.301600
C1561	C156	0.983400	0.766400	0.267600
H801	H80	0.016800	0.789400	0.294000
C1571	C157	0.937300	0.771700	0.148700
C1581	C158	0.944100	0.920800	0.263100
C1591	C159	0.929500	0.781800	0.379200
C1601	C160	0.010600	0.697700	0.251200
O1721	O172	0.905470	0.720740	0.161400
O1731	O173	0.945500	0.798440	0.093840
O1741	O174	0.959700	0.737500	0.409900
O1751	O175	0.909720	0.834660	0.404740
O1761	O176	0.921120	0.939350	0.317430
O1771	O177	0.985900	0.952370	0.230300
O1781	O178	0.058420	0.699360	0.211000
O1791	O179	0.987170	0.648570	0.278060
O1801	O180	0.878390	0.819730	0.277800
Cu411	Cu41	0.393590	0.139100	0.154930
Cu421	Cu42	0.495760	0.052220	0.270440
C1611	C161	0.293800	0.031300	0.309500
H811	H81	0.308300	0.991600	0.333000
C1621	C162	0.268100	0.083300	0.357900
H821	H82	0.305000	0.111900	0.370500
C1631	C163	0.193400	0.081800	0.268300
H831	H83	0.198400	0.104600	0.225900
C1641	C164	0.232400	0.016600	0.266400
H841	H84	0.206000	0.983200	0.289400
C1651	C165	0.351300	0.062700	0.271700
C1661	C166	0.236900	0.055900	0.420800
C1671	C167	0.120800	0.070500	0.281800
C1681	C168	0.248800	0.989400	0.197700
O1811	O181	0.338600	0.094530	0.220740
O1821	O182	0.406160	0.054500	0.298440
O1831	O183	0.090100	0.040300	0.237500
O1841	O184	0.095260	0.090280	0.334660
O1851	O185	0.182570	0.078880	0.439350
O1861	O186	0.269700	0.014100	0.452370
O1871	O187	0.289000	0.941580	0.199360
O1881	O188	0.221940	0.012830	0.148570
O1891	O189	0.222200	0.121610	0.319730
Cu431	Cu43	0.606410	0.639100	0.345070
Cu441	Cu44	0.504240	0.552220	0.229560
C1691	C169	0.706200	0.531300	0.190500
H851	H85	0.691700	0.491600	0.167000
C1701	C170	0.731900	0.583300	0.142100
H861	H86	0.695000	0.611900	0.129500
C1711	C171	0.806600	0.581800	0.231700
H871	H87	0.801600	0.604600	0.274100
C1721	C172	0.767600	0.516600	0.233600
H881	H88	0.794000	0.483200	0.210600
C1731	C173	0.648700	0.562700	0.228300
C1741	C174	0.763100	0.555900	0.079200
C1751	C175	0.879200	0.570500	0.218200
C1761	C176	0.751200	0.489400	0.302300
O1901	O190	0.661400	0.594530	0.279260
O1911	O191	0.593840	0.554500	0.201560
O1921	O192	0.909900	0.540300	0.262500
O1931	O193	0.904740	0.590280	0.165340
O1941	O194	0.817430	0.578880	0.060650
O1951	O195	0.730300	0.514100	0.047630
O1961	O196	0.711000	0.441580	0.300640
O1971	O197	0.778060	0.512830	0.351430
O1981	O198	0.777800	0.621610	0.180270
Cu451	Cu45	0.893590	0.360900	0.845070
Cu461	Cu46	0.995760	0.447780	0.729560
C1771	C177	0.793800	0.468700	0.690500
H891	H89	0.808300	0.508400	0.667000
C1781	C178	0.768100	0.416700	0.642100
H901	H90	0.805000	0.388100	0.629500
C1791	C179	0.693400	0.418200	0.731700
H911	H91	0.698400	0.395400	0.774100
C1801	C180	0.732400	0.483400	0.733600
H921	H92	0.706000	0.516800	0.710600
C1811	C181	0.851300	0.437300	0.728300
C1821	C182	0.736900	0.444100	0.579200
C1831	C183	0.620800	0.429500	0.718200
C1841	C184	0.748800	0.510600	0.802300
O1991	O199	0.838600	0.405470	0.779260
O2001	O200	0.906160	0.445500	0.701560
O2011	O201	0.590100	0.459700	0.762500
O2021	O202	0.595260	0.409720	0.665340
O2031	O203	0.682570	0.421120	0.560650
O2041	O204	0.769700	0.485900	0.547630
O2051	O205	0.789000	0.558420	0.800640
O2061	O206	0.721940	0.487170	0.851430
O2071	O207	0.722200	0.378390	0.680270
Cu471	Cu47	0.106410	0.860900	0.654930
Cu481	Cu48	0.004240	0.947780	0.770440
C1851	C185	0.206200	0.968700	0.809500
H931	H93	0.191700	0.008400	0.833000
C1861	C186	0.231900	0.916700	0.857900
H941	H94	0.195000	0.888100	0.870500
C1871	C187	0.306600	0.918200	0.768300
H951	H95	0.301600	0.895400	0.725900
C1881	C188	0.267600	0.983400	0.766400
H961	H96	0.294000	0.016800	0.789400
C1891	C189	0.148700	0.937300	0.771700
C1901	C190	0.263100	0.944100	0.920800
C1911	C191	0.379200	0.929500	0.781800
C1921	C192	0.251200	0.010600	0.697700
O2081	O208	0.161400	0.905470	0.720740
O2091	O209	0.093840	0.945500	0.798440
O2101	O210	0.409900	0.959700	0.737500
O2111	O211	0.404740	0.909720	0.834660
O2121	O212	0.317430	0.921120	0.939350
O2131	O213	0.230300	0.985900	0.952370
O2141	O214	0.211000	0.058420	0.699360
O2151	O215	0.278060	0.987170	0.648570
O2161	O216	0.277800	0.878390	0.819730
