data_VUPFET_clean_PM
_symmetry_space_group_name_H-M	'P1'
_cell_length_a	6.961000
_cell_length_b	26.303000
_cell_length_c	17.797000
_cell_angle_alpha	90.000000
_cell_angle_beta	97.860000
_cell_angle_gamma	90.000000
_symmetry_Int_Tables_number 1

loop_
_symmetry_equiv_pos_as_xyz
'x,y,z'

loop_
_atom_site_label
_atom_site_type_symbol
_atom_site_fract_x
_atom_site_fract_y
_atom_site_fract_z
O11	O1	0.605300	0.118300	0.539700
O21	O2	0.327100	0.157100	0.527300
C11	C1	0.507300	0.157900	0.528400
O31	O3	0.954900	0.579700	0.450100
C21	C2	0.022700	0.548800	0.407600
O41	O4	0.576000	0.537500	0.446300
C31	C3	0.656000	0.761500	0.329000
H11	H1	0.701900	0.777000	0.374900
N11	N1	0.595900	0.791500	0.269600
C41	C4	0.532000	0.768200	0.204800
H21	H2	0.490600	0.787900	0.162400
O51	O5	0.692800	0.551400	0.059100
C51	C5	0.609700	0.207900	0.520300
Dy11	Dy1	0.318030	0.430030	0.066190
Dy21	Dy2	0.236590	0.431750	0.450850
O61	O6	0.432300	0.476000	0.375300
O71	O7	0.294100	0.343700	0.485600
O81	O8	0.183200	0.517600	0.080100
O91	O9	0.153800	0.460900	0.168000
O101	O10	0.549300	0.384100	0.458500
C61	C6	0.573600	0.523500	0.245800
H31	H3	0.566000	0.488300	0.242800
C71	C7	0.052800	0.567100	0.328300
C81	C8	0.603400	0.550900	0.183200
C91	C9	0.558500	0.599700	0.316100
H41	H4	0.544700	0.615800	0.361600
C101	C10	0.503100	0.251500	0.504700
H51	H5	0.368400	0.249900	0.497100
C111	C11	0.471200	0.344200	0.480300
C121	C12	0.148000	0.507800	0.145700
C131	C13	0.520400	0.517700	0.383600
C141	C14	0.049800	0.619000	0.311200
H61	H6	0.031200	0.642600	0.348300
C151	C15	0.080600	0.532600	0.273300
H71	H7	0.082300	0.498200	0.285100
C161	C16	0.582100	0.629200	0.253600
C171	C17	0.554700	0.547300	0.313300
C181	C18	0.596000	0.298300	0.500100
C191	C19	0.102400	0.599500	0.183500
H81	H8	0.118700	0.609900	0.134900
C201	C20	0.106000	0.547100	0.201000
C211	C21	0.606900	0.604300	0.186000
H91	H9	0.625600	0.623000	0.143200
C221	C22	0.654100	0.710100	0.326100
H101	H10	0.696900	0.691200	0.369300
C231	C23	0.623800	0.525800	0.108700
C241	C24	0.074900	0.635500	0.238000
C251	C25	0.587600	0.685600	0.257900
C261	C26	0.525000	0.715600	0.197600
H111	H11	0.477500	0.701000	0.151200
C271	C27	0.810400	0.211200	0.532900
H121	H12	0.884400	0.182100	0.543900
C281	C28	0.064000	0.690400	0.219700
C291	C29	0.793000	0.301500	0.512000
H131	H13	0.854300	0.332600	0.508800
C301	C30	0.982800	0.708800	0.149400
H141	H14	0.939000	0.686500	0.110100
C311	C31	0.900800	0.257800	0.529100
H151	H15	0.035400	0.259800	0.538000
C321	C32	0.126800	0.727100	0.275600
H161	H16	0.184600	0.717400	0.323600
N21	N2	0.019000	0.795600	0.190200
C331	C33	0.100000	0.778500	0.256800
H171	H17	0.141800	0.802300	0.294000
C341	C34	0.968000	0.761400	0.138700
H181	H18	0.917500	0.772900	0.090600
O111	O11	0.579400	0.479500	0.101300
O121	O12	0.060800	0.503200	0.422300
O131	O13	0.394700	0.618300	0.960300
O141	O14	0.672900	0.657100	0.972700
C351	C35	0.492700	0.657900	0.971600
O151	O15	0.045100	0.079700	0.049900
C361	C36	0.977300	0.048800	0.092400
O161	O16	0.424000	0.037500	0.053700
C371	C37	0.344000	0.261500	0.171000
H191	H19	0.298100	0.277000	0.125100
N31	N3	0.404100	0.291500	0.230400
C381	C38	0.468000	0.268200	0.295200
H201	H20	0.509400	0.287900	0.337600
O171	O17	0.307200	0.051400	0.440900
C391	C39	0.390300	0.707900	0.979700
Dy31	Dy3	0.681970	0.930030	0.433810
Dy41	Dy4	0.763410	0.931750	0.049150
O181	O18	0.567700	0.976000	0.124700
O191	O19	0.705900	0.843700	0.014400
O201	O20	0.816800	0.017600	0.419900
O211	O21	0.846200	0.960900	0.332000
O221	O22	0.450700	0.884100	0.041500
C401	C40	0.426400	0.023500	0.254200
H211	H21	0.434000	0.988300	0.257200
C411	C41	0.947200	0.067100	0.171700
C421	C42	0.396600	0.050900	0.316800
C431	C43	0.441500	0.099700	0.183900
H221	H22	0.455300	0.115800	0.138400
C441	C44	0.496900	0.751500	0.995300
H231	H23	0.631600	0.749900	0.002900
C451	C45	0.528800	0.844200	0.019700
C461	C46	0.852000	0.007800	0.354300
C471	C47	0.479600	0.017700	0.116400
C481	C48	0.950200	0.119000	0.188800
H241	H24	0.968800	0.142600	0.151700
C491	C49	0.919400	0.032600	0.226700
H251	H25	0.917700	0.998200	0.214900
C501	C50	0.417900	0.129200	0.246400
C511	C51	0.445300	0.047300	0.186700
C521	C52	0.404000	0.798300	0.999900
C531	C53	0.897600	0.099500	0.316500
H261	H26	0.881300	0.109900	0.365100
C541	C54	0.894000	0.047100	0.299000
C551	C55	0.393100	0.104300	0.314000
H271	H27	0.374400	0.123000	0.356800
C561	C56	0.345900	0.210100	0.173900
H281	H28	0.303100	0.191200	0.130700
C571	C57	0.376200	0.025800	0.391300
C581	C58	0.925100	0.135500	0.262000
C591	C59	0.412400	0.185600	0.242100
C601	C60	0.475000	0.215600	0.302400
H291	H29	0.522500	0.201000	0.348800
C611	C61	0.189600	0.711200	0.967100
H301	H30	0.115600	0.682100	0.956100
C621	C62	0.936000	0.190400	0.280300
C631	C63	0.207000	0.801500	0.988000
H311	H31	0.145700	0.832600	0.991200
C641	C64	0.017200	0.208800	0.350600
H321	H32	0.061000	0.186500	0.389900
C651	C65	0.099200	0.757800	0.970900
H331	H33	0.964600	0.759800	0.962000
C661	C66	0.873200	0.227100	0.224400
H341	H34	0.815400	0.217400	0.176400
N41	N4	0.981000	0.295600	0.309800
C671	C67	0.900000	0.278500	0.243200
H351	H35	0.858200	0.302300	0.206000
C681	C68	0.032000	0.261400	0.361300
H361	H36	0.082500	0.272900	0.409400
O231	O23	0.420600	0.979500	0.398700
O241	O24	0.939200	0.003200	0.077700
O251	O25	0.394700	0.881700	0.460300
O261	O26	0.672900	0.842900	0.472700
C691	C69	0.492700	0.842100	0.471600
O271	O27	0.045100	0.420300	0.549900
C701	C70	0.977300	0.451200	0.592400
O281	O28	0.424000	0.462500	0.553700
C711	C71	0.344000	0.238500	0.671000
H371	H37	0.298100	0.223000	0.625100
N51	N5	0.404100	0.208500	0.730400
C721	C72	0.468000	0.231800	0.795200
H381	H38	0.509400	0.212100	0.837600
O291	O29	0.307200	0.448600	0.940900
C731	C73	0.390300	0.792100	0.479700
Dy51	Dy5	0.681970	0.569970	0.933810
Dy61	Dy6	0.763410	0.568250	0.549150
O301	O30	0.567700	0.524000	0.624700
O311	O31	0.705900	0.656300	0.514400
O321	O32	0.816800	0.482400	0.919900
O331	O33	0.846200	0.539100	0.832000
O341	O34	0.450700	0.615900	0.541500
C741	C74	0.426400	0.476500	0.754200
H391	H39	0.434000	0.511700	0.757200
C751	C75	0.947200	0.432900	0.671700
C761	C76	0.396600	0.449100	0.816800
C771	C77	0.441500	0.400300	0.683900
H401	H40	0.455300	0.384200	0.638400
C781	C78	0.496900	0.748500	0.495300
H411	H41	0.631600	0.750100	0.502900
C791	C79	0.528800	0.655800	0.519700
C801	C80	0.852000	0.492200	0.854300
C811	C81	0.479600	0.482300	0.616400
C821	C82	0.950200	0.381000	0.688800
H421	H42	0.968800	0.357400	0.651700
C831	C83	0.919400	0.467400	0.726700
H431	H43	0.917700	0.501800	0.714900
C841	C84	0.417900	0.370800	0.746400
C851	C85	0.445300	0.452700	0.686700
C861	C86	0.404000	0.701700	0.499900
C871	C87	0.897600	0.400500	0.816500
H441	H44	0.881300	0.390100	0.865100
C881	C88	0.894000	0.452900	0.799000
C891	C89	0.393100	0.395700	0.814000
H451	H45	0.374400	0.377000	0.856800
C901	C90	0.345900	0.289900	0.673900
H461	H46	0.303100	0.308800	0.630700
C911	C91	0.376200	0.474200	0.891300
C921	C92	0.925100	0.364500	0.762000
C931	C93	0.412400	0.314400	0.742100
C941	C94	0.475000	0.284400	0.802400
H471	H47	0.522500	0.299000	0.848800
C951	C95	0.189600	0.788800	0.467100
H481	H48	0.115600	0.817900	0.456100
C961	C96	0.936000	0.309600	0.780300
C971	C97	0.207000	0.698500	0.488000
H491	H49	0.145700	0.667400	0.491200
C981	C98	0.017200	0.291200	0.850600
H501	H50	0.061000	0.313500	0.889900
C991	C99	0.099200	0.742200	0.470900
H511	H51	0.964600	0.740200	0.462000
C1001	C100	0.873200	0.272900	0.724400
H521	H52	0.815400	0.282600	0.676400
N61	N6	0.981000	0.204400	0.809800
C1011	C101	0.900000	0.221500	0.743200
H531	H53	0.858200	0.197700	0.706000
C1021	C102	0.032000	0.238600	0.861300
H541	H54	0.082500	0.227100	0.909400
O351	O35	0.420600	0.520500	0.898700
O361	O36	0.939200	0.496800	0.577700
O371	O37	0.605300	0.381700	0.039700
O381	O38	0.327100	0.342900	0.027300
C1031	C103	0.507300	0.342100	0.028400
O391	O39	0.954900	0.920300	0.950100
C1041	C104	0.022700	0.951200	0.907600
O401	O40	0.576000	0.962500	0.946300
C1051	C105	0.656000	0.738500	0.829000
H551	H55	0.701900	0.723000	0.874900
N71	N7	0.595900	0.708500	0.769600
C1061	C106	0.532000	0.731800	0.704800
H561	H56	0.490600	0.712100	0.662400
O411	O41	0.692800	0.948600	0.559100
C1071	C107	0.609700	0.292100	0.020300
Dy71	Dy7	0.318030	0.069970	0.566190
Dy81	Dy8	0.236590	0.068250	0.950850
O421	O42	0.432300	0.024000	0.875300
O431	O43	0.294100	0.156300	0.985600
O441	O44	0.183200	0.982400	0.580100
O451	O45	0.153800	0.039100	0.668000
O461	O46	0.549300	0.115900	0.958500
C1081	C108	0.573600	0.976500	0.745800
H571	H57	0.566000	0.011700	0.742800
C1091	C109	0.052800	0.932900	0.828300
C1101	C110	0.603400	0.949100	0.683200
C1111	C111	0.558500	0.900300	0.816100
H581	H58	0.544700	0.884200	0.861600
C1121	C112	0.503100	0.248500	0.004700
H591	H59	0.368400	0.250100	0.997100
C1131	C113	0.471200	0.155800	0.980300
C1141	C114	0.148000	0.992200	0.645700
C1151	C115	0.520400	0.982300	0.883600
C1161	C116	0.049800	0.881000	0.811200
H601	H60	0.031200	0.857400	0.848300
C1171	C117	0.080600	0.967400	0.773300
H611	H61	0.082300	0.001800	0.785100
C1181	C118	0.582100	0.870800	0.753600
C1191	C119	0.554700	0.952700	0.813300
C1201	C120	0.596000	0.201700	0.000100
C1211	C121	0.102400	0.900500	0.683500
H621	H62	0.118700	0.890100	0.634900
C1221	C122	0.106000	0.952900	0.701000
C1231	C123	0.606900	0.895700	0.686000
H631	H63	0.625600	0.877000	0.643200
C1241	C124	0.654100	0.789900	0.826100
H641	H64	0.696900	0.808800	0.869300
C1251	C125	0.623800	0.974200	0.608700
C1261	C126	0.074900	0.864500	0.738000
C1271	C127	0.587600	0.814400	0.757900
C1281	C128	0.525000	0.784400	0.697600
H651	H65	0.477500	0.799000	0.651200
C1291	C129	0.810400	0.288800	0.032900
H661	H66	0.884400	0.317900	0.043900
C1301	C130	0.064000	0.809600	0.719700
C1311	C131	0.793000	0.198500	0.012000
H671	H67	0.854300	0.167400	0.008800
C1321	C132	0.982800	0.791200	0.649400
H681	H68	0.939000	0.813500	0.610100
C1331	C133	0.900800	0.242200	0.029100
H691	H69	0.035400	0.240200	0.038000
C1341	C134	0.126800	0.772900	0.775600
H701	H70	0.184600	0.782600	0.823600
N81	N8	0.019000	0.704400	0.690200
C1351	C135	0.100000	0.721500	0.756800
H711	H71	0.141800	0.697700	0.794000
C1361	C136	0.968000	0.738600	0.638700
H721	H72	0.917500	0.727100	0.590600
O471	O47	0.579400	0.020500	0.601300
O481	O48	0.060800	0.996800	0.922300
