data_VUQJUN_clean_PM
_symmetry_space_group_name_H-M	'P1'
_cell_length_a	13.819000
_cell_length_b	15.382000
_cell_length_c	24.383000
_cell_angle_alpha	100.410000
_cell_angle_beta	95.250000
_cell_angle_gamma	101.090000
_symmetry_Int_Tables_number 1

loop_
_symmetry_equiv_pos_as_xyz
'x,y,z'

loop_
_atom_site_label
_atom_site_type_symbol
_atom_site_fract_x
_atom_site_fract_y
_atom_site_fract_z
Mn11	Mn1	0.174610	0.643560	0.323390
Mn21	Mn2	0.367870	0.556130	0.273840
Mn31	Mn3	0.608760	0.654090	0.324760
Mn41	Mn4	0.818580	0.698370	0.262630
Mn51	Mn5	0.825390	0.356440	0.676610
Mn61	Mn6	0.632130	0.443870	0.726160
Mn71	Mn7	0.391240	0.345910	0.675240
Mn81	Mn8	0.181420	0.301630	0.737370
H11	H1	0.288000	0.353000	0.312600
H21	H2	0.261200	0.199600	0.310600
H31	H3	0.980600	0.196000	0.335100
H41	H4	0.006400	0.347800	0.333000
H51	H5	0.239100	0.077100	0.350000
H61	H6	0.211500	0.925000	0.347300
H71	H7	0.932800	0.896900	0.284400
H81	H8	0.958700	0.049700	0.288900
H91	H9	0.220700	0.475100	0.100900
H101	H10	0.135800	0.444000	0.011400
H111	H11	0.934100	0.576000	0.069300
H121	H12	0.020900	0.611700	0.156200
H131	H13	0.550500	0.763800	0.442600
H141	H14	0.590300	0.896600	0.508500
H151	H15	0.370300	0.984600	0.434500
H161	H16	0.327200	0.850600	0.369900
H171	H17	0.686100	0.588300	0.135400
H181	H18	0.656300	0.532600	0.039900
H191	H19	0.370300	0.521100	0.044400
H201	H20	0.396800	0.565200	0.138700
H211	H21	0.693500	0.407300	0.313500
H221	H22	0.740200	0.272600	0.319200
H231	H23	0.459800	0.138700	0.262600
H241	H24	0.413500	0.272500	0.258700
H251	H25	0.753600	0.116600	0.260000
H261	H26	0.787800	0.977200	0.263300
H271	H27	0.559400	0.925400	0.349300
H281	H28	0.520000	0.059900	0.340700
H291	H29	0.766900	0.601800	0.485900
H301	H30	0.865700	0.530900	0.537000
H311	H31	0.039800	0.522100	0.417600
H321	H32	0.935300	0.582500	0.364600
H331	H33	0.712000	0.647000	0.687400
H341	H34	0.738800	0.800400	0.689400
H351	H35	0.019400	0.804000	0.664900
H361	H36	0.993600	0.652200	0.667000
H371	H37	0.760900	0.922900	0.650000
H381	H38	0.788500	0.075000	0.652700
H391	H39	0.067200	0.103100	0.715600
H401	H40	0.041300	0.950300	0.711100
H411	H41	0.779300	0.524900	0.899100
H421	H42	0.864200	0.556000	0.988600
H431	H43	0.065900	0.424000	0.930700
H441	H44	0.979100	0.388300	0.843800
H451	H45	0.449500	0.236200	0.557400
H461	H46	0.409700	0.103400	0.491500
H471	H47	0.629700	0.015400	0.565500
H481	H48	0.672800	0.149400	0.630100
H491	H49	0.313900	0.411700	0.864600
H501	H50	0.343700	0.467400	0.960100
H511	H51	0.629700	0.478900	0.955600
H521	H52	0.603200	0.434800	0.861300
H531	H53	0.306500	0.592700	0.686500
H541	H54	0.259800	0.727400	0.680800
H551	H55	0.540200	0.861300	0.737400
H561	H56	0.586500	0.727500	0.741300
H571	H57	0.246400	0.883400	0.740000
H581	H58	0.212200	0.022800	0.736700
H591	H59	0.440600	0.074600	0.650700
H601	H60	0.480000	0.940100	0.659300
H611	H61	0.233100	0.398200	0.514100
H621	H62	0.134300	0.469100	0.463000
H631	H63	0.960200	0.477900	0.582400
H641	H64	0.064700	0.417500	0.635400
C11	C1	0.149600	0.366800	0.323100
C21	C2	0.225200	0.321700	0.316500
C31	C3	0.208800	0.229100	0.315400
C41	C4	0.118400	0.180500	0.321200
C51	C5	0.042600	0.226500	0.329400
C61	C6	0.059000	0.318400	0.329000
C71	C7	0.101400	0.081400	0.320100
C81	C8	0.175900	0.041600	0.336900
C91	C9	0.159200	0.949600	0.334800
C101	C10	0.068600	0.893400	0.315000
C111	C11	0.995600	0.932600	0.298200
C121	C12	0.011500	0.025200	0.300800
C131	C13	0.166800	0.466200	0.322900
C141	C14	0.053000	0.792700	0.312500
C151	C15	0.130600	0.548500	0.138400
C161	C16	0.163600	0.497300	0.094400
C171	C17	0.112300	0.478500	0.040600
C181	C18	0.027200	0.510000	0.029500
C191	C19	0.993700	0.557300	0.074800
C201	C20	0.044800	0.577400	0.127100
C211	C21	0.186300	0.568800	0.196700
C221	C22	0.434700	0.793000	0.399140
C231	C23	0.513400	0.807900	0.440800
C241	C24	0.537600	0.888200	0.480100
C251	C25	0.486300	0.956200	0.478500
C261	C26	0.407000	0.940300	0.436500
C271	C27	0.381300	0.859900	0.397600
C281	C28	0.408300	0.708600	0.355280
C291	C29	0.545100	0.584600	0.147700
C301	C30	0.621100	0.573500	0.117400
C311	C31	0.603000	0.540300	0.059600
C321	C32	0.509600	0.518700	0.031100
C331	C33	0.434900	0.532300	0.062600
C341	C34	0.450800	0.561100	0.119000
C351	C35	0.563700	0.618700	0.210080
C361	C36	0.548500	0.354200	0.288800
C371	C37	0.646000	0.353400	0.304800
C381	C38	0.673900	0.272400	0.308100
C391	C39	0.605100	0.191500	0.295200
C401	C40	0.506400	0.192900	0.274500
C411	C41	0.478900	0.272500	0.271800
C421	C42	0.633300	0.104000	0.300400
C431	C43	0.713200	0.077500	0.277500
C441	C44	0.734600	0.994200	0.280000
C451	C45	0.677100	0.936000	0.307300
C461	C46	0.598400	0.963200	0.330300
C471	C47	0.575700	0.044600	0.326000
C481	C48	0.517300	0.443800	0.289300
C491	C49	0.694500	0.842800	0.308600
C501	C50	0.838900	0.597100	0.419600
C511	C51	0.821200	0.583800	0.471000
C521	C52	0.882400	0.543300	0.502700
C531	C53	0.967000	0.521900	0.483500
C541	C54	0.983800	0.537000	0.432000
C551	C55	0.921100	0.573700	0.400000
C561	C56	0.769000	0.635800	0.384700
C571	C57	0.850400	0.633200	0.676900
C581	C58	0.774800	0.678300	0.683500
C591	C59	0.791200	0.770900	0.684600
C601	C60	0.881600	0.819500	0.678800
C611	C61	0.957400	0.773500	0.670600
C621	C62	0.941000	0.681600	0.671000
C631	C63	0.898600	0.918600	0.679900
C641	C64	0.824100	0.958400	0.663100
C651	C65	0.840800	0.050400	0.665200
C661	C66	0.931400	0.106600	0.685000
C671	C67	0.004400	0.067400	0.701800
C681	C68	0.988500	0.974800	0.699200
C691	C69	0.833200	0.533800	0.677100
C701	C70	0.947000	0.207300	0.687500
C711	C71	0.869400	0.451500	0.861600
C721	C72	0.836400	0.502700	0.905600
C731	C73	0.887700	0.521500	0.959400
C741	C74	0.972800	0.490000	0.970500
C751	C75	0.006300	0.442700	0.925200
C761	C76	0.955200	0.422600	0.872900
C771	C77	0.813700	0.431200	0.803300
C781	C78	0.565300	0.207000	0.600860
C791	C79	0.486600	0.192100	0.559200
C801	C80	0.462400	0.111800	0.519900
C811	C81	0.513700	0.043800	0.521500
C821	C82	0.593000	0.059700	0.563500
C831	C83	0.618700	0.140100	0.602400
C841	C84	0.591700	0.291400	0.644720
C851	C85	0.454900	0.415400	0.852300
C861	C86	0.378900	0.426500	0.882600
C871	C87	0.397000	0.459700	0.940400
C881	C88	0.490400	0.481300	0.968900
C891	C89	0.565100	0.467700	0.937400
C901	C90	0.549200	0.438900	0.881000
C911	C91	0.436300	0.381300	0.789920
C921	C92	0.451500	0.645800	0.711200
C931	C93	0.354000	0.646600	0.695200
C941	C94	0.326100	0.727600	0.691900
C951	C95	0.394900	0.808500	0.704800
C961	C96	0.493600	0.807100	0.725500
C971	C97	0.521100	0.727500	0.728200
C981	C98	0.366700	0.896000	0.699600
C991	C99	0.286800	0.922500	0.722500
C1001	C100	0.265400	0.005800	0.720000
C1011	C101	0.322900	0.064000	0.692700
C1021	C102	0.401600	0.036800	0.669700
C1031	C103	0.424300	0.955400	0.674000
C1041	C104	0.482700	0.556200	0.710700
C1051	C105	0.305500	0.157200	0.691400
C1061	C106	0.161100	0.402900	0.580400
C1071	C107	0.178800	0.416200	0.529000
C1081	C108	0.117600	0.456700	0.497300
C1091	C109	0.033000	0.478100	0.516500
C1101	C110	0.016200	0.463000	0.568000
C1111	C111	0.078900	0.426300	0.600000
C1121	C112	0.231000	0.364200	0.615300
O11	O1	0.254400	0.508900	0.322850
O21	O2	0.095700	0.505100	0.323820
O31	O3	0.127300	0.764100	0.329490
O41	O4	0.971000	0.742800	0.294700
O51	O5	0.263700	0.538500	0.203320
O61	O6	0.149300	0.612500	0.234880
O71	O7	0.333600	0.694800	0.318360
O81	O8	0.462800	0.649900	0.354320
O91	O9	0.491000	0.625700	0.236590
O101	O10	0.650900	0.638700	0.234440
O111	O11	0.581000	0.512500	0.310940
O121	O12	0.429600	0.441600	0.268800
O131	O13	0.631900	0.791700	0.328660
O141	O14	0.770100	0.821700	0.287730
O151	O15	0.692300	0.654200	0.404600
O161	O16	0.785300	0.643700	0.335710
O171	O17	0.745600	0.491100	0.677150
O181	O18	0.904300	0.494900	0.676180
O191	O19	0.872700	0.235900	0.670510
O201	O20	0.029000	0.257200	0.705300
O211	O21	0.736300	0.461500	0.796680
O221	O22	0.850700	0.387500	0.765120
O231	O23	0.666400	0.305200	0.681640
O241	O24	0.537200	0.350100	0.645680
O251	O25	0.509000	0.374300	0.763410
O261	O26	0.349100	0.361300	0.765560
O271	O27	0.419000	0.487500	0.689060
O281	O28	0.570400	0.558400	0.731200
O291	O29	0.368100	0.208300	0.671340
O301	O30	0.229900	0.178300	0.712270
O311	O31	0.307700	0.345800	0.595400
O321	O32	0.214700	0.356300	0.664290
