data_VUQKOI_clean_PM
_symmetry_space_group_name_H-M	'P1'
_cell_length_a	14.196000
_cell_length_b	15.367000
_cell_length_c	16.615000
_cell_angle_alpha	76.167000
_cell_angle_beta	87.919000
_cell_angle_gamma	64.595000
_symmetry_Int_Tables_number 1

loop_
_symmetry_equiv_pos_as_xyz
'x,y,z'

loop_
_atom_site_label
_atom_site_type_symbol
_atom_site_fract_x
_atom_site_fract_y
_atom_site_fract_z
Cd11	Cd1	0.499660	0.440440	0.321590
Cd21	Cd2	0.654460	0.437140	0.509470
Cd31	Cd3	0.456860	0.568660	0.087980
Cd41	Cd4	0.500340	0.559560	0.678410
Cd51	Cd5	0.345540	0.562860	0.490530
Cd61	Cd6	0.543140	0.431340	0.912020
P11	P1	0.447000	0.026480	0.199210
P21	P2	0.014300	0.995490	0.828970
P31	P3	0.553000	0.973520	0.800790
P41	P4	0.985700	0.004510	0.171030
H11	H1	0.153900	0.169500	0.166300
H21	H2	0.055100	0.179800	0.215900
H31	H3	0.109300	0.249100	0.218600
H41	H4	0.155500	0.132700	0.406700
H51	H5	0.072500	0.111000	0.366100
H61	H6	0.180900	0.023700	0.404000
H71	H7	0.492100	0.798700	0.529200
H81	H8	0.454900	0.911300	0.526700
H91	H9	0.384300	0.878300	0.482900
H101	H10	0.653700	0.830100	0.466200
H111	H11	0.634600	0.747900	0.438700
H121	H12	0.648400	0.831900	0.371700
H131	H13	0.473900	0.824300	0.243900
H141	H14	0.474300	0.681200	0.223800
H151	H15	0.454900	0.777200	0.984900
H161	H16	0.457900	0.922000	0.995900
H171	H17	0.335700	0.248600	0.199400
H181	H18	0.346700	0.363200	0.262400
H191	H19	0.649800	0.238800	0.269000
H201	H20	0.649300	0.122100	0.206100
H211	H21	0.669100	0.230700	0.600100
H221	H22	0.749500	0.092800	0.707500
H231	H23	0.925000	0.215200	0.768600
H241	H24	0.841500	0.347100	0.655700
H251	H25	0.158000	0.756100	0.839400
H261	H26	0.084000	0.872500	0.037800
H271	H27	0.091100	0.988900	0.558800
H281	H28	0.202200	0.898800	0.575100
H291	H29	0.115800	0.899400	0.636700
H301	H30	0.285700	0.039400	0.657100
H311	H31	0.301100	0.986500	0.584600
H321	H32	0.211900	0.094100	0.575200
H331	H33	0.118200	0.084700	0.981300
H341	H34	0.214600	0.106000	0.993400
H351	H35	0.108500	0.193100	0.950600
H361	H36	0.223500	0.211900	0.807600
H371	H37	0.310600	0.137100	0.877900
H381	H38	0.297800	0.105300	0.797600
H391	H39	0.241000	0.750800	0.104900
H401	H40	0.315700	0.639800	0.911800
H411	H41	0.846100	0.830500	0.833700
H421	H42	0.944900	0.820200	0.784100
H431	H43	0.890700	0.750900	0.781400
H441	H44	0.844500	0.867300	0.593300
H451	H45	0.927500	0.889000	0.633900
H461	H46	0.819100	0.976300	0.596000
H471	H47	0.507900	0.201300	0.470800
H481	H48	0.545100	0.088700	0.473300
H491	H49	0.615700	0.121700	0.517100
H501	H50	0.346300	0.169900	0.533800
H511	H51	0.365400	0.252100	0.561300
H521	H52	0.351600	0.168100	0.628300
H531	H53	0.526100	0.175700	0.756100
H541	H54	0.525700	0.318800	0.776200
H551	H55	0.545100	0.222800	0.015100
H561	H56	0.542100	0.078000	0.004100
H571	H57	0.664300	0.751400	0.800600
H581	H58	0.653300	0.636800	0.737600
H591	H59	0.350200	0.761200	0.731000
H601	H60	0.350700	0.877900	0.793900
H611	H61	0.330900	0.769300	0.399900
H621	H62	0.250500	0.907200	0.292500
H631	H63	0.075000	0.784800	0.231400
H641	H64	0.158500	0.652900	0.344300
H651	H65	0.842000	0.243900	0.160600
H661	H66	0.916000	0.127500	0.962200
H671	H67	0.908900	0.011100	0.441200
H681	H68	0.797800	0.101200	0.424900
H691	H69	0.884200	0.100600	0.363300
H701	H70	0.714300	0.960600	0.342900
H711	H71	0.698900	0.013500	0.415400
H721	H72	0.788100	0.905900	0.424800
H731	H73	0.881800	0.915300	0.018700
H741	H74	0.785400	0.894000	0.006600
H751	H75	0.891500	0.806900	0.049400
H761	H76	0.776500	0.788100	0.192400
H771	H77	0.689400	0.862900	0.122100
H781	H78	0.702200	0.894700	0.202400
H791	H79	0.759000	0.249200	0.895100
H801	H80	0.684300	0.360200	0.088200
C11	C1	0.293500	0.058100	0.283500
C21	C2	0.455200	0.947300	0.348300
C31	C3	0.120900	0.183600	0.216100
C41	C4	0.145800	0.092400	0.374700
C51	C5	0.455000	0.865600	0.496100
C61	C6	0.620900	0.816800	0.424100
C71	C7	0.466300	0.889200	0.121200
C81	C8	0.470700	0.816200	0.190500
C91	C9	0.470100	0.731000	0.177400
C101	C10	0.459300	0.786800	0.037600
C111	C11	0.460700	0.874200	0.043400
C121	C12	0.491500	0.173200	0.198000
C131	C13	0.400100	0.245300	0.213400
C141	C14	0.408000	0.313400	0.251000
C151	C15	0.586100	0.240600	0.254900
C161	C16	0.586900	0.170400	0.217800
C171	C17	0.722400	0.227000	0.633600
C181	C18	0.769500	0.144400	0.698500
C191	C19	0.845900	0.139100	0.749600
C201	C20	0.873900	0.215800	0.734700
C211	C21	0.822800	0.294700	0.666900
C221	C22	0.107800	0.827500	0.931600
C231	C23	0.174800	0.757000	0.892700
C241	C24	0.130300	0.826100	0.011200
C251	C25	0.136600	0.006900	0.721300
C261	C26	0.140800	0.066400	0.835600
C271	C27	0.144000	0.939900	0.600900
C281	C28	0.250500	0.030800	0.613400
C291	C29	0.154400	0.123900	0.957400
C301	C30	0.261200	0.143200	0.836500
C311	C31	0.224700	0.753100	0.050500
C321	C32	0.268500	0.687400	0.937000
C331	C33	0.706500	0.941900	0.716500
C341	C34	0.544800	0.052700	0.651700
C351	C35	0.879100	0.816400	0.783900
C361	C36	0.854200	0.907600	0.625300
C371	C37	0.545000	0.134400	0.503900
C381	C38	0.379100	0.183200	0.575900
C391	C39	0.533700	0.110800	0.878800
C401	C40	0.529300	0.183800	0.809500
C411	C41	0.529900	0.269000	0.822600
C421	C42	0.540700	0.213200	0.962400
C431	C43	0.539300	0.125800	0.956600
C441	C44	0.508500	0.826800	0.802000
C451	C45	0.599900	0.754700	0.786600
C461	C46	0.592000	0.686600	0.749000
C471	C47	0.413900	0.759400	0.745100
C481	C48	0.413100	0.829600	0.782200
C491	C49	0.277600	0.773000	0.366400
C501	C50	0.230500	0.855600	0.301500
C511	C51	0.154100	0.860900	0.250400
C521	C52	0.126100	0.784200	0.265300
C531	C53	0.177200	0.705300	0.333100
C541	C54	0.892200	0.172500	0.068400
C551	C55	0.825200	0.243000	0.107300
C561	C56	0.869700	0.173900	0.988800
C571	C57	0.863400	0.993100	0.278700
C581	C58	0.859200	0.933600	0.164400
C591	C59	0.856000	0.060100	0.399100
C601	C60	0.749500	0.969200	0.386600
C611	C61	0.845600	0.876100	0.042600
C621	C62	0.738800	0.856800	0.163500
C631	C63	0.775300	0.246900	0.949500
C641	C64	0.731500	0.312600	0.063000
N11	N1	0.513500	0.955000	0.283800
N21	N2	0.352900	0.996300	0.352300
N31	N3	0.326000	0.078200	0.206300
N41	N4	0.507600	0.878700	0.417700
N51	N5	0.191100	0.108000	0.291400
N61	N6	0.464000	0.715400	0.103100
N71	N7	0.499000	0.311500	0.271800
N81	N8	0.748900	0.300000	0.616900
N91	N9	0.062800	0.974200	0.744700
N101	N10	0.175300	0.050500	0.761800
N111	N11	0.066000	0.045100	0.875300
N121	N12	0.178400	0.988900	0.649200
N131	N13	0.187400	0.105600	0.876700
N141	N14	0.293900	0.685700	0.014400
N151	N15	0.486500	0.045000	0.716200
N161	N16	0.647100	0.003700	0.647700
N171	N17	0.674000	0.921800	0.793700
N181	N18	0.492400	0.121300	0.582300
N191	N19	0.808900	0.892000	0.708600
N201	N20	0.536000	0.284600	0.896900
N211	N21	0.501000	0.688500	0.728200
N221	N22	0.251100	0.700000	0.383100
N231	N23	0.937200	0.025800	0.255300
N241	N24	0.824700	0.949500	0.238200
N251	N25	0.934000	0.954900	0.124700
N261	N26	0.821600	0.011100	0.350800
N271	N27	0.812600	0.894400	0.123300
N281	N28	0.706100	0.314300	0.985600
Cl11	Cl1	0.662540	0.315400	0.422520
Cl21	Cl2	0.509470	0.572360	0.396230
Cl31	Cl3	0.617180	0.469330	0.201130
Cl41	Cl4	0.345190	0.568780	0.216610
Cl51	Cl5	0.353940	0.428420	0.422290
Cl61	Cl6	0.556810	0.578510	0.953060
Cl71	Cl7	0.337460	0.684600	0.577480
Cl81	Cl8	0.490530	0.427640	0.603770
Cl91	Cl9	0.382820	0.530670	0.798870
Cl101	Cl10	0.654810	0.431220	0.783390
Cl111	Cl11	0.646060	0.571580	0.577710
Cl121	Cl12	0.443190	0.421490	0.046940
O11	O1	0.475000	0.975000	0.123200
O21	O2	0.492100	0.104100	0.156300
O31	O3	0.889900	0.056100	0.816200
O41	O4	0.011200	0.900000	0.890300
O51	O5	0.525000	0.025000	0.876800
O61	O6	0.507900	0.895900	0.843700
O71	O7	0.110100	0.943900	0.183800
O81	O8	0.988800	0.100000	0.109700
