data_VUQKAU02_clean_PM
_symmetry_space_group_name_H-M	'P1'
_cell_length_a	12.168700
_cell_length_b	13.943000
_cell_length_c	18.250100
_cell_angle_alpha	90.000000
_cell_angle_beta	90.000000
_cell_angle_gamma	113.169000
_symmetry_Int_Tables_number 1

loop_
_symmetry_equiv_pos_as_xyz
'x,y,z'

loop_
_atom_site_label
_atom_site_type_symbol
_atom_site_fract_x
_atom_site_fract_y
_atom_site_fract_z
Mn11	Mn1	0.326870	0.582370	0.519380
Mn21	Mn2	0.173130	0.417630	0.019380
Mn31	Mn3	0.673130	0.417630	0.480620
Mn41	Mn4	0.826870	0.582370	0.980620
Mn51	Mn5	0.000000	0.500000	0.500000
Mn61	Mn6	0.500000	0.500000	0.000000
H11	H1	0.346100	0.792000	0.701600
H21	H2	0.366100	0.937000	0.772000
H31	H3	0.054800	0.931500	0.690000
H41	H4	0.031200	0.783100	0.622500
H51	H5	0.060200	0.014400	0.806300
H61	H6	0.093900	0.167600	0.870700
H71	H7	0.445400	0.275300	0.821000
H81	H8	0.413400	0.121200	0.758200
H91	H9	0.249500	0.247400	0.416600
H101	H10	0.157300	0.066600	0.422900
H111	H11	0.912700	0.089700	0.563900
H121	H12	0.999800	0.270400	0.553600
H131	H13	0.153900	0.208000	0.201600
H141	H14	0.133900	0.063000	0.272000
H151	H15	0.445200	0.068500	0.190000
H161	H16	0.468800	0.216900	0.122500
H171	H17	0.439800	0.985600	0.306300
H181	H18	0.406100	0.832400	0.370700
H191	H19	0.054600	0.724700	0.321000
H201	H20	0.086600	0.878800	0.258200
H211	H21	0.250500	0.752600	0.916600
H221	H22	0.342700	0.933400	0.922900
H231	H23	0.587300	0.910300	0.063900
H241	H24	0.500200	0.729600	0.053600
H251	H25	0.653900	0.208000	0.298400
H261	H26	0.633900	0.063000	0.228000
H271	H27	0.945200	0.068500	0.310000
H281	H28	0.968800	0.216900	0.377500
H291	H29	0.939800	0.985600	0.193700
H301	H30	0.906100	0.832400	0.129300
H311	H31	0.554600	0.724700	0.179000
H321	H32	0.586600	0.878800	0.241800
H331	H33	0.750500	0.752600	0.583400
H341	H34	0.842700	0.933400	0.577100
H351	H35	0.087300	0.910300	0.436100
H361	H36	0.000200	0.729600	0.446400
H371	H37	0.846100	0.792000	0.798400
H381	H38	0.866100	0.937000	0.728000
H391	H39	0.554800	0.931500	0.810000
H401	H40	0.531200	0.783100	0.877500
H411	H41	0.560200	0.014400	0.693700
H421	H42	0.593900	0.167600	0.629300
H431	H43	0.945400	0.275300	0.679000
H441	H44	0.913400	0.121200	0.741800
H451	H45	0.749500	0.247400	0.083400
H461	H46	0.657300	0.066600	0.077100
H471	H47	0.412700	0.089700	0.936100
H481	H48	0.499800	0.270400	0.946400
C11	C1	0.187650	0.773970	0.653570
C21	C2	0.286750	0.820230	0.699040
C31	C3	0.299000	0.907200	0.740580
C41	C4	0.214500	0.951650	0.737020
C51	C5	0.114380	0.903510	0.692460
C61	C6	0.100630	0.815420	0.651820
C71	C7	0.233810	0.050180	0.776790
C81	C8	0.139010	0.066410	0.809910
C91	C9	0.159200	0.158020	0.848130
C101	C10	0.273060	0.235700	0.853920
C111	C11	0.367330	0.221720	0.819010
C121	C12	0.347990	0.129960	0.781300
C131	C13	0.177420	0.682250	0.605500
C141	C14	0.294650	0.330800	0.901360
C151	C15	0.134490	0.276990	0.485390
C161	C16	0.180680	0.215490	0.446460
C171	C17	0.126440	0.107650	0.451140
C181	C18	0.027790	0.057980	0.496200
C191	C19	0.981280	0.121230	0.533840
C201	C20	0.033520	0.229090	0.528070
C211	C21	0.196690	0.392920	0.485260
C221	C22	0.312350	0.226030	0.153570
C231	C23	0.213250	0.179770	0.199040
C241	C24	0.201000	0.092800	0.240580
C251	C25	0.285500	0.048350	0.237020
C261	C26	0.385620	0.096490	0.192460
C271	C27	0.399370	0.184580	0.151820
C281	C28	0.266190	0.949820	0.276790
C291	C29	0.360990	0.933590	0.309910
C301	C30	0.340800	0.841980	0.348130
C311	C31	0.226940	0.764300	0.353920
C321	C32	0.132670	0.778280	0.319010
C331	C33	0.152010	0.870040	0.281300
C341	C34	0.322580	0.317750	0.105500
C351	C35	0.205350	0.669200	0.401360
C361	C36	0.365510	0.723010	0.985390
C371	C37	0.319320	0.784510	0.946460
C381	C38	0.373560	0.892350	0.951140
C391	C39	0.472210	0.942020	0.996200
C401	C40	0.518720	0.878770	0.033840
C411	C41	0.466480	0.770910	0.028070
C421	C42	0.303310	0.607080	0.985260
C431	C43	0.812350	0.226030	0.346430
C441	C44	0.713250	0.179770	0.300960
C451	C45	0.701000	0.092800	0.259420
C461	C46	0.785500	0.048350	0.262980
C471	C47	0.885620	0.096490	0.307540
C481	C48	0.899370	0.184580	0.348180
C491	C49	0.766190	0.949820	0.223210
C501	C50	0.860990	0.933590	0.190090
C511	C51	0.840800	0.841980	0.151870
C521	C52	0.726940	0.764300	0.146080
C531	C53	0.632670	0.778280	0.180990
C541	C54	0.652010	0.870040	0.218700
C551	C55	0.822580	0.317750	0.394500
C561	C56	0.705350	0.669200	0.098640
C571	C57	0.865510	0.723010	0.514610
C581	C58	0.819320	0.784510	0.553540
C591	C59	0.873560	0.892350	0.548860
C601	C60	0.972210	0.942020	0.503800
C611	C61	0.018720	0.878770	0.466160
C621	C62	0.966480	0.770910	0.471930
C631	C63	0.803310	0.607080	0.514740
C641	C64	0.687650	0.773970	0.846430
C651	C65	0.786750	0.820230	0.800960
C661	C66	0.799000	0.907200	0.759420
C671	C67	0.714500	0.951650	0.762980
C681	C68	0.614380	0.903510	0.807540
C691	C69	0.600630	0.815420	0.848180
C701	C70	0.733810	0.050180	0.723210
C711	C71	0.639010	0.066410	0.690090
C721	C72	0.659200	0.158020	0.651870
C731	C73	0.773060	0.235700	0.646080
C741	C74	0.867330	0.221720	0.680990
C751	C75	0.847990	0.129960	0.718700
C761	C76	0.677420	0.682250	0.894500
C771	C77	0.794650	0.330800	0.598640
C781	C78	0.634490	0.276990	0.014610
C791	C79	0.680680	0.215490	0.053540
C801	C80	0.626440	0.107650	0.048860
C811	C81	0.527790	0.057980	0.003800
C821	C82	0.481280	0.121230	0.966160
C831	C83	0.533520	0.229090	0.971930
C841	C84	0.696690	0.392920	0.014740
O11	O1	0.273410	0.670260	0.594990
O21	O2	0.076850	0.627020	0.580070
O31	O3	0.202680	0.339940	0.925830
O41	O4	0.400990	0.391080	0.913000
O51	O5	0.299990	0.434720	0.459860
O61	O6	0.144930	0.446820	0.515540
O71	O7	0.226590	0.329740	0.094990
O81	O8	0.423150	0.372980	0.080070
O91	O9	0.297320	0.660060	0.425830
O101	O10	0.099010	0.608920	0.413000
O111	O11	0.200010	0.565280	0.959860
O121	O12	0.355070	0.553180	0.015540
O131	O13	0.726590	0.329740	0.405010
O141	O14	0.923150	0.372980	0.419930
O151	O15	0.797320	0.660060	0.074170
O161	O16	0.599010	0.608920	0.087000
O171	O17	0.700010	0.565280	0.540140
O181	O18	0.855070	0.553180	0.484460
O191	O19	0.773410	0.670260	0.905010
O201	O20	0.576850	0.627020	0.919930
O211	O21	0.702680	0.339940	0.574170
O221	O22	0.900990	0.391080	0.587000
O231	O23	0.799990	0.434720	0.040140
O241	O24	0.644930	0.446820	0.984460
