data_VUQKAU01_clean_PM
_symmetry_space_group_name_H-M	'P1'
_cell_length_a	13.944400
_cell_length_b	18.118700
_cell_length_c	12.075800
_cell_angle_alpha	90.000000
_cell_angle_beta	112.894000
_cell_angle_gamma	90.000000
_symmetry_Int_Tables_number 1

loop_
_symmetry_equiv_pos_as_xyz
'x,y,z'

loop_
_atom_site_label
_atom_site_type_symbol
_atom_site_fract_x
_atom_site_fract_y
_atom_site_fract_z
Mn11	Mn1	0.418650	0.519440	0.170750
O11	O1	0.373050	0.580030	0.423530
O21	O2	0.330410	0.595420	0.225180
O31	O3	0.657710	0.924450	0.298880
O41	O4	0.607400	0.911900	0.098770
O51	O5	0.553300	0.516250	0.353940
O61	O6	0.566550	0.460240	0.197750
C11	C1	0.317910	0.605650	0.321960
C21	C2	0.226110	0.653610	0.311780
C31	C3	0.184740	0.651530	0.399910
H11	H1	0.216700	0.622900	0.468400
C41	C4	0.095870	0.692000	0.386220
H21	H2	0.068400	0.689300	0.445000
C51	C5	0.047360	0.736720	0.285220
C61	C6	0.092040	0.740940	0.199660
H31	H3	0.062900	0.772100	0.133800
C71	C7	0.179310	0.699230	0.211680
H41	H4	0.206700	0.701700	0.152800
C81	C8	0.667400	0.900050	0.206010
C91	C9	0.762390	0.852850	0.227360
C101	C10	0.840560	0.847660	0.342540
H51	H5	0.831300	0.870000	0.406900
C111	C11	0.932200	0.809360	0.361910
H61	H6	0.983000	0.805900	0.439300
C121	C12	0.948820	0.775980	0.266130
C131	C13	0.869030	0.780000	0.151270
H71	H7	0.877900	0.757300	0.086800
C141	C14	0.776690	0.817410	0.132290
H81	H8	0.724200	0.818800	0.055700
C151	C15	0.607700	0.485700	0.302100
C161	C16	0.723420	0.485830	0.364430
C171	C17	0.770980	0.528970	0.466500
H91	H9	0.730500	0.554200	0.499700
C181	C18	0.878750	0.534530	0.519100
H101	H10	0.909400	0.564200	0.586500
C191	C19	0.942290	0.496280	0.472560
C201	C20	0.892800	0.450710	0.372550
H111	H11	0.933100	0.422900	0.342100
C211	C21	0.784930	0.446110	0.317940
H121	H12	0.753800	0.416600	0.250400
Mn21	Mn2	0.581350	0.019440	0.329250
O71	O7	0.626950	0.080030	0.076470
O81	O8	0.669590	0.095420	0.274820
O91	O9	0.342290	0.424450	0.201120
O101	O10	0.392600	0.411900	0.401230
O111	O11	0.446700	0.016250	0.146060
O121	O12	0.433450	0.960240	0.302250
C221	C22	0.682090	0.105650	0.178040
C231	C23	0.773890	0.153610	0.188220
C241	C24	0.815260	0.151530	0.100090
H131	H13	0.783300	0.122900	0.031600
C251	C25	0.904130	0.192000	0.113780
H141	H14	0.931600	0.189300	0.055000
C261	C26	0.952640	0.236720	0.214780
C271	C27	0.907960	0.240940	0.300340
H151	H15	0.937100	0.272100	0.366200
C281	C28	0.820690	0.199230	0.288320
H161	H16	0.793300	0.201700	0.347200
C291	C29	0.332600	0.400050	0.293990
C301	C30	0.237610	0.352850	0.272640
C311	C31	0.159440	0.347660	0.157460
H171	H17	0.168700	0.370000	0.093100
C321	C32	0.067800	0.309360	0.138090
H181	H18	0.017000	0.305900	0.060700
C331	C33	0.051180	0.275980	0.233870
C341	C34	0.130970	0.280000	0.348730
H191	H19	0.122100	0.257300	0.413200
C351	C35	0.223310	0.317410	0.367710
H201	H20	0.275800	0.318800	0.444300
C361	C36	0.392300	0.985700	0.197900
C371	C37	0.276580	0.985830	0.135570
C381	C38	0.229020	0.028970	0.033500
H211	H21	0.269500	0.054200	0.000300
C391	C39	0.121250	0.034530	0.980900
H221	H22	0.090600	0.064200	0.913500
C401	C40	0.057710	0.996280	0.027440
C411	C41	0.107200	0.950710	0.127450
H231	H23	0.066900	0.922900	0.157900
C421	C42	0.215070	0.946110	0.182060
H241	H24	0.246200	0.916600	0.249600
Mn31	Mn3	0.581350	0.480560	0.829250
O131	O13	0.626950	0.419970	0.576470
O141	O14	0.669590	0.404580	0.774820
O151	O15	0.342290	0.075550	0.701120
O161	O16	0.392600	0.088100	0.901230
O171	O17	0.446700	0.483750	0.646060
O181	O18	0.433450	0.539760	0.802250
C431	C43	0.682090	0.394350	0.678040
C441	C44	0.773890	0.346390	0.688220
C451	C45	0.815260	0.348470	0.600090
H251	H25	0.783300	0.377100	0.531600
C461	C46	0.904130	0.308000	0.613780
H261	H26	0.931600	0.310700	0.555000
C471	C47	0.952640	0.263280	0.714780
C481	C48	0.907960	0.259060	0.800340
H271	H27	0.937100	0.227900	0.866200
C491	C49	0.820690	0.300770	0.788320
H281	H28	0.793300	0.298300	0.847200
C501	C50	0.332600	0.099950	0.793990
C511	C51	0.237610	0.147150	0.772640
C521	C52	0.159440	0.152340	0.657460
H291	H29	0.168700	0.130000	0.593100
C531	C53	0.067800	0.190640	0.638090
H301	H30	0.017000	0.194100	0.560700
C541	C54	0.051180	0.224020	0.733870
C551	C55	0.130970	0.220000	0.848730
H311	H31	0.122100	0.242700	0.913200
C561	C56	0.223310	0.182590	0.867710
H321	H32	0.275800	0.181200	0.944300
C571	C57	0.392300	0.514300	0.697900
C581	C58	0.276580	0.514170	0.635570
C591	C59	0.229020	0.471030	0.533500
H331	H33	0.269500	0.445800	0.500300
C601	C60	0.121250	0.465470	0.480900
H341	H34	0.090600	0.435800	0.413500
C611	C61	0.057710	0.503720	0.527440
C621	C62	0.107200	0.549290	0.627450
H351	H35	0.066900	0.577100	0.657900
C631	C63	0.215070	0.553890	0.682060
H361	H36	0.246200	0.583400	0.749600
Mn41	Mn4	0.418650	0.980560	0.670750
O191	O19	0.373050	0.919970	0.923530
O201	O20	0.330410	0.904580	0.725180
O211	O21	0.657710	0.575550	0.798880
O221	O22	0.607400	0.588100	0.598770
O231	O23	0.553300	0.983750	0.853940
O241	O24	0.566550	0.039760	0.697750
C641	C64	0.317910	0.894350	0.821960
C651	C65	0.226110	0.846390	0.811780
C661	C66	0.184740	0.848470	0.899910
H371	H37	0.216700	0.877100	0.968400
C671	C67	0.095870	0.808000	0.886220
H381	H38	0.068400	0.810700	0.945000
C681	C68	0.047360	0.763280	0.785220
C691	C69	0.092040	0.759060	0.699660
H391	H39	0.062900	0.727900	0.633800
C701	C70	0.179310	0.800770	0.711680
H401	H40	0.206700	0.798300	0.652800
C711	C71	0.667400	0.599950	0.706010
C721	C72	0.762390	0.647150	0.727360
C731	C73	0.840560	0.652340	0.842540
H411	H41	0.831300	0.630000	0.906900
C741	C74	0.932200	0.690640	0.861910
H421	H42	0.983000	0.694100	0.939300
C751	C75	0.948820	0.724020	0.766130
C761	C76	0.869030	0.720000	0.651270
H431	H43	0.877900	0.742700	0.586800
C771	C77	0.776690	0.682590	0.632290
H441	H44	0.724200	0.681200	0.555700
C781	C78	0.607700	0.014300	0.802100
C791	C79	0.723420	0.014170	0.864430
C801	C80	0.770980	0.971030	0.966500
H451	H45	0.730500	0.945800	0.999700
C811	C81	0.878750	0.965470	0.019100
H461	H46	0.909400	0.935800	0.086500
C821	C82	0.942290	0.003720	0.972560
C831	C83	0.892800	0.049290	0.872550
H471	H47	0.933100	0.077100	0.842100
C841	C84	0.784930	0.053890	0.817940
H481	H48	0.753800	0.083400	0.750400
Mn51	Mn5	0.500000	0.500000	0.500000
Mn61	Mn6	0.500000	0.000000	0.000000
