data_VUQKAU_clean_PM
_symmetry_space_group_name_H-M	'P1'
_cell_length_a	12.351000
_cell_length_b	13.958000
_cell_length_c	18.507000
_cell_angle_alpha	90.000000
_cell_angle_beta	90.000000
_cell_angle_gamma	113.790000
_symmetry_Int_Tables_number 1

loop_
_symmetry_equiv_pos_as_xyz
'x,y,z'

loop_
_atom_site_label
_atom_site_type_symbol
_atom_site_fract_x
_atom_site_fract_y
_atom_site_fract_z
Mn11	Mn1	0.677210	0.915080	0.480990
Mn21	Mn2	0.822790	0.084920	0.980990
Mn31	Mn3	0.322790	0.084920	0.519010
Mn41	Mn4	0.177210	0.915080	0.019010
Mn51	Mn5	0.000000	0.000000	0.500000
Mn61	Mn6	0.500000	0.000000	0.000000
H11	H1	0.598200	0.662100	0.627700
H21	H2	0.565100	0.512300	0.693300
H31	H3	0.909400	0.619900	0.739300
H41	H4	0.943100	0.772400	0.676700
H51	H5	0.862900	0.435200	0.729700
H61	H6	0.843100	0.293500	0.801200
H71	H7	0.535300	0.284600	0.876700
H81	H8	0.557800	0.428600	0.808100
H91	H9	0.998500	0.230900	0.448100
H101	H10	0.085200	0.410700	0.438300
H111	H11	0.846900	0.431300	0.576300
H121	H12	0.755600	0.251200	0.582800
H131	H13	0.901800	0.337900	0.127700
H141	H14	0.934900	0.487700	0.193300
H151	H15	0.590600	0.380100	0.239300
H161	H16	0.556900	0.227600	0.176700
H171	H17	0.637100	0.564800	0.229700
H181	H18	0.656900	0.706500	0.301200
H191	H19	0.964700	0.715400	0.376700
H201	H20	0.942200	0.571400	0.308100
H211	H21	0.501500	0.769100	0.948100
H221	H22	0.414800	0.589300	0.938300
H231	H23	0.653100	0.568700	0.076300
H241	H24	0.744400	0.748800	0.082800
H251	H25	0.401800	0.337900	0.372300
H261	H26	0.434900	0.487700	0.306700
H271	H27	0.090600	0.380100	0.260700
H281	H28	0.056900	0.227600	0.323300
H291	H29	0.137100	0.564800	0.270300
H301	H30	0.156900	0.706500	0.198800
H311	H31	0.464700	0.715400	0.123300
H321	H32	0.442200	0.571400	0.191900
H331	H33	0.001500	0.769100	0.551900
H341	H34	0.914800	0.589300	0.561700
H351	H35	0.153100	0.568700	0.423700
H361	H36	0.244400	0.748800	0.417200
H371	H37	0.098200	0.662100	0.872300
H381	H38	0.065100	0.512300	0.806700
H391	H39	0.409400	0.619900	0.760700
H401	H40	0.443100	0.772400	0.823300
H411	H41	0.362900	0.435200	0.770300
H421	H42	0.343100	0.293500	0.698800
H431	H43	0.035300	0.284600	0.623300
H441	H44	0.057800	0.428600	0.691900
H451	H45	0.498500	0.230900	0.051900
H461	H46	0.585200	0.410700	0.061700
H471	H47	0.346900	0.431300	0.923700
H481	H48	0.255600	0.251200	0.917200
C11	C1	0.774100	0.732600	0.643900
C21	C2	0.661500	0.654100	0.650000
C31	C3	0.641700	0.563400	0.689100
C41	C4	0.734600	0.548000	0.722000
C51	C5	0.846200	0.627800	0.716700
C61	C6	0.867100	0.719800	0.678700
C71	C7	0.714400	0.450100	0.762800
C81	C8	0.797900	0.406300	0.760200
C91	C9	0.785300	0.320300	0.802500
C101	C10	0.686400	0.273700	0.847100
C111	C11	0.602200	0.315300	0.847900
C121	C12	0.615800	0.402000	0.806500
C131	C13	0.795700	0.827300	0.596400
C141	C14	0.675200	0.182400	0.895500
C151	C15	0.867300	0.222600	0.515300
C161	C16	0.966300	0.271100	0.473000
C171	C17	0.018500	0.379200	0.467100
C181	C18	0.972200	0.441500	0.504000
C191	C19	0.876100	0.391300	0.548800
C201	C20	0.822000	0.283000	0.553700
C211	C21	0.806000	0.106100	0.516000
C221	C22	0.725900	0.267400	0.143900
C231	C23	0.838500	0.345900	0.150000
C241	C24	0.858300	0.436600	0.189100
C251	C25	0.765400	0.452000	0.222000
C261	C26	0.653800	0.372200	0.216700
C271	C27	0.632900	0.280200	0.178700
C281	C28	0.785600	0.549900	0.262800
C291	C29	0.702100	0.593700	0.260200
C301	C30	0.714700	0.679700	0.302500
C311	C31	0.813600	0.726300	0.347100
C321	C32	0.897800	0.684700	0.347900
C331	C33	0.884200	0.598000	0.306500
C341	C34	0.704300	0.172700	0.096400
C351	C35	0.824800	0.817600	0.395500
C361	C36	0.632700	0.777400	0.015300
C371	C37	0.533700	0.728900	0.973000
C381	C38	0.481500	0.620800	0.967100
C391	C39	0.527800	0.558500	0.004000
C401	C40	0.623900	0.608700	0.048800
C411	C41	0.678000	0.717000	0.053700
C421	C42	0.694000	0.893900	0.016000
C431	C43	0.225900	0.267400	0.356100
C441	C44	0.338500	0.345900	0.350000
C451	C45	0.358300	0.436600	0.310900
C461	C46	0.265400	0.452000	0.278000
C471	C47	0.153800	0.372200	0.283300
C481	C48	0.132900	0.280200	0.321300
C491	C49	0.285600	0.549900	0.237200
C501	C50	0.202100	0.593700	0.239800
C511	C51	0.214700	0.679700	0.197500
C521	C52	0.313600	0.726300	0.152900
C531	C53	0.397800	0.684700	0.152100
C541	C54	0.384200	0.598000	0.193500
C551	C55	0.204300	0.172700	0.403600
C561	C56	0.324800	0.817600	0.104500
C571	C57	0.132700	0.777400	0.484700
C581	C58	0.033700	0.728900	0.527000
C591	C59	0.981500	0.620800	0.532900
C601	C60	0.027800	0.558500	0.496000
C611	C61	0.123900	0.608700	0.451200
C621	C62	0.178000	0.717000	0.446300
C631	C63	0.194000	0.893900	0.484000
C641	C64	0.274100	0.732600	0.856100
C651	C65	0.161500	0.654100	0.850000
C661	C66	0.141700	0.563400	0.810900
C671	C67	0.234600	0.548000	0.778000
C681	C68	0.346200	0.627800	0.783300
C691	C69	0.367100	0.719800	0.821300
C701	C70	0.214400	0.450100	0.737200
C711	C71	0.297900	0.406300	0.739800
C721	C72	0.285300	0.320300	0.697500
C731	C73	0.186400	0.273700	0.652900
C741	C74	0.102200	0.315300	0.652100
C751	C75	0.115800	0.402000	0.693500
C761	C76	0.295700	0.827300	0.903600
C771	C77	0.175200	0.182400	0.604500
C781	C78	0.367300	0.222600	0.984700
C791	C79	0.466300	0.271100	0.027000
C801	C80	0.518500	0.379200	0.032900
C811	C81	0.472200	0.441500	0.996000
C821	C82	0.376100	0.391300	0.951200
C831	C83	0.322000	0.283000	0.946300
C841	C84	0.306000	0.106100	0.984000
O11	O1	0.901000	0.888700	0.585100
O21	O2	0.705500	0.835900	0.572500
O31	O3	0.770700	0.171900	0.906200
O41	O4	0.576500	0.126900	0.920400
O51	O5	0.856300	0.052100	0.485900
O61	O6	0.703100	0.062400	0.540900
O71	O7	0.599000	0.111300	0.085100
O81	O8	0.794500	0.164100	0.072500
O91	O9	0.729300	0.828100	0.406200
O101	O10	0.923500	0.873100	0.420400
O111	O11	0.643700	0.947900	0.985900
O121	O12	0.796900	0.937600	0.040900
O131	O13	0.099000	0.111300	0.414900
O141	O14	0.294500	0.164100	0.427500
O151	O15	0.229300	0.828100	0.093800
O161	O16	0.423500	0.873100	0.079600
O171	O17	0.143700	0.947900	0.514100
O181	O18	0.296900	0.937600	0.459100
O191	O19	0.401000	0.888700	0.914900
O201	O20	0.205500	0.835900	0.927500
O211	O21	0.270700	0.171900	0.593800
O221	O22	0.076500	0.126900	0.579600
O231	O23	0.356300	0.052100	0.014100
O241	O24	0.203100	0.062400	0.959100
