data_VURLIF_clean_PM
_symmetry_space_group_name_H-M	'P1'
_cell_length_a	27.768000
_cell_length_b	7.900000
_cell_length_c	18.298000
_cell_angle_alpha	90.000000
_cell_angle_beta	108.329000
_cell_angle_gamma	90.000000
_symmetry_Int_Tables_number 1

loop_
_symmetry_equiv_pos_as_xyz
'x,y,z'

loop_
_atom_site_label
_atom_site_type_symbol
_atom_site_fract_x
_atom_site_fract_y
_atom_site_fract_z
Zn11	Zn1	0.040980	0.173190	0.197150
C11	C1	0.088920	0.090000	0.977850
H11	H1	0.056500	0.060100	0.977800
O11	O1	0.023870	0.943900	0.848300
O21	O2	0.082690	0.944600	0.788700
C21	C2	0.067280	0.976700	0.844950
C31	C3	0.103450	0.059200	0.913420
N11	N1	0.233680	0.222600	0.972510
C41	C4	0.151970	0.103400	0.913520
H21	H2	0.162300	0.082600	0.870600
O31	O3	0.062310	0.147600	0.108220
C51	C5	0.122450	0.165500	0.042840
C61	C6	0.184840	0.179200	0.978840
O41	O4	0.028300	0.405200	0.218660
C71	C7	0.170620	0.211100	0.042990
H31	H3	0.193100	0.262700	0.086000
O51	O5	0.135260	0.265500	0.169890
C81	C8	0.106670	0.197000	0.112880
Zn21	Zn2	0.540980	0.673190	0.197150
C91	C9	0.588920	0.590000	0.977850
H41	H4	0.556500	0.560100	0.977800
O61	O6	0.523870	0.443900	0.848300
O71	O7	0.582690	0.444600	0.788700
C101	C10	0.567280	0.476700	0.844950
C111	C11	0.603450	0.559200	0.913420
N21	N2	0.733680	0.722600	0.972510
C121	C12	0.651970	0.603400	0.913520
H51	H5	0.662300	0.582600	0.870600
O81	O8	0.562310	0.647600	0.108220
C131	C13	0.622450	0.665500	0.042840
C141	C14	0.684840	0.679200	0.978840
O91	O9	0.528300	0.905200	0.218660
C151	C15	0.670620	0.711100	0.042990
H61	H6	0.693100	0.762700	0.086000
O101	O10	0.635260	0.765500	0.169890
C161	C16	0.606670	0.697000	0.112880
Zn31	Zn3	0.959020	0.173190	0.302850
C171	C17	0.911080	0.090000	0.522150
H71	H7	0.943500	0.060100	0.522200
O111	O11	0.976130	0.943900	0.651700
O121	O12	0.917310	0.944600	0.711300
C181	C18	0.932720	0.976700	0.655050
C191	C19	0.896550	0.059200	0.586580
N31	N3	0.766320	0.222600	0.527490
C201	C20	0.848030	0.103400	0.586480
H81	H8	0.837700	0.082600	0.629400
O131	O13	0.937690	0.147600	0.391780
C211	C21	0.877550	0.165500	0.457160
C221	C22	0.815160	0.179200	0.521160
O141	O14	0.971700	0.405200	0.281340
C231	C23	0.829380	0.211100	0.457010
H91	H9	0.806900	0.262700	0.414000
O151	O15	0.864740	0.265500	0.330110
C241	C24	0.893330	0.197000	0.387120
Zn41	Zn4	0.459020	0.673190	0.302850
C251	C25	0.411080	0.590000	0.522150
H101	H10	0.443500	0.560100	0.522200
O161	O16	0.476130	0.443900	0.651700
O171	O17	0.417310	0.444600	0.711300
C261	C26	0.432720	0.476700	0.655050
C271	C27	0.396550	0.559200	0.586580
N41	N4	0.266320	0.722600	0.527490
C281	C28	0.348030	0.603400	0.586480
H111	H11	0.337700	0.582600	0.629400
O181	O18	0.437690	0.647600	0.391780
C291	C29	0.377550	0.665500	0.457160
C301	C30	0.315160	0.679200	0.521160
O191	O19	0.471700	0.905200	0.281340
C311	C31	0.329380	0.711100	0.457010
H121	H12	0.306900	0.762700	0.414000
O201	O20	0.364740	0.765500	0.330110
C321	C32	0.393330	0.697000	0.387120
Zn51	Zn5	0.959020	0.826810	0.802850
C331	C33	0.911080	0.910000	0.022150
H131	H13	0.943500	0.939900	0.022200
O211	O21	0.976130	0.056100	0.151700
O221	O22	0.917310	0.055400	0.211300
C341	C34	0.932720	0.023300	0.155050
C351	C35	0.896550	0.940800	0.086580
N51	N5	0.766320	0.777400	0.027490
C361	C36	0.848030	0.896600	0.086480
H141	H14	0.837700	0.917400	0.129400
O231	O23	0.937690	0.852400	0.891780
C371	C37	0.877550	0.834500	0.957160
C381	C38	0.815160	0.820800	0.021160
O241	O24	0.971700	0.594800	0.781340
C391	C39	0.829380	0.788900	0.957010
H151	H15	0.806900	0.737300	0.914000
O251	O25	0.864740	0.734500	0.830110
C401	C40	0.893330	0.803000	0.887120
Zn61	Zn6	0.459020	0.326810	0.802850
C411	C41	0.411080	0.410000	0.022150
H161	H16	0.443500	0.439900	0.022200
O261	O26	0.476130	0.556100	0.151700
O271	O27	0.417310	0.555400	0.211300
C421	C42	0.432720	0.523300	0.155050
C431	C43	0.396550	0.440800	0.086580
N61	N6	0.266320	0.277400	0.027490
C441	C44	0.348030	0.396600	0.086480
H171	H17	0.337700	0.417400	0.129400
O281	O28	0.437690	0.352400	0.891780
C451	C45	0.377550	0.334500	0.957160
C461	C46	0.315160	0.320800	0.021160
O291	O29	0.471700	0.094800	0.781340
C471	C47	0.329380	0.288900	0.957010
H181	H18	0.306900	0.237300	0.914000
O301	O30	0.364740	0.234500	0.830110
C481	C48	0.393330	0.303000	0.887120
Zn71	Zn7	0.040980	0.826810	0.697150
C491	C49	0.088920	0.910000	0.477850
H191	H19	0.056500	0.939900	0.477800
O311	O31	0.023870	0.056100	0.348300
O321	O32	0.082690	0.055400	0.288700
C501	C50	0.067280	0.023300	0.344950
C511	C51	0.103450	0.940800	0.413420
N71	N7	0.233680	0.777400	0.472510
C521	C52	0.151970	0.896600	0.413520
H201	H20	0.162300	0.917400	0.370600
O331	O33	0.062310	0.852400	0.608220
C531	C53	0.122450	0.834500	0.542840
C541	C54	0.184840	0.820800	0.478840
O341	O34	0.028300	0.594800	0.718660
C551	C55	0.170620	0.788900	0.542990
H211	H21	0.193100	0.737300	0.586000
O351	O35	0.135260	0.734500	0.669890
C561	C56	0.106670	0.803000	0.612880
Zn81	Zn8	0.540980	0.326810	0.697150
C571	C57	0.588920	0.410000	0.477850
H221	H22	0.556500	0.439900	0.477800
O361	O36	0.523870	0.556100	0.348300
O371	O37	0.582690	0.555400	0.288700
C581	C58	0.567280	0.523300	0.344950
C591	C59	0.603450	0.440800	0.413420
N81	N8	0.733680	0.277400	0.472510
C601	C60	0.651970	0.396600	0.413520
H231	H23	0.662300	0.417400	0.370600
O381	O38	0.562310	0.352400	0.608220
C611	C61	0.622450	0.334500	0.542840
C621	C62	0.684840	0.320800	0.478840
O391	O39	0.528300	0.094800	0.718660
C631	C63	0.670620	0.288900	0.542990
H241	H24	0.693100	0.237300	0.586000
O401	O40	0.635260	0.234500	0.669890
C641	C64	0.606670	0.303000	0.612880
N91	N9	0.000000	0.474900	0.250000
O411	O41	0.000000	0.666300	0.250000
N101	N10	0.500000	0.974900	0.250000
O421	O42	0.500000	0.166300	0.250000
N111	N11	0.000000	0.525100	0.750000
O431	O43	0.000000	0.333700	0.750000
N121	N12	0.500000	0.025100	0.750000
O441	O44	0.500000	0.833700	0.750000
