data_VURYIR_clean_PM
_symmetry_space_group_name_H-M	'P1'
_cell_length_a	4.713000
_cell_length_b	11.101000
_cell_length_c	26.797000
_cell_angle_alpha	90.000000
_cell_angle_beta	90.000000
_cell_angle_gamma	96.520000
_symmetry_Int_Tables_number 1

loop_
_symmetry_equiv_pos_as_xyz
'x,y,z'

loop_
_atom_site_label
_atom_site_type_symbol
_atom_site_fract_x
_atom_site_fract_y
_atom_site_fract_z
Cu11	Cu1	0.388000	0.120000	0.819400
Cu21	Cu2	0.612000	0.380000	0.319400
Cu31	Cu3	0.612000	0.880000	0.180600
Cu41	Cu4	0.388000	0.620000	0.680600
H11	H1	0.214000	0.036300	0.708700
H21	H2	0.375900	0.135300	0.637400
H31	H3	0.079900	0.209300	0.895200
H41	H4	0.408600	0.898100	0.891700
H51	H5	0.392800	0.761600	0.962100
H61	H6	0.864700	0.276900	0.964500
H71	H7	0.786000	0.463700	0.208700
H81	H8	0.624100	0.364700	0.137400
H91	H9	0.920100	0.290700	0.395200
H101	H10	0.591400	0.601900	0.391700
H111	H11	0.607200	0.738400	0.462100
H121	H12	0.135300	0.223100	0.464500
H131	H13	0.786000	0.963700	0.291300
H141	H14	0.624100	0.864700	0.362600
H151	H15	0.920100	0.790700	0.104800
H161	H16	0.591400	0.101900	0.108300
H171	H17	0.607200	0.238400	0.037900
H181	H18	0.135300	0.723100	0.035500
H191	H19	0.214000	0.536300	0.791300
H201	H20	0.375900	0.635300	0.862600
H211	H21	0.079900	0.709300	0.604800
H221	H22	0.408600	0.398100	0.608300
H231	H23	0.392800	0.261600	0.537900
H241	H24	0.864700	0.776900	0.535500
C11	C1	0.650900	0.320800	0.802500
C21	C2	0.586300	0.268700	0.752400
C31	C3	0.334600	0.110900	0.710000
C41	C4	0.433400	0.169700	0.668800
C51	C5	0.685200	0.323500	0.710400
C61	C6	0.868400	0.442300	0.705000
C71	C7	0.113000	0.136100	0.911400
C81	C8	0.305900	0.953300	0.909400
C91	C9	0.214500	0.924900	0.955800
C101	C10	0.013900	0.114900	0.957900
C111	C11	0.063100	0.007800	0.981200
C121	C12	0.272900	0.815600	0.976400
C131	C13	0.866300	0.200900	0.980700
C141	C14	0.349100	0.179200	0.302500
C151	C15	0.413700	0.231300	0.252400
C161	C16	0.665400	0.389100	0.210000
C171	C17	0.566600	0.330300	0.168800
C181	C18	0.314800	0.176500	0.210400
C191	C19	0.131600	0.057700	0.205000
C201	C20	0.887000	0.363900	0.411400
C211	C21	0.694100	0.546700	0.409400
C221	C22	0.785500	0.575100	0.455800
C231	C23	0.986100	0.385100	0.457900
C241	C24	0.936900	0.492200	0.481200
C251	C25	0.727100	0.684400	0.476400
C261	C26	0.133700	0.299100	0.480700
C271	C27	0.349100	0.679200	0.197500
C281	C28	0.413700	0.731300	0.247600
C291	C29	0.665400	0.889100	0.290000
C301	C30	0.566600	0.830300	0.331200
C311	C31	0.314800	0.676500	0.289600
C321	C32	0.131600	0.557700	0.295000
C331	C33	0.887000	0.863900	0.088600
C341	C34	0.694100	0.046700	0.090600
C351	C35	0.785500	0.075100	0.044200
C361	C36	0.986100	0.885100	0.042100
C371	C37	0.936900	0.992200	0.018800
C381	C38	0.727100	0.184400	0.023600
C391	C39	0.133700	0.799100	0.019300
C401	C40	0.650900	0.820800	0.697500
C411	C41	0.586300	0.768700	0.747600
C421	C42	0.334600	0.610900	0.790000
C431	C43	0.433400	0.669700	0.831200
C441	C44	0.685200	0.823500	0.789600
C451	C45	0.868400	0.942300	0.795000
C461	C46	0.113000	0.636100	0.588600
C471	C47	0.305900	0.453300	0.590600
C481	C48	0.214500	0.424900	0.544200
C491	C49	0.013900	0.614900	0.542100
C501	C50	0.063100	0.507800	0.518800
C511	C51	0.272900	0.315600	0.523600
C521	C52	0.866300	0.700900	0.519300
N11	N1	0.416000	0.163500	0.752200
N21	N2	0.605800	0.272500	0.668800
N31	N3	0.256700	0.057000	0.887400
N41	N4	0.584000	0.336500	0.252200
N51	N5	0.394200	0.227500	0.168800
N61	N6	0.743300	0.443000	0.387400
N71	N7	0.584000	0.836500	0.247800
N81	N8	0.394200	0.727500	0.331200
N91	N9	0.743300	0.943000	0.112600
N101	N10	0.416000	0.663500	0.747800
N111	N11	0.605800	0.772500	0.831200
N121	N12	0.256700	0.557000	0.612600
O11	O1	0.533000	0.258300	0.835200
O21	O2	0.789000	0.420400	0.806600
O31	O3	0.119000	0.488000	0.712000
O41	O4	0.755000	0.534100	0.694300
O51	O5	0.467000	0.241700	0.335200
O61	O6	0.211000	0.079600	0.306600
O71	O7	0.881000	0.012000	0.212000
O81	O8	0.245000	0.965900	0.194300
O91	O9	0.467000	0.741700	0.164800
O101	O10	0.211000	0.579600	0.193400
O111	O11	0.881000	0.512000	0.288000
O121	O12	0.245000	0.465900	0.305700
O131	O13	0.533000	0.758300	0.664800
O141	O14	0.789000	0.920400	0.693400
O151	O15	0.119000	0.988000	0.788000
O161	O16	0.755000	0.034100	0.805700
