data_VUTVAJ_clean_PM
_symmetry_space_group_name_H-M	'P1'
_cell_length_a	10.104500
_cell_length_b	15.499400
_cell_length_c	10.475400
_cell_angle_alpha	90.000000
_cell_angle_beta	102.207000
_cell_angle_gamma	90.000000
_symmetry_Int_Tables_number 1

loop_
_symmetry_equiv_pos_as_xyz
'x,y,z'

loop_
_atom_site_label
_atom_site_type_symbol
_atom_site_fract_x
_atom_site_fract_y
_atom_site_fract_z
Dy11	Dy1	0.085810	0.002600	0.310940
O11	O1	0.994600	0.131520	0.371400
O21	O2	0.902060	0.113470	0.545270
O31	O3	0.728760	0.382940	0.737450
O41	O4	0.678900	0.492920	0.603600
O51	O5	0.735200	0.452390	0.003800
O61	O6	0.640400	0.463710	0.178500
N11	N1	0.866300	0.381840	0.330300
C11	C1	0.906400	0.298660	0.342500
H11	H1	0.945700	0.273800	0.278700
C21	C2	0.890000	0.250300	0.447800
C31	C3	0.831300	0.288490	0.543100
H21	H2	0.817000	0.256300	0.613900
C41	C4	0.794600	0.374910	0.531400
C51	C5	0.813200	0.420640	0.423300
H31	H3	0.788900	0.478600	0.414600
C61	C6	0.933200	0.156600	0.456300
C71	C7	0.730400	0.419780	0.630800
C81	C8	0.875000	0.429200	0.209700
H41	H4	0.927000	0.395200	0.159900
H51	H5	0.922800	0.483000	0.233200
C91	C9	0.736110	0.448570	0.124140
Dy21	Dy2	0.414190	0.502600	0.189060
O71	O7	0.505400	0.631520	0.128600
O81	O8	0.597940	0.613470	0.954730
O91	O9	0.771240	0.882940	0.762550
O101	O10	0.821100	0.992920	0.896400
O111	O11	0.764800	0.952390	0.496200
O121	O12	0.859600	0.963710	0.321500
N21	N2	0.633700	0.881840	0.169700
C101	C10	0.593600	0.798660	0.157500
H61	H6	0.554300	0.773800	0.221300
C111	C11	0.610000	0.750300	0.052200
C121	C12	0.668700	0.788490	0.956900
H71	H7	0.683000	0.756300	0.886100
C131	C13	0.705400	0.874910	0.968600
C141	C14	0.686800	0.920640	0.076700
H81	H8	0.711100	0.978600	0.085400
C151	C15	0.566800	0.656600	0.043700
C161	C16	0.769600	0.919780	0.869200
C171	C17	0.625000	0.929200	0.290300
H91	H9	0.573000	0.895200	0.340100
H101	H10	0.577200	0.983000	0.266800
C181	C18	0.763890	0.948570	0.375860
Dy31	Dy3	0.914190	0.997400	0.689060
O131	O13	0.005400	0.868480	0.628600
O141	O14	0.097940	0.886530	0.454730
O151	O15	0.271240	0.617060	0.262550
O161	O16	0.321100	0.507080	0.396400
O171	O17	0.264800	0.547610	0.996200
O181	O18	0.359600	0.536290	0.821500
N31	N3	0.133700	0.618160	0.669700
C191	C19	0.093600	0.701340	0.657500
H111	H11	0.054300	0.726200	0.721300
C201	C20	0.110000	0.749700	0.552200
C211	C21	0.168700	0.711510	0.456900
H121	H12	0.183000	0.743700	0.386100
C221	C22	0.205400	0.625090	0.468600
C231	C23	0.186800	0.579360	0.576700
H131	H13	0.211100	0.521400	0.585400
C241	C24	0.066800	0.843400	0.543700
C251	C25	0.269600	0.580220	0.369200
C261	C26	0.125000	0.570800	0.790300
H141	H14	0.073000	0.604800	0.840100
H151	H15	0.077200	0.517000	0.766800
C271	C27	0.263890	0.551430	0.875860
Dy41	Dy4	0.585810	0.497400	0.810940
O191	O19	0.494600	0.368480	0.871400
O201	O20	0.402060	0.386530	0.045270
O211	O21	0.228760	0.117060	0.237450
O221	O22	0.178900	0.007080	0.103600
O231	O23	0.235200	0.047610	0.503800
O241	O24	0.140400	0.036290	0.678500
N41	N4	0.366300	0.118160	0.830300
C281	C28	0.406400	0.201340	0.842500
H161	H16	0.445700	0.226200	0.778700
C291	C29	0.390000	0.249700	0.947800
C301	C30	0.331300	0.211510	0.043100
H171	H17	0.317000	0.243700	0.113900
C311	C31	0.294600	0.125090	0.031400
C321	C32	0.313200	0.079360	0.923300
H181	H18	0.288900	0.021400	0.914600
C331	C33	0.433200	0.343400	0.956300
C341	C34	0.230400	0.080220	0.130800
C351	C35	0.375000	0.070800	0.709700
H191	H19	0.427000	0.104800	0.659900
H201	H20	0.422800	0.017000	0.733200
C361	C36	0.236110	0.051430	0.624140
