data_VUWPIN_clean_PM
_symmetry_space_group_name_H-M	'P1'
_cell_length_a	19.332900
_cell_length_b	19.332900
_cell_length_c	19.332900
_cell_angle_alpha	90.000000
_cell_angle_beta	90.000000
_cell_angle_gamma	90.000000
_symmetry_Int_Tables_number 1

loop_
_symmetry_equiv_pos_as_xyz
'x,y,z'

loop_
_atom_site_label
_atom_site_type_symbol
_atom_site_fract_x
_atom_site_fract_y
_atom_site_fract_z
N11	N1	0.574000	0.079700	0.129700
C11	C1	0.637000	0.084600	0.159900
H11	H1	0.651300	0.055800	0.195600
N21	N2	0.926000	0.420300	0.129700
C21	C2	0.863000	0.415400	0.159900
H21	H2	0.848700	0.444200	0.195600
N31	N3	0.926000	0.079700	0.370300
C31	C3	0.863000	0.084600	0.340100
H31	H3	0.848700	0.055800	0.304400
N41	N4	0.574000	0.420300	0.370300
C41	C4	0.637000	0.415400	0.340100
H41	H4	0.651300	0.444200	0.304400
N51	N5	0.129700	0.574000	0.079700
C51	C5	0.159900	0.637000	0.084600
H51	H5	0.195600	0.651300	0.055800
N61	N6	0.129700	0.926000	0.420300
C61	C6	0.159900	0.863000	0.415400
H61	H6	0.195600	0.848700	0.444200
N71	N7	0.370300	0.926000	0.079700
C71	C7	0.340100	0.863000	0.084600
H71	H7	0.304400	0.848700	0.055800
N81	N8	0.370300	0.574000	0.420300
C81	C8	0.340100	0.637000	0.415400
H81	H8	0.304400	0.651300	0.444200
N91	N9	0.079700	0.129700	0.574000
C91	C9	0.084600	0.159900	0.637000
H91	H9	0.055800	0.195600	0.651300
N101	N10	0.420300	0.129700	0.926000
C101	C10	0.415400	0.159900	0.863000
H101	H10	0.444200	0.195600	0.848700
N111	N11	0.079700	0.370300	0.926000
C111	C11	0.084600	0.340100	0.863000
H111	H11	0.055800	0.304400	0.848700
N121	N12	0.420300	0.370300	0.574000
C121	C12	0.415400	0.340100	0.637000
H121	H12	0.444200	0.304400	0.651300
N131	N13	0.420300	0.926000	0.129700
C131	C13	0.415400	0.863000	0.159900
H131	H13	0.444200	0.848700	0.195600
N141	N14	0.079700	0.574000	0.129700
C141	C14	0.084600	0.637000	0.159900
H141	H14	0.055800	0.651300	0.195600
N151	N15	0.420300	0.574000	0.370300
C151	C15	0.415400	0.637000	0.340100
H151	H15	0.444200	0.651300	0.304400
N161	N16	0.079700	0.926000	0.370300
C161	C16	0.084600	0.863000	0.340100
H161	H16	0.055800	0.848700	0.304400
N171	N17	0.926000	0.370300	0.079700
C171	C17	0.863000	0.340100	0.084600
H171	H17	0.848700	0.304400	0.055800
N181	N18	0.574000	0.370300	0.420300
C181	C18	0.637000	0.340100	0.415400
H181	H18	0.651300	0.304400	0.444200
N191	N19	0.574000	0.129700	0.079700
C191	C19	0.637000	0.159900	0.084600
H191	H19	0.651300	0.195600	0.055800
N201	N20	0.926000	0.129700	0.420300
C201	C20	0.863000	0.159900	0.415400
H201	H20	0.848700	0.195600	0.444200
N211	N21	0.370300	0.420300	0.574000
C211	C21	0.340100	0.415400	0.637000
H211	H21	0.304400	0.444200	0.651300
N221	N22	0.370300	0.079700	0.926000
C221	C22	0.340100	0.084600	0.863000
H221	H22	0.304400	0.055800	0.848700
N231	N23	0.129700	0.420300	0.926000
C231	C23	0.159900	0.415400	0.863000
H231	H23	0.195600	0.444200	0.848700
N241	N24	0.129700	0.079700	0.574000
C241	C24	0.159900	0.084600	0.637000
H241	H24	0.195600	0.055800	0.651300
Ag11	Ag1	0.494720	0.005280	0.136460
Ag21	Ag2	0.005280	0.494720	0.136460
Ag31	Ag3	0.005280	0.005280	0.363540
Ag41	Ag4	0.494720	0.494720	0.363540
Ag51	Ag5	0.136460	0.494720	0.005280
Ag61	Ag6	0.136460	0.005280	0.494720
Ag71	Ag7	0.363540	0.005280	0.005280
Ag81	Ag8	0.363540	0.494720	0.494720
Ag91	Ag9	0.005280	0.136460	0.494720
Ag101	Ag10	0.494720	0.136460	0.005280
Ag111	Ag11	0.005280	0.363540	0.005280
Ag121	Ag12	0.494720	0.363540	0.494720
Ag131	Ag13	0.769220	0.174340	0.174340
N251	N25	0.676000	0.133900	0.133900
N261	N26	0.855600	0.226400	0.226400
C251	C25	0.921300	0.213000	0.213000
H251	H25	0.936700	0.180700	0.180700
Ag141	Ag14	0.730780	0.325660	0.174340
N271	N27	0.824000	0.366100	0.133900
N281	N28	0.644400	0.273600	0.226400
C261	C26	0.578700	0.287000	0.213000
H261	H26	0.563300	0.319300	0.180700
Ag151	Ag15	0.730780	0.174340	0.325660
N291	N29	0.824000	0.133900	0.366100
N301	N30	0.644400	0.226400	0.273600
C271	C27	0.578700	0.213000	0.287000
H271	H27	0.563300	0.180700	0.319300
Ag161	Ag16	0.769220	0.325660	0.325660
N311	N31	0.676000	0.366100	0.366100
N321	N32	0.855600	0.273600	0.273600
C281	C28	0.921300	0.287000	0.287000
H281	H28	0.936700	0.319300	0.319300
Ag171	Ag17	0.174340	0.769220	0.174340
N331	N33	0.133900	0.676000	0.133900
N341	N34	0.226400	0.855600	0.226400
C291	C29	0.213000	0.921300	0.213000
H291	H29	0.180700	0.936700	0.180700
Ag181	Ag18	0.174340	0.730780	0.325660
N351	N35	0.133900	0.824000	0.366100
N361	N36	0.226400	0.644400	0.273600
C301	C30	0.213000	0.578700	0.287000
H301	H30	0.180700	0.563300	0.319300
Ag191	Ag19	0.325660	0.730780	0.174340
N371	N37	0.366100	0.824000	0.133900
N381	N38	0.273600	0.644400	0.226400
C311	C31	0.287000	0.578700	0.213000
H311	H31	0.319300	0.563300	0.180700
Ag201	Ag20	0.325660	0.769220	0.325660
N391	N39	0.366100	0.676000	0.366100
N401	N40	0.273600	0.855600	0.273600
C321	C32	0.287000	0.921300	0.287000
H321	H32	0.319300	0.936700	0.319300
Ag211	Ag21	0.174340	0.174340	0.769220
N411	N41	0.133900	0.133900	0.676000
N421	N42	0.226400	0.226400	0.855600
C331	C33	0.213000	0.213000	0.921300
H331	H33	0.180700	0.180700	0.936700
Ag221	Ag22	0.325660	0.174340	0.730780
N431	N43	0.366100	0.133900	0.824000
N441	N44	0.273600	0.226400	0.644400
C341	C34	0.287000	0.213000	0.578700
H341	H34	0.319300	0.180700	0.563300
Ag231	Ag23	0.174340	0.325660	0.730780
N451	N45	0.133900	0.366100	0.824000
N461	N46	0.226400	0.273600	0.644400
C351	C35	0.213000	0.287000	0.578700
H351	H35	0.180700	0.319300	0.563300
Ag241	Ag24	0.325660	0.325660	0.769220
N471	N47	0.366100	0.366100	0.676000
N481	N48	0.273600	0.273600	0.855600
C361	C36	0.287000	0.287000	0.921300
H361	H36	0.319300	0.319300	0.936700
Ag251	Ag25	0.062600	0.223200	0.276800
Ag261	Ag26	0.437400	0.276800	0.276800
Ag271	Ag27	0.437400	0.223200	0.223200
Ag281	Ag28	0.062600	0.276800	0.223200
Ag291	Ag29	0.276800	0.062600	0.223200
Ag301	Ag30	0.276800	0.437400	0.276800
Ag311	Ag31	0.223200	0.437400	0.223200
Ag321	Ag32	0.223200	0.062600	0.276800
Ag331	Ag33	0.223200	0.276800	0.062600
Ag341	Ag34	0.276800	0.276800	0.437400
Ag351	Ag35	0.223200	0.223200	0.437400
Ag361	Ag36	0.276800	0.223200	0.062600
N491	N49	0.960300	0.250000	0.250000
N501	N50	0.539700	0.250000	0.250000
N511	N51	0.250000	0.960300	0.250000
N521	N52	0.250000	0.539700	0.250000
N531	N53	0.250000	0.250000	0.960300
N541	N54	0.250000	0.250000	0.539700
N551	N55	0.579700	0.074000	0.870300
C371	C37	0.584600	0.137000	0.840100
H371	H37	0.555800	0.151300	0.804400
N561	N56	0.920300	0.426000	0.870300
C381	C38	0.915400	0.363000	0.840100
H381	H38	0.944200	0.348700	0.804400
N571	N57	0.579700	0.426000	0.629700
C391	C39	0.584600	0.363000	0.659900
H391	H39	0.555800	0.348700	0.695600
N581	N58	0.920300	0.074000	0.629700
C401	C40	0.915400	0.137000	0.659900
H401	H40	0.944200	0.151300	0.695600
N591	N59	0.074000	0.629700	0.920300
C411	C41	0.137000	0.659900	0.915400
H411	H41	0.151300	0.695600	0.944200
N601	N60	0.426000	0.629700	0.579700
C421	C42	0.363000	0.659900	0.584600
H421	H42	0.348700	0.695600	0.555800
N611	N61	0.426000	0.870300	0.920300
C431	C43	0.363000	0.840100	0.915400
H431	H43	0.348700	0.804400	0.944200
N621	N62	0.074000	0.870300	0.579700
C441	C44	0.137000	0.840100	0.584600
H441	H44	0.151300	0.804400	0.555800
N631	N63	0.629700	0.579700	0.426000
C451	C45	0.659900	0.584600	0.363000
H451	H45	0.695600	0.555800	0.348700
N641	N64	0.629700	0.920300	0.074000
C461	C46	0.659900	0.915400	0.137000
H461	H46	0.695600	0.944200	0.151300
N651	N65	0.870300	0.579700	0.074000
C471	C47	0.840100	0.584600	0.137000
H471	H47	0.804400	0.555800	0.151300
N661	N66	0.870300	0.920300	0.426000
C481	C48	0.840100	0.915400	0.363000
H481	H48	0.804400	0.944200	0.348700
N671	N67	0.426000	0.920300	0.870300
C491	C49	0.363000	0.915400	0.840100
H491	H49	0.348700	0.944200	0.804400
N681	N68	0.074000	0.579700	0.870300
C501	C50	0.137000	0.584600	0.840100
H501	H50	0.151300	0.555800	0.804400
N691	N69	0.074000	0.920300	0.629700
C511	C51	0.137000	0.915400	0.659900
H511	H51	0.151300	0.944200	0.695600
N701	N70	0.426000	0.579700	0.629700
C521	C52	0.363000	0.584600	0.659900
H521	H52	0.348700	0.555800	0.695600
N711	N71	0.870300	0.426000	0.920300
C531	C53	0.840100	0.363000	0.915400
H531	H53	0.804400	0.348700	0.944200
N721	N72	0.870300	0.074000	0.579700
C541	C54	0.840100	0.137000	0.584600
H541	H54	0.804400	0.151300	0.555800
N731	N73	0.629700	0.074000	0.920300
C551	C55	0.659900	0.137000	0.915400
H551	H55	0.695600	0.151300	0.944200
N741	N74	0.629700	0.426000	0.579700
C561	C56	0.659900	0.363000	0.584600
H561	H56	0.695600	0.348700	0.555800
N751	N75	0.920300	0.870300	0.426000
C571	C57	0.915400	0.840100	0.363000
H571	H57	0.944200	0.804400	0.348700
N761	N76	0.579700	0.870300	0.074000
C581	C58	0.584600	0.840100	0.137000
H581	H58	0.555800	0.804400	0.151300
N771	N77	0.920300	0.629700	0.074000
C591	C59	0.915400	0.659900	0.137000
H591	H59	0.944200	0.695600	0.151300
N781	N78	0.579700	0.629700	0.426000
C601	C60	0.584600	0.659900	0.363000
H601	H60	0.555800	0.695600	0.348700
Ag371	Ag37	0.505280	0.994720	0.863540
Ag381	Ag38	0.994720	0.505280	0.863540
Ag391	Ag39	0.505280	0.505280	0.636460
Ag401	Ag40	0.994720	0.994720	0.636460
Ag411	Ag41	0.994720	0.636460	0.994720
Ag421	Ag42	0.505280	0.636460	0.505280
Ag431	Ag43	0.505280	0.863540	0.994720
Ag441	Ag44	0.994720	0.863540	0.505280
Ag451	Ag45	0.636460	0.505280	0.505280
Ag461	Ag46	0.636460	0.994720	0.994720
Ag471	Ag47	0.863540	0.505280	0.994720
Ag481	Ag48	0.863540	0.994720	0.505280
Ag491	Ag49	0.674340	0.269220	0.825660
N791	N79	0.633900	0.176000	0.866100
N801	N80	0.726400	0.355600	0.773600
C611	C61	0.713000	0.421300	0.787000
H611	H61	0.680700	0.436700	0.819300
Ag501	Ag50	0.825660	0.230780	0.825660
N811	N81	0.866100	0.324000	0.866100
N821	N82	0.773600	0.144400	0.773600
C621	C62	0.787000	0.078700	0.787000
H621	H62	0.819300	0.063300	0.819300
Ag511	Ag51	0.674340	0.230780	0.674340
N831	N83	0.633900	0.324000	0.633900
N841	N84	0.726400	0.144400	0.726400
C631	C63	0.713000	0.078700	0.713000
H631	H63	0.680700	0.063300	0.680700
Ag521	Ag52	0.825660	0.269220	0.674340
N851	N85	0.866100	0.176000	0.633900
N861	N86	0.773600	0.355600	0.726400
C641	C64	0.787000	0.421300	0.713000
H641	H64	0.819300	0.436700	0.680700
Ag531	Ag53	0.269220	0.674340	0.825660
N871	N87	0.176000	0.633900	0.866100
N881	N88	0.355600	0.726400	0.773600
C651	C65	0.421300	0.713000	0.787000
H651	H65	0.436700	0.680700	0.819300
Ag541	Ag54	0.230780	0.674340	0.674340
N891	N89	0.324000	0.633900	0.633900
N901	N90	0.144400	0.726400	0.726400
C661	C66	0.078700	0.713000	0.713000
H661	H66	0.063300	0.680700	0.680700
Ag551	Ag55	0.230780	0.825660	0.825660
N911	N91	0.324000	0.866100	0.866100
N921	N92	0.144400	0.773600	0.773600
C671	C67	0.078700	0.787000	0.787000
H671	H67	0.063300	0.819300	0.819300
Ag561	Ag56	0.269220	0.825660	0.674340
N931	N93	0.176000	0.866100	0.633900
N941	N94	0.355600	0.773600	0.726400
C681	C68	0.421300	0.787000	0.713000
H681	H68	0.436700	0.819300	0.680700
Ag571	Ag57	0.674340	0.674340	0.230780
N951	N95	0.633900	0.633900	0.324000
N961	N96	0.726400	0.726400	0.144400
C691	C69	0.713000	0.713000	0.078700
H691	H69	0.680700	0.680700	0.063300
Ag581	Ag58	0.674340	0.825660	0.269220
N971	N97	0.633900	0.866100	0.176000
N981	N98	0.726400	0.773600	0.355600
C701	C70	0.713000	0.787000	0.421300
H701	H70	0.680700	0.819300	0.436700
Ag591	Ag59	0.825660	0.674340	0.269220
N991	N99	0.866100	0.633900	0.176000
N1001	N100	0.773600	0.726400	0.355600
C711	C71	0.787000	0.713000	0.421300
H711	H71	0.819300	0.680700	0.436700
Ag601	Ag60	0.825660	0.825660	0.230780
N1011	N101	0.866100	0.866100	0.324000
N1021	N102	0.773600	0.773600	0.144400
C721	C72	0.787000	0.787000	0.078700
H721	H72	0.819300	0.819300	0.063300
Ag611	Ag61	0.723200	0.562600	0.723200
Ag621	Ag62	0.776800	0.937400	0.723200
Ag631	Ag63	0.723200	0.937400	0.776800
Ag641	Ag64	0.776800	0.562600	0.776800
Ag651	Ag65	0.562600	0.776800	0.776800
Ag661	Ag66	0.937400	0.776800	0.723200
Ag671	Ag67	0.937400	0.723200	0.776800
Ag681	Ag68	0.562600	0.723200	0.723200
Ag691	Ag69	0.776800	0.723200	0.937400
Ag701	Ag70	0.776800	0.776800	0.562600
Ag711	Ag71	0.723200	0.723200	0.562600
Ag721	Ag72	0.723200	0.776800	0.937400
N1031	N103	0.750000	0.460300	0.750000
N1041	N104	0.750000	0.039700	0.750000
N1051	N105	0.460300	0.750000	0.750000
N1061	N106	0.039700	0.750000	0.750000
N1071	N107	0.750000	0.750000	0.039700
N1081	N108	0.750000	0.750000	0.460300
