data_WABVIF_clean_PM
_symmetry_space_group_name_H-M	'P1'
_cell_length_a	9.036800
_cell_length_b	9.036800
_cell_length_c	12.536400
_cell_angle_alpha	90.000000
_cell_angle_beta	90.000000
_cell_angle_gamma	90.000000
_symmetry_Int_Tables_number 1

loop_
_symmetry_equiv_pos_as_xyz
'x,y,z'

loop_
_atom_site_label
_atom_site_type_symbol
_atom_site_fract_x
_atom_site_fract_y
_atom_site_fract_z
O11	O1	0.185360	0.903300	0.961260
C11	C1	0.255800	0.959600	0.880570
O21	O2	0.202900	0.059400	0.824490
O31	O3	0.385600	0.901830	0.862020
O41	O4	0.814640	0.096700	0.961260
C21	C2	0.744200	0.040400	0.880570
O51	O5	0.797100	0.940600	0.824490
O61	O6	0.614400	0.098170	0.862020
O71	O7	0.903300	0.814640	0.038740
C31	C3	0.959600	0.744200	0.119430
O81	O8	0.059400	0.797100	0.175510
O91	O9	0.901830	0.614400	0.137980
O101	O10	0.096700	0.185360	0.038740
C41	C4	0.040400	0.255800	0.119430
O111	O11	0.940600	0.202900	0.175510
O121	O12	0.098170	0.385600	0.137980
O131	O13	0.685360	0.596700	0.461260
C51	C5	0.755800	0.540400	0.380570
O141	O14	0.702900	0.440600	0.324490
O151	O15	0.885600	0.598170	0.362020
O161	O16	0.314640	0.403300	0.461260
C61	C6	0.244200	0.459600	0.380570
O171	O17	0.297100	0.559400	0.324490
O181	O18	0.114400	0.401830	0.362020
O191	O19	0.403300	0.685360	0.538740
C71	C7	0.459600	0.755800	0.619430
O201	O20	0.559400	0.702900	0.675510
O211	O21	0.401830	0.885600	0.637980
O221	O22	0.596700	0.314640	0.538740
C81	C8	0.540400	0.244200	0.619430
O231	O23	0.440600	0.297100	0.675510
O241	O24	0.598170	0.114400	0.637980
Cu11	Cu1	0.000000	0.000000	0.000000
Cu21	Cu2	0.500000	0.500000	0.500000
Cu31	Cu3	0.500000	0.000000	0.750000
Cu41	Cu4	0.000000	0.500000	0.250000
