data_WABWAY_clean_PM
_symmetry_space_group_name_H-M	'P1'
_cell_length_a	14.411300
_cell_length_b	14.411300
_cell_length_c	14.411300
_cell_angle_alpha	90.000000
_cell_angle_beta	90.000000
_cell_angle_gamma	90.000000
_symmetry_Int_Tables_number 1

loop_
_symmetry_equiv_pos_as_xyz
'x,y,z'

loop_
_atom_site_label
_atom_site_type_symbol
_atom_site_fract_x
_atom_site_fract_y
_atom_site_fract_z
Cu11	Cu1	0.500000	0.750000	0.000000
Cu21	Cu2	0.500000	0.250000	0.000000
Cu31	Cu3	0.000000	0.500000	0.750000
Cu41	Cu4	0.000000	0.500000	0.250000
Cu51	Cu5	0.750000	0.000000	0.500000
Cu61	Cu6	0.250000	0.000000	0.500000
Cu71	Cu7	0.750000	0.500000	0.000000
Cu81	Cu8	0.250000	0.500000	0.000000
Cu91	Cu9	0.500000	0.000000	0.250000
Cu101	Cu10	0.500000	0.000000	0.750000
Cu111	Cu11	0.000000	0.750000	0.500000
Cu121	Cu12	0.000000	0.250000	0.500000
C11	C1	0.666300	0.666300	0.000000
O11	O1	0.604900	0.604900	0.000000
C21	C2	0.166300	0.166300	0.500000
O21	O2	0.104900	0.104900	0.500000
C31	C3	0.333700	0.333700	0.000000
O31	O3	0.395100	0.395100	0.000000
C41	C4	0.833700	0.833700	0.500000
O41	O4	0.895100	0.895100	0.500000
C51	C5	0.333700	0.666300	0.000000
O51	O5	0.395100	0.604900	0.000000
C61	C6	0.833700	0.166300	0.500000
O61	O6	0.895100	0.104900	0.500000
C71	C7	0.666300	0.333700	0.000000
O71	O7	0.604900	0.395100	0.000000
C81	C8	0.166300	0.833700	0.500000
O81	O8	0.104900	0.895100	0.500000
C91	C9	0.000000	0.666300	0.666300
O91	O9	0.000000	0.604900	0.604900
C101	C10	0.500000	0.166300	0.166300
O101	O10	0.500000	0.104900	0.104900
C111	C11	0.000000	0.333700	0.333700
O111	O11	0.000000	0.395100	0.395100
C121	C12	0.500000	0.833700	0.833700
O121	O12	0.500000	0.895100	0.895100
C131	C13	0.000000	0.333700	0.666300
O131	O13	0.000000	0.395100	0.604900
C141	C14	0.500000	0.833700	0.166300
O141	O14	0.500000	0.895100	0.104900
C151	C15	0.000000	0.666300	0.333700
O151	O15	0.000000	0.604900	0.395100
C161	C16	0.500000	0.166300	0.833700
O161	O16	0.500000	0.104900	0.895100
C171	C17	0.666300	0.000000	0.666300
O171	O17	0.604900	0.000000	0.604900
C181	C18	0.166300	0.500000	0.166300
O181	O18	0.104900	0.500000	0.104900
C191	C19	0.333700	0.000000	0.333700
O191	O19	0.395100	0.000000	0.395100
C201	C20	0.833700	0.500000	0.833700
O201	O20	0.895100	0.500000	0.895100
C211	C21	0.666300	0.000000	0.333700
O211	O21	0.604900	0.000000	0.395100
C221	C22	0.166300	0.500000	0.833700
O221	O22	0.104900	0.500000	0.895100
C231	C23	0.333700	0.000000	0.666300
O231	O23	0.395100	0.000000	0.604900
C241	C24	0.833700	0.500000	0.166300
O241	O24	0.895100	0.500000	0.104900
O251	O25	0.641800	0.752300	0.000000
O261	O26	0.141800	0.252300	0.500000
O271	O27	0.358200	0.247700	0.000000
O281	O28	0.858200	0.747700	0.500000
O291	O29	0.358200	0.752300	0.000000
O301	O30	0.858200	0.252300	0.500000
O311	O31	0.641800	0.247700	0.000000
O321	O32	0.141800	0.747700	0.500000
O331	O33	0.000000	0.641800	0.752300
O341	O34	0.500000	0.141800	0.252300
O351	O35	0.000000	0.358200	0.247700
O361	O36	0.500000	0.858200	0.747700
O371	O37	0.000000	0.358200	0.752300
O381	O38	0.500000	0.858200	0.252300
O391	O39	0.000000	0.641800	0.247700
O401	O40	0.500000	0.141800	0.747700
O411	O41	0.752300	0.000000	0.641800
O421	O42	0.252300	0.500000	0.141800
O431	O43	0.247700	0.000000	0.358200
O441	O44	0.747700	0.500000	0.858200
O451	O45	0.752300	0.000000	0.358200
O461	O46	0.252300	0.500000	0.858200
O471	O47	0.247700	0.000000	0.641800
O481	O48	0.747700	0.500000	0.141800
O491	O49	0.752300	0.641800	0.000000
O501	O50	0.252300	0.141800	0.500000
O511	O51	0.247700	0.358200	0.000000
O521	O52	0.747700	0.858200	0.500000
O531	O53	0.752300	0.358200	0.000000
O541	O54	0.252300	0.858200	0.500000
O551	O55	0.247700	0.641800	0.000000
O561	O56	0.747700	0.141800	0.500000
O571	O57	0.641800	0.000000	0.247700
O581	O58	0.141800	0.500000	0.747700
O591	O59	0.358200	0.000000	0.752300
O601	O60	0.858200	0.500000	0.252300
O611	O61	0.358200	0.000000	0.247700
O621	O62	0.858200	0.500000	0.747700
O631	O63	0.641800	0.000000	0.752300
O641	O64	0.141800	0.500000	0.252300
O651	O65	0.000000	0.752300	0.358200
O661	O66	0.500000	0.252300	0.858200
O671	O67	0.000000	0.247700	0.641800
O681	O68	0.500000	0.747700	0.141800
O691	O69	0.000000	0.752300	0.641800
O701	O70	0.500000	0.252300	0.141800
O711	O71	0.000000	0.247700	0.358200
O721	O72	0.500000	0.747700	0.858200
Na11	Na1	0.500000	0.500000	0.000000
Na21	Na2	0.000000	0.000000	0.500000
Na31	Na3	0.000000	0.500000	0.500000
Na41	Na4	0.500000	0.000000	0.000000
Na51	Na5	0.500000	0.000000	0.500000
Na61	Na6	0.000000	0.500000	0.000000
