data_WACKOB_clean_PM
_symmetry_space_group_name_H-M	'P1'
_cell_length_a	17.088000
_cell_length_b	17.088000
_cell_length_c	10.745000
_cell_angle_alpha	90.000000
_cell_angle_beta	90.000000
_cell_angle_gamma	90.000000
_symmetry_Int_Tables_number 1

loop_
_symmetry_equiv_pos_as_xyz
'x,y,z'

loop_
_atom_site_label
_atom_site_type_symbol
_atom_site_fract_x
_atom_site_fract_y
_atom_site_fract_z
Mo11	Mo1	0.309370	0.910640	0.058360
P11	P1	0.417510	0.885480	0.803460
O11	O1	0.429700	0.817700	0.714500
O21	O2	0.355430	0.857620	0.898500
O31	O3	0.399920	0.956590	0.083000
O41	O4	0.284710	0.000560	0.916100
O51	O5	0.382630	0.954640	0.727600
O61	O6	0.320220	0.823320	0.140900
O71	O7	0.493170	0.910840	0.868400
Mo21	Mo2	0.809370	0.410640	0.558360
P21	P2	0.917510	0.385480	0.303460
O81	O8	0.929700	0.317700	0.214500
O91	O9	0.855430	0.357620	0.398500
O101	O10	0.899920	0.456590	0.583000
O111	O11	0.784710	0.500560	0.416100
O121	O12	0.882630	0.454640	0.227600
O131	O13	0.820220	0.323320	0.640900
O141	O14	0.993170	0.410840	0.368400
Mo31	Mo3	0.190630	0.089360	0.558360
P31	P3	0.082490	0.114520	0.303460
O151	O15	0.070300	0.182300	0.214500
O161	O16	0.144570	0.142380	0.398500
O171	O17	0.100080	0.043410	0.583000
O181	O18	0.215290	0.999440	0.416100
O191	O19	0.117370	0.045360	0.227600
O201	O20	0.179780	0.176680	0.640900
O211	O21	0.006830	0.089160	0.368400
Mo41	Mo4	0.690630	0.589360	0.058360
P41	P4	0.582490	0.614520	0.803460
O221	O22	0.570300	0.682300	0.714500
O231	O23	0.644570	0.642380	0.898500
O241	O24	0.600080	0.543410	0.083000
O251	O25	0.715290	0.499440	0.916100
O261	O26	0.617370	0.545360	0.727600
O271	O27	0.679780	0.676680	0.140900
O281	O28	0.506830	0.589160	0.868400
Mo51	Mo5	0.839360	0.559370	0.308360
P51	P5	0.864520	0.667510	0.053460
O291	O29	0.932300	0.679700	0.964500
O301	O30	0.892380	0.605430	0.148500
O311	O31	0.793410	0.649920	0.333000
O321	O32	0.749440	0.534710	0.166100
O331	O33	0.795360	0.632630	0.977600
O341	O34	0.926680	0.570220	0.390900
O351	O35	0.839160	0.743170	0.118400
Mo61	Mo6	0.339360	0.059370	0.808360
P61	P6	0.364520	0.167510	0.553460
O361	O36	0.432300	0.179700	0.464500
O371	O37	0.392380	0.105430	0.648500
O381	O38	0.293410	0.149920	0.833000
O391	O39	0.249440	0.034710	0.666100
O401	O40	0.295360	0.132630	0.477600
O411	O41	0.426680	0.070220	0.890900
O421	O42	0.339160	0.243170	0.618400
Mo71	Mo7	0.660640	0.440630	0.808360
P71	P7	0.635480	0.332490	0.553460
O431	O43	0.567700	0.320300	0.464500
O441	O44	0.607620	0.394570	0.648500
O451	O45	0.706590	0.350080	0.833000
O461	O46	0.750560	0.465290	0.666100
O471	O47	0.704640	0.367370	0.477600
O481	O48	0.573320	0.429780	0.890900
O491	O49	0.660840	0.256830	0.618400
Mo81	Mo8	0.160640	0.940630	0.308360
P81	P8	0.135480	0.832490	0.053460
O501	O50	0.067700	0.820300	0.964500
O511	O51	0.107620	0.894570	0.148500
O521	O52	0.206590	0.850080	0.333000
O531	O53	0.250560	0.965290	0.166100
O541	O54	0.204640	0.867370	0.977600
O551	O55	0.073320	0.929780	0.390900
O561	O56	0.160840	0.756830	0.118400
Mo91	Mo9	0.690630	0.089360	0.941640
P91	P9	0.582490	0.114520	0.196540
O571	O57	0.570300	0.182300	0.285500
O581	O58	0.644570	0.142380	0.101500
O591	O59	0.600080	0.043410	0.917000
O601	O60	0.715290	0.999440	0.083900
O611	O61	0.617370	0.045360	0.272400
O621	O62	0.679780	0.176680	0.859100
O631	O63	0.506830	0.089160	0.131600
Mo101	Mo10	0.190630	0.589360	0.441640
P101	P10	0.082490	0.614520	0.696540
O641	O64	0.070300	0.682300	0.785500
O651	O65	0.144570	0.642380	0.601500
O661	O66	0.100080	0.543410	0.417000
O671	O67	0.215290	0.499440	0.583900
O681	O68	0.117370	0.545360	0.772400
O691	O69	0.179780	0.676680	0.359100
O701	O70	0.006830	0.589160	0.631600
Mo111	Mo11	0.809370	0.910640	0.441640
P111	P11	0.917510	0.885480	0.696540
O711	O71	0.929700	0.817700	0.785500
O721	O72	0.855430	0.857620	0.601500
O731	O73	0.899920	0.956590	0.417000
O741	O74	0.784710	0.000560	0.583900
O751	O75	0.882630	0.954640	0.772400
O761	O76	0.820220	0.823320	0.359100
O771	O77	0.993170	0.910840	0.631600
Mo121	Mo12	0.309370	0.410640	0.941640
P121	P12	0.417510	0.385480	0.196540
O781	O78	0.429700	0.317700	0.285500
O791	O79	0.355430	0.357620	0.101500
O801	O80	0.399920	0.456590	0.917000
O811	O81	0.284710	0.500560	0.083900
O821	O82	0.382630	0.454640	0.272400
O831	O83	0.320220	0.323320	0.859100
O841	O84	0.493170	0.410840	0.131600
Mo131	Mo13	0.160640	0.440630	0.691640
P131	P13	0.135480	0.332490	0.946540
O851	O85	0.067700	0.320300	0.035500
O861	O86	0.107620	0.394570	0.851500
O871	O87	0.206590	0.350080	0.667000
O881	O88	0.250560	0.465290	0.833900
O891	O89	0.204640	0.367370	0.022400
O901	O90	0.073320	0.429780	0.609100
O911	O91	0.160840	0.256830	0.881600
Mo141	Mo14	0.660640	0.940630	0.191640
P141	P14	0.635480	0.832490	0.446540
O921	O92	0.567700	0.820300	0.535500
O931	O93	0.607620	0.894570	0.351500
O941	O94	0.706590	0.850080	0.167000
O951	O95	0.750560	0.965290	0.333900
O961	O96	0.704640	0.867370	0.522400
O971	O97	0.573320	0.929780	0.109100
O981	O98	0.660840	0.756830	0.381600
Mo151	Mo15	0.339360	0.559370	0.191640
P151	P15	0.364520	0.667510	0.446540
O991	O99	0.432300	0.679700	0.535500
O1001	O100	0.392380	0.605430	0.351500
O1011	O101	0.293410	0.649920	0.167000
O1021	O102	0.249440	0.534710	0.333900
O1031	O103	0.295360	0.632630	0.522400
O1041	O104	0.426680	0.570220	0.109100
O1051	O105	0.339160	0.743170	0.381600
Mo161	Mo16	0.839360	0.059370	0.691640
P161	P16	0.864520	0.167510	0.946540
O1061	O106	0.932300	0.179700	0.035500
O1071	O107	0.892380	0.105430	0.851500
O1081	O108	0.793410	0.149920	0.667000
O1091	O109	0.749440	0.034710	0.833900
O1101	O110	0.795360	0.132630	0.022400
O1111	O111	0.926680	0.070220	0.609100
O1121	O112	0.839160	0.243170	0.881600
Co11	Co1	0.500000	0.750000	0.625000
Co21	Co2	0.000000	0.250000	0.125000
Co31	Co3	0.000000	0.750000	0.875000
Co41	Co4	0.500000	0.250000	0.375000
Co51	Co5	0.500000	0.000000	0.000000
Co61	Co6	0.000000	0.500000	0.500000
Co71	Co7	0.000000	0.000000	0.500000
Co81	Co8	0.500000	0.500000	0.000000
Co91	Co9	0.750000	0.750000	0.250000
Co101	Co10	0.750000	0.250000	0.750000
Co111	Co11	0.250000	0.250000	0.750000
Co121	Co12	0.250000	0.750000	0.250000
