data_WACLEU_clean_PM
_symmetry_space_group_name_H-M	'P1'
_cell_length_a	9.627100
_cell_length_b	13.117200
_cell_length_c	10.572600
_cell_angle_alpha	90.000000
_cell_angle_beta	110.084000
_cell_angle_gamma	90.000000
_symmetry_Int_Tables_number 1

loop_
_symmetry_equiv_pos_as_xyz
'x,y,z'

loop_
_atom_site_label
_atom_site_type_symbol
_atom_site_fract_x
_atom_site_fract_y
_atom_site_fract_z
Mn11	Mn1	0.205330	0.383970	0.360150
Mn21	Mn2	0.252220	0.634310	0.548890
C11	C1	0.436100	0.568700	0.413800
C21	C2	0.545700	0.534900	0.349000
C31	C3	0.492400	0.481100	0.229800
H11	H1	0.391400	0.469700	0.189300
C41	C4	0.591000	0.444000	0.170500
C51	C5	0.739500	0.464500	0.231300
H21	H2	0.805700	0.438800	0.192800
C61	C6	0.793200	0.521700	0.347700
C71	C7	0.695300	0.558200	0.407700
H31	H3	0.729100	0.597500	0.485500
C81	C8	0.958400	0.538900	0.405500
C91	C9	0.543100	0.380500	0.046200
C101	C10	0.455700	0.421400	0.923300
H41	H4	0.420100	0.487600	0.920400
C111	C11	0.420400	0.365700	0.805200
C121	C12	0.469300	0.264700	0.811700
H51	H5	0.443300	0.225400	0.733800
C131	C13	0.556700	0.222900	0.933900
H61	H6	0.591600	0.156500	0.936900
C141	C14	0.591800	0.278800	0.050100
C151	C15	0.335800	0.412300	0.673100
C161	C16	0.687100	0.230200	0.182700
O11	O1	0.305000	0.533800	0.368200
O21	O2	0.476500	0.629500	0.512300
O31	O3	0.298800	0.355400	0.571400
O41	O4	0.308900	0.505400	0.672200
O51	O5	0.637300	0.229400	0.278800
O61	O6	0.805200	0.191800	0.185900
O71	O7	0.031400	0.478000	0.368600
O81	O8	0.010400	0.612400	0.484300
Mn31	Mn3	0.794670	0.883970	0.639850
Mn41	Mn4	0.747780	0.134310	0.451110
C171	C17	0.563900	0.068700	0.586200
C181	C18	0.454300	0.034900	0.651000
C191	C19	0.507600	0.981100	0.770200
H71	H7	0.608600	0.969700	0.810700
C201	C20	0.409000	0.944000	0.829500
C211	C21	0.260500	0.964500	0.768700
H81	H8	0.194300	0.938800	0.807200
C221	C22	0.206800	0.021700	0.652300
C231	C23	0.304700	0.058200	0.592300
H91	H9	0.270900	0.097500	0.514500
C241	C24	0.041600	0.038900	0.594500
C251	C25	0.456900	0.880500	0.953800
C261	C26	0.544300	0.921400	0.076700
H101	H10	0.579900	0.987600	0.079600
C271	C27	0.579600	0.865700	0.194800
C281	C28	0.530700	0.764700	0.188300
H111	H11	0.556700	0.725400	0.266200
C291	C29	0.443300	0.722900	0.066100
H121	H12	0.408400	0.656500	0.063100
C301	C30	0.408200	0.778800	0.949900
C311	C31	0.664200	0.912300	0.326900
C321	C32	0.312900	0.730200	0.817300
O91	O9	0.695000	0.033800	0.631800
O101	O10	0.523500	0.129500	0.487700
O111	O11	0.701200	0.855400	0.428600
O121	O12	0.691100	0.005400	0.327800
O131	O13	0.362700	0.729400	0.721200
O141	O14	0.194800	0.691800	0.814100
O151	O15	0.968600	0.978000	0.631400
O161	O16	0.989600	0.112400	0.515700
