data_WAFKAQ_clean_PM
_symmetry_space_group_name_H-M	'P1'
_cell_length_a	14.354700
_cell_length_b	14.354700
_cell_length_c	14.354700
_cell_angle_alpha	63.292000
_cell_angle_beta	84.196800
_cell_angle_gamma	116.708000
_symmetry_Int_Tables_number 1

loop_
_symmetry_equiv_pos_as_xyz
'x,y,z'

loop_
_atom_site_label
_atom_site_type_symbol
_atom_site_fract_x
_atom_site_fract_y
_atom_site_fract_z
Zn11	Zn1	0.423310	0.000000	0.576690
Zn21	Zn2	0.076690	0.000000	0.923310
Zn31	Zn3	0.576690	0.000000	0.423310
Zn41	Zn4	0.923310	0.000000	0.076690
H11	H1	0.246600	0.093200	0.362600
H21	H2	0.425000	0.073000	0.742000
H31	H3	0.331000	0.917000	0.818000
H41	H4	0.544200	0.906800	0.846600
H51	H5	0.185000	0.927000	0.648000
H61	H6	0.265000	0.083000	0.586000
H71	H7	0.153400	0.609200	0.753400
H81	H8	0.352000	0.167000	0.575000
H91	H9	0.414000	0.149000	0.669000
H101	H10	0.637400	0.390800	0.455800
H111	H11	0.258000	0.833000	0.815000
H121	H12	0.182000	0.851000	0.735000
H131	H13	0.955800	0.609200	0.137400
H141	H14	0.315000	0.167000	0.758000
H151	H15	0.235000	0.149000	0.682000
H161	H16	0.253400	0.390800	0.653400
H171	H17	0.075000	0.833000	0.852000
H181	H18	0.169000	0.851000	0.914000
H191	H19	0.862600	0.906800	0.746600
H201	H20	0.242000	0.927000	0.925000
H211	H21	0.318000	0.083000	0.831000
H221	H22	0.346600	0.093200	0.044200
H231	H23	0.148000	0.073000	0.685000
H241	H24	0.086000	0.917000	0.765000
H251	H25	0.753400	0.906800	0.637400
H261	H26	0.575000	0.927000	0.258000
H271	H27	0.669000	0.083000	0.182000
H281	H28	0.455800	0.093200	0.153400
H291	H29	0.815000	0.073000	0.352000
H301	H30	0.735000	0.917000	0.414000
H311	H31	0.846600	0.390800	0.246600
H321	H32	0.648000	0.833000	0.425000
H331	H33	0.586000	0.851000	0.331000
H341	H34	0.362600	0.609200	0.544200
H351	H35	0.742000	0.167000	0.185000
H361	H36	0.818000	0.149000	0.265000
H371	H37	0.044200	0.390800	0.862600
H381	H38	0.685000	0.833000	0.242000
H391	H39	0.765000	0.851000	0.318000
H401	H40	0.746600	0.609200	0.346600
H411	H41	0.925000	0.167000	0.148000
H421	H42	0.831000	0.149000	0.086000
H431	H43	0.137400	0.093200	0.253400
H441	H44	0.758000	0.073000	0.075000
H451	H45	0.682000	0.917000	0.169000
H461	H46	0.653400	0.906800	0.955800
H471	H47	0.852000	0.927000	0.315000
H481	H48	0.914000	0.083000	0.235000
C11	C1	0.265800	0.091020	0.299400
C21	C2	0.366900	0.028500	0.755600
C31	C3	0.609580	0.908980	0.825220
C41	C4	0.215900	0.971500	0.661600
C51	C5	0.174780	0.565200	0.734200
C61	C6	0.338400	0.122500	0.633100
C71	C7	0.700600	0.434800	0.390420
C81	C8	0.244400	0.877500	0.784100
C91	C9	0.890420	0.565200	0.200600
C101	C10	0.284100	0.122500	0.744400
C111	C11	0.234200	0.434800	0.674780
C121	C12	0.133100	0.877500	0.838400
C131	C13	0.799400	0.908980	0.765800
C141	C14	0.255600	0.971500	0.866900
C151	C15	0.325220	0.091020	0.109580
C161	C16	0.161600	0.028500	0.715900
C171	C17	0.734200	0.908980	0.700600
C181	C18	0.633100	0.971500	0.244400
C191	C19	0.390420	0.091020	0.174780
C201	C20	0.784100	0.028500	0.338400
C211	C21	0.825220	0.434800	0.265800
C221	C22	0.661600	0.877500	0.366900
C231	C23	0.299400	0.565200	0.609580
C241	C24	0.755600	0.122500	0.215900
C251	C25	0.109580	0.434800	0.799400
C261	C26	0.715900	0.877500	0.255600
C271	C27	0.765800	0.565200	0.325220
C281	C28	0.866900	0.122500	0.161600
C291	C29	0.200600	0.091020	0.234200
C301	C30	0.744400	0.028500	0.133100
C311	C31	0.674780	0.908980	0.890420
C321	C32	0.838400	0.971500	0.284100
C331	C33	0.359120	0.087810	0.271310
C341	C34	0.421220	0.071680	0.349540
C351	C35	0.640880	0.912190	0.728690
C361	C36	0.578780	0.928320	0.650460
C371	C37	0.271310	0.630430	0.640880
C381	C38	0.349540	0.770760	0.578780
C391	C39	0.728690	0.369570	0.359120
C401	C40	0.650460	0.229240	0.421220
C411	C41	0.859120	0.630430	0.228690
C421	C42	0.921220	0.770760	0.150460
C431	C43	0.140880	0.369570	0.771310
C441	C44	0.078780	0.229240	0.849540
C451	C45	0.771310	0.912190	0.859120
C461	C46	0.849540	0.928320	0.921220
C471	C47	0.228690	0.087810	0.140880
C481	C48	0.150460	0.071680	0.078780
N11	N1	0.317110	0.000000	0.682890
N21	N2	0.182890	0.000000	0.817110
N31	N3	0.682890	0.000000	0.317110
N41	N4	0.817110	0.000000	0.182890
O11	O1	0.386740	0.064770	0.437210
O21	O2	0.498020	0.935230	0.678030
O31	O3	0.321970	0.823950	0.613260
O41	O4	0.562790	0.176050	0.501980
O51	O5	0.001980	0.823950	0.062790
O61	O6	0.113260	0.176050	0.821970
O71	O7	0.937210	0.935230	0.886740
O81	O8	0.178030	0.064770	0.998020
O91	O9	0.613260	0.935230	0.562790
O101	O10	0.501980	0.064770	0.321970
O111	O11	0.678030	0.176050	0.386740
O121	O12	0.437210	0.823950	0.498020
O131	O13	0.998020	0.176050	0.937210
O141	O14	0.886740	0.823950	0.178030
O151	O15	0.062790	0.064770	0.113260
O161	O16	0.821970	0.935230	0.001980
