data_WAGLEY_clean_PM
_symmetry_space_group_name_H-M	'P1'
_cell_length_a	8.857000
_cell_length_b	10.021000
_cell_length_c	12.993000
_cell_angle_alpha	82.284000
_cell_angle_beta	84.145000
_cell_angle_gamma	89.896000
_symmetry_Int_Tables_number 1

loop_
_symmetry_equiv_pos_as_xyz
'x,y,z'

loop_
_atom_site_label
_atom_site_type_symbol
_atom_site_fract_x
_atom_site_fract_y
_atom_site_fract_z
S11	S1	0.953990	0.110620	0.255900
N11	N1	0.099700	0.210300	0.927400
N21	N2	0.216200	0.380600	0.825500
N31	N3	0.918600	0.195400	0.549200
N41	N4	0.872800	0.359800	0.643600
N51	N5	0.244900	0.915700	0.996500
N61	N6	0.467500	0.852100	0.931200
O11	O1	0.023300	0.045000	0.169800
O21	O2	0.818200	0.032000	0.300600
O31	O3	0.061700	0.106600	0.334200
O41	O4	0.913600	0.248500	0.221500
C11	C1	0.445500	0.517500	0.754700
C21	C2	0.580000	0.449500	0.734500
H11	H1	0.578300	0.367500	0.708600
C31	C3	0.717300	0.504600	0.753200
C41	C4	0.718400	0.626700	0.792900
H21	H2	0.810400	0.663200	0.805100
C51	C5	0.585200	0.695100	0.814600
C61	C6	0.448000	0.640400	0.794200
H31	H3	0.357900	0.686000	0.806900
C71	C7	0.296400	0.460200	0.733200
H41	H4	0.232200	0.533500	0.708300
H51	H5	0.315000	0.403600	0.678300
C81	C8	0.866700	0.436400	0.732600
H61	H6	0.946900	0.504100	0.719600
H71	H7	0.885600	0.375800	0.794600
C91	C9	0.593200	0.830700	0.852600
H81	H8	0.688500	0.838200	0.882400
H91	H9	0.592200	0.900900	0.793500
C101	C10	0.159100	0.428800	0.915000
H101	H10	0.167900	0.516300	0.930200
C111	C11	0.087100	0.323200	0.977300
H111	H11	0.037200	0.326700	0.043400
C121	C12	0.177800	0.248400	0.836500
H121	H12	0.203300	0.191800	0.786400
C131	C13	0.845700	0.408900	0.543700
H131	H13	0.814200	0.495200	0.520100
C141	C14	0.874200	0.306100	0.485600
H141	H14	0.865000	0.310300	0.414600
C151	C15	0.916100	0.230700	0.643200
H151	H15	0.940900	0.174100	0.701600
C161	C16	0.318000	0.847600	0.074500
H161	H16	0.279800	0.831600	0.144500
C171	C17	0.455000	0.806700	0.034300
H171	H17	0.526300	0.757100	0.070600
C181	C18	0.338900	0.917200	0.911300
H181	H18	0.318800	0.958200	0.845600
S21	S2	0.046010	0.889380	0.744100
N71	N7	0.900300	0.789700	0.072600
N81	N8	0.783800	0.619400	0.174500
N91	N9	0.081400	0.804600	0.450800
N101	N10	0.127200	0.640200	0.356400
N111	N11	0.755100	0.084300	0.003500
N121	N12	0.532500	0.147900	0.068800
O51	O5	0.976700	0.955000	0.830200
O61	O6	0.181800	0.968000	0.699400
O71	O7	0.938300	0.893400	0.665800
O81	O8	0.086400	0.751500	0.778500
C191	C19	0.554500	0.482500	0.245300
C201	C20	0.420000	0.550500	0.265500
H191	H19	0.421700	0.632500	0.291400
C211	C21	0.282700	0.495400	0.246800
C221	C22	0.281600	0.373300	0.207100
H201	H20	0.189600	0.336800	0.194900
C231	C23	0.414800	0.304900	0.185400
C241	C24	0.552000	0.359600	0.205800
H211	H21	0.642100	0.314000	0.193100
C251	C25	0.703600	0.539800	0.266800
H221	H22	0.767800	0.466500	0.291700
H231	H23	0.685000	0.596400	0.321700
C261	C26	0.133300	0.563600	0.267400
H241	H24	0.053100	0.495900	0.280400
H251	H25	0.114400	0.624200	0.205400
C271	C27	0.406800	0.169300	0.147400
H261	H26	0.311500	0.161800	0.117600
H271	H27	0.407800	0.099100	0.206500
C281	C28	0.840900	0.571200	0.085000
H281	H28	0.832100	0.483700	0.069800
C291	C29	0.912900	0.676800	0.022700
H291	H29	0.962800	0.673300	0.956600
C301	C30	0.822200	0.751600	0.163500
H301	H30	0.796700	0.808200	0.213600
C311	C31	0.154300	0.591100	0.456300
H311	H31	0.185800	0.504800	0.479900
C321	C32	0.125800	0.693900	0.514400
H321	H32	0.135000	0.689700	0.585400
C331	C33	0.083900	0.769300	0.356800
H331	H33	0.059100	0.825900	0.298400
C341	C34	0.682000	0.152400	0.925500
H341	H34	0.720200	0.168400	0.855500
C351	C35	0.545000	0.193300	0.965700
H351	H35	0.473700	0.242900	0.929400
C361	C36	0.661100	0.082800	0.088700
H361	H36	0.681200	0.041800	0.154400
Cd11	Cd1	0.000000	0.000000	0.000000
Cd21	Cd2	0.000000	0.000000	0.500000
