data_WAHGIY_clean_PM
_symmetry_space_group_name_H-M	'P1'
_cell_length_a	11.301800
_cell_length_b	10.358300
_cell_length_c	21.366100
_cell_angle_alpha	90.000000
_cell_angle_beta	95.066000
_cell_angle_gamma	90.000000
_symmetry_Int_Tables_number 1

loop_
_symmetry_equiv_pos_as_xyz
'x,y,z'

loop_
_atom_site_label
_atom_site_type_symbol
_atom_site_fract_x
_atom_site_fract_y
_atom_site_fract_z
C11	C1	0.798100	0.009800	0.524800
H11	H1	0.803500	0.069200	0.492500
C21	C2	0.876800	0.908800	0.529800
H21	H2	0.932900	0.899500	0.500700
C31	C3	0.872500	0.820800	0.578100
C41	C4	0.786800	0.839000	0.619500
H31	H3	0.781000	0.782600	0.653000
C51	C5	0.710300	0.941200	0.610640
H41	H4	0.652400	0.952000	0.638500
C61	C6	0.956100	0.710800	0.584900
C71	C7	0.170200	0.564800	0.516900
C81	C8	0.260500	0.463200	0.523400
C91	C9	0.276500	0.383000	0.574700
H51	H5	0.225300	0.388100	0.606400
C101	C10	0.368100	0.295200	0.579200
H61	H6	0.376900	0.241500	0.614200
C111	C11	0.426900	0.358400	0.484570
H71	H7	0.477800	0.350000	0.452900
C121	C12	0.336800	0.447100	0.477050
H81	H8	0.327100	0.496500	0.440600
C131	C13	0.618000	0.131300	0.355640
C141	C14	0.657200	0.252200	0.338670
H91	H9	0.673500	0.315100	0.369300
C151	C15	0.672100	0.279600	0.276670
H101	H10	0.698200	0.361100	0.265900
C161	C16	0.648700	0.187200	0.230090
C171	C17	0.613500	0.066400	0.248680
C181	C18	0.597200	0.036400	0.310060
H111	H11	0.572800	0.954300	0.320800
C191	C19	0.660700	0.221800	0.161810
C201	C20	0.596200	0.099600	0.422620
N11	N1	0.715000	0.026400	0.563780
N21	N2	0.029300	0.693400	0.545300
N31	N3	0.104100	0.586900	0.560120
N41	N4	0.444900	0.283500	0.535500
N51	N5	0.588500	0.964400	0.202500
O11	O1	0.620800	0.188500	0.462790
O21	O2	0.557400	0.992100	0.434350
O31	O3	0.589900	0.308100	0.140120
O41	O4	0.735500	0.166400	0.132960
O51	O5	0.538000	0.991900	0.151480
O61	O6	0.615500	0.853500	0.216500
Cu11	Cu1	0.584350	0.159690	0.549350
H121	H12	0.160000	0.623000	0.481000
H131	H13	0.950000	0.652000	0.621000
C211	C21	0.798100	0.490200	0.024800
H141	H14	0.803500	0.430800	0.992500
C221	C22	0.876800	0.591200	0.029800
H151	H15	0.932900	0.600500	0.000700
C231	C23	0.872500	0.679200	0.078100
C241	C24	0.786800	0.661000	0.119500
H161	H16	0.781000	0.717400	0.153000
C251	C25	0.710300	0.558800	0.110640
H171	H17	0.652400	0.548000	0.138500
C261	C26	0.956100	0.789200	0.084900
C271	C27	0.170200	0.935200	0.016900
C281	C28	0.260500	0.036800	0.023400
C291	C29	0.276500	0.117000	0.074700
H181	H18	0.225300	0.111900	0.106400
C301	C30	0.368100	0.204800	0.079200
H191	H19	0.376900	0.258500	0.114200
C311	C31	0.426900	0.141600	0.984570
H201	H20	0.477800	0.150000	0.952900
C321	C32	0.336800	0.052900	0.977050
H211	H21	0.327100	0.003500	0.940600
C331	C33	0.618000	0.368700	0.855640
C341	C34	0.657200	0.247800	0.838670
H221	H22	0.673500	0.184900	0.869300
C351	C35	0.672100	0.220400	0.776670
H231	H23	0.698200	0.138900	0.765900
C361	C36	0.648700	0.312800	0.730090
C371	C37	0.613500	0.433600	0.748680
C381	C38	0.597200	0.463600	0.810060
H241	H24	0.572800	0.545700	0.820800
C391	C39	0.660700	0.278200	0.661810
C401	C40	0.596200	0.400400	0.922620
N61	N6	0.715000	0.473600	0.063780
N71	N7	0.029300	0.806600	0.045300
N81	N8	0.104100	0.913100	0.060120
N91	N9	0.444900	0.216500	0.035500
N101	N10	0.588500	0.535600	0.702500
O71	O7	0.620800	0.311500	0.962790
O81	O8	0.557400	0.507900	0.934350
O91	O9	0.589900	0.191900	0.640120
O101	O10	0.735500	0.333600	0.632960
O111	O11	0.538000	0.508100	0.651480
O121	O12	0.615500	0.646500	0.716500
Cu21	Cu2	0.584350	0.340310	0.049350
H251	H25	0.160000	0.877000	0.981000
H261	H26	0.950000	0.848000	0.121000
C411	C41	0.201900	0.509800	0.975200
H271	H27	0.196500	0.569200	0.007500
C421	C42	0.123200	0.408800	0.970200
H281	H28	0.067100	0.399500	0.999300
C431	C43	0.127500	0.320800	0.921900
C441	C44	0.213200	0.339000	0.880500
H291	H29	0.219000	0.282600	0.847000
C451	C45	0.289700	0.441200	0.889360
H301	H30	0.347600	0.452000	0.861500
C461	C46	0.043900	0.210800	0.915100
C471	C47	0.829800	0.064800	0.983100
C481	C48	0.739500	0.963200	0.976600
C491	C49	0.723500	0.883000	0.925300
H311	H31	0.774700	0.888100	0.893600
C501	C50	0.631900	0.795200	0.920800
H321	H32	0.623100	0.741500	0.885800
C511	C51	0.573100	0.858400	0.015430
H331	H33	0.522200	0.850000	0.047100
C521	C52	0.663200	0.947100	0.022950
H341	H34	0.672900	0.996500	0.059400
C531	C53	0.382000	0.631300	0.144360
C541	C54	0.342800	0.752200	0.161330
H351	H35	0.326500	0.815100	0.130700
C551	C55	0.327900	0.779600	0.223330
H361	H36	0.301800	0.861100	0.234100
C561	C56	0.351300	0.687200	0.269910
C571	C57	0.386500	0.566400	0.251320
C581	C58	0.402800	0.536400	0.189940
H371	H37	0.427200	0.454300	0.179200
C591	C59	0.339300	0.721800	0.338190
C601	C60	0.403800	0.599600	0.077380
N111	N11	0.285000	0.526400	0.936220
N121	N12	0.970700	0.193400	0.954700
N131	N13	0.895900	0.086900	0.939880
N141	N14	0.555100	0.783500	0.964500
N151	N15	0.411500	0.464400	0.297500
O131	O13	0.379200	0.688500	0.037210
O141	O14	0.442600	0.492100	0.065650
O151	O15	0.410100	0.808100	0.359880
O161	O16	0.264500	0.666400	0.367040
O171	O17	0.462000	0.491900	0.348520
O181	O18	0.384500	0.353500	0.283500
Cu31	Cu3	0.415650	0.659690	0.950650
H381	H38	0.840000	0.123000	0.019000
H391	H39	0.050000	0.152000	0.879000
C611	C61	0.201900	0.990200	0.475200
H401	H40	0.196500	0.930800	0.507500
C621	C62	0.123200	0.091200	0.470200
H411	H41	0.067100	0.100500	0.499300
C631	C63	0.127500	0.179200	0.421900
C641	C64	0.213200	0.161000	0.380500
H421	H42	0.219000	0.217400	0.347000
C651	C65	0.289700	0.058800	0.389360
H431	H43	0.347600	0.048000	0.361500
C661	C66	0.043900	0.289200	0.415100
C671	C67	0.829800	0.435200	0.483100
C681	C68	0.739500	0.536800	0.476600
C691	C69	0.723500	0.617000	0.425300
H441	H44	0.774700	0.611900	0.393600
C701	C70	0.631900	0.704800	0.420800
H451	H45	0.623100	0.758500	0.385800
C711	C71	0.573100	0.641600	0.515430
H461	H46	0.522200	0.650000	0.547100
C721	C72	0.663200	0.552900	0.522950
H471	H47	0.672900	0.503500	0.559400
C731	C73	0.382000	0.868700	0.644360
C741	C74	0.342800	0.747800	0.661330
H481	H48	0.326500	0.684900	0.630700
C751	C75	0.327900	0.720400	0.723330
H491	H49	0.301800	0.638900	0.734100
C761	C76	0.351300	0.812800	0.769910
C771	C77	0.386500	0.933600	0.751320
C781	C78	0.402800	0.963600	0.689940
H501	H50	0.427200	0.045700	0.679200
C791	C79	0.339300	0.778200	0.838190
C801	C80	0.403800	0.900400	0.577380
N161	N16	0.285000	0.973600	0.436220
N171	N17	0.970700	0.306600	0.454700
N181	N18	0.895900	0.413100	0.439880
N191	N19	0.555100	0.716500	0.464500
N201	N20	0.411500	0.035600	0.797500
O191	O19	0.379200	0.811500	0.537210
O201	O20	0.442600	0.007900	0.565650
O211	O21	0.410100	0.691900	0.859880
O221	O22	0.264500	0.833600	0.867040
O231	O23	0.462000	0.008100	0.848520
O241	O24	0.384500	0.146500	0.783500
Cu41	Cu4	0.415650	0.840310	0.450650
H511	H51	0.840000	0.377000	0.519000
H521	H52	0.050000	0.348000	0.379000
