data_WAHKUO_clean_PM
_symmetry_space_group_name_H-M	'P1'
_cell_length_a	21.217400
_cell_length_b	21.217400
_cell_length_c	21.217400
_cell_angle_alpha	90.000000
_cell_angle_beta	90.000000
_cell_angle_gamma	90.000000
_symmetry_Int_Tables_number 1

loop_
_symmetry_equiv_pos_as_xyz
'x,y,z'

loop_
_atom_site_label
_atom_site_type_symbol
_atom_site_fract_x
_atom_site_fract_y
_atom_site_fract_z
N11	N1	0.564600	0.693400	0.068000
C11	C1	0.582200	0.754200	0.085200
H11	H1	0.564400	0.789400	0.064100
C21	C2	0.625800	0.763300	0.133200
H21	H2	0.637800	0.804800	0.144900
C31	C3	0.651900	0.711700	0.164000
C41	C4	0.634300	0.651000	0.146800
H31	H3	0.652100	0.615700	0.167900
C51	C5	0.590700	0.641800	0.098800
H41	H4	0.578700	0.600300	0.087000
C61	C6	0.694000	0.724000	0.216700
C71	C7	0.738900	0.682300	0.230600
H51	H5	0.740200	0.643400	0.208300
N21	N2	0.435400	0.306600	0.068000
C81	C8	0.417800	0.245800	0.085200
H61	H6	0.435600	0.210600	0.064100
C91	C9	0.374200	0.236700	0.133200
H71	H7	0.362200	0.195200	0.144900
C101	C10	0.348100	0.288300	0.164000
C111	C11	0.365700	0.349000	0.146800
H81	H8	0.347900	0.384300	0.167900
C121	C12	0.409300	0.358200	0.098800
H91	H9	0.421300	0.399700	0.087000
C131	C13	0.306000	0.276000	0.216700
C141	C14	0.261100	0.317700	0.230600
H101	H10	0.259800	0.356600	0.208300
N31	N3	0.435400	0.693400	0.932000
C151	C15	0.417800	0.754200	0.914800
H111	H11	0.435600	0.789400	0.935900
C161	C16	0.374200	0.763300	0.866800
H121	H12	0.362200	0.804800	0.855100
C171	C17	0.348100	0.711700	0.836000
C181	C18	0.365700	0.651000	0.853200
H131	H13	0.347900	0.615700	0.832100
C191	C19	0.409300	0.641800	0.901200
H141	H14	0.421300	0.600300	0.913000
C201	C20	0.306000	0.724000	0.783300
C211	C21	0.261100	0.682300	0.769400
H151	H15	0.259800	0.643400	0.791700
N41	N4	0.564600	0.306600	0.932000
C221	C22	0.582200	0.245800	0.914800
H161	H16	0.564400	0.210600	0.935900
C231	C23	0.625800	0.236700	0.866800
H171	H17	0.637800	0.195200	0.855100
C241	C24	0.651900	0.288300	0.836000
C251	C25	0.634300	0.349000	0.853200
H181	H18	0.652100	0.384300	0.832100
C261	C26	0.590700	0.358200	0.901200
H191	H19	0.578700	0.399700	0.913000
C271	C27	0.694000	0.276000	0.783300
C281	C28	0.738900	0.317700	0.769400
H201	H20	0.740200	0.356600	0.791700
N51	N5	0.068000	0.564600	0.693400
C291	C29	0.085200	0.582200	0.754200
H211	H21	0.064100	0.564400	0.789400
C301	C30	0.133200	0.625800	0.763300
H221	H22	0.144900	0.637800	0.804800
C311	C31	0.164000	0.651900	0.711700
C321	C32	0.146800	0.634300	0.651000
H231	H23	0.167900	0.652100	0.615700
C331	C33	0.098800	0.590700	0.641800
H241	H24	0.087000	0.578700	0.600300
C341	C34	0.216700	0.694000	0.724000
C351	C35	0.230600	0.738900	0.682300
H251	H25	0.208300	0.740200	0.643400
N61	N6	0.068000	0.435400	0.306600
C361	C36	0.085200	0.417800	0.245800
H261	H26	0.064100	0.435600	0.210600
C371	C37	0.133200	0.374200	0.236700
H271	H27	0.144900	0.362200	0.195200
C381	C38	0.164000	0.348100	0.288300
C391	C39	0.146800	0.365700	0.349000
H281	H28	0.167900	0.347900	0.384300
C401	C40	0.098800	0.409300	0.358200
H291	H29	0.087000	0.421300	0.399700
C411	C41	0.216700	0.306000	0.276000
C421	C42	0.230600	0.261100	0.317700
H301	H30	0.208300	0.259800	0.356600
N71	N7	0.932000	0.435400	0.693400
C431	C43	0.914800	0.417800	0.754200
H311	H31	0.935900	0.435600	0.789400
C441	C44	0.866800	0.374200	0.763300
H321	H32	0.855100	0.362200	0.804800
C451	C45	0.836000	0.348100	0.711700
C461	C46	0.853200	0.365700	0.651000
H331	H33	0.832100	0.347900	0.615700
C471	C47	0.901200	0.409300	0.641800
H341	H34	0.913000	0.421300	0.600300
C481	C48	0.783300	0.306000	0.724000
C491	C49	0.769400	0.261100	0.682300
H351	H35	0.791700	0.259800	0.643400
N81	N8	0.932000	0.564600	0.306600
C501	C50	0.914800	0.582200	0.245800
H361	H36	0.935900	0.564400	0.210600
C511	C51	0.866800	0.625800	0.236700
H371	H37	0.855100	0.637800	0.195200
C521	C52	0.836000	0.651900	0.288300
C531	C53	0.853200	0.634300	0.349000
H381	H38	0.832100	0.652100	0.384300
C541	C54	0.901200	0.590700	0.358200
H391	H39	0.913000	0.578700	0.399700
C551	C55	0.783300	0.694000	0.276000
C561	C56	0.769400	0.738900	0.317700
H401	H40	0.791700	0.740200	0.356600
N91	N9	0.693400	0.068000	0.564600
C571	C57	0.754200	0.085200	0.582200
H411	H41	0.789400	0.064100	0.564400
C581	C58	0.763300	0.133200	0.625800
H421	H42	0.804800	0.144900	0.637800
C591	C59	0.711700	0.164000	0.651900
C601	C60	0.651000	0.146800	0.634300
H431	H43	0.615700	0.167900	0.652100
C611	C61	0.641800	0.098800	0.590700
H441	H44	0.600300	0.087000	0.578700
C621	C62	0.724000	0.216700	0.694000
C631	C63	0.682300	0.230600	0.738900
H451	H45	0.643400	0.208300	0.740200
N101	N10	0.306600	0.068000	0.435400
C641	C64	0.245800	0.085200	0.417800
H461	H46	0.210600	0.064100	0.435600
C651	C65	0.236700	0.133200	0.374200
H471	H47	0.195200	0.144900	0.362200
C661	C66	0.288300	0.164000	0.348100
C671	C67	0.349000	0.146800	0.365700
H481	H48	0.384300	0.167900	0.347900
C681	C68	0.358200	0.098800	0.409300
H491	H49	0.399700	0.087000	0.421300
C691	C69	0.276000	0.216700	0.306000
C701	C70	0.317700	0.230600	0.261100
H501	H50	0.356600	0.208300	0.259800
N111	N11	0.693400	0.932000	0.435400
C711	C71	0.754200	0.914800	0.417800
H511	H51	0.789400	0.935900	0.435600
C721	C72	0.763300	0.866800	0.374200
H521	H52	0.804800	0.855100	0.362200
C731	C73	0.711700	0.836000	0.348100
C741	C74	0.651000	0.853200	0.365700
H531	H53	0.615700	0.832100	0.347900
C751	C75	0.641800	0.901200	0.409300
H541	H54	0.600300	0.913000	0.421300
C761	C76	0.724000	0.783300	0.306000
C771	C77	0.682300	0.769400	0.261100
H551	H55	0.643400	0.791700	0.259800
N121	N12	0.306600	0.932000	0.564600
C781	C78	0.245800	0.914800	0.582200
H561	H56	0.210600	0.935900	0.564400
C791	C79	0.236700	0.866800	0.625800
H571	H57	0.195200	0.855100	0.637800
C801	C80	0.288300	0.836000	0.651900
C811	C81	0.349000	0.853200	0.634300
H581	H58	0.384300	0.832100	0.652100
C821	C82	0.358200	0.901200	0.590700
H591	H59	0.399700	0.913000	0.578700
C831	C83	0.276000	0.783300	0.694000
C841	C84	0.317700	0.769400	0.738900
H601	H60	0.356600	0.791700	0.740200
N131	N13	0.435400	0.306600	0.932000
C851	C85	0.417800	0.245800	0.914800
H611	H61	0.435600	0.210600	0.935900
C861	C86	0.374200	0.236700	0.866800
H621	H62	0.362200	0.195200	0.855100
C871	C87	0.348100	0.288300	0.836000
C881	C88	0.365700	0.349000	0.853200
H631	H63	0.347900	0.384300	0.832100
C891	C89	0.409300	0.358200	0.901200
H641	H64	0.421300	0.399700	0.913000
C901	C90	0.306000	0.276000	0.783300
C911	C91	0.261100	0.317700	0.769400
H651	H65	0.259800	0.356600	0.791700
N141	N14	0.564600	0.693400	0.932000
C921	C92	0.582200	0.754200	0.914800
H661	H66	0.564400	0.789400	0.935900
C931	C93	0.625800	0.763300	0.866800
H671	H67	0.637800	0.804800	0.855100
C941	C94	0.651900	0.711700	0.836000
C951	C95	0.634300	0.651000	0.853200
H681	H68	0.652100	0.615700	0.832100
C961	C96	0.590700	0.641800	0.901200
H691	H69	0.578700	0.600300	0.913000
C971	C97	0.694000	0.724000	0.783300
C981	C98	0.738900	0.682300	0.769400
H701	H70	0.740200	0.643400	0.791700
N151	N15	0.564600	0.306600	0.068000
C991	C99	0.582200	0.245800	0.085200
H711	H71	0.564400	0.210600	0.064100
C1001	C100	0.625800	0.236700	0.133200
H721	H72	0.637800	0.195200	0.144900
C1011	C101	0.651900	0.288300	0.164000
C1021	C102	0.634300	0.349000	0.146800
H731	H73	0.652100	0.384300	0.167900
C1031	C103	0.590700	0.358200	0.098800
H741	H74	0.578700	0.399700	0.087000
C1041	C104	0.694000	0.276000	0.216700
C1051	C105	0.738900	0.317700	0.230600
H751	H75	0.740200	0.356600	0.208300
N161	N16	0.435400	0.693400	0.068000
C1061	C106	0.417800	0.754200	0.085200
H761	H76	0.435600	0.789400	0.064100
C1071	C107	0.374200	0.763300	0.133200
H771	H77	0.362200	0.804800	0.144900
C1081	C108	0.348100	0.711700	0.164000
C1091	C109	0.365700	0.651000	0.146800
H781	H78	0.347900	0.615700	0.167900
C1101	C110	0.409300	0.641800	0.098800
H791	H79	0.421300	0.600300	0.087000
C1111	C111	0.306000	0.724000	0.216700
C1121	C112	0.261100	0.682300	0.230600
H801	H80	0.259800	0.643400	0.208300
N171	N17	0.932000	0.435400	0.306600
C1131	C113	0.914800	0.417800	0.245800
H811	H81	0.935900	0.435600	0.210600
C1141	C114	0.866800	0.374200	0.236700
H821	H82	0.855100	0.362200	0.195200
C1151	C115	0.836000	0.348100	0.288300
C1161	C116	0.853200	0.365700	0.349000
H831	H83	0.832100	0.347900	0.384300
C1171	C117	0.901200	0.409300	0.358200
H841	H84	0.913000	0.421300	0.399700
C1181	C118	0.783300	0.306000	0.276000
C1191	C119	0.769400	0.261100	0.317700
H851	H85	0.791700	0.259800	0.356600
N181	N18	0.932000	0.564600	0.693400
C1201	C120	0.914800	0.582200	0.754200
H861	H86	0.935900	0.564400	0.789400
C1211	C121	0.866800	0.625800	0.763300
H871	H87	0.855100	0.637800	0.804800
C1221	C122	0.836000	0.651900	0.711700
C1231	C123	0.853200	0.634300	0.651000
H881	H88	0.832100	0.652100	0.615700
C1241	C124	0.901200	0.590700	0.641800
H891	H89	0.913000	0.578700	0.600300
C1251	C125	0.783300	0.694000	0.724000
C1261	C126	0.769400	0.738900	0.682300
H901	H90	0.791700	0.740200	0.643400
N191	N19	0.068000	0.564600	0.306600
C1271	C127	0.085200	0.582200	0.245800
H911	H91	0.064100	0.564400	0.210600
C1281	C128	0.133200	0.625800	0.236700
H921	H92	0.144900	0.637800	0.195200
C1291	C129	0.164000	0.651900	0.288300
C1301	C130	0.146800	0.634300	0.349000
H931	H93	0.167900	0.652100	0.384300
C1311	C131	0.098800	0.590700	0.358200
H941	H94	0.087000	0.578700	0.399700
C1321	C132	0.216700	0.694000	0.276000
C1331	C133	0.230600	0.738900	0.317700
H951	H95	0.208300	0.740200	0.356600
N201	N20	0.068000	0.435400	0.693400
C1341	C134	0.085200	0.417800	0.754200
H961	H96	0.064100	0.435600	0.789400
C1351	C135	0.133200	0.374200	0.763300
H971	H97	0.144900	0.362200	0.804800
C1361	C136	0.164000	0.348100	0.711700
C1371	C137	0.146800	0.365700	0.651000
H981	H98	0.167900	0.347900	0.615700
C1381	C138	0.098800	0.409300	0.641800
H991	H99	0.087000	0.421300	0.600300
C1391	C139	0.216700	0.306000	0.724000
C1401	C140	0.230600	0.261100	0.682300
H1001	H100	0.208300	0.259800	0.643400
N211	N21	0.306600	0.932000	0.435400
C1411	C141	0.245800	0.914800	0.417800
H1011	H101	0.210600	0.935900	0.435600
C1421	C142	0.236700	0.866800	0.374200
H1021	H102	0.195200	0.855100	0.362200
C1431	C143	0.288300	0.836000	0.348100
C1441	C144	0.349000	0.853200	0.365700
H1031	H103	0.384300	0.832100	0.347900
C1451	C145	0.358200	0.901200	0.409300
H1041	H104	0.399700	0.913000	0.421300
C1461	C146	0.276000	0.783300	0.306000
C1471	C147	0.317700	0.769400	0.261100
H1051	H105	0.356600	0.791700	0.259800
N221	N22	0.693400	0.932000	0.564600
C1481	C148	0.754200	0.914800	0.582200
H1061	H106	0.789400	0.935900	0.564400
C1491	C149	0.763300	0.866800	0.625800
H1071	H107	0.804800	0.855100	0.637800
C1501	C150	0.711700	0.836000	0.651900
C1511	C151	0.651000	0.853200	0.634300
H1081	H108	0.615700	0.832100	0.652100
C1521	C152	0.641800	0.901200	0.590700
H1091	H109	0.600300	0.913000	0.578700
C1531	C153	0.724000	0.783300	0.694000
C1541	C154	0.682300	0.769400	0.738900
H1101	H110	0.643400	0.791700	0.740200
N231	N23	0.306600	0.068000	0.564600
C1551	C155	0.245800	0.085200	0.582200
H1111	H111	0.210600	0.064100	0.564400
C1561	C156	0.236700	0.133200	0.625800
H1121	H112	0.195200	0.144900	0.637800
C1571	C157	0.288300	0.164000	0.651900
C1581	C158	0.349000	0.146800	0.634300
H1131	H113	0.384300	0.167900	0.652100
C1591	C159	0.358200	0.098800	0.590700
H1141	H114	0.399700	0.087000	0.578700
C1601	C160	0.276000	0.216700	0.694000
C1611	C161	0.317700	0.230600	0.738900
H1151	H115	0.356600	0.208300	0.740200
N241	N24	0.693400	0.068000	0.435400
C1621	C162	0.754200	0.085200	0.417800
H1161	H116	0.789400	0.064100	0.435600
C1631	C163	0.763300	0.133200	0.374200
H1171	H117	0.804800	0.144900	0.362200
C1641	C164	0.711700	0.164000	0.348100
C1651	C165	0.651000	0.146800	0.365700
H1181	H118	0.615700	0.167900	0.347900
C1661	C166	0.641800	0.098800	0.409300
H1191	H119	0.600300	0.087000	0.421300
C1671	C167	0.724000	0.216700	0.306000
C1681	C168	0.682300	0.230600	0.261100
H1201	H120	0.643400	0.208300	0.259800
Cu11	Cu1	0.500000	0.686970	0.000000
F11	F1	0.500000	0.587600	0.000000
Cu21	Cu2	0.500000	0.313030	0.000000
F21	F2	0.500000	0.412400	0.000000
Cu31	Cu3	0.000000	0.500000	0.686970
F31	F3	0.000000	0.500000	0.587600
Cu41	Cu4	0.000000	0.500000	0.313030
F41	F4	0.000000	0.500000	0.412400
Cu51	Cu5	0.686970	0.000000	0.500000
F51	F5	0.587600	0.000000	0.500000
Cu61	Cu6	0.313030	0.000000	0.500000
F61	F6	0.412400	0.000000	0.500000
Ti11	Ti1	0.500000	0.500000	0.000000
Ti21	Ti2	0.000000	0.500000	0.500000
Ti31	Ti3	0.500000	0.000000	0.500000
F71	F7	0.539500	0.500000	0.066100
F81	F8	0.460500	0.500000	0.066100
F91	F9	0.460500	0.500000	0.933900
F101	F10	0.539500	0.500000	0.933900
F111	F11	0.066100	0.539500	0.500000
F121	F12	0.066100	0.460500	0.500000
F131	F13	0.933900	0.460500	0.500000
F141	F14	0.933900	0.539500	0.500000
F151	F15	0.500000	0.066100	0.539500
F161	F16	0.500000	0.066100	0.460500
F171	F17	0.500000	0.933900	0.460500
F181	F18	0.500000	0.933900	0.539500
