data_WAHMEY01_clean_h_PM
_symmetry_space_group_name_H-M	'P1'
_cell_length_a	7.013000
_cell_length_b	15.790000
_cell_length_c	15.790000
_cell_angle_alpha	120.000000
_cell_angle_beta	90.000000
_cell_angle_gamma	90.000000
_symmetry_Int_Tables_number 1

loop_
_symmetry_equiv_pos_as_xyz
'x,y,z'

loop_
_atom_site_label
_atom_site_type_symbol
_atom_site_fract_x
_atom_site_fract_y
_atom_site_fract_z
Fe11	Fe1	0.500000	0.500000	0.500000
Fe21	Fe2	0.500000	0.000000	0.500000
Fe31	Fe3	0.500000	0.500000	0.000000
Au11	Au1	0.000080	0.738860	0.477780
Au21	Au2	0.000080	0.738920	0.261140
Au31	Au3	0.000080	0.522220	0.261080
Au41	Au4	0.999920	0.261140	0.522220
Au51	Au5	0.999920	0.261080	0.738860
Au61	Au6	0.999920	0.477780	0.738920
C11	C1	0.196000	0.648900	0.481600
C21	C2	0.193000	0.482300	0.650300
C31	C3	0.664000	0.719000	0.638700
C41	C4	0.730000	0.793700	0.727900
C51	C5	0.760000	0.776600	0.805100
C61	C6	0.723000	0.684700	0.793100
C71	C7	0.656000	0.610000	0.703800
C81	C8	0.759000	0.885800	0.745800
C91	C9	0.196000	0.832700	0.351100
C101	C10	0.193000	0.168000	0.517700
C111	C11	0.664000	0.919700	0.281000
C121	C12	0.730000	0.934200	0.206300
C131	C13	0.760000	0.028500	0.223400
C141	C14	0.723000	0.108400	0.315300
C151	C15	0.656000	0.093800	0.390000
C161	C16	0.759000	0.860000	0.114200
C171	C17	0.196000	0.518400	0.167300
C181	C18	0.193000	0.349700	0.832000
C191	C19	0.664000	0.361300	0.080300
C201	C20	0.730000	0.272100	0.065800
C211	C21	0.760000	0.194900	0.971500
C221	C22	0.723000	0.206900	0.891600
C231	C23	0.656000	0.296200	0.906200
C241	C24	0.759000	0.254200	0.140000
C251	C25	0.804000	0.351100	0.518400
C261	C26	0.807000	0.517700	0.349700
C271	C27	0.336000	0.281000	0.361300
C281	C28	0.270000	0.206300	0.272100
C291	C29	0.240000	0.223400	0.194900
C301	C30	0.277000	0.315300	0.206900
C311	C31	0.344000	0.390000	0.296200
C321	C32	0.241000	0.114200	0.254200
C331	C33	0.804000	0.167300	0.648900
C341	C34	0.807000	0.832000	0.482300
C351	C35	0.336000	0.080300	0.719000
C361	C36	0.270000	0.065800	0.793700
C371	C37	0.240000	0.971500	0.776600
C381	C38	0.277000	0.891600	0.684700
C391	C39	0.344000	0.906200	0.610000
C401	C40	0.241000	0.140000	0.885800
C411	C41	0.804000	0.481600	0.832700
C421	C42	0.807000	0.650300	0.168000
C431	C43	0.336000	0.638700	0.919700
C441	C44	0.270000	0.727900	0.934200
C451	C45	0.240000	0.805100	0.028500
C461	C46	0.277000	0.793100	0.108400
C471	C47	0.344000	0.703800	0.093800
C481	C48	0.241000	0.745800	0.860000
N11	N1	0.305000	0.597400	0.484800
N21	N2	0.307300	0.484700	0.596900
N31	N3	0.626900	0.627200	0.626700
N41	N4	0.772000	0.974200	0.769200
N51	N5	0.305000	0.887400	0.402600
N61	N6	0.307300	0.112200	0.515300
N71	N7	0.626900	0.999500	0.372800
N81	N8	0.772000	0.795000	0.025800
N91	N9	0.305000	0.515200	0.112600
N101	N10	0.307300	0.403100	0.887800
N111	N11	0.626900	0.373300	0.000500
N121	N12	0.772000	0.230800	0.205000
N131	N13	0.695000	0.402600	0.515200
N141	N14	0.692700	0.515300	0.403100
N151	N15	0.373100	0.372800	0.373300
N161	N16	0.228000	0.025800	0.230800
N171	N17	0.695000	0.112600	0.597400
N181	N18	0.692700	0.887800	0.484700
N191	N19	0.373100	0.000500	0.627200
N201	N20	0.228000	0.205000	0.974200
N211	N21	0.695000	0.484800	0.887400
N221	N22	0.692700	0.596900	0.112200
N231	N23	0.373100	0.626700	0.999500
N241	N24	0.228000	0.769200	0.795000
H11	H1	0.640260	0.733000	0.575310
H21	H2	0.814890	0.837890	0.878180
H31	H3	0.747550	0.670610	0.856370
H41	H4	0.625030	0.534720	0.693970
H51	H5	0.640260	0.842310	0.267000
H61	H6	0.814890	0.040290	0.162110
H71	H7	0.747550	0.185760	0.329390
H81	H8	0.625030	0.159250	0.465280
H91	H9	0.640260	0.424690	0.157690
H101	H10	0.814890	0.121820	0.959710
H111	H11	0.747550	0.143630	0.814240
H121	H12	0.625030	0.306030	0.840750
H131	H13	0.359740	0.267000	0.424690
H141	H14	0.185110	0.162110	0.121820
H151	H15	0.252450	0.329390	0.143630
H161	H16	0.374970	0.465280	0.306030
H171	H17	0.359740	0.157690	0.733000
H181	H18	0.185110	0.959710	0.837890
H191	H19	0.252450	0.814240	0.670610
H201	H20	0.374970	0.840750	0.534720
H211	H21	0.359740	0.575310	0.842310
H221	H22	0.185110	0.878180	0.040290
H231	H23	0.252450	0.856370	0.185760
H241	H24	0.374970	0.693970	0.159250
