data_WAHNEB_clean_PM
_symmetry_space_group_name_H-M	'P1'
_cell_length_a	21.237900
_cell_length_b	21.237900
_cell_length_c	21.237900
_cell_angle_alpha	90.000000
_cell_angle_beta	90.000000
_cell_angle_gamma	90.000000
_symmetry_Int_Tables_number 1

loop_
_symmetry_equiv_pos_as_xyz
'x,y,z'

loop_
_atom_site_label
_atom_site_type_symbol
_atom_site_fract_x
_atom_site_fract_y
_atom_site_fract_z
N11	N1	0.566000	0.704000	0.068000
C11	C1	0.584500	0.763800	0.087300
H11	H1	0.566300	0.800000	0.068500
C21	C2	0.629800	0.770400	0.134100
H21	H2	0.642500	0.811200	0.147300
C31	C3	0.656500	0.717400	0.161600
C41	C4	0.637900	0.657600	0.142300
H31	H3	0.656100	0.621400	0.161100
C51	C5	0.592600	0.651000	0.095500
H41	H4	0.579900	0.610200	0.082300
C61	C6	0.692100	0.725900	0.220300
C71	C7	0.739400	0.681800	0.229200
H51	H5	0.742300	0.645300	0.203400
N21	N2	0.434000	0.296000	0.068000
C81	C8	0.415500	0.236200	0.087300
H61	H6	0.433700	0.200000	0.068500
C91	C9	0.370200	0.229600	0.134100
H71	H7	0.357500	0.188800	0.147300
C101	C10	0.343500	0.282600	0.161600
C111	C11	0.362100	0.342400	0.142300
H81	H8	0.343900	0.378600	0.161100
C121	C12	0.407400	0.349000	0.095500
H91	H9	0.420100	0.389800	0.082300
C131	C13	0.307900	0.274100	0.220300
C141	C14	0.260600	0.318200	0.229200
H101	H10	0.257700	0.354700	0.203400
N31	N3	0.434000	0.704000	0.932000
C151	C15	0.415500	0.763800	0.912700
H111	H11	0.433700	0.800000	0.931500
C161	C16	0.370200	0.770400	0.865900
H121	H12	0.357500	0.811200	0.852700
C171	C17	0.343500	0.717400	0.838400
C181	C18	0.362100	0.657600	0.857700
H131	H13	0.343900	0.621400	0.838900
C191	C19	0.407400	0.651000	0.904500
H141	H14	0.420100	0.610200	0.917700
C201	C20	0.307900	0.725900	0.779700
C211	C21	0.260600	0.681800	0.770800
H151	H15	0.257700	0.645300	0.796600
N41	N4	0.566000	0.296000	0.932000
C221	C22	0.584500	0.236200	0.912700
H161	H16	0.566300	0.200000	0.931500
C231	C23	0.629800	0.229600	0.865900
H171	H17	0.642500	0.188800	0.852700
C241	C24	0.656500	0.282600	0.838400
C251	C25	0.637900	0.342400	0.857700
H181	H18	0.656100	0.378600	0.838900
C261	C26	0.592600	0.349000	0.904500
H191	H19	0.579900	0.389800	0.917700
C271	C27	0.692100	0.274100	0.779700
C281	C28	0.739400	0.318200	0.770800
H201	H20	0.742300	0.354700	0.796600
N51	N5	0.068000	0.566000	0.704000
C291	C29	0.087300	0.584500	0.763800
H211	H21	0.068500	0.566300	0.800000
C301	C30	0.134100	0.629800	0.770400
H221	H22	0.147300	0.642500	0.811200
C311	C31	0.161600	0.656500	0.717400
C321	C32	0.142300	0.637900	0.657600
H231	H23	0.161100	0.656100	0.621400
C331	C33	0.095500	0.592600	0.651000
H241	H24	0.082300	0.579900	0.610200
C341	C34	0.220300	0.692100	0.725900
C351	C35	0.229200	0.739400	0.681800
H251	H25	0.203400	0.742300	0.645300
N61	N6	0.068000	0.434000	0.296000
C361	C36	0.087300	0.415500	0.236200
H261	H26	0.068500	0.433700	0.200000
C371	C37	0.134100	0.370200	0.229600
H271	H27	0.147300	0.357500	0.188800
C381	C38	0.161600	0.343500	0.282600
C391	C39	0.142300	0.362100	0.342400
H281	H28	0.161100	0.343900	0.378600
C401	C40	0.095500	0.407400	0.349000
H291	H29	0.082300	0.420100	0.389800
C411	C41	0.220300	0.307900	0.274100
C421	C42	0.229200	0.260600	0.318200
H301	H30	0.203400	0.257700	0.354700
N71	N7	0.932000	0.434000	0.704000
C431	C43	0.912700	0.415500	0.763800
H311	H31	0.931500	0.433700	0.800000
C441	C44	0.865900	0.370200	0.770400
H321	H32	0.852700	0.357500	0.811200
C451	C45	0.838400	0.343500	0.717400
C461	C46	0.857700	0.362100	0.657600
H331	H33	0.838900	0.343900	0.621400
C471	C47	0.904500	0.407400	0.651000
H341	H34	0.917700	0.420100	0.610200
C481	C48	0.779700	0.307900	0.725900
C491	C49	0.770800	0.260600	0.681800
H351	H35	0.796600	0.257700	0.645300
N81	N8	0.932000	0.566000	0.296000
C501	C50	0.912700	0.584500	0.236200
H361	H36	0.931500	0.566300	0.200000
C511	C51	0.865900	0.629800	0.229600
H371	H37	0.852700	0.642500	0.188800
C521	C52	0.838400	0.656500	0.282600
C531	C53	0.857700	0.637900	0.342400
H381	H38	0.838900	0.656100	0.378600
C541	C54	0.904500	0.592600	0.349000
H391	H39	0.917700	0.579900	0.389800
C551	C55	0.779700	0.692100	0.274100
C561	C56	0.770800	0.739400	0.318200
H401	H40	0.796600	0.742300	0.354700
N91	N9	0.704000	0.068000	0.566000
C571	C57	0.763800	0.087300	0.584500
H411	H41	0.800000	0.068500	0.566300
C581	C58	0.770400	0.134100	0.629800
H421	H42	0.811200	0.147300	0.642500
C591	C59	0.717400	0.161600	0.656500
C601	C60	0.657600	0.142300	0.637900
H431	H43	0.621400	0.161100	0.656100
C611	C61	0.651000	0.095500	0.592600
H441	H44	0.610200	0.082300	0.579900
C621	C62	0.725900	0.220300	0.692100
C631	C63	0.681800	0.229200	0.739400
H451	H45	0.645300	0.203400	0.742300
N101	N10	0.296000	0.068000	0.434000
C641	C64	0.236200	0.087300	0.415500
H461	H46	0.200000	0.068500	0.433700
C651	C65	0.229600	0.134100	0.370200
H471	H47	0.188800	0.147300	0.357500
C661	C66	0.282600	0.161600	0.343500
C671	C67	0.342400	0.142300	0.362100
H481	H48	0.378600	0.161100	0.343900
C681	C68	0.349000	0.095500	0.407400
H491	H49	0.389800	0.082300	0.420100
C691	C69	0.274100	0.220300	0.307900
C701	C70	0.318200	0.229200	0.260600
H501	H50	0.354700	0.203400	0.257700
N111	N11	0.704000	0.932000	0.434000
C711	C71	0.763800	0.912700	0.415500
H511	H51	0.800000	0.931500	0.433700
C721	C72	0.770400	0.865900	0.370200
H521	H52	0.811200	0.852700	0.357500
C731	C73	0.717400	0.838400	0.343500
C741	C74	0.657600	0.857700	0.362100
H531	H53	0.621400	0.838900	0.343900
C751	C75	0.651000	0.904500	0.407400
H541	H54	0.610200	0.917700	0.420100
C761	C76	0.725900	0.779700	0.307900
C771	C77	0.681800	0.770800	0.260600
H551	H55	0.645300	0.796600	0.257700
N121	N12	0.296000	0.932000	0.566000
C781	C78	0.236200	0.912700	0.584500
H561	H56	0.200000	0.931500	0.566300
C791	C79	0.229600	0.865900	0.629800
H571	H57	0.188800	0.852700	0.642500
C801	C80	0.282600	0.838400	0.656500
C811	C81	0.342400	0.857700	0.637900
H581	H58	0.378600	0.838900	0.656100
C821	C82	0.349000	0.904500	0.592600
H591	H59	0.389800	0.917700	0.579900
C831	C83	0.274100	0.779700	0.692100
C841	C84	0.318200	0.770800	0.739400
H601	H60	0.354700	0.796600	0.742300
N131	N13	0.434000	0.296000	0.932000
C851	C85	0.415500	0.236200	0.912700
H611	H61	0.433700	0.200000	0.931500
C861	C86	0.370200	0.229600	0.865900
H621	H62	0.357500	0.188800	0.852700
C871	C87	0.343500	0.282600	0.838400
C881	C88	0.362100	0.342400	0.857700
H631	H63	0.343900	0.378600	0.838900
C891	C89	0.407400	0.349000	0.904500
H641	H64	0.420100	0.389800	0.917700
C901	C90	0.307900	0.274100	0.779700
C911	C91	0.260600	0.318200	0.770800
H651	H65	0.257700	0.354700	0.796600
N141	N14	0.566000	0.704000	0.932000
C921	C92	0.584500	0.763800	0.912700
H661	H66	0.566300	0.800000	0.931500
C931	C93	0.629800	0.770400	0.865900
H671	H67	0.642500	0.811200	0.852700
C941	C94	0.656500	0.717400	0.838400
C951	C95	0.637900	0.657600	0.857700
H681	H68	0.656100	0.621400	0.838900
C961	C96	0.592600	0.651000	0.904500
H691	H69	0.579900	0.610200	0.917700
C971	C97	0.692100	0.725900	0.779700
C981	C98	0.739400	0.681800	0.770800
H701	H70	0.742300	0.645300	0.796600
N151	N15	0.566000	0.296000	0.068000
C991	C99	0.584500	0.236200	0.087300
H711	H71	0.566300	0.200000	0.068500
C1001	C100	0.629800	0.229600	0.134100
H721	H72	0.642500	0.188800	0.147300
C1011	C101	0.656500	0.282600	0.161600
C1021	C102	0.637900	0.342400	0.142300
H731	H73	0.656100	0.378600	0.161100
C1031	C103	0.592600	0.349000	0.095500
H741	H74	0.579900	0.389800	0.082300
C1041	C104	0.692100	0.274100	0.220300
C1051	C105	0.739400	0.318200	0.229200
H751	H75	0.742300	0.354700	0.203400
N161	N16	0.434000	0.704000	0.068000
C1061	C106	0.415500	0.763800	0.087300
H761	H76	0.433700	0.800000	0.068500
C1071	C107	0.370200	0.770400	0.134100
H771	H77	0.357500	0.811200	0.147300
C1081	C108	0.343500	0.717400	0.161600
C1091	C109	0.362100	0.657600	0.142300
H781	H78	0.343900	0.621400	0.161100
C1101	C110	0.407400	0.651000	0.095500
H791	H79	0.420100	0.610200	0.082300
C1111	C111	0.307900	0.725900	0.220300
C1121	C112	0.260600	0.681800	0.229200
H801	H80	0.257700	0.645300	0.203400
N171	N17	0.932000	0.434000	0.296000
C1131	C113	0.912700	0.415500	0.236200
H811	H81	0.931500	0.433700	0.200000
C1141	C114	0.865900	0.370200	0.229600
H821	H82	0.852700	0.357500	0.188800
C1151	C115	0.838400	0.343500	0.282600
C1161	C116	0.857700	0.362100	0.342400
H831	H83	0.838900	0.343900	0.378600
C1171	C117	0.904500	0.407400	0.349000
H841	H84	0.917700	0.420100	0.389800
C1181	C118	0.779700	0.307900	0.274100
C1191	C119	0.770800	0.260600	0.318200
H851	H85	0.796600	0.257700	0.354700
N181	N18	0.932000	0.566000	0.704000
C1201	C120	0.912700	0.584500	0.763800
H861	H86	0.931500	0.566300	0.800000
C1211	C121	0.865900	0.629800	0.770400
H871	H87	0.852700	0.642500	0.811200
C1221	C122	0.838400	0.656500	0.717400
C1231	C123	0.857700	0.637900	0.657600
H881	H88	0.838900	0.656100	0.621400
C1241	C124	0.904500	0.592600	0.651000
H891	H89	0.917700	0.579900	0.610200
C1251	C125	0.779700	0.692100	0.725900
C1261	C126	0.770800	0.739400	0.681800
H901	H90	0.796600	0.742300	0.645300
N191	N19	0.068000	0.566000	0.296000
C1271	C127	0.087300	0.584500	0.236200
H911	H91	0.068500	0.566300	0.200000
C1281	C128	0.134100	0.629800	0.229600
H921	H92	0.147300	0.642500	0.188800
C1291	C129	0.161600	0.656500	0.282600
C1301	C130	0.142300	0.637900	0.342400
H931	H93	0.161100	0.656100	0.378600
C1311	C131	0.095500	0.592600	0.349000
H941	H94	0.082300	0.579900	0.389800
C1321	C132	0.220300	0.692100	0.274100
C1331	C133	0.229200	0.739400	0.318200
H951	H95	0.203400	0.742300	0.354700
N201	N20	0.068000	0.434000	0.704000
C1341	C134	0.087300	0.415500	0.763800
H961	H96	0.068500	0.433700	0.800000
C1351	C135	0.134100	0.370200	0.770400
H971	H97	0.147300	0.357500	0.811200
C1361	C136	0.161600	0.343500	0.717400
C1371	C137	0.142300	0.362100	0.657600
H981	H98	0.161100	0.343900	0.621400
C1381	C138	0.095500	0.407400	0.651000
H991	H99	0.082300	0.420100	0.610200
C1391	C139	0.220300	0.307900	0.725900
C1401	C140	0.229200	0.260600	0.681800
H1001	H100	0.203400	0.257700	0.645300
N211	N21	0.296000	0.932000	0.434000
C1411	C141	0.236200	0.912700	0.415500
H1011	H101	0.200000	0.931500	0.433700
C1421	C142	0.229600	0.865900	0.370200
H1021	H102	0.188800	0.852700	0.357500
C1431	C143	0.282600	0.838400	0.343500
C1441	C144	0.342400	0.857700	0.362100
H1031	H103	0.378600	0.838900	0.343900
C1451	C145	0.349000	0.904500	0.407400
H1041	H104	0.389800	0.917700	0.420100
C1461	C146	0.274100	0.779700	0.307900
C1471	C147	0.318200	0.770800	0.260600
H1051	H105	0.354700	0.796600	0.257700
N221	N22	0.704000	0.932000	0.566000
C1481	C148	0.763800	0.912700	0.584500
H1061	H106	0.800000	0.931500	0.566300
C1491	C149	0.770400	0.865900	0.629800
H1071	H107	0.811200	0.852700	0.642500
C1501	C150	0.717400	0.838400	0.656500
C1511	C151	0.657600	0.857700	0.637900
H1081	H108	0.621400	0.838900	0.656100
C1521	C152	0.651000	0.904500	0.592600
H1091	H109	0.610200	0.917700	0.579900
C1531	C153	0.725900	0.779700	0.692100
C1541	C154	0.681800	0.770800	0.739400
H1101	H110	0.645300	0.796600	0.742300
N231	N23	0.296000	0.068000	0.566000
C1551	C155	0.236200	0.087300	0.584500
H1111	H111	0.200000	0.068500	0.566300
C1561	C156	0.229600	0.134100	0.629800
H1121	H112	0.188800	0.147300	0.642500
C1571	C157	0.282600	0.161600	0.656500
C1581	C158	0.342400	0.142300	0.637900
H1131	H113	0.378600	0.161100	0.656100
C1591	C159	0.349000	0.095500	0.592600
H1141	H114	0.389800	0.082300	0.579900
C1601	C160	0.274100	0.220300	0.692100
C1611	C161	0.318200	0.229200	0.739400
H1151	H115	0.354700	0.203400	0.742300
N241	N24	0.704000	0.068000	0.434000
C1621	C162	0.763800	0.087300	0.415500
H1161	H116	0.800000	0.068500	0.433700
C1631	C163	0.770400	0.134100	0.370200
H1171	H117	0.811200	0.147300	0.357500
C1641	C164	0.717400	0.161600	0.343500
C1651	C165	0.657600	0.142300	0.362100
H1181	H118	0.621400	0.161100	0.343900
C1661	C166	0.651000	0.095500	0.407400
H1191	H119	0.610200	0.082300	0.420100
C1671	C167	0.725900	0.220300	0.307900
C1681	C168	0.681800	0.229200	0.260600
H1201	H120	0.645300	0.203400	0.257700
Cu11	Cu1	0.500000	0.699000	0.000000
Cu21	Cu2	0.500000	0.301000	0.000000
Cu31	Cu3	0.000000	0.500000	0.699000
Cu41	Cu4	0.000000	0.500000	0.301000
Cu51	Cu5	0.699000	0.000000	0.500000
Cu61	Cu6	0.301000	0.000000	0.500000
