data_WAHNUQ_charged_PM
_symmetry_space_group_name_H-M	'P1'
_cell_length_a	14.494500
_cell_length_b	22.981300
_cell_length_c	22.981300
_cell_angle_alpha	64.297300
_cell_angle_beta	77.863800
_cell_angle_gamma	102.136000
_symmetry_Int_Tables_number 1

loop_
_symmetry_equiv_pos_as_xyz
'x,y,z'

loop_
_atom_site_label
_atom_site_type_symbol
_atom_site_fract_x
_atom_site_fract_y
_atom_site_fract_z
Zn11	Zn1	0.500000	0.000000	0.500000
Zn21	Zn2	0.000000	0.500000	0.500000
Zn31	Zn3	0.500000	0.500000	0.000000
Zn41	Zn4	0.689100	0.000000	0.000000
Zn51	Zn5	0.310900	0.000000	0.000000
Co11	Co1	0.911750	0.117600	0.618250
Co21	Co2	0.530000	0.618250	0.264150
Co31	Co3	0.794150	0.264150	0.117600
Co41	Co4	0.088250	0.882400	0.381750
Co51	Co5	0.470000	0.381750	0.735850
Co61	Co6	0.205850	0.735850	0.882400
H11	H1	0.278400	0.325700	0.467400
H21	H2	0.228700	0.266300	0.586500
H31	H3	0.176100	0.297200	0.412200
H41	H4	0.972800	0.039300	0.808000
H51	H5	0.868000	0.987100	0.918400
H61	H6	0.675600	0.065600	0.865200
H71	H7	0.768800	0.119100	0.750700
H81	H8	0.821500	0.009100	0.561800
H91	H9	0.672400	0.962400	0.555600
H101	H10	0.659300	0.143900	0.445200
H111	H11	0.803100	0.195800	0.454500
H121	H12	0.203600	0.638100	0.113300
H131	H13	0.009900	0.611200	0.907000
H141	H14	0.855700	0.592900	0.894400
H151	H15	0.771100	0.676600	0.999100
H161	H16	0.924500	0.702100	0.012000
H171	H17	0.507700	0.855900	0.606900
H181	H18	0.454000	0.780700	0.723700
H191	H19	0.317900	0.903700	0.754000
H201	H20	0.381700	0.978000	0.638400
H211	H21	0.478400	0.733700	0.968000
H221	H22	0.376700	0.670800	0.083000
H231	H23	0.479000	0.104000	0.525000
H241	H24	0.387000	0.063000	0.535000
H251	H25	0.745800	0.467400	0.206900
H261	H26	0.815200	0.586500	0.147200
H271	H27	0.588300	0.412200	0.290600
H281	H28	0.780800	0.808000	0.152700
H291	H29	0.786400	0.918400	0.094500
H301	H30	0.540800	0.865200	0.069200
H311	H31	0.519500	0.750700	0.130200
H321	H32	0.383300	0.561800	0.429100
H331	H33	0.228000	0.555600	0.482000
H341	H34	0.104500	0.445200	0.410900
H351	H35	0.257600	0.454500	0.349700
H361	H36	0.316900	0.113300	0.248600
H371	H37	0.916900	0.907000	0.481800
H381	H38	0.750100	0.894400	0.512700
H391	H39	0.770200	0.999100	0.324300
H401	H40	0.936500	0.012000	0.285900
H411	H41	0.114600	0.606900	0.537200
H421	H42	0.177700	0.723700	0.495600
H431	H43	0.071900	0.754000	0.342300
H441	H44	0.020100	0.638400	0.383600
H451	H45	0.446400	0.968000	0.298300
H461	H46	0.459700	0.083000	0.246200
H471	H47	0.004000	0.525000	0.371000
H481	H48	0.922000	0.535000	0.402000
H491	H49	0.952700	0.206900	0.325700
H501	H50	0.962400	0.147200	0.266300
H511	H51	0.878900	0.290600	0.297200
H521	H52	0.933500	0.152700	0.039300
H531	H53	0.880900	0.094500	0.987100
H541	H54	0.610000	0.069200	0.065600
H551	H55	0.649700	0.130200	0.119100
H561	H56	0.812400	0.429100	0.009100
H571	H57	0.710000	0.482000	0.962400
H581	H58	0.515400	0.410900	0.143900
H591	H59	0.607300	0.349700	0.195800
H601	H60	0.565500	0.248600	0.638100
H611	H61	0.398700	0.481800	0.611200
H621	H62	0.262800	0.512700	0.592900
H631	H63	0.094500	0.324300	0.676600
H641	H64	0.222400	0.285900	0.702100
H651	H65	0.651800	0.537200	0.855900
H661	H66	0.673300	0.495600	0.780700
H671	H67	0.414200	0.342300	0.903700
H681	H68	0.403700	0.383600	0.978000
H691	H69	0.744700	0.298300	0.733700
H701	H70	0.705900	0.246200	0.670800
H711	H71	0.375000	0.371000	0.104000
H721	H72	0.324000	0.402000	0.063000
H731	H73	0.721600	0.674300	0.532600
H741	H74	0.771300	0.733700	0.413500
H751	H75	0.823900	0.702800	0.587800
H761	H76	0.027200	0.960700	0.192000
H771	H77	0.132000	0.012900	0.081600
H781	H78	0.324400	0.934400	0.134800
H791	H79	0.231200	0.880900	0.249300
H801	H80	0.178500	0.990900	0.438200
H811	H81	0.327600	0.037600	0.444400
H821	H82	0.340700	0.856100	0.554800
H831	H83	0.196900	0.804200	0.545500
H841	H84	0.796400	0.361900	0.886700
H851	H85	0.990100	0.388800	0.093000
H861	H86	0.144300	0.407100	0.105600
H871	H87	0.228900	0.323400	0.000900
H881	H88	0.075500	0.297900	0.988000
H891	H89	0.492300	0.144100	0.393100
H901	H90	0.546000	0.219300	0.276300
H911	H91	0.682100	0.096300	0.246000
H921	H92	0.618300	0.022000	0.361600
H931	H93	0.521600	0.266300	0.032000
H941	H94	0.623300	0.329200	0.917000
H951	H95	0.521000	0.896000	0.475000
H961	H96	0.613000	0.937000	0.465000
H971	H97	0.254200	0.532600	0.793100
H981	H98	0.184800	0.413500	0.852800
H991	H99	0.411700	0.587800	0.709400
H1001	H100	0.219200	0.192000	0.847300
H1011	H101	0.213600	0.081600	0.905500
H1021	H102	0.459200	0.134800	0.930800
H1031	H103	0.480500	0.249300	0.869800
H1041	H104	0.616700	0.438200	0.570900
H1051	H105	0.772000	0.444400	0.518000
H1061	H106	0.895500	0.554800	0.589100
H1071	H107	0.742400	0.545500	0.650300
H1081	H108	0.683100	0.886700	0.751400
H1091	H109	0.083100	0.093000	0.518200
H1101	H110	0.249900	0.105600	0.487300
H1111	H111	0.229800	0.000900	0.675700
H1121	H112	0.063500	0.988000	0.714100
H1131	H113	0.885400	0.393100	0.462800
H1141	H114	0.822300	0.276300	0.504400
H1151	H115	0.928100	0.246000	0.657700
H1161	H116	0.979900	0.361600	0.616400
H1171	H117	0.553600	0.032000	0.701700
H1181	H118	0.540300	0.917000	0.753800
H1191	H119	0.996000	0.475000	0.629000
H1201	H120	0.078000	0.465000	0.598000
H1211	H121	0.047300	0.793100	0.674300
H1221	H122	0.037600	0.852800	0.733700
H1231	H123	0.121100	0.709400	0.702800
H1241	H124	0.066500	0.847300	0.960700
H1251	H125	0.119100	0.905500	0.012900
H1261	H126	0.390000	0.930800	0.934400
H1271	H127	0.350300	0.869800	0.880900
H1281	H128	0.187600	0.570900	0.990900
H1291	H129	0.290000	0.518000	0.037600
H1301	H130	0.484600	0.589100	0.856100
H1311	H131	0.392700	0.650300	0.804200
H1321	H132	0.434500	0.751400	0.361900
H1331	H133	0.601300	0.518200	0.388800
H1341	H134	0.737200	0.487300	0.407100
H1351	H135	0.905500	0.675700	0.323400
H1361	H136	0.777600	0.714100	0.297900
H1371	H137	0.348200	0.462800	0.144100
H1381	H138	0.326700	0.504400	0.219300
H1391	H139	0.585800	0.657700	0.096300
H1401	H140	0.596300	0.616400	0.022000
H1411	H141	0.255300	0.701700	0.266300
H1421	H142	0.294100	0.753800	0.329200
H1431	H143	0.625000	0.629000	0.896000
H1441	H144	0.676000	0.598000	0.937000
C11	C1	0.216900	0.290400	0.493000
C21	C2	0.187600	0.255400	0.563900
C31	C3	0.093210	0.202880	0.600450
C41	C4	0.064080	0.219730	0.499190
C51	C5	0.156100	0.273300	0.460000
C61	C6	0.042600	0.162400	0.677300
C71	C7	0.988440	0.193430	0.473310
C81	C8	0.887900	0.088000	0.764900
C91	C9	0.912900	0.047800	0.817100
C101	C10	0.851400	0.018700	0.884000
C111	C11	0.739800	0.063700	0.852800
C121	C12	0.794100	0.094600	0.783800
C131	C13	0.828170	0.108790	0.512180
C141	C14	0.787840	0.037490	0.539970
C151	C15	0.699180	0.010010	0.534870
C161	C16	0.690670	0.116460	0.470950
C171	C17	0.777820	0.148240	0.475580
C181	C18	0.244400	0.663100	0.067200
C191	C19	0.203400	0.681300	0.016100
C201	C20	0.094000	0.660000	0.023900
C211	C21	0.986500	0.660300	0.959700
C221	C22	0.963200	0.626100	0.925800
C231	C23	0.869000	0.614100	0.919800
C241	C24	0.820200	0.663300	0.980100
C251	C25	0.912500	0.679200	0.987900
C261	C26	0.470060	0.866220	0.636840
C271	C27	0.437030	0.820290	0.707400
C281	C28	0.381050	0.833070	0.751620
C291	C29	0.357870	0.893510	0.725000
C301	C30	0.395340	0.937250	0.655130
C311	C31	0.413740	0.775480	0.856060
C321	C32	0.363230	0.736030	0.931540
C331	C33	0.408800	0.719900	0.980600
C341	C34	0.347800	0.682800	0.048800
C351	C35	0.709900	0.493000	0.216600
C361	C36	0.751500	0.563900	0.180700
C371	C37	0.693660	0.600450	0.196670
C381	C38	0.563270	0.499190	0.281080
C391	C39	0.616100	0.460000	0.266700
C401	C40	0.719900	0.677300	0.160300
C411	C41	0.461750	0.473310	0.333260
C421	C42	0.652800	0.764900	0.147100
C431	C43	0.730000	0.817100	0.135100
C441	C44	0.735400	0.884000	0.097300
C451	C45	0.592600	0.852800	0.083500
C461	C46	0.577900	0.783800	0.121600
C471	C47	0.340350	0.512180	0.379030
C481	C48	0.327810	0.539970	0.422540
C491	C49	0.234050	0.534870	0.455120
C501	C50	0.161620	0.470950	0.412590
C511	C51	0.253400	0.475580	0.376180
C521	C52	0.311600	0.067200	0.269700
C531	C53	0.219500	0.016100	0.302600
C541	C54	0.117900	0.023900	0.316100
C551	C55	0.946200	0.959700	0.380000
C561	C56	0.889000	0.925800	0.448100
C571	C57	0.788800	0.919800	0.466100
C581	C58	0.800300	0.980100	0.356600
C591	C59	0.900400	0.987900	0.332900
C601	C60	0.106900	0.636840	0.496940
C611	C61	0.144430	0.707400	0.472310
C621	C62	0.132670	0.751620	0.415310
C631	C63	0.082870	0.725000	0.381490
C641	C64	0.050470	0.655130	0.407620
C651	C65	0.269800	0.856060	0.368460
C661	C66	0.294770	0.931540	0.332430
C671	C67	0.389400	0.980600	0.299500
C681	C68	0.396600	0.048800	0.268400
C691	C69	0.926500	0.216600	0.290400
C701	C70	0.932200	0.180700	0.255400
C711	C71	0.890330	0.196670	0.202880
C721	C72	0.844350	0.281080	0.219730
C731	C73	0.882800	0.266700	0.273300
C741	C74	0.880200	0.160300	0.162400
C751	C75	0.795010	0.333260	0.193430
C761	C76	0.799900	0.147100	0.088000
C771	C77	0.865100	0.135100	0.047800
C781	C78	0.832700	0.097300	0.018700
C791	C79	0.676100	0.083500	0.063700
C801	C80	0.699500	0.121600	0.094600
C811	C81	0.719380	0.379030	0.108790
C821	C82	0.750350	0.422540	0.037490
C831	C83	0.689170	0.455120	0.010010
C841	C84	0.574210	0.412590	0.116460
C851	C85	0.629580	0.376180	0.148240
C861	C86	0.581300	0.269700	0.663100
C871	C87	0.522100	0.302600	0.681300
C881	C88	0.434000	0.316100	0.660000
C891	C89	0.326200	0.380000	0.660300
C901	C90	0.337100	0.448100	0.626100
C911	C91	0.254900	0.466100	0.614100
C921	C92	0.156900	0.356600	0.663300
C931	C93	0.233300	0.332900	0.679200
C941	C94	0.603840	0.496940	0.866220
C951	C95	0.616740	0.472310	0.820290
C961	C96	0.547980	0.415310	0.833070
C971	C97	0.464360	0.381490	0.893510
C981	C98	0.458090	0.407620	0.937250
C991	C99	0.638260	0.368460	0.775480
C1001	C100	0.627200	0.332430	0.736030
C1011	C101	0.688900	0.299500	0.719900
C1021	C102	0.665000	0.268400	0.682800
C1031	C103	0.783100	0.709600	0.507000
C1041	C104	0.812400	0.744600	0.436100
C1051	C105	0.906790	0.797120	0.399550
C1061	C106	0.935920	0.780270	0.500810
C1071	C107	0.843900	0.726700	0.540000
C1081	C108	0.957400	0.837600	0.322700
C1091	C109	0.011560	0.806570	0.526690
C1101	C110	0.112100	0.912000	0.235100
C1111	C111	0.087100	0.952200	0.182900
C1121	C112	0.148600	0.981300	0.116000
C1131	C113	0.260200	0.936300	0.147200
C1141	C114	0.205900	0.905400	0.216200
C1151	C115	0.171830	0.891210	0.487820
C1161	C116	0.212160	0.962510	0.460030
C1171	C117	0.300820	0.989990	0.465130
C1181	C118	0.309330	0.883540	0.529050
C1191	C119	0.222180	0.851760	0.524420
C1201	C120	0.755600	0.336900	0.932800
C1211	C121	0.796600	0.318700	0.983900
C1221	C122	0.906000	0.340000	0.976100
C1231	C123	0.013500	0.339700	0.040300
C1241	C124	0.036800	0.373900	0.074200
C1251	C125	0.131000	0.385900	0.080200
C1261	C126	0.179800	0.336700	0.019900
C1271	C127	0.087500	0.320800	0.012100
C1281	C128	0.529940	0.133780	0.363160
C1291	C129	0.562970	0.179710	0.292600
C1301	C130	0.618950	0.166930	0.248380
C1311	C131	0.642130	0.106490	0.275000
C1321	C132	0.604660	0.062750	0.344870
C1331	C133	0.586260	0.224520	0.143940
C1341	C134	0.636770	0.263970	0.068460
C1351	C135	0.591200	0.280100	0.019400
C1361	C136	0.652200	0.317200	0.951200
C1371	C137	0.290100	0.507000	0.783400
C1381	C138	0.248500	0.436100	0.819300
C1391	C139	0.306340	0.399550	0.803330
C1401	C140	0.436730	0.500810	0.718920
C1411	C141	0.383900	0.540000	0.733300
C1421	C142	0.280100	0.322700	0.839700
C1431	C143	0.538250	0.526690	0.666740
C1441	C144	0.347200	0.235100	0.852900
C1451	C145	0.270000	0.182900	0.864900
C1461	C146	0.264600	0.116000	0.902700
C1471	C147	0.407400	0.147200	0.916500
C1481	C148	0.422100	0.216200	0.878400
C1491	C149	0.659650	0.487820	0.620970
C1501	C150	0.672190	0.460030	0.577460
C1511	C151	0.765950	0.465130	0.544880
C1521	C152	0.838380	0.529050	0.587410
C1531	C153	0.746600	0.524420	0.623820
C1541	C154	0.688400	0.932800	0.730300
C1551	C155	0.780500	0.983900	0.697400
C1561	C156	0.882100	0.976100	0.683900
C1571	C157	0.053800	0.040300	0.620000
C1581	C158	0.111000	0.074200	0.551900
C1591	C159	0.211200	0.080200	0.533900
C1601	C160	0.199700	0.019900	0.643400
C1611	C161	0.099600	0.012100	0.667100
C1621	C162	0.893100	0.363160	0.503060
C1631	C163	0.855570	0.292600	0.527690
C1641	C164	0.867330	0.248380	0.584690
C1651	C165	0.917130	0.275000	0.618510
C1661	C166	0.949530	0.344870	0.592380
C1671	C167	0.730200	0.143940	0.631540
C1681	C168	0.705230	0.068460	0.667570
C1691	C169	0.610600	0.019400	0.700500
C1701	C170	0.603400	0.951200	0.731600
C1711	C171	0.073500	0.783400	0.709600
C1721	C172	0.067800	0.819300	0.744600
C1731	C173	0.109670	0.803330	0.797120
C1741	C174	0.155650	0.718920	0.780270
C1751	C175	0.117200	0.733300	0.726700
C1761	C176	0.119800	0.839700	0.837600
C1771	C177	0.204990	0.666740	0.806570
C1781	C178	0.200100	0.852900	0.912000
C1791	C179	0.134900	0.864900	0.952200
C1801	C180	0.167300	0.902700	0.981300
C1811	C181	0.323900	0.916500	0.936300
C1821	C182	0.300500	0.878400	0.905400
C1831	C183	0.280620	0.620970	0.891210
C1841	C184	0.249650	0.577460	0.962510
C1851	C185	0.310830	0.544880	0.989990
C1861	C186	0.425790	0.587410	0.883540
C1871	C187	0.370420	0.623820	0.851760
C1881	C188	0.418700	0.730300	0.336900
C1891	C189	0.477900	0.697400	0.318700
C1901	C190	0.566000	0.683900	0.340000
C1911	C191	0.673800	0.620000	0.339700
C1921	C192	0.662900	0.551900	0.373900
C1931	C193	0.745100	0.533900	0.385900
C1941	C194	0.843100	0.643400	0.336700
C1951	C195	0.766700	0.667100	0.320800
C1961	C196	0.396160	0.503060	0.133780
C1971	C197	0.383260	0.527690	0.179710
C1981	C198	0.452020	0.584690	0.166930
C1991	C199	0.535640	0.618510	0.106490
C2001	C200	0.541910	0.592380	0.062750
C2011	C201	0.361740	0.631540	0.224520
C2021	C202	0.372800	0.667570	0.263970
C2031	C203	0.311100	0.700500	0.280100
C2041	C204	0.335000	0.731600	0.317200
N11	N1	0.949300	0.120910	0.695210
N21	N2	0.913260	0.136930	0.525650
N31	N3	0.345440	0.789590	0.823670
N41	N4	0.083790	0.676300	0.962830
N51	N5	0.036440	0.187210	0.566990
N61	N6	0.262930	0.716610	0.950520
N71	N7	0.647640	0.047310	0.501790
N81	N8	0.449480	0.925520	0.609980
N91	N9	0.773700	0.032400	0.901300
N101	N10	0.797590	0.630500	0.947030
N111	N11	0.644510	0.695210	0.183880
N121	N12	0.438910	0.525650	0.337420
N131	N13	0.169110	0.823670	0.386740
N141	N14	0.046620	0.962830	0.360870
N151	N15	0.603430	0.566990	0.245800
N161	N16	0.213450	0.950520	0.332870
N171	N17	0.149430	0.501790	0.450900
N181	N18	0.059460	0.609980	0.464500
N191	N19	0.675000	0.901300	0.066300
N201	N20	0.744620	0.947030	0.422470
N211	N21	0.828390	0.183880	0.120910
N221	N22	0.776330	0.337420	0.136930
N231	N23	0.555850	0.386740	0.789590
N241	N24	0.407490	0.360870	0.676300
N251	N25	0.849230	0.245800	0.187210
N261	N26	0.546320	0.332870	0.716610
N271	N27	0.600330	0.450900	0.047310
N281	N28	0.523960	0.464500	0.925520
N291	N29	0.741300	0.066300	0.032400
N301	N30	0.167090	0.422470	0.630500
N311	N31	0.050700	0.879090	0.304790
N321	N32	0.086740	0.863070	0.474350
N331	N33	0.654560	0.210410	0.176330
N341	N34	0.916210	0.323700	0.037170
N351	N35	0.963560	0.812790	0.433010
N361	N36	0.737070	0.283390	0.049480
N371	N37	0.352360	0.952690	0.498210
N381	N38	0.550520	0.074480	0.390020
N391	N39	0.226300	0.967600	0.098700
N401	N40	0.202410	0.369500	0.052970
N411	N41	0.355490	0.304790	0.816120
N421	N42	0.561090	0.474350	0.662580
N431	N43	0.830890	0.176330	0.613260
N441	N44	0.953380	0.037170	0.639130
N451	N45	0.396570	0.433010	0.754200
N461	N46	0.786550	0.049480	0.667130
N471	N47	0.850570	0.498210	0.549100
N481	N48	0.940540	0.390020	0.535500
N491	N49	0.325000	0.098700	0.933700
N501	N50	0.255380	0.052970	0.577530
N511	N51	0.171610	0.816120	0.879090
N521	N52	0.223670	0.662580	0.863070
N531	N53	0.444150	0.613260	0.210410
N541	N54	0.592510	0.639130	0.323700
N551	N55	0.150770	0.754200	0.812790
N561	N56	0.453680	0.667130	0.283390
N571	N57	0.399670	0.549100	0.952690
N581	N58	0.476040	0.535500	0.074480
N591	N59	0.258700	0.933700	0.967600
N601	N60	0.832910	0.577530	0.369500
O11	O1	0.084660	0.172740	0.714460
O21	O2	0.999990	0.222200	0.411630
O31	O3	0.505090	0.794980	0.828610
O41	O4	0.027200	0.627700	0.080400
O51	O5	0.449220	0.071530	0.519170
O61	O6	0.799120	0.714460	0.112800
O71	O7	0.411620	0.411630	0.366170
O81	O8	0.333700	0.828610	0.376410
O91	O9	0.107600	0.080400	0.291900
O101	O10	0.968390	0.519170	0.409300
O111	O11	0.911920	0.112800	0.172740
O121	O12	0.777790	0.366170	0.222200
O131	O13	0.710110	0.376410	0.794980
O141	O14	0.399500	0.291900	0.627700
O151	O15	0.377690	0.409300	0.071530
O161	O16	0.915340	0.827260	0.285540
O171	O17	0.000010	0.777800	0.588370
O181	O18	0.494910	0.205020	0.171390
O191	O19	0.972800	0.372300	0.919600
O201	O20	0.550780	0.928470	0.480830
O211	O21	0.200880	0.285540	0.887200
O221	O22	0.588380	0.588370	0.633830
O231	O23	0.666300	0.171390	0.623590
O241	O24	0.892400	0.919600	0.708100
O251	O25	0.031610	0.480830	0.590700
O261	O26	0.088080	0.887200	0.827260
O271	O27	0.222210	0.633830	0.777800
O281	O28	0.289890	0.623590	0.205020
O291	O29	0.600500	0.708100	0.372300
O301	O30	0.622310	0.590700	0.928470
N611	N61	0.339000	0.054000	0.757000
O311	O31	0.369200	0.028400	0.736200
O321	O32	0.416500	0.110000	0.763500
O331	O33	0.224700	0.046400	0.785100
N621	N62	0.096000	0.757000	0.189000
O341	O34	0.105400	0.736200	0.235400
O351	O35	0.180000	0.763500	0.126500
O361	O36	0.009800	0.785100	0.168500
N631	N63	0.285000	0.189000	0.054000
O371	O37	0.340800	0.235400	0.028400
O381	O38	0.306500	0.126500	0.110000
O391	O39	0.178300	0.168500	0.046400
N641	N64	0.661000	0.946000	0.243000
O401	O40	0.630800	0.971600	0.263800
O411	O41	0.583500	0.890000	0.236500
O421	O42	0.775300	0.953600	0.214900
N651	N65	0.904000	0.243000	0.811000
O431	O43	0.894600	0.263800	0.764600
O441	O44	0.820000	0.236500	0.873500
O451	O45	0.990200	0.214900	0.831500
N661	N66	0.715000	0.811000	0.946000
O461	O46	0.659200	0.764600	0.971600
O471	O47	0.693500	0.873500	0.890000
O481	O48	0.821700	0.831500	0.953600
