data_WAJLEA_charged_PM
_symmetry_space_group_name_H-M	'P1'
_cell_length_a	16.023100
_cell_length_b	16.023100
_cell_length_c	18.520000
_cell_angle_alpha	90.000000
_cell_angle_beta	90.000000
_cell_angle_gamma	120.000000
_symmetry_Int_Tables_number 1

loop_
_symmetry_equiv_pos_as_xyz
'x,y,z'

loop_
_atom_site_label
_atom_site_type_symbol
_atom_site_fract_x
_atom_site_fract_y
_atom_site_fract_z
Cr11	Cr1	0.563270	0.563270	0.833330
Cr21	Cr2	0.000000	0.436730	0.166670
Cr31	Cr3	0.436730	0.000000	0.500000
Co11	Co1	0.780600	0.503220	0.002330
Co21	Co2	0.722620	0.219400	0.335660
Co31	Co3	0.496780	0.277380	0.669000
Co41	Co4	0.277380	0.496780	0.997670
Co51	Co5	0.503220	0.780600	0.664340
Co61	Co6	0.219400	0.722620	0.331000
H11	H1	0.023200	0.618300	0.750900
H21	H2	0.983700	0.722100	0.803100
H31	H3	0.890100	0.826600	0.938100
H41	H4	0.880500	0.790800	0.856300
H51	H5	0.981100	0.832200	0.897800
H61	H6	0.662700	0.638100	0.080400
H71	H7	0.621700	0.491800	0.176000
H81	H8	0.580400	0.454600	0.096600
H91	H9	0.750600	0.307400	0.101900
H101	H10	0.637400	0.234900	0.090100
H111	H11	0.802200	0.238300	0.913500
H121	H12	0.911200	0.314100	0.892200
H131	H13	0.826900	0.283700	0.834100
H141	H14	0.958300	0.455100	0.796800
H151	H15	0.595100	0.976800	0.084230
H161	H16	0.738400	0.016300	0.136430
H171	H17	0.936500	0.109900	0.271430
H181	H18	0.910300	0.119500	0.189630
H191	H19	0.851100	0.018900	0.231130
H201	H20	0.975400	0.337300	0.413730
H211	H21	0.870100	0.378300	0.509330
H221	H22	0.874200	0.419600	0.429930
H231	H23	0.556800	0.249400	0.435230
H241	H24	0.597500	0.362600	0.423430
H251	H25	0.436100	0.197800	0.246830
H261	H26	0.402900	0.088800	0.225530
H271	H27	0.456800	0.173100	0.167430
H281	H28	0.496800	0.041700	0.130130
H291	H29	0.381700	0.404900	0.417570
H301	H30	0.277900	0.261600	0.469770
H311	H31	0.173400	0.063500	0.604770
H321	H32	0.209200	0.089700	0.522970
H331	H33	0.167800	0.148900	0.564470
H341	H34	0.361900	0.024600	0.747070
H351	H35	0.508200	0.129900	0.842670
H361	H36	0.545400	0.125800	0.763270
H371	H37	0.692600	0.443200	0.768570
H381	H38	0.765100	0.402500	0.756770
H391	H39	0.761700	0.563900	0.580170
H401	H40	0.685900	0.597100	0.558870
H411	H41	0.716300	0.543200	0.500770
H421	H42	0.544900	0.503200	0.463470
H431	H43	0.404900	0.381700	0.249100
H441	H44	0.261600	0.277900	0.196900
H451	H45	0.063500	0.173400	0.061900
H461	H46	0.089700	0.209200	0.143700
H471	H47	0.148900	0.167800	0.102200
H481	H48	0.024600	0.361900	0.919600
H491	H49	0.129900	0.508200	0.824000
H501	H50	0.125800	0.545400	0.903400
H511	H51	0.443200	0.692600	0.898100
H521	H52	0.402500	0.765100	0.909900
H531	H53	0.563900	0.761700	0.086500
H541	H54	0.597100	0.685900	0.107800
H551	H55	0.543200	0.716300	0.165900
H561	H56	0.503200	0.544900	0.203200
H571	H57	0.618300	0.023200	0.915770
H581	H58	0.722100	0.983700	0.863570
H591	H59	0.826600	0.890100	0.728570
H601	H60	0.790800	0.880500	0.810370
H611	H61	0.832200	0.981100	0.768870
H621	H62	0.638100	0.662700	0.586270
H631	H63	0.491800	0.621700	0.490670
H641	H64	0.454600	0.580400	0.570070
H651	H65	0.307400	0.750600	0.564770
H661	H66	0.234900	0.637400	0.576570
H671	H67	0.238300	0.802200	0.753170
H681	H68	0.314100	0.911200	0.774470
H691	H69	0.283700	0.826900	0.832570
H701	H70	0.455100	0.958300	0.869870
H711	H71	0.976800	0.595100	0.582430
H721	H72	0.016300	0.738400	0.530230
H731	H73	0.109900	0.936500	0.395230
H741	H74	0.119500	0.910300	0.477030
H751	H75	0.018900	0.851100	0.435530
H761	H76	0.337300	0.975400	0.252930
H771	H77	0.378300	0.870100	0.157330
H781	H78	0.419600	0.874200	0.236730
H791	H79	0.249400	0.556800	0.231430
H801	H80	0.362600	0.597500	0.243230
H811	H81	0.197800	0.436100	0.419830
H821	H82	0.088800	0.402900	0.441130
H831	H83	0.173100	0.456800	0.499230
H841	H84	0.041700	0.496800	0.536530
C11	C1	0.622100	0.505700	0.903300
C21	C2	0.439900	0.507200	0.894600
C31	C3	0.622800	0.688100	0.894800
C41	C4	0.982000	0.598100	0.791800
C51	C5	0.960900	0.659700	0.823100
C61	C6	0.905800	0.632500	0.884800
C71	C7	0.881000	0.692800	0.929800
C81	C8	0.910900	0.794900	0.903000
C91	C9	0.808800	0.705300	0.041700
C101	C10	0.719000	0.633200	0.074700
C111	C11	0.636100	0.472500	0.129000
C121	C12	0.646700	0.396100	0.138600
C131	C13	0.694300	0.293800	0.071600
C141	C14	0.712000	0.280500	0.998400
C151	C15	0.829400	0.376700	0.910100
C161	C16	0.843600	0.296300	0.885300
C171	C17	0.884100	0.475200	0.877900
C181	C18	0.943200	0.499400	0.818900
C191	C19	0.883600	0.377900	0.236630
C201	C20	0.067300	0.560100	0.227930
C211	C21	0.065300	0.377200	0.228130
C221	C22	0.616100	0.018000	0.125130
C231	C23	0.698800	0.039100	0.156430
C241	C24	0.726700	0.094200	0.218130
C251	C25	0.811800	0.119000	0.263130
C261	C26	0.884000	0.089100	0.236330
C271	C27	0.896500	0.191200	0.375030
C281	C28	0.914200	0.281000	0.408030
C291	C29	0.836400	0.363900	0.462330
C301	C30	0.749400	0.353300	0.471930
C311	C31	0.599500	0.305700	0.404930
C321	C32	0.568500	0.288000	0.331730
C331	C33	0.547300	0.170600	0.243430
C341	C34	0.452700	0.156400	0.218630
C351	C35	0.591100	0.115900	0.211230
C361	C36	0.556200	0.056800	0.152230
C371	C37	0.494300	0.116400	0.569970
C381	C38	0.492800	0.932700	0.561270
C391	C39	0.311900	0.934700	0.561470
C401	C40	0.401900	0.383900	0.458470
C411	C41	0.340300	0.301200	0.489770
C421	C42	0.367500	0.273300	0.551470
C431	C43	0.307200	0.188200	0.596470
C441	C44	0.205100	0.116000	0.569670
C451	C45	0.294700	0.103500	0.708370
C461	C46	0.366800	0.085800	0.741370
C471	C47	0.527500	0.163600	0.795670
C481	C48	0.603900	0.250600	0.805270
C491	C49	0.706200	0.400500	0.738270
C501	C50	0.719500	0.431500	0.665070
C511	C51	0.623300	0.452700	0.576770
C521	C52	0.703700	0.547300	0.551970
C531	C53	0.524800	0.408900	0.544570
C541	C54	0.500600	0.443800	0.485570
C551	C55	0.116400	0.494300	0.096700
C561	C56	0.932700	0.492800	0.105400
C571	C57	0.934700	0.311900	0.105200
C581	C58	0.383900	0.401900	0.208200
C591	C59	0.301200	0.340300	0.176900
C601	C60	0.273300	0.367500	0.115200
C611	C61	0.188200	0.307200	0.070200
C621	C62	0.116000	0.205100	0.097000
C631	C63	0.103500	0.294700	0.958300
C641	C64	0.085800	0.366800	0.925300
C651	C65	0.163600	0.527500	0.871000
C661	C66	0.250600	0.603900	0.861400
C671	C67	0.400500	0.706200	0.928400
C681	C68	0.431500	0.719500	0.001600
C691	C69	0.452700	0.623300	0.089900
C701	C70	0.547300	0.703700	0.114700
C711	C71	0.408900	0.524800	0.122100
C721	C72	0.443800	0.500600	0.181100
C731	C73	0.505700	0.622100	0.763370
C741	C74	0.507200	0.439900	0.772070
C751	C75	0.688100	0.622800	0.771870
C761	C76	0.598100	0.982000	0.874870
C771	C77	0.659700	0.960900	0.843570
C781	C78	0.632500	0.905800	0.781870
C791	C79	0.692800	0.881000	0.736870
C801	C80	0.794900	0.910900	0.763670
C811	C81	0.705300	0.808800	0.624970
C821	C82	0.633200	0.719000	0.591970
C831	C83	0.472500	0.636100	0.537670
C841	C84	0.396100	0.646700	0.528070
C851	C85	0.293800	0.694300	0.595070
C861	C86	0.280500	0.712000	0.668270
C871	C87	0.376700	0.829400	0.756570
C881	C88	0.296300	0.843600	0.781370
C891	C89	0.475200	0.884100	0.788770
C901	C90	0.499400	0.943200	0.847770
C911	C91	0.377900	0.883600	0.430030
C921	C92	0.560100	0.067300	0.438730
C931	C93	0.377200	0.065300	0.438530
C941	C94	0.018000	0.616100	0.541530
C951	C95	0.039100	0.698800	0.510230
C961	C96	0.094200	0.726700	0.448530
C971	C97	0.119000	0.811800	0.403530
C981	C98	0.089100	0.884000	0.430330
C991	C99	0.191200	0.896500	0.291630
C1001	C100	0.281000	0.914200	0.258630
C1011	C101	0.363900	0.836400	0.204330
C1021	C102	0.353300	0.749400	0.194730
C1031	C103	0.305700	0.599500	0.261730
C1041	C104	0.288000	0.568500	0.334930
C1051	C105	0.170600	0.547300	0.423230
C1061	C106	0.156400	0.452700	0.448030
C1071	C107	0.115900	0.591100	0.455430
C1081	C108	0.056800	0.556200	0.514430
N11	N1	0.662400	0.482800	0.941800
N21	N2	0.372100	0.484400	0.928300
N31	N3	0.654700	0.756100	0.929600
N41	N4	0.867700	0.541200	0.910200
N51	N5	0.836900	0.655700	0.987700
N61	N6	0.773800	0.371500	0.962300
N71	N7	0.820400	0.337600	0.275130
N81	N8	0.112300	0.627900	0.261630
N91	N9	0.101400	0.345300	0.262930
N101	N10	0.673500	0.132300	0.243530
N111	N11	0.818800	0.163100	0.321030
N121	N12	0.597700	0.226200	0.295630
N131	N13	0.517200	0.179600	0.608470
N141	N14	0.515600	0.887700	0.594970
N151	N15	0.243900	0.898600	0.596270
N161	N16	0.458800	0.326500	0.576870
N171	N17	0.344300	0.181200	0.654370
N181	N18	0.628500	0.402300	0.628970
N191	N19	0.179600	0.517200	0.058200
N201	N20	0.887700	0.515600	0.071700
N211	N21	0.898600	0.243900	0.070400
N221	N22	0.326500	0.458800	0.089800
N231	N23	0.181200	0.344300	0.012300
N241	N24	0.402300	0.628500	0.037700
N251	N25	0.482800	0.662400	0.724870
N261	N26	0.484400	0.372100	0.738370
N271	N27	0.756100	0.654700	0.737070
N281	N28	0.541200	0.867700	0.756470
N291	N29	0.655700	0.836900	0.678970
N301	N30	0.371500	0.773800	0.704370
N311	N31	0.337600	0.820400	0.391530
N321	N32	0.627900	0.112300	0.405030
N331	N33	0.345300	0.101400	0.403730
N341	N34	0.132300	0.673500	0.423130
N351	N35	0.163100	0.818800	0.345630
N361	N36	0.226200	0.597700	0.371030
O11	O1	0.728800	0.560800	0.095400
O21	O2	0.676500	0.377400	0.073800
O31	O3	0.832000	0.271200	0.428730
O41	O4	0.700900	0.323500	0.407130
O51	O5	0.439200	0.168000	0.762070
O61	O6	0.622600	0.299100	0.740470
O71	O7	0.168000	0.439200	0.904600
O81	O8	0.299100	0.622600	0.926200
O91	O9	0.560800	0.728800	0.571270
O101	O10	0.377400	0.676500	0.592870
O111	O11	0.271200	0.832000	0.237930
O121	O12	0.323500	0.700900	0.259530
Cl11	Cl1	0.390100	0.000000	0.000000
O131	O13	0.332600	0.991400	0.937400
O141	O14	0.478000	0.083000	0.988200
O151	O15	0.341200	0.008600	0.062600
O161	O16	0.395000	0.917000	0.011800
Cl21	Cl2	0.609900	0.609900	0.333330
O171	O17	0.658800	0.667400	0.270730
O181	O18	0.605000	0.522000	0.321530
O191	O19	0.667400	0.658800	0.395930
O201	O20	0.522000	0.605000	0.345130
Cl31	Cl3	0.000000	0.390100	0.666670
O211	O21	0.008600	0.341200	0.604070
O221	O22	0.917000	0.395000	0.654870
O231	O23	0.991400	0.332600	0.729270
O241	O24	0.083000	0.478000	0.678470
