data_WAMRIN01_clean_PM
_symmetry_space_group_name_H-M	'P1'
_cell_length_a	14.974000
_cell_length_b	19.706000
_cell_length_c	19.760000
_cell_angle_alpha	90.000000
_cell_angle_beta	90.000000
_cell_angle_gamma	90.000000
_symmetry_Int_Tables_number 1

loop_
_symmetry_equiv_pos_as_xyz
'x,y,z'

loop_
_atom_site_label
_atom_site_type_symbol
_atom_site_fract_x
_atom_site_fract_y
_atom_site_fract_z
Mg11	Mg1	0.735450	0.525830	0.974680
Mg21	Mg2	0.264550	0.974170	0.474680
Mg31	Mg3	0.235450	0.474170	0.525320
Mg41	Mg4	0.764550	0.025830	0.025320
Mg51	Mg5	0.264550	0.474170	0.025320
Mg61	Mg6	0.735450	0.025830	0.525320
Mg71	Mg7	0.764550	0.525830	0.474680
Mg81	Mg8	0.235450	0.974170	0.974680
Mg91	Mg9	0.500000	0.500000	0.000000
Mg101	Mg10	0.500000	0.000000	0.500000
Mg111	Mg11	0.000000	0.500000	0.500000
Mg121	Mg12	0.000000	0.000000	0.000000
H11	H1	0.820800	0.491100	0.613200
H21	H2	0.346800	0.798400	0.039900
H31	H3	0.380500	0.869400	0.043300
H41	H4	0.345900	0.532400	0.699800
H51	H5	0.380300	0.534100	0.629100
H61	H6	0.446800	0.705000	0.023200
H71	H7	0.710800	0.741300	0.009800
H81	H8	0.537600	0.894700	0.033700
H91	H9	0.538400	0.528100	0.603500
H101	H10	0.709800	0.508800	0.758400
H111	H11	0.447700	0.522100	0.794900
H121	H12	0.658000	0.485000	0.060000
H131	H13	0.663000	0.444000	0.003000
H141	H14	0.179200	0.008900	0.113200
H151	H15	0.653200	0.701600	0.539900
H161	H16	0.619500	0.630600	0.543300
H171	H17	0.654100	0.967600	0.199800
H181	H18	0.619700	0.965900	0.129100
H191	H19	0.553200	0.795000	0.523200
H201	H20	0.289200	0.758700	0.509800
H211	H21	0.462400	0.605300	0.533700
H221	H22	0.461600	0.971900	0.103500
H231	H23	0.290200	0.991200	0.258400
H241	H24	0.552300	0.977900	0.294900
H251	H25	0.342000	0.015000	0.560000
H261	H26	0.337000	0.056000	0.503000
H271	H27	0.320800	0.508900	0.886800
H281	H28	0.846800	0.201600	0.460100
H291	H29	0.880500	0.130600	0.456700
H301	H30	0.845900	0.467600	0.800200
H311	H31	0.880300	0.465900	0.870900
H321	H32	0.946800	0.295000	0.476800
H331	H33	0.210800	0.258700	0.490200
H341	H34	0.037600	0.105300	0.466300
H351	H35	0.038400	0.471900	0.896500
H361	H36	0.209800	0.491200	0.741600
H371	H37	0.947700	0.477900	0.705100
H381	H38	0.158000	0.515000	0.440000
H391	H39	0.163000	0.556000	0.497000
H401	H40	0.679200	0.991100	0.386800
H411	H41	0.153200	0.298400	0.960100
H421	H42	0.119500	0.369400	0.956700
H431	H43	0.154100	0.032400	0.300200
H441	H44	0.119700	0.034100	0.370900
H451	H45	0.053200	0.205000	0.976800
H461	H46	0.789200	0.241300	0.990200
H471	H47	0.962400	0.394700	0.966300
H481	H48	0.961600	0.028100	0.396500
H491	H49	0.790200	0.008800	0.241600
H501	H50	0.052300	0.022100	0.205100
H511	H51	0.842000	0.985000	0.940000
H521	H52	0.837000	0.944000	0.997000
H531	H53	0.179200	0.508900	0.386800
H541	H54	0.653200	0.201600	0.960100
H551	H55	0.619500	0.130600	0.956700
H561	H56	0.654100	0.467600	0.300200
H571	H57	0.619700	0.465900	0.370900
H581	H58	0.553200	0.295000	0.976800
H591	H59	0.289200	0.258700	0.990200
H601	H60	0.462400	0.105300	0.966300
H611	H61	0.461600	0.471900	0.396500
H621	H62	0.290200	0.491200	0.241600
H631	H63	0.552300	0.477900	0.205100
H641	H64	0.342000	0.515000	0.940000
H651	H65	0.337000	0.556000	0.997000
H661	H66	0.820800	0.991100	0.886800
H671	H67	0.346800	0.298400	0.460100
H681	H68	0.380500	0.369400	0.456700
H691	H69	0.345900	0.032400	0.800200
H701	H70	0.380300	0.034100	0.870900
H711	H71	0.446800	0.205000	0.476800
H721	H72	0.710800	0.241300	0.490200
H731	H73	0.537600	0.394700	0.466300
H741	H74	0.538400	0.028100	0.896500
H751	H75	0.709800	0.008800	0.741600
H761	H76	0.447700	0.022100	0.705100
H771	H77	0.658000	0.985000	0.440000
H781	H78	0.663000	0.944000	0.497000
H791	H79	0.679200	0.491100	0.113200
H801	H80	0.153200	0.798400	0.539900
H811	H81	0.119500	0.869400	0.543300
H821	H82	0.154100	0.532400	0.199800
H831	H83	0.119700	0.534100	0.129100
H841	H84	0.053200	0.705000	0.523200
H851	H85	0.789200	0.741300	0.509800
H861	H86	0.962400	0.894700	0.533700
H871	H87	0.961600	0.528100	0.103500
H881	H88	0.790200	0.508800	0.258400
H891	H89	0.052300	0.522100	0.294900
H901	H90	0.842000	0.485000	0.560000
H911	H91	0.837000	0.444000	0.503000
H921	H92	0.320800	0.008900	0.613200
H931	H93	0.846800	0.701600	0.039900
H941	H94	0.880500	0.630600	0.043300
H951	H95	0.845900	0.967600	0.699800
H961	H96	0.880300	0.965900	0.629100
H971	H97	0.946800	0.795000	0.023200
H981	H98	0.210800	0.758700	0.009800
H991	H99	0.037600	0.605300	0.033700
H1001	H100	0.038400	0.971900	0.603500
H1011	H101	0.209800	0.991200	0.758400
H1021	H102	0.947700	0.977900	0.794900
H1031	H103	0.158000	0.015000	0.060000
H1041	H104	0.163000	0.056000	0.003000
C11	C1	0.581000	0.515000	0.788100
C21	C2	0.582300	0.711200	0.012500
C31	C3	0.478300	0.803100	0.029200
C41	C4	0.494200	0.735500	0.022000
C51	C5	0.635400	0.517900	0.673500
C61	C6	0.710900	0.515200	0.623500
C71	C7	0.636300	0.826200	0.017600
C81	C8	0.477700	0.525400	0.696300
C91	C9	0.596900	0.637000	0.006100
C101	C10	0.652400	0.757000	0.012900
C111	C11	0.548700	0.848600	0.027800
C121	C12	0.549300	0.524400	0.649700
C131	C13	0.651600	0.513200	0.742600
C141	C14	0.494900	0.521000	0.764400
C151	C15	0.597700	0.511000	0.863500
C161	C16	0.711900	0.875700	0.018800
C171	C17	0.419000	0.985000	0.288100
C181	C18	0.417700	0.788800	0.512500
C191	C19	0.521700	0.696900	0.529200
C201	C20	0.505800	0.764500	0.522000
C211	C21	0.364600	0.982100	0.173500
C221	C22	0.289100	0.984800	0.123500
C231	C23	0.363700	0.673800	0.517600
C241	C24	0.522300	0.974600	0.196300
C251	C25	0.403100	0.863000	0.506100
C261	C26	0.347600	0.743000	0.512900
C271	C27	0.451300	0.651400	0.527800
C281	C28	0.450700	0.975600	0.149700
C291	C29	0.348400	0.986800	0.242600
C301	C30	0.505100	0.979000	0.264400
C311	C31	0.402300	0.989000	0.363500
C321	C32	0.288100	0.624300	0.518800
C331	C33	0.081000	0.485000	0.711900
C341	C34	0.082300	0.288800	0.487500
C351	C35	0.978300	0.196900	0.470800
C361	C36	0.994200	0.264500	0.478000
C371	C37	0.135400	0.482100	0.826500
C381	C38	0.210900	0.484800	0.876500
C391	C39	0.136300	0.173800	0.482400
C401	C40	0.977700	0.474600	0.803700
C411	C41	0.096900	0.363000	0.493900
C421	C42	0.152400	0.243000	0.487100
C431	C43	0.048700	0.151400	0.472200
C441	C44	0.049300	0.475600	0.850300
C451	C45	0.151600	0.486800	0.757400
C461	C46	0.994900	0.479000	0.735600
C471	C47	0.097700	0.489000	0.636500
C481	C48	0.211900	0.124300	0.481200
C491	C49	0.919000	0.015000	0.211900
C501	C50	0.917700	0.211200	0.987500
C511	C51	0.021700	0.303100	0.970800
C521	C52	0.005800	0.235500	0.978000
C531	C53	0.864600	0.017900	0.326500
C541	C54	0.789100	0.015200	0.376500
C551	C55	0.863700	0.326200	0.982400
C561	C56	0.022300	0.025400	0.303700
C571	C57	0.903100	0.137000	0.993900
C581	C58	0.847600	0.257000	0.987100
C591	C59	0.951300	0.348600	0.972200
C601	C60	0.950700	0.024400	0.350300
C611	C61	0.848400	0.013200	0.257400
C621	C62	0.005100	0.021000	0.235600
C631	C63	0.902300	0.011000	0.136500
C641	C64	0.788100	0.375700	0.981200
C651	C65	0.419000	0.485000	0.211900
C661	C66	0.417700	0.288800	0.987500
C671	C67	0.521700	0.196900	0.970800
C681	C68	0.505800	0.264500	0.978000
C691	C69	0.364600	0.482100	0.326500
C701	C70	0.289100	0.484800	0.376500
C711	C71	0.363700	0.173800	0.982400
C721	C72	0.522300	0.474600	0.303700
C731	C73	0.403100	0.363000	0.993900
C741	C74	0.347600	0.243000	0.987100
C751	C75	0.451300	0.151400	0.972200
C761	C76	0.450700	0.475600	0.350300
C771	C77	0.348400	0.486800	0.257400
C781	C78	0.505100	0.479000	0.235600
C791	C79	0.402300	0.489000	0.136500
C801	C80	0.288100	0.124300	0.981200
C811	C81	0.581000	0.015000	0.711900
C821	C82	0.582300	0.211200	0.487500
C831	C83	0.478300	0.303100	0.470800
C841	C84	0.494200	0.235500	0.478000
C851	C85	0.635400	0.017900	0.826500
C861	C86	0.710900	0.015200	0.876500
C871	C87	0.636300	0.326200	0.482400
C881	C88	0.477700	0.025400	0.803700
C891	C89	0.596900	0.137000	0.493900
C901	C90	0.652400	0.257000	0.487100
C911	C91	0.548700	0.348600	0.472200
C921	C92	0.549300	0.024400	0.850300
C931	C93	0.651600	0.013200	0.757400
C941	C94	0.494900	0.021000	0.735600
C951	C95	0.597700	0.011000	0.636500
C961	C96	0.711900	0.375700	0.481200
C971	C97	0.919000	0.515000	0.288100
C981	C98	0.917700	0.711200	0.512500
C991	C99	0.021700	0.803100	0.529200
C1001	C100	0.005800	0.735500	0.522000
C1011	C101	0.864600	0.517900	0.173500
C1021	C102	0.789100	0.515200	0.123500
C1031	C103	0.863700	0.826200	0.517600
C1041	C104	0.022300	0.525400	0.196300
C1051	C105	0.903100	0.637000	0.506100
C1061	C106	0.847600	0.757000	0.512900
C1071	C107	0.951300	0.848600	0.527800
C1081	C108	0.950700	0.524400	0.149700
C1091	C109	0.848400	0.513200	0.242600
C1101	C110	0.005100	0.521000	0.264400
C1111	C111	0.902300	0.511000	0.363500
C1121	C112	0.788100	0.875700	0.518800
C1131	C113	0.081000	0.985000	0.788100
C1141	C114	0.082300	0.788800	0.012500
C1151	C115	0.978300	0.696900	0.029200
C1161	C116	0.994200	0.764500	0.022000
C1171	C117	0.135400	0.982100	0.673500
C1181	C118	0.210900	0.984800	0.623500
C1191	C119	0.136300	0.673800	0.017600
C1201	C120	0.977700	0.974600	0.696300
C1211	C121	0.096900	0.863000	0.006100
C1221	C122	0.152400	0.743000	0.012900
C1231	C123	0.048700	0.651400	0.027800
C1241	C124	0.049300	0.975600	0.649700
C1251	C125	0.151600	0.986800	0.742600
C1261	C126	0.994900	0.979000	0.764400
C1271	C127	0.097700	0.989000	0.863500
C1281	C128	0.211900	0.624300	0.018800
N11	N1	0.390500	0.826700	0.038700
N21	N2	0.390000	0.531400	0.671900
N31	N3	0.609500	0.673300	0.538700
N41	N4	0.610000	0.968600	0.171900
N51	N5	0.890500	0.173300	0.461300
N61	N6	0.890000	0.468600	0.828100
N71	N7	0.109500	0.326700	0.961300
N81	N8	0.110000	0.031400	0.328100
N91	N9	0.609500	0.173300	0.961300
N101	N10	0.610000	0.468600	0.328100
N111	N11	0.390500	0.326700	0.461300
N121	N12	0.390000	0.031400	0.828100
N131	N13	0.109500	0.826700	0.538700
N141	N14	0.110000	0.531400	0.171900
N151	N15	0.890500	0.673300	0.038700
N161	N16	0.890000	0.968600	0.671900
O11	O1	0.531700	0.597600	0.014000
O21	O2	0.674200	0.616700	0.990800
O31	O3	0.531100	0.507000	0.900500
O41	O4	0.676800	0.513000	0.882600
O51	O5	0.695900	0.935300	0.037800
O61	O6	0.786800	0.855000	0.998500
O71	O7	0.784300	0.490400	0.644000
O81	O8	0.696300	0.536700	0.564800
O91	O9	0.631400	0.470400	0.025900
O101	O10	0.468300	0.902400	0.514000
O111	O11	0.325800	0.883300	0.490800
O121	O12	0.468900	0.993000	0.400500
O131	O13	0.323200	0.987000	0.382600
O141	O14	0.304100	0.564700	0.537800
O151	O15	0.213200	0.645000	0.498500
O161	O16	0.215700	0.009600	0.144000
O171	O17	0.303700	0.963300	0.064800
O181	O18	0.368600	0.029600	0.525900
O191	O19	0.031700	0.402400	0.486000
O201	O20	0.174200	0.383300	0.509200
O211	O21	0.031100	0.493000	0.599500
O221	O22	0.176800	0.487000	0.617400
O231	O23	0.195900	0.064700	0.462200
O241	O24	0.286800	0.145000	0.501500
O251	O25	0.284300	0.509600	0.856000
O261	O26	0.196300	0.463300	0.935200
O271	O27	0.131400	0.529600	0.474100
O281	O28	0.968300	0.097600	0.986000
O291	O29	0.825800	0.116700	0.009200
O301	O30	0.968900	0.007000	0.099500
O311	O31	0.823200	0.013000	0.117400
O321	O32	0.804100	0.435300	0.962200
O331	O33	0.713200	0.355000	0.001500
O341	O34	0.715700	0.990400	0.356000
O351	O35	0.803700	0.036700	0.435200
O361	O36	0.868600	0.970400	0.974100
O371	O37	0.468300	0.402400	0.986000
O381	O38	0.325800	0.383300	0.009200
O391	O39	0.468900	0.493000	0.099500
O401	O40	0.323200	0.487000	0.117400
O411	O41	0.304100	0.064700	0.962200
O421	O42	0.213200	0.145000	0.001500
O431	O43	0.215700	0.509600	0.356000
O441	O44	0.303700	0.463300	0.435200
O451	O45	0.368600	0.529600	0.974100
O461	O46	0.531700	0.097600	0.486000
O471	O47	0.674200	0.116700	0.509200
O481	O48	0.531100	0.007000	0.599500
O491	O49	0.676800	0.013000	0.617400
O501	O50	0.695900	0.435300	0.462200
O511	O51	0.786800	0.355000	0.501500
O521	O52	0.784300	0.990400	0.856000
O531	O53	0.696300	0.036700	0.935200
O541	O54	0.631400	0.970400	0.474100
O551	O55	0.968300	0.597600	0.514000
O561	O56	0.825800	0.616700	0.490800
O571	O57	0.968900	0.507000	0.400500
O581	O58	0.823200	0.513000	0.382600
O591	O59	0.804100	0.935300	0.537800
O601	O60	0.713200	0.855000	0.498500
O611	O61	0.715700	0.490400	0.144000
O621	O62	0.803700	0.536700	0.064800
O631	O63	0.868600	0.470400	0.525900
O641	O64	0.031700	0.902400	0.014000
O651	O65	0.174200	0.883300	0.990800
O661	O66	0.031100	0.993000	0.900500
O671	O67	0.176800	0.987000	0.882600
O681	O68	0.195900	0.564700	0.037800
O691	O69	0.286800	0.645000	0.998500
O701	O70	0.284300	0.009600	0.644000
O711	O71	0.196300	0.963300	0.564800
O721	O72	0.131400	0.029600	0.025900
