data_WAMREJ_clean_PM
_symmetry_space_group_name_H-M	'P1'
_cell_length_a	22.426100
_cell_length_b	22.426100
_cell_length_c	22.426100
_cell_angle_alpha	92.824500
_cell_angle_beta	118.383000
_cell_angle_gamma	118.383000
_symmetry_Int_Tables_number 1

loop_
_symmetry_equiv_pos_as_xyz
'x,y,z'

loop_
_atom_site_label
_atom_site_type_symbol
_atom_site_fract_x
_atom_site_fract_y
_atom_site_fract_z
Cu11	Cu1	0.425800	0.979920	0.979920
Cu21	Cu2	0.574200	0.554120	0.554120
Cu31	Cu3	0.000000	0.979920	0.554120
Cu41	Cu4	0.000000	0.554120	0.979920
Cu51	Cu5	0.000000	0.445880	0.020080
Cu61	Cu6	0.000000	0.020080	0.445880
Cu71	Cu7	0.425800	0.445880	0.445880
Cu81	Cu8	0.574200	0.020080	0.020080
H11	H1	0.517400	0.956800	0.811400
H21	H2	0.484400	0.931800	0.693600
H31	H3	0.337300	0.979300	0.763000
H41	H4	0.482600	0.294000	0.439400
H51	H5	0.515600	0.209200	0.447400
H61	H6	0.662700	0.425700	0.642000
H71	H7	0.854600	0.811400	0.294000
H81	H8	0.761800	0.693600	0.209200
H91	H9	0.783700	0.763000	0.425700
H101	H10	0.145400	0.439400	0.956800
H111	H11	0.238200	0.447400	0.931800
H121	H12	0.216300	0.642000	0.979300
H131	H13	0.145400	0.706000	0.188600
H141	H14	0.238200	0.790800	0.306400
H151	H15	0.216300	0.574300	0.237000
H161	H16	0.854600	0.043200	0.560600
H171	H17	0.761800	0.068200	0.552600
H181	H18	0.783700	0.020700	0.358000
H191	H19	0.517400	0.560600	0.706000
H201	H20	0.484400	0.552600	0.790800
H211	H21	0.337300	0.358000	0.574300
H221	H22	0.482600	0.188600	0.043200
H231	H23	0.515600	0.306400	0.068200
H241	H24	0.662700	0.237000	0.020700
H251	H25	0.482600	0.043200	0.188600
H261	H26	0.515600	0.068200	0.306400
H271	H27	0.662700	0.020700	0.237000
H281	H28	0.517400	0.706000	0.560600
H291	H29	0.484400	0.790800	0.552600
H301	H30	0.337300	0.574300	0.358000
H311	H31	0.145400	0.188600	0.706000
H321	H32	0.238200	0.306400	0.790800
H331	H33	0.216300	0.237000	0.574300
H341	H34	0.854600	0.560600	0.043200
H351	H35	0.761800	0.552600	0.068200
H361	H36	0.783700	0.358000	0.020700
H371	H37	0.854600	0.294000	0.811400
H381	H38	0.761800	0.209200	0.693600
H391	H39	0.783700	0.425700	0.763000
H401	H40	0.145400	0.956800	0.439400
H411	H41	0.238200	0.931800	0.447400
H421	H42	0.216300	0.979300	0.642000
H431	H43	0.482600	0.439400	0.294000
H441	H44	0.515600	0.447400	0.209200
H451	H45	0.662700	0.642000	0.425700
H461	H46	0.517400	0.811400	0.956800
H471	H47	0.484400	0.693600	0.931800
H481	H48	0.337300	0.763000	0.979300
H491	H49	0.458600	0.024100	0.565500
H501	H50	0.541400	0.106900	0.565500
H511	H51	0.541400	0.565500	0.106900
H521	H52	0.458600	0.565500	0.024100
H531	H53	0.458600	0.893100	0.434500
H541	H54	0.541400	0.975900	0.434500
H551	H55	0.458600	0.434500	0.893100
H561	H56	0.541400	0.434500	0.975900
H571	H57	0.305300	0.805300	0.500000
H581	H58	0.694700	0.194700	0.500000
H591	H59	0.694700	0.500000	0.194700
H601	H60	0.305300	0.500000	0.805300
C11	C1	0.470500	0.984400	0.879900
C21	C2	0.433900	0.971100	0.803400
C31	C3	0.471500	0.956500	0.776200
C41	C4	0.454200	0.941200	0.706600
C51	C5	0.386400	0.942000	0.659000
C61	C6	0.342200	0.955900	0.678100
C71	C7	0.367400	0.970000	0.749800
C81	C8	0.529500	0.409400	0.513900
C91	C9	0.566100	0.369500	0.537200
C101	C10	0.528500	0.304700	0.485000
C111	C11	0.545800	0.252400	0.487000
C121	C12	0.613600	0.272600	0.555600
C131	C13	0.657800	0.335900	0.613700
C141	C14	0.632600	0.382400	0.602600
C151	C15	0.895500	0.879900	0.409400
C161	C16	0.832300	0.803400	0.369500
C171	C17	0.819700	0.776200	0.304700
C181	C18	0.765400	0.706600	0.252400
C191	C19	0.717000	0.659000	0.272600
C201	C20	0.722200	0.678100	0.335900
C211	C21	0.779800	0.749800	0.382400
C221	C22	0.104500	0.513900	0.984400
C231	C23	0.167700	0.537200	0.971100
C241	C24	0.180300	0.485000	0.956500
C251	C25	0.234600	0.487000	0.941200
C261	C26	0.283000	0.555600	0.942000
C271	C27	0.277800	0.613700	0.955900
C281	C28	0.220200	0.602600	0.970000
C291	C29	0.104500	0.590600	0.120100
C301	C30	0.167700	0.630500	0.196600
C311	C31	0.180300	0.695300	0.223800
C321	C32	0.234600	0.747600	0.293400
C331	C33	0.283000	0.727400	0.341000
C341	C34	0.277800	0.664100	0.321900
C351	C35	0.220200	0.617600	0.250200
C361	C36	0.895500	0.015600	0.486100
C371	C37	0.832300	0.028900	0.462800
C381	C38	0.819700	0.043500	0.515000
C391	C39	0.765400	0.058800	0.513000
C401	C40	0.717000	0.058000	0.444400
C411	C41	0.722200	0.044100	0.386300
C421	C42	0.779800	0.030000	0.397400
C431	C43	0.470500	0.486100	0.590600
C441	C44	0.433900	0.462800	0.630500
C451	C45	0.471500	0.515000	0.695300
C461	C46	0.454200	0.513000	0.747600
C471	C47	0.386400	0.444400	0.727400
C481	C48	0.342200	0.386300	0.664100
C491	C49	0.367400	0.397400	0.617600
C501	C50	0.529500	0.120100	0.015600
C511	C51	0.566100	0.196600	0.028900
C521	C52	0.528500	0.223800	0.043500
C531	C53	0.545800	0.293400	0.058800
C541	C54	0.613600	0.341000	0.058000
C551	C55	0.657800	0.321900	0.044100
C561	C56	0.632600	0.250200	0.030000
C571	C57	0.529500	0.015600	0.120100
C581	C58	0.566100	0.028900	0.196600
C591	C59	0.528500	0.043500	0.223800
C601	C60	0.545800	0.058800	0.293400
C611	C61	0.613600	0.058000	0.341000
C621	C62	0.657800	0.044100	0.321900
C631	C63	0.632600	0.030000	0.250200
C641	C64	0.470500	0.590600	0.486100
C651	C65	0.433900	0.630500	0.462800
C661	C66	0.471500	0.695300	0.515000
C671	C67	0.454200	0.747600	0.513000
C681	C68	0.386400	0.727400	0.444400
C691	C69	0.342200	0.664100	0.386300
C701	C70	0.367400	0.617600	0.397400
C711	C71	0.104500	0.120100	0.590600
C721	C72	0.167700	0.196600	0.630500
C731	C73	0.180300	0.223800	0.695300
C741	C74	0.234600	0.293400	0.747600
C751	C75	0.283000	0.341000	0.727400
C761	C76	0.277800	0.321900	0.664100
C771	C77	0.220200	0.250200	0.617600
C781	C78	0.895500	0.486100	0.015600
C791	C79	0.832300	0.462800	0.028900
C801	C80	0.819700	0.515000	0.043500
C811	C81	0.765400	0.513000	0.058800
C821	C82	0.717000	0.444400	0.058000
C831	C83	0.722200	0.386300	0.044100
C841	C84	0.779800	0.397400	0.030000
C851	C85	0.895500	0.409400	0.879900
C861	C86	0.832300	0.369500	0.803400
C871	C87	0.819700	0.304700	0.776200
C881	C88	0.765400	0.252400	0.706600
C891	C89	0.717000	0.272600	0.659000
C901	C90	0.722200	0.335900	0.678100
C911	C91	0.779800	0.382400	0.749800
C921	C92	0.104500	0.984400	0.513900
C931	C93	0.167700	0.971100	0.537200
C941	C94	0.180300	0.956500	0.485000
C951	C95	0.234600	0.941200	0.487000
C961	C96	0.283000	0.942000	0.555600
C971	C97	0.277800	0.955900	0.613700
C981	C98	0.220200	0.970000	0.602600
C991	C99	0.529500	0.513900	0.409400
C1001	C100	0.566100	0.537200	0.369500
C1011	C101	0.528500	0.485000	0.304700
C1021	C102	0.545800	0.487000	0.252400
C1031	C103	0.613600	0.555600	0.272600
C1041	C104	0.657800	0.613700	0.335900
C1051	C105	0.632600	0.602600	0.382400
C1061	C106	0.470500	0.879900	0.984400
C1071	C107	0.433900	0.803400	0.971100
C1081	C108	0.471500	0.776200	0.956500
C1091	C109	0.454200	0.706600	0.941200
C1101	C110	0.386400	0.659000	0.942000
C1111	C111	0.342200	0.678100	0.955900
C1121	C112	0.367400	0.749800	0.970000
C1131	C113	0.377400	0.916110	0.538710
C1141	C114	0.438000	0.976830	0.538830
C1151	C115	0.622600	0.161310	0.538710
C1161	C116	0.562000	0.100830	0.538830
C1171	C117	0.622600	0.538710	0.161310
C1181	C118	0.562000	0.538830	0.100830
C1191	C119	0.377400	0.538710	0.916110
C1201	C120	0.438000	0.538830	0.976830
C1211	C121	0.377400	0.838690	0.461290
C1221	C122	0.438000	0.899170	0.461170
C1231	C123	0.622600	0.083890	0.461290
C1241	C124	0.562000	0.023170	0.461170
C1251	C125	0.377400	0.461290	0.838690
C1261	C126	0.438000	0.461170	0.899170
C1271	C127	0.622600	0.461290	0.083890
C1281	C128	0.562000	0.461170	0.023170
C1291	C129	0.346600	0.846600	0.500000
C1301	C130	0.468600	0.968600	0.500000
C1311	C131	0.653400	0.153400	0.500000
C1321	C132	0.531400	0.031400	0.500000
C1331	C133	0.653400	0.500000	0.153400
C1341	C134	0.531400	0.500000	0.031400
C1351	C135	0.346600	0.500000	0.846600
C1361	C136	0.468600	0.500000	0.968600
N11	N1	0.347100	0.929300	0.582200
N21	N2	0.652900	0.235100	0.582200
N31	N3	0.652900	0.582200	0.235100
N41	N4	0.347100	0.582200	0.929300
N51	N5	0.347100	0.764900	0.417800
N61	N6	0.652900	0.070700	0.417800
N71	N7	0.347100	0.417800	0.764900
N81	N8	0.652900	0.417800	0.070700
O11	O1	0.407100	0.971400	0.885900
O21	O2	0.536500	0.002400	0.921500
O31	O3	0.592900	0.478800	0.564300
O41	O4	0.463500	0.385000	0.465900
O51	O5	0.914500	0.885900	0.478800
O61	O6	0.919100	0.921500	0.385000
O71	O7	0.085500	0.564300	0.971400
O81	O8	0.080900	0.465900	0.002400
O91	O9	0.085500	0.521200	0.114100
O101	O10	0.080900	0.615000	0.078500
O111	O11	0.914500	0.028600	0.435700
O121	O12	0.919100	0.997600	0.534100
O131	O13	0.407100	0.435700	0.521200
O141	O14	0.536500	0.534100	0.615000
O151	O15	0.592900	0.114100	0.028600
O161	O16	0.463500	0.078500	0.997600
O171	O17	0.592900	0.028600	0.114100
O181	O18	0.463500	0.997600	0.078500
O191	O19	0.407100	0.521200	0.435700
O201	O20	0.536500	0.615000	0.534100
O211	O21	0.085500	0.114100	0.521200
O221	O22	0.080900	0.078500	0.615000
O231	O23	0.914500	0.435700	0.028600
O241	O24	0.919100	0.534100	0.997600
O251	O25	0.914500	0.478800	0.885900
O261	O26	0.919100	0.385000	0.921500
O271	O27	0.085500	0.971400	0.564300
O281	O28	0.080900	0.002400	0.465900
O291	O29	0.592900	0.564300	0.478800
O301	O30	0.463500	0.465900	0.385000
O311	O31	0.407100	0.885900	0.971400
O321	O32	0.536500	0.921500	0.002400
