data_WAMRIN_clean_PM
_symmetry_space_group_name_H-M	'P1'
_cell_length_a	12.847000
_cell_length_b	14.844000
_cell_length_c	15.148000
_cell_angle_alpha	90.000000
_cell_angle_beta	90.000000
_cell_angle_gamma	90.000000
_symmetry_Int_Tables_number 1

loop_
_symmetry_equiv_pos_as_xyz
'x,y,z'

loop_
_atom_site_label
_atom_site_type_symbol
_atom_site_fract_x
_atom_site_fract_y
_atom_site_fract_z
Mg11	Mg1	0.556710	0.237640	0.000000
Mg21	Mg2	0.443290	0.762360	0.000000
Mg31	Mg3	0.943290	0.737640	0.500000
Mg41	Mg4	0.056710	0.262360	0.500000
Mg51	Mg5	0.000000	0.500000	0.500000
Mg61	Mg6	0.500000	0.000000	0.000000
H11	H1	0.417000	0.465100	0.123400
H21	H2	0.225800	0.553600	0.313900
H31	H3	0.252400	0.288800	0.267200
H41	H4	0.324400	0.657800	0.223300
H51	H5	0.396500	0.624700	0.153400
H61	H6	0.088000	0.654000	0.545800
H71	H7	0.583000	0.534900	0.123400
H81	H8	0.774200	0.446400	0.313900
H91	H9	0.747600	0.711200	0.267200
H101	H10	0.675600	0.342200	0.223300
H111	H11	0.603500	0.375300	0.153400
H121	H12	0.912000	0.346000	0.545800
H131	H13	0.083000	0.965100	0.376600
H141	H14	0.274200	0.053600	0.186100
H151	H15	0.247600	0.788800	0.232800
H161	H16	0.175600	0.157800	0.276700
H171	H17	0.103500	0.124700	0.346600
H181	H18	0.412000	0.154000	0.954200
H191	H19	0.917000	0.034900	0.376600
H201	H20	0.725800	0.946400	0.186100
H211	H21	0.752400	0.211200	0.232800
H221	H22	0.824400	0.842200	0.276700
H231	H23	0.896500	0.875300	0.346600
H241	H24	0.588000	0.846000	0.954200
H251	H25	0.583000	0.534900	0.876600
H261	H26	0.774200	0.446400	0.686100
H271	H27	0.747600	0.711200	0.732800
H281	H28	0.675600	0.342200	0.776700
H291	H29	0.603500	0.375300	0.846600
H301	H30	0.912000	0.346000	0.454200
H311	H31	0.417000	0.465100	0.876600
H321	H32	0.225800	0.553600	0.686100
H331	H33	0.252400	0.288800	0.732800
H341	H34	0.324400	0.657800	0.776700
H351	H35	0.396500	0.624700	0.846600
H361	H36	0.088000	0.654000	0.454200
H371	H37	0.917000	0.034900	0.623400
H381	H38	0.725800	0.946400	0.813900
H391	H39	0.752400	0.211200	0.767200
H401	H40	0.824400	0.842200	0.723300
H411	H41	0.896500	0.875300	0.653400
H421	H42	0.588000	0.846000	0.045800
H431	H43	0.083000	0.965100	0.623400
H441	H44	0.274200	0.053600	0.813900
H451	H45	0.247600	0.788800	0.767200
H461	H46	0.175600	0.157800	0.723300
H471	H47	0.103500	0.124700	0.653400
H481	H48	0.412000	0.154000	0.045800
C11	C1	0.340600	0.365670	0.186410
C21	C2	0.326200	0.524810	0.215800
C31	C3	0.369000	0.453470	0.167980
C41	C4	0.386200	0.289810	0.132830
C51	C5	0.255400	0.506410	0.282240
C61	C6	0.227930	0.418470	0.302130
C71	C7	0.270640	0.347940	0.254060
C81	C8	0.151330	0.401400	0.375370
C91	C9	0.659400	0.634330	0.186410
C101	C10	0.673800	0.475190	0.215800
C111	C11	0.631000	0.546530	0.167980
C121	C12	0.613800	0.710190	0.132830
C131	C13	0.744600	0.493590	0.282240
C141	C14	0.772070	0.581530	0.302130
C151	C15	0.729360	0.652060	0.254060
C161	C16	0.848670	0.598600	0.375370
C171	C17	0.159400	0.865670	0.313590
C181	C18	0.173800	0.024810	0.284200
C191	C19	0.131000	0.953470	0.332020
C201	C20	0.113800	0.789810	0.367170
C211	C21	0.244600	0.006410	0.217760
C221	C22	0.272070	0.918470	0.197870
C231	C23	0.229360	0.847940	0.245940
C241	C24	0.348670	0.901400	0.124630
C251	C25	0.840600	0.134330	0.313590
C261	C26	0.826200	0.975190	0.284200
C271	C27	0.869000	0.046530	0.332020
C281	C28	0.886200	0.210190	0.367170
C291	C29	0.755400	0.993590	0.217760
C301	C30	0.727930	0.081530	0.197870
C311	C31	0.770640	0.152060	0.245940
C321	C32	0.651330	0.098600	0.124630
C331	C33	0.659400	0.634330	0.813590
C341	C34	0.673800	0.475190	0.784200
C351	C35	0.631000	0.546530	0.832020
C361	C36	0.613800	0.710190	0.867170
C371	C37	0.744600	0.493590	0.717760
C381	C38	0.772070	0.581530	0.697870
C391	C39	0.729360	0.652060	0.745940
C401	C40	0.848670	0.598600	0.624630
C411	C41	0.340600	0.365670	0.813590
C421	C42	0.326200	0.524810	0.784200
C431	C43	0.369000	0.453470	0.832020
C441	C44	0.386200	0.289810	0.867170
C451	C45	0.255400	0.506410	0.717760
C461	C46	0.227930	0.418470	0.697870
C471	C47	0.270640	0.347940	0.745940
C481	C48	0.151330	0.401400	0.624630
C491	C49	0.840600	0.134330	0.686410
C501	C50	0.826200	0.975190	0.715800
C511	C51	0.869000	0.046530	0.667980
C521	C52	0.886200	0.210190	0.632830
C531	C53	0.755400	0.993590	0.782240
C541	C54	0.727930	0.081530	0.802130
C551	C55	0.770640	0.152060	0.754060
C561	C56	0.651330	0.098600	0.875370
C571	C57	0.159400	0.865670	0.686410
C581	C58	0.173800	0.024810	0.715800
C591	C59	0.131000	0.953470	0.667980
C601	C60	0.113800	0.789810	0.632830
C611	C61	0.244600	0.006410	0.782240
C621	C62	0.272070	0.918470	0.802130
C631	C63	0.229360	0.847940	0.754060
C641	C64	0.348670	0.901400	0.875370
N11	N1	0.352400	0.613900	0.194800
N21	N2	0.647600	0.386100	0.194800
N31	N3	0.147600	0.113900	0.305200
N41	N4	0.852400	0.886100	0.305200
N51	N5	0.647600	0.386100	0.805200
N61	N6	0.352400	0.613900	0.805200
N71	N7	0.852400	0.886100	0.694800
N81	N8	0.147600	0.113900	0.694800
O11	O1	0.471160	0.305100	0.094540
O21	O2	0.336800	0.216750	0.129130
O31	O3	0.141420	0.322690	0.401500
O41	O4	0.104040	0.467720	0.404860
O51	O5	0.528840	0.694900	0.094540
O61	O6	0.663200	0.783250	0.129130
O71	O7	0.858580	0.677310	0.401500
O81	O8	0.895960	0.532280	0.404860
O91	O9	0.028840	0.805100	0.405460
O101	O10	0.163200	0.716750	0.370870
O111	O11	0.358580	0.822690	0.098500
O121	O12	0.395960	0.967720	0.095140
O131	O13	0.971160	0.194900	0.405460
O141	O14	0.836800	0.283250	0.370870
O151	O15	0.641420	0.177310	0.098500
O161	O16	0.604040	0.032280	0.095140
O171	O17	0.528840	0.694900	0.905460
O181	O18	0.663200	0.783250	0.870870
O191	O19	0.858580	0.677310	0.598500
O201	O20	0.895960	0.532280	0.595140
O211	O21	0.471160	0.305100	0.905460
O221	O22	0.336800	0.216750	0.870870
O231	O23	0.141420	0.322690	0.598500
O241	O24	0.104040	0.467720	0.595140
O251	O25	0.971160	0.194900	0.594540
O261	O26	0.836800	0.283250	0.629130
O271	O27	0.641420	0.177310	0.901500
O281	O28	0.604040	0.032280	0.904860
O291	O29	0.028840	0.805100	0.594540
O301	O30	0.163200	0.716750	0.629130
O311	O31	0.358580	0.822690	0.901500
O321	O32	0.395960	0.967720	0.904860
O331	O33	0.059960	0.632690	0.500000
O341	O34	0.940040	0.367310	0.500000
O351	O35	0.440040	0.132690	0.000000
O361	O36	0.559960	0.867310	0.000000
