data_WAPSUE_clean_PM
_symmetry_space_group_name_H-M	'P1'
_cell_length_a	15.115000
_cell_length_b	16.256000
_cell_length_c	27.421000
_cell_angle_alpha	90.000000
_cell_angle_beta	105.521000
_cell_angle_gamma	90.000000
_symmetry_Int_Tables_number 1

loop_
_symmetry_equiv_pos_as_xyz
'x,y,z'

loop_
_atom_site_label
_atom_site_type_symbol
_atom_site_fract_x
_atom_site_fract_y
_atom_site_fract_z
W11	W1	0.562400	0.227290	0.448870
W21	W2	0.751130	0.282630	0.391170
W31	W3	0.584930	0.236340	0.573150
W41	W4	0.932250	0.367820	0.475500
W51	W5	0.895490	0.161440	0.475990
W61	W6	0.957310	0.377000	0.610410
W71	W7	0.800110	0.304730	0.665850
W81	W8	0.704400	0.096740	0.526770
W91	W9	0.917770	0.170730	0.614140
W101	W10	0.595380	0.440280	0.416210
W111	W11	0.373590	0.546070	0.398280
Ce11	Ce1	0.802570	0.566810	0.525130
Ce21	Ce2	0.650820	0.721400	0.265370
As11	As1	0.756560	0.324040	0.526250
P11	P1	0.514100	0.568900	0.322600
P21	P2	0.412100	0.412500	0.316380
O11	O1	0.684900	0.384100	0.392900
O21	O2	0.910900	0.363900	0.670900
O31	O3	0.817700	0.286300	0.482800
O41	O4	0.500200	0.380600	0.354300
O51	O5	0.933600	0.160300	0.547900
O61	O6	0.350100	0.458700	0.343800
O71	O7	0.487000	0.493700	0.424500
O81	O8	0.613100	0.126200	0.565900
O91	O9	0.403400	0.643700	0.433500
O101	O10	0.859600	0.344200	0.406000
O111	O11	0.834300	0.293900	0.585100
O121	O12	0.870400	0.454200	0.481700
O131	O13	0.442000	0.603900	0.348300
O141	O14	0.864000	0.205500	0.666800
O151	O15	0.973200	0.246200	0.470900
O161	O16	0.780100	0.111600	0.486100
O171	O17	0.509800	0.240000	0.504300
O181	O18	0.684400	0.236000	0.521600
O191	O19	0.978900	0.349300	0.546200
O201	O20	0.574400	0.348700	0.451200
O211	O21	0.654100	0.234600	0.412400
O221	O22	0.594700	0.523500	0.362500
O231	O23	0.816700	0.184000	0.408900
O241	O24	0.999200	0.256400	0.628500
O251	O25	0.797300	0.117200	0.583400
O261	O26	0.359200	0.346900	0.281700
O271	O27	0.266100	0.597300	0.356700
O281	O28	0.674800	0.492500	0.464000
O291	O29	0.884800	0.460700	0.585400
O301	O30	0.690200	0.250100	0.628900
O311	O31	0.031200	0.406000	0.461500
O321	O32	0.316300	0.496600	0.435800
O331	O33	0.553400	0.631000	0.293600
O341	O34	0.595200	0.121400	0.467300
O351	O35	0.516200	0.454300	0.255900
H11	H1	0.492600	0.416100	0.237500
C11	C1	0.449500	0.489900	0.279000
C21	C2	0.372300	0.526100	0.242700
H21	H2	0.330400	0.548600	0.260000
H31	H3	0.393500	0.569000	0.224600
H41	H4	0.341500	0.484700	0.219300
W121	W12	0.437600	0.727290	0.051130
W131	W13	0.248870	0.782630	0.108830
W141	W14	0.415070	0.736340	0.926850
W151	W15	0.067750	0.867820	0.024500
W161	W16	0.104510	0.661440	0.024010
W171	W17	0.042690	0.877000	0.889590
W181	W18	0.199890	0.804730	0.834150
W191	W19	0.295600	0.596740	0.973230
W201	W20	0.082230	0.670730	0.885860
W211	W21	0.404620	0.940280	0.083790
W221	W22	0.626410	0.046070	0.101720
Ce31	Ce3	0.197430	0.066810	0.974870
Ce41	Ce4	0.349180	0.221400	0.234630
As21	As2	0.243440	0.824040	0.973750
P31	P3	0.485900	0.068900	0.177400
P41	P4	0.587900	0.912500	0.183620
O361	O36	0.315100	0.884100	0.107100
O371	O37	0.089100	0.863900	0.829100
O381	O38	0.182300	0.786300	0.017200
O391	O39	0.499800	0.880600	0.145700
O401	O40	0.066400	0.660300	0.952100
O411	O41	0.649900	0.958700	0.156200
O421	O42	0.513000	0.993700	0.075500
O431	O43	0.386900	0.626200	0.934100
O441	O44	0.596600	0.143700	0.066500
O451	O45	0.140400	0.844200	0.094000
O461	O46	0.165700	0.793900	0.914900
O471	O47	0.129600	0.954200	0.018300
O481	O48	0.558000	0.103900	0.151700
O491	O49	0.136000	0.705500	0.833200
O501	O50	0.026800	0.746200	0.029100
O511	O51	0.219900	0.611600	0.013900
O521	O52	0.490200	0.740000	0.995700
O531	O53	0.315600	0.736000	0.978400
O541	O54	0.021100	0.849300	0.953800
O551	O55	0.425600	0.848700	0.048800
O561	O56	0.345900	0.734600	0.087600
O571	O57	0.405300	0.023500	0.137500
O581	O58	0.183300	0.684000	0.091100
O591	O59	0.000800	0.756400	0.871500
O601	O60	0.202700	0.617200	0.916600
O611	O61	0.640800	0.846900	0.218300
O621	O62	0.733900	0.097300	0.143300
O631	O63	0.325200	0.992500	0.036000
O641	O64	0.115200	0.960700	0.914600
O651	O65	0.309800	0.750100	0.871100
O661	O66	0.968800	0.906000	0.038500
O671	O67	0.683700	0.996600	0.064200
O681	O68	0.446600	0.131000	0.206400
O691	O69	0.404800	0.621400	0.032700
O701	O70	0.483800	0.954300	0.244100
H51	H5	0.507400	0.916100	0.262500
C31	C3	0.550500	0.989900	0.221000
C41	C4	0.627700	0.026100	0.257300
H61	H6	0.669600	0.048600	0.240000
H71	H7	0.606500	0.069000	0.275400
H81	H8	0.658500	0.984700	0.280700
W231	W23	0.437600	0.772710	0.551130
W241	W24	0.248870	0.717370	0.608830
W251	W25	0.415070	0.763660	0.426850
W261	W26	0.067750	0.632180	0.524500
W271	W27	0.104510	0.838560	0.524010
W281	W28	0.042690	0.623000	0.389590
W291	W29	0.199890	0.695270	0.334150
W301	W30	0.295600	0.903260	0.473230
W311	W31	0.082230	0.829270	0.385860
W321	W32	0.404620	0.559720	0.583790
W331	W33	0.626410	0.453930	0.601720
Ce51	Ce5	0.197430	0.433190	0.474870
Ce61	Ce6	0.349180	0.278600	0.734630
As31	As3	0.243440	0.675960	0.473750
P51	P5	0.485900	0.431100	0.677400
P61	P6	0.587900	0.587500	0.683620
O711	O71	0.315100	0.615900	0.607100
O721	O72	0.089100	0.636100	0.329100
O731	O73	0.182300	0.713700	0.517200
O741	O74	0.499800	0.619400	0.645700
O751	O75	0.066400	0.839700	0.452100
O761	O76	0.649900	0.541300	0.656200
O771	O77	0.513000	0.506300	0.575500
O781	O78	0.386900	0.873800	0.434100
O791	O79	0.596600	0.356300	0.566500
O801	O80	0.140400	0.655800	0.594000
O811	O81	0.165700	0.706100	0.414900
O821	O82	0.129600	0.545800	0.518300
O831	O83	0.558000	0.396100	0.651700
O841	O84	0.136000	0.794500	0.333200
O851	O85	0.026800	0.753800	0.529100
O861	O86	0.219900	0.888400	0.513900
O871	O87	0.490200	0.760000	0.495700
O881	O88	0.315600	0.764000	0.478400
O891	O89	0.021100	0.650700	0.453800
O901	O90	0.425600	0.651300	0.548800
O911	O91	0.345900	0.765400	0.587600
O921	O92	0.405300	0.476500	0.637500
O931	O93	0.183300	0.816000	0.591100
O941	O94	0.000800	0.743600	0.371500
O951	O95	0.202700	0.882800	0.416600
O961	O96	0.640800	0.653100	0.718300
O971	O97	0.733900	0.402700	0.643300
O981	O98	0.325200	0.507500	0.536000
O991	O99	0.115200	0.539300	0.414600
O1001	O100	0.309800	0.749900	0.371100
O1011	O101	0.968800	0.594000	0.538500
O1021	O102	0.683700	0.503400	0.564200
O1031	O103	0.446600	0.369000	0.706400
O1041	O104	0.404800	0.878600	0.532700
O1051	O105	0.483800	0.545700	0.744100
H91	H9	0.507400	0.583900	0.762500
C51	C5	0.550500	0.510100	0.721000
C61	C6	0.627700	0.473900	0.757300
H101	H10	0.669600	0.451400	0.740000
H111	H11	0.606500	0.431000	0.775400
H121	H12	0.658500	0.515300	0.780700
W341	W34	0.562400	0.272710	0.948870
W351	W35	0.751130	0.217370	0.891170
W361	W36	0.584930	0.263660	0.073150
W371	W37	0.932250	0.132180	0.975500
W381	W38	0.895490	0.338560	0.975990
W391	W39	0.957310	0.123000	0.110410
W401	W40	0.800110	0.195270	0.165850
W411	W41	0.704400	0.403260	0.026770
W421	W42	0.917770	0.329270	0.114140
W431	W43	0.595380	0.059720	0.916210
W441	W44	0.373590	0.953930	0.898280
Ce71	Ce7	0.802570	0.933190	0.025130
Ce81	Ce8	0.650820	0.778600	0.765370
As41	As4	0.756560	0.175960	0.026250
P71	P7	0.514100	0.931100	0.822600
P81	P8	0.412100	0.087500	0.816380
O1061	O106	0.684900	0.115900	0.892900
O1071	O107	0.910900	0.136100	0.170900
O1081	O108	0.817700	0.213700	0.982800
O1091	O109	0.500200	0.119400	0.854300
O1101	O110	0.933600	0.339700	0.047900
O1111	O111	0.350100	0.041300	0.843800
O1121	O112	0.487000	0.006300	0.924500
O1131	O113	0.613100	0.373800	0.065900
O1141	O114	0.403400	0.856300	0.933500
O1151	O115	0.859600	0.155800	0.906000
O1161	O116	0.834300	0.206100	0.085100
O1171	O117	0.870400	0.045800	0.981700
O1181	O118	0.442000	0.896100	0.848300
O1191	O119	0.864000	0.294500	0.166800
O1201	O120	0.973200	0.253800	0.970900
O1211	O121	0.780100	0.388400	0.986100
O1221	O122	0.509800	0.260000	0.004300
O1231	O123	0.684400	0.264000	0.021600
O1241	O124	0.978900	0.150700	0.046200
O1251	O125	0.574400	0.151300	0.951200
O1261	O126	0.654100	0.265400	0.912400
O1271	O127	0.594700	0.976500	0.862500
O1281	O128	0.816700	0.316000	0.908900
O1291	O129	0.999200	0.243600	0.128500
O1301	O130	0.797300	0.382800	0.083400
O1311	O131	0.359200	0.153100	0.781700
O1321	O132	0.266100	0.902700	0.856700
O1331	O133	0.674800	0.007500	0.964000
O1341	O134	0.884800	0.039300	0.085400
O1351	O135	0.690200	0.249900	0.128900
O1361	O136	0.031200	0.094000	0.961500
O1371	O137	0.316300	0.003400	0.935800
O1381	O138	0.553400	0.869000	0.793600
O1391	O139	0.595200	0.378600	0.967300
O1401	O140	0.516200	0.045700	0.755900
H131	H13	0.492600	0.083900	0.737500
C71	C7	0.449500	0.010100	0.779000
C81	C8	0.372300	0.973900	0.742700
H141	H14	0.330400	0.951400	0.760000
H151	H15	0.393500	0.931000	0.724600
H161	H16	0.341500	0.015300	0.719300
