data_WARFAZ_clean_PM
_symmetry_space_group_name_H-M	'P1'
_cell_length_a	21.838000
_cell_length_b	21.838000
_cell_length_c	14.721000
_cell_angle_alpha	90.000000
_cell_angle_beta	90.000000
_cell_angle_gamma	90.000000
_symmetry_Int_Tables_number 1

loop_
_symmetry_equiv_pos_as_xyz
'x,y,z'

loop_
_atom_site_label
_atom_site_type_symbol
_atom_site_fract_x
_atom_site_fract_y
_atom_site_fract_z
O11	O1	0.205710	0.452090	0.172550
O21	O2	0.297390	0.460050	0.109700
O31	O3	0.137900	0.362980	0.999800
O41	O4	0.152050	0.565230	0.063200
O51	O5	0.817310	0.379600	0.026100
O61	O6	0.828720	0.586610	0.052500
O71	O7	0.779770	0.524050	0.884500
O81	O8	0.686470	0.542510	0.936600
N11	N1	0.144740	0.467020	0.015000
N21	N2	0.823030	0.482920	0.043200
C11	C1	0.239700	0.458540	0.104700
C21	C2	0.212300	0.461600	0.010000
H11	H1	0.221120	0.421370	0.980400
C31	C3	0.242300	0.511200	0.949700
H21	H2	0.286730	0.505230	0.949070
H31	H3	0.226310	0.507880	0.887670
H41	H4	0.232740	0.551800	0.974170
C41	C4	0.112000	0.411500	0.012300
C51	C5	0.119200	0.523000	0.043100
C61	C6	0.051500	0.526720	0.044100
C71	C7	0.023000	0.582600	0.054800
H51	H5	0.046610	0.618900	0.060510
C81	C8	0.958700	0.585420	0.057300
H61	H6	0.939120	0.623880	0.065300
C91	C9	0.923830	0.533590	0.048200
C101	C10	0.951820	0.476080	0.038500
C111	C11	0.016430	0.472600	0.034100
C121	C12	0.044400	0.415440	0.021300
C131	C13	0.009300	0.363000	0.015000
H71	H7	0.028660	0.324420	0.006710
C141	C14	0.945700	0.366430	0.020800
H81	H8	0.921940	0.330070	0.017250
C151	C15	0.917020	0.422190	0.031600
C161	C16	0.848700	0.424700	0.033600
C171	C17	0.855600	0.537600	0.048200
C181	C18	0.754700	0.488100	0.033400
H91	H9	0.739570	0.445420	0.023250
C191	C19	0.723700	0.510100	0.118900
H101	H10	0.724270	0.477420	0.164530
H111	H11	0.681230	0.521250	0.105260
H121	H12	0.745460	0.545990	0.142550
C201	C20	0.740900	0.523060	0.945900
O91	O9	0.294290	0.952090	0.577450
O101	O10	0.202610	0.960050	0.640300
O111	O11	0.362100	0.862980	0.750200
O121	O12	0.347950	0.065230	0.686800
O131	O13	0.682690	0.879600	0.723900
O141	O14	0.671280	0.086610	0.697500
O151	O15	0.720230	0.024050	0.865500
O161	O16	0.813530	0.042510	0.813400
N31	N3	0.355260	0.967020	0.735000
N41	N4	0.676970	0.982920	0.706800
C211	C21	0.260300	0.958540	0.645300
C221	C22	0.287700	0.961600	0.740000
H131	H13	0.278880	0.921370	0.769600
C231	C23	0.257700	0.011200	0.800300
H141	H14	0.213270	0.005230	0.800930
H151	H15	0.273690	0.007880	0.862330
H161	H16	0.267260	0.051800	0.775830
C241	C24	0.388000	0.911500	0.737700
C251	C25	0.380800	0.023000	0.706900
C261	C26	0.448500	0.026720	0.705900
C271	C27	0.477000	0.082600	0.695200
H171	H17	0.453390	0.118900	0.689490
C281	C28	0.541300	0.085420	0.692700
H181	H18	0.560880	0.123880	0.684700
C291	C29	0.576170	0.033590	0.701800
C301	C30	0.548180	0.976080	0.711500
C311	C31	0.483570	0.972600	0.715900
C321	C32	0.455600	0.915440	0.728700
C331	C33	0.490700	0.863000	0.735000
H191	H19	0.471340	0.824420	0.743290
C341	C34	0.554300	0.866430	0.729200
H201	H20	0.578060	0.830070	0.732750
C351	C35	0.582980	0.922190	0.718400
C361	C36	0.651300	0.924700	0.716400
C371	C37	0.644400	0.037600	0.701800
C381	C38	0.745300	0.988100	0.716600
H211	H21	0.760430	0.945420	0.726750
C391	C39	0.776300	0.010100	0.631100
H221	H22	0.775730	0.977420	0.585470
H231	H23	0.818770	0.021250	0.644740
H241	H24	0.754540	0.045990	0.607450
C401	C40	0.759100	0.023060	0.804100
Cd11	Cd1	0.204900	0.950690	0.479190
N51	N5	0.227100	0.849180	0.456500
N61	N6	0.301990	0.557000	0.280900
C411	C41	0.183900	0.810600	0.423800
H251	H25	0.142470	0.823760	0.423160
C421	C42	0.197700	0.753300	0.391500
H261	H26	0.165880	0.727570	0.369320
C431	C43	0.257700	0.732700	0.391100
C441	C44	0.301400	0.772480	0.428300
H271	H27	0.343060	0.760050	0.432180
C451	C45	0.284400	0.828990	0.458900
H281	H28	0.315110	0.855170	0.483020
C461	C46	0.250730	0.586990	0.257000
H291	H29	0.223890	0.567990	0.214800
C471	C47	0.234980	0.643610	0.290300
H301	H30	0.198220	0.663120	0.271540
C481	C48	0.274600	0.672120	0.353000
C491	C49	0.328010	0.641500	0.376800
H311	H31	0.356030	0.659320	0.418460
C501	C50	0.339910	0.584710	0.339200
H321	H32	0.376790	0.564420	0.355500
Cd21	Cd2	0.295100	0.450690	0.270810
N71	N7	0.272900	0.349180	0.293500
N81	N8	0.198010	0.057000	0.469100
C511	C51	0.316100	0.310600	0.326200
H331	H33	0.357530	0.323760	0.326840
C521	C52	0.302300	0.253300	0.358500
H341	H34	0.334120	0.227570	0.380680
C531	C53	0.242300	0.232700	0.358900
C541	C54	0.198600	0.272480	0.321700
H351	H35	0.156940	0.260050	0.317820
C551	C55	0.215600	0.328990	0.291100
H361	H36	0.184890	0.355170	0.266980
C561	C56	0.249270	0.086990	0.493000
H371	H37	0.276110	0.067990	0.535200
C571	C57	0.265020	0.143610	0.459700
H381	H38	0.301780	0.163120	0.478460
C581	C58	0.225400	0.172120	0.397000
C591	C59	0.171990	0.141500	0.373200
H391	H39	0.143970	0.159320	0.331540
C601	C60	0.160090	0.084710	0.410800
H401	H40	0.123210	0.064420	0.394500
O171	O17	0.794290	0.547910	0.672550
O181	O18	0.702610	0.539950	0.609700
O191	O19	0.862100	0.637020	0.499800
O201	O20	0.847950	0.434770	0.563200
O211	O21	0.182690	0.620400	0.526100
O221	O22	0.171280	0.413390	0.552500
O231	O23	0.220230	0.475950	0.384500
O241	O24	0.313530	0.457490	0.436600
N91	N9	0.855260	0.532980	0.515000
N101	N10	0.176970	0.517080	0.543200
C611	C61	0.760300	0.541460	0.604700
C621	C62	0.787700	0.538400	0.510000
H411	H41	0.778880	0.578630	0.480400
C631	C63	0.757700	0.488800	0.449700
H421	H42	0.713270	0.494770	0.449070
H431	H43	0.773690	0.492120	0.387670
H441	H44	0.767260	0.448200	0.474170
C641	C64	0.888000	0.588500	0.512300
C651	C65	0.880800	0.477000	0.543100
C661	C66	0.948500	0.473280	0.544100
C671	C67	0.977000	0.417400	0.554800
H451	H45	0.953390	0.381100	0.560510
C681	C68	0.041300	0.414580	0.557300
H461	H46	0.060880	0.376120	0.565300
C691	C69	0.076170	0.466410	0.548200
C701	C70	0.048180	0.523920	0.538500
C711	C71	0.983570	0.527400	0.534100
C721	C72	0.955600	0.584560	0.521300
C731	C73	0.990700	0.637000	0.515000
H471	H47	0.971340	0.675580	0.506710
C741	C74	0.054300	0.633570	0.520800
H481	H48	0.078060	0.669930	0.517250
C751	C75	0.082980	0.577810	0.531600
C761	C76	0.151300	0.575300	0.533600
C771	C77	0.144400	0.462400	0.548200
C781	C78	0.245300	0.511900	0.533400
H491	H49	0.260430	0.554580	0.523250
C791	C79	0.276300	0.489900	0.618900
H501	H50	0.275730	0.522580	0.664530
H511	H51	0.318770	0.478750	0.605260
H521	H52	0.254540	0.454010	0.642550
C801	C80	0.259100	0.476940	0.445900
O251	O25	0.705710	0.047910	0.077450
O261	O26	0.797390	0.039950	0.140300
O271	O27	0.637900	0.137020	0.250200
O281	O28	0.652050	0.934770	0.186800
O291	O29	0.317310	0.120400	0.223900
O301	O30	0.328720	0.913390	0.197500
O311	O31	0.279770	0.975950	0.365500
O321	O32	0.186470	0.957490	0.313400
N111	N11	0.644740	0.032980	0.235000
N121	N12	0.323030	0.017080	0.206800
C811	C81	0.739700	0.041460	0.145300
C821	C82	0.712300	0.038400	0.240000
H531	H53	0.721120	0.078630	0.269600
C831	C83	0.742300	0.988800	0.300300
H541	H54	0.786730	0.994770	0.300930
H551	H55	0.726310	0.992120	0.362330
H561	H56	0.732740	0.948200	0.275830
C841	C84	0.612000	0.088500	0.237700
C851	C85	0.619200	0.977000	0.206900
C861	C86	0.551500	0.973280	0.205900
C871	C87	0.523000	0.917400	0.195200
H571	H57	0.546610	0.881100	0.189490
C881	C88	0.458700	0.914580	0.192700
H581	H58	0.439120	0.876120	0.184700
C891	C89	0.423830	0.966410	0.201800
C901	C90	0.451820	0.023920	0.211500
C911	C91	0.516430	0.027400	0.215900
C921	C92	0.544400	0.084560	0.228700
C931	C93	0.509300	0.137000	0.235000
H591	H59	0.528660	0.175580	0.243290
C941	C94	0.445700	0.133570	0.229200
H601	H60	0.421940	0.169930	0.232750
C951	C95	0.417020	0.077810	0.218400
C961	C96	0.348700	0.075300	0.216400
C971	C97	0.355600	0.962400	0.201800
C981	C98	0.254700	0.011900	0.216600
H611	H61	0.239570	0.054580	0.226750
C991	C99	0.223700	0.989900	0.131100
H621	H62	0.224270	0.022580	0.085470
H631	H63	0.181230	0.978750	0.144740
H641	H64	0.245460	0.954010	0.107450
C1001	C100	0.240900	0.976940	0.304100
Cd31	Cd3	0.795100	0.049310	0.979190
N131	N13	0.772900	0.150820	0.956500
N141	N14	0.698010	0.443000	0.780900
C1011	C101	0.816100	0.189400	0.923800
H651	H65	0.857530	0.176240	0.923160
C1021	C102	0.802300	0.246700	0.891500
H661	H66	0.834120	0.272430	0.869320
C1031	C103	0.742300	0.267300	0.891100
C1041	C104	0.698600	0.227520	0.928300
H671	H67	0.656940	0.239950	0.932180
C1051	C105	0.715600	0.171010	0.958900
H681	H68	0.684890	0.144830	0.983020
C1061	C106	0.749270	0.413010	0.757000
H691	H69	0.776110	0.432010	0.714800
C1071	C107	0.765020	0.356390	0.790300
H701	H70	0.801780	0.336880	0.771540
C1081	C108	0.725400	0.327880	0.853000
C1091	C109	0.671990	0.358500	0.876800
H711	H71	0.643970	0.340680	0.918460
C1101	C110	0.660090	0.415290	0.839200
H721	H72	0.623210	0.435580	0.855500
Cd41	Cd4	0.704900	0.549310	0.770810
N151	N15	0.727100	0.650820	0.793500
N161	N16	0.801990	0.943000	0.969100
C1111	C111	0.683900	0.689400	0.826200
H731	H73	0.642470	0.676240	0.826840
C1121	C112	0.697700	0.746700	0.858500
H741	H74	0.665880	0.772430	0.880680
C1131	C113	0.757700	0.767300	0.858900
C1141	C114	0.801400	0.727520	0.821700
H751	H75	0.843060	0.739950	0.817820
C1151	C115	0.784400	0.671010	0.791100
H761	H76	0.815110	0.644830	0.766980
C1161	C116	0.750730	0.913010	0.993000
H771	H77	0.723890	0.932010	0.035200
C1171	C117	0.734980	0.856390	0.959700
H781	H78	0.698220	0.836880	0.978460
C1181	C118	0.774600	0.827880	0.897000
C1191	C119	0.828010	0.858500	0.873200
H791	H79	0.856030	0.840680	0.831540
C1201	C120	0.839910	0.915290	0.910800
H801	H80	0.876790	0.935580	0.894500
O331	O33	0.047910	0.705710	0.922550
O341	O34	0.039950	0.797390	0.859700
O351	O35	0.137020	0.637900	0.749800
O361	O36	0.934770	0.652050	0.813200
O371	O37	0.120400	0.317310	0.776100
O381	O38	0.913390	0.328720	0.802500
O391	O39	0.975950	0.279770	0.634500
O401	O40	0.957490	0.186470	0.686600
N171	N17	0.032980	0.644740	0.765000
N181	N18	0.017080	0.323030	0.793200
C1211	C121	0.041460	0.739700	0.854700
C1221	C122	0.038400	0.712300	0.760000
H811	H81	0.078630	0.721120	0.730400
C1231	C123	0.988800	0.742300	0.699700
H821	H82	0.994770	0.786730	0.699070
H831	H83	0.992120	0.726310	0.637670
H841	H84	0.948200	0.732740	0.724170
C1241	C124	0.088500	0.612000	0.762300
C1251	C125	0.977000	0.619200	0.793100
C1261	C126	0.973280	0.551500	0.794100
C1271	C127	0.917400	0.523000	0.804800
H851	H85	0.881100	0.546610	0.810510
C1281	C128	0.914580	0.458700	0.807300
H861	H86	0.876120	0.439120	0.815300
C1291	C129	0.966410	0.423830	0.798200
C1301	C130	0.023920	0.451820	0.788500
C1311	C131	0.027400	0.516430	0.784100
C1321	C132	0.084560	0.544400	0.771300
C1331	C133	0.137000	0.509300	0.765000
H871	H87	0.175580	0.528660	0.756710
C1341	C134	0.133570	0.445700	0.770800
H881	H88	0.169930	0.421940	0.767250
C1351	C135	0.077810	0.417020	0.781600
C1361	C136	0.075300	0.348700	0.783600
C1371	C137	0.962400	0.355600	0.798200
C1381	C138	0.011900	0.254700	0.783400
H891	H89	0.054580	0.239570	0.773250
C1391	C139	0.989900	0.223700	0.868900
H901	H90	0.022580	0.224270	0.914530
H911	H91	0.978750	0.181230	0.855260
H921	H92	0.954010	0.245460	0.892550
C1401	C140	0.976940	0.240900	0.695900
O411	O41	0.547910	0.794290	0.327450
O421	O42	0.539950	0.702610	0.390300
O431	O43	0.637020	0.862100	0.500200
O441	O44	0.434770	0.847950	0.436800
O451	O45	0.620400	0.182690	0.473900
O461	O46	0.413390	0.171280	0.447500
O471	O47	0.475950	0.220230	0.615500
O481	O48	0.457490	0.313530	0.563400
N191	N19	0.532980	0.855260	0.485000
N201	N20	0.517080	0.176970	0.456800
C1411	C141	0.541460	0.760300	0.395300
C1421	C142	0.538400	0.787700	0.490000
H931	H93	0.578630	0.778880	0.519600
C1431	C143	0.488800	0.757700	0.550300
H941	H94	0.494770	0.713270	0.550930
H951	H95	0.492120	0.773690	0.612330
H961	H96	0.448200	0.767260	0.525830
C1441	C144	0.588500	0.888000	0.487700
C1451	C145	0.477000	0.880800	0.456900
C1461	C146	0.473280	0.948500	0.455900
C1471	C147	0.417400	0.977000	0.445200
H971	H97	0.381100	0.953390	0.439490
C1481	C148	0.414580	0.041300	0.442700
H981	H98	0.376120	0.060880	0.434700
C1491	C149	0.466410	0.076170	0.451800
C1501	C150	0.523920	0.048180	0.461500
C1511	C151	0.527400	0.983570	0.465900
C1521	C152	0.584560	0.955600	0.478700
C1531	C153	0.637000	0.990700	0.485000
H991	H99	0.675580	0.971340	0.493290
C1541	C154	0.633570	0.054300	0.479200
H1001	H100	0.669930	0.078060	0.482750
C1551	C155	0.577810	0.082980	0.468400
C1561	C156	0.575300	0.151300	0.466400
C1571	C157	0.462400	0.144400	0.451800
C1581	C158	0.511900	0.245300	0.466600
H1011	H101	0.554580	0.260430	0.476750
C1591	C159	0.489900	0.276300	0.381100
H1021	H102	0.522580	0.275730	0.335470
H1031	H103	0.478750	0.318770	0.394740
H1041	H104	0.454010	0.254540	0.357450
C1601	C160	0.476940	0.259100	0.554100
Cd51	Cd5	0.549310	0.704900	0.229190
N211	N21	0.650820	0.727100	0.206500
N221	N22	0.943000	0.801990	0.030900
C1611	C161	0.689400	0.683900	0.173800
H1051	H105	0.676240	0.642470	0.173160
C1621	C162	0.746700	0.697700	0.141500
H1061	H106	0.772430	0.665880	0.119320
C1631	C163	0.767300	0.757700	0.141100
C1641	C164	0.727520	0.801400	0.178300
H1071	H107	0.739950	0.843060	0.182180
C1651	C165	0.671010	0.784400	0.208900
H1081	H108	0.644830	0.815110	0.233020
C1661	C166	0.913010	0.750730	0.007000
H1091	H109	0.932010	0.723890	0.964800
C1671	C167	0.856390	0.734980	0.040300
H1101	H110	0.836880	0.698220	0.021540
C1681	C168	0.827880	0.774600	0.103000
C1691	C169	0.858500	0.828010	0.126800
H1111	H111	0.840680	0.856030	0.168460
C1701	C170	0.915290	0.839910	0.089200
H1121	H112	0.935580	0.876790	0.105500
Cd61	Cd6	0.049310	0.795100	0.020810
N231	N23	0.150820	0.772900	0.043500
N241	N24	0.443000	0.698010	0.219100
C1711	C171	0.189400	0.816100	0.076200
H1131	H113	0.176240	0.857530	0.076840
C1721	C172	0.246700	0.802300	0.108500
H1141	H114	0.272430	0.834120	0.130680
C1731	C173	0.267300	0.742300	0.108900
C1741	C174	0.227520	0.698600	0.071700
H1151	H115	0.239950	0.656940	0.067820
C1751	C175	0.171010	0.715600	0.041100
H1161	H116	0.144830	0.684890	0.016980
C1761	C176	0.413010	0.749270	0.243000
H1171	H117	0.432010	0.776110	0.285200
C1771	C177	0.356390	0.765020	0.209700
H1181	H118	0.336880	0.801780	0.228460
C1781	C178	0.327880	0.725400	0.147000
C1791	C179	0.358500	0.671990	0.123200
H1191	H119	0.340680	0.643970	0.081540
C1801	C180	0.415290	0.660090	0.160800
H1201	H120	0.435580	0.623210	0.144500
O491	O49	0.952090	0.294290	0.422550
O501	O50	0.960050	0.202610	0.359700
O511	O51	0.862980	0.362100	0.249800
O521	O52	0.065230	0.347950	0.313200
O531	O53	0.879600	0.682690	0.276100
O541	O54	0.086610	0.671280	0.302500
O551	O55	0.024050	0.720230	0.134500
O561	O56	0.042510	0.813530	0.186600
N251	N25	0.967020	0.355260	0.265000
N261	N26	0.982920	0.676970	0.293200
C1811	C181	0.958540	0.260300	0.354700
C1821	C182	0.961600	0.287700	0.260000
H1211	H121	0.921370	0.278880	0.230400
C1831	C183	0.011200	0.257700	0.199700
H1221	H122	0.005230	0.213270	0.199070
H1231	H123	0.007880	0.273690	0.137670
H1241	H124	0.051800	0.267260	0.224170
C1841	C184	0.911500	0.388000	0.262300
C1851	C185	0.023000	0.380800	0.293100
C1861	C186	0.026720	0.448500	0.294100
C1871	C187	0.082600	0.477000	0.304800
H1251	H125	0.118900	0.453390	0.310510
C1881	C188	0.085420	0.541300	0.307300
H1261	H126	0.123880	0.560880	0.315300
C1891	C189	0.033590	0.576170	0.298200
C1901	C190	0.976080	0.548180	0.288500
C1911	C191	0.972600	0.483570	0.284100
C1921	C192	0.915440	0.455600	0.271300
C1931	C193	0.863000	0.490700	0.265000
H1271	H127	0.824420	0.471340	0.256710
C1941	C194	0.866430	0.554300	0.270800
H1281	H128	0.830070	0.578060	0.267250
C1951	C195	0.922190	0.582980	0.281600
C1961	C196	0.924700	0.651300	0.283600
C1971	C197	0.037600	0.644400	0.298200
C1981	C198	0.988100	0.745300	0.283400
H1291	H129	0.945420	0.760430	0.273250
C1991	C199	0.010100	0.776300	0.368900
H1301	H130	0.977420	0.775730	0.414530
H1311	H131	0.021250	0.818770	0.355260
H1321	H132	0.045990	0.754540	0.392550
C2001	C200	0.023060	0.759100	0.195900
O571	O57	0.452090	0.205710	0.827450
O581	O58	0.460050	0.297390	0.890300
O591	O59	0.362980	0.137900	0.000200
O601	O60	0.565230	0.152050	0.936800
O611	O61	0.379600	0.817310	0.973900
O621	O62	0.586610	0.828720	0.947500
O631	O63	0.524050	0.779770	0.115500
O641	O64	0.542510	0.686470	0.063400
N271	N27	0.467020	0.144740	0.985000
N281	N28	0.482920	0.823030	0.956800
C2011	C201	0.458540	0.239700	0.895300
C2021	C202	0.461600	0.212300	0.990000
H1331	H133	0.421370	0.221120	0.019600
C2031	C203	0.511200	0.242300	0.050300
H1341	H134	0.505230	0.286730	0.050930
H1351	H135	0.507880	0.226310	0.112330
H1361	H136	0.551800	0.232740	0.025830
C2041	C204	0.411500	0.112000	0.987700
C2051	C205	0.523000	0.119200	0.956900
C2061	C206	0.526720	0.051500	0.955900
C2071	C207	0.582600	0.023000	0.945200
H1371	H137	0.618900	0.046610	0.939490
C2081	C208	0.585420	0.958700	0.942700
H1381	H138	0.623880	0.939120	0.934700
C2091	C209	0.533590	0.923830	0.951800
C2101	C210	0.476080	0.951820	0.961500
C2111	C211	0.472600	0.016430	0.965900
C2121	C212	0.415440	0.044400	0.978700
C2131	C213	0.363000	0.009300	0.985000
H1391	H139	0.324420	0.028660	0.993290
C2141	C214	0.366430	0.945700	0.979200
H1401	H140	0.330070	0.921940	0.982750
C2151	C215	0.422190	0.917020	0.968400
C2161	C216	0.424700	0.848700	0.966400
C2171	C217	0.537600	0.855600	0.951800
C2181	C218	0.488100	0.754700	0.966600
H1411	H141	0.445420	0.739570	0.976750
C2191	C219	0.510100	0.723700	0.881100
H1421	H142	0.477420	0.724270	0.835470
H1431	H143	0.521250	0.681230	0.894740
H1441	H144	0.545990	0.745460	0.857450
C2201	C220	0.523060	0.740900	0.054100
Cd71	Cd7	0.450690	0.295100	0.729190
N291	N29	0.349180	0.272900	0.706500
N301	N30	0.057000	0.198010	0.530900
C2211	C221	0.310600	0.316100	0.673800
H1451	H145	0.323760	0.357530	0.673160
C2221	C222	0.253300	0.302300	0.641500
H1461	H146	0.227570	0.334120	0.619320
C2231	C223	0.232700	0.242300	0.641100
C2241	C224	0.272480	0.198600	0.678300
H1471	H147	0.260050	0.156940	0.682180
C2251	C225	0.328990	0.215600	0.708900
H1481	H148	0.355170	0.184890	0.733020
C2261	C226	0.086990	0.249270	0.507000
H1491	H149	0.067990	0.276110	0.464800
C2271	C227	0.143610	0.265020	0.540300
H1501	H150	0.163120	0.301780	0.521540
C2281	C228	0.172120	0.225400	0.603000
C2291	C229	0.141500	0.171990	0.626800
H1511	H151	0.159320	0.143970	0.668460
C2301	C230	0.084710	0.160090	0.589200
H1521	H152	0.064420	0.123210	0.605500
Cd81	Cd8	0.950690	0.204900	0.520810
N311	N31	0.849180	0.227100	0.543500
N321	N32	0.557000	0.301990	0.719100
C2311	C231	0.810600	0.183900	0.576200
H1531	H153	0.823760	0.142470	0.576840
C2321	C232	0.753300	0.197700	0.608500
H1541	H154	0.727570	0.165880	0.630680
C2331	C233	0.732700	0.257700	0.608900
C2341	C234	0.772480	0.301400	0.571700
H1551	H155	0.760050	0.343060	0.567820
C2351	C235	0.828990	0.284400	0.541100
H1561	H156	0.855170	0.315110	0.516980
C2361	C236	0.586990	0.250730	0.743000
H1571	H157	0.567990	0.223890	0.785200
C2371	C237	0.643610	0.234980	0.709700
H1581	H158	0.663120	0.198220	0.728460
C2381	C238	0.672120	0.274600	0.647000
C2391	C239	0.641500	0.328010	0.623200
H1591	H159	0.659320	0.356030	0.581540
C2401	C240	0.584710	0.339910	0.660800
H1601	H160	0.564420	0.376790	0.644500
