data_WARWOC_clean_PM
_symmetry_space_group_name_H-M	'P1'
_cell_length_a	7.429600
_cell_length_b	11.627000
_cell_length_c	14.076100
_cell_angle_alpha	114.394000
_cell_angle_beta	98.772300
_cell_angle_gamma	90.000000
_symmetry_Int_Tables_number 1

loop_
_symmetry_equiv_pos_as_xyz
'x,y,z'

loop_
_atom_site_label
_atom_site_type_symbol
_atom_site_fract_x
_atom_site_fract_y
_atom_site_fract_z
Sr11	Sr1	0.438470	0.158410	0.889460
Sr21	Sr2	0.061530	0.268950	0.110540
Sr31	Sr3	0.561530	0.841590	0.110540
Sr41	Sr4	0.938470	0.731050	0.889460
H11	H1	0.704000	0.110100	0.040200
H21	H2	0.924300	0.289900	0.630400
H31	H3	0.955300	0.219200	0.454800
H41	H4	0.317000	0.109700	0.609600
H51	H5	0.651000	0.963200	0.565800
H61	H6	0.103100	0.850200	0.723000
H71	H7	0.936700	0.914300	0.687000
H81	H8	0.796000	0.069900	0.959800
H91	H9	0.575700	0.659500	0.369600
H101	H10	0.544700	0.764400	0.545200
H111	H11	0.183000	0.500100	0.390400
H121	H12	0.849000	0.397400	0.434200
H131	H13	0.396900	0.127200	0.277000
H141	H14	0.563300	0.227300	0.313000
H151	H15	0.296000	0.889900	0.959800
H161	H16	0.075700	0.710100	0.369600
H171	H17	0.044700	0.780800	0.545200
H181	H18	0.683000	0.890300	0.390400
H191	H19	0.349000	0.036800	0.434200
H201	H20	0.896900	0.149800	0.277000
H211	H21	0.063300	0.085700	0.313000
H221	H22	0.204000	0.930100	0.040200
H231	H23	0.424300	0.340500	0.630400
H241	H24	0.455300	0.235600	0.454800
H251	H25	0.817000	0.499900	0.609600
H261	H26	0.151000	0.602600	0.565800
H271	H27	0.603100	0.872800	0.723000
H281	H28	0.436700	0.772700	0.687000
C11	C1	0.760500	0.182350	0.730700
C21	C2	0.781900	0.134790	0.616580
C31	C3	0.874100	0.210030	0.582060
C41	C4	0.892600	0.168040	0.476880
C51	C5	0.182900	0.950980	0.595360
C61	C6	0.270500	0.028670	0.561740
C71	C7	0.711600	0.015180	0.543560
C81	C8	0.054600	0.930910	0.732420
C91	C9	0.030400	0.002260	0.845920
C101	C10	0.739500	0.451650	0.269300
C111	C11	0.718100	0.518210	0.383420
C121	C12	0.625900	0.627970	0.417940
C131	C13	0.607400	0.691160	0.523120
C141	C14	0.317100	0.355620	0.404640
C151	C15	0.229500	0.466930	0.438260
C161	C16	0.788400	0.471620	0.456440
C171	C17	0.445400	0.198490	0.267580
C181	C18	0.469600	0.156340	0.154080
C191	C19	0.239500	0.817650	0.269300
C201	C20	0.218100	0.865210	0.383420
C211	C21	0.125900	0.789970	0.417940
C221	C22	0.107400	0.831960	0.523120
C231	C23	0.817100	0.049020	0.404640
C241	C24	0.729500	0.971330	0.438260
C251	C25	0.288400	0.984820	0.456440
C261	C26	0.945400	0.069090	0.267580
C271	C27	0.969600	0.997740	0.154080
C281	C28	0.260500	0.548350	0.730700
C291	C29	0.281900	0.481790	0.616580
C301	C30	0.374100	0.372030	0.582060
C311	C31	0.392600	0.308840	0.476880
C321	C32	0.682900	0.644380	0.595360
C331	C33	0.770500	0.533070	0.561740
C341	C34	0.211600	0.528380	0.543560
C351	C35	0.554600	0.801510	0.732420
C361	C36	0.530400	0.843660	0.845920
O11	O1	0.652400	0.123090	0.756820
O21	O2	0.859300	0.281730	0.793540
O31	O3	0.174900	0.000030	0.701980
O41	O4	0.107100	0.109900	0.902820
O51	O5	0.924600	0.942200	0.874520
O61	O6	0.847600	0.366270	0.243180
O71	O7	0.640700	0.488190	0.206460
O81	O8	0.325100	0.298050	0.298020
O91	O9	0.392900	0.207080	0.097180
O101	O10	0.575400	0.067680	0.125480
O111	O11	0.347600	0.876910	0.243180
O121	O12	0.140700	0.718270	0.206460
O131	O13	0.825100	0.999970	0.298020
O141	O14	0.892900	0.890100	0.097180
O151	O15	0.075400	0.057800	0.125480
O161	O16	0.152400	0.633730	0.756820
O171	O17	0.359300	0.511810	0.793540
O181	O18	0.674900	0.701950	0.701980
O191	O19	0.607100	0.792920	0.902820
O201	O20	0.424600	0.932320	0.874520
O211	O21	0.750000	0.134600	0.000000
O221	O22	0.250000	0.865400	0.000000
