data_WASMIP01_clean_PM
_symmetry_space_group_name_H-M	'P1'
_cell_length_a	8.375500
_cell_length_b	16.254900
_cell_length_c	17.074800
_cell_angle_alpha	90.000000
_cell_angle_beta	101.168000
_cell_angle_gamma	90.000000
_symmetry_Int_Tables_number 1

loop_
_symmetry_equiv_pos_as_xyz
'x,y,z'

loop_
_atom_site_label
_atom_site_type_symbol
_atom_site_fract_x
_atom_site_fract_y
_atom_site_fract_z
C11	C1	0.793500	0.882000	0.135600
H11	H1	0.892800	0.897000	0.123200
C21	C2	0.657100	0.928700	0.107000
H21	H2	0.666200	0.974900	0.076100
C31	C3	0.508700	0.908000	0.123600
C41	C4	0.499000	0.837500	0.167100
H31	H3	0.399800	0.819800	0.177800
C51	C5	0.640400	0.793600	0.194500
H41	H4	0.633400	0.746100	0.224000
C61	C6	0.363400	0.959700	0.095500
C71	C7	0.351000	0.040700	0.109700
C81	C8	0.482600	0.095800	0.151800
C91	C9	0.519900	0.167500	0.118100
H51	H5	0.455900	0.186500	0.070900
C101	C10	0.654100	0.211300	0.155200
H61	H6	0.679000	0.260100	0.131700
C111	C11	0.709600	0.119200	0.257700
H71	H7	0.773700	0.102300	0.305700
C121	C12	0.576400	0.072900	0.225000
H81	H8	0.549000	0.026600	0.251600
C131	C13	0.074400	0.000200	0.022300
Fe11	Fe1	0.014800	0.750260	0.230960
N11	N1	0.785800	0.815600	0.180900
N21	N2	0.750600	0.187400	0.223300
N31	N3	0.142700	0.866700	0.243900
C141	C14	0.179400	0.931600	0.267100
C151	C15	0.163900	0.069200	0.284000
N41	N4	0.111800	0.134500	0.278100
N51	N5	0.973500	0.768900	0.348800
C161	C16	0.981900	0.790000	0.411400
C171	C17	0.028100	0.790900	0.550000
N61	N6	0.051500	0.770400	0.611900
N71	N7	0.070000	0.823300	0.483300
N81	N8	0.245000	0.000800	0.295800
S11	S1	0.164080	0.087990	0.072180
S21	S2	0.194430	0.910900	0.038570
N91	N9	0.937000	0.818800	0.476800
C181	C18	0.206500	0.382000	0.364400
H91	H9	0.107200	0.397000	0.376800
C191	C19	0.342900	0.428700	0.393000
H101	H10	0.333800	0.474900	0.423900
C201	C20	0.491300	0.408000	0.376400
C211	C21	0.501000	0.337500	0.332900
H111	H11	0.600200	0.319800	0.322200
C221	C22	0.359600	0.293600	0.305500
H121	H12	0.366600	0.246100	0.276000
C231	C23	0.636600	0.459700	0.404500
C241	C24	0.649000	0.540700	0.390300
C251	C25	0.517400	0.595800	0.348200
C261	C26	0.480100	0.667500	0.381900
H131	H13	0.544100	0.686500	0.429100
C271	C27	0.345900	0.711300	0.344800
H141	H14	0.321000	0.760100	0.368300
C281	C28	0.290400	0.619200	0.242300
H151	H15	0.226300	0.602300	0.194300
C291	C29	0.423600	0.572900	0.275000
H161	H16	0.451000	0.526600	0.248400
C301	C30	0.925600	0.500200	0.477700
Fe21	Fe2	0.985200	0.250260	0.269040
N101	N10	0.214200	0.315600	0.319100
N111	N11	0.249400	0.687400	0.276700
N121	N12	0.857300	0.366700	0.256100
C311	C31	0.820600	0.431600	0.232900
C321	C32	0.836100	0.569200	0.216000
N131	N13	0.888200	0.634500	0.221900
N141	N14	0.026500	0.268900	0.151200
C331	C33	0.018100	0.290000	0.088600
C341	C34	0.971900	0.290900	0.950000
N151	N15	0.948500	0.270400	0.888100
N161	N16	0.930000	0.323300	0.016700
N171	N17	0.755000	0.500800	0.204200
S31	S3	0.835920	0.587990	0.427820
S41	S4	0.805570	0.410900	0.461430
N181	N18	0.063000	0.318800	0.023200
C351	C35	0.206500	0.118000	0.864400
H171	H17	0.107200	0.103000	0.876800
C361	C36	0.342900	0.071300	0.893000
H181	H18	0.333800	0.025100	0.923900
C371	C37	0.491300	0.092000	0.876400
C381	C38	0.501000	0.162500	0.832900
H191	H19	0.600200	0.180200	0.822200
C391	C39	0.359600	0.206400	0.805500
H201	H20	0.366600	0.253900	0.776000
C401	C40	0.636600	0.040300	0.904500
C411	C41	0.649000	0.959300	0.890300
C421	C42	0.517400	0.904200	0.848200
C431	C43	0.480100	0.832500	0.881900
H211	H21	0.544100	0.813500	0.929100
C441	C44	0.345900	0.788700	0.844800
H221	H22	0.321000	0.739900	0.868300
C451	C45	0.290400	0.880800	0.742300
H231	H23	0.226300	0.897700	0.694300
C461	C46	0.423600	0.927100	0.775000
H241	H24	0.451000	0.973400	0.748400
C471	C47	0.925600	0.999800	0.977700
Fe31	Fe3	0.985200	0.249740	0.769040
N191	N19	0.214200	0.184400	0.819100
N201	N20	0.249400	0.812600	0.776700
N211	N21	0.857300	0.133300	0.756100
C481	C48	0.820600	0.068400	0.732900
C491	C49	0.836100	0.930800	0.716000
N221	N22	0.888200	0.865500	0.721900
N231	N23	0.026500	0.231100	0.651200
C501	C50	0.018100	0.210000	0.588600
C511	C51	0.971900	0.209100	0.450000
N241	N24	0.948500	0.229600	0.388100
N251	N25	0.930000	0.176700	0.516700
N261	N26	0.755000	0.999200	0.704200
S51	S5	0.835920	0.912010	0.927820
S61	S6	0.805570	0.089100	0.961430
N271	N27	0.063000	0.181200	0.523200
C521	C52	0.793500	0.618000	0.635600
H251	H25	0.892800	0.603000	0.623200
C531	C53	0.657100	0.571300	0.607000
H261	H26	0.666200	0.525100	0.576100
C541	C54	0.508700	0.592000	0.623600
C551	C55	0.499000	0.662500	0.667100
H271	H27	0.399800	0.680200	0.677800
C561	C56	0.640400	0.706400	0.694500
H281	H28	0.633400	0.753900	0.724000
C571	C57	0.363400	0.540300	0.595500
C581	C58	0.351000	0.459300	0.609700
C591	C59	0.482600	0.404200	0.651800
C601	C60	0.519900	0.332500	0.618100
H291	H29	0.455900	0.313500	0.570900
C611	C61	0.654100	0.288700	0.655200
H301	H30	0.679000	0.239900	0.631700
C621	C62	0.709600	0.380800	0.757700
H311	H31	0.773700	0.397700	0.805700
C631	C63	0.576400	0.427100	0.725000
H321	H32	0.549000	0.473400	0.751600
C641	C64	0.074400	0.499800	0.522300
Fe41	Fe4	0.014800	0.749740	0.730960
N281	N28	0.785800	0.684400	0.680900
N291	N29	0.750600	0.312600	0.723300
N301	N30	0.142700	0.633300	0.743900
C651	C65	0.179400	0.568400	0.767100
C661	C66	0.163900	0.430800	0.784000
N311	N31	0.111800	0.365500	0.778100
N321	N32	0.973500	0.731100	0.848800
C671	C67	0.981900	0.710000	0.911400
C681	C68	0.028100	0.709100	0.050000
N331	N33	0.051500	0.729600	0.111900
N341	N34	0.070000	0.676700	0.983300
N351	N35	0.245000	0.499200	0.795800
S71	S7	0.164080	0.412010	0.572180
S81	S8	0.194430	0.589100	0.538570
N361	N36	0.937000	0.681200	0.976800
