data_WASMIP_clean_PM
_symmetry_space_group_name_H-M	'P1'
_cell_length_a	8.293600
_cell_length_b	16.253900
_cell_length_c	17.007300
_cell_angle_alpha	90.000000
_cell_angle_beta	100.023000
_cell_angle_gamma	90.000000
_symmetry_Int_Tables_number 1

loop_
_symmetry_equiv_pos_as_xyz
'x,y,z'

loop_
_atom_site_label
_atom_site_type_symbol
_atom_site_fract_x
_atom_site_fract_y
_atom_site_fract_z
C11	C1	0.795900	0.884300	0.137800
H11	H1	0.896900	0.899800	0.125900
C21	C2	0.661200	0.931000	0.108400
H21	H2	0.671800	0.977300	0.077600
C31	C3	0.510800	0.909300	0.124800
C41	C4	0.499000	0.838200	0.167800
H31	H3	0.397600	0.819900	0.176900
C51	C5	0.639600	0.794500	0.197100
H41	H4	0.631200	0.747700	0.227600
C61	C6	0.364000	0.961500	0.096800
C71	C7	0.349300	0.042300	0.109800
C81	C8	0.481600	0.096900	0.151800
C91	C9	0.518900	0.169300	0.116100
H51	H5	0.455900	0.187200	0.068600
C101	C10	0.654100	0.214700	0.153400
H61	H6	0.678700	0.263800	0.130000
C111	C11	0.706900	0.122800	0.256800
H71	H7	0.768800	0.107400	0.305600
C121	C12	0.573300	0.074100	0.223600
H81	H8	0.547000	0.027100	0.249800
C131	C13	0.072800	0.000500	0.023600
Fe11	Fe1	0.016560	0.753110	0.233040
N11	N1	0.788700	0.817100	0.183100
N21	N2	0.748700	0.191000	0.220700
N31	N3	0.143000	0.870000	0.246200
C141	C14	0.182500	0.933600	0.269700
C151	C15	0.165700	0.073200	0.285700
N41	N4	0.111500	0.137600	0.276200
N51	N5	0.970200	0.771600	0.350600
C161	C16	0.981100	0.793100	0.414200
C171	C17	0.029300	0.791800	0.551500
N61	N6	0.058700	0.767200	0.614200
N71	N7	0.047000	0.832000	0.484600
N81	N8	0.243500	0.003600	0.299600
S11	S1	0.161700	0.088920	0.071510
S21	S2	0.195040	0.911270	0.040030
N91	N9	0.934000	0.817300	0.482900
C181	C18	0.204100	0.384300	0.362200
H91	H9	0.103100	0.399800	0.374100
C191	C19	0.338800	0.431000	0.391600
H101	H10	0.328200	0.477300	0.422400
C201	C20	0.489200	0.409300	0.375200
C211	C21	0.501000	0.338200	0.332200
H111	H11	0.602400	0.319900	0.323100
C221	C22	0.360400	0.294500	0.302900
H121	H12	0.368800	0.247700	0.272400
C231	C23	0.636000	0.461500	0.403200
C241	C24	0.650700	0.542300	0.390200
C251	C25	0.518400	0.596900	0.348200
C261	C26	0.481100	0.669300	0.383900
H131	H13	0.544100	0.687200	0.431400
C271	C27	0.345900	0.714700	0.346600
H141	H14	0.321300	0.763800	0.370000
C281	C28	0.293100	0.622800	0.243200
H151	H15	0.231200	0.607400	0.194400
C291	C29	0.426700	0.574100	0.276400
H161	H16	0.453000	0.527100	0.250200
C301	C30	0.927200	0.500500	0.476400
Fe21	Fe2	0.983440	0.253110	0.266960
N101	N10	0.211300	0.317100	0.316900
N111	N11	0.251300	0.691000	0.279300
N121	N12	0.857000	0.370000	0.253800
C311	C31	0.817500	0.433600	0.230300
C321	C32	0.834300	0.573200	0.214300
N131	N13	0.888500	0.637600	0.223800
N141	N14	0.029800	0.271600	0.149400
C331	C33	0.018900	0.293100	0.085800
C341	C34	0.970700	0.291800	0.948500
N151	N15	0.941300	0.267200	0.885800
N161	N16	0.953000	0.332000	0.015400
N171	N17	0.756500	0.503600	0.200400
S31	S3	0.838300	0.588920	0.428490
S41	S4	0.804960	0.411270	0.459970
N181	N18	0.066000	0.317300	0.017100
C351	C35	0.204100	0.115700	0.862200
H171	H17	0.103100	0.100200	0.874100
C361	C36	0.338800	0.069000	0.891600
H181	H18	0.328200	0.022700	0.922400
C371	C37	0.489200	0.090700	0.875200
C381	C38	0.501000	0.161800	0.832200
H191	H19	0.602400	0.180100	0.823100
C391	C39	0.360400	0.205500	0.802900
H201	H20	0.368800	0.252300	0.772400
C401	C40	0.636000	0.038500	0.903200
C411	C41	0.650700	0.957700	0.890200
C421	C42	0.518400	0.903100	0.848200
C431	C43	0.481100	0.830700	0.883900
H211	H21	0.544100	0.812800	0.931400
C441	C44	0.345900	0.785300	0.846600
H221	H22	0.321300	0.736200	0.870000
C451	C45	0.293100	0.877200	0.743200
H231	H23	0.231200	0.892600	0.694400
C461	C46	0.426700	0.925900	0.776400
H241	H24	0.453000	0.972900	0.750200
C471	C47	0.927200	0.999500	0.976400
Fe31	Fe3	0.983440	0.246890	0.766960
N191	N19	0.211300	0.182900	0.816900
N201	N20	0.251300	0.809000	0.779300
N211	N21	0.857000	0.130000	0.753800
C481	C48	0.817500	0.066400	0.730300
C491	C49	0.834300	0.926800	0.714300
N221	N22	0.888500	0.862400	0.723800
N231	N23	0.029800	0.228400	0.649400
C501	C50	0.018900	0.206900	0.585800
C511	C51	0.970700	0.208200	0.448500
N241	N24	0.941300	0.232800	0.385800
N251	N25	0.953000	0.168000	0.515400
N261	N26	0.756500	0.996400	0.700400
S51	S5	0.838300	0.911080	0.928490
S61	S6	0.804960	0.088730	0.959970
N271	N27	0.066000	0.182700	0.517100
C521	C52	0.795900	0.615700	0.637800
H251	H25	0.896900	0.600200	0.625900
C531	C53	0.661200	0.569000	0.608400
H261	H26	0.671800	0.522700	0.577600
C541	C54	0.510800	0.590700	0.624800
C551	C55	0.499000	0.661800	0.667800
H271	H27	0.397600	0.680100	0.676900
C561	C56	0.639600	0.705500	0.697100
H281	H28	0.631200	0.752300	0.727600
C571	C57	0.364000	0.538500	0.596800
C581	C58	0.349300	0.457700	0.609800
C591	C59	0.481600	0.403100	0.651800
C601	C60	0.518900	0.330700	0.616100
H291	H29	0.455900	0.312800	0.568600
C611	C61	0.654100	0.285300	0.653400
H301	H30	0.678700	0.236200	0.630000
C621	C62	0.706900	0.377200	0.756800
H311	H31	0.768800	0.392600	0.805600
C631	C63	0.573300	0.425900	0.723600
H321	H32	0.547000	0.472900	0.749800
C641	C64	0.072800	0.499500	0.523600
Fe41	Fe4	0.016560	0.746890	0.733040
N281	N28	0.788700	0.682900	0.683100
N291	N29	0.748700	0.309000	0.720700
N301	N30	0.143000	0.630000	0.746200
C651	C65	0.182500	0.566400	0.769700
C661	C66	0.165700	0.426800	0.785700
N311	N31	0.111500	0.362400	0.776200
N321	N32	0.970200	0.728400	0.850600
C671	C67	0.981100	0.706900	0.914200
C681	C68	0.029300	0.708200	0.051500
N331	N33	0.058700	0.732800	0.114200
N341	N34	0.047000	0.668000	0.984600
N351	N35	0.243500	0.496400	0.799600
S71	S7	0.161700	0.411080	0.571510
S81	S8	0.195040	0.588730	0.540030
N361	N36	0.934000	0.682700	0.982900
