data_WASQIT_clean_PM
_symmetry_space_group_name_H-M	'P1'
_cell_length_a	38.332300
_cell_length_b	15.184800
_cell_length_c	32.194500
_cell_angle_alpha	90.000000
_cell_angle_beta	91.655300
_cell_angle_gamma	90.000000
_symmetry_Int_Tables_number 1

loop_
_symmetry_equiv_pos_as_xyz
'x,y,z'

loop_
_atom_site_label
_atom_site_type_symbol
_atom_site_fract_x
_atom_site_fract_y
_atom_site_fract_z
In11	In1	0.785900	0.040240	0.801230
O11	O1	0.742700	0.061100	0.752760
O21	O2	0.758070	0.925700	0.768000
O31	O3	0.314930	0.641700	0.763910
O41	O4	0.328980	0.504100	0.757370
O51	O5	0.744680	0.978200	0.347050
O61	O6	0.758830	0.841800	0.334240
O71	O7	0.312910	0.571500	0.338460
O81	O8	0.329250	0.434400	0.348400
C11	C1	0.738820	0.979100	0.748190
C21	C2	0.710500	0.943900	0.719810
C31	C3	0.687480	0.003000	0.699610
H11	H1	0.690400	0.063400	0.702900
C41	C4	0.660090	0.969800	0.674500
H21	H2	0.644800	0.008700	0.661100
C51	C5	0.655470	0.880100	0.669500
C61	C6	0.679230	0.822000	0.688440
H31	H3	0.677000	0.761700	0.684000
C71	C7	0.706300	0.854100	0.714030
H41	H4	0.721600	0.815000	0.727300
C81	C8	0.625820	0.846000	0.644190
C91	C9	0.611640	0.891100	0.610700
H51	H5	0.621100	0.945300	0.603700
C101	C10	0.583780	0.858700	0.587030
H61	H6	0.575000	0.890800	0.564500
C111	C11	0.568800	0.777500	0.597050
C121	C12	0.582100	0.732300	0.631400
H71	H7	0.571600	0.679900	0.639300
C131	C13	0.610280	0.763200	0.653850
H81	H8	0.619500	0.729900	0.675800
C141	C14	0.538370	0.740400	0.572470
C151	C15	0.507890	0.716900	0.598010
C161	C16	0.492700	0.778700	0.622800
H91	H9	0.501400	0.835900	0.623200
C171	C17	0.465130	0.758100	0.646800
H101	H10	0.455500	0.801900	0.663100
C181	C18	0.451090	0.675200	0.647730
C191	C19	0.468110	0.612900	0.625500
H111	H11	0.461700	0.554200	0.628200
C201	C20	0.494370	0.633900	0.599400
H121	H12	0.503200	0.590600	0.582200
C211	C21	0.420610	0.652500	0.673550
C221	C22	0.399780	0.715700	0.690400
H131	H13	0.404500	0.774700	0.685200
C231	C23	0.371730	0.694100	0.715200
H141	H14	0.358300	0.738600	0.726400
C241	C24	0.363930	0.608300	0.723040
C251	C25	0.384700	0.543800	0.706800
H151	H15	0.380400	0.484900	0.712900
C261	C26	0.412200	0.566000	0.681100
H161	H16	0.425000	0.521500	0.668800
C271	C27	0.333880	0.584700	0.749400
C281	C28	0.538590	0.728500	0.531110
C291	C29	0.569460	0.748600	0.505540
C301	C30	0.566480	0.813200	0.474920
H171	H17	0.545200	0.841400	0.470000
C311	C31	0.595130	0.835900	0.451710
H181	H18	0.593000	0.881700	0.432700
C321	C32	0.626630	0.792500	0.456030
C331	C33	0.629220	0.725800	0.485950
H191	H19	0.650000	0.694700	0.489200
C341	C34	0.601240	0.704800	0.511060
H201	H20	0.603800	0.661700	0.531400
C351	C35	0.656950	0.817800	0.430900
C361	C36	0.662770	0.904600	0.421400
H211	H21	0.647600	0.946800	0.431500
C371	C37	0.690360	0.932400	0.397500
H221	H22	0.694200	0.991900	0.392700
C381	C38	0.712030	0.868200	0.380900
C391	C39	0.707090	0.781800	0.390220
H231	H23	0.722000	0.739600	0.379600
C401	C40	0.679740	0.755100	0.415650
H241	H24	0.676900	0.695900	0.422200
C411	C41	0.740170	0.896500	0.352590
C421	C42	0.507450	0.697800	0.506550
C431	C43	0.475260	0.739500	0.508490
H251	H25	0.472600	0.786900	0.526400
C441	C44	0.447310	0.711500	0.484060
H261	H26	0.426400	0.742300	0.485000
C451	C45	0.449460	0.638500	0.458100
C461	C46	0.481840	0.596100	0.456300
H271	H27	0.484400	0.547700	0.439000
C471	C47	0.510040	0.625800	0.480020
H281	H28	0.531300	0.596800	0.478200
C481	C48	0.418870	0.605500	0.432280
C491	C49	0.395040	0.664900	0.415480
H291	H29	0.398000	0.724800	0.420300
C501	C50	0.366780	0.635600	0.391470
H301	H30	0.350800	0.676000	0.380400
C511	C51	0.362150	0.548500	0.383930
C521	C52	0.385430	0.486500	0.401570
H311	H31	0.381900	0.426600	0.397400
C531	C53	0.414160	0.516800	0.425590
H321	H32	0.430100	0.476700	0.437000
C541	C54	0.332930	0.516200	0.355530
In21	In2	0.285900	0.540240	0.801230
O91	O9	0.242700	0.561100	0.752760
O101	O10	0.258070	0.425700	0.768000
O111	O11	0.814930	0.141700	0.763910
O121	O12	0.828980	0.004100	0.757370
O131	O13	0.244680	0.478200	0.347050
O141	O14	0.258830	0.341800	0.334240
O151	O15	0.812910	0.071500	0.338460
O161	O16	0.829250	0.934400	0.348400
C551	C55	0.238820	0.479100	0.748190
C561	C56	0.210500	0.443900	0.719810
C571	C57	0.187480	0.503000	0.699610
H331	H33	0.190400	0.563400	0.702900
C581	C58	0.160090	0.469800	0.674500
H341	H34	0.144800	0.508700	0.661100
C591	C59	0.155470	0.380100	0.669500
C601	C60	0.179230	0.322000	0.688440
H351	H35	0.177000	0.261700	0.684000
C611	C61	0.206300	0.354100	0.714030
H361	H36	0.221600	0.315000	0.727300
C621	C62	0.125820	0.346000	0.644190
C631	C63	0.111640	0.391100	0.610700
H371	H37	0.121100	0.445300	0.603700
C641	C64	0.083780	0.358700	0.587030
H381	H38	0.075000	0.390800	0.564500
C651	C65	0.068800	0.277500	0.597050
C661	C66	0.082100	0.232300	0.631400
H391	H39	0.071600	0.179900	0.639300
C671	C67	0.110280	0.263200	0.653850
H401	H40	0.119500	0.229900	0.675800
C681	C68	0.038370	0.240400	0.572470
C691	C69	0.007890	0.216900	0.598010
C701	C70	0.992700	0.278700	0.622800
H411	H41	0.001400	0.335900	0.623200
C711	C71	0.965130	0.258100	0.646800
H421	H42	0.955500	0.301900	0.663100
C721	C72	0.951090	0.175200	0.647730
C731	C73	0.968110	0.112900	0.625500
H431	H43	0.961700	0.054200	0.628200
C741	C74	0.994370	0.133900	0.599400
H441	H44	0.003200	0.090600	0.582200
C751	C75	0.920610	0.152500	0.673550
C761	C76	0.899780	0.215700	0.690400
H451	H45	0.904500	0.274700	0.685200
C771	C77	0.871730	0.194100	0.715200
H461	H46	0.858300	0.238600	0.726400
C781	C78	0.863930	0.108300	0.723040
C791	C79	0.884700	0.043800	0.706800
H471	H47	0.880400	0.984900	0.712900
C801	C80	0.912200	0.066000	0.681100
H481	H48	0.925000	0.021500	0.668800
C811	C81	0.833880	0.084700	0.749400
C821	C82	0.038590	0.228500	0.531110
C831	C83	0.069460	0.248600	0.505540
C841	C84	0.066480	0.313200	0.474920
H491	H49	0.045200	0.341400	0.470000
C851	C85	0.095130	0.335900	0.451710
H501	H50	0.093000	0.381700	0.432700
C861	C86	0.126630	0.292500	0.456030
C871	C87	0.129220	0.225800	0.485950
H511	H51	0.150000	0.194700	0.489200
C881	C88	0.101240	0.204800	0.511060
H521	H52	0.103800	0.161700	0.531400
C891	C89	0.156950	0.317800	0.430900
C901	C90	0.162770	0.404600	0.421400
H531	H53	0.147600	0.446800	0.431500
C911	C91	0.190360	0.432400	0.397500
H541	H54	0.194200	0.491900	0.392700
C921	C92	0.212030	0.368200	0.380900
C931	C93	0.207090	0.281800	0.390220
H551	H55	0.222000	0.239600	0.379600
C941	C94	0.179740	0.255100	0.415650
H561	H56	0.176900	0.195900	0.422200
C951	C95	0.240170	0.396500	0.352590
C961	C96	0.007450	0.197800	0.506550
C971	C97	0.975260	0.239500	0.508490
H571	H57	0.972600	0.286900	0.526400
C981	C98	0.947310	0.211500	0.484060
H581	H58	0.926400	0.242300	0.485000
C991	C99	0.949460	0.138500	0.458100
C1001	C100	0.981840	0.096100	0.456300
H591	H59	0.984400	0.047700	0.439000
C1011	C101	0.010040	0.125800	0.480020
H601	H60	0.031300	0.096800	0.478200
C1021	C102	0.918870	0.105500	0.432280
C1031	C103	0.895040	0.164900	0.415480
H611	H61	0.898000	0.224800	0.420300
C1041	C104	0.866780	0.135600	0.391470
H621	H62	0.850800	0.176000	0.380400
C1051	C105	0.862150	0.048500	0.383930
C1061	C106	0.885430	0.986500	0.401570
H631	H63	0.881900	0.926600	0.397400
C1071	C107	0.914160	0.016800	0.425590
H641	H64	0.930100	0.976700	0.437000
C1081	C108	0.832930	0.016200	0.355530
In31	In3	0.785900	0.959760	0.301230
O171	O17	0.742700	0.938900	0.252760
O181	O18	0.758070	0.074300	0.268000
O191	O19	0.314930	0.358300	0.263910
O201	O20	0.328980	0.495900	0.257370
O211	O21	0.744680	0.021800	0.847050
O221	O22	0.758830	0.158200	0.834240
O231	O23	0.312910	0.428500	0.838460
O241	O24	0.329250	0.565600	0.848400
C1091	C109	0.738820	0.020900	0.248190
C1101	C110	0.710500	0.056100	0.219810
C1111	C111	0.687480	0.997000	0.199610
H651	H65	0.690400	0.936600	0.202900
C1121	C112	0.660090	0.030200	0.174500
H661	H66	0.644800	0.991300	0.161100
C1131	C113	0.655470	0.119900	0.169500
C1141	C114	0.679230	0.178000	0.188440
H671	H67	0.677000	0.238300	0.184000
C1151	C115	0.706300	0.145900	0.214030
H681	H68	0.721600	0.185000	0.227300
C1161	C116	0.625820	0.154000	0.144190
C1171	C117	0.611640	0.108900	0.110700
H691	H69	0.621100	0.054700	0.103700
C1181	C118	0.583780	0.141300	0.087030
H701	H70	0.575000	0.109200	0.064500
C1191	C119	0.568800	0.222500	0.097050
C1201	C120	0.582100	0.267700	0.131400
H711	H71	0.571600	0.320100	0.139300
C1211	C121	0.610280	0.236800	0.153850
H721	H72	0.619500	0.270100	0.175800
C1221	C122	0.538370	0.259600	0.072470
C1231	C123	0.507890	0.283100	0.098010
C1241	C124	0.492700	0.221300	0.122800
H731	H73	0.501400	0.164100	0.123200
C1251	C125	0.465130	0.241900	0.146800
H741	H74	0.455500	0.198100	0.163100
C1261	C126	0.451090	0.324800	0.147730
C1271	C127	0.468110	0.387100	0.125500
H751	H75	0.461700	0.445800	0.128200
C1281	C128	0.494370	0.366100	0.099400
H761	H76	0.503200	0.409400	0.082200
C1291	C129	0.420610	0.347500	0.173550
C1301	C130	0.399780	0.284300	0.190400
H771	H77	0.404500	0.225300	0.185200
C1311	C131	0.371730	0.305900	0.215200
H781	H78	0.358300	0.261400	0.226400
C1321	C132	0.363930	0.391700	0.223040
C1331	C133	0.384700	0.456200	0.206800
H791	H79	0.380400	0.515100	0.212900
C1341	C134	0.412200	0.434000	0.181100
H801	H80	0.425000	0.478500	0.168800
C1351	C135	0.333880	0.415300	0.249400
C1361	C136	0.538590	0.271500	0.031110
C1371	C137	0.569460	0.251400	0.005540
C1381	C138	0.566480	0.186800	0.974920
H811	H81	0.545200	0.158600	0.970000
C1391	C139	0.595130	0.164100	0.951710
H821	H82	0.593000	0.118300	0.932700
C1401	C140	0.626630	0.207500	0.956030
C1411	C141	0.629220	0.274200	0.985950
H831	H83	0.650000	0.305300	0.989200
C1421	C142	0.601240	0.295200	0.011060
H841	H84	0.603800	0.338300	0.031400
C1431	C143	0.656950	0.182200	0.930900
C1441	C144	0.662770	0.095400	0.921400
H851	H85	0.647600	0.053200	0.931500
C1451	C145	0.690360	0.067600	0.897500
H861	H86	0.694200	0.008100	0.892700
C1461	C146	0.712030	0.131800	0.880900
C1471	C147	0.707090	0.218200	0.890220
H871	H87	0.722000	0.260400	0.879600
C1481	C148	0.679740	0.244900	0.915650
H881	H88	0.676900	0.304100	0.922200
C1491	C149	0.740170	0.103500	0.852590
C1501	C150	0.507450	0.302200	0.006550
C1511	C151	0.475260	0.260500	0.008490
H891	H89	0.472600	0.213100	0.026400
C1521	C152	0.447310	0.288500	0.984060
H901	H90	0.426400	0.257700	0.985000
C1531	C153	0.449460	0.361500	0.958100
C1541	C154	0.481840	0.403900	0.956300
H911	H91	0.484400	0.452300	0.939000
C1551	C155	0.510040	0.374200	0.980020
H921	H92	0.531300	0.403200	0.978200
C1561	C156	0.418870	0.394500	0.932280
C1571	C157	0.395040	0.335100	0.915480
H931	H93	0.398000	0.275200	0.920300
C1581	C158	0.366780	0.364400	0.891470
H941	H94	0.350800	0.324000	0.880400
C1591	C159	0.362150	0.451500	0.883930
C1601	C160	0.385430	0.513500	0.901570
H951	H95	0.381900	0.573400	0.897400
C1611	C161	0.414160	0.483200	0.925590
H961	H96	0.430100	0.523300	0.937000
C1621	C162	0.332930	0.483800	0.855530
In41	In4	0.285900	0.459760	0.301230
O251	O25	0.242700	0.438900	0.252760
O261	O26	0.258070	0.574300	0.268000
O271	O27	0.814930	0.858300	0.263910
O281	O28	0.828980	0.995900	0.257370
O291	O29	0.244680	0.521800	0.847050
O301	O30	0.258830	0.658200	0.834240
O311	O31	0.812910	0.928500	0.838460
O321	O32	0.829250	0.065600	0.848400
C1631	C163	0.238820	0.520900	0.248190
C1641	C164	0.210500	0.556100	0.219810
C1651	C165	0.187480	0.497000	0.199610
H971	H97	0.190400	0.436600	0.202900
C1661	C166	0.160090	0.530200	0.174500
H981	H98	0.144800	0.491300	0.161100
C1671	C167	0.155470	0.619900	0.169500
C1681	C168	0.179230	0.678000	0.188440
H991	H99	0.177000	0.738300	0.184000
C1691	C169	0.206300	0.645900	0.214030
H1001	H100	0.221600	0.685000	0.227300
C1701	C170	0.125820	0.654000	0.144190
C1711	C171	0.111640	0.608900	0.110700
H1011	H101	0.121100	0.554700	0.103700
C1721	C172	0.083780	0.641300	0.087030
H1021	H102	0.075000	0.609200	0.064500
C1731	C173	0.068800	0.722500	0.097050
C1741	C174	0.082100	0.767700	0.131400
H1031	H103	0.071600	0.820100	0.139300
C1751	C175	0.110280	0.736800	0.153850
H1041	H104	0.119500	0.770100	0.175800
C1761	C176	0.038370	0.759600	0.072470
C1771	C177	0.007890	0.783100	0.098010
C1781	C178	0.992700	0.721300	0.122800
H1051	H105	0.001400	0.664100	0.123200
C1791	C179	0.965130	0.741900	0.146800
H1061	H106	0.955500	0.698100	0.163100
C1801	C180	0.951090	0.824800	0.147730
C1811	C181	0.968110	0.887100	0.125500
H1071	H107	0.961700	0.945800	0.128200
C1821	C182	0.994370	0.866100	0.099400
H1081	H108	0.003200	0.909400	0.082200
C1831	C183	0.920610	0.847500	0.173550
C1841	C184	0.899780	0.784300	0.190400
H1091	H109	0.904500	0.725300	0.185200
C1851	C185	0.871730	0.805900	0.215200
H1101	H110	0.858300	0.761400	0.226400
C1861	C186	0.863930	0.891700	0.223040
C1871	C187	0.884700	0.956200	0.206800
H1111	H111	0.880400	0.015100	0.212900
C1881	C188	0.912200	0.934000	0.181100
H1121	H112	0.925000	0.978500	0.168800
C1891	C189	0.833880	0.915300	0.249400
C1901	C190	0.038590	0.771500	0.031110
C1911	C191	0.069460	0.751400	0.005540
C1921	C192	0.066480	0.686800	0.974920
H1131	H113	0.045200	0.658600	0.970000
C1931	C193	0.095130	0.664100	0.951710
H1141	H114	0.093000	0.618300	0.932700
C1941	C194	0.126630	0.707500	0.956030
C1951	C195	0.129220	0.774200	0.985950
H1151	H115	0.150000	0.805300	0.989200
C1961	C196	0.101240	0.795200	0.011060
H1161	H116	0.103800	0.838300	0.031400
C1971	C197	0.156950	0.682200	0.930900
C1981	C198	0.162770	0.595400	0.921400
H1171	H117	0.147600	0.553200	0.931500
C1991	C199	0.190360	0.567600	0.897500
H1181	H118	0.194200	0.508100	0.892700
C2001	C200	0.212030	0.631800	0.880900
C2011	C201	0.207090	0.718200	0.890220
H1191	H119	0.222000	0.760400	0.879600
C2021	C202	0.179740	0.744900	0.915650
H1201	H120	0.176900	0.804100	0.922200
C2031	C203	0.240170	0.603500	0.852590
C2041	C204	0.007450	0.802200	0.006550
C2051	C205	0.975260	0.760500	0.008490
H1211	H121	0.972600	0.713100	0.026400
C2061	C206	0.947310	0.788500	0.984060
H1221	H122	0.926400	0.757700	0.985000
C2071	C207	0.949460	0.861500	0.958100
C2081	C208	0.981840	0.903900	0.956300
H1231	H123	0.984400	0.952300	0.939000
C2091	C209	0.010040	0.874200	0.980020
H1241	H124	0.031300	0.903200	0.978200
C2101	C210	0.918870	0.894500	0.932280
C2111	C211	0.895040	0.835100	0.915480
H1251	H125	0.898000	0.775200	0.920300
C2121	C212	0.866780	0.864400	0.891470
H1261	H126	0.850800	0.824000	0.880400
C2131	C213	0.862150	0.951500	0.883930
C2141	C214	0.885430	0.013500	0.901570
H1271	H127	0.881900	0.073400	0.897400
C2151	C215	0.914160	0.983200	0.925590
H1281	H128	0.930100	0.023300	0.937000
C2161	C216	0.832930	0.983800	0.855530
In51	In5	0.214100	0.040240	0.698770
O331	O33	0.257300	0.061100	0.747240
O341	O34	0.241930	0.925700	0.732000
O351	O35	0.685070	0.641700	0.736090
O361	O36	0.671020	0.504100	0.742630
O371	O37	0.255320	0.978200	0.152950
O381	O38	0.241170	0.841800	0.165760
O391	O39	0.687090	0.571500	0.161540
O401	O40	0.670750	0.434400	0.151600
C2171	C217	0.261180	0.979100	0.751810
C2181	C218	0.289500	0.943900	0.780190
C2191	C219	0.312520	0.003000	0.800390
H1291	H129	0.309600	0.063400	0.797100
C2201	C220	0.339910	0.969800	0.825500
H1301	H130	0.355200	0.008700	0.838900
C2211	C221	0.344530	0.880100	0.830500
C2221	C222	0.320770	0.822000	0.811560
H1311	H131	0.323000	0.761700	0.816000
C2231	C223	0.293700	0.854100	0.785970
H1321	H132	0.278400	0.815000	0.772700
C2241	C224	0.374180	0.846000	0.855810
C2251	C225	0.388360	0.891100	0.889300
H1331	H133	0.378900	0.945300	0.896300
C2261	C226	0.416220	0.858700	0.912970
H1341	H134	0.425000	0.890800	0.935500
C2271	C227	0.431200	0.777500	0.902950
C2281	C228	0.417900	0.732300	0.868600
H1351	H135	0.428400	0.679900	0.860700
C2291	C229	0.389720	0.763200	0.846150
H1361	H136	0.380500	0.729900	0.824200
C2301	C230	0.461630	0.740400	0.927530
C2311	C231	0.492110	0.716900	0.901990
C2321	C232	0.507300	0.778700	0.877200
H1371	H137	0.498600	0.835900	0.876800
C2331	C233	0.534870	0.758100	0.853200
H1381	H138	0.544500	0.801900	0.836900
C2341	C234	0.548910	0.675200	0.852270
C2351	C235	0.531890	0.612900	0.874500
H1391	H139	0.538300	0.554200	0.871800
C2361	C236	0.505630	0.633900	0.900600
H1401	H140	0.496800	0.590600	0.917800
C2371	C237	0.579390	0.652500	0.826450
C2381	C238	0.600220	0.715700	0.809600
H1411	H141	0.595500	0.774700	0.814800
C2391	C239	0.628270	0.694100	0.784800
H1421	H142	0.641700	0.738600	0.773600
C2401	C240	0.636070	0.608300	0.776960
C2411	C241	0.615300	0.543800	0.793200
H1431	H143	0.619600	0.484900	0.787100
C2421	C242	0.587800	0.566000	0.818900
H1441	H144	0.575000	0.521500	0.831200
C2431	C243	0.666120	0.584700	0.750600
C2441	C244	0.461410	0.728500	0.968890
C2451	C245	0.430540	0.748600	0.994460
C2461	C246	0.433520	0.813200	0.025080
H1451	H145	0.454800	0.841400	0.030000
C2471	C247	0.404870	0.835900	0.048290
H1461	H146	0.407000	0.881700	0.067300
C2481	C248	0.373370	0.792500	0.043970
C2491	C249	0.370780	0.725800	0.014050
H1471	H147	0.350000	0.694700	0.010800
C2501	C250	0.398760	0.704800	0.988940
H1481	H148	0.396200	0.661700	0.968600
C2511	C251	0.343050	0.817800	0.069100
C2521	C252	0.337230	0.904600	0.078600
H1491	H149	0.352400	0.946800	0.068500
C2531	C253	0.309640	0.932400	0.102500
H1501	H150	0.305800	0.991900	0.107300
C2541	C254	0.287970	0.868200	0.119100
C2551	C255	0.292910	0.781800	0.109780
H1511	H151	0.278000	0.739600	0.120400
C2561	C256	0.320260	0.755100	0.084350
H1521	H152	0.323100	0.695900	0.077800
C2571	C257	0.259830	0.896500	0.147410
C2581	C258	0.492550	0.697800	0.993450
C2591	C259	0.524740	0.739500	0.991510
H1531	H153	0.527400	0.786900	0.973600
C2601	C260	0.552690	0.711500	0.015940
H1541	H154	0.573600	0.742300	0.015000
C2611	C261	0.550540	0.638500	0.041900
C2621	C262	0.518160	0.596100	0.043700
H1551	H155	0.515600	0.547700	0.061000
C2631	C263	0.489960	0.625800	0.019980
H1561	H156	0.468700	0.596800	0.021800
C2641	C264	0.581130	0.605500	0.067720
C2651	C265	0.604960	0.664900	0.084520
H1571	H157	0.602000	0.724800	0.079700
C2661	C266	0.633220	0.635600	0.108530
H1581	H158	0.649200	0.676000	0.119600
C2671	C267	0.637850	0.548500	0.116070
C2681	C268	0.614570	0.486500	0.098430
H1591	H159	0.618100	0.426600	0.102600
C2691	C269	0.585840	0.516800	0.074410
H1601	H160	0.569900	0.476700	0.063000
C2701	C270	0.667070	0.516200	0.144470
In61	In6	0.714100	0.540240	0.698770
O411	O41	0.757300	0.561100	0.747240
O421	O42	0.741930	0.425700	0.732000
O431	O43	0.185070	0.141700	0.736090
O441	O44	0.171020	0.004100	0.742630
O451	O45	0.755320	0.478200	0.152950
O461	O46	0.741170	0.341800	0.165760
O471	O47	0.187090	0.071500	0.161540
O481	O48	0.170750	0.934400	0.151600
C2711	C271	0.761180	0.479100	0.751810
C2721	C272	0.789500	0.443900	0.780190
C2731	C273	0.812520	0.503000	0.800390
H1611	H161	0.809600	0.563400	0.797100
C2741	C274	0.839910	0.469800	0.825500
H1621	H162	0.855200	0.508700	0.838900
C2751	C275	0.844530	0.380100	0.830500
C2761	C276	0.820770	0.322000	0.811560
H1631	H163	0.823000	0.261700	0.816000
C2771	C277	0.793700	0.354100	0.785970
H1641	H164	0.778400	0.315000	0.772700
C2781	C278	0.874180	0.346000	0.855810
C2791	C279	0.888360	0.391100	0.889300
H1651	H165	0.878900	0.445300	0.896300
C2801	C280	0.916220	0.358700	0.912970
H1661	H166	0.925000	0.390800	0.935500
C2811	C281	0.931200	0.277500	0.902950
C2821	C282	0.917900	0.232300	0.868600
H1671	H167	0.928400	0.179900	0.860700
C2831	C283	0.889720	0.263200	0.846150
H1681	H168	0.880500	0.229900	0.824200
C2841	C284	0.961630	0.240400	0.927530
C2851	C285	0.992110	0.216900	0.901990
C2861	C286	0.007300	0.278700	0.877200
H1691	H169	0.998600	0.335900	0.876800
C2871	C287	0.034870	0.258100	0.853200
H1701	H170	0.044500	0.301900	0.836900
C2881	C288	0.048910	0.175200	0.852270
C2891	C289	0.031890	0.112900	0.874500
H1711	H171	0.038300	0.054200	0.871800
C2901	C290	0.005630	0.133900	0.900600
H1721	H172	0.996800	0.090600	0.917800
C2911	C291	0.079390	0.152500	0.826450
C2921	C292	0.100220	0.215700	0.809600
H1731	H173	0.095500	0.274700	0.814800
C2931	C293	0.128270	0.194100	0.784800
H1741	H174	0.141700	0.238600	0.773600
C2941	C294	0.136070	0.108300	0.776960
C2951	C295	0.115300	0.043800	0.793200
H1751	H175	0.119600	0.984900	0.787100
C2961	C296	0.087800	0.066000	0.818900
H1761	H176	0.075000	0.021500	0.831200
C2971	C297	0.166120	0.084700	0.750600
C2981	C298	0.961410	0.228500	0.968890
C2991	C299	0.930540	0.248600	0.994460
C3001	C300	0.933520	0.313200	0.025080
H1771	H177	0.954800	0.341400	0.030000
C3011	C301	0.904870	0.335900	0.048290
H1781	H178	0.907000	0.381700	0.067300
C3021	C302	0.873370	0.292500	0.043970
C3031	C303	0.870780	0.225800	0.014050
H1791	H179	0.850000	0.194700	0.010800
C3041	C304	0.898760	0.204800	0.988940
H1801	H180	0.896200	0.161700	0.968600
C3051	C305	0.843050	0.317800	0.069100
C3061	C306	0.837230	0.404600	0.078600
H1811	H181	0.852400	0.446800	0.068500
C3071	C307	0.809640	0.432400	0.102500
H1821	H182	0.805800	0.491900	0.107300
C3081	C308	0.787970	0.368200	0.119100
C3091	C309	0.792910	0.281800	0.109780
H1831	H183	0.778000	0.239600	0.120400
C3101	C310	0.820260	0.255100	0.084350
H1841	H184	0.823100	0.195900	0.077800
C3111	C311	0.759830	0.396500	0.147410
C3121	C312	0.992550	0.197800	0.993450
C3131	C313	0.024740	0.239500	0.991510
H1851	H185	0.027400	0.286900	0.973600
C3141	C314	0.052690	0.211500	0.015940
H1861	H186	0.073600	0.242300	0.015000
C3151	C315	0.050540	0.138500	0.041900
C3161	C316	0.018160	0.096100	0.043700
H1871	H187	0.015600	0.047700	0.061000
C3171	C317	0.989960	0.125800	0.019980
H1881	H188	0.968700	0.096800	0.021800
C3181	C318	0.081130	0.105500	0.067720
C3191	C319	0.104960	0.164900	0.084520
H1891	H189	0.102000	0.224800	0.079700
C3201	C320	0.133220	0.135600	0.108530
H1901	H190	0.149200	0.176000	0.119600
C3211	C321	0.137850	0.048500	0.116070
C3221	C322	0.114570	0.986500	0.098430
H1911	H191	0.118100	0.926600	0.102600
C3231	C323	0.085840	0.016800	0.074410
H1921	H192	0.069900	0.976700	0.063000
C3241	C324	0.167070	0.016200	0.144470
In71	In7	0.214100	0.959760	0.198770
O491	O49	0.257300	0.938900	0.247240
O501	O50	0.241930	0.074300	0.232000
O511	O51	0.685070	0.358300	0.236090
O521	O52	0.671020	0.495900	0.242630
O531	O53	0.255320	0.021800	0.652950
O541	O54	0.241170	0.158200	0.665760
O551	O55	0.687090	0.428500	0.661540
O561	O56	0.670750	0.565600	0.651600
C3251	C325	0.261180	0.020900	0.251810
C3261	C326	0.289500	0.056100	0.280190
C3271	C327	0.312520	0.997000	0.300390
H1931	H193	0.309600	0.936600	0.297100
C3281	C328	0.339910	0.030200	0.325500
H1941	H194	0.355200	0.991300	0.338900
C3291	C329	0.344530	0.119900	0.330500
C3301	C330	0.320770	0.178000	0.311560
H1951	H195	0.323000	0.238300	0.316000
C3311	C331	0.293700	0.145900	0.285970
H1961	H196	0.278400	0.185000	0.272700
C3321	C332	0.374180	0.154000	0.355810
C3331	C333	0.388360	0.108900	0.389300
H1971	H197	0.378900	0.054700	0.396300
C3341	C334	0.416220	0.141300	0.412970
H1981	H198	0.425000	0.109200	0.435500
C3351	C335	0.431200	0.222500	0.402950
C3361	C336	0.417900	0.267700	0.368600
H1991	H199	0.428400	0.320100	0.360700
C3371	C337	0.389720	0.236800	0.346150
H2001	H200	0.380500	0.270100	0.324200
C3381	C338	0.461630	0.259600	0.427530
C3391	C339	0.492110	0.283100	0.401990
C3401	C340	0.507300	0.221300	0.377200
H2011	H201	0.498600	0.164100	0.376800
C3411	C341	0.534870	0.241900	0.353200
H2021	H202	0.544500	0.198100	0.336900
C3421	C342	0.548910	0.324800	0.352270
C3431	C343	0.531890	0.387100	0.374500
H2031	H203	0.538300	0.445800	0.371800
C3441	C344	0.505630	0.366100	0.400600
H2041	H204	0.496800	0.409400	0.417800
C3451	C345	0.579390	0.347500	0.326450
C3461	C346	0.600220	0.284300	0.309600
H2051	H205	0.595500	0.225300	0.314800
C3471	C347	0.628270	0.305900	0.284800
H2061	H206	0.641700	0.261400	0.273600
C3481	C348	0.636070	0.391700	0.276960
C3491	C349	0.615300	0.456200	0.293200
H2071	H207	0.619600	0.515100	0.287100
C3501	C350	0.587800	0.434000	0.318900
H2081	H208	0.575000	0.478500	0.331200
C3511	C351	0.666120	0.415300	0.250600
C3521	C352	0.461410	0.271500	0.468890
C3531	C353	0.430540	0.251400	0.494460
C3541	C354	0.433520	0.186800	0.525080
H2091	H209	0.454800	0.158600	0.530000
C3551	C355	0.404870	0.164100	0.548290
H2101	H210	0.407000	0.118300	0.567300
C3561	C356	0.373370	0.207500	0.543970
C3571	C357	0.370780	0.274200	0.514050
H2111	H211	0.350000	0.305300	0.510800
C3581	C358	0.398760	0.295200	0.488940
H2121	H212	0.396200	0.338300	0.468600
C3591	C359	0.343050	0.182200	0.569100
C3601	C360	0.337230	0.095400	0.578600
H2131	H213	0.352400	0.053200	0.568500
C3611	C361	0.309640	0.067600	0.602500
H2141	H214	0.305800	0.008100	0.607300
C3621	C362	0.287970	0.131800	0.619100
C3631	C363	0.292910	0.218200	0.609780
H2151	H215	0.278000	0.260400	0.620400
C3641	C364	0.320260	0.244900	0.584350
H2161	H216	0.323100	0.304100	0.577800
C3651	C365	0.259830	0.103500	0.647410
C3661	C366	0.492550	0.302200	0.493450
C3671	C367	0.524740	0.260500	0.491510
H2171	H217	0.527400	0.213100	0.473600
C3681	C368	0.552690	0.288500	0.515940
H2181	H218	0.573600	0.257700	0.515000
C3691	C369	0.550540	0.361500	0.541900
C3701	C370	0.518160	0.403900	0.543700
H2191	H219	0.515600	0.452300	0.561000
C3711	C371	0.489960	0.374200	0.519980
H2201	H220	0.468700	0.403200	0.521800
C3721	C372	0.581130	0.394500	0.567720
C3731	C373	0.604960	0.335100	0.584520
H2211	H221	0.602000	0.275200	0.579700
C3741	C374	0.633220	0.364400	0.608530
H2221	H222	0.649200	0.324000	0.619600
C3751	C375	0.637850	0.451500	0.616070
C3761	C376	0.614570	0.513500	0.598430
H2231	H223	0.618100	0.573400	0.602600
C3771	C377	0.585840	0.483200	0.574410
H2241	H224	0.569900	0.523300	0.563000
C3781	C378	0.667070	0.483800	0.644470
In81	In8	0.714100	0.459760	0.198770
O571	O57	0.757300	0.438900	0.247240
O581	O58	0.741930	0.574300	0.232000
O591	O59	0.185070	0.858300	0.236090
O601	O60	0.171020	0.995900	0.242630
O611	O61	0.755320	0.521800	0.652950
O621	O62	0.741170	0.658200	0.665760
O631	O63	0.187090	0.928500	0.661540
O641	O64	0.170750	0.065600	0.651600
C3791	C379	0.761180	0.520900	0.251810
C3801	C380	0.789500	0.556100	0.280190
C3811	C381	0.812520	0.497000	0.300390
H2251	H225	0.809600	0.436600	0.297100
C3821	C382	0.839910	0.530200	0.325500
H2261	H226	0.855200	0.491300	0.338900
C3831	C383	0.844530	0.619900	0.330500
C3841	C384	0.820770	0.678000	0.311560
H2271	H227	0.823000	0.738300	0.316000
C3851	C385	0.793700	0.645900	0.285970
H2281	H228	0.778400	0.685000	0.272700
C3861	C386	0.874180	0.654000	0.355810
C3871	C387	0.888360	0.608900	0.389300
H2291	H229	0.878900	0.554700	0.396300
C3881	C388	0.916220	0.641300	0.412970
H2301	H230	0.925000	0.609200	0.435500
C3891	C389	0.931200	0.722500	0.402950
C3901	C390	0.917900	0.767700	0.368600
H2311	H231	0.928400	0.820100	0.360700
C3911	C391	0.889720	0.736800	0.346150
H2321	H232	0.880500	0.770100	0.324200
C3921	C392	0.961630	0.759600	0.427530
C3931	C393	0.992110	0.783100	0.401990
C3941	C394	0.007300	0.721300	0.377200
H2331	H233	0.998600	0.664100	0.376800
C3951	C395	0.034870	0.741900	0.353200
H2341	H234	0.044500	0.698100	0.336900
C3961	C396	0.048910	0.824800	0.352270
C3971	C397	0.031890	0.887100	0.374500
H2351	H235	0.038300	0.945800	0.371800
C3981	C398	0.005630	0.866100	0.400600
H2361	H236	0.996800	0.909400	0.417800
C3991	C399	0.079390	0.847500	0.326450
C4001	C400	0.100220	0.784300	0.309600
H2371	H237	0.095500	0.725300	0.314800
C4011	C401	0.128270	0.805900	0.284800
H2381	H238	0.141700	0.761400	0.273600
C4021	C402	0.136070	0.891700	0.276960
C4031	C403	0.115300	0.956200	0.293200
H2391	H239	0.119600	0.015100	0.287100
C4041	C404	0.087800	0.934000	0.318900
H2401	H240	0.075000	0.978500	0.331200
C4051	C405	0.166120	0.915300	0.250600
C4061	C406	0.961410	0.771500	0.468890
C4071	C407	0.930540	0.751400	0.494460
C4081	C408	0.933520	0.686800	0.525080
H2411	H241	0.954800	0.658600	0.530000
C4091	C409	0.904870	0.664100	0.548290
H2421	H242	0.907000	0.618300	0.567300
C4101	C410	0.873370	0.707500	0.543970
C4111	C411	0.870780	0.774200	0.514050
H2431	H243	0.850000	0.805300	0.510800
C4121	C412	0.898760	0.795200	0.488940
H2441	H244	0.896200	0.838300	0.468600
C4131	C413	0.843050	0.682200	0.569100
C4141	C414	0.837230	0.595400	0.578600
H2451	H245	0.852400	0.553200	0.568500
C4151	C415	0.809640	0.567600	0.602500
H2461	H246	0.805800	0.508100	0.607300
C4161	C416	0.787970	0.631800	0.619100
C4171	C417	0.792910	0.718200	0.609780
H2471	H247	0.778000	0.760400	0.620400
C4181	C418	0.820260	0.744900	0.584350
H2481	H248	0.823100	0.804100	0.577800
C4191	C419	0.759830	0.603500	0.647410
C4201	C420	0.992550	0.802200	0.493450
C4211	C421	0.024740	0.760500	0.491510
H2491	H249	0.027400	0.713100	0.473600
C4221	C422	0.052690	0.788500	0.515940
H2501	H250	0.073600	0.757700	0.515000
C4231	C423	0.050540	0.861500	0.541900
C4241	C424	0.018160	0.903900	0.543700
H2511	H251	0.015600	0.952300	0.561000
C4251	C425	0.989960	0.874200	0.519980
H2521	H252	0.968700	0.903200	0.521800
C4261	C426	0.081130	0.894500	0.567720
C4271	C427	0.104960	0.835100	0.584520
H2531	H253	0.102000	0.775200	0.579700
C4281	C428	0.133220	0.864400	0.608530
H2541	H254	0.149200	0.824000	0.619600
C4291	C429	0.137850	0.951500	0.616070
C4301	C430	0.114570	0.013500	0.598430
H2551	H255	0.118100	0.073400	0.602600
C4311	C431	0.085840	0.983200	0.574410
H2561	H256	0.069900	0.023300	0.563000
C4321	C432	0.167070	0.983800	0.644470
