data_WASQEP_clean_PM
_symmetry_space_group_name_H-M	'P1'
_cell_length_a	38.726900
_cell_length_b	14.949600
_cell_length_c	31.778900
_cell_angle_alpha	90.000000
_cell_angle_beta	90.794000
_cell_angle_gamma	90.000000
_symmetry_Int_Tables_number 1

loop_
_symmetry_equiv_pos_as_xyz
'x,y,z'

loop_
_atom_site_label
_atom_site_type_symbol
_atom_site_fract_x
_atom_site_fract_y
_atom_site_fract_z
In11	In1	0.218320	0.021870	0.200560
O11	O1	0.245230	0.900100	0.233350
O21	O2	0.261190	0.037300	0.247950
O31	O3	0.674730	0.480400	0.244780
O41	O4	0.689700	0.621100	0.240350
O51	O5	0.691160	0.592600	0.662720
O61	O6	0.675260	0.452200	0.654230
O71	O7	0.258750	0.997500	0.652820
O81	O8	0.245040	0.859600	0.667710
C11	C1	0.264540	0.956300	0.252660
C21	C2	0.293060	0.919500	0.280320
C31	C3	0.297040	0.830600	0.287000
H11	H1	0.281300	0.790700	0.275200
C41	C4	0.324760	0.797900	0.311660
H21	H2	0.327400	0.736700	0.315900
C51	C5	0.348310	0.858300	0.329720
C61	C6	0.343370	0.948000	0.324100
H31	H3	0.358600	0.988100	0.336900
C71	C7	0.316190	0.980600	0.299600
H41	H4	0.313200	0.041900	0.296000
C81	C8	0.378300	0.825000	0.356010
C91	C9	0.393370	0.745400	0.345650
H51	H5	0.384600	0.712800	0.323000
C101	C10	0.421420	0.712200	0.368240
H61	H6	0.431800	0.658700	0.360400
C111	C11	0.434470	0.761900	0.404430
C121	C12	0.417910	0.843400	0.412360
H71	H7	0.426000	0.878300	0.434600
C131	C13	0.390410	0.874200	0.389000
H81	H8	0.380100	0.928400	0.395700
C141	C14	0.464370	0.728500	0.429390
C151	C15	0.494680	0.700900	0.403910
C161	C16	0.507350	0.758700	0.373500
H91	H9	0.496600	0.813700	0.369100
C171	C17	0.535990	0.735500	0.349400
H101	H10	0.544200	0.775500	0.329600
C181	C18	0.551970	0.655100	0.354750
C191	C19	0.537240	0.593500	0.382000
H111	H11	0.546100	0.535800	0.384000
C201	C20	0.509090	0.618300	0.406300
H121	H12	0.499900	0.576800	0.424800
C211	C21	0.582590	0.630800	0.329070
C221	C22	0.604700	0.697400	0.314100
H131	H13	0.600700	0.757000	0.320800
C231	C23	0.632550	0.674500	0.289100
H141	H14	0.646300	0.719300	0.277900
C241	C24	0.639990	0.586000	0.280750
C251	C25	0.617500	0.519700	0.295600
H151	H15	0.621300	0.459900	0.289100
C261	C26	0.589820	0.543600	0.319800
H161	H16	0.575600	0.499000	0.330200
C271	C27	0.464420	0.725000	0.471470
C281	C28	0.434030	0.748000	0.496770
C291	C29	0.402400	0.701100	0.492710
H171	H17	0.400700	0.653300	0.474100
C301	C30	0.374420	0.725100	0.515800
H181	H18	0.353800	0.693500	0.512800
C311	C31	0.376550	0.798300	0.544580
C321	C32	0.407230	0.842600	0.547600
H191	H19	0.408900	0.892600	0.564900
C331	C33	0.435710	0.815600	0.525800
H201	H20	0.456700	0.843900	0.530800
C341	C34	0.346280	0.827700	0.570330
C351	C35	0.324260	0.765400	0.587590
H211	H21	0.327800	0.704900	0.582600
C361	C36	0.296510	0.792700	0.612730
H221	H22	0.281900	0.750300	0.624300
C371	C37	0.291010	0.882200	0.620120
C381	C38	0.313450	0.944900	0.601500
H231	H23	0.309900	0.005700	0.605800
C391	C39	0.340480	0.917300	0.576900
H241	H24	0.354900	0.959500	0.564700
C401	C40	0.495670	0.698300	0.496820
C411	C41	0.493340	0.634100	0.527700
H251	H25	0.472000	0.608300	0.533100
C421	C42	0.521670	0.607000	0.550800
H261	H26	0.519300	0.561100	0.570300
C431	C43	0.553840	0.646700	0.545550
C441	C44	0.555740	0.714400	0.514600
H271	H27	0.576700	0.743000	0.510200
C451	C45	0.527310	0.739100	0.490700
H281	H28	0.529400	0.783500	0.470400
C461	C46	0.584700	0.616800	0.570770
C471	C47	0.590030	0.527800	0.580250
H291	H29	0.574200	0.485600	0.570500
C481	C48	0.618370	0.499300	0.603910
H301	H30	0.621600	0.439000	0.610100
C491	C49	0.642070	0.563700	0.618310
C501	C50	0.637180	0.652200	0.607980
H311	H31	0.653300	0.694400	0.617000
C511	C51	0.609040	0.679400	0.584650
H321	H32	0.606200	0.739500	0.578100
C521	C52	0.670160	0.562500	0.253950
C531	C53	0.671440	0.534200	0.646180
C541	C54	0.263390	0.914900	0.648240
In21	In2	0.718320	0.521870	0.200560
O91	O9	0.745230	0.400100	0.233350
O101	O10	0.761190	0.537300	0.247950
O111	O11	0.174730	0.980400	0.244780
O121	O12	0.189700	0.121100	0.240350
O131	O13	0.191160	0.092600	0.662720
O141	O14	0.175260	0.952200	0.654230
O151	O15	0.758750	0.497500	0.652820
O161	O16	0.745040	0.359600	0.667710
C551	C55	0.764540	0.456300	0.252660
C561	C56	0.793060	0.419500	0.280320
C571	C57	0.797040	0.330600	0.287000
H331	H33	0.781300	0.290700	0.275200
C581	C58	0.824760	0.297900	0.311660
H341	H34	0.827400	0.236700	0.315900
C591	C59	0.848310	0.358300	0.329720
C601	C60	0.843370	0.448000	0.324100
H351	H35	0.858600	0.488100	0.336900
C611	C61	0.816190	0.480600	0.299600
H361	H36	0.813200	0.541900	0.296000
C621	C62	0.878300	0.325000	0.356010
C631	C63	0.893370	0.245400	0.345650
H371	H37	0.884600	0.212800	0.323000
C641	C64	0.921420	0.212200	0.368240
H381	H38	0.931800	0.158700	0.360400
C651	C65	0.934470	0.261900	0.404430
C661	C66	0.917910	0.343400	0.412360
H391	H39	0.926000	0.378300	0.434600
C671	C67	0.890410	0.374200	0.389000
H401	H40	0.880100	0.428400	0.395700
C681	C68	0.964370	0.228500	0.429390
C691	C69	0.994680	0.200900	0.403910
C701	C70	0.007350	0.258700	0.373500
H411	H41	0.996600	0.313700	0.369100
C711	C71	0.035990	0.235500	0.349400
H421	H42	0.044200	0.275500	0.329600
C721	C72	0.051970	0.155100	0.354750
C731	C73	0.037240	0.093500	0.382000
H431	H43	0.046100	0.035800	0.384000
C741	C74	0.009090	0.118300	0.406300
H441	H44	0.999900	0.076800	0.424800
C751	C75	0.082590	0.130800	0.329070
C761	C76	0.104700	0.197400	0.314100
H451	H45	0.100700	0.257000	0.320800
C771	C77	0.132550	0.174500	0.289100
H461	H46	0.146300	0.219300	0.277900
C781	C78	0.139990	0.086000	0.280750
C791	C79	0.117500	0.019700	0.295600
H471	H47	0.121300	0.959900	0.289100
C801	C80	0.089820	0.043600	0.319800
H481	H48	0.075600	0.999000	0.330200
C811	C81	0.964420	0.225000	0.471470
C821	C82	0.934030	0.248000	0.496770
C831	C83	0.902400	0.201100	0.492710
H491	H49	0.900700	0.153300	0.474100
C841	C84	0.874420	0.225100	0.515800
H501	H50	0.853800	0.193500	0.512800
C851	C85	0.876550	0.298300	0.544580
C861	C86	0.907230	0.342600	0.547600
H511	H51	0.908900	0.392600	0.564900
C871	C87	0.935710	0.315600	0.525800
H521	H52	0.956700	0.343900	0.530800
C881	C88	0.846280	0.327700	0.570330
C891	C89	0.824260	0.265400	0.587590
H531	H53	0.827800	0.204900	0.582600
C901	C90	0.796510	0.292700	0.612730
H541	H54	0.781900	0.250300	0.624300
C911	C91	0.791010	0.382200	0.620120
C921	C92	0.813450	0.444900	0.601500
H551	H55	0.809900	0.505700	0.605800
C931	C93	0.840480	0.417300	0.576900
H561	H56	0.854900	0.459500	0.564700
C941	C94	0.995670	0.198300	0.496820
C951	C95	0.993340	0.134100	0.527700
H571	H57	0.972000	0.108300	0.533100
C961	C96	0.021670	0.107000	0.550800
H581	H58	0.019300	0.061100	0.570300
C971	C97	0.053840	0.146700	0.545550
C981	C98	0.055740	0.214400	0.514600
H591	H59	0.076700	0.243000	0.510200
C991	C99	0.027310	0.239100	0.490700
H601	H60	0.029400	0.283500	0.470400
C1001	C100	0.084700	0.116800	0.570770
C1011	C101	0.090030	0.027800	0.580250
H611	H61	0.074200	0.985600	0.570500
C1021	C102	0.118370	0.999300	0.603910
H621	H62	0.121600	0.939000	0.610100
C1031	C103	0.142070	0.063700	0.618310
C1041	C104	0.137180	0.152200	0.607980
H631	H63	0.153300	0.194400	0.617000
C1051	C105	0.109040	0.179400	0.584650
H641	H64	0.106200	0.239500	0.578100
C1061	C106	0.170160	0.062500	0.253950
C1071	C107	0.171440	0.034200	0.646180
C1081	C108	0.763390	0.414900	0.648240
In31	In3	0.218320	0.978130	0.700560
O171	O17	0.245230	0.099900	0.733350
O181	O18	0.261190	0.962700	0.747950
O191	O19	0.674730	0.519600	0.744780
O201	O20	0.689700	0.378900	0.740350
O211	O21	0.691160	0.407400	0.162720
O221	O22	0.675260	0.547800	0.154230
O231	O23	0.258750	0.002500	0.152820
O241	O24	0.245040	0.140400	0.167710
C1091	C109	0.264540	0.043700	0.752660
C1101	C110	0.293060	0.080500	0.780320
C1111	C111	0.297040	0.169400	0.787000
H651	H65	0.281300	0.209300	0.775200
C1121	C112	0.324760	0.202100	0.811660
H661	H66	0.327400	0.263300	0.815900
C1131	C113	0.348310	0.141700	0.829720
C1141	C114	0.343370	0.052000	0.824100
H671	H67	0.358600	0.011900	0.836900
C1151	C115	0.316190	0.019400	0.799600
H681	H68	0.313200	0.958100	0.796000
C1161	C116	0.378300	0.175000	0.856010
C1171	C117	0.393370	0.254600	0.845650
H691	H69	0.384600	0.287200	0.823000
C1181	C118	0.421420	0.287800	0.868240
H701	H70	0.431800	0.341300	0.860400
C1191	C119	0.434470	0.238100	0.904430
C1201	C120	0.417910	0.156600	0.912360
H711	H71	0.426000	0.121700	0.934600
C1211	C121	0.390410	0.125800	0.889000
H721	H72	0.380100	0.071600	0.895700
C1221	C122	0.464370	0.271500	0.929390
C1231	C123	0.494680	0.299100	0.903910
C1241	C124	0.507350	0.241300	0.873500
H731	H73	0.496600	0.186300	0.869100
C1251	C125	0.535990	0.264500	0.849400
H741	H74	0.544200	0.224500	0.829600
C1261	C126	0.551970	0.344900	0.854750
C1271	C127	0.537240	0.406500	0.882000
H751	H75	0.546100	0.464200	0.884000
C1281	C128	0.509090	0.381700	0.906300
H761	H76	0.499900	0.423200	0.924800
C1291	C129	0.582590	0.369200	0.829070
C1301	C130	0.604700	0.302600	0.814100
H771	H77	0.600700	0.243000	0.820800
C1311	C131	0.632550	0.325500	0.789100
H781	H78	0.646300	0.280700	0.777900
C1321	C132	0.639990	0.414000	0.780750
C1331	C133	0.617500	0.480300	0.795600
H791	H79	0.621300	0.540100	0.789100
C1341	C134	0.589820	0.456400	0.819800
H801	H80	0.575600	0.501000	0.830200
C1351	C135	0.464420	0.275000	0.971470
C1361	C136	0.434030	0.252000	0.996770
C1371	C137	0.402400	0.298900	0.992710
H811	H81	0.400700	0.346700	0.974100
C1381	C138	0.374420	0.274900	0.015800
H821	H82	0.353800	0.306500	0.012800
C1391	C139	0.376550	0.201700	0.044580
C1401	C140	0.407230	0.157400	0.047600
H831	H83	0.408900	0.107400	0.064900
C1411	C141	0.435710	0.184400	0.025800
H841	H84	0.456700	0.156100	0.030800
C1421	C142	0.346280	0.172300	0.070330
C1431	C143	0.324260	0.234600	0.087590
H851	H85	0.327800	0.295100	0.082600
C1441	C144	0.296510	0.207300	0.112730
H861	H86	0.281900	0.249700	0.124300
C1451	C145	0.291010	0.117800	0.120120
C1461	C146	0.313450	0.055100	0.101500
H871	H87	0.309900	0.994300	0.105800
C1471	C147	0.340480	0.082700	0.076900
H881	H88	0.354900	0.040500	0.064700
C1481	C148	0.495670	0.301700	0.996820
C1491	C149	0.493340	0.365900	0.027700
H891	H89	0.472000	0.391700	0.033100
C1501	C150	0.521670	0.393000	0.050800
H901	H90	0.519300	0.438900	0.070300
C1511	C151	0.553840	0.353300	0.045550
C1521	C152	0.555740	0.285600	0.014600
H911	H91	0.576700	0.257000	0.010200
C1531	C153	0.527310	0.260900	0.990700
H921	H92	0.529400	0.216500	0.970400
C1541	C154	0.584700	0.383200	0.070770
C1551	C155	0.590030	0.472200	0.080250
H931	H93	0.574200	0.514400	0.070500
C1561	C156	0.618370	0.500700	0.103910
H941	H94	0.621600	0.561000	0.110100
C1571	C157	0.642070	0.436300	0.118310
C1581	C158	0.637180	0.347800	0.107980
H951	H95	0.653300	0.305600	0.117000
C1591	C159	0.609040	0.320600	0.084650
H961	H96	0.606200	0.260500	0.078100
C1601	C160	0.670160	0.437500	0.753950
C1611	C161	0.671440	0.465800	0.146180
C1621	C162	0.263390	0.085100	0.148240
In41	In4	0.718320	0.478130	0.700560
O251	O25	0.745230	0.599900	0.733350
O261	O26	0.761190	0.462700	0.747950
O271	O27	0.174730	0.019600	0.744780
O281	O28	0.189700	0.878900	0.740350
O291	O29	0.191160	0.907400	0.162720
O301	O30	0.175260	0.047800	0.154230
O311	O31	0.758750	0.502500	0.152820
O321	O32	0.745040	0.640400	0.167710
C1631	C163	0.764540	0.543700	0.752660
C1641	C164	0.793060	0.580500	0.780320
C1651	C165	0.797040	0.669400	0.787000
H971	H97	0.781300	0.709300	0.775200
C1661	C166	0.824760	0.702100	0.811660
H981	H98	0.827400	0.763300	0.815900
C1671	C167	0.848310	0.641700	0.829720
C1681	C168	0.843370	0.552000	0.824100
H991	H99	0.858600	0.511900	0.836900
C1691	C169	0.816190	0.519400	0.799600
H1001	H100	0.813200	0.458100	0.796000
C1701	C170	0.878300	0.675000	0.856010
C1711	C171	0.893370	0.754600	0.845650
H1011	H101	0.884600	0.787200	0.823000
C1721	C172	0.921420	0.787800	0.868240
H1021	H102	0.931800	0.841300	0.860400
C1731	C173	0.934470	0.738100	0.904430
C1741	C174	0.917910	0.656600	0.912360
H1031	H103	0.926000	0.621700	0.934600
C1751	C175	0.890410	0.625800	0.889000
H1041	H104	0.880100	0.571600	0.895700
C1761	C176	0.964370	0.771500	0.929390
C1771	C177	0.994680	0.799100	0.903910
C1781	C178	0.007350	0.741300	0.873500
H1051	H105	0.996600	0.686300	0.869100
C1791	C179	0.035990	0.764500	0.849400
H1061	H106	0.044200	0.724500	0.829600
C1801	C180	0.051970	0.844900	0.854750
C1811	C181	0.037240	0.906500	0.882000
H1071	H107	0.046100	0.964200	0.884000
C1821	C182	0.009090	0.881700	0.906300
H1081	H108	0.999900	0.923200	0.924800
C1831	C183	0.082590	0.869200	0.829070
C1841	C184	0.104700	0.802600	0.814100
H1091	H109	0.100700	0.743000	0.820800
C1851	C185	0.132550	0.825500	0.789100
H1101	H110	0.146300	0.780700	0.777900
C1861	C186	0.139990	0.914000	0.780750
C1871	C187	0.117500	0.980300	0.795600
H1111	H111	0.121300	0.040100	0.789100
C1881	C188	0.089820	0.956400	0.819800
H1121	H112	0.075600	0.001000	0.830200
C1891	C189	0.964420	0.775000	0.971470
C1901	C190	0.934030	0.752000	0.996770
C1911	C191	0.902400	0.798900	0.992710
H1131	H113	0.900700	0.846700	0.974100
C1921	C192	0.874420	0.774900	0.015800
H1141	H114	0.853800	0.806500	0.012800
C1931	C193	0.876550	0.701700	0.044580
C1941	C194	0.907230	0.657400	0.047600
H1151	H115	0.908900	0.607400	0.064900
C1951	C195	0.935710	0.684400	0.025800
H1161	H116	0.956700	0.656100	0.030800
C1961	C196	0.846280	0.672300	0.070330
C1971	C197	0.824260	0.734600	0.087590
H1171	H117	0.827800	0.795100	0.082600
C1981	C198	0.796510	0.707300	0.112730
H1181	H118	0.781900	0.749700	0.124300
C1991	C199	0.791010	0.617800	0.120120
C2001	C200	0.813450	0.555100	0.101500
H1191	H119	0.809900	0.494300	0.105800
C2011	C201	0.840480	0.582700	0.076900
H1201	H120	0.854900	0.540500	0.064700
C2021	C202	0.995670	0.801700	0.996820
C2031	C203	0.993340	0.865900	0.027700
H1211	H121	0.972000	0.891700	0.033100
C2041	C204	0.021670	0.893000	0.050800
H1221	H122	0.019300	0.938900	0.070300
C2051	C205	0.053840	0.853300	0.045550
C2061	C206	0.055740	0.785600	0.014600
H1231	H123	0.076700	0.757000	0.010200
C2071	C207	0.027310	0.760900	0.990700
H1241	H124	0.029400	0.716500	0.970400
C2081	C208	0.084700	0.883200	0.070770
C2091	C209	0.090030	0.972200	0.080250
H1251	H125	0.074200	0.014400	0.070500
C2101	C210	0.118370	0.000700	0.103910
H1261	H126	0.121600	0.061000	0.110100
C2111	C211	0.142070	0.936300	0.118310
C2121	C212	0.137180	0.847800	0.107980
H1271	H127	0.153300	0.805600	0.117000
C2131	C213	0.109040	0.820600	0.084650
H1281	H128	0.106200	0.760500	0.078100
C2141	C214	0.170160	0.937500	0.753950
C2151	C215	0.171440	0.965800	0.146180
C2161	C216	0.763390	0.585100	0.148240
In51	In5	0.781680	0.021870	0.299440
O331	O33	0.754770	0.900100	0.266650
O341	O34	0.738810	0.037300	0.252050
O351	O35	0.325270	0.480400	0.255220
O361	O36	0.310300	0.621100	0.259650
O371	O37	0.308840	0.592600	0.837280
O381	O38	0.324740	0.452200	0.845770
O391	O39	0.741250	0.997500	0.847180
O401	O40	0.754960	0.859600	0.832290
C2171	C217	0.735460	0.956300	0.247340
C2181	C218	0.706940	0.919500	0.219680
C2191	C219	0.702960	0.830600	0.213000
H1291	H129	0.718700	0.790700	0.224800
C2201	C220	0.675240	0.797900	0.188340
H1301	H130	0.672600	0.736700	0.184100
C2211	C221	0.651690	0.858300	0.170280
C2221	C222	0.656630	0.948000	0.175900
H1311	H131	0.641400	0.988100	0.163100
C2231	C223	0.683810	0.980600	0.200400
H1321	H132	0.686800	0.041900	0.204000
C2241	C224	0.621700	0.825000	0.143990
C2251	C225	0.606630	0.745400	0.154350
H1331	H133	0.615400	0.712800	0.177000
C2261	C226	0.578580	0.712200	0.131760
H1341	H134	0.568200	0.658700	0.139600
C2271	C227	0.565530	0.761900	0.095570
C2281	C228	0.582090	0.843400	0.087640
H1351	H135	0.574000	0.878300	0.065400
C2291	C229	0.609590	0.874200	0.111000
H1361	H136	0.619900	0.928400	0.104300
C2301	C230	0.535630	0.728500	0.070610
C2311	C231	0.505320	0.700900	0.096090
C2321	C232	0.492650	0.758700	0.126500
H1371	H137	0.503400	0.813700	0.130900
C2331	C233	0.464010	0.735500	0.150600
H1381	H138	0.455800	0.775500	0.170400
C2341	C234	0.448030	0.655100	0.145250
C2351	C235	0.462760	0.593500	0.118000
H1391	H139	0.453900	0.535800	0.116000
C2361	C236	0.490910	0.618300	0.093700
H1401	H140	0.500100	0.576800	0.075200
C2371	C237	0.417410	0.630800	0.170930
C2381	C238	0.395300	0.697400	0.185900
H1411	H141	0.399300	0.757000	0.179200
C2391	C239	0.367450	0.674500	0.210900
H1421	H142	0.353700	0.719300	0.222100
C2401	C240	0.360010	0.586000	0.219250
C2411	C241	0.382500	0.519700	0.204400
H1431	H143	0.378700	0.459900	0.210900
C2421	C242	0.410180	0.543600	0.180200
H1441	H144	0.424400	0.499000	0.169800
C2431	C243	0.535580	0.725000	0.028530
C2441	C244	0.565970	0.748000	0.003230
C2451	C245	0.597600	0.701100	0.007290
H1451	H145	0.599300	0.653300	0.025900
C2461	C246	0.625580	0.725100	0.984200
H1461	H146	0.646200	0.693500	0.987200
C2471	C247	0.623450	0.798300	0.955420
C2481	C248	0.592770	0.842600	0.952400
H1471	H147	0.591100	0.892600	0.935100
C2491	C249	0.564290	0.815600	0.974200
H1481	H148	0.543300	0.843900	0.969200
C2501	C250	0.653720	0.827700	0.929670
C2511	C251	0.675740	0.765400	0.912410
H1491	H149	0.672200	0.704900	0.917400
C2521	C252	0.703490	0.792700	0.887270
H1501	H150	0.718100	0.750300	0.875700
C2531	C253	0.708990	0.882200	0.879880
C2541	C254	0.686550	0.944900	0.898500
H1511	H151	0.690100	0.005700	0.894200
C2551	C255	0.659520	0.917300	0.923100
H1521	H152	0.645100	0.959500	0.935300
C2561	C256	0.504330	0.698300	0.003180
C2571	C257	0.506660	0.634100	0.972300
H1531	H153	0.528000	0.608300	0.966900
C2581	C258	0.478330	0.607000	0.949200
H1541	H154	0.480700	0.561100	0.929700
C2591	C259	0.446160	0.646700	0.954450
C2601	C260	0.444260	0.714400	0.985400
H1551	H155	0.423300	0.743000	0.989800
C2611	C261	0.472690	0.739100	0.009300
H1561	H156	0.470600	0.783500	0.029600
C2621	C262	0.415300	0.616800	0.929230
C2631	C263	0.409970	0.527800	0.919750
H1571	H157	0.425800	0.485600	0.929500
C2641	C264	0.381630	0.499300	0.896090
H1581	H158	0.378400	0.439000	0.889900
C2651	C265	0.357930	0.563700	0.881690
C2661	C266	0.362820	0.652200	0.892020
H1591	H159	0.346700	0.694400	0.883000
C2671	C267	0.390960	0.679400	0.915350
H1601	H160	0.393800	0.739500	0.921900
C2681	C268	0.329840	0.562500	0.246050
C2691	C269	0.328560	0.534200	0.853820
C2701	C270	0.736610	0.914900	0.851760
In61	In6	0.281680	0.521870	0.299440
O411	O41	0.254770	0.400100	0.266650
O421	O42	0.238810	0.537300	0.252050
O431	O43	0.825270	0.980400	0.255220
O441	O44	0.810300	0.121100	0.259650
O451	O45	0.808840	0.092600	0.837280
O461	O46	0.824740	0.952200	0.845770
O471	O47	0.241250	0.497500	0.847180
O481	O48	0.254960	0.359600	0.832290
C2711	C271	0.235460	0.456300	0.247340
C2721	C272	0.206940	0.419500	0.219680
C2731	C273	0.202960	0.330600	0.213000
H1611	H161	0.218700	0.290700	0.224800
C2741	C274	0.175240	0.297900	0.188340
H1621	H162	0.172600	0.236700	0.184100
C2751	C275	0.151690	0.358300	0.170280
C2761	C276	0.156630	0.448000	0.175900
H1631	H163	0.141400	0.488100	0.163100
C2771	C277	0.183810	0.480600	0.200400
H1641	H164	0.186800	0.541900	0.204000
C2781	C278	0.121700	0.325000	0.143990
C2791	C279	0.106630	0.245400	0.154350
H1651	H165	0.115400	0.212800	0.177000
C2801	C280	0.078580	0.212200	0.131760
H1661	H166	0.068200	0.158700	0.139600
C2811	C281	0.065530	0.261900	0.095570
C2821	C282	0.082090	0.343400	0.087640
H1671	H167	0.074000	0.378300	0.065400
C2831	C283	0.109590	0.374200	0.111000
H1681	H168	0.119900	0.428400	0.104300
C2841	C284	0.035630	0.228500	0.070610
C2851	C285	0.005320	0.200900	0.096090
C2861	C286	0.992650	0.258700	0.126500
H1691	H169	0.003400	0.313700	0.130900
C2871	C287	0.964010	0.235500	0.150600
H1701	H170	0.955800	0.275500	0.170400
C2881	C288	0.948030	0.155100	0.145250
C2891	C289	0.962760	0.093500	0.118000
H1711	H171	0.953900	0.035800	0.116000
C2901	C290	0.990910	0.118300	0.093700
H1721	H172	0.000100	0.076800	0.075200
C2911	C291	0.917410	0.130800	0.170930
C2921	C292	0.895300	0.197400	0.185900
H1731	H173	0.899300	0.257000	0.179200
C2931	C293	0.867450	0.174500	0.210900
H1741	H174	0.853700	0.219300	0.222100
C2941	C294	0.860010	0.086000	0.219250
C2951	C295	0.882500	0.019700	0.204400
H1751	H175	0.878700	0.959900	0.210900
C2961	C296	0.910180	0.043600	0.180200
H1761	H176	0.924400	0.999000	0.169800
C2971	C297	0.035580	0.225000	0.028530
C2981	C298	0.065970	0.248000	0.003230
C2991	C299	0.097600	0.201100	0.007290
H1771	H177	0.099300	0.153300	0.025900
C3001	C300	0.125580	0.225100	0.984200
H1781	H178	0.146200	0.193500	0.987200
C3011	C301	0.123450	0.298300	0.955420
C3021	C302	0.092770	0.342600	0.952400
H1791	H179	0.091100	0.392600	0.935100
C3031	C303	0.064290	0.315600	0.974200
H1801	H180	0.043300	0.343900	0.969200
C3041	C304	0.153720	0.327700	0.929670
C3051	C305	0.175740	0.265400	0.912410
H1811	H181	0.172200	0.204900	0.917400
C3061	C306	0.203490	0.292700	0.887270
H1821	H182	0.218100	0.250300	0.875700
C3071	C307	0.208990	0.382200	0.879880
C3081	C308	0.186550	0.444900	0.898500
H1831	H183	0.190100	0.505700	0.894200
C3091	C309	0.159520	0.417300	0.923100
H1841	H184	0.145100	0.459500	0.935300
C3101	C310	0.004330	0.198300	0.003180
C3111	C311	0.006660	0.134100	0.972300
H1851	H185	0.028000	0.108300	0.966900
C3121	C312	0.978330	0.107000	0.949200
H1861	H186	0.980700	0.061100	0.929700
C3131	C313	0.946160	0.146700	0.954450
C3141	C314	0.944260	0.214400	0.985400
H1871	H187	0.923300	0.243000	0.989800
C3151	C315	0.972690	0.239100	0.009300
H1881	H188	0.970600	0.283500	0.029600
C3161	C316	0.915300	0.116800	0.929230
C3171	C317	0.909970	0.027800	0.919750
H1891	H189	0.925800	0.985600	0.929500
C3181	C318	0.881630	0.999300	0.896090
H1901	H190	0.878400	0.939000	0.889900
C3191	C319	0.857930	0.063700	0.881690
C3201	C320	0.862820	0.152200	0.892020
H1911	H191	0.846700	0.194400	0.883000
C3211	C321	0.890960	0.179400	0.915350
H1921	H192	0.893800	0.239500	0.921900
C3221	C322	0.829840	0.062500	0.246050
C3231	C323	0.828560	0.034200	0.853820
C3241	C324	0.236610	0.414900	0.851760
In71	In7	0.781680	0.978130	0.799440
O491	O49	0.754770	0.099900	0.766650
O501	O50	0.738810	0.962700	0.752050
O511	O51	0.325270	0.519600	0.755220
O521	O52	0.310300	0.378900	0.759650
O531	O53	0.308840	0.407400	0.337280
O541	O54	0.324740	0.547800	0.345770
O551	O55	0.741250	0.002500	0.347180
O561	O56	0.754960	0.140400	0.332290
C3251	C325	0.735460	0.043700	0.747340
C3261	C326	0.706940	0.080500	0.719680
C3271	C327	0.702960	0.169400	0.713000
H1931	H193	0.718700	0.209300	0.724800
C3281	C328	0.675240	0.202100	0.688340
H1941	H194	0.672600	0.263300	0.684100
C3291	C329	0.651690	0.141700	0.670280
C3301	C330	0.656630	0.052000	0.675900
H1951	H195	0.641400	0.011900	0.663100
C3311	C331	0.683810	0.019400	0.700400
H1961	H196	0.686800	0.958100	0.704000
C3321	C332	0.621700	0.175000	0.643990
C3331	C333	0.606630	0.254600	0.654350
H1971	H197	0.615400	0.287200	0.677000
C3341	C334	0.578580	0.287800	0.631760
H1981	H198	0.568200	0.341300	0.639600
C3351	C335	0.565530	0.238100	0.595570
C3361	C336	0.582090	0.156600	0.587640
H1991	H199	0.574000	0.121700	0.565400
C3371	C337	0.609590	0.125800	0.611000
H2001	H200	0.619900	0.071600	0.604300
C3381	C338	0.535630	0.271500	0.570610
C3391	C339	0.505320	0.299100	0.596090
C3401	C340	0.492650	0.241300	0.626500
H2011	H201	0.503400	0.186300	0.630900
C3411	C341	0.464010	0.264500	0.650600
H2021	H202	0.455800	0.224500	0.670400
C3421	C342	0.448030	0.344900	0.645250
C3431	C343	0.462760	0.406500	0.618000
H2031	H203	0.453900	0.464200	0.616000
C3441	C344	0.490910	0.381700	0.593700
H2041	H204	0.500100	0.423200	0.575200
C3451	C345	0.417410	0.369200	0.670930
C3461	C346	0.395300	0.302600	0.685900
H2051	H205	0.399300	0.243000	0.679200
C3471	C347	0.367450	0.325500	0.710900
H2061	H206	0.353700	0.280700	0.722100
C3481	C348	0.360010	0.414000	0.719250
C3491	C349	0.382500	0.480300	0.704400
H2071	H207	0.378700	0.540100	0.710900
C3501	C350	0.410180	0.456400	0.680200
H2081	H208	0.424400	0.501000	0.669800
C3511	C351	0.535580	0.275000	0.528530
C3521	C352	0.565970	0.252000	0.503230
C3531	C353	0.597600	0.298900	0.507290
H2091	H209	0.599300	0.346700	0.525900
C3541	C354	0.625580	0.274900	0.484200
H2101	H210	0.646200	0.306500	0.487200
C3551	C355	0.623450	0.201700	0.455420
C3561	C356	0.592770	0.157400	0.452400
H2111	H211	0.591100	0.107400	0.435100
C3571	C357	0.564290	0.184400	0.474200
H2121	H212	0.543300	0.156100	0.469200
C3581	C358	0.653720	0.172300	0.429670
C3591	C359	0.675740	0.234600	0.412410
H2131	H213	0.672200	0.295100	0.417400
C3601	C360	0.703490	0.207300	0.387270
H2141	H214	0.718100	0.249700	0.375700
C3611	C361	0.708990	0.117800	0.379880
C3621	C362	0.686550	0.055100	0.398500
H2151	H215	0.690100	0.994300	0.394200
C3631	C363	0.659520	0.082700	0.423100
H2161	H216	0.645100	0.040500	0.435300
C3641	C364	0.504330	0.301700	0.503180
C3651	C365	0.506660	0.365900	0.472300
H2171	H217	0.528000	0.391700	0.466900
C3661	C366	0.478330	0.393000	0.449200
H2181	H218	0.480700	0.438900	0.429700
C3671	C367	0.446160	0.353300	0.454450
C3681	C368	0.444260	0.285600	0.485400
H2191	H219	0.423300	0.257000	0.489800
C3691	C369	0.472690	0.260900	0.509300
H2201	H220	0.470600	0.216500	0.529600
C3701	C370	0.415300	0.383200	0.429230
C3711	C371	0.409970	0.472200	0.419750
H2211	H221	0.425800	0.514400	0.429500
C3721	C372	0.381630	0.500700	0.396090
H2221	H222	0.378400	0.561000	0.389900
C3731	C373	0.357930	0.436300	0.381690
C3741	C374	0.362820	0.347800	0.392020
H2231	H223	0.346700	0.305600	0.383000
C3751	C375	0.390960	0.320600	0.415350
H2241	H224	0.393800	0.260500	0.421900
C3761	C376	0.329840	0.437500	0.746050
C3771	C377	0.328560	0.465800	0.353820
C3781	C378	0.736610	0.085100	0.351760
In81	In8	0.281680	0.478130	0.799440
O571	O57	0.254770	0.599900	0.766650
O581	O58	0.238810	0.462700	0.752050
O591	O59	0.825270	0.019600	0.755220
O601	O60	0.810300	0.878900	0.759650
O611	O61	0.808840	0.907400	0.337280
O621	O62	0.824740	0.047800	0.345770
O631	O63	0.241250	0.502500	0.347180
O641	O64	0.254960	0.640400	0.332290
C3791	C379	0.235460	0.543700	0.747340
C3801	C380	0.206940	0.580500	0.719680
C3811	C381	0.202960	0.669400	0.713000
H2251	H225	0.218700	0.709300	0.724800
C3821	C382	0.175240	0.702100	0.688340
H2261	H226	0.172600	0.763300	0.684100
C3831	C383	0.151690	0.641700	0.670280
C3841	C384	0.156630	0.552000	0.675900
H2271	H227	0.141400	0.511900	0.663100
C3851	C385	0.183810	0.519400	0.700400
H2281	H228	0.186800	0.458100	0.704000
C3861	C386	0.121700	0.675000	0.643990
C3871	C387	0.106630	0.754600	0.654350
H2291	H229	0.115400	0.787200	0.677000
C3881	C388	0.078580	0.787800	0.631760
H2301	H230	0.068200	0.841300	0.639600
C3891	C389	0.065530	0.738100	0.595570
C3901	C390	0.082090	0.656600	0.587640
H2311	H231	0.074000	0.621700	0.565400
C3911	C391	0.109590	0.625800	0.611000
H2321	H232	0.119900	0.571600	0.604300
C3921	C392	0.035630	0.771500	0.570610
C3931	C393	0.005320	0.799100	0.596090
C3941	C394	0.992650	0.741300	0.626500
H2331	H233	0.003400	0.686300	0.630900
C3951	C395	0.964010	0.764500	0.650600
H2341	H234	0.955800	0.724500	0.670400
C3961	C396	0.948030	0.844900	0.645250
C3971	C397	0.962760	0.906500	0.618000
H2351	H235	0.953900	0.964200	0.616000
C3981	C398	0.990910	0.881700	0.593700
H2361	H236	0.000100	0.923200	0.575200
C3991	C399	0.917410	0.869200	0.670930
C4001	C400	0.895300	0.802600	0.685900
H2371	H237	0.899300	0.743000	0.679200
C4011	C401	0.867450	0.825500	0.710900
H2381	H238	0.853700	0.780700	0.722100
C4021	C402	0.860010	0.914000	0.719250
C4031	C403	0.882500	0.980300	0.704400
H2391	H239	0.878700	0.040100	0.710900
C4041	C404	0.910180	0.956400	0.680200
H2401	H240	0.924400	0.001000	0.669800
C4051	C405	0.035580	0.775000	0.528530
C4061	C406	0.065970	0.752000	0.503230
C4071	C407	0.097600	0.798900	0.507290
H2411	H241	0.099300	0.846700	0.525900
C4081	C408	0.125580	0.774900	0.484200
H2421	H242	0.146200	0.806500	0.487200
C4091	C409	0.123450	0.701700	0.455420
C4101	C410	0.092770	0.657400	0.452400
H2431	H243	0.091100	0.607400	0.435100
C4111	C411	0.064290	0.684400	0.474200
H2441	H244	0.043300	0.656100	0.469200
C4121	C412	0.153720	0.672300	0.429670
C4131	C413	0.175740	0.734600	0.412410
H2451	H245	0.172200	0.795100	0.417400
C4141	C414	0.203490	0.707300	0.387270
H2461	H246	0.218100	0.749700	0.375700
C4151	C415	0.208990	0.617800	0.379880
C4161	C416	0.186550	0.555100	0.398500
H2471	H247	0.190100	0.494300	0.394200
C4171	C417	0.159520	0.582700	0.423100
H2481	H248	0.145100	0.540500	0.435300
C4181	C418	0.004330	0.801700	0.503180
C4191	C419	0.006660	0.865900	0.472300
H2491	H249	0.028000	0.891700	0.466900
C4201	C420	0.978330	0.893000	0.449200
H2501	H250	0.980700	0.938900	0.429700
C4211	C421	0.946160	0.853300	0.454450
C4221	C422	0.944260	0.785600	0.485400
H2511	H251	0.923300	0.757000	0.489800
C4231	C423	0.972690	0.760900	0.509300
H2521	H252	0.970600	0.716500	0.529600
C4241	C424	0.915300	0.883200	0.429230
C4251	C425	0.909970	0.972200	0.419750
H2531	H253	0.925800	0.014400	0.429500
C4261	C426	0.881630	0.000700	0.396090
H2541	H254	0.878400	0.061000	0.389900
C4271	C427	0.857930	0.936300	0.381690
C4281	C428	0.862820	0.847800	0.392020
H2551	H255	0.846700	0.805600	0.383000
C4291	C429	0.890960	0.820600	0.415350
H2561	H256	0.893800	0.760500	0.421900
C4301	C430	0.829840	0.937500	0.746050
C4311	C431	0.828560	0.965800	0.353820
C4321	C432	0.236610	0.585100	0.351760
