data_WASTUG_clean_PM
_symmetry_space_group_name_H-M	'P1'
_cell_length_a	12.165500
_cell_length_b	20.514400
_cell_length_c	21.701200
_cell_angle_alpha	90.000000
_cell_angle_beta	90.000000
_cell_angle_gamma	90.000000
_symmetry_Int_Tables_number 1

loop_
_symmetry_equiv_pos_as_xyz
'x,y,z'

loop_
_atom_site_label
_atom_site_type_symbol
_atom_site_fract_x
_atom_site_fract_y
_atom_site_fract_z
La11	La1	0.425870	0.809830	0.467720
La21	La2	0.997510	0.006010	0.323490
La31	La3	0.425870	0.190170	0.532280
La41	La4	0.997510	0.993990	0.676510
La51	La5	0.574130	0.690170	0.967720
La61	La6	0.002490	0.493990	0.823490
La71	La7	0.574130	0.309830	0.032280
La81	La8	0.002490	0.506010	0.176510
Mo11	Mo1	0.493580	0.004950	0.440740
Mo21	Mo2	0.283820	0.101080	0.368650
Mo31	Mo3	0.304060	0.935390	0.342070
Mo41	Mo4	0.121940	0.850850	0.405540
Mo51	Mo5	0.932230	0.062610	0.509020
Mo61	Mo6	0.138430	0.158790	0.435630
Mo71	Mo7	0.493580	0.995050	0.559260
Mo81	Mo8	0.283820	0.898920	0.631350
Mo91	Mo9	0.304060	0.064610	0.657930
Mo101	Mo10	0.121940	0.149150	0.594460
Mo111	Mo11	0.932230	0.937390	0.490980
Mo121	Mo12	0.138430	0.841210	0.564370
Mo131	Mo13	0.506420	0.495050	0.940740
Mo141	Mo14	0.716180	0.398920	0.868650
Mo151	Mo15	0.695940	0.564610	0.842070
Mo161	Mo16	0.878060	0.649150	0.905540
Mo171	Mo17	0.067770	0.437390	0.009020
Mo181	Mo18	0.861570	0.341210	0.935630
Mo191	Mo19	0.506420	0.504950	0.059260
Mo201	Mo20	0.716180	0.601080	0.131350
Mo211	Mo21	0.695940	0.435390	0.157930
Mo221	Mo22	0.878060	0.350850	0.094460
Mo231	Mo23	0.067770	0.562610	0.990980
Mo241	Mo24	0.861570	0.658790	0.064370
P11	P1	0.210500	0.000000	0.500000
P21	P2	0.789500	0.500000	0.000000
H11	H1	0.760700	0.166900	0.193100
H21	H2	0.507500	0.269700	0.263500
H31	H3	0.693300	0.158900	0.374400
H41	H4	0.760700	0.833100	0.806900
H51	H5	0.507500	0.730300	0.736500
H61	H6	0.693300	0.841100	0.625600
H71	H7	0.239300	0.333100	0.693100
H81	H8	0.492500	0.230300	0.763500
H91	H9	0.306700	0.341100	0.874400
H101	H10	0.239300	0.666900	0.306900
H111	H11	0.492500	0.769700	0.236500
H121	H12	0.306700	0.658900	0.125600
C11	C1	0.743100	0.156100	0.285300
C21	C2	0.718800	0.180200	0.226700
C31	C3	0.632800	0.224000	0.217900
C41	C4	0.567100	0.241900	0.268800
C51	C5	0.592300	0.217700	0.326500
C61	C6	0.678300	0.175000	0.335200
C71	C7	0.837900	0.111800	0.294900
C81	C8	0.605000	0.249300	0.155100
C91	C9	0.518100	0.235300	0.381900
C101	C10	0.743100	0.843900	0.714700
C111	C11	0.718800	0.819800	0.773300
C121	C12	0.632800	0.776000	0.782100
C131	C13	0.567100	0.758100	0.731200
C141	C14	0.592300	0.782300	0.673500
C151	C15	0.678300	0.825000	0.664800
C161	C16	0.837900	0.888200	0.705100
C171	C17	0.605000	0.750700	0.844900
C181	C18	0.518100	0.764700	0.618100
C191	C19	0.256900	0.343900	0.785300
C201	C20	0.281200	0.319800	0.726700
C211	C21	0.367200	0.276000	0.717900
C221	C22	0.432900	0.258100	0.768800
C231	C23	0.407700	0.282300	0.826500
C241	C24	0.321700	0.325000	0.835200
C251	C25	0.162100	0.388200	0.794900
C261	C26	0.395000	0.250700	0.655100
C271	C27	0.481900	0.264700	0.881900
C281	C28	0.256900	0.656100	0.214700
C291	C29	0.281200	0.680200	0.273300
C301	C30	0.367200	0.724000	0.282100
C311	C31	0.432900	0.741900	0.231200
C321	C32	0.407700	0.717700	0.173500
C331	C33	0.321700	0.675000	0.164800
C341	C34	0.162100	0.611800	0.205100
C351	C35	0.395000	0.749300	0.344900
C361	C36	0.481900	0.735300	0.118100
O11	O1	0.468800	0.929300	0.494700
O21	O2	0.443100	0.944900	0.372200
O31	O3	0.449700	0.079300	0.380400
O41	O4	0.284200	0.007900	0.441900
O51	O5	0.296100	0.852800	0.553100
O61	O6	0.124700	0.088400	0.374100
O71	O7	0.282200	0.019300	0.316300
O81	O8	0.142600	0.929900	0.353000
O91	O9	0.281800	0.866600	0.405200
O101	O10	0.138100	0.805800	0.477600
O111	O11	0.980700	0.880700	0.419600
O121	O12	0.135400	0.060800	0.505900
O131	O13	0.956800	0.010600	0.435100
O141	O14	0.974100	0.141000	0.454400
O151	O15	0.878300	0.105500	0.347500
O161	O16	0.869800	0.073800	0.250000
O171	O17	0.661700	0.228700	0.109500
O181	O18	0.528000	0.289700	0.148100
O191	O19	0.517600	0.195100	0.426400
O201	O20	0.464300	0.287400	0.376500
O211	O21	0.468800	0.070700	0.505300
O221	O22	0.443100	0.055100	0.627800
O231	O23	0.449700	0.920700	0.619600
O241	O24	0.284200	0.992100	0.558100
O251	O25	0.296100	0.147200	0.446900
O261	O26	0.124700	0.911600	0.625900
O271	O27	0.282200	0.980700	0.683700
O281	O28	0.142600	0.070100	0.647000
O291	O29	0.281800	0.133400	0.594800
O301	O30	0.138100	0.194200	0.522400
O311	O31	0.980700	0.119300	0.580400
O321	O32	0.135400	0.939200	0.494100
O331	O33	0.956800	0.989400	0.564900
O341	O34	0.974100	0.859000	0.545600
O351	O35	0.878300	0.894500	0.652500
O361	O36	0.869800	0.926200	0.750000
O371	O37	0.661700	0.771300	0.890500
O381	O38	0.528000	0.710300	0.851900
O391	O39	0.517600	0.804900	0.573600
O401	O40	0.464300	0.712600	0.623500
O411	O41	0.531200	0.570700	0.994700
O421	O42	0.556900	0.555100	0.872200
O431	O43	0.550300	0.420700	0.880400
O441	O44	0.715800	0.492100	0.941900
O451	O45	0.703900	0.647200	0.053100
O461	O46	0.875300	0.411600	0.874100
O471	O47	0.717800	0.480700	0.816300
O481	O48	0.857400	0.570100	0.853000
O491	O49	0.718200	0.633400	0.905200
O501	O50	0.861900	0.694200	0.977600
O511	O51	0.019300	0.619300	0.919600
O521	O52	0.864600	0.439200	0.005900
O531	O53	0.043200	0.489400	0.935100
O541	O54	0.025900	0.359000	0.954400
O551	O55	0.121700	0.394500	0.847500
O561	O56	0.130200	0.426200	0.750000
O571	O57	0.338300	0.271300	0.609500
O581	O58	0.472000	0.210300	0.648100
O591	O59	0.482400	0.304900	0.926400
O601	O60	0.535700	0.212600	0.876500
O611	O61	0.531200	0.429300	0.005300
O621	O62	0.556900	0.444900	0.127800
O631	O63	0.550300	0.579300	0.119600
O641	O64	0.715800	0.507900	0.058100
O651	O65	0.703900	0.352800	0.946900
O661	O66	0.875300	0.588400	0.125900
O671	O67	0.717800	0.519300	0.183700
O681	O68	0.857400	0.429900	0.147000
O691	O69	0.718200	0.366600	0.094800
O701	O70	0.861900	0.305800	0.022400
O711	O71	0.019300	0.380700	0.080400
O721	O72	0.864600	0.560800	0.994100
O731	O73	0.043200	0.510600	0.064900
O741	O74	0.025900	0.641000	0.045600
O751	O75	0.121700	0.605500	0.152500
O761	O76	0.130200	0.573800	0.250000
O771	O77	0.338300	0.728700	0.390500
O781	O78	0.472000	0.789700	0.351900
O791	O79	0.482400	0.695100	0.073600
O801	O80	0.535700	0.787400	0.123500
