data_WATPIT_clean_PM
_symmetry_space_group_name_H-M	'P1'
_cell_length_a	8.799900
_cell_length_b	10.847500
_cell_length_c	16.813200
_cell_angle_alpha	76.600000
_cell_angle_beta	82.105000
_cell_angle_gamma	90.135000
_symmetry_Int_Tables_number 1

loop_
_symmetry_equiv_pos_as_xyz
'x,y,z'

loop_
_atom_site_label
_atom_site_type_symbol
_atom_site_fract_x
_atom_site_fract_y
_atom_site_fract_z
Cd11	Cd1	0.277960	0.739830	0.758060
Cd21	Cd2	0.967440	0.286090	0.754790
O11	O1	0.021900	0.209900	0.891900
O21	O2	0.006800	0.066800	0.820200
O31	O3	0.144500	0.588100	0.857000
O41	O4	0.232100	0.706600	0.931200
O51	O5	0.178200	0.669800	0.655000
O61	O6	0.339200	0.829600	0.607000
O71	O7	0.092700	0.579200	0.380500
O81	O8	0.077100	0.786000	0.361700
N11	N1	0.224200	0.336700	0.708100
N21	N2	0.521700	0.650300	0.755100
H11	H1	0.554000	0.669000	0.703300
N31	N3	0.429700	0.886600	0.798100
H21	H2	0.399000	0.865000	0.850600
N41	N4	0.713500	0.227500	0.815500
C11	C1	0.302900	0.393600	0.753100
H31	H3	0.257200	0.397400	0.805700
C21	C2	0.449100	0.447000	0.725100
C31	C3	0.515200	0.439100	0.647800
H41	H4	0.613000	0.474400	0.626600
C41	C4	0.437200	0.379400	0.602000
H51	H5	0.482100	0.372500	0.549900
C51	C5	0.293600	0.330100	0.632900
H61	H6	0.241200	0.290300	0.600900
C61	C6	0.529200	0.510800	0.780800
H71	H7	0.480500	0.481600	0.837500
H81	H8	0.635700	0.487200	0.778100
C71	C7	0.607100	0.712700	0.805400
H91	H9	0.714800	0.693200	0.796600
H101	H10	0.568600	0.679900	0.863400
C81	C8	0.591400	0.852800	0.783400
H111	H11	0.651000	0.891400	0.816300
H121	H12	0.631900	0.885900	0.725700
C91	C9	0.403600	0.022200	0.771500
H131	H13	0.294500	0.035800	0.782100
H141	H14	0.435600	0.049500	0.712400
C101	C10	0.626600	0.160900	0.778600
H151	H15	0.663500	0.154400	0.725200
C111	C11	0.488500	0.102600	0.814400
C121	C12	0.433800	0.114800	0.894700
H161	H16	0.340500	0.076300	0.921900
C131	C13	0.519000	0.183800	0.932600
H171	H17	0.482900	0.194500	0.985100
C141	C14	0.659700	0.237400	0.891600
H181	H18	0.718500	0.281900	0.918300
C151	C15	0.015800	0.096600	0.886800
C161	C16	0.013000	0.991800	0.962300
H191	H19	0.030600	0.910200	0.955400
C171	C17	0.147200	0.620000	0.924000
C181	C18	0.039100	0.551700	0.997900
H201	H20	0.027200	0.585900	0.044100
C191	C19	0.243300	0.751900	0.596800
C201	C20	0.205900	0.760000	0.512000
H211	H21	0.232800	0.834700	0.472200
C211	C21	0.138000	0.669200	0.490600
H221	H22	0.110800	0.594500	0.530400
C221	C22	0.100800	0.677800	0.405500
Cd31	Cd3	0.722040	0.260170	0.241940
Cd41	Cd4	0.032560	0.713910	0.245210
O91	O9	0.978100	0.790100	0.108100
O101	O10	0.993200	0.933200	0.179800
O111	O11	0.855500	0.411900	0.143000
O121	O12	0.767900	0.293400	0.068800
O131	O13	0.821800	0.330200	0.345000
O141	O14	0.660800	0.170400	0.393000
O151	O15	0.907300	0.420800	0.619500
O161	O16	0.922900	0.214000	0.638300
N51	N5	0.775800	0.663300	0.291900
N61	N6	0.478300	0.349700	0.244900
H231	H23	0.446000	0.331000	0.296700
N71	N7	0.570300	0.113400	0.201900
H241	H24	0.601000	0.135000	0.149400
N81	N8	0.286500	0.772500	0.184500
C231	C23	0.697100	0.606400	0.246900
H251	H25	0.742800	0.602600	0.194300
C241	C24	0.550900	0.553000	0.274900
C251	C25	0.484800	0.560900	0.352200
H261	H26	0.387000	0.525600	0.373400
C261	C26	0.562800	0.620600	0.398000
H271	H27	0.517900	0.627500	0.450100
C271	C27	0.706400	0.669900	0.367100
H281	H28	0.758800	0.709700	0.399100
C281	C28	0.470800	0.489200	0.219200
H291	H29	0.519500	0.518400	0.162500
H301	H30	0.364300	0.512800	0.221900
C291	C29	0.392900	0.287300	0.194600
H311	H31	0.285200	0.306800	0.203400
H321	H32	0.431400	0.320100	0.136600
C301	C30	0.408600	0.147200	0.216600
H331	H33	0.349000	0.108600	0.183700
H341	H34	0.368100	0.114100	0.274300
C311	C31	0.596400	0.977800	0.228500
H351	H35	0.705500	0.964200	0.217900
H361	H36	0.564400	0.950500	0.287600
C321	C32	0.373400	0.839100	0.221400
H371	H37	0.336500	0.845600	0.274800
C331	C33	0.511500	0.897400	0.185600
C341	C34	0.566200	0.885200	0.105300
H381	H38	0.659500	0.923700	0.078100
C351	C35	0.481000	0.816200	0.067400
H391	H39	0.517100	0.805500	0.014900
C361	C36	0.340300	0.762600	0.108400
H401	H40	0.281500	0.718100	0.081700
C371	C37	0.984200	0.903400	0.113200
C381	C38	0.987000	0.008200	0.037700
H411	H41	0.969400	0.089800	0.044600
C391	C39	0.852800	0.380000	0.076000
C401	C40	0.960900	0.448300	0.002100
H421	H42	0.972800	0.414100	0.955900
C411	C41	0.756700	0.248100	0.403200
C421	C42	0.794100	0.240000	0.488000
H431	H43	0.767200	0.165300	0.527800
C431	C43	0.862000	0.330800	0.509400
H441	H44	0.889200	0.405500	0.469600
C441	C44	0.899200	0.322200	0.594500
