data_WAVQUF_clean_PM
_symmetry_space_group_name_H-M	'P1'
_cell_length_a	10.276800
_cell_length_b	10.301600
_cell_length_c	18.836400
_cell_angle_alpha	90.000000
_cell_angle_beta	90.000000
_cell_angle_gamma	90.000000
_symmetry_Int_Tables_number 1

loop_
_symmetry_equiv_pos_as_xyz
'x,y,z'

loop_
_atom_site_label
_atom_site_type_symbol
_atom_site_fract_x
_atom_site_fract_y
_atom_site_fract_z
Co11	Co1	0.572180	0.867880	0.060580
Co21	Co2	0.595380	0.136960	0.200760
Co31	Co3	0.909360	0.897690	0.194700
Co41	Co4	0.848400	0.165330	0.032300
P11	P1	0.594290	0.847870	0.231520
P21	P2	0.896260	0.208740	0.200150
P31	P3	0.889020	0.847710	0.032610
P41	P4	0.561480	0.135030	0.029100
O11	O1	0.745200	0.815600	0.032000
O21	O2	0.546700	0.801000	0.159000
O31	O3	0.954200	0.772400	0.973500
O41	O4	0.502400	0.010600	0.998000
O51	O5	0.760400	0.203200	0.234100
O61	O6	0.554000	0.752000	0.289500
O71	O7	0.620800	0.090800	0.100700
O81	O8	0.532100	0.980000	0.248600
O91	O9	0.742700	0.860700	0.235200
O101	O10	0.966300	0.078000	0.207900
O111	O11	0.974700	0.313600	0.237700
O121	O12	0.950900	0.809400	0.104700
O131	O13	0.914700	0.991600	0.019900
O141	O14	0.459900	0.241000	0.038100
O151	O15	0.888800	0.247900	0.121700
O161	O16	0.677100	0.182000	0.983900
Co51	Co5	0.927820	0.132120	0.560580
Co61	Co6	0.904620	0.863040	0.700760
Co71	Co7	0.590640	0.102310	0.694700
Co81	Co8	0.651600	0.834670	0.532300
P51	P5	0.905710	0.152130	0.731520
P61	P6	0.603740	0.791260	0.700150
P71	P7	0.610980	0.152290	0.532610
P81	P8	0.938520	0.864970	0.529100
O171	O17	0.754800	0.184400	0.532000
O181	O18	0.953300	0.199000	0.659000
O191	O19	0.545800	0.227600	0.473500
O201	O20	0.997600	0.989400	0.498000
O211	O21	0.739600	0.796800	0.734100
O221	O22	0.946000	0.248000	0.789500
O231	O23	0.879200	0.909200	0.600700
O241	O24	0.967900	0.020000	0.748600
O251	O25	0.757300	0.139300	0.735200
O261	O26	0.533700	0.922000	0.707900
O271	O27	0.525300	0.686400	0.737700
O281	O28	0.549100	0.190600	0.604700
O291	O29	0.585300	0.008400	0.519900
O301	O30	0.040100	0.759000	0.538100
O311	O31	0.611200	0.752100	0.621700
O321	O32	0.822900	0.818000	0.483900
Co91	Co9	0.427820	0.367880	0.439420
Co101	Co10	0.404620	0.636960	0.299240
Co111	Co11	0.090640	0.397690	0.305300
Co121	Co12	0.151600	0.665330	0.467700
P91	P9	0.405710	0.347870	0.268480
P101	P10	0.103740	0.708740	0.299850
P111	P11	0.110980	0.347710	0.467390
P121	P12	0.438520	0.635030	0.470900
O331	O33	0.254800	0.315600	0.468000
O341	O34	0.453300	0.301000	0.341000
O351	O35	0.045800	0.272400	0.526500
O361	O36	0.497600	0.510600	0.502000
O371	O37	0.239600	0.703200	0.265900
O381	O38	0.446000	0.252000	0.210500
O391	O39	0.379200	0.590800	0.399300
O401	O40	0.467900	0.480000	0.251400
O411	O41	0.257300	0.360700	0.264800
O421	O42	0.033700	0.578000	0.292100
O431	O43	0.025300	0.813600	0.262300
O441	O44	0.049100	0.309400	0.395300
O451	O45	0.085300	0.491600	0.480100
O461	O46	0.540100	0.741000	0.461900
O471	O47	0.111200	0.747900	0.378300
O481	O48	0.322900	0.682000	0.516100
Co131	Co13	0.072180	0.632120	0.939420
Co141	Co14	0.095380	0.363040	0.799240
Co151	Co15	0.409360	0.602310	0.805300
Co161	Co16	0.348400	0.334670	0.967700
P131	P13	0.094290	0.652130	0.768480
P141	P14	0.396260	0.291260	0.799850
P151	P15	0.389020	0.652290	0.967390
P161	P16	0.061480	0.364970	0.970900
O491	O49	0.245200	0.684400	0.968000
O501	O50	0.046700	0.699000	0.841000
O511	O51	0.454200	0.727600	0.026500
O521	O52	0.002400	0.489400	0.002000
O531	O53	0.260400	0.296800	0.765900
O541	O54	0.054000	0.748000	0.710500
O551	O55	0.120800	0.409200	0.899300
O561	O56	0.032100	0.520000	0.751400
O571	O57	0.242700	0.639300	0.764800
O581	O58	0.466300	0.422000	0.792100
O591	O59	0.474700	0.186400	0.762300
O601	O60	0.450900	0.690600	0.895300
O611	O61	0.414700	0.508400	0.980100
O621	O62	0.959900	0.259000	0.961900
O631	O63	0.388800	0.252100	0.878300
O641	O64	0.177100	0.318000	0.016100
