data_WAVQUH_clean_PM
_symmetry_space_group_name_H-M	'P1'
_cell_length_a	18.978200
_cell_length_b	18.978200
_cell_length_c	18.978200
_cell_angle_alpha	109.471000
_cell_angle_beta	109.471000
_cell_angle_gamma	109.471000
_symmetry_Int_Tables_number 1

loop_
_symmetry_equiv_pos_as_xyz
'x,y,z'

loop_
_atom_site_label
_atom_site_type_symbol
_atom_site_fract_x
_atom_site_fract_y
_atom_site_fract_z
Co11	Co1	0.886150	0.349650	0.000000
Co21	Co2	0.349650	0.886150	0.000000
Co31	Co3	0.650350	0.650350	0.536500
Co41	Co4	0.113850	0.113850	0.463500
Co51	Co5	0.536500	0.650350	0.650350
Co61	Co6	0.463500	0.113850	0.113850
Co71	Co7	0.000000	0.886150	0.349650
Co81	Co8	0.000000	0.349650	0.886150
Co91	Co9	0.886150	0.000000	0.349650
Co101	Co10	0.349650	0.000000	0.886150
Co111	Co11	0.113850	0.463500	0.113850
Co121	Co12	0.650350	0.536500	0.650350
H11	H1	0.876900	0.691200	0.238900
H21	H2	0.127600	0.353800	0.278200
H31	H3	0.873200	0.564200	0.161600
H41	H4	0.452300	0.638000	0.761100
H51	H5	0.075600	0.849400	0.721800
H61	H6	0.402600	0.711600	0.838400
H71	H7	0.547700	0.308800	0.185700
H81	H8	0.924400	0.646200	0.773800
H91	H9	0.597400	0.435800	0.309000
H101	H10	0.123100	0.362000	0.814300
H111	H11	0.872400	0.150600	0.226200
H121	H12	0.126800	0.288400	0.691000
H131	H13	0.185700	0.547700	0.308800
H141	H14	0.773800	0.924400	0.646200
H151	H15	0.309000	0.597400	0.435800
H161	H16	0.814300	0.123100	0.362000
H171	H17	0.226200	0.872400	0.150600
H181	H18	0.691000	0.126800	0.288400
H191	H19	0.238900	0.876900	0.691200
H201	H20	0.278200	0.127600	0.353800
H211	H21	0.161600	0.873200	0.564200
H221	H22	0.761100	0.452300	0.638000
H231	H23	0.721800	0.075600	0.849400
H241	H24	0.838400	0.402600	0.711600
H251	H25	0.638000	0.761100	0.452300
H261	H26	0.849400	0.721800	0.075600
H271	H27	0.711600	0.838400	0.402600
H281	H28	0.691200	0.238900	0.876900
H291	H29	0.353800	0.278200	0.127600
H301	H30	0.564200	0.161600	0.873200
H311	H31	0.362000	0.814300	0.123100
H321	H32	0.150600	0.226200	0.872400
H331	H33	0.288400	0.691000	0.126800
H341	H34	0.308800	0.185700	0.547700
H351	H35	0.646200	0.773800	0.924400
H361	H36	0.435800	0.309000	0.597400
H371	H37	0.638000	0.452300	0.761100
H381	H38	0.849400	0.075600	0.721800
H391	H39	0.711600	0.402600	0.838400
H401	H40	0.691200	0.876900	0.238900
H411	H41	0.353800	0.127600	0.278200
H421	H42	0.564200	0.873200	0.161600
H431	H43	0.362000	0.123100	0.814300
H441	H44	0.150600	0.872400	0.226200
H451	H45	0.288400	0.126800	0.691000
H461	H46	0.308800	0.547700	0.185700
H471	H47	0.646200	0.924400	0.773800
H481	H48	0.435800	0.597400	0.309000
H491	H49	0.876900	0.238900	0.691200
H501	H50	0.127600	0.278200	0.353800
H511	H51	0.873200	0.161600	0.564200
H521	H52	0.452300	0.761100	0.638000
H531	H53	0.075600	0.721800	0.849400
H541	H54	0.402600	0.838400	0.711600
H551	H55	0.547700	0.185700	0.308800
H561	H56	0.924400	0.773800	0.646200
H571	H57	0.597400	0.309000	0.435800
H581	H58	0.123100	0.814300	0.362000
H591	H59	0.872400	0.226200	0.150600
H601	H60	0.126800	0.691000	0.288400
H611	H61	0.185700	0.308800	0.547700
H621	H62	0.773800	0.646200	0.924400
H631	H63	0.309000	0.435800	0.597400
H641	H64	0.814300	0.362000	0.123100
H651	H65	0.226200	0.150600	0.872400
H661	H66	0.691000	0.288400	0.126800
H671	H67	0.238900	0.691200	0.876900
H681	H68	0.278200	0.353800	0.127600
H691	H69	0.161600	0.564200	0.873200
H701	H70	0.761100	0.638000	0.452300
H711	H71	0.721800	0.849400	0.075600
H721	H72	0.838400	0.711600	0.402600
C11	C1	0.928600	0.692600	0.247200
C21	C2	0.075500	0.310800	0.264900
C31	C3	0.925700	0.615300	0.200200
C41	C4	0.445400	0.681400	0.752800
C51	C5	0.045900	0.810600	0.735100
C61	C6	0.415100	0.725500	0.799800
C71	C7	0.554600	0.307400	0.236000
C81	C8	0.954100	0.689200	0.764700
C91	C9	0.584900	0.384700	0.310400
C101	C10	0.071400	0.318600	0.764000
C111	C11	0.924500	0.189400	0.235300
C121	C12	0.074300	0.274500	0.689600
C131	C13	0.236000	0.554600	0.307400
C141	C14	0.764700	0.954100	0.689200
C151	C15	0.310400	0.584900	0.384700
C161	C16	0.764000	0.071400	0.318600
C171	C17	0.235300	0.924500	0.189400
C181	C18	0.689600	0.074300	0.274500
C191	C19	0.247200	0.928600	0.692600
C201	C20	0.264900	0.075500	0.310800
C211	C21	0.200200	0.925700	0.615300
C221	C22	0.752800	0.445400	0.681400
C231	C23	0.735100	0.045900	0.810600
C241	C24	0.799800	0.415100	0.725500
C251	C25	0.681400	0.752800	0.445400
C261	C26	0.810600	0.735100	0.045900
C271	C27	0.725500	0.799800	0.415100
C281	C28	0.692600	0.247200	0.928600
C291	C29	0.310800	0.264900	0.075500
C301	C30	0.615300	0.200200	0.925700
C311	C31	0.318600	0.764000	0.071400
C321	C32	0.189400	0.235300	0.924500
C331	C33	0.274500	0.689600	0.074300
C341	C34	0.307400	0.236000	0.554600
C351	C35	0.689200	0.764700	0.954100
C361	C36	0.384700	0.310400	0.584900
C371	C37	0.681400	0.445400	0.752800
C381	C38	0.810600	0.045900	0.735100
C391	C39	0.725500	0.415100	0.799800
C401	C40	0.692600	0.928600	0.247200
C411	C41	0.310800	0.075500	0.264900
C421	C42	0.615300	0.925700	0.200200
C431	C43	0.318600	0.071400	0.764000
C441	C44	0.189400	0.924500	0.235300
C451	C45	0.274500	0.074300	0.689600
C461	C46	0.307400	0.554600	0.236000
C471	C47	0.689200	0.954100	0.764700
C481	C48	0.384700	0.584900	0.310400
C491	C49	0.928600	0.247200	0.692600
C501	C50	0.075500	0.264900	0.310800
C511	C51	0.925700	0.200200	0.615300
C521	C52	0.445400	0.752800	0.681400
C531	C53	0.045900	0.735100	0.810600
C541	C54	0.415100	0.799800	0.725500
C551	C55	0.554600	0.236000	0.307400
C561	C56	0.954100	0.764700	0.689200
C571	C57	0.584900	0.310400	0.384700
C581	C58	0.071400	0.764000	0.318600
C591	C59	0.924500	0.235300	0.189400
C601	C60	0.074300	0.689600	0.274500
C611	C61	0.236000	0.307400	0.554600
C621	C62	0.764700	0.689200	0.954100
C631	C63	0.310400	0.384700	0.584900
C641	C64	0.764000	0.318600	0.071400
C651	C65	0.235300	0.189400	0.924500
C661	C66	0.689600	0.274500	0.074300
C671	C67	0.247200	0.692600	0.928600
C681	C68	0.264900	0.310800	0.075500
C691	C69	0.200200	0.615300	0.925700
C701	C70	0.752800	0.681400	0.445400
C711	C71	0.735100	0.810600	0.045900
C721	C72	0.799800	0.725500	0.415100
C731	C73	0.000000	0.336100	0.149900
C741	C74	0.000000	0.292300	0.201500
C751	C75	0.000000	0.538000	0.157200
C761	C76	0.000000	0.616900	0.212300
C771	C77	0.186200	0.850100	0.850100
C781	C78	0.090800	0.798500	0.798500
C791	C79	0.380800	0.842800	0.842800
C801	C80	0.404600	0.787700	0.787700
C811	C81	0.813800	0.663900	0.663900
C821	C82	0.909200	0.707700	0.707700
C831	C83	0.619200	0.462000	0.462000
C841	C84	0.595400	0.383100	0.383100
C851	C85	0.000000	0.149900	0.336100
C861	C86	0.000000	0.201500	0.292300
C871	C87	0.000000	0.157200	0.538000
C881	C88	0.000000	0.212300	0.616900
C891	C89	0.663900	0.813800	0.663900
C901	C90	0.707700	0.909200	0.707700
C911	C91	0.462000	0.619200	0.462000
C921	C92	0.383100	0.595400	0.383100
C931	C93	0.336100	0.000000	0.149900
C941	C94	0.292300	0.000000	0.201500
C951	C95	0.538000	0.000000	0.157200
C961	C96	0.616900	0.000000	0.212300
C971	C97	0.149900	0.000000	0.336100
C981	C98	0.201500	0.000000	0.292300
C991	C99	0.157200	0.000000	0.538000
C1001	C100	0.212300	0.000000	0.616900
C1011	C101	0.850100	0.186200	0.850100
C1021	C102	0.798500	0.090800	0.798500
C1031	C103	0.842800	0.380800	0.842800
C1041	C104	0.787700	0.404600	0.787700
C1051	C105	0.850100	0.850100	0.186200
C1061	C106	0.798500	0.798500	0.090800
C1071	C107	0.842800	0.842800	0.380800
C1081	C108	0.787700	0.787700	0.404600
C1091	C109	0.336100	0.149900	0.000000
C1101	C110	0.292300	0.201500	0.000000
C1111	C111	0.538000	0.157200	0.000000
C1121	C112	0.616900	0.212300	0.000000
C1131	C113	0.149900	0.336100	0.000000
C1141	C114	0.201500	0.292300	0.000000
C1151	C115	0.157200	0.538000	0.000000
C1161	C116	0.212300	0.616900	0.000000
C1171	C117	0.663900	0.663900	0.813800
C1181	C118	0.707700	0.707700	0.909200
C1191	C119	0.462000	0.462000	0.619200
C1201	C120	0.383100	0.383100	0.595400
N11	N1	0.765500	0.301500	0.000000
N21	N2	0.301500	0.765500	0.000000
N31	N3	0.698500	0.698500	0.464000
N41	N4	0.234500	0.234500	0.536000
N51	N5	0.464000	0.698500	0.698500
N61	N6	0.536000	0.234500	0.234500
N71	N7	0.000000	0.765500	0.301500
N81	N8	0.000000	0.301500	0.765500
N91	N9	0.765500	0.000000	0.301500
N101	N10	0.301500	0.000000	0.765500
N111	N11	0.234500	0.536000	0.234500
N121	N12	0.698500	0.464000	0.698500
O11	O1	0.926000	0.472500	0.098100
O21	O2	0.929100	0.316000	0.093300
O31	O3	0.374400	0.827900	0.901900
O41	O4	0.222700	0.835800	0.906700
O51	O5	0.625600	0.527500	0.453500
O61	O6	0.777300	0.684000	0.613100
O71	O7	0.074000	0.172100	0.546500
O81	O8	0.070900	0.164200	0.386900
O91	O9	0.453500	0.625600	0.527500
O101	O10	0.613100	0.777300	0.684000
O111	O11	0.546500	0.074000	0.172100
O121	O12	0.386900	0.070900	0.164200
O131	O13	0.098100	0.926000	0.472500
O141	O14	0.093300	0.929100	0.316000
O151	O15	0.901900	0.374400	0.827900
O161	O16	0.906700	0.222700	0.835800
O171	O17	0.827900	0.901900	0.374400
O181	O18	0.835800	0.906700	0.222700
O191	O19	0.472500	0.098100	0.926000
O201	O20	0.316000	0.093300	0.929100
O211	O21	0.172100	0.546500	0.074000
O221	O22	0.164200	0.386900	0.070900
O231	O23	0.527500	0.453500	0.625600
O241	O24	0.684000	0.613100	0.777300
O251	O25	0.827900	0.374400	0.901900
O261	O26	0.835800	0.222700	0.906700
O271	O27	0.472500	0.926000	0.098100
O281	O28	0.316000	0.929100	0.093300
O291	O29	0.172100	0.074000	0.546500
O301	O30	0.164200	0.070900	0.386900
O311	O31	0.527500	0.625600	0.453500
O321	O32	0.684000	0.777300	0.613100
O331	O33	0.926000	0.098100	0.472500
O341	O34	0.929100	0.093300	0.316000
O351	O35	0.374400	0.901900	0.827900
O361	O36	0.222700	0.906700	0.835800
O371	O37	0.625600	0.453500	0.527500
O381	O38	0.777300	0.613100	0.684000
O391	O39	0.074000	0.546500	0.172100
O401	O40	0.070900	0.386900	0.164200
O411	O41	0.453500	0.527500	0.625600
O421	O42	0.613100	0.684000	0.777300
O431	O43	0.546500	0.172100	0.074000
O441	O44	0.386900	0.164200	0.070900
O451	O45	0.098100	0.472500	0.926000
O461	O46	0.093300	0.316000	0.929100
O471	O47	0.901900	0.827900	0.374400
O481	O48	0.906700	0.835800	0.222700
O491	O49	0.000000	0.403200	0.000000
O501	O50	0.403200	0.000000	0.000000
O511	O51	0.596800	0.596800	0.596800
O521	O52	0.000000	0.000000	0.403200
