data_WAVROC_clean_PM
_symmetry_space_group_name_H-M	'P1'
_cell_length_a	32.221400
_cell_length_b	32.221400
_cell_length_c	35.994100
_cell_angle_alpha	63.410700
_cell_angle_beta	63.410700
_cell_angle_gamma	60.000000
_symmetry_Int_Tables_number 1

loop_
_symmetry_equiv_pos_as_xyz
'x,y,z'

loop_
_atom_site_label
_atom_site_type_symbol
_atom_site_fract_x
_atom_site_fract_y
_atom_site_fract_z
Mg11	Mg1	0.542180	0.085770	0.709120
Mg21	Mg2	0.085770	0.662930	0.709120
Mg31	Mg3	0.662930	0.542180	0.709120
Mg41	Mg4	0.957820	0.837070	0.790880
Mg51	Mg5	0.414230	0.957820	0.790880
Mg61	Mg6	0.837070	0.414230	0.790880
Mg71	Mg7	0.457820	0.914230	0.290880
Mg81	Mg8	0.914230	0.337070	0.290880
Mg91	Mg9	0.337070	0.457820	0.290880
Mg101	Mg10	0.042180	0.162930	0.209120
Mg111	Mg11	0.585770	0.042180	0.209120
Mg121	Mg12	0.162930	0.585770	0.209120
In11	In1	0.440760	0.053170	0.798840
In21	In2	0.053170	0.707230	0.798840
In31	In3	0.707230	0.440760	0.798840
In41	In4	0.059240	0.792770	0.701150
In51	In5	0.446840	0.059240	0.701150
In61	In6	0.792770	0.446830	0.701160
In71	In7	0.559240	0.946830	0.201160
In81	In8	0.946840	0.292770	0.201150
In91	In9	0.292770	0.559240	0.201150
In101	In10	0.940760	0.207230	0.298840
In111	In11	0.553160	0.940760	0.298850
In121	In12	0.207230	0.553160	0.298850
H11	H1	0.649500	0.746700	0.815800
H21	H2	0.707400	0.860300	0.769000
H31	H3	0.592800	0.816400	0.848200
H41	H4	0.652100	0.942600	0.751000
H51	H5	0.538200	0.898400	0.831400
H61	H6	0.304500	0.707800	0.141300
H71	H7	0.392900	0.639300	0.216900
H81	H8	0.341300	0.766500	0.102300
H91	H9	0.430900	0.696300	0.177300
H101	H10	0.439400	0.852100	0.227700
H111	H11	0.541800	0.889400	0.118500
H121	H12	0.429000	0.771600	0.160500
H131	H13	0.418900	0.823000	0.192000
H141	H14	0.520100	0.863000	0.082500
H151	H15	0.414600	0.938200	0.006600
H161	H16	0.465600	0.876100	0.051900
H171	H17	0.402200	0.795200	0.053700
H181	H18	0.439700	0.819300	0.980200
H191	H19	0.438700	0.867000	0.909700
H201	H20	0.412100	0.986600	0.937300
H211	H21	0.746700	0.788000	0.815800
H221	H22	0.860300	0.663300	0.769000
H231	H23	0.816400	0.742600	0.848200
H241	H24	0.942600	0.654300	0.751000
H251	H25	0.898400	0.732000	0.831400
H261	H26	0.707800	0.846400	0.141300
H271	H27	0.639300	0.750900	0.216900
H281	H28	0.766500	0.789900	0.102300
H291	H29	0.696300	0.695500	0.177300
H301	H30	0.852100	0.480800	0.227700
H311	H31	0.889400	0.450300	0.118500
H321	H32	0.771600	0.638900	0.160500
H331	H33	0.823000	0.566100	0.192000
H341	H34	0.863000	0.534400	0.082500
H351	H35	0.938200	0.640600	0.006600
H361	H36	0.876100	0.606400	0.051900
H371	H37	0.795200	0.748900	0.053700
H381	H38	0.819300	0.760800	0.980200
H391	H39	0.867000	0.784600	0.909700
H401	H40	0.986600	0.664000	0.937300
H411	H41	0.788000	0.649500	0.815800
H421	H42	0.663300	0.707400	0.769000
H431	H43	0.742600	0.592800	0.848200
H441	H44	0.654300	0.652100	0.751000
H451	H45	0.732000	0.538200	0.831400
H461	H46	0.846400	0.304500	0.141300
H471	H47	0.750900	0.392900	0.216900
H481	H48	0.789900	0.341300	0.102300
H491	H49	0.695500	0.430900	0.177300
H501	H50	0.480800	0.439400	0.227700
H511	H51	0.450300	0.541800	0.118500
H521	H52	0.638900	0.429000	0.160500
H531	H53	0.566100	0.418900	0.192000
H541	H54	0.534400	0.520100	0.082500
H551	H55	0.640600	0.414600	0.006600
H561	H56	0.606400	0.465600	0.051900
H571	H57	0.748900	0.402200	0.053700
H581	H58	0.760800	0.439700	0.980200
H591	H59	0.784600	0.438700	0.909700
H601	H60	0.664000	0.412100	0.937300
H611	H61	0.850500	0.712000	0.684200
H621	H62	0.792600	0.836700	0.731000
H631	H63	0.907200	0.757400	0.651800
H641	H64	0.847900	0.845700	0.749000
H651	H65	0.961800	0.768000	0.668600
H661	H66	0.195500	0.653600	0.358700
H671	H67	0.107100	0.749100	0.283100
H681	H68	0.158700	0.710100	0.397700
H691	H69	0.069100	0.804500	0.322700
H701	H70	0.060600	0.019200	0.272300
H711	H71	0.958200	0.049700	0.381500
H721	H72	0.071000	0.861100	0.339500
H731	H73	0.081100	0.933900	0.308000
H741	H74	0.979900	0.965600	0.417500
H751	H75	0.085400	0.859400	0.493400
H761	H76	0.034400	0.893600	0.448100
H771	H77	0.097800	0.751100	0.446300
H781	H78	0.060300	0.739200	0.519800
H791	H79	0.061300	0.715400	0.590300
H801	H80	0.087900	0.836000	0.562700
H811	H81	0.753300	0.850500	0.684200
H821	H82	0.639700	0.792600	0.731000
H831	H83	0.683600	0.907200	0.651800
H841	H84	0.557400	0.847900	0.749000
H851	H85	0.601600	0.961800	0.668600
H861	H86	0.792200	0.195500	0.358700
H871	H87	0.860700	0.107100	0.283100
H881	H88	0.733500	0.158700	0.397700
H891	H89	0.803700	0.069100	0.322700
H901	H90	0.647900	0.060600	0.272300
H911	H91	0.610600	0.958200	0.381500
H921	H92	0.728400	0.071000	0.339500
H931	H93	0.677000	0.081100	0.308000
H941	H94	0.637000	0.979900	0.417500
H951	H95	0.561800	0.085400	0.493400
H961	H96	0.623900	0.034400	0.448100
H971	H97	0.704800	0.097800	0.446300
H981	H98	0.680700	0.060300	0.519800
H991	H99	0.633000	0.061300	0.590300
H1001	H100	0.513400	0.087900	0.562700
H1011	H101	0.712000	0.753300	0.684200
H1021	H102	0.836700	0.639700	0.731000
H1031	H103	0.757400	0.683600	0.651800
H1041	H104	0.845700	0.557400	0.749000
H1051	H105	0.768000	0.601600	0.668600
H1061	H106	0.653600	0.792200	0.358700
H1071	H107	0.749100	0.860700	0.283100
H1081	H108	0.710100	0.733500	0.397700
H1091	H109	0.804500	0.803700	0.322700
H1101	H110	0.019200	0.647900	0.272300
H1111	H111	0.049700	0.610600	0.381500
H1121	H112	0.861100	0.728400	0.339500
H1131	H113	0.933900	0.677000	0.308000
H1141	H114	0.965600	0.637000	0.417500
H1151	H115	0.859400	0.561800	0.493400
H1161	H116	0.893600	0.623900	0.448100
H1171	H117	0.751100	0.704800	0.446300
H1181	H118	0.739200	0.680700	0.519800
H1191	H119	0.715400	0.633000	0.590300
H1201	H120	0.836000	0.513400	0.562700
H1211	H121	0.350500	0.253300	0.184200
H1221	H122	0.292600	0.139700	0.231000
H1231	H123	0.407200	0.183600	0.151800
H1241	H124	0.347900	0.057400	0.249000
H1251	H125	0.461800	0.101600	0.168600
H1261	H126	0.695500	0.292200	0.858700
H1271	H127	0.607100	0.360700	0.783100
H1281	H128	0.658700	0.233500	0.897700
H1291	H129	0.569100	0.303700	0.822700
H1301	H130	0.560600	0.147900	0.772300
H1311	H131	0.458200	0.110600	0.881500
H1321	H132	0.571000	0.228400	0.839500
H1331	H133	0.581100	0.177000	0.808000
H1341	H134	0.479900	0.137000	0.917500
H1351	H135	0.585400	0.061800	0.993400
H1361	H136	0.534400	0.123900	0.948100
H1371	H137	0.597800	0.204800	0.946300
H1381	H138	0.560300	0.180700	0.019800
H1391	H139	0.561300	0.133000	0.090300
H1401	H140	0.587900	0.013400	0.062700
H1411	H141	0.253300	0.212000	0.184200
H1421	H142	0.139700	0.336700	0.231000
H1431	H143	0.183600	0.257400	0.151800
H1441	H144	0.057400	0.345700	0.249000
H1451	H145	0.101600	0.268000	0.168600
H1461	H146	0.292200	0.153600	0.858700
H1471	H147	0.360700	0.249100	0.783100
H1481	H148	0.233500	0.210100	0.897700
H1491	H149	0.303700	0.304500	0.822700
H1501	H150	0.147900	0.519200	0.772300
H1511	H151	0.110600	0.549700	0.881500
H1521	H152	0.228400	0.361100	0.839500
H1531	H153	0.177000	0.433900	0.808000
H1541	H154	0.137000	0.465600	0.917500
H1551	H155	0.061800	0.359400	0.993400
H1561	H156	0.123900	0.393600	0.948100
H1571	H157	0.204800	0.251100	0.946300
H1581	H158	0.180700	0.239200	0.019800
H1591	H159	0.133000	0.215400	0.090300
H1601	H160	0.013400	0.336000	0.062700
H1611	H161	0.212000	0.350500	0.184200
H1621	H162	0.336700	0.292600	0.231000
H1631	H163	0.257400	0.407200	0.151800
H1641	H164	0.345700	0.347900	0.249000
H1651	H165	0.268000	0.461800	0.168600
H1661	H166	0.153600	0.695500	0.858700
H1671	H167	0.249100	0.607100	0.783100
H1681	H168	0.210100	0.658700	0.897700
H1691	H169	0.304500	0.569100	0.822700
H1701	H170	0.519200	0.560600	0.772300
H1711	H171	0.549700	0.458200	0.881500
H1721	H172	0.361100	0.571000	0.839500
H1731	H173	0.433900	0.581100	0.808000
H1741	H174	0.465600	0.479900	0.917500
H1751	H175	0.359400	0.585400	0.993400
H1761	H176	0.393600	0.534400	0.948100
H1771	H177	0.251100	0.597800	0.946300
H1781	H178	0.239200	0.560300	0.019800
H1791	H179	0.215400	0.561300	0.090300
H1801	H180	0.336000	0.587900	0.062700
H1811	H181	0.149500	0.288000	0.315800
H1821	H182	0.207400	0.163300	0.269000
H1831	H183	0.092800	0.242600	0.348200
H1841	H184	0.152100	0.154300	0.251000
H1851	H185	0.038200	0.232000	0.331400
H1861	H186	0.804500	0.346400	0.641300
H1871	H187	0.892900	0.250900	0.716900
H1881	H188	0.841300	0.289900	0.602300
H1891	H189	0.930900	0.195500	0.677300
H1901	H190	0.939400	0.980800	0.727700
H1911	H191	0.041800	0.950300	0.618500
H1921	H192	0.929000	0.138900	0.660500
H1931	H193	0.918900	0.066100	0.692000
H1941	H194	0.020100	0.034400	0.582500
H1951	H195	0.914600	0.140600	0.506600
H1961	H196	0.965600	0.106400	0.551900
H1971	H197	0.902200	0.248900	0.553700
H1981	H198	0.939700	0.260800	0.480200
H1991	H199	0.938700	0.284600	0.409700
H2001	H200	0.912100	0.164000	0.437300
H2011	H201	0.246700	0.149500	0.315800
H2021	H202	0.360300	0.207400	0.269000
H2031	H203	0.316400	0.092800	0.348200
H2041	H204	0.442600	0.152100	0.251000
H2051	H205	0.398400	0.038200	0.331400
H2061	H206	0.207800	0.804500	0.641300
H2071	H207	0.139300	0.892900	0.716900
H2081	H208	0.266500	0.841300	0.602300
H2091	H209	0.196300	0.930900	0.677300
H2101	H210	0.352100	0.939400	0.727700
H2111	H211	0.389400	0.041800	0.618500
H2121	H212	0.271600	0.929000	0.660500
H2131	H213	0.323000	0.918900	0.692000
H2141	H214	0.363000	0.020100	0.582500
H2151	H215	0.438200	0.914600	0.506600
H2161	H216	0.376100	0.965600	0.551900
H2171	H217	0.295200	0.902200	0.553700
H2181	H218	0.319300	0.939700	0.480200
H2191	H219	0.367000	0.938700	0.409700
H2201	H220	0.486600	0.912100	0.437300
H2211	H221	0.288000	0.246700	0.315800
H2221	H222	0.163300	0.360300	0.269000
H2231	H223	0.242600	0.316400	0.348200
H2241	H224	0.154300	0.442600	0.251000
H2251	H225	0.232000	0.398400	0.331400
H2261	H226	0.346400	0.207800	0.641300
H2271	H227	0.250900	0.139300	0.716900
H2281	H228	0.289900	0.266500	0.602300
H2291	H229	0.195500	0.196300	0.677300
H2301	H230	0.980800	0.352100	0.727700
H2311	H231	0.950300	0.389400	0.618500
H2321	H232	0.138900	0.271600	0.660500
H2331	H233	0.066100	0.323000	0.692000
H2341	H234	0.034400	0.363000	0.582500
H2351	H235	0.140600	0.438200	0.506600
H2361	H236	0.106400	0.376100	0.551900
H2371	H237	0.248900	0.295200	0.553700
H2381	H238	0.260800	0.319300	0.480200
H2391	H239	0.284600	0.367000	0.409700
H2401	H240	0.164000	0.486600	0.437300
C11	C1	0.692830	0.776770	0.815110
C21	C2	0.681720	0.738760	0.815410
C31	C3	0.673110	0.867670	0.781390
C41	C4	0.605210	0.841330	0.828640
C51	C5	0.589000	0.928460	0.789010
C61	C6	0.639960	0.917310	0.770560
C71	C7	0.552600	0.980810	0.776080
C81	C8	0.572330	0.890650	0.818320
C91	C9	0.655870	0.829240	0.810100
C101	C10	0.329440	0.705550	0.149280
C111	C11	0.322270	0.628330	0.208890
C121	C12	0.344280	0.668040	0.183360
C131	C13	0.382190	0.665280	0.193530
C141	C14	0.351850	0.741020	0.125850
C151	C15	0.411000	0.778030	0.111000
C161	C16	0.387790	0.739780	0.135930
C171	C17	0.404620	0.699660	0.170340
C181	C18	0.490340	0.875700	0.176460
C191	C19	0.455160	0.854910	0.198420
C201	C20	0.516040	0.877270	0.133080
C211	C21	0.500840	0.896590	0.199890
C221	C22	0.429670	0.789170	0.131790
C231	C23	0.442750	0.837570	0.176850
C241	C24	0.449990	0.826940	0.109830
C251	C25	0.465730	0.842160	0.133110
C261	C26	0.503300	0.861170	0.111600
C271	C27	0.419390	0.923540	0.987130
C281	C28	0.431230	0.841780	0.045510
C291	C29	0.451380	0.852060	0.066960
C301	C30	0.422330	0.963240	0.870820
C311	C31	0.413310	0.803830	0.068070
C321	C32	0.428030	0.873700	0.000810
C331	C33	0.434470	0.852950	0.971590
C341	C34	0.433260	0.881700	0.929350
C351	C35	0.423980	0.931940	0.916690
C361	C36	0.417620	0.952900	0.945640
C371	C37	0.776770	0.715290	0.815110
C381	C38	0.738760	0.764110	0.815410
C391	C39	0.867670	0.677830	0.781390
C401	C40	0.841330	0.724820	0.828640
C411	C41	0.928460	0.693530	0.789010
C421	C42	0.917310	0.672170	0.770560
C431	C43	0.980810	0.690510	0.776080
C441	C44	0.890650	0.718700	0.818320
C451	C45	0.829240	0.704790	0.810100
C461	C46	0.705550	0.815730	0.149280
C471	C47	0.628330	0.840510	0.208890
C481	C48	0.668040	0.804320	0.183360
C491	C49	0.665280	0.759000	0.193530
C501	C50	0.741020	0.781280	0.125850
C511	C51	0.778030	0.699970	0.111000
C521	C52	0.739780	0.736500	0.135930
C531	C53	0.699660	0.725380	0.170340
C541	C54	0.875700	0.457500	0.176460
C551	C55	0.854910	0.491510	0.198420
C561	C56	0.877270	0.473610	0.133080
C571	C57	0.896590	0.402680	0.199890
C581	C58	0.789170	0.649370	0.131790
C591	C59	0.837570	0.542830	0.176850
C601	C60	0.826940	0.613240	0.109830
C611	C61	0.842160	0.559000	0.133110
C621	C62	0.861170	0.523930	0.111600
C631	C63	0.923540	0.669940	0.987130
C641	C64	0.841780	0.681480	0.045510
C651	C65	0.852060	0.629600	0.066960
C661	C66	0.963240	0.743610	0.870820
C671	C67	0.803830	0.714790	0.068070
C681	C68	0.873700	0.697460	0.000810
C691	C69	0.852950	0.740990	0.971590
C701	C70	0.881700	0.755690	0.929350
C711	C71	0.931940	0.727390	0.916690
C721	C72	0.952900	0.683840	0.945640
C731	C73	0.715290	0.692830	0.815110
C741	C74	0.764110	0.681720	0.815410
C751	C75	0.677830	0.673110	0.781390
C761	C76	0.724820	0.605210	0.828640
C771	C77	0.693530	0.589000	0.789010
C781	C78	0.672170	0.639960	0.770560
C791	C79	0.690510	0.552600	0.776080
C801	C80	0.718700	0.572330	0.818320
C811	C81	0.704790	0.655870	0.810100
C821	C82	0.815730	0.329440	0.149280
C831	C83	0.840510	0.322270	0.208890
C841	C84	0.804320	0.344280	0.183360
C851	C85	0.759000	0.382190	0.193530
C861	C86	0.781280	0.351850	0.125850
C871	C87	0.699970	0.411000	0.111000
C881	C88	0.736500	0.387790	0.135930
C891	C89	0.725380	0.404620	0.170340
C901	C90	0.457500	0.490340	0.176460
C911	C91	0.491510	0.455160	0.198420
C921	C92	0.473610	0.516040	0.133080
C931	C93	0.402680	0.500840	0.199890
C941	C94	0.649370	0.429670	0.131790
C951	C95	0.542830	0.442750	0.176850
C961	C96	0.613240	0.449990	0.109830
C971	C97	0.559000	0.465730	0.133110
C981	C98	0.523930	0.503300	0.111600
C991	C99	0.669940	0.419390	0.987130
C1001	C100	0.681480	0.431230	0.045510
C1011	C101	0.629600	0.451380	0.066960
C1021	C102	0.743610	0.422330	0.870820
C1031	C103	0.714790	0.413310	0.068070
C1041	C104	0.697460	0.428030	0.000810
C1051	C105	0.740990	0.434470	0.971590
C1061	C106	0.755690	0.433260	0.929350
C1071	C107	0.727390	0.423980	0.916690
C1081	C108	0.683840	0.417620	0.945640
C1091	C109	0.807170	0.784710	0.684890
C1101	C110	0.818280	0.735890	0.684590
C1111	C111	0.826890	0.822170	0.718610
C1121	C112	0.894790	0.775180	0.671360
C1131	C113	0.911000	0.806470	0.710990
C1141	C114	0.860040	0.827830	0.729440
C1151	C115	0.947400	0.809490	0.723920
C1161	C116	0.927670	0.781300	0.681680
C1171	C117	0.844130	0.795210	0.689900
C1181	C118	0.170560	0.684270	0.350720
C1191	C119	0.177730	0.659490	0.291110
C1201	C120	0.155720	0.695680	0.316640
C1211	C121	0.117810	0.741000	0.306470
C1221	C122	0.148150	0.718720	0.374150
C1231	C123	0.089000	0.800030	0.389000
C1241	C124	0.112210	0.763500	0.364070
C1251	C125	0.095380	0.774620	0.329660
C1261	C126	0.009660	0.042500	0.323540
C1271	C127	0.044840	0.008490	0.301580
C1281	C128	0.983960	0.026390	0.366920
C1291	C129	0.999160	0.097320	0.300110
C1301	C130	0.070330	0.850630	0.368210
C1311	C131	0.057250	0.957170	0.323150
C1321	C132	0.050010	0.886760	0.390170
C1331	C133	0.034270	0.941000	0.366890
C1341	C134	0.996700	0.976070	0.388400
C1351	C135	0.080610	0.830060	0.512870
C1361	C136	0.068770	0.818520	0.454490
C1371	C137	0.048620	0.870400	0.433040
C1381	C138	0.077670	0.756390	0.629180
C1391	C139	0.086690	0.785210	0.431930
C1401	C140	0.071970	0.802540	0.499190
C1411	C141	0.065530	0.759010	0.528410
C1421	C142	0.066740	0.744310	0.570650
C1431	C143	0.076020	0.772610	0.583310
C1441	C144	0.082380	0.816160	0.554360
C1451	C145	0.723230	0.807170	0.684890
C1461	C146	0.761240	0.818280	0.684590
C1471	C147	0.632330	0.826890	0.718610
C1481	C148	0.658670	0.894790	0.671360
C1491	C149	0.571540	0.911000	0.710990
C1501	C150	0.582690	0.860040	0.729440
C1511	C151	0.519190	0.947400	0.723920
C1521	C152	0.609350	0.927670	0.681680
C1531	C153	0.670760	0.844130	0.689900
C1541	C154	0.794450	0.170560	0.350720
C1551	C155	0.871670	0.177730	0.291110
C1561	C156	0.831960	0.155720	0.316640
C1571	C157	0.834720	0.117810	0.306470
C1581	C158	0.758980	0.148150	0.374150
C1591	C159	0.721970	0.089000	0.389000
C1601	C160	0.760220	0.112210	0.364070
C1611	C161	0.800340	0.095380	0.329660
C1621	C162	0.624300	0.009660	0.323540
C1631	C163	0.645090	0.044840	0.301580
C1641	C164	0.622730	0.983960	0.366920
C1651	C165	0.603410	0.999160	0.300110
C1661	C166	0.710830	0.070330	0.368210
C1671	C167	0.662430	0.057250	0.323150
C1681	C168	0.673060	0.050010	0.390170
C1691	C169	0.657840	0.034270	0.366890
C1701	C170	0.638830	0.996700	0.388400
C1711	C171	0.576460	0.080610	0.512870
C1721	C172	0.658220	0.068770	0.454490
C1731	C173	0.647940	0.048620	0.433040
C1741	C174	0.536760	0.077670	0.629180
C1751	C175	0.696170	0.086690	0.431930
C1761	C176	0.626300	0.071970	0.499190
C1771	C177	0.647050	0.065530	0.528410
C1781	C178	0.618300	0.066740	0.570650
C1791	C179	0.568060	0.076020	0.583310
C1801	C180	0.547100	0.082380	0.554360
C1811	C181	0.784710	0.723230	0.684890
C1821	C182	0.735890	0.761240	0.684590
C1831	C183	0.822170	0.632330	0.718610
C1841	C184	0.775180	0.658670	0.671360
C1851	C185	0.806470	0.571540	0.710990
C1861	C186	0.827830	0.582690	0.729440
C1871	C187	0.809490	0.519190	0.723920
C1881	C188	0.781300	0.609350	0.681680
C1891	C189	0.795210	0.670760	0.689900
C1901	C190	0.684270	0.794450	0.350720
C1911	C191	0.659490	0.871670	0.291110
C1921	C192	0.695680	0.831960	0.316640
C1931	C193	0.741000	0.834720	0.306470
C1941	C194	0.718720	0.758980	0.374150
C1951	C195	0.800030	0.721970	0.389000
C1961	C196	0.763500	0.760220	0.364070
C1971	C197	0.774620	0.800340	0.329660
C1981	C198	0.042500	0.624300	0.323540
C1991	C199	0.008490	0.645090	0.301580
C2001	C200	0.026390	0.622730	0.366920
C2011	C201	0.097320	0.603410	0.300110
C2021	C202	0.850630	0.710830	0.368210
C2031	C203	0.957170	0.662430	0.323150
C2041	C204	0.886760	0.673060	0.390170
C2051	C205	0.941000	0.657840	0.366890
C2061	C206	0.976070	0.638830	0.388400
C2071	C207	0.830060	0.576460	0.512870
C2081	C208	0.818520	0.658220	0.454490
C2091	C209	0.870400	0.647940	0.433040
C2101	C210	0.756390	0.536760	0.629180
C2111	C211	0.785210	0.696170	0.431930
C2121	C212	0.802540	0.626300	0.499190
C2131	C213	0.759010	0.647050	0.528410
C2141	C214	0.744310	0.618300	0.570650
C2151	C215	0.772610	0.568060	0.583310
C2161	C216	0.816160	0.547100	0.554360
C2171	C217	0.307170	0.223230	0.184890
C2181	C218	0.318280	0.261240	0.184590
C2191	C219	0.326890	0.132330	0.218610
C2201	C220	0.394790	0.158670	0.171360
C2211	C221	0.411000	0.071540	0.210990
C2221	C222	0.360040	0.082690	0.229440
C2231	C223	0.447400	0.019190	0.223920
C2241	C224	0.427670	0.109350	0.181680
C2251	C225	0.344130	0.170760	0.189900
C2261	C226	0.670560	0.294450	0.850720
C2271	C227	0.677730	0.371670	0.791110
C2281	C228	0.655720	0.331960	0.816640
C2291	C229	0.617810	0.334720	0.806470
C2301	C230	0.648150	0.258980	0.874150
C2311	C231	0.589000	0.221970	0.889000
C2321	C232	0.612210	0.260220	0.864070
C2331	C233	0.595380	0.300340	0.829660
C2341	C234	0.509660	0.124300	0.823540
C2351	C235	0.544840	0.145090	0.801580
C2361	C236	0.483960	0.122730	0.866920
C2371	C237	0.499160	0.103410	0.800110
C2381	C238	0.570330	0.210830	0.868210
C2391	C239	0.557250	0.162430	0.823150
C2401	C240	0.550010	0.173060	0.890170
C2411	C241	0.534270	0.157840	0.866890
C2421	C242	0.496700	0.138830	0.888400
C2431	C243	0.580610	0.076460	0.012870
C2441	C244	0.568770	0.158220	0.954490
C2451	C245	0.548620	0.147940	0.933040
C2461	C246	0.577670	0.036760	0.129180
C2471	C247	0.586690	0.196170	0.931930
C2481	C248	0.571970	0.126300	0.999190
C2491	C249	0.565530	0.147050	0.028410
C2501	C250	0.566740	0.118300	0.070650
C2511	C251	0.576020	0.068060	0.083310
C2521	C252	0.582380	0.047100	0.054360
C2531	C253	0.223230	0.284710	0.184890
C2541	C254	0.261240	0.235890	0.184590
C2551	C255	0.132330	0.322170	0.218610
C2561	C256	0.158670	0.275180	0.171360
C2571	C257	0.071540	0.306470	0.210990
C2581	C258	0.082690	0.327830	0.229440
C2591	C259	0.019190	0.309490	0.223920
C2601	C260	0.109350	0.281300	0.181680
C2611	C261	0.170760	0.295210	0.189900
C2621	C262	0.294450	0.184270	0.850720
C2631	C263	0.371670	0.159490	0.791110
C2641	C264	0.331960	0.195680	0.816640
C2651	C265	0.334720	0.241000	0.806470
C2661	C266	0.258980	0.218720	0.874150
C2671	C267	0.221970	0.300030	0.889000
C2681	C268	0.260220	0.263500	0.864070
C2691	C269	0.300340	0.274620	0.829660
C2701	C270	0.124300	0.542500	0.823540
C2711	C271	0.145090	0.508490	0.801580
C2721	C272	0.122730	0.526390	0.866920
C2731	C273	0.103410	0.597320	0.800110
C2741	C274	0.210830	0.350630	0.868210
C2751	C275	0.162430	0.457170	0.823150
C2761	C276	0.173060	0.386760	0.890170
C2771	C277	0.157840	0.441000	0.866890
C2781	C278	0.138830	0.476070	0.888400
C2791	C279	0.076460	0.330060	0.012870
C2801	C280	0.158220	0.318520	0.954490
C2811	C281	0.147940	0.370400	0.933040
C2821	C282	0.036760	0.256390	0.129180
C2831	C283	0.196170	0.285210	0.931930
C2841	C284	0.126300	0.302540	0.999190
C2851	C285	0.147050	0.259010	0.028410
C2861	C286	0.118300	0.244310	0.070650
C2871	C287	0.068060	0.272610	0.083310
C2881	C288	0.047100	0.316160	0.054360
C2891	C289	0.284710	0.307170	0.184890
C2901	C290	0.235890	0.318280	0.184590
C2911	C291	0.322170	0.326890	0.218610
C2921	C292	0.275180	0.394790	0.171360
C2931	C293	0.306470	0.411000	0.210990
C2941	C294	0.327830	0.360040	0.229440
C2951	C295	0.309490	0.447400	0.223920
C2961	C296	0.281300	0.427670	0.181680
C2971	C297	0.295210	0.344130	0.189900
C2981	C298	0.184270	0.670560	0.850720
C2991	C299	0.159490	0.677730	0.791110
C3001	C300	0.195680	0.655720	0.816640
C3011	C301	0.241000	0.617810	0.806470
C3021	C302	0.218720	0.648150	0.874150
C3031	C303	0.300030	0.589000	0.889000
C3041	C304	0.263500	0.612210	0.864070
C3051	C305	0.274620	0.595380	0.829660
C3061	C306	0.542500	0.509660	0.823540
C3071	C307	0.508490	0.544840	0.801580
C3081	C308	0.526390	0.483960	0.866920
C3091	C309	0.597320	0.499160	0.800110
C3101	C310	0.350630	0.570330	0.868210
C3111	C311	0.457170	0.557250	0.823150
C3121	C312	0.386760	0.550010	0.890170
C3131	C313	0.441000	0.534270	0.866890
C3141	C314	0.476070	0.496700	0.888400
C3151	C315	0.330060	0.580610	0.012870
C3161	C316	0.318520	0.568770	0.954490
C3171	C317	0.370400	0.548620	0.933040
C3181	C318	0.256390	0.577670	0.129180
C3191	C319	0.285210	0.586690	0.931930
C3201	C320	0.302540	0.571970	0.999190
C3211	C321	0.259010	0.565530	0.028410
C3221	C322	0.244310	0.566740	0.070650
C3231	C323	0.272610	0.576020	0.083310
C3241	C324	0.316160	0.582380	0.054360
C3251	C325	0.192830	0.215290	0.315110
C3261	C326	0.181720	0.264110	0.315410
C3271	C327	0.173110	0.177830	0.281390
C3281	C328	0.105210	0.224820	0.328640
C3291	C329	0.089000	0.193530	0.289010
C3301	C330	0.139960	0.172170	0.270560
C3311	C331	0.052600	0.190510	0.276080
C3321	C332	0.072330	0.218700	0.318320
C3331	C333	0.155870	0.204790	0.310100
C3341	C334	0.829440	0.315730	0.649280
C3351	C335	0.822270	0.340510	0.708890
C3361	C336	0.844280	0.304320	0.683360
C3371	C337	0.882190	0.259000	0.693530
C3381	C338	0.851850	0.281280	0.625850
C3391	C339	0.911000	0.199970	0.611000
C3401	C340	0.887790	0.236500	0.635930
C3411	C341	0.904620	0.225380	0.670340
C3421	C342	0.990340	0.957500	0.676460
C3431	C343	0.955160	0.991510	0.698420
C3441	C344	0.016040	0.973610	0.633080
C3451	C345	0.000840	0.902680	0.699890
C3461	C346	0.929670	0.149370	0.631790
C3471	C347	0.942750	0.042830	0.676850
C3481	C348	0.949990	0.113240	0.609830
C3491	C349	0.965730	0.059000	0.633110
C3501	C350	0.003300	0.023930	0.611600
C3511	C351	0.919390	0.169940	0.487130
C3521	C352	0.931230	0.181480	0.545510
C3531	C353	0.951380	0.129600	0.566960
C3541	C354	0.922330	0.243610	0.370820
C3551	C355	0.913310	0.214790	0.568070
C3561	C356	0.928030	0.197460	0.500810
C3571	C357	0.934470	0.240990	0.471590
C3581	C358	0.933260	0.255690	0.429350
C3591	C359	0.923980	0.227390	0.416690
C3601	C360	0.917620	0.183840	0.445640
C3611	C361	0.276770	0.192830	0.315110
C3621	C362	0.238760	0.181720	0.315410
C3631	C363	0.367670	0.173110	0.281390
C3641	C364	0.341330	0.105210	0.328640
C3651	C365	0.428460	0.089000	0.289010
C3661	C366	0.417310	0.139960	0.270560
C3671	C367	0.480810	0.052600	0.276080
C3681	C368	0.390650	0.072330	0.318320
C3691	C369	0.329240	0.155870	0.310100
C3701	C370	0.205550	0.829440	0.649280
C3711	C371	0.128330	0.822270	0.708890
C3721	C372	0.168040	0.844280	0.683360
C3731	C373	0.165280	0.882190	0.693530
C3741	C374	0.241020	0.851850	0.625850
C3751	C375	0.278030	0.911000	0.611000
C3761	C376	0.239780	0.887790	0.635930
C3771	C377	0.199660	0.904620	0.670340
C3781	C378	0.375700	0.990340	0.676460
C3791	C379	0.354910	0.955160	0.698420
C3801	C380	0.377270	0.016040	0.633080
C3811	C381	0.396590	0.000840	0.699890
C3821	C382	0.289170	0.929670	0.631790
C3831	C383	0.337570	0.942750	0.676850
C3841	C384	0.326940	0.949990	0.609830
C3851	C385	0.342160	0.965730	0.633110
C3861	C386	0.361170	0.003300	0.611600
C3871	C387	0.423540	0.919390	0.487130
C3881	C388	0.341780	0.931230	0.545510
C3891	C389	0.352060	0.951380	0.566960
C3901	C390	0.463240	0.922330	0.370820
C3911	C391	0.303830	0.913310	0.568070
C3921	C392	0.373700	0.928030	0.500810
C3931	C393	0.352950	0.934470	0.471590
C3941	C394	0.381700	0.933260	0.429350
C3951	C395	0.431940	0.923980	0.416690
C3961	C396	0.452900	0.917620	0.445640
C3971	C397	0.215290	0.276770	0.315110
C3981	C398	0.264110	0.238760	0.315410
C3991	C399	0.177830	0.367670	0.281390
C4001	C400	0.224820	0.341330	0.328640
C4011	C401	0.193530	0.428460	0.289010
C4021	C402	0.172170	0.417310	0.270560
C4031	C403	0.190510	0.480810	0.276080
C4041	C404	0.218700	0.390650	0.318320
C4051	C405	0.204790	0.329240	0.310100
C4061	C406	0.315730	0.205550	0.649280
C4071	C407	0.340510	0.128330	0.708890
C4081	C408	0.304320	0.168040	0.683360
C4091	C409	0.259000	0.165280	0.693530
C4101	C410	0.281280	0.241020	0.625850
C4111	C411	0.199970	0.278030	0.611000
C4121	C412	0.236500	0.239780	0.635930
C4131	C413	0.225380	0.199660	0.670340
C4141	C414	0.957500	0.375700	0.676460
C4151	C415	0.991510	0.354910	0.698420
C4161	C416	0.973610	0.377270	0.633080
C4171	C417	0.902680	0.396590	0.699890
C4181	C418	0.149370	0.289170	0.631790
C4191	C419	0.042830	0.337570	0.676850
C4201	C420	0.113240	0.326940	0.609830
C4211	C421	0.059000	0.342160	0.633110
C4221	C422	0.023930	0.361170	0.611600
C4231	C423	0.169940	0.423540	0.487130
C4241	C424	0.181480	0.341780	0.545510
C4251	C425	0.129600	0.352060	0.566960
C4261	C426	0.243610	0.463240	0.370820
C4271	C427	0.214790	0.303830	0.568070
C4281	C428	0.197460	0.373700	0.500810
C4291	C429	0.240990	0.352950	0.471590
C4301	C430	0.255690	0.381700	0.429350
C4311	C431	0.227390	0.431940	0.416690
C4321	C432	0.183840	0.452900	0.445640
O11	O1	0.507420	0.988830	0.799600
O21	O2	0.568460	0.011840	0.743590
O31	O3	0.330780	0.598790	0.243750
O41	O4	0.295360	0.628320	0.190650
O51	O5	0.477280	0.893580	0.238020
O61	O6	0.534490	0.916050	0.176790
O71	O7	0.413620	0.009540	0.862180
O81	O8	0.430070	0.942210	0.845380
O91	O9	0.410790	0.031250	0.769960
O101	O10	0.988830	0.704150	0.799600
O111	O11	0.011840	0.676110	0.743590
O121	O12	0.598790	0.826680	0.243750
O131	O13	0.628320	0.885670	0.190650
O141	O14	0.893580	0.391120	0.238020
O151	O15	0.916050	0.372670	0.176790
O161	O16	0.009540	0.714660	0.862180
O171	O17	0.942210	0.782340	0.845380
O181	O18	0.031250	0.788000	0.769960
O191	O19	0.704150	0.507420	0.799600
O201	O20	0.676110	0.568460	0.743590
O211	O21	0.826680	0.330780	0.243750
O221	O22	0.885670	0.295360	0.190650
O231	O23	0.391120	0.477280	0.238020
O241	O24	0.372670	0.534490	0.176790
O251	O25	0.714660	0.413620	0.862180
O261	O26	0.782340	0.430070	0.845380
O271	O27	0.788000	0.410790	0.769960
O281	O28	0.992580	0.795850	0.700400
O291	O29	0.931540	0.823890	0.756410
O301	O30	0.169220	0.673320	0.256250
O311	O31	0.204640	0.614330	0.309350
O321	O32	0.022720	0.108880	0.261980
O331	O33	0.965510	0.127330	0.323210
O341	O34	0.086380	0.785340	0.637820
O351	O35	0.069930	0.717660	0.654620
O361	O36	0.089210	0.712000	0.730040
O371	O37	0.511170	0.992580	0.700400
O381	O38	0.488160	0.931540	0.756410
O391	O39	0.901210	0.169220	0.256250
O401	O40	0.871680	0.204640	0.309350
O411	O41	0.606420	0.022720	0.261980
O421	O42	0.583950	0.965510	0.323210
O431	O43	0.490460	0.086380	0.637820
O441	O44	0.557790	0.069930	0.654620
O451	O45	0.468750	0.089210	0.730040
O461	O46	0.795850	0.511170	0.700400
O471	O47	0.823890	0.488160	0.756410
O481	O48	0.673320	0.901210	0.256250
O491	O49	0.614330	0.871680	0.309350
O501	O50	0.108880	0.606420	0.261980
O511	O51	0.127330	0.583950	0.323210
O521	O52	0.785340	0.490460	0.637820
O531	O53	0.717660	0.557790	0.654620
O541	O54	0.712000	0.468750	0.730040
O551	O55	0.492580	0.011170	0.200400
O561	O56	0.431540	0.988160	0.256410
O571	O57	0.669220	0.401210	0.756250
O581	O58	0.704640	0.371680	0.809350
O591	O59	0.522720	0.106420	0.761980
O601	O60	0.465510	0.083950	0.823210
O611	O61	0.586380	0.990460	0.137820
O621	O62	0.569930	0.057790	0.154620
O631	O63	0.589210	0.968750	0.230040
O641	O64	0.011170	0.295850	0.200400
O651	O65	0.988160	0.323890	0.256410
O661	O66	0.401210	0.173320	0.756250
O671	O67	0.371680	0.114330	0.809350
O681	O68	0.106420	0.608880	0.761980
O691	O69	0.083950	0.627330	0.823210
O701	O70	0.990460	0.285340	0.137820
O711	O71	0.057790	0.217660	0.154620
O721	O72	0.968750	0.212000	0.230040
O731	O73	0.295850	0.492580	0.200400
O741	O74	0.323890	0.431540	0.256410
O751	O75	0.173320	0.669220	0.756250
O761	O76	0.114330	0.704640	0.809350
O771	O77	0.608880	0.522720	0.761980
O781	O78	0.627330	0.465510	0.823210
O791	O79	0.285340	0.586380	0.137820
O801	O80	0.217660	0.569930	0.154620
O811	O81	0.212000	0.589210	0.230040
O821	O82	0.007420	0.204150	0.299600
O831	O83	0.068460	0.176110	0.243590
O841	O84	0.830780	0.326680	0.743750
O851	O85	0.795360	0.385670	0.690650
O861	O86	0.977280	0.891120	0.738020
O871	O87	0.034490	0.872670	0.676790
O881	O88	0.913620	0.214660	0.362180
O891	O89	0.930070	0.282340	0.345380
O901	O90	0.910790	0.288000	0.269960
O911	O91	0.488830	0.007420	0.299600
O921	O92	0.511840	0.068460	0.243590
O931	O93	0.098790	0.830780	0.743750
O941	O94	0.128320	0.795360	0.690650
O951	O95	0.393580	0.977280	0.738020
O961	O96	0.416050	0.034490	0.676790
O971	O97	0.509540	0.913620	0.362180
O981	O98	0.442210	0.930070	0.345380
O991	O99	0.531250	0.910790	0.269960
O1001	O100	0.204150	0.488830	0.299600
O1011	O101	0.176110	0.511840	0.243590
O1021	O102	0.326680	0.098790	0.743750
O1031	O103	0.385670	0.128320	0.690650
O1041	O104	0.891120	0.393580	0.738020
O1051	O105	0.872670	0.416050	0.676790
O1061	O106	0.214660	0.509540	0.362180
O1071	O107	0.282340	0.442210	0.345380
O1081	O108	0.288000	0.531250	0.269960
