data_WAVREQ_clean_PM
_symmetry_space_group_name_H-M	'P1'
_cell_length_a	31.950000
_cell_length_b	8.359600
_cell_length_c	15.919500
_cell_angle_alpha	90.000000
_cell_angle_beta	96.645000
_cell_angle_gamma	90.000000
_symmetry_Int_Tables_number 1

loop_
_symmetry_equiv_pos_as_xyz
'x,y,z'

loop_
_atom_site_label
_atom_site_type_symbol
_atom_site_fract_x
_atom_site_fract_y
_atom_site_fract_z
Co11	Co1	0.128230	0.719060	0.059460
Co21	Co2	0.371630	0.208070	0.910450
Co31	Co3	0.249500	0.505050	0.108840
Co41	Co4	0.246470	0.486260	0.366720
Co51	Co5	0.507740	0.261920	0.988540
Co61	Co6	0.993640	0.758790	0.013600
P11	P1	0.169330	0.468000	0.205450
P21	P2	0.219040	0.792900	0.990270
P31	P3	0.063800	0.982700	0.109750
P41	P4	0.281700	0.344900	0.941570
P51	P5	0.435210	0.037100	0.059960
P61	P6	0.056360	0.554800	0.919350
P71	P7	0.442750	0.481000	0.871120
P81	P8	0.325500	0.529900	0.276850
O11	O1	0.171400	0.769100	0.988100
O21	O2	0.148900	0.624300	0.168600
O31	O3	0.085390	0.577200	0.002500
O41	O4	0.109200	0.929000	0.104000
O51	O5	0.405200	0.047300	0.979300
O61	O6	0.324480	0.270100	0.972100
O71	O7	0.399960	0.411400	0.885300
O81	O8	0.353300	0.382400	0.298100
O91	O9	0.295200	0.491400	0.198900
O101	O10	0.254800	0.362700	0.013300
O111	O11	0.199030	0.398500	0.144000
O121	O12	0.243600	0.725700	0.070800
O131	O13	0.258000	0.248500	0.868300
O141	O14	0.302000	0.578600	0.351300
O151	O15	0.194500	0.510700	0.289400
O161	O16	0.229000	0.972500	0.981900
O171	O17	0.478100	0.354900	0.885900
O181	O18	0.470400	0.164000	0.063800
O191	O19	0.453800	0.868600	0.072300
O201	O20	0.451700	0.624700	0.931000
O211	O21	0.019000	0.673200	0.917100
O221	O22	0.051100	0.107400	0.042000
O231	O23	0.034400	0.837300	0.105200
O241	O24	0.038700	0.381600	0.917000
O251	O25	0.135700	0.342400	0.214500
O261	O26	0.232500	0.713500	0.909600
O271	O27	0.061500	0.069200	0.196700
H11	H1	0.068100	0.006200	0.235500
O281	O28	0.289300	0.515100	0.903700
H21	H2	0.303900	0.506200	0.864800
O291	O29	0.409500	0.070000	0.136600
H31	H3	0.425400	0.064900	0.180900
O301	O30	0.079500	0.577400	0.842100
O311	O31	0.442000	0.540900	0.779500
O321	O32	0.354000	0.674800	0.260200
Co71	Co7	0.871770	0.219060	0.440540
Co81	Co8	0.628370	0.708070	0.589550
Co91	Co9	0.750500	0.005050	0.391160
Co101	Co10	0.753530	0.986260	0.133280
Co111	Co11	0.492260	0.761920	0.511460
Co121	Co12	0.006360	0.258790	0.486400
P91	P9	0.830670	0.968000	0.294550
P101	P10	0.780960	0.292900	0.509730
P111	P11	0.936200	0.482700	0.390250
P121	P12	0.718300	0.844900	0.558430
P131	P13	0.564790	0.537100	0.440040
P141	P14	0.943640	0.054800	0.580650
P151	P15	0.557250	0.981000	0.628880
P161	P16	0.674500	0.029900	0.223150
O331	O33	0.828600	0.269100	0.511900
O341	O34	0.851100	0.124300	0.331400
O351	O35	0.914610	0.077200	0.497500
O361	O36	0.890800	0.429000	0.396000
O371	O37	0.594800	0.547300	0.520700
O381	O38	0.675520	0.770100	0.527900
O391	O39	0.600040	0.911400	0.614700
O401	O40	0.646700	0.882400	0.201900
O411	O41	0.704800	0.991400	0.301100
O421	O42	0.745200	0.862700	0.486700
O431	O43	0.800970	0.898500	0.356000
O441	O44	0.756400	0.225700	0.429200
O451	O45	0.742000	0.748500	0.631700
O461	O46	0.698000	0.078600	0.148700
O471	O47	0.805500	0.010700	0.210600
O481	O48	0.771000	0.472500	0.518100
O491	O49	0.521900	0.854900	0.614100
O501	O50	0.529600	0.664000	0.436200
O511	O51	0.546200	0.368600	0.427700
O521	O52	0.548300	0.124700	0.569000
O531	O53	0.981000	0.173200	0.582900
O541	O54	0.948900	0.607400	0.458000
O551	O55	0.965600	0.337300	0.394800
O561	O56	0.961300	0.881600	0.583000
O571	O57	0.864300	0.842400	0.285500
O581	O58	0.767500	0.213500	0.590400
O591	O59	0.938500	0.569200	0.303300
H41	H4	0.931900	0.506200	0.264500
O601	O60	0.710700	0.015100	0.596300
H51	H5	0.696100	0.006200	0.635200
O611	O61	0.590500	0.570000	0.363400
H61	H6	0.574600	0.564900	0.319100
O621	O62	0.920500	0.077400	0.657900
O631	O63	0.558000	0.040900	0.720500
O641	O64	0.646000	0.174800	0.239800
Co131	Co13	0.871770	0.280940	0.940540
Co141	Co14	0.628370	0.791930	0.089550
Co151	Co15	0.750500	0.494950	0.891160
Co161	Co16	0.753530	0.513740	0.633280
Co171	Co17	0.492260	0.738080	0.011460
Co181	Co18	0.006360	0.241210	0.986400
P171	P17	0.830670	0.532000	0.794550
P181	P18	0.780960	0.207100	0.009730
P191	P19	0.936200	0.017300	0.890250
P201	P20	0.718300	0.655100	0.058430
P211	P21	0.564790	0.962900	0.940040
P221	P22	0.943640	0.445200	0.080650
P231	P23	0.557250	0.519000	0.128880
P241	P24	0.674500	0.470100	0.723150
O651	O65	0.828600	0.230900	0.011900
O661	O66	0.851100	0.375700	0.831400
O671	O67	0.914610	0.422800	0.997500
O681	O68	0.890800	0.071000	0.896000
O691	O69	0.594800	0.952700	0.020700
O701	O70	0.675520	0.729900	0.027900
O711	O71	0.600040	0.588600	0.114700
O721	O72	0.646700	0.617600	0.701900
O731	O73	0.704800	0.508600	0.801100
O741	O74	0.745200	0.637300	0.986700
O751	O75	0.800970	0.601500	0.856000
O761	O76	0.756400	0.274300	0.929200
O771	O77	0.742000	0.751500	0.131700
O781	O78	0.698000	0.421400	0.648700
O791	O79	0.805500	0.489300	0.710600
O801	O80	0.771000	0.027500	0.018100
O811	O81	0.521900	0.645100	0.114100
O821	O82	0.529600	0.836000	0.936200
O831	O83	0.546200	0.131400	0.927700
O841	O84	0.548300	0.375300	0.069000
O851	O85	0.981000	0.326800	0.082900
O861	O86	0.948900	0.892600	0.958000
O871	O87	0.965600	0.162700	0.894800
O881	O88	0.961300	0.618400	0.083000
O891	O89	0.864300	0.657600	0.785500
O901	O90	0.767500	0.286500	0.090400
O911	O91	0.938500	0.930800	0.803300
H71	H7	0.931900	0.993800	0.764500
O921	O92	0.710700	0.484900	0.096300
H81	H8	0.696100	0.493800	0.135200
O931	O93	0.590500	0.930000	0.863400
H91	H9	0.574600	0.935100	0.819100
O941	O94	0.920500	0.422600	0.157900
O951	O95	0.558000	0.459100	0.220500
O961	O96	0.646000	0.325200	0.739800
Co191	Co19	0.128230	0.780940	0.559460
Co201	Co20	0.371630	0.291930	0.410450
Co211	Co21	0.249500	0.994950	0.608840
Co221	Co22	0.246470	0.013740	0.866720
Co231	Co23	0.507740	0.238080	0.488540
Co241	Co24	0.993640	0.741210	0.513600
P251	P25	0.169330	0.032000	0.705450
P261	P26	0.219040	0.707100	0.490270
P271	P27	0.063800	0.517300	0.609750
P281	P28	0.281700	0.155100	0.441570
P291	P29	0.435210	0.462900	0.559960
P301	P30	0.056360	0.945200	0.419350
P311	P31	0.442750	0.019000	0.371120
P321	P32	0.325500	0.970100	0.776850
O971	O97	0.171400	0.730900	0.488100
O981	O98	0.148900	0.875700	0.668600
O991	O99	0.085390	0.922800	0.502500
O1001	O100	0.109200	0.571000	0.604000
O1011	O101	0.405200	0.452700	0.479300
O1021	O102	0.324480	0.229900	0.472100
O1031	O103	0.399960	0.088600	0.385300
O1041	O104	0.353300	0.117600	0.798100
O1051	O105	0.295200	0.008600	0.698900
O1061	O106	0.254800	0.137300	0.513300
O1071	O107	0.199030	0.101500	0.644000
O1081	O108	0.243600	0.774300	0.570800
O1091	O109	0.258000	0.251500	0.368300
O1101	O110	0.302000	0.921400	0.851300
O1111	O111	0.194500	0.989300	0.789400
O1121	O112	0.229000	0.527500	0.481900
O1131	O113	0.478100	0.145100	0.385900
O1141	O114	0.470400	0.336000	0.563800
O1151	O115	0.453800	0.631400	0.572300
O1161	O116	0.451700	0.875300	0.431000
O1171	O117	0.019000	0.826800	0.417100
O1181	O118	0.051100	0.392600	0.542000
O1191	O119	0.034400	0.662700	0.605200
O1201	O120	0.038700	0.118400	0.417000
O1211	O121	0.135700	0.157600	0.714500
O1221	O122	0.232500	0.786500	0.409600
O1231	O123	0.061500	0.430800	0.696700
H101	H10	0.068100	0.493800	0.735500
O1241	O124	0.289300	0.984900	0.403700
H111	H11	0.303900	0.993800	0.364800
O1251	O125	0.409500	0.430000	0.636600
H121	H12	0.425400	0.435100	0.680900
O1261	O126	0.079500	0.922600	0.342100
O1271	O127	0.442000	0.959100	0.279500
O1281	O128	0.354000	0.825200	0.760200
