data_WAXHUB_clean_PM
_symmetry_space_group_name_H-M	'P1'
_cell_length_a	11.217000
_cell_length_b	11.217000
_cell_length_c	11.217000
_cell_angle_alpha	90.000000
_cell_angle_beta	90.000000
_cell_angle_gamma	90.000000
_symmetry_Int_Tables_number 1

loop_
_symmetry_equiv_pos_as_xyz
'x,y,z'

loop_
_atom_site_label
_atom_site_type_symbol
_atom_site_fract_x
_atom_site_fract_y
_atom_site_fract_z
Co11	Co1	0.500000	0.500000	0.000000
Co21	Co2	0.000000	0.500000	0.500000
Co31	Co3	0.500000	0.000000	0.500000
Co41	Co4	0.000000	0.000000	0.000000
Sr11	Sr1	0.500000	0.000000	0.000000
Sr21	Sr2	0.500000	0.500000	0.500000
Sr31	Sr3	0.000000	0.500000	0.000000
Sr41	Sr4	0.000000	0.000000	0.500000
C11	C1	0.500000	0.668500	0.000000
N11	N1	0.500000	0.769800	0.000000
C21	C2	0.500000	0.168500	0.500000
N21	N2	0.500000	0.269800	0.500000
C31	C3	0.500000	0.331500	0.000000
N31	N3	0.500000	0.230200	0.000000
C41	C4	0.500000	0.831500	0.500000
N41	N4	0.500000	0.730200	0.500000
C51	C5	0.000000	0.331500	0.500000
N51	N5	0.000000	0.230200	0.500000
C61	C6	0.000000	0.168500	0.000000
N61	N6	0.000000	0.269800	0.000000
C71	C7	0.000000	0.500000	0.668500
N71	N7	0.000000	0.500000	0.769800
C81	C8	0.000000	0.000000	0.168500
N81	N8	0.000000	0.000000	0.269800
C91	C9	0.000000	0.500000	0.331500
N91	N9	0.000000	0.500000	0.230200
C101	C10	0.000000	0.000000	0.831500
N101	N10	0.000000	0.000000	0.730200
C111	C11	0.500000	0.000000	0.331500
N111	N11	0.500000	0.000000	0.230200
C121	C12	0.500000	0.500000	0.831500
N121	N12	0.500000	0.500000	0.730200
C131	C13	0.668500	0.000000	0.500000
N131	N13	0.769800	0.000000	0.500000
C141	C14	0.168500	0.000000	0.000000
N141	N14	0.269800	0.000000	0.000000
C151	C15	0.168500	0.500000	0.500000
N151	N15	0.269800	0.500000	0.500000
C161	C16	0.331500	0.000000	0.500000
N161	N16	0.230200	0.000000	0.500000
C171	C17	0.831500	0.000000	0.000000
N171	N17	0.730200	0.000000	0.000000
C181	C18	0.668500	0.500000	0.000000
N181	N18	0.769800	0.500000	0.000000
C191	C19	0.331500	0.500000	0.000000
N191	N19	0.230200	0.500000	0.000000
C201	C20	0.831500	0.500000	0.500000
N201	N20	0.730200	0.500000	0.500000
C211	C21	0.500000	0.000000	0.668500
N211	N21	0.500000	0.000000	0.769800
C221	C22	0.500000	0.500000	0.168500
N221	N22	0.500000	0.500000	0.269800
C231	C23	0.000000	0.668500	0.500000
N231	N23	0.000000	0.769800	0.500000
C241	C24	0.000000	0.831500	0.000000
N241	N24	0.000000	0.730200	0.000000
