data_WAXJAJ01_clean_PM
_symmetry_space_group_name_H-M	'P1'
_cell_length_a	7.877000
_cell_length_b	15.693000
_cell_length_c	11.200000
_cell_angle_alpha	90.000000
_cell_angle_beta	91.770000
_cell_angle_gamma	90.000000
_symmetry_Int_Tables_number 1

loop_
_symmetry_equiv_pos_as_xyz
'x,y,z'

loop_
_atom_site_label
_atom_site_type_symbol
_atom_site_fract_x
_atom_site_fract_y
_atom_site_fract_z
C11	C1	0.601700	0.241750	0.199300
C21	C2	0.757900	0.151320	0.369400
C31	C3	0.552000	0.075700	0.205500
C41	C4	0.742000	0.140540	0.030400
C51	C5	0.940400	0.219200	0.197800
C61	C6	0.603000	0.550350	0.299100
Co11	Co1	0.748490	0.145790	0.199960
N11	N1	0.508300	0.297500	0.204200
N21	N2	0.762100	0.156720	0.471400
N31	N3	0.057400	0.262420	0.197200
N41	N4	0.744000	0.136450	0.928500
N51	N5	0.428800	0.036460	0.211700
N61	N6	0.508700	0.494610	0.302900
Sr11	Sr1	0.249040	0.404520	0.195870
C71	C7	0.898300	0.741750	0.300700
C81	C8	0.742100	0.651320	0.130600
C91	C9	0.948000	0.575700	0.294500
C101	C10	0.758000	0.640540	0.469600
C111	C11	0.559600	0.719200	0.302200
C121	C12	0.897000	0.050350	0.200900
Co21	Co2	0.751510	0.645790	0.300040
N71	N7	0.991700	0.797500	0.295800
N81	N8	0.737900	0.656720	0.028600
N91	N9	0.442600	0.762420	0.302800
N101	N10	0.756000	0.636450	0.571500
N111	N11	0.071200	0.536460	0.288300
N121	N12	0.991300	0.994610	0.197100
Sr21	Sr2	0.250960	0.904520	0.304130
C131	C13	0.398300	0.758250	0.800700
C141	C14	0.242100	0.848680	0.630600
C151	C15	0.448000	0.924300	0.794500
C161	C16	0.258000	0.859460	0.969600
C171	C17	0.059600	0.780800	0.802200
C181	C18	0.397000	0.449650	0.700900
Co31	Co3	0.251510	0.854210	0.800040
N131	N13	0.491700	0.702500	0.795800
N141	N14	0.237900	0.843280	0.528600
N151	N15	0.942600	0.737580	0.802800
N161	N16	0.256000	0.863550	0.071500
N171	N17	0.571200	0.963540	0.788300
N181	N18	0.491300	0.505390	0.697100
Sr31	Sr3	0.750960	0.595480	0.804130
C191	C19	0.101700	0.258250	0.699300
C201	C20	0.257900	0.348680	0.869400
C211	C21	0.052000	0.424300	0.705500
C221	C22	0.242000	0.359460	0.530400
C231	C23	0.440400	0.280800	0.697800
C241	C24	0.103000	0.949650	0.799100
Co41	Co4	0.248490	0.354210	0.699960
N191	N19	0.008300	0.202500	0.704200
N201	N20	0.262100	0.343280	0.971400
N211	N21	0.557400	0.237580	0.697200
N221	N22	0.244000	0.363550	0.428500
N231	N23	0.928800	0.463540	0.711700
N241	N24	0.008700	0.005390	0.802900
Sr41	Sr4	0.749040	0.095480	0.695870
