data_WAYMEQ_SL_PM
_symmetry_space_group_name_H-M	'P1'
_cell_length_a	16.780700
_cell_length_b	6.612500
_cell_length_c	12.714300
_cell_angle_alpha	90.000000
_cell_angle_beta	90.000000
_cell_angle_gamma	90.000000
_symmetry_Int_Tables_number 1

loop_
_symmetry_equiv_pos_as_xyz
'x,y,z'

loop_
_atom_site_label
_atom_site_type_symbol
_atom_site_fract_x
_atom_site_fract_y
_atom_site_fract_z
C11	C1	0.295300	0.198000	0.986500
C21	C2	0.218100	0.198200	0.047600
O31	O3	0.423800	0.848600	0.847800
O41	O4	0.588200	0.337700	0.665200
H51	H5	0.324490	0.347230	0.963440
H61	H6	0.189010	0.347580	0.070620
H71	H7	0.500000	0.500000	0.886550
H81	H8	0.500000	0.000000	0.614050
C91	C9	0.795300	0.698000	0.486500
C101	C10	0.718100	0.698200	0.547600
O111	O11	0.923800	0.348600	0.347800
O121	O12	0.088200	0.837700	0.165200
H131	H13	0.824490	0.847230	0.463440
H141	H14	0.689010	0.847580	0.570620
H151	H15	0.000000	0.000000	0.386550
H161	H16	0.000000	0.500000	0.114050
C171	C17	0.704700	0.802000	0.986500
C181	C18	0.781900	0.801800	0.047600
O191	O19	0.576200	0.151400	0.847800
O201	O20	0.411800	0.662300	0.665200
H211	H21	0.675510	0.652770	0.963440
H221	H22	0.810990	0.652420	0.070620
C251	C25	0.204700	0.302000	0.486500
C261	C26	0.281900	0.301800	0.547600
O271	O27	0.076200	0.651400	0.347800
O281	O28	0.911800	0.162300	0.165200
H291	H29	0.175510	0.152770	0.463440
H301	H30	0.310990	0.152420	0.570620
C331	C33	0.295300	0.802000	0.986500
C341	C34	0.218100	0.801800	0.047600
O351	O35	0.423800	0.151400	0.847800
O361	O36	0.588200	0.662300	0.665200
H371	H37	0.324490	0.652770	0.963440
H381	H38	0.189010	0.652420	0.070620
C411	C41	0.795300	0.302000	0.486500
C421	C42	0.718100	0.301800	0.547600
O431	O43	0.923800	0.651400	0.347800
O441	O44	0.088200	0.162300	0.165200
H451	H45	0.824490	0.152770	0.463440
H461	H46	0.689010	0.152420	0.570620
C491	C49	0.704700	0.198000	0.986500
C501	C50	0.781900	0.198200	0.047600
O511	O51	0.576200	0.848600	0.847800
O521	O52	0.411800	0.337700	0.665200
H531	H53	0.675510	0.347230	0.963440
H541	H54	0.810990	0.347580	0.070620
C571	C57	0.204700	0.698000	0.486500
C581	C58	0.281900	0.698200	0.547600
O591	O59	0.076200	0.348600	0.347800
O601	O60	0.911800	0.837700	0.165200
H611	H61	0.175510	0.847230	0.463440
H621	H62	0.310990	0.847580	0.570620
Al651	Al65	0.500000	0.750000	0.750000
Al661	Al66	0.000000	0.250000	0.250000
Al671	Al67	0.500000	0.250000	0.750000
Al681	Al68	0.000000	0.750000	0.250000
C691	C69	0.194600	0.000000	0.066200
C701	C70	0.318600	0.000000	0.968000
C711	C71	0.386000	0.000000	0.891800
C721	C72	0.694600	0.500000	0.566200
C731	C73	0.818600	0.500000	0.468000
C741	C74	0.886000	0.500000	0.391800
C751	C75	0.805400	0.000000	0.066200
C761	C76	0.681400	0.000000	0.968000
C771	C77	0.614000	0.000000	0.891800
C781	C78	0.305400	0.500000	0.566200
C791	C79	0.181400	0.500000	0.468000
C801	C80	0.114000	0.500000	0.391800
C811	C81	0.621100	0.500000	0.631200
C821	C82	0.121100	0.000000	0.131200
C831	C83	0.378900	0.500000	0.631200
C841	C84	0.878900	0.000000	0.131200
O851	O85	0.500000	0.500000	0.807900
O861	O86	0.000000	0.000000	0.307900
O871	O87	0.500000	0.000000	0.692700
O881	O88	0.000000	0.500000	0.192700
