data_WAZCUX_clean_PM
_symmetry_space_group_name_H-M	'P1'
_cell_length_a	7.209400
_cell_length_b	22.652000
_cell_length_c	10.655300
_cell_angle_alpha	90.000000
_cell_angle_beta	90.554000
_cell_angle_gamma	90.000000
_symmetry_Int_Tables_number 1

loop_
_symmetry_equiv_pos_as_xyz
'x,y,z'

loop_
_atom_site_label
_atom_site_type_symbol
_atom_site_fract_x
_atom_site_fract_y
_atom_site_fract_z
Sm11	Sm1	0.261410	0.250760	0.852580
Sb11	Sb1	0.459560	0.988230	0.123840
Sb21	Sb2	0.569000	0.483380	0.604130
N11	N1	0.198900	0.047790	0.120100
N21	N2	0.221000	0.921100	0.154200
N31	N3	0.805200	0.416210	0.636900
N41	N4	0.831600	0.542470	0.602700
O11	O1	0.381600	0.003110	0.321100
O21	O2	0.264500	0.069370	0.453000
O31	O3	0.523300	0.085730	0.021700
O41	O4	0.388000	0.160090	0.920600
O51	O5	0.576500	0.887090	0.181800
O61	O6	0.503200	0.807590	0.294500
O71	O7	0.357100	0.970580	0.940600
O81	O8	0.204800	0.908400	0.813900
O91	O9	0.449700	0.382740	0.662600
O101	O10	0.519400	0.306620	0.787200
O111	O11	0.673400	0.465810	0.421300
O121	O12	0.821800	0.404100	0.296400
O131	O13	0.646900	0.500630	0.802400
O141	O14	0.764200	0.567420	0.932400
O151	O15	0.507200	0.579260	0.502500
O161	O16	0.637700	0.654900	0.402400
C11	C1	0.210300	0.084700	0.236200
H11	H1	0.289700	0.119500	0.219800
H21	H2	0.084700	0.099200	0.256700
C21	C2	0.288500	0.051200	0.348000
C31	C3	0.194300	0.087300	0.008800
H31	H3	0.151400	0.064600	0.934700
H41	H4	0.104300	0.119500	0.023400
C41	C4	0.381800	0.113600	0.982200
C51	C5	0.030900	0.009200	0.117000
H51	H5	0.004600	0.997500	0.029100
H61	H6	0.923300	0.032100	0.147300
C61	C6	0.051200	0.955300	0.194300
H71	H7	0.063400	0.966300	0.283900
H81	H8	0.939500	0.930300	0.184300
C71	C7	0.268300	0.877500	0.253100
H91	H9	0.254400	0.896100	0.336600
H101	H10	0.181000	0.843800	0.247900
C81	C8	0.462900	0.855200	0.239800
C91	C9	0.192400	0.889600	0.032300
H111	H11	0.263200	0.852200	0.034500
H121	H12	0.059400	0.879600	0.023100
C101	C10	0.251400	0.924800	0.918600
C111	C11	0.759000	0.372700	0.735700
H131	H13	0.780900	0.390800	0.819100
H141	H14	0.842200	0.338200	0.728300
C121	C12	0.560500	0.352300	0.726400
C131	C13	0.832500	0.384600	0.515000
H151	H15	0.760300	0.347400	0.516100
H161	H16	0.965200	0.374000	0.507200
C141	C14	0.774600	0.420200	0.401900
C151	C15	0.976300	0.448900	0.676800
H171	H17	0.086200	0.423200	0.666500
H181	H18	0.967500	0.459600	0.766600
C161	C16	0.999100	0.504800	0.598000
H191	H19	0.107400	0.527400	0.629600
H201	H20	0.023400	0.493600	0.509800
C171	C17	0.823500	0.580100	0.718000
H211	H21	0.746700	0.615400	0.700100
H221	H22	0.950300	0.593700	0.739900
C181	C18	0.743400	0.547400	0.828300
C191	C19	0.836000	0.581800	0.491700
H231	H23	0.878100	0.559100	0.417900
H241	H24	0.926100	0.614000	0.507000
C201	C20	0.647800	0.608000	0.463800
Sm21	Sm2	0.761410	0.749240	0.352580
Sb31	Sb3	0.959560	0.011770	0.623840
Sb41	Sb4	0.069000	0.516620	0.104130
N51	N5	0.698900	0.952210	0.620100
N61	N6	0.721000	0.078900	0.654200
N71	N7	0.305200	0.583790	0.136900
N81	N8	0.331600	0.457530	0.102700
O171	O17	0.881600	0.996890	0.821100
O181	O18	0.764500	0.930630	0.953000
O191	O19	0.023300	0.914270	0.521700
O201	O20	0.888000	0.839910	0.420600
O211	O21	0.076500	0.112910	0.681800
O221	O22	0.003200	0.192410	0.794500
O231	O23	0.857100	0.029420	0.440600
O241	O24	0.704800	0.091600	0.313900
O251	O25	0.949700	0.617260	0.162600
O261	O26	0.019400	0.693380	0.287200
O271	O27	0.173400	0.534190	0.921300
O281	O28	0.321800	0.595900	0.796400
O291	O29	0.146900	0.499370	0.302400
O301	O30	0.264200	0.432580	0.432400
O311	O31	0.007200	0.420740	0.002500
O321	O32	0.137700	0.345100	0.902400
C211	C21	0.710300	0.915300	0.736200
H251	H25	0.789700	0.880500	0.719800
H261	H26	0.584700	0.900800	0.756700
C221	C22	0.788500	0.948800	0.848000
C231	C23	0.694300	0.912700	0.508800
H271	H27	0.651400	0.935400	0.434700
H281	H28	0.604300	0.880500	0.523400
C241	C24	0.881800	0.886400	0.482200
C251	C25	0.530900	0.990800	0.617000
H291	H29	0.504600	0.002500	0.529100
H301	H30	0.423300	0.967900	0.647300
C261	C26	0.551200	0.044700	0.694300
H311	H31	0.563400	0.033700	0.783900
H321	H32	0.439500	0.069700	0.684300
C271	C27	0.768300	0.122500	0.753100
H331	H33	0.754400	0.103900	0.836600
H341	H34	0.681000	0.156200	0.747900
C281	C28	0.962900	0.144800	0.739800
C291	C29	0.692400	0.110400	0.532300
H351	H35	0.763200	0.147800	0.534500
H361	H36	0.559400	0.120400	0.523100
C301	C30	0.751400	0.075200	0.418600
C311	C31	0.259000	0.627300	0.235700
H371	H37	0.280900	0.609200	0.319100
H381	H38	0.342200	0.661800	0.228300
C321	C32	0.060500	0.647700	0.226400
C331	C33	0.332500	0.615400	0.015000
H391	H39	0.260300	0.652600	0.016100
H401	H40	0.465200	0.626000	0.007200
C341	C34	0.274600	0.579800	0.901900
C351	C35	0.476300	0.551100	0.176800
H411	H41	0.586200	0.576800	0.166500
H421	H42	0.467500	0.540400	0.266600
C361	C36	0.499100	0.495200	0.098000
H431	H43	0.607400	0.472600	0.129600
H441	H44	0.523400	0.506400	0.009800
C371	C37	0.323500	0.419900	0.218000
H451	H45	0.246700	0.384600	0.200100
H461	H46	0.450300	0.406300	0.239900
C381	C38	0.243400	0.452600	0.328300
C391	C39	0.336000	0.418200	0.991700
H471	H47	0.378100	0.440900	0.917900
H481	H48	0.426100	0.386000	0.007000
C401	C40	0.147800	0.392000	0.963800
