data_WEBQOL_clean_PM
_symmetry_space_group_name_H-M	'P1'
_cell_length_a	9.880000
_cell_length_b	9.880000
_cell_length_c	13.333000
_cell_angle_alpha	90.000000
_cell_angle_beta	90.000000
_cell_angle_gamma	90.000000
_symmetry_Int_Tables_number 1

loop_
_symmetry_equiv_pos_as_xyz
'x,y,z'

loop_
_atom_site_label
_atom_site_type_symbol
_atom_site_fract_x
_atom_site_fract_y
_atom_site_fract_z
Co11	Co1	0.896040	0.140640	0.698230
P11	P1	0.672840	0.384610	0.679120
O11	O1	0.885800	0.058800	0.564800
O21	O2	0.810100	0.316500	0.678800
O31	O3	0.583000	0.323500	0.762000
O41	O4	0.695000	0.536600	0.698800
O51	O5	0.606900	0.366800	0.575300
Co21	Co2	0.103960	0.859360	0.698230
P21	P2	0.327160	0.615390	0.679120
O61	O6	0.114200	0.941200	0.564800
O71	O7	0.189900	0.683500	0.678800
O81	O8	0.417000	0.676500	0.762000
O91	O9	0.305000	0.463400	0.698800
O101	O10	0.393100	0.633200	0.575300
Co31	Co3	0.140640	0.103960	0.301770
P31	P3	0.384610	0.327160	0.320880
O111	O11	0.058800	0.114200	0.435200
O121	O12	0.316500	0.189900	0.321200
O131	O13	0.323500	0.417000	0.238000
O141	O14	0.536600	0.305000	0.301200
O151	O15	0.366800	0.393100	0.424700
Co41	Co4	0.859360	0.896040	0.301770
P41	P4	0.615390	0.672840	0.320880
O161	O16	0.941200	0.885800	0.435200
O171	O17	0.683500	0.810100	0.321200
O181	O18	0.676500	0.583000	0.238000
O191	O19	0.463400	0.695000	0.301200
O201	O20	0.633200	0.606900	0.424700
Co51	Co5	0.603960	0.640640	0.801770
P51	P5	0.827160	0.884610	0.820880
O211	O21	0.614200	0.558800	0.935200
O221	O22	0.689900	0.816500	0.821200
O231	O23	0.917000	0.823500	0.738000
O241	O24	0.805000	0.036600	0.801200
O251	O25	0.893100	0.866800	0.924700
Co61	Co6	0.396040	0.359360	0.801770
P61	P6	0.172840	0.115390	0.820880
O261	O26	0.385800	0.441200	0.935200
O271	O27	0.310100	0.183500	0.821200
O281	O28	0.083000	0.176500	0.738000
O291	O29	0.195000	0.963400	0.801200
O301	O30	0.106900	0.133200	0.924700
Co71	Co7	0.359360	0.603960	0.198230
P71	P7	0.115390	0.827160	0.179120
O311	O31	0.441200	0.614200	0.064800
O321	O32	0.183500	0.689900	0.178800
O331	O33	0.176500	0.917000	0.262000
O341	O34	0.963400	0.805000	0.198800
O351	O35	0.133200	0.893100	0.075300
Co81	Co8	0.640640	0.396040	0.198230
P81	P8	0.884610	0.172840	0.179120
O361	O36	0.558800	0.385800	0.064800
O371	O37	0.816500	0.310100	0.178800
O381	O38	0.823500	0.083000	0.262000
O391	O39	0.036600	0.195000	0.198800
O401	O40	0.866800	0.106900	0.075300
Co91	Co9	0.500000	0.500000	0.500000
Co101	Co10	0.000000	0.000000	0.000000
P91	P9	0.000000	0.000000	0.500000
P101	P10	0.500000	0.500000	0.000000
