data_WEBQIF_clean_PM
_symmetry_space_group_name_H-M	'P1'
_cell_length_a	13.361000
_cell_length_b	13.789000
_cell_length_c	14.017000
_cell_angle_alpha	90.000000
_cell_angle_beta	90.000000
_cell_angle_gamma	90.000000
_symmetry_Int_Tables_number 1

loop_
_symmetry_equiv_pos_as_xyz
'x,y,z'

loop_
_atom_site_label
_atom_site_type_symbol
_atom_site_fract_x
_atom_site_fract_y
_atom_site_fract_z
Co11	Co1	0.373140	0.240590	0.984910
Co21	Co2	0.372040	0.275070	0.737570
Co31	Co3	0.564810	0.259310	0.358270
Co41	Co4	0.258060	0.373720	0.342760
Co51	Co5	0.276410	0.132220	0.378070
P11	P1	0.392800	0.239000	0.216300
P21	P2	0.387300	0.282100	0.506500
P31	P3	0.256630	0.111200	0.832500
P41	P4	0.240110	0.392230	0.884200
P51	P5	0.569510	0.258400	0.862000
O11	O1	0.398000	0.201400	0.113300
O21	O2	0.380800	0.152700	0.285200
O31	O3	0.490400	0.292500	0.241100
O41	O4	0.303300	0.308100	0.226000
O51	O5	0.387400	0.319400	0.607800
O61	O6	0.309000	0.200800	0.497300
O71	O7	0.493000	0.246400	0.479800
O81	O8	0.359300	0.367400	0.441800
O91	O9	0.341600	0.129400	0.902400
O101	O10	0.269300	0.174300	0.743500
O111	O11	0.155500	0.131000	0.878200
O121	O12	0.261900	0.006000	0.798100
O131	O13	0.261500	0.332100	0.974900
O141	O14	0.327300	0.385800	0.814100
O151	O15	0.142900	0.357100	0.835900
O161	O16	0.225800	0.497300	0.916500
O171	O17	0.504900	0.291500	0.944300
O181	O18	0.506800	0.236400	0.773400
O191	O19	0.627600	0.166600	0.890600
O201	O20	0.641000	0.341700	0.836700
Co61	Co6	0.626860	0.759410	0.984910
Co71	Co7	0.627960	0.724930	0.737570
Co81	Co8	0.435190	0.740690	0.358270
Co91	Co9	0.741940	0.626280	0.342760
Co101	Co10	0.723590	0.867780	0.378070
P61	P6	0.607200	0.761000	0.216300
P71	P7	0.612700	0.717900	0.506500
P81	P8	0.743370	0.888800	0.832500
P91	P9	0.759890	0.607770	0.884200
P101	P10	0.430490	0.741600	0.862000
O211	O21	0.602000	0.798600	0.113300
O221	O22	0.619200	0.847300	0.285200
O231	O23	0.509600	0.707500	0.241100
O241	O24	0.696700	0.691900	0.226000
O251	O25	0.612600	0.680600	0.607800
O261	O26	0.691000	0.799200	0.497300
O271	O27	0.507000	0.753600	0.479800
O281	O28	0.640700	0.632600	0.441800
O291	O29	0.658400	0.870600	0.902400
O301	O30	0.730700	0.825700	0.743500
O311	O31	0.844500	0.869000	0.878200
O321	O32	0.738100	0.994000	0.798100
O331	O33	0.738500	0.667900	0.974900
O341	O34	0.672700	0.614200	0.814100
O351	O35	0.857100	0.642900	0.835900
O361	O36	0.774200	0.502700	0.916500
O371	O37	0.495100	0.708500	0.944300
O381	O38	0.493200	0.763600	0.773400
O391	O39	0.372400	0.833400	0.890600
O401	O40	0.359000	0.658300	0.836700
Co111	Co11	0.873140	0.259410	0.484910
Co121	Co12	0.872040	0.224930	0.237570
Co131	Co13	0.064810	0.240690	0.858270
Co141	Co14	0.758060	0.126280	0.842760
Co151	Co15	0.776410	0.367780	0.878070
P111	P11	0.892800	0.261000	0.716300
P121	P12	0.887300	0.217900	0.006500
P131	P13	0.756630	0.388800	0.332500
P141	P14	0.740110	0.107770	0.384200
P151	P15	0.069510	0.241600	0.362000
O411	O41	0.898000	0.298600	0.613300
O421	O42	0.880800	0.347300	0.785200
O431	O43	0.990400	0.207500	0.741100
O441	O44	0.803300	0.191900	0.726000
O451	O45	0.887400	0.180600	0.107800
O461	O46	0.809000	0.299200	0.997300
O471	O47	0.993000	0.253600	0.979800
O481	O48	0.859300	0.132600	0.941800
O491	O49	0.841600	0.370600	0.402400
O501	O50	0.769300	0.325700	0.243500
O511	O51	0.655500	0.369000	0.378200
O521	O52	0.761900	0.494000	0.298100
O531	O53	0.761500	0.167900	0.474900
O541	O54	0.827300	0.114200	0.314100
O551	O55	0.642900	0.142900	0.335900
O561	O56	0.725800	0.002700	0.416500
O571	O57	0.004900	0.208500	0.444300
O581	O58	0.006800	0.263600	0.273400
O591	O59	0.127600	0.333400	0.390600
O601	O60	0.141000	0.158300	0.336700
Co161	Co16	0.126860	0.740590	0.484910
Co171	Co17	0.127960	0.775070	0.237570
Co181	Co18	0.935190	0.759310	0.858270
Co191	Co19	0.241940	0.873720	0.842760
Co201	Co20	0.223590	0.632220	0.878070
P161	P16	0.107200	0.739000	0.716300
P171	P17	0.112700	0.782100	0.006500
P181	P18	0.243370	0.611200	0.332500
P191	P19	0.259890	0.892230	0.384200
P201	P20	0.930490	0.758400	0.362000
O611	O61	0.102000	0.701400	0.613300
O621	O62	0.119200	0.652700	0.785200
O631	O63	0.009600	0.792500	0.741100
O641	O64	0.196700	0.808100	0.726000
O651	O65	0.112600	0.819400	0.107800
O661	O66	0.191000	0.700800	0.997300
O671	O67	0.007000	0.746400	0.979800
O681	O68	0.140700	0.867400	0.941800
O691	O69	0.158400	0.629400	0.402400
O701	O70	0.230700	0.674300	0.243500
O711	O71	0.344500	0.631000	0.378200
O721	O72	0.238100	0.506000	0.298100
O731	O73	0.238500	0.832100	0.474900
O741	O74	0.172700	0.885800	0.314100
O751	O75	0.357100	0.857100	0.335900
O761	O76	0.274200	0.997300	0.416500
O771	O77	0.995100	0.791500	0.444300
O781	O78	0.993200	0.736400	0.273400
O791	O79	0.872400	0.666600	0.390600
O801	O80	0.859000	0.841700	0.336700
