data_WEBROK_clean_PM
_symmetry_space_group_name_H-M	'P1'
_cell_length_a	9.444000
_cell_length_b	9.156000
_cell_length_c	9.756000
_cell_angle_alpha	90.000000
_cell_angle_beta	117.459000
_cell_angle_gamma	90.000000
_symmetry_Int_Tables_number 1

loop_
_symmetry_equiv_pos_as_xyz
'x,y,z'

loop_
_atom_site_label
_atom_site_type_symbol
_atom_site_fract_x
_atom_site_fract_y
_atom_site_fract_z
P11	P1	0.853500	0.344700	0.027300
P21	P2	0.329600	0.101300	0.062400
O11	O1	0.000800	0.416100	0.152000
O21	O2	0.747200	0.449300	0.904300
O31	O3	0.750700	0.268700	0.088700
O41	O4	0.240700	0.060400	0.889800
O51	O5	0.342400	0.964000	0.164900
O61	O6	0.227900	0.220100	0.087100
O71	O7	0.497200	0.150000	0.112700
O81	O8	0.911000	0.224100	0.946200
H11	H1	0.937800	0.165100	0.004500
H21	H2	0.266700	0.882000	0.095100
P31	P3	0.646500	0.344700	0.472700
P41	P4	0.170400	0.101300	0.437600
O91	O9	0.499200	0.416100	0.348000
O101	O10	0.752800	0.449300	0.595700
O111	O11	0.749300	0.268700	0.411300
O121	O12	0.259300	0.060400	0.610200
O131	O13	0.157600	0.964000	0.335100
O141	O14	0.272100	0.220100	0.412900
O151	O15	0.002800	0.150000	0.387300
O161	O16	0.589000	0.224100	0.553800
H31	H3	0.562200	0.165100	0.495500
H41	H4	0.233300	0.882000	0.404900
P51	P5	0.146500	0.655300	0.972700
P61	P6	0.670400	0.898700	0.937600
O171	O17	0.999200	0.583900	0.848000
O181	O18	0.252800	0.550700	0.095700
O191	O19	0.249300	0.731300	0.911300
O201	O20	0.759300	0.939600	0.110200
O211	O21	0.657600	0.036000	0.835100
O221	O22	0.772100	0.779900	0.912900
O231	O23	0.502800	0.850000	0.887300
O241	O24	0.089000	0.775900	0.053800
H51	H5	0.062200	0.834900	0.995500
H61	H6	0.733300	0.118000	0.904900
P71	P7	0.353500	0.655300	0.527300
P81	P8	0.829600	0.898700	0.562400
O251	O25	0.500800	0.583900	0.652000
O261	O26	0.247200	0.550700	0.404300
O271	O27	0.250700	0.731300	0.588700
O281	O28	0.740700	0.939600	0.389800
O291	O29	0.842400	0.036000	0.664900
O301	O30	0.727900	0.779900	0.587100
O311	O31	0.997200	0.850000	0.612700
O321	O32	0.411000	0.775900	0.446200
H71	H7	0.437800	0.834900	0.504500
H81	H8	0.766700	0.118000	0.595100
In11	In1	0.250000	0.390600	0.250000
In21	In2	0.750000	0.609400	0.750000
In31	In3	0.750000	0.117200	0.250000
In41	In4	0.250000	0.882800	0.750000
