data_WEBROK01_clean_PM
_symmetry_space_group_name_H-M	'P1'
_cell_length_a	9.453700
_cell_length_b	9.165500
_cell_length_c	9.757000
_cell_angle_alpha	90.000000
_cell_angle_beta	117.448000
_cell_angle_gamma	90.000000
_symmetry_Int_Tables_number 1

loop_
_symmetry_equiv_pos_as_xyz
'x,y,z'

loop_
_atom_site_label
_atom_site_type_symbol
_atom_site_fract_x
_atom_site_fract_y
_atom_site_fract_z
P11	P1	0.829370	0.898180	0.062190
P21	P2	0.146030	0.655340	0.471960
O11	O1	0.998600	0.850200	0.113500
O21	O2	0.248900	0.730100	0.410900
O31	O3	0.743500	0.939400	0.891000
O41	O4	0.254200	0.550100	0.595800
O51	O5	0.998700	0.583600	0.346900
O61	O6	0.727400	0.780500	0.087200
O71	O7	0.839700	0.035300	0.163300
H11	H1	0.891500	0.099500	0.148600
O81	O8	0.088300	0.775500	0.552400
H21	H2	0.166100	0.816000	0.620900
P31	P3	0.670630	0.898180	0.437810
P41	P4	0.353970	0.655340	0.028040
O91	O9	0.501400	0.850200	0.386500
O101	O10	0.251100	0.730100	0.089100
O111	O11	0.756500	0.939400	0.609000
O121	O12	0.245800	0.550100	0.904200
O131	O13	0.501300	0.583600	0.153100
O141	O14	0.772600	0.780500	0.412800
O151	O15	0.660300	0.035300	0.336700
H31	H3	0.608500	0.099500	0.351400
O161	O16	0.411700	0.775500	0.947600
H41	H4	0.333900	0.816000	0.879100
P51	P5	0.170630	0.101820	0.937810
P61	P6	0.853970	0.344660	0.528040
O171	O17	0.001400	0.149800	0.886500
O181	O18	0.751100	0.269900	0.589100
O191	O19	0.256500	0.060600	0.109000
O201	O20	0.745800	0.449900	0.404200
O211	O21	0.001300	0.416400	0.653100
O221	O22	0.272600	0.219500	0.912800
O231	O23	0.160300	0.964700	0.836700
H51	H5	0.108500	0.900500	0.851400
O241	O24	0.911700	0.224500	0.447600
H61	H6	0.833900	0.184000	0.379100
P71	P7	0.329370	0.101820	0.562190
P81	P8	0.646030	0.344660	0.971960
O251	O25	0.498600	0.149800	0.613500
O261	O26	0.748900	0.269900	0.910900
O271	O27	0.243500	0.060600	0.391000
O281	O28	0.754200	0.449900	0.095800
O291	O29	0.498700	0.416400	0.846900
O301	O30	0.227400	0.219500	0.587200
O311	O31	0.339700	0.964700	0.663300
H71	H7	0.391500	0.900500	0.648600
O321	O32	0.588300	0.224500	0.052400
H81	H8	0.666100	0.184000	0.120900
In11	In1	0.250000	0.883120	0.250000
In21	In2	0.750000	0.116880	0.750000
In31	In3	0.250000	0.390820	0.750000
In41	In4	0.750000	0.609180	0.250000
