data_WEBZEK_charged_PM
_symmetry_space_group_name_H-M	'P1'
_cell_length_a	22.180000
_cell_length_b	22.180000
_cell_length_c	26.882300
_cell_angle_alpha	114.364000
_cell_angle_beta	114.364000
_cell_angle_gamma	90.000100
_symmetry_Int_Tables_number 1

loop_
_symmetry_equiv_pos_as_xyz
'x,y,z'

loop_
_atom_site_label
_atom_site_type_symbol
_atom_site_fract_x
_atom_site_fract_y
_atom_site_fract_z
Cd11	Cd1	0.443360	0.945470	0.149830
Cd21	Cd2	0.706470	0.204360	0.149830
Cd31	Cd3	0.054530	0.293530	0.850170
Cd41	Cd4	0.795640	0.556640	0.850170
Cd51	Cd5	0.543530	0.804530	0.350170
Cd61	Cd6	0.806640	0.545640	0.350170
Cd71	Cd7	0.454360	0.456470	0.649830
Cd81	Cd8	0.195470	0.193360	0.649830
Cd91	Cd9	0.492850	0.875000	0.250000
Cd101	Cd10	0.757150	0.375000	0.250000
Cd111	Cd11	0.125000	0.242850	0.750000
Cd121	Cd12	0.625000	0.507150	0.750000
H11	H1	0.631700	0.125200	0.337800
H21	H2	0.738100	0.166700	0.421600
H31	H3	0.659500	0.935200	0.300000
H41	H4	0.875700	0.122100	0.414800
H51	H5	0.985800	0.161200	0.494600
H61	H6	0.923000	0.133000	0.603200
H71	H7	0.761700	0.884800	0.413600
H81	H8	0.748500	0.863100	0.346000
H91	H9	0.695300	0.894600	0.367800
H101	H10	0.849200	0.106600	0.619600
H111	H11	0.857900	0.035900	0.578600
H121	H12	0.789500	0.043800	0.582600
H131	H13	0.333800	0.814100	0.194000
H141	H14	0.201000	0.629000	0.163600
H151	H15	0.317500	0.661600	0.236400
H161	H16	0.101200	0.757300	0.111600
H171	H17	0.989500	0.725300	0.036200
H181	H18	0.024600	0.536200	0.961600
H191	H19	0.256700	0.873300	0.145200
H201	H20	0.231400	0.842300	0.074200
H211	H21	0.296400	0.825100	0.114800
H221	H22	0.125100	0.466600	0.032000
H231	H23	0.164500	0.463300	0.994400
H241	H24	0.088100	0.468100	0.968800
H251	H25	0.706100	0.212600	0.337800
H261	H26	0.683500	0.254900	0.421600
H271	H27	0.640500	0.364800	0.300000
H281	H28	0.539100	0.292700	0.414800
H291	H29	0.508800	0.333400	0.494600
H301	H30	0.680200	0.470200	0.603200
H311	H31	0.651900	0.528800	0.413600
H321	H32	0.597500	0.482900	0.346000
H331	H33	0.672500	0.473200	0.367800
H341	H34	0.770400	0.513000	0.619600
H351	H35	0.720700	0.542700	0.578600
H361	H36	0.793100	0.538800	0.582600
H371	H37	0.860200	0.379900	0.194000
H381	H38	0.962600	0.534600	0.163600
H391	H39	0.918900	0.574800	0.236400
H401	H40	0.010400	0.354300	0.111600
H411	H41	0.046700	0.310900	0.036200
H421	H42	0.937000	0.425400	0.961600
H431	H43	0.888500	0.271900	0.145200
H441	H44	0.842800	0.231900	0.074200
H451	H45	0.818400	0.289700	0.114800
H461	H46	0.906900	0.565400	0.032000
H471	H47	0.829900	0.531100	0.994400
H481	H48	0.880700	0.500700	0.968800
H491	H49	0.874800	0.293900	0.662200
H501	H50	0.833300	0.316500	0.578400
H511	H51	0.064800	0.359500	0.700000
H521	H52	0.877900	0.460900	0.585200
H531	H53	0.838800	0.491200	0.505400
H541	H54	0.867000	0.319800	0.396800
H551	H55	0.115200	0.348100	0.586400
H561	H56	0.136900	0.402500	0.654000
H571	H57	0.105400	0.327500	0.632200
H581	H58	0.893400	0.229600	0.380400
H591	H59	0.964100	0.279300	0.421400
H601	H60	0.956200	0.206900	0.417400
H611	H61	0.185900	0.139800	0.806000
H621	H62	0.371000	0.037400	0.836400
H631	H63	0.338400	0.081100	0.763600
H641	H64	0.242700	0.989600	0.888400
H651	H65	0.274700	0.953300	0.963800
H661	H66	0.463800	0.063000	0.038400
H671	H67	0.126700	0.111500	0.854800
H681	H68	0.157700	0.157200	0.925800
H691	H69	0.174900	0.181600	0.885200
H701	H70	0.533400	0.093100	0.968000
H711	H71	0.536700	0.170100	0.005600
H721	H72	0.531900	0.119300	0.031200
H731	H73	0.787400	0.368300	0.662200
H741	H74	0.745100	0.261900	0.578400
H751	H75	0.635200	0.340500	0.700000
H761	H76	0.707300	0.124300	0.585200
H771	H77	0.666600	0.014200	0.505400
H781	H78	0.529800	0.077000	0.396800
H791	H79	0.471200	0.238300	0.586400
H801	H80	0.517100	0.251500	0.654000
H811	H81	0.526800	0.304700	0.632200
H821	H82	0.487000	0.150800	0.380400
H831	H83	0.457300	0.142100	0.421400
H841	H84	0.461200	0.210500	0.417400
H851	H85	0.620100	0.666200	0.806000
H861	H86	0.465400	0.799000	0.836400
H871	H87	0.425200	0.682500	0.763600
H881	H88	0.645700	0.898800	0.888400
H891	H89	0.689100	0.010500	0.963800
H901	H90	0.574600	0.975400	0.038400
H911	H91	0.728100	0.743300	0.854800
H921	H92	0.768100	0.768600	0.925800
H931	H93	0.710300	0.703600	0.885200
H941	H94	0.434600	0.874900	0.968000
H951	H95	0.468900	0.835500	0.005600
H961	H96	0.499300	0.911900	0.031200
H971	H97	0.543900	0.624800	0.162200
H981	H98	0.566500	0.583300	0.078400
H991	H99	0.609500	0.814800	0.200000
H1001	H100	0.710900	0.627900	0.085200
H1011	H101	0.741200	0.588800	0.005400
H1021	H102	0.569800	0.617000	0.896800
H1031	H103	0.598100	0.865200	0.086400
H1041	H104	0.652500	0.886900	0.154000
H1051	H105	0.577500	0.855400	0.132200
H1061	H106	0.479600	0.643400	0.880400
H1071	H107	0.529300	0.714100	0.921400
H1081	H108	0.456900	0.706200	0.917400
H1091	H109	0.389800	0.935900	0.306000
H1101	H110	0.287400	0.121000	0.336400
H1111	H111	0.331100	0.088400	0.263600
H1121	H112	0.239600	0.992700	0.388400
H1131	H113	0.203300	0.024700	0.463800
H1141	H114	0.313000	0.213800	0.538400
H1151	H115	0.361500	0.876700	0.354800
H1161	H116	0.407200	0.907700	0.425800
H1171	H117	0.431600	0.924900	0.385200
H1181	H118	0.343100	0.283400	0.468000
H1191	H119	0.420100	0.286700	0.505600
H1201	H120	0.369300	0.281900	0.531200
H1211	H121	0.618300	0.537400	0.162200
H1221	H122	0.511900	0.495100	0.078400
H1231	H123	0.590500	0.385200	0.200000
H1241	H124	0.374300	0.457300	0.085200
H1251	H125	0.264200	0.416600	0.005400
H1261	H126	0.327000	0.279800	0.896800
H1271	H127	0.488300	0.221200	0.086400
H1281	H128	0.501500	0.267100	0.154000
H1291	H129	0.554700	0.276800	0.132200
H1301	H130	0.400800	0.237000	0.880400
H1311	H131	0.392100	0.207300	0.921400
H1321	H132	0.460500	0.211200	0.917400
H1331	H133	0.916200	0.370100	0.306000
H1341	H134	0.049000	0.215400	0.336400
H1351	H135	0.932500	0.175200	0.263600
H1361	H136	0.148800	0.395700	0.388400
H1371	H137	0.260500	0.439100	0.463800
H1381	H138	0.225400	0.324600	0.538400
H1391	H139	0.993300	0.478100	0.354800
H1401	H140	0.018600	0.518100	0.425800
H1411	H141	0.953600	0.460300	0.385200
H1421	H142	0.124900	0.184600	0.468000
H1431	H143	0.085500	0.218900	0.505600
H1441	H144	0.161900	0.249300	0.531200
H1451	H145	0.462600	0.456100	0.837800
H1461	H146	0.504900	0.433500	0.921600
H1471	H147	0.614800	0.390500	0.800000
H1481	H148	0.542700	0.289100	0.914800
H1491	H149	0.583400	0.258800	0.994600
H1501	H150	0.720200	0.430200	0.103200
H1511	H151	0.778800	0.401900	0.913600
H1521	H152	0.732900	0.347500	0.846000
H1531	H153	0.723200	0.422500	0.867800
H1541	H154	0.763000	0.520400	0.119600
H1551	H155	0.792700	0.470700	0.078600
H1561	H156	0.788800	0.543100	0.082600
H1571	H157	0.629900	0.610200	0.694000
H1581	H158	0.784600	0.712600	0.663600
H1591	H159	0.824800	0.668900	0.736400
H1601	H160	0.604300	0.760400	0.611600
H1611	H161	0.560900	0.796700	0.536200
H1621	H162	0.675400	0.687000	0.461600
H1631	H163	0.521900	0.638500	0.645200
H1641	H164	0.481900	0.592800	0.574200
H1651	H165	0.539700	0.568400	0.614800
H1661	H166	0.815400	0.656900	0.532000
H1671	H167	0.781100	0.579900	0.494400
H1681	H168	0.750700	0.630700	0.468800
H1691	H169	0.375200	0.381700	0.837800
H1701	H170	0.416700	0.488100	0.921600
H1711	H171	0.185200	0.409500	0.800000
H1721	H172	0.372100	0.625700	0.914800
H1731	H173	0.411200	0.735800	0.994600
H1741	H174	0.383000	0.673000	0.103200
H1751	H175	0.134800	0.511700	0.913600
H1761	H176	0.113100	0.498500	0.846000
H1771	H177	0.144600	0.445300	0.867800
H1781	H178	0.356600	0.599200	0.119600
H1791	H179	0.285900	0.607900	0.078600
H1801	H180	0.293800	0.539500	0.082600
H1811	H181	0.064100	0.083800	0.694000
H1821	H182	0.879000	0.951000	0.663600
H1831	H183	0.911600	0.067500	0.736400
H1841	H184	0.007300	0.851200	0.611600
H1851	H185	0.975300	0.739500	0.536200
H1861	H186	0.786200	0.774600	0.461600
H1871	H187	0.123300	0.006700	0.645200
H1881	H188	0.092300	0.981400	0.574200
H1891	H189	0.075100	0.046400	0.614800
H1901	H190	0.716600	0.875100	0.532000
H1911	H191	0.713300	0.914500	0.494400
H1921	H192	0.718100	0.838100	0.468800
C11	C1	0.570350	0.995350	0.253300
C21	C2	0.635120	0.026120	0.310640
C31	C3	0.658620	0.095420	0.347040
C41	C4	0.722290	0.120290	0.397180
C51	C5	0.762470	0.075770	0.410940
C61	C6	0.738870	0.006470	0.374540
C71	C7	0.675200	0.981600	0.324400
C81	C8	0.833490	0.103090	0.461980
C91	C9	0.884690	0.123890	0.452380
C101	C10	0.950810	0.148010	0.500820
C111	C11	0.964660	0.152460	0.557320
C121	C12	0.913540	0.130740	0.565280
C131	C13	0.847310	0.105010	0.518420
C141	C14	0.034880	0.172780	0.607160
C151	C15	0.742690	0.895590	0.379780
C161	C16	0.826700	0.065500	0.582200
C171	C17	0.407700	0.767000	0.271400
C181	C18	0.336190	0.737590	0.221580
C191	C19	0.309310	0.774210	0.185820
C201	C20	0.244520	0.745420	0.138840
C211	C21	0.203050	0.694250	0.128100
C221	C22	0.229170	0.663270	0.167340
C231	C23	0.299140	0.684640	0.213280
C241	C24	0.130640	0.669940	0.080480
C251	C25	0.085540	0.713140	0.080480
C261	C26	0.017700	0.694300	0.036200
C271	C27	0.994410	0.626610	0.992020
C281	C28	0.038960	0.581060	0.991520
C291	C29	0.103710	0.605510	0.036420
C301	C30	0.925070	0.602070	0.942140
C311	C31	0.252420	0.834220	0.109440
C321	C32	0.130090	0.482190	0.005180
C331	C33	0.682950	0.257950	0.253300
C341	C34	0.675520	0.284520	0.310640
C351	C35	0.688420	0.251620	0.347040
C361	C36	0.674890	0.276890	0.397180
C371	C37	0.648470	0.335170	0.410940
C381	C38	0.635670	0.368070	0.374540
C391	C39	0.649200	0.342800	0.324400
C401	C40	0.628490	0.358890	0.461980
C411	C41	0.567690	0.328490	0.452380
C421	C42	0.550010	0.352810	0.500820
C431	C43	0.592660	0.404860	0.557320
C441	C44	0.651740	0.434540	0.565280
C451	C45	0.671110	0.413410	0.518420
C461	C46	0.572280	0.434380	0.607160
C471	C47	0.637090	0.484190	0.379780
C481	C48	0.755500	0.516700	0.582200
C491	C49	0.863700	0.504400	0.271400
C501	C50	0.885390	0.483990	0.221580
C511	C51	0.876510	0.411610	0.185820
C521	C52	0.894320	0.393420	0.138840
C531	C53	0.925050	0.433850	0.128100
C541	C54	0.938170	0.504070	0.167340
C551	C55	0.914140	0.528640	0.213280
C561	C56	0.949840	0.410540	0.080480
C571	C57	0.994940	0.367340	0.080480
C581	C58	0.018500	0.341900	0.036200
C591	C59	0.997610	0.365410	0.992020
C601	C60	0.952560	0.410460	0.991520
C611	C61	0.932710	0.430910	0.036420
C621	C62	0.017070	0.340070	0.942140
C631	C63	0.857020	0.275220	0.109440
C641	C64	0.875090	0.522990	0.005180
C651	C65	0.004650	0.317050	0.746700
C661	C66	0.973880	0.324480	0.689360
C671	C67	0.904580	0.311580	0.652960
C681	C68	0.879710	0.325110	0.602820
C691	C69	0.924230	0.351530	0.589060
C701	C70	0.993530	0.364330	0.625460
C711	C71	0.018400	0.350800	0.675600
C721	C72	0.896910	0.371510	0.538020
C731	C73	0.876110	0.432310	0.547620
C741	C74	0.851990	0.449990	0.499180
C751	C75	0.847540	0.407340	0.442680
C761	C76	0.869260	0.348260	0.434720
C771	C77	0.894990	0.328890	0.481580
C781	C78	0.827220	0.427720	0.392840
C791	C79	0.104410	0.362910	0.620220
C801	C80	0.934500	0.244500	0.417800
C811	C81	0.233000	0.136300	0.728600
C821	C82	0.262410	0.114610	0.778420
C831	C83	0.225790	0.123490	0.814180
C841	C84	0.254580	0.105680	0.861160
C851	C85	0.305750	0.074950	0.871900
C861	C86	0.336730	0.061830	0.832660
C871	C87	0.315360	0.085860	0.786720
C881	C88	0.330060	0.050160	0.919520
C891	C89	0.286860	0.005060	0.919520
C901	C90	0.305700	0.981500	0.963800
C911	C91	0.373390	0.002390	0.007980
C921	C92	0.418940	0.047440	0.008480
C931	C93	0.394490	0.067290	0.963580
C941	C94	0.397930	0.982930	0.057860
C951	C95	0.165780	0.142980	0.890560
C961	C96	0.517810	0.124910	0.994820
C971	C97	0.742050	0.429650	0.746700
C981	C98	0.715480	0.364880	0.689360
C991	C99	0.748380	0.341380	0.652960
C1001	C100	0.723110	0.277710	0.602820
C1011	C101	0.664830	0.237530	0.589060
C1021	C102	0.631930	0.261130	0.625460
C1031	C103	0.657200	0.324800	0.675600
C1041	C104	0.641110	0.166510	0.538020
C1051	C105	0.671510	0.115310	0.547620
C1061	C106	0.647190	0.049190	0.499180
C1071	C107	0.595140	0.035340	0.442680
C1081	C108	0.565460	0.086460	0.434720
C1091	C109	0.586590	0.152690	0.481580
C1101	C110	0.565620	0.965120	0.392840
C1111	C111	0.515810	0.257310	0.620220
C1121	C112	0.483300	0.173300	0.417800
C1131	C113	0.495600	0.592300	0.728600
C1141	C114	0.516010	0.663810	0.778420
C1151	C115	0.588390	0.690690	0.814180
C1161	C116	0.606580	0.755480	0.861160
C1171	C117	0.566150	0.796950	0.871900
C1181	C118	0.495930	0.770830	0.832660
C1191	C119	0.471360	0.700860	0.786720
C1201	C120	0.589460	0.869360	0.919520
C1211	C121	0.632660	0.914460	0.919520
C1221	C122	0.658100	0.982300	0.963800
C1231	C123	0.634590	0.005590	0.007980
C1241	C124	0.589540	0.961040	0.008480
C1251	C125	0.569090	0.896290	0.963580
C1261	C126	0.659930	0.074930	0.057860
C1271	C127	0.724780	0.747580	0.890560
C1281	C128	0.477010	0.869910	0.994820
C1291	C129	0.567050	0.754650	0.246700
C1301	C130	0.574480	0.723880	0.189360
C1311	C131	0.561580	0.654580	0.152960
C1321	C132	0.575110	0.629710	0.102820
C1331	C133	0.601530	0.674230	0.089060
C1341	C134	0.614330	0.743530	0.125460
C1351	C135	0.600800	0.768400	0.175600
C1361	C136	0.621510	0.646910	0.038020
C1371	C137	0.682310	0.626110	0.047620
C1381	C138	0.699990	0.601990	0.999180
C1391	C139	0.657340	0.597540	0.942680
C1401	C140	0.598260	0.619260	0.934720
C1411	C141	0.578890	0.644990	0.981580
C1421	C142	0.677720	0.577220	0.892840
C1431	C143	0.612910	0.854410	0.120220
C1441	C144	0.494500	0.684500	0.917800
C1451	C145	0.386300	0.983000	0.228600
C1461	C146	0.364610	0.012410	0.278420
C1471	C147	0.373490	0.975790	0.314180
C1481	C148	0.355680	0.004580	0.361160
C1491	C149	0.324950	0.055750	0.371900
C1501	C150	0.311830	0.086730	0.332660
C1511	C151	0.335860	0.065360	0.286720
C1521	C152	0.300160	0.080060	0.419520
C1531	C153	0.255060	0.036860	0.419520
C1541	C154	0.231500	0.055700	0.463800
C1551	C155	0.252390	0.123390	0.507980
C1561	C156	0.297440	0.168940	0.508480
C1571	C157	0.317290	0.144490	0.463580
C1581	C158	0.232930	0.147930	0.557860
C1591	C159	0.392980	0.915780	0.390560
C1601	C160	0.374910	0.267810	0.494820
C1611	C161	0.679650	0.492050	0.246700
C1621	C162	0.614880	0.465480	0.189360
C1631	C163	0.591380	0.498380	0.152960
C1641	C164	0.527710	0.473110	0.102820
C1651	C165	0.487530	0.414830	0.089060
C1661	C166	0.511130	0.381930	0.125460
C1671	C167	0.574800	0.407200	0.175600
C1681	C168	0.416510	0.391110	0.038020
C1691	C169	0.365310	0.421510	0.047620
C1701	C170	0.299190	0.397190	0.999180
C1711	C171	0.285340	0.345140	0.942680
C1721	C172	0.336460	0.315460	0.934720
C1731	C173	0.402690	0.336590	0.981580
C1741	C174	0.215120	0.315620	0.892840
C1751	C175	0.507310	0.265810	0.120220
C1761	C176	0.423300	0.233300	0.917800
C1771	C177	0.842300	0.245600	0.228600
C1781	C178	0.913810	0.266010	0.278420
C1791	C179	0.940690	0.338390	0.314180
C1801	C180	0.005480	0.356580	0.361160
C1811	C181	0.046950	0.316150	0.371900
C1821	C182	0.020830	0.245930	0.332660
C1831	C183	0.950860	0.221360	0.286720
C1841	C184	0.119360	0.339460	0.419520
C1851	C185	0.164460	0.382660	0.419520
C1861	C186	0.232300	0.408100	0.463800
C1871	C187	0.255590	0.384590	0.507980
C1881	C188	0.211040	0.339540	0.508480
C1891	C189	0.146290	0.319090	0.463580
C1901	C190	0.324930	0.409930	0.557860
C1911	C191	0.997580	0.474780	0.390560
C1921	C192	0.119910	0.227010	0.494820
C1931	C193	0.507950	0.432950	0.753300
C1941	C194	0.534520	0.425520	0.810640
C1951	C195	0.501620	0.438420	0.847040
C1961	C196	0.526890	0.424890	0.897180
C1971	C197	0.585170	0.398470	0.910940
C1981	C198	0.618070	0.385670	0.874540
C1991	C199	0.592800	0.399200	0.824400
C2001	C200	0.608890	0.378490	0.961980
C2011	C201	0.578490	0.317690	0.952380
C2021	C202	0.602810	0.300010	0.000820
C2031	C203	0.654860	0.342660	0.057320
C2041	C204	0.684540	0.401740	0.065280
C2051	C205	0.663410	0.421110	0.018420
C2061	C206	0.684380	0.322280	0.107160
C2071	C207	0.734190	0.387090	0.879780
C2081	C208	0.766700	0.505500	0.082200
C2091	C209	0.754400	0.613700	0.771400
C2101	C210	0.733990	0.635390	0.721580
C2111	C211	0.661610	0.626510	0.685820
C2121	C212	0.643420	0.644320	0.638840
C2131	C213	0.683850	0.675050	0.628100
C2141	C214	0.754070	0.688170	0.667340
C2151	C215	0.778640	0.664140	0.713280
C2161	C216	0.660540	0.699840	0.580480
C2171	C217	0.617340	0.744940	0.580480
C2181	C218	0.591900	0.768500	0.536200
C2191	C219	0.615410	0.747610	0.492020
C2201	C220	0.660460	0.702560	0.491520
C2211	C221	0.680910	0.682710	0.536420
C2221	C222	0.590070	0.767070	0.442140
C2231	C223	0.525220	0.607020	0.609440
C2241	C224	0.772990	0.625090	0.505180
C2251	C225	0.245350	0.320350	0.753300
C2261	C226	0.276120	0.385120	0.810640
C2271	C227	0.345420	0.408620	0.847040
C2281	C228	0.370290	0.472290	0.897180
C2291	C229	0.325770	0.512470	0.910940
C2301	C230	0.256470	0.488870	0.874540
C2311	C231	0.231600	0.425200	0.824400
C2321	C232	0.353090	0.583490	0.961980
C2331	C233	0.373890	0.634690	0.952380
C2341	C234	0.398010	0.700810	0.000820
C2351	C235	0.402460	0.714660	0.057320
C2361	C236	0.380740	0.663540	0.065280
C2371	C237	0.355010	0.597310	0.018420
C2381	C238	0.422780	0.784880	0.107160
C2391	C239	0.145590	0.492690	0.879780
C2401	C240	0.315500	0.576700	0.082200
C2411	C241	0.017000	0.157700	0.771400
C2421	C242	0.987590	0.086190	0.721580
C2431	C243	0.024210	0.059310	0.685820
C2441	C244	0.995420	0.994520	0.638840
C2451	C245	0.944250	0.953050	0.628100
C2461	C246	0.913270	0.979170	0.667340
C2471	C247	0.934640	0.049140	0.713280
C2481	C248	0.919940	0.880640	0.580480
C2491	C249	0.963140	0.835540	0.580480
C2501	C250	0.944300	0.767700	0.536200
C2511	C251	0.876610	0.744410	0.492020
C2521	C252	0.831060	0.788960	0.491520
C2531	C253	0.855510	0.853710	0.536420
C2541	C254	0.852070	0.675070	0.442140
C2551	C255	0.084220	0.002420	0.609440
C2561	C256	0.732190	0.880090	0.505180
O11	O1	0.535680	0.040460	0.238900
O21	O2	0.547260	0.935410	0.222420
O31	O3	0.083170	0.179780	0.592860
O41	O4	0.043400	0.192010	0.657620
O51	O5	0.776400	0.962300	0.398120
O61	O6	0.802230	0.080440	0.531920
O71	O7	0.440140	0.817840	0.281140
O81	O8	0.434420	0.731050	0.297820
O91	O9	0.883130	0.643240	0.941880
O101	O10	0.901020	0.542520	0.903640
O111	O11	0.213180	0.779300	0.100900
O121	O12	0.150870	0.560680	0.038280
O131	O13	0.703220	0.198440	0.238900
O141	O14	0.675160	0.287010	0.222420
O151	O15	0.509690	0.413080	0.592860
O161	O16	0.614220	0.465610	0.657620
O171	O17	0.621720	0.435820	0.398120
O181	O18	0.729690	0.451480	0.531920
O191	O19	0.841000	0.463300	0.281140
O201	O20	0.863400	0.566770	0.297820
O211	O21	0.058750	0.298640	0.941880
O221	O22	0.002620	0.361120	0.903640
O231	O23	0.887720	0.321600	0.100900
O241	O24	0.887410	0.477600	0.038280
O251	O25	0.959540	0.296780	0.761100
O261	O26	0.064590	0.324840	0.777580
O271	O27	0.820220	0.490310	0.407140
O281	O28	0.807990	0.385780	0.342380
O291	O29	0.037700	0.378280	0.601880
O301	O30	0.919560	0.270310	0.468080
O311	O31	0.182160	0.159000	0.718860
O321	O32	0.268950	0.136600	0.702180
O331	O33	0.356760	0.941250	0.058120
O341	O34	0.457480	0.997380	0.096360
O351	O35	0.220700	0.112280	0.899100
O361	O36	0.439320	0.112590	0.961720
O371	O37	0.801560	0.464320	0.761100
O381	O38	0.712990	0.452740	0.777580
O391	O39	0.586920	0.916830	0.407140
O401	O40	0.534390	0.956600	0.342380
O411	O41	0.564180	0.223600	0.601880
O421	O42	0.548520	0.197770	0.468080
O431	O43	0.536700	0.559860	0.718860
O441	O44	0.433230	0.565580	0.702180
O451	O45	0.701360	0.116870	0.058120
O461	O46	0.638880	0.098980	0.096360
O471	O47	0.678400	0.786820	0.899100
O481	O48	0.522400	0.849130	0.961720
O491	O49	0.546780	0.709540	0.261100
O501	O50	0.574840	0.814590	0.277580
O511	O51	0.740310	0.570220	0.907140
O521	O52	0.635780	0.557990	0.842380
O531	O53	0.628280	0.787700	0.101880
O541	O54	0.520310	0.669560	0.968080
O551	O55	0.409000	0.932160	0.218860
O561	O56	0.386600	0.018950	0.202180
O571	O57	0.191250	0.106760	0.558120
O581	O58	0.247380	0.207480	0.596360
O591	O59	0.362280	0.970700	0.399100
O601	O60	0.362590	0.189320	0.461720
O611	O61	0.714320	0.551560	0.261100
O621	O62	0.702740	0.462990	0.277580
O631	O63	0.166830	0.336920	0.907140
O641	O64	0.206600	0.284390	0.842380
O651	O65	0.473600	0.314180	0.101880
O661	O66	0.447770	0.298520	0.968080
O671	O67	0.809860	0.286700	0.218860
O681	O68	0.815580	0.183230	0.202180
O691	O69	0.366870	0.451360	0.558120
O701	O70	0.348980	0.388880	0.596360
O711	O71	0.036820	0.428400	0.399100
O721	O72	0.099130	0.272400	0.461720
O731	O73	0.448440	0.453220	0.738900
O741	O74	0.537010	0.425160	0.722420
O751	O75	0.663080	0.259690	0.092860
O761	O76	0.715610	0.364220	0.157620
O771	O77	0.685820	0.371720	0.898120
O781	O78	0.701480	0.479690	0.031920
O791	O79	0.713300	0.591000	0.781140
O801	O80	0.816770	0.613400	0.797820
O811	O81	0.548640	0.808750	0.441880
O821	O82	0.611120	0.752620	0.403640
O831	O83	0.571600	0.637720	0.600900
O841	O84	0.727600	0.637410	0.538280
O851	O85	0.290460	0.285680	0.738900
O861	O86	0.185410	0.297260	0.722420
O871	O87	0.429780	0.833170	0.092860
O881	O88	0.442010	0.793400	0.157620
O891	O89	0.212300	0.526400	0.898120
O901	O90	0.330440	0.552230	0.031920
O911	O91	0.067840	0.190140	0.781140
O921	O92	0.981050	0.184420	0.797820
O931	O93	0.893240	0.633130	0.441880
O941	O94	0.792520	0.651020	0.403640
O951	O95	0.029300	0.963180	0.600900
O961	O96	0.810680	0.900870	0.538280
Cd131	Cd13	0.000000	0.000000	0.000000
Cd141	Cd14	0.250000	0.750000	0.500000
H1931	H193	0.180600	0.970600	0.173400
H1941	H194	0.216900	0.933600	0.249400
H1951	H195	0.989900	0.878800	0.109800
H1961	H196	0.934000	0.863100	0.183000
H1971	H197	0.922900	0.784600	0.159400
H1981	H198	0.928400	0.815900	0.118400
H1991	H199	0.992800	0.202800	0.173400
H2001	H200	0.032500	0.315800	0.249400
H2011	H201	0.119900	0.231000	0.109800
H2021	H202	0.249000	0.319900	0.183000
H2031	H203	0.236500	0.374800	0.159400
H2041	H204	0.190000	0.302500	0.118400
H2051	H205	0.029400	0.007200	0.826600
H2061	H206	0.066400	0.967500	0.750600
H2071	H207	0.121200	0.880100	0.890200
H2081	H208	0.136900	0.751000	0.817000
H2091	H209	0.215400	0.763500	0.840600
H2101	H210	0.184100	0.810000	0.881600
H2111	H211	0.797200	0.819400	0.826600
H2121	H212	0.684200	0.783100	0.750600
H2131	H213	0.769000	0.010100	0.890200
H2141	H214	0.680100	0.066000	0.817000
H2151	H215	0.625200	0.077100	0.840600
H2161	H216	0.697500	0.071600	0.881600
H2171	H217	0.257200	0.779400	0.326600
H2181	H218	0.217500	0.816400	0.250600
H2191	H219	0.130100	0.871200	0.390200
H2201	H220	0.001000	0.886900	0.317000
H2211	H221	0.013500	0.965400	0.340600
H2221	H222	0.060000	0.934100	0.381600
H2231	H223	0.069400	0.547200	0.326600
H2241	H224	0.033100	0.434200	0.250600
H2251	H225	0.260100	0.519000	0.390200
H2261	H226	0.316000	0.430100	0.317000
H2271	H227	0.327100	0.375200	0.340600
H2281	H228	0.321600	0.447500	0.381600
H2291	H229	0.452800	0.742800	0.673400
H2301	H230	0.565800	0.782500	0.749400
H2311	H231	0.481000	0.869900	0.609800
H2321	H232	0.569900	0.999000	0.683000
H2331	H233	0.624800	0.986500	0.659400
H2341	H234	0.552500	0.940000	0.618400
H2351	H235	0.220600	0.930600	0.673400
H2361	H236	0.183600	0.966900	0.749400
H2371	H237	0.128800	0.739900	0.609800
H2381	H238	0.113100	0.684000	0.683000
H2391	H239	0.034600	0.672900	0.659400
H2401	H240	0.065900	0.678400	0.618400
C2571	C257	0.058150	0.954450	0.087100
C2581	C258	0.082080	0.927680	0.134360
C2591	C259	0.149970	0.944170	0.176140
C2601	C260	0.171380	0.922480	0.221360
C2611	C261	0.124790	0.884390	0.224580
C2621	C262	0.056670	0.867970	0.182940
C2631	C263	0.035380	0.889680	0.137760
C2641	C264	0.944410	0.822310	0.159620
C2651	C265	0.028950	0.132650	0.087100
C2661	C266	0.052280	0.206680	0.134360
C2671	C267	0.026170	0.231970	0.176140
C2681	C268	0.049980	0.298880	0.221360
C2691	C269	0.099790	0.340190	0.224580
C2701	C270	0.126270	0.314970	0.182940
C2711	C271	0.102380	0.248080	0.137760
C2721	C272	0.215210	0.337310	0.159620
C2731	C273	0.045550	0.971050	0.912900
C2741	C274	0.072320	0.947720	0.865640
C2751	C275	0.055830	0.973830	0.823860
C2761	C276	0.077520	0.950020	0.778640
C2771	C277	0.115610	0.900210	0.775420
C2781	C278	0.132030	0.873730	0.817060
C2791	C279	0.110320	0.897620	0.862240
C2801	C280	0.177690	0.784790	0.840380
C2811	C281	0.867350	0.941850	0.912900
C2821	C282	0.793320	0.917920	0.865640
C2831	C283	0.768030	0.850030	0.823860
C2841	C284	0.701120	0.828620	0.778640
C2851	C285	0.659810	0.875210	0.775420
C2861	C286	0.685030	0.943330	0.817060
C2871	C287	0.751920	0.964620	0.862240
C2881	C288	0.662690	0.055590	0.840380
C2891	C289	0.221050	0.795550	0.412900
C2901	C290	0.197720	0.822320	0.365640
C2911	C291	0.223830	0.805830	0.323860
C2921	C292	0.200020	0.827520	0.278640
C2931	C293	0.150210	0.865610	0.275420
C2941	C294	0.123730	0.882030	0.317060
C2951	C295	0.147620	0.860320	0.362240
C2961	C296	0.034790	0.927690	0.340380
C2971	C297	0.191850	0.617350	0.412900
C2981	C298	0.167920	0.543320	0.365640
C2991	C299	0.100030	0.518030	0.323860
C3001	C300	0.078620	0.451120	0.278640
C3011	C301	0.125210	0.409810	0.275420
C3021	C302	0.193330	0.435030	0.317060
C3031	C303	0.214620	0.501920	0.362240
C3041	C304	0.305590	0.412690	0.340380
C3051	C305	0.382650	0.778950	0.587100
C3061	C306	0.456680	0.802280	0.634360
C3071	C307	0.481970	0.776170	0.676140
C3081	C308	0.548880	0.799980	0.721360
C3091	C309	0.590190	0.849790	0.724580
C3101	C310	0.564970	0.876270	0.682940
C3111	C311	0.498080	0.852380	0.637760
C3121	C312	0.587310	0.965210	0.659620
C3131	C313	0.204450	0.808150	0.587100
C3141	C314	0.177680	0.832080	0.634360
C3151	C315	0.194170	0.899970	0.676140
C3161	C316	0.172480	0.921380	0.721360
C3171	C317	0.134390	0.874790	0.724580
C3181	C318	0.117970	0.806670	0.682940
C3191	C319	0.139680	0.785380	0.637760
C3201	C320	0.072310	0.694410	0.659620
O971	O97	0.098040	0.997050	0.090100
O981	O98	0.999940	0.935450	0.048920
O991	O99	0.015060	0.827490	0.186060
O1001	O100	0.992060	0.093050	0.090100
O1011	O101	0.048980	0.113470	0.048920
O1021	O102	0.171000	0.358570	0.186060
O1031	O103	0.002950	0.007940	0.909900
O1041	O104	0.064550	0.951020	0.951080
O1051	O105	0.172510	0.829000	0.813940
O1061	O106	0.906950	0.901960	0.909900
O1071	O107	0.886530	0.000060	0.951080
O1081	O108	0.641430	0.984940	0.813940
O1091	O109	0.257940	0.752950	0.409900
O1101	O110	0.201020	0.814550	0.451080
O1111	O111	0.079000	0.922510	0.313940
O1121	O112	0.151960	0.656950	0.409900
O1131	O113	0.250060	0.636530	0.451080
O1141	O114	0.234940	0.391430	0.313940
O1151	O115	0.343050	0.742060	0.590100
O1161	O116	0.363470	0.798980	0.548920
O1171	O117	0.608570	0.921000	0.686060
O1181	O118	0.247050	0.848040	0.590100
O1191	O119	0.185450	0.749940	0.548920
O1201	O120	0.077490	0.765060	0.686060
H2411	H241	0.385000	0.136900	0.181800
H2421	H242	0.376200	0.209500	0.188200
H2431	H243	0.344300	0.177000	0.216000
H2441	H244	0.461300	0.310700	0.323800
H2451	H245	0.432900	0.263800	0.343000
H2461	H246	0.384600	0.275600	0.287200
H2471	H247	0.479700	0.223900	0.261400
H2481	H248	0.456500	0.180800	0.281800
C3211	C321	0.382080	0.180880	0.207960
C3221	C322	0.429590	0.270590	0.308980
N11	N1	0.445240	0.210840	0.266680
H2491	H249	0.235500	0.163700	0.171800
H2501	H250	0.176400	0.102800	0.144000
H2511	H251	0.250600	0.101100	0.184600
H2521	H252	0.233400	0.260700	0.306000
H2531	H253	0.231000	0.259600	0.246600
H2541	H254	0.292500	0.240400	0.289000
H2551	H255	0.162900	0.161400	0.225200
H2561	H256	0.223200	0.142100	0.259400
C3231	C323	0.218500	0.129700	0.178800
C3241	C324	0.244500	0.238000	0.272800
N21	N2	0.207400	0.163700	0.236200
H2571	H257	0.796800	0.044900	0.181800
H2581	H258	0.812000	0.978700	0.188200
H2591	H259	0.871700	0.039000	0.216000
H2601	H260	0.862500	0.013100	0.323800
H2611	H261	0.910100	0.079200	0.343000
H2621	H262	0.902600	0.011600	0.287200
H2631	H263	0.781700	0.037500	0.261400
H2641	H264	0.825300	0.101000	0.281800
C3251	C325	0.825880	0.027080	0.207960
C3261	C326	0.879390	0.038390	0.308980
N31	N3	0.821440	0.055840	0.266680
H2651	H265	0.936300	0.008100	0.171800
H2661	H266	0.967600	0.041200	0.144000
H2671	H267	0.934000	0.083500	0.184600
H2681	H268	0.072600	0.045300	0.306000
H2691	H269	0.015600	0.987000	0.246600
H2701	H270	0.996500	0.048600	0.289000
H2711	H271	0.062300	0.063800	0.225200
H2721	H272	0.036200	0.117300	0.259400
C3271	C327	0.960300	0.049100	0.178800
C3281	C328	0.028300	0.034800	0.272800
N41	N4	0.028800	0.072500	0.236200
H2731	H273	0.863100	0.203200	0.818200
H2741	H274	0.790500	0.188000	0.811800
H2751	H275	0.823000	0.128300	0.784000
H2761	H276	0.689300	0.137500	0.676200
H2771	H277	0.736200	0.089900	0.657000
H2781	H278	0.724400	0.097400	0.712800
H2791	H279	0.776100	0.218300	0.738600
H2801	H280	0.819200	0.174700	0.718200
C3291	C329	0.819120	0.174120	0.792040
C3301	C330	0.729410	0.120610	0.691020
N51	N5	0.789160	0.178560	0.733320
H2811	H281	0.836300	0.063700	0.828200
H2821	H282	0.897200	0.032400	0.856000
H2831	H283	0.898900	0.066000	0.815400
H2841	H284	0.739300	0.927400	0.694000
H2851	H285	0.740400	0.984400	0.753400
H2861	H286	0.759600	0.003500	0.711000
H2871	H287	0.838600	0.937700	0.774800
H2881	H288	0.857900	0.963800	0.740600
C3311	C331	0.870300	0.039700	0.821200
C3321	C332	0.762000	0.971700	0.727200
N61	N6	0.836300	0.971200	0.763800
H2891	H289	0.955100	0.615000	0.818200
H2901	H290	0.021300	0.623800	0.811800
H2911	H291	0.961000	0.655700	0.784000
H2921	H292	0.986900	0.538700	0.676200
H2931	H293	0.920800	0.567100	0.657000
H2941	H294	0.988400	0.615400	0.712800
H2951	H295	0.962500	0.520300	0.738600
H2961	H296	0.899000	0.543500	0.718200
C3331	C333	0.972920	0.617920	0.792040
C3341	C334	0.961610	0.570410	0.691020
N71	N7	0.944160	0.554760	0.733320
H2971	H297	0.991900	0.764500	0.828200
H2981	H298	0.958800	0.823600	0.856000
H2991	H299	0.916500	0.749400	0.815400
H3001	H300	0.954700	0.766600	0.694000
H3011	H301	0.013000	0.769000	0.753400
H3021	H302	0.951400	0.707500	0.711000
H3031	H303	0.936200	0.837100	0.774800
H3041	H304	0.882700	0.776800	0.740600
C3351	C335	0.950900	0.781500	0.821200
C3361	C336	0.965200	0.755500	0.727200
N81	N8	0.927500	0.792600	0.763800
H3051	H305	0.453200	0.613100	0.318200
H3061	H306	0.438000	0.540500	0.311800
H3071	H307	0.378300	0.573000	0.284000
H3081	H308	0.387500	0.439300	0.176200
H3091	H309	0.339900	0.486200	0.157000
H3101	H310	0.347400	0.474400	0.212800
H3111	H311	0.468300	0.526100	0.238600
H3121	H312	0.424700	0.569200	0.218200
C3371	C337	0.424120	0.569120	0.292040
C3381	C338	0.370610	0.479410	0.191020
N91	N9	0.428560	0.539160	0.233320
H3131	H313	0.313700	0.586300	0.328200
H3141	H314	0.282400	0.647200	0.356000
H3151	H315	0.316000	0.648900	0.315400
H3161	H316	0.177400	0.489300	0.194000
H3171	H317	0.234400	0.490400	0.253400
H3181	H318	0.253500	0.509600	0.211000
H3191	H319	0.187700	0.588600	0.274800
H3201	H320	0.213800	0.607900	0.240600
C3391	C339	0.289700	0.620300	0.321200
C3401	C340	0.221700	0.512000	0.227200
N101	N10	0.221200	0.586300	0.263800
H3211	H321	0.865000	0.705100	0.318200
H3221	H322	0.873800	0.771300	0.311800
H3231	H323	0.905700	0.711000	0.284000
H3241	H324	0.788700	0.736900	0.176200
H3251	H325	0.817100	0.670800	0.157000
H3261	H326	0.865400	0.738400	0.212800
H3271	H327	0.770300	0.712500	0.238600
H3281	H328	0.793500	0.649000	0.218200
C3411	C341	0.867920	0.722920	0.292040
C3421	C342	0.820410	0.711610	0.191020
N111	N11	0.804760	0.694160	0.233320
H3291	H329	0.014500	0.741900	0.328200
H3301	H330	0.073600	0.708800	0.356000
H3311	H331	0.999400	0.666500	0.315400
H3321	H332	0.016600	0.704700	0.194000
H3331	H333	0.019000	0.763000	0.253400
H3341	H334	0.957500	0.701400	0.211000
H3351	H335	0.087100	0.686200	0.274800
H3361	H336	0.026800	0.632700	0.240600
C3431	C343	0.031500	0.700900	0.321200
C3441	C344	0.005500	0.715200	0.227200
N121	N12	0.042600	0.677500	0.263800
H3371	H337	0.294900	0.546800	0.681800
H3381	H338	0.228700	0.562000	0.688200
H3391	H339	0.289000	0.621700	0.716000
H3401	H340	0.263100	0.612500	0.823800
H3411	H341	0.329200	0.660100	0.843000
H3421	H342	0.261600	0.652600	0.787200
H3431	H343	0.287500	0.531700	0.761400
H3441	H344	0.351000	0.575300	0.781800
C3451	C345	0.277080	0.575880	0.707960
C3461	C346	0.288390	0.629390	0.808980
N131	N13	0.305840	0.571440	0.766680
H3451	H345	0.258100	0.686300	0.671800
H3461	H346	0.291200	0.717600	0.644000
H3471	H347	0.333500	0.684000	0.684600
H3481	H348	0.295300	0.822600	0.806000
H3491	H349	0.237000	0.765600	0.746600
H3501	H350	0.298600	0.746500	0.789000
H3511	H351	0.313800	0.812300	0.725200
H3521	H352	0.367300	0.786200	0.759400
C3471	C347	0.299100	0.710300	0.678800
C3481	C348	0.284800	0.778300	0.772800
N141	N14	0.322500	0.778800	0.736200
H3531	H353	0.386900	0.135000	0.681800
H3541	H354	0.459500	0.126200	0.688200
H3551	H355	0.427000	0.094300	0.716000
H3561	H356	0.560700	0.211300	0.823800
H3571	H357	0.513800	0.182900	0.843000
H3581	H358	0.525600	0.134600	0.787200
H3591	H359	0.473900	0.229700	0.761400
H3601	H360	0.430800	0.206500	0.781800
C3491	C349	0.430880	0.132080	0.707960
C3501	C350	0.520590	0.179590	0.808980
N151	N15	0.460840	0.195240	0.766680
H3611	H361	0.413700	0.985500	0.671800
H3621	H362	0.352800	0.926400	0.644000
H3631	H363	0.351100	0.000600	0.684600
H3641	H364	0.510700	0.983400	0.806000
H3651	H365	0.509600	0.981000	0.746600
H3661	H366	0.490400	0.042500	0.789000
H3671	H367	0.411400	0.912900	0.725200
H3681	H368	0.392100	0.973200	0.759400
C3511	C351	0.379700	0.968500	0.678800
C3521	C352	0.488000	0.994500	0.772800
N161	N16	0.413700	0.957400	0.736200
