data_WECBOX_clean_PM
_symmetry_space_group_name_H-M	'P1'
_cell_length_a	9.690000
_cell_length_b	14.433100
_cell_length_c	29.844200
_cell_angle_alpha	90.000000
_cell_angle_beta	90.000000
_cell_angle_gamma	90.000000
_symmetry_Int_Tables_number 1

loop_
_symmetry_equiv_pos_as_xyz
'x,y,z'

loop_
_atom_site_label
_atom_site_type_symbol
_atom_site_fract_x
_atom_site_fract_y
_atom_site_fract_z
Mn11	Mn1	0.130530	0.235510	0.700510
Mn21	Mn2	0.249750	0.457280	0.546060
P11	P1	0.063140	0.296120	0.595800
P21	P2	0.286380	0.530500	0.652780
O11	O1	0.325400	0.502900	0.606900
O21	O2	0.393900	0.490250	0.686100
H11	H1	0.371300	0.437500	0.693200
O31	O3	0.142700	0.491690	0.665640
H21	H2	0.136300	0.437900	0.657000
O41	O4	0.281700	0.632600	0.658790
O51	O5	0.188100	0.321700	0.569320
O61	O6	0.075900	0.320260	0.644420
O71	O7	0.931100	0.344340	0.577590
H31	H3	0.950400	0.396800	0.569100
O81	O8	0.028400	0.190720	0.589220
H41	H4	0.074100	0.159700	0.606800
O91	O9	0.446100	0.396240	0.524730
O101	O10	0.644900	0.431800	0.491990
O111	O11	0.130500	0.423050	0.484930
O121	O12	0.932000	0.453520	0.450810
O131	O13	0.927100	0.170630	0.703490
O141	O14	0.015700	0.318100	0.750270
O151	O15	0.731600	0.172200	0.741660
O161	O16	0.822000	0.317530	0.789650
C11	C1	0.526000	0.450200	0.504650
C21	C2	0.018700	0.464200	0.481630
C31	C3	0.848900	0.202000	0.733370
C41	C4	0.901400	0.286500	0.760060
Mn31	Mn3	0.369470	0.764490	0.200510
Mn41	Mn4	0.250250	0.542720	0.046060
P31	P3	0.436860	0.703880	0.095800
P41	P4	0.213620	0.469500	0.152780
O171	O17	0.174600	0.497100	0.106900
O181	O18	0.106100	0.509750	0.186100
H51	H5	0.128700	0.562500	0.193200
O191	O19	0.357300	0.508310	0.165640
H61	H6	0.363700	0.562100	0.157000
O201	O20	0.218300	0.367400	0.158790
O211	O21	0.311900	0.678300	0.069320
O221	O22	0.424100	0.679740	0.144420
O231	O23	0.568900	0.655660	0.077590
H71	H7	0.549600	0.603200	0.069100
O241	O24	0.471600	0.809280	0.089220
H81	H8	0.425900	0.840300	0.106800
O251	O25	0.053900	0.603760	0.024730
O261	O26	0.855100	0.568200	0.991990
O271	O27	0.369500	0.576950	0.984930
O281	O28	0.568000	0.546480	0.950810
O291	O29	0.572900	0.829370	0.203490
O301	O30	0.484300	0.681900	0.250270
O311	O31	0.768400	0.827800	0.241660
O321	O32	0.678000	0.682470	0.289650
C51	C5	0.974000	0.549800	0.004650
C61	C6	0.481300	0.535800	0.981630
C71	C7	0.651100	0.798000	0.233370
C81	C8	0.598600	0.713500	0.260060
Mn51	Mn5	0.869470	0.735510	0.799490
Mn61	Mn6	0.750250	0.957280	0.953940
P51	P5	0.936860	0.796120	0.904200
P61	P6	0.713620	0.030500	0.847220
O331	O33	0.674600	0.002900	0.893100
O341	O34	0.606100	0.990250	0.813900
H91	H9	0.628700	0.937500	0.806800
O351	O35	0.857300	0.991690	0.834360
H101	H10	0.863700	0.937900	0.843000
O361	O36	0.718300	0.132600	0.841210
O371	O37	0.811900	0.821700	0.930680
O381	O38	0.924100	0.820260	0.855580
O391	O39	0.068900	0.844340	0.922410
H111	H11	0.049600	0.896800	0.930900
O401	O40	0.971600	0.690720	0.910780
H121	H12	0.925900	0.659700	0.893200
O411	O41	0.553900	0.896240	0.975270
O421	O42	0.355100	0.931800	0.008010
O431	O43	0.869500	0.923050	0.015070
O441	O44	0.068000	0.953520	0.049190
O451	O45	0.072900	0.670630	0.796510
O461	O46	0.984300	0.818100	0.749730
O471	O47	0.268400	0.672200	0.758340
O481	O48	0.178000	0.817530	0.710350
C91	C9	0.474000	0.950200	0.995350
C101	C10	0.981300	0.964200	0.018370
C111	C11	0.151100	0.702000	0.766630
C121	C12	0.098600	0.786500	0.739940
Mn71	Mn7	0.630530	0.264490	0.299490
Mn81	Mn8	0.749750	0.042720	0.453940
P71	P7	0.563140	0.203880	0.404200
P81	P8	0.786380	0.969500	0.347220
O491	O49	0.825400	0.997100	0.393100
O501	O50	0.893900	0.009750	0.313900
H131	H13	0.871300	0.062500	0.306800
O511	O51	0.642700	0.008310	0.334360
H141	H14	0.636300	0.062100	0.343000
O521	O52	0.781700	0.867400	0.341210
O531	O53	0.688100	0.178300	0.430680
O541	O54	0.575900	0.179740	0.355580
O551	O55	0.431100	0.155660	0.422410
H151	H15	0.450400	0.103200	0.430900
O561	O56	0.528400	0.309280	0.410780
H161	H16	0.574100	0.340300	0.393200
O571	O57	0.946100	0.103760	0.475270
O581	O58	0.144900	0.068200	0.508010
O591	O59	0.630500	0.076950	0.515070
O601	O60	0.432000	0.046480	0.549190
O611	O61	0.427100	0.329370	0.296510
O621	O62	0.515700	0.181900	0.249730
O631	O63	0.231600	0.327800	0.258340
O641	O64	0.322000	0.182470	0.210350
C131	C13	0.026000	0.049800	0.495350
C141	C14	0.518700	0.035800	0.518370
C151	C15	0.348900	0.298000	0.266630
C161	C16	0.401400	0.213500	0.239940
Mn91	Mn9	0.869470	0.764490	0.299490
Mn101	Mn10	0.750250	0.542720	0.453940
P91	P9	0.936860	0.703880	0.404200
P101	P10	0.713620	0.469500	0.347220
O651	O65	0.674600	0.497100	0.393100
O661	O66	0.606100	0.509750	0.313900
H171	H17	0.628700	0.562500	0.306800
O671	O67	0.857300	0.508310	0.334360
H181	H18	0.863700	0.562100	0.343000
O681	O68	0.718300	0.367400	0.341210
O691	O69	0.811900	0.678300	0.430680
O701	O70	0.924100	0.679740	0.355580
O711	O71	0.068900	0.655660	0.422410
H191	H19	0.049600	0.603200	0.430900
O721	O72	0.971600	0.809280	0.410780
H201	H20	0.925900	0.840300	0.393200
O731	O73	0.553900	0.603760	0.475270
O741	O74	0.355100	0.568200	0.508010
O751	O75	0.869500	0.576950	0.515070
O761	O76	0.068000	0.546480	0.549190
O771	O77	0.072900	0.829370	0.296510
O781	O78	0.984300	0.681900	0.249730
O791	O79	0.268400	0.827800	0.258340
O801	O80	0.178000	0.682470	0.210350
C171	C17	0.474000	0.549800	0.495350
C181	C18	0.981300	0.535800	0.518370
C191	C19	0.151100	0.798000	0.266630
C201	C20	0.098600	0.713500	0.239940
Mn111	Mn11	0.630530	0.235510	0.799490
Mn121	Mn12	0.749750	0.457280	0.953940
P111	P11	0.563140	0.296120	0.904200
P121	P12	0.786380	0.530500	0.847220
O811	O81	0.825400	0.502900	0.893100
O821	O82	0.893900	0.490250	0.813900
H211	H21	0.871300	0.437500	0.806800
O831	O83	0.642700	0.491690	0.834360
H221	H22	0.636300	0.437900	0.843000
O841	O84	0.781700	0.632600	0.841210
O851	O85	0.688100	0.321700	0.930680
O861	O86	0.575900	0.320260	0.855580
O871	O87	0.431100	0.344340	0.922410
H231	H23	0.450400	0.396800	0.930900
O881	O88	0.528400	0.190720	0.910780
H241	H24	0.574100	0.159700	0.893200
O891	O89	0.946100	0.396240	0.975270
O901	O90	0.144900	0.431800	0.008010
O911	O91	0.630500	0.423050	0.015070
O921	O92	0.432000	0.453520	0.049190
O931	O93	0.427100	0.170630	0.796510
O941	O94	0.515700	0.318100	0.749730
O951	O95	0.231600	0.172200	0.758340
O961	O96	0.322000	0.317530	0.710350
C211	C21	0.026000	0.450200	0.995350
C221	C22	0.518700	0.464200	0.018370
C231	C23	0.348900	0.202000	0.766630
C241	C24	0.401400	0.286500	0.739940
Mn131	Mn13	0.130530	0.264490	0.200510
Mn141	Mn14	0.249750	0.042720	0.046060
P131	P13	0.063140	0.203880	0.095800
P141	P14	0.286380	0.969500	0.152780
O971	O97	0.325400	0.997100	0.106900
O981	O98	0.393900	0.009750	0.186100
H251	H25	0.371300	0.062500	0.193200
O991	O99	0.142700	0.008310	0.165640
H261	H26	0.136300	0.062100	0.157000
O1001	O100	0.281700	0.867400	0.158790
O1011	O101	0.188100	0.178300	0.069320
O1021	O102	0.075900	0.179740	0.144420
O1031	O103	0.931100	0.155660	0.077590
H271	H27	0.950400	0.103200	0.069100
O1041	O104	0.028400	0.309280	0.089220
H281	H28	0.074100	0.340300	0.106800
O1051	O105	0.446100	0.103760	0.024730
O1061	O106	0.644900	0.068200	0.991990
O1071	O107	0.130500	0.076950	0.984930
O1081	O108	0.932000	0.046480	0.950810
O1091	O109	0.927100	0.329370	0.203490
O1101	O110	0.015700	0.181900	0.250270
O1111	O111	0.731600	0.327800	0.241660
O1121	O112	0.822000	0.182470	0.289650
C251	C25	0.526000	0.049800	0.004650
C261	C26	0.018700	0.035800	0.981630
C271	C27	0.848900	0.298000	0.233370
C281	C28	0.901400	0.213500	0.260060
Mn151	Mn15	0.369470	0.735510	0.700510
Mn161	Mn16	0.250250	0.957280	0.546060
P151	P15	0.436860	0.796120	0.595800
P161	P16	0.213620	0.030500	0.652780
O1131	O113	0.174600	0.002900	0.606900
O1141	O114	0.106100	0.990250	0.686100
H291	H29	0.128700	0.937500	0.693200
O1151	O115	0.357300	0.991690	0.665640
H301	H30	0.363700	0.937900	0.657000
O1161	O116	0.218300	0.132600	0.658790
O1171	O117	0.311900	0.821700	0.569320
O1181	O118	0.424100	0.820260	0.644420
O1191	O119	0.568900	0.844340	0.577590
H311	H31	0.549600	0.896800	0.569100
O1201	O120	0.471600	0.690720	0.589220
H321	H32	0.425900	0.659700	0.606800
O1211	O121	0.053900	0.896240	0.524730
O1221	O122	0.855100	0.931800	0.491990
O1231	O123	0.369500	0.923050	0.484930
O1241	O124	0.568000	0.953520	0.450810
O1251	O125	0.572900	0.670630	0.703490
O1261	O126	0.484300	0.818100	0.750270
O1271	O127	0.768400	0.672200	0.741660
O1281	O128	0.678000	0.817530	0.789650
C291	C29	0.974000	0.950200	0.504650
C301	C30	0.481300	0.964200	0.481630
C311	C31	0.651100	0.702000	0.733370
C321	C32	0.598600	0.786500	0.760060
