data_WECBAJ_clean_PM
_symmetry_space_group_name_H-M	'P1'
_cell_length_a	10.023900
_cell_length_b	10.079700
_cell_length_c	23.572600
_cell_angle_alpha	77.713000
_cell_angle_beta	79.766000
_cell_angle_gamma	88.768000
_symmetry_Int_Tables_number 1

loop_
_symmetry_equiv_pos_as_xyz
'x,y,z'

loop_
_atom_site_label
_atom_site_type_symbol
_atom_site_fract_x
_atom_site_fract_y
_atom_site_fract_z
C11	C1	0.648000	0.538000	0.371000
H11	H1	0.733400	0.534200	0.348500
C21	C2	0.635000	0.509000	0.432000
H21	H2	0.710400	0.484100	0.449200
C31	C3	0.420000	0.577000	0.376000
H31	H3	0.345400	0.599900	0.357900
C41	C4	0.416000	0.258000	0.318000
H41	H4	0.351000	0.275700	0.294100
C51	C5	0.375000	0.243000	0.378000
H51	H5	0.283700	0.251100	0.393400
C61	C6	0.470000	0.216000	0.415000
C71	C7	0.427000	0.193000	0.480000
C81	C8	0.943000	0.856000	0.131000
H61	H6	0.931600	0.769700	0.155700
C91	C9	0.970000	0.865000	0.071000
H71	H7	0.976100	0.786900	0.056200
C101	C10	0.987000	0.992000	0.033000
C111	C11	0.274000	0.093000	0.172000
H81	H8	0.266100	0.164000	0.192400
C121	C12	0.275000	0.865000	0.174000
H91	H9	0.263900	0.776000	0.195600
C131	C13	0.521000	0.150000	0.517000
H101	H10	0.611200	0.138900	0.501600
C141	C14	0.295000	0.210000	0.506000
H111	H11	0.230500	0.240300	0.482900
C151	C15	0.952000	0.087000	0.120000
H121	H12	0.945800	0.164400	0.135800
C161	C16	0.979000	0.103000	0.059000
H131	H13	0.991800	0.190000	0.035400
C171	C17	0.304000	0.020000	0.081000
C181	C18	0.400000	0.551000	0.438000
H141	H14	0.313900	0.556700	0.459000
C191	C19	0.605000	0.207000	0.389000
H151	H15	0.671900	0.189000	0.412000
C201	C20	0.329000	0.051000	0.016000
C211	C21	0.636000	0.224000	0.329000
H161	H16	0.726700	0.216900	0.312100
C221	C22	0.293000	0.124000	0.112000
H171	H17	0.298200	0.214100	0.091900
C231	C23	0.480000	0.124000	0.577000
H181	H18	0.541500	0.095600	0.602400
C241	C24	0.259000	0.184000	0.567000
H191	H19	0.169700	0.195400	0.583800
C251	C25	0.380000	0.207000	0.922000
H201	H20	0.398700	0.295200	0.901000
C261	C26	0.356000	0.182000	0.983000
H211	H21	0.357000	0.253100	0.002100
C271	C27	0.356000	0.979000	0.923000
H221	H22	0.356600	0.909700	0.902700
C281	C28	0.331000	0.948000	0.985000
H231	H23	0.315300	0.858600	0.004900
C291	C29	0.509000	0.516000	0.467000
C301	C30	0.299000	0.889000	0.113000
H241	H24	0.312000	0.816600	0.093500
H251	H25	0.393100	0.134800	0.854200
H261	H26	0.331000	0.121500	0.638900
H271	H27	0.952800	0.031100	0.400800
H281	H28	0.016700	0.623200	0.403300
H291	H29	0.846000	0.547700	0.099900
H301	H30	0.288700	0.534000	0.100200
N11	N1	0.378000	0.106000	0.894000
N21	N2	0.933000	0.964000	0.157000
N31	N3	0.543000	0.572000	0.343000
N41	N4	0.547000	0.249000	0.293000
N51	N5	0.266000	0.965000	0.204000
N61	N6	0.350000	0.141000	0.600000
O11	O1	0.784000	0.324000	0.183000
O21	O2	0.977000	0.475000	0.184000
O31	O3	0.794000	0.570000	0.129000
O41	O4	0.744000	0.518000	0.237000
O51	O5	0.492000	0.366000	0.158000
O61	O6	0.443000	0.559000	0.212000
O71	O7	0.359000	0.567000	0.120000
O81	O8	0.260000	0.394000	0.209000
O91	O9	0.703000	0.933000	0.283000
O101	O10	0.586000	0.811000	0.221000
O111	O11	0.587000	0.061000	0.202000
O121	O12	0.453000	0.926000	0.298000
O131	O13	0.167000	0.763000	0.330000
O141	O14	0.111000	0.581000	0.284000
O151	O15	0.961000	0.779000	0.284000
O161	O16	0.968000	0.614000	0.377000
O171	O17	0.164000	0.071000	0.325000
O181	O18	0.988000	0.098000	0.259000
O191	O19	0.025000	0.282000	0.312000
O201	O20	0.916000	0.062000	0.368000
P11	P1	0.825000	0.467000	0.185100
P21	P2	0.053000	0.687000	0.315600
P31	P3	0.026000	0.130000	0.313800
P41	P4	0.580000	0.934000	0.251300
P51	P5	0.389000	0.469000	0.177200
Zn11	Zn1	0.603300	0.248900	0.206200
Zn21	Zn2	0.262100	0.929000	0.291400
Zn31	Zn3	0.578200	0.613300	0.251100
Zn41	Zn4	0.894900	0.944900	0.246300
Zn51	Zn5	0.081500	0.436600	0.246900
C311	C31	0.352000	0.462000	0.629000
H311	H31	0.266600	0.465800	0.651500
C321	C32	0.365000	0.491000	0.568000
H321	H32	0.289600	0.515900	0.550800
C331	C33	0.580000	0.423000	0.624000
H331	H33	0.654600	0.400100	0.642100
C341	C34	0.584000	0.742000	0.682000
H341	H34	0.649000	0.724300	0.705900
C351	C35	0.625000	0.757000	0.622000
H351	H35	0.716300	0.748900	0.606600
C361	C36	0.530000	0.784000	0.585000
C371	C37	0.573000	0.807000	0.520000
C381	C38	0.057000	0.144000	0.869000
H361	H36	0.068400	0.230300	0.844300
C391	C39	0.030000	0.135000	0.929000
H371	H37	0.023900	0.213100	0.943800
C401	C40	0.013000	0.008000	0.967000
C411	C41	0.726000	0.907000	0.828000
H381	H38	0.733900	0.836000	0.807600
C421	C42	0.725000	0.135000	0.826000
H391	H39	0.736100	0.224000	0.804400
C431	C43	0.479000	0.850000	0.483000
H401	H40	0.388800	0.861100	0.498400
C441	C44	0.705000	0.790000	0.494000
H411	H41	0.769500	0.759700	0.517100
C451	C45	0.048000	0.913000	0.880000
H421	H42	0.054200	0.835600	0.864200
C461	C46	0.021000	0.897000	0.941000
H431	H43	0.008200	0.810000	0.964600
C471	C47	0.696000	0.980000	0.919000
C481	C48	0.600000	0.449000	0.562000
H441	H44	0.686100	0.443300	0.541000
C491	C49	0.395000	0.793000	0.611000
H451	H45	0.328100	0.811000	0.588000
C501	C50	0.671000	0.949000	0.984000
C511	C51	0.364000	0.776000	0.671000
H461	H46	0.273300	0.783100	0.687900
C521	C52	0.707000	0.876000	0.888000
H471	H47	0.701800	0.785900	0.908100
C531	C53	0.520000	0.876000	0.423000
H481	H48	0.458500	0.904400	0.397600
C541	C54	0.741000	0.816000	0.433000
H491	H49	0.830300	0.804600	0.416200
C551	C55	0.620000	0.793000	0.078000
H501	H50	0.601300	0.704800	0.099000
C561	C56	0.644000	0.818000	0.017000
H511	H51	0.643000	0.746900	0.997900
C571	C57	0.644000	0.021000	0.077000
H521	H52	0.643400	0.090300	0.097300
C581	C58	0.669000	0.052000	0.015000
H531	H53	0.684700	0.141400	0.995100
C591	C59	0.491000	0.484000	0.533000
C601	C60	0.701000	0.111000	0.887000
H541	H54	0.688000	0.183400	0.906500
H551	H55	0.606900	0.865200	0.145800
H561	H56	0.669000	0.878500	0.361100
H571	H57	0.047200	0.968900	0.599200
H581	H58	0.983300	0.376800	0.596700
H591	H59	0.154000	0.452300	0.900100
H601	H60	0.711300	0.466000	0.899800
N71	N7	0.622000	0.894000	0.106000
N81	N8	0.067000	0.036000	0.843000
N91	N9	0.457000	0.428000	0.657000
N101	N10	0.453000	0.751000	0.707000
N111	N11	0.734000	0.035000	0.796000
N121	N12	0.650000	0.859000	0.400000
O211	O21	0.216000	0.676000	0.817000
O221	O22	0.023000	0.525000	0.816000
O231	O23	0.206000	0.430000	0.871000
O241	O24	0.256000	0.482000	0.763000
O251	O25	0.508000	0.634000	0.842000
O261	O26	0.557000	0.441000	0.788000
O271	O27	0.641000	0.433000	0.880000
O281	O28	0.740000	0.606000	0.791000
O291	O29	0.297000	0.067000	0.717000
O301	O30	0.414000	0.189000	0.779000
O311	O31	0.413000	0.939000	0.798000
O321	O32	0.547000	0.074000	0.702000
O331	O33	0.833000	0.237000	0.670000
O341	O34	0.889000	0.419000	0.716000
O351	O35	0.039000	0.221000	0.716000
O361	O36	0.032000	0.386000	0.623000
O371	O37	0.836000	0.929000	0.675000
O381	O38	0.012000	0.902000	0.741000
O391	O39	0.975000	0.718000	0.688000
O401	O40	0.084000	0.938000	0.632000
P61	P6	0.175000	0.533000	0.814900
P71	P7	0.947000	0.313000	0.684400
P81	P8	0.974000	0.870000	0.686200
P91	P9	0.420000	0.066000	0.748700
P101	P10	0.611000	0.531000	0.822800
Zn61	Zn6	0.396700	0.751100	0.793800
Zn71	Zn7	0.737900	0.071000	0.708600
Zn81	Zn8	0.421800	0.386700	0.748900
Zn91	Zn9	0.105100	0.055100	0.753700
Zn101	Zn10	0.918500	0.563400	0.753100
