data_WEFZIS_clean_PM
_symmetry_space_group_name_H-M	'P1'
_cell_length_a	9.119000
_cell_length_b	9.119000
_cell_length_c	14.494100
_cell_angle_alpha	100.224000
_cell_angle_beta	100.224000
_cell_angle_gamma	115.832000
_symmetry_Int_Tables_number 1

loop_
_symmetry_equiv_pos_as_xyz
'x,y,z'

loop_
_atom_site_label
_atom_site_type_symbol
_atom_site_fract_x
_atom_site_fract_y
_atom_site_fract_z
Gd11	Gd1	0.740490	0.990490	0.480980
Gd21	Gd2	0.509510	0.759510	0.019020
Gd31	Gd3	0.259510	0.009510	0.519020
Gd41	Gd4	0.490490	0.240490	0.980980
H11	H1	0.179200	0.569200	0.490400
H21	H2	0.134400	0.517400	0.376800
H31	H3	0.311200	0.421200	0.490400
H41	H4	0.242400	0.359400	0.376800
H51	H5	0.930800	0.320800	0.009600
H61	H6	0.982600	0.365600	0.123200
H71	H7	0.078800	0.188800	0.009600
H81	H8	0.140600	0.257600	0.123200
H91	H9	0.820800	0.430800	0.509600
H101	H10	0.865600	0.482600	0.623200
H111	H11	0.688800	0.578800	0.509600
H121	H12	0.757600	0.640600	0.623200
H131	H13	0.069200	0.679200	0.990400
H141	H14	0.017400	0.634400	0.876800
H151	H15	0.921200	0.811200	0.990400
H161	H16	0.859400	0.742400	0.876800
C11	C1	0.376650	0.696270	0.441720
C21	C2	0.219240	0.539680	0.435920
C31	C3	0.065070	0.245450	0.441720
C41	C4	0.216680	0.396240	0.435920
C51	C5	0.803730	0.123350	0.058280
C61	C6	0.960320	0.280760	0.064080
C71	C7	0.254550	0.434930	0.058280
C81	C8	0.103760	0.283320	0.064080
C91	C9	0.623350	0.303730	0.558280
C101	C10	0.780760	0.460320	0.564080
C111	C11	0.934930	0.754550	0.558280
C121	C12	0.783320	0.603760	0.564080
C131	C13	0.196270	0.876650	0.941720
C141	C14	0.039680	0.719240	0.935920
C151	C15	0.745450	0.565070	0.941720
C161	C16	0.896240	0.716680	0.935920
C171	C17	0.574800	0.925200	0.250000
C181	C18	0.675200	0.824800	0.250000
C191	C19	0.425200	0.074800	0.750000
C201	C20	0.324800	0.175200	0.750000
O11	O1	0.504440	0.692460	0.424100
O21	O2	0.373990	0.834090	0.467080
O31	O3	0.569100	0.991900	0.331400
O41	O4	0.919660	0.231640	0.424100
O51	O5	0.093090	0.132990	0.467080
O61	O6	0.762300	0.839500	0.331400
O71	O7	0.807540	0.995560	0.075900
O81	O8	0.665910	0.126010	0.032920
O91	O9	0.508100	0.930900	0.168600
O101	O10	0.268360	0.580340	0.075900
O111	O11	0.367010	0.406910	0.032920
O121	O12	0.660500	0.737700	0.168600
O131	O13	0.495560	0.307540	0.575900
O141	O14	0.626010	0.165910	0.532920
O151	O15	0.430900	0.008100	0.668600
O161	O16	0.080340	0.768360	0.575900
O171	O17	0.906910	0.867010	0.532920
O181	O18	0.237700	0.160500	0.668600
O191	O19	0.192460	0.004440	0.924100
O201	O20	0.334090	0.873990	0.967080
O211	O21	0.491900	0.069100	0.831400
O221	O22	0.731640	0.419660	0.924100
O231	O23	0.632990	0.593090	0.967080
O241	O24	0.339500	0.262300	0.831400
