data_WEGDIX_charged_PM
_symmetry_space_group_name_H-M	'P1'
_cell_length_a	7.839800
_cell_length_b	14.425000
_cell_length_c	14.488400
_cell_angle_alpha	90.760000
_cell_angle_beta	97.907000
_cell_angle_gamma	105.506000
_symmetry_Int_Tables_number 1

loop_
_symmetry_equiv_pos_as_xyz
'x,y,z'

loop_
_atom_site_label
_atom_site_type_symbol
_atom_site_fract_x
_atom_site_fract_y
_atom_site_fract_z
Cd11	Cd1	0.724420	0.963820	0.993410
Cd21	Cd2	0.558610	0.472970	0.646430
Cd31	Cd3	0.275580	0.036180	0.006590
Cd41	Cd4	0.441390	0.527030	0.353570
H11	H1	0.619200	0.759200	0.854400
H21	H2	0.011200	0.631200	0.904400
H31	H3	0.152200	0.749100	0.019600
H41	H4	0.643300	0.779700	0.140500
H51	H5	0.433000	0.866600	0.348300
H61	H6	0.467000	0.014900	0.283400
H71	H7	0.380800	0.240800	0.145600
H81	H8	0.988800	0.368800	0.095600
H91	H9	0.847800	0.250900	0.980400
H101	H10	0.356700	0.220300	0.859500
H111	H11	0.567000	0.133400	0.651700
H121	H12	0.533000	0.985100	0.716600
C11	C1	0.728100	0.756900	0.887700
C21	C2	0.796400	0.683100	0.866000
C31	C3	0.959800	0.680300	0.916800
C41	C4	0.043700	0.750600	0.985200
C51	C5	0.967100	0.824100	0.003300
C61	C6	0.701100	0.607800	0.789200
C71	C7	0.604500	0.826900	0.169200
C81	C8	0.532500	0.805700	0.250200
C91	C9	0.480900	0.877700	0.293000
C101	C10	0.499900	0.966000	0.254100
C111	C11	0.569500	0.980900	0.169900
C121	C12	0.506600	0.706800	0.287300
C131	C13	0.271900	0.243100	0.112300
C141	C14	0.203600	0.316900	0.134000
C151	C15	0.040200	0.319700	0.083200
C161	C16	0.956300	0.249400	0.014800
C171	C17	0.032900	0.175900	0.996700
C181	C18	0.298900	0.392200	0.210800
C191	C19	0.395500	0.173100	0.830800
C201	C20	0.467500	0.194300	0.749800
C211	C21	0.519100	0.122300	0.707000
C221	C22	0.500100	0.034000	0.745900
C231	C23	0.430500	0.019100	0.830100
C241	C24	0.493400	0.293200	0.712700
S11	S1	0.063640	0.914310	0.090860
S21	S2	0.593610	0.087170	0.111090
S31	S3	0.782480	0.566580	0.502730
S41	S4	0.936360	0.085690	0.909140
S51	S5	0.406390	0.912830	0.888910
S61	S6	0.217520	0.433420	0.497270
N11	N1	0.809000	0.826400	0.954300
N21	N2	0.621900	0.911100	0.129200
N31	N3	0.191000	0.173600	0.045700
N41	N4	0.378100	0.088900	0.870800
O11	O1	0.773300	0.544700	0.770300
O21	O2	0.554300	0.612000	0.747300
O31	O3	0.581400	0.651200	0.254800
O41	O4	0.411000	0.684500	0.350000
O51	O5	0.630800	0.596500	0.530900
O61	O6	0.813200	0.489700	0.561600
O71	O7	0.730700	0.528800	0.403590
O81	O8	0.941800	0.647900	0.508300
O91	O9	0.226700	0.455300	0.229700
O101	O10	0.445700	0.388000	0.252700
O111	O11	0.418600	0.348800	0.745200
O121	O12	0.589000	0.315500	0.650000
O131	O13	0.369200	0.403500	0.469100
O141	O14	0.186800	0.510300	0.438400
O151	O15	0.269300	0.471200	0.596410
O161	O16	0.058200	0.352100	0.491700
H131	H13	0.897200	0.753100	0.308100
H141	H14	0.080100	0.789500	0.374400
H151	H15	0.076500	0.785000	0.265900
H161	H16	0.064700	0.632100	0.191600
H171	H17	0.988400	0.538700	0.243500
H181	H18	0.865200	0.604800	0.209700
H191	H19	0.970000	0.626100	0.361800
H201	H20	0.151800	0.659200	0.340900
C251	C25	0.021400	0.754300	0.316900
C261	C26	0.984800	0.604000	0.234500
N51	N5	0.037200	0.657100	0.320200
H211	H21	0.703200	0.304600	0.238200
H221	H22	0.899000	0.366000	0.274500
H231	H23	0.840800	0.255700	0.292100
H241	H24	0.679000	0.206200	0.428100
H251	H25	0.585700	0.278500	0.467700
H261	H26	0.519000	0.231900	0.366300
H271	H27	0.695600	0.384500	0.368900
H281	H28	0.844400	0.355700	0.419700
C271	C27	0.802200	0.313500	0.287600
C281	C28	0.622100	0.256400	0.412700
N61	N6	0.746100	0.335500	0.376700
H291	H29	0.102800	0.246900	0.691900
H301	H30	0.919900	0.210500	0.625600
H311	H31	0.923500	0.215000	0.734100
H321	H32	0.935300	0.367900	0.808400
H331	H33	0.011600	0.461300	0.756500
H341	H34	0.134800	0.395200	0.790300
H351	H35	0.030000	0.373900	0.638200
H361	H36	0.848200	0.340800	0.659100
C291	C29	0.978600	0.245700	0.683100
C301	C30	0.015200	0.396000	0.765500
N71	N7	0.962800	0.342900	0.679800
H371	H37	0.296800	0.695400	0.761800
H381	H38	0.101000	0.634000	0.725500
H391	H39	0.159200	0.744300	0.707900
H401	H40	0.321000	0.793800	0.571900
H411	H41	0.414300	0.721500	0.532300
H421	H42	0.481000	0.768100	0.633700
H431	H43	0.304400	0.615500	0.631100
H441	H44	0.155600	0.644300	0.580300
C311	C31	0.197800	0.686500	0.712400
C321	C32	0.377900	0.743600	0.587300
N81	N8	0.253900	0.664500	0.623300
