data_WEGJUP_clean_PM
_symmetry_space_group_name_H-M	'P1'
_cell_length_a	20.245900
_cell_length_b	20.245900
_cell_length_c	23.016000
_cell_angle_alpha	90.000000
_cell_angle_beta	90.000000
_cell_angle_gamma	120.000000
_symmetry_Int_Tables_number 1

loop_
_symmetry_equiv_pos_as_xyz
'x,y,z'

loop_
_atom_site_label
_atom_site_type_symbol
_atom_site_fract_x
_atom_site_fract_y
_atom_site_fract_z
P11	P1	0.111390	0.788070	0.003500
P21	P2	0.312040	0.885500	0.109970
P31	P3	0.119530	0.918860	0.157980
Al11	Al1	0.221150	0.951410	0.049240
Al21	Al2	0.139400	0.777800	0.134020
O11	O1	0.135700	0.753500	0.957350
O21	O2	0.163000	0.875100	0.005890
O31	O3	0.030500	0.773000	0.993300
O41	O4	0.110600	0.754400	0.062970
O51	O5	0.238100	0.820700	0.135800
O61	O6	0.361500	0.930400	0.161500
O71	O7	0.351600	0.856000	0.072600
O81	O8	0.162700	0.962500	0.211300
O91	O9	0.293800	0.939200	0.076200
O101	O10	0.109800	0.837700	0.161700
O111	O11	0.170100	0.960400	0.105100
O121	O12	0.044100	0.912700	0.152900
P41	P4	0.778060	0.121400	0.336830
P51	P5	0.978710	0.218830	0.443300
P61	P6	0.786200	0.252190	0.491310
Al31	Al3	0.887820	0.284740	0.382570
Al41	Al4	0.806070	0.111130	0.467350
O131	O13	0.802370	0.086830	0.290680
O141	O14	0.829670	0.208430	0.339220
O151	O15	0.697170	0.106330	0.326630
O161	O16	0.777270	0.087730	0.396300
O171	O17	0.904770	0.154030	0.469130
O181	O18	0.028170	0.263730	0.494830
O191	O19	0.018270	0.189330	0.405930
O201	O20	0.829370	0.295830	0.544630
O211	O21	0.960470	0.272530	0.409530
O221	O22	0.776470	0.171030	0.495030
O231	O23	0.836770	0.293730	0.438430
O241	O24	0.710770	0.246030	0.486230
P71	P7	0.444720	0.454740	0.670170
P81	P8	0.645370	0.552170	0.776640
P91	P9	0.452860	0.585530	0.824650
Al51	Al5	0.554480	0.618080	0.715910
Al61	Al6	0.472730	0.444470	0.800690
O251	O25	0.469030	0.420170	0.624020
O261	O26	0.496330	0.541770	0.672560
O271	O27	0.363830	0.439670	0.659970
O281	O28	0.443930	0.421070	0.729640
O291	O29	0.571430	0.487370	0.802470
O301	O30	0.694830	0.597070	0.828170
O311	O31	0.684930	0.522670	0.739270
O321	O32	0.496030	0.629170	0.877970
O331	O33	0.627130	0.605870	0.742870
O341	O34	0.443130	0.504370	0.828370
O351	O35	0.503430	0.627070	0.771770
O361	O36	0.377430	0.579370	0.819570
P101	P10	0.211930	0.323320	0.003500
P111	P11	0.114500	0.426540	0.109970
P121	P12	0.081140	0.200670	0.157980
Al71	Al7	0.048590	0.269740	0.049240
Al81	Al8	0.222200	0.361600	0.134020
O371	O37	0.246500	0.382200	0.957350
O381	O38	0.124900	0.287900	0.005890
O391	O39	0.227000	0.257500	0.993300
O401	O40	0.245600	0.356200	0.062970
O411	O41	0.179300	0.417400	0.135800
O421	O42	0.069600	0.431100	0.161500
O431	O43	0.144000	0.495600	0.072600
O441	O44	0.037500	0.200200	0.211300
O451	O45	0.060800	0.354600	0.076200
O461	O46	0.162300	0.272100	0.161700
O471	O47	0.039600	0.209700	0.105100
O481	O48	0.087300	0.131400	0.152900
P131	P13	0.878600	0.656650	0.336830
P141	P14	0.781170	0.759870	0.443300
P151	P15	0.747810	0.534000	0.491310
Al91	Al9	0.715260	0.603070	0.382570
Al101	Al10	0.888870	0.694930	0.467350
O491	O49	0.913170	0.715530	0.290680
O501	O50	0.791570	0.621230	0.339220
O511	O51	0.893670	0.590830	0.326630
O521	O52	0.912270	0.689530	0.396300
O531	O53	0.845970	0.750730	0.469130
O541	O54	0.736270	0.764430	0.494830
O551	O55	0.810670	0.828930	0.405930
O561	O56	0.704170	0.533530	0.544630
O571	O57	0.727470	0.687930	0.409530
O581	O58	0.828970	0.605430	0.495030
O591	O59	0.706270	0.543030	0.438430
O601	O60	0.753970	0.464730	0.486230
P161	P16	0.545260	0.989990	0.670170
P171	P17	0.447830	0.093210	0.776640
P181	P18	0.414470	0.867340	0.824650
Al111	Al11	0.381920	0.936410	0.715910
Al121	Al12	0.555530	0.028270	0.800690
O611	O61	0.579830	0.048870	0.624020
O621	O62	0.458230	0.954570	0.672560
O631	O63	0.560330	0.924170	0.659970
O641	O64	0.578930	0.022870	0.729640
O651	O65	0.512630	0.084070	0.802470
O661	O66	0.402930	0.097770	0.828170
O671	O67	0.477330	0.162270	0.739270
O681	O68	0.370830	0.866870	0.877970
O691	O69	0.394130	0.021270	0.742870
O701	O70	0.495630	0.938770	0.828370
O711	O71	0.372930	0.876370	0.771770
O721	O72	0.420630	0.798070	0.819570
P191	P19	0.676680	0.888610	0.003500
P201	P20	0.573460	0.687960	0.109970
P211	P21	0.799330	0.880470	0.157980
Al131	Al13	0.730260	0.778850	0.049240
Al141	Al14	0.638400	0.860600	0.134020
O731	O73	0.617800	0.864300	0.957350
O741	O74	0.712100	0.837000	0.005890
O751	O75	0.742500	0.969500	0.993300
O761	O76	0.643800	0.889400	0.062970
O771	O77	0.582600	0.761900	0.135800
O781	O78	0.568900	0.638500	0.161500
O791	O79	0.504400	0.648400	0.072600
O801	O80	0.799800	0.837300	0.211300
O811	O81	0.645400	0.706200	0.076200
O821	O82	0.727900	0.890200	0.161700
O831	O83	0.790300	0.829900	0.105100
O841	O84	0.868600	0.955900	0.152900
P221	P22	0.343350	0.221940	0.336830
P231	P23	0.240130	0.021290	0.443300
P241	P24	0.466000	0.213800	0.491310
Al151	Al15	0.396930	0.112180	0.382570
Al161	Al16	0.305070	0.193930	0.467350
O851	O85	0.284470	0.197630	0.290680
O861	O86	0.378770	0.170330	0.339220
O871	O87	0.409170	0.302830	0.326630
O881	O88	0.310470	0.222730	0.396300
O891	O89	0.249270	0.095230	0.469130
O901	O90	0.235570	0.971830	0.494830
O911	O91	0.171070	0.981730	0.405930
O921	O92	0.466470	0.170630	0.544630
O931	O93	0.312070	0.039530	0.409530
O941	O94	0.394570	0.223530	0.495030
O951	O95	0.456970	0.163230	0.438430
O961	O96	0.535270	0.289230	0.486230
P251	P25	0.010010	0.555280	0.670170
P261	P26	0.906790	0.354630	0.776640
P271	P27	0.132660	0.547140	0.824650
Al171	Al17	0.063590	0.445520	0.715910
Al181	Al18	0.971730	0.527270	0.800690
O971	O97	0.951130	0.530970	0.624020
O981	O98	0.045430	0.503670	0.672560
O991	O99	0.075830	0.636170	0.659970
O1001	O100	0.977130	0.556070	0.729640
O1011	O101	0.915930	0.428570	0.802470
O1021	O102	0.902230	0.305170	0.828170
O1031	O103	0.837730	0.315070	0.739270
O1041	O104	0.133130	0.503970	0.877970
O1051	O105	0.978730	0.372870	0.742870
O1061	O106	0.061230	0.556870	0.828370
O1071	O107	0.123630	0.496570	0.771770
O1081	O108	0.201930	0.622570	0.819570
P281	P28	0.888610	0.211930	0.996500
P291	P29	0.687960	0.114500	0.890030
P301	P30	0.880470	0.081140	0.842020
Al191	Al19	0.778850	0.048590	0.950760
Al201	Al20	0.860600	0.222200	0.865980
O1091	O109	0.864300	0.246500	0.042650
O1101	O110	0.837000	0.124900	0.994110
O1111	O111	0.969500	0.227000	0.006700
O1121	O112	0.889400	0.245600	0.937030
O1131	O113	0.761900	0.179300	0.864200
O1141	O114	0.638500	0.069600	0.838500
O1151	O115	0.648400	0.144000	0.927400
O1161	O116	0.837300	0.037500	0.788700
O1171	O117	0.706200	0.060800	0.923800
O1181	O118	0.890200	0.162300	0.838300
O1191	O119	0.829900	0.039600	0.894900
O1201	O120	0.955900	0.087300	0.847100
P311	P31	0.555280	0.545260	0.329830
P321	P32	0.354630	0.447830	0.223360
P331	P33	0.547140	0.414470	0.175350
Al211	Al21	0.445520	0.381920	0.284090
Al221	Al22	0.527270	0.555530	0.199310
O1211	O121	0.530970	0.579830	0.375980
O1221	O122	0.503670	0.458230	0.327440
O1231	O123	0.636170	0.560330	0.340030
O1241	O124	0.556070	0.578930	0.270360
O1251	O125	0.428570	0.512630	0.197530
O1261	O126	0.305170	0.402930	0.171830
O1271	O127	0.315070	0.477330	0.260730
O1281	O128	0.503970	0.370830	0.122030
O1291	O129	0.372870	0.394130	0.257130
O1301	O130	0.556870	0.495630	0.171630
O1311	O131	0.496570	0.372930	0.228230
O1321	O132	0.622570	0.420630	0.180430
P341	P34	0.221940	0.878600	0.663170
P351	P35	0.021290	0.781170	0.556700
P361	P36	0.213800	0.747810	0.508690
Al231	Al23	0.112180	0.715260	0.617430
Al241	Al24	0.193930	0.888870	0.532650
O1331	O133	0.197630	0.913170	0.709320
O1341	O134	0.170330	0.791570	0.660780
O1351	O135	0.302830	0.893670	0.673370
O1361	O136	0.222730	0.912270	0.603700
O1371	O137	0.095230	0.845970	0.530870
O1381	O138	0.971830	0.736270	0.505170
O1391	O139	0.981730	0.810670	0.594070
O1401	O140	0.170630	0.704170	0.455370
O1411	O141	0.039530	0.727470	0.590470
O1421	O142	0.223530	0.828970	0.504970
O1431	O143	0.163230	0.706270	0.561570
O1441	O144	0.289230	0.753970	0.513770
P371	P37	0.788070	0.676680	0.996500
P381	P38	0.885500	0.573460	0.890030
P391	P39	0.918860	0.799330	0.842020
Al251	Al25	0.951410	0.730260	0.950760
Al261	Al26	0.777800	0.638400	0.865980
O1451	O145	0.753500	0.617800	0.042650
O1461	O146	0.875100	0.712100	0.994110
O1471	O147	0.773000	0.742500	0.006700
O1481	O148	0.754400	0.643800	0.937030
O1491	O149	0.820700	0.582600	0.864200
O1501	O150	0.930400	0.568900	0.838500
O1511	O151	0.856000	0.504400	0.927400
O1521	O152	0.962500	0.799800	0.788700
O1531	O153	0.939200	0.645400	0.923800
O1541	O154	0.837700	0.727900	0.838300
O1551	O155	0.960400	0.790300	0.894900
O1561	O156	0.912700	0.868600	0.847100
P401	P40	0.454740	0.010010	0.329830
P411	P41	0.552170	0.906790	0.223360
P421	P42	0.585530	0.132660	0.175350
Al271	Al27	0.618080	0.063590	0.284090
Al281	Al28	0.444470	0.971730	0.199310
O1571	O157	0.420170	0.951130	0.375980
O1581	O158	0.541770	0.045430	0.327440
O1591	O159	0.439670	0.075830	0.340030
O1601	O160	0.421070	0.977130	0.270360
O1611	O161	0.487370	0.915930	0.197530
O1621	O162	0.597070	0.902230	0.171830
O1631	O163	0.522670	0.837730	0.260730
O1641	O164	0.629170	0.133130	0.122030
O1651	O165	0.605870	0.978730	0.257130
O1661	O166	0.504370	0.061230	0.171630
O1671	O167	0.627070	0.123630	0.228230
O1681	O168	0.579370	0.201930	0.180430
P431	P43	0.121400	0.343350	0.663170
P441	P44	0.218830	0.240130	0.556700
P451	P45	0.252190	0.466000	0.508690
Al291	Al29	0.284740	0.396930	0.617430
Al301	Al30	0.111130	0.305070	0.532650
O1691	O169	0.086830	0.284470	0.709320
O1701	O170	0.208430	0.378770	0.660780
O1711	O171	0.106330	0.409170	0.673370
O1721	O172	0.087730	0.310470	0.603700
O1731	O173	0.154030	0.249270	0.530870
O1741	O174	0.263730	0.235570	0.505170
O1751	O175	0.189330	0.171070	0.594070
O1761	O176	0.295830	0.466470	0.455370
O1771	O177	0.272530	0.312070	0.590470
O1781	O178	0.171030	0.394570	0.504970
O1791	O179	0.293730	0.456970	0.561570
O1801	O180	0.246030	0.535270	0.513770
P461	P46	0.323320	0.111390	0.996500
P471	P47	0.426540	0.312040	0.890030
P481	P48	0.200670	0.119530	0.842020
Al311	Al31	0.269740	0.221150	0.950760
Al321	Al32	0.361600	0.139400	0.865980
O1811	O181	0.382200	0.135700	0.042650
O1821	O182	0.287900	0.163000	0.994110
O1831	O183	0.257500	0.030500	0.006700
O1841	O184	0.356200	0.110600	0.937030
O1851	O185	0.417400	0.238100	0.864200
O1861	O186	0.431100	0.361500	0.838500
O1871	O187	0.495600	0.351600	0.927400
O1881	O188	0.200200	0.162700	0.788700
O1891	O189	0.354600	0.293800	0.923800
O1901	O190	0.272100	0.109800	0.838300
O1911	O191	0.209700	0.170100	0.894900
O1921	O192	0.131400	0.044100	0.847100
P491	P49	0.989990	0.444720	0.329830
P501	P50	0.093210	0.645370	0.223360
P511	P51	0.867340	0.452860	0.175350
Al331	Al33	0.936410	0.554480	0.284090
Al341	Al34	0.028270	0.472730	0.199310
O1931	O193	0.048870	0.469030	0.375980
O1941	O194	0.954570	0.496330	0.327440
O1951	O195	0.924170	0.363830	0.340030
O1961	O196	0.022870	0.443930	0.270360
O1971	O197	0.084070	0.571430	0.197530
O1981	O198	0.097770	0.694830	0.171830
O1991	O199	0.162270	0.684930	0.260730
O2001	O200	0.866870	0.496030	0.122030
O2011	O201	0.021270	0.627130	0.257130
O2021	O202	0.938770	0.443130	0.171630
O2031	O203	0.876370	0.503430	0.228230
O2041	O204	0.798070	0.377430	0.180430
P521	P52	0.656650	0.778060	0.663170
P531	P53	0.759870	0.978710	0.556700
P541	P54	0.534000	0.786200	0.508690
Al351	Al35	0.603070	0.887820	0.617430
Al361	Al36	0.694930	0.806070	0.532650
O2051	O205	0.715530	0.802370	0.709320
O2061	O206	0.621230	0.829670	0.660780
O2071	O207	0.590830	0.697170	0.673370
O2081	O208	0.689530	0.777270	0.603700
O2091	O209	0.750730	0.904770	0.530870
O2101	O210	0.764430	0.028170	0.505170
O2111	O211	0.828930	0.018270	0.594070
O2121	O212	0.533530	0.829370	0.455370
O2131	O213	0.687930	0.960470	0.590470
O2141	O214	0.605430	0.776470	0.504970
O2151	O215	0.543030	0.836770	0.561570
O2161	O216	0.464730	0.710770	0.513770
