data_WEGKIE_clean_PM
_symmetry_space_group_name_H-M	'P1'
_cell_length_a	30.791100
_cell_length_b	30.791100
_cell_length_c	30.791100
_cell_angle_alpha	90.000000
_cell_angle_beta	90.000000
_cell_angle_gamma	90.000000
_symmetry_Int_Tables_number 1

loop_
_symmetry_equiv_pos_as_xyz
'x,y,z'

loop_
_atom_site_label
_atom_site_type_symbol
_atom_site_fract_x
_atom_site_fract_y
_atom_site_fract_z
O11	O1	0.155860	0.044620	0.292730
O21	O2	0.156050	0.954970	0.207500
O31	O3	0.155860	0.544620	0.792730
O41	O4	0.156050	0.454970	0.707500
O51	O5	0.655860	0.044620	0.792730
O61	O6	0.656050	0.954970	0.707500
O71	O7	0.655860	0.544620	0.292730
O81	O8	0.656050	0.454970	0.207500
O91	O9	0.844140	0.955380	0.292730
O101	O10	0.843950	0.045030	0.207500
O111	O11	0.844140	0.455380	0.792730
O121	O12	0.843950	0.545030	0.707500
O131	O13	0.344140	0.955380	0.792730
O141	O14	0.343950	0.045030	0.707500
O151	O15	0.344140	0.455380	0.292730
O161	O16	0.343950	0.545030	0.207500
O171	O17	0.844140	0.044620	0.707270
O181	O18	0.843950	0.954970	0.792500
O191	O19	0.844140	0.544620	0.207270
O201	O20	0.843950	0.454970	0.292500
O211	O21	0.344140	0.044620	0.207270
O221	O22	0.343950	0.954970	0.292500
O231	O23	0.344140	0.544620	0.707270
O241	O24	0.343950	0.454970	0.792500
O251	O25	0.155860	0.955380	0.707270
O261	O26	0.156050	0.045030	0.792500
O271	O27	0.155860	0.455380	0.207270
O281	O28	0.156050	0.545030	0.292500
O291	O29	0.655860	0.955380	0.207270
O301	O30	0.656050	0.045030	0.292500
O311	O31	0.655860	0.455380	0.707270
O321	O32	0.656050	0.545030	0.792500
O331	O33	0.292730	0.155860	0.044620
O341	O34	0.207500	0.156050	0.954970
O351	O35	0.292730	0.655860	0.544620
O361	O36	0.207500	0.656050	0.454970
O371	O37	0.792730	0.155860	0.544620
O381	O38	0.707500	0.156050	0.454970
O391	O39	0.792730	0.655860	0.044620
O401	O40	0.707500	0.656050	0.954970
O411	O41	0.292730	0.844140	0.955380
O421	O42	0.207500	0.843950	0.045030
O431	O43	0.292730	0.344140	0.455380
O441	O44	0.207500	0.343950	0.545030
O451	O45	0.792730	0.844140	0.455380
O461	O46	0.707500	0.843950	0.545030
O471	O47	0.792730	0.344140	0.955380
O481	O48	0.707500	0.343950	0.045030
O491	O49	0.707270	0.844140	0.044620
O501	O50	0.792500	0.843950	0.954970
O511	O51	0.707270	0.344140	0.544620
O521	O52	0.792500	0.343950	0.454970
O531	O53	0.207270	0.844140	0.544620
O541	O54	0.292500	0.843950	0.454970
O551	O55	0.207270	0.344140	0.044620
O561	O56	0.292500	0.343950	0.954970
O571	O57	0.707270	0.155860	0.955380
O581	O58	0.792500	0.156050	0.045030
O591	O59	0.707270	0.655860	0.455380
O601	O60	0.792500	0.656050	0.545030
O611	O61	0.207270	0.155860	0.455380
O621	O62	0.292500	0.156050	0.545030
O631	O63	0.207270	0.655860	0.955380
O641	O64	0.292500	0.656050	0.045030
O651	O65	0.044620	0.292730	0.155860
O661	O66	0.954970	0.207500	0.156050
O671	O67	0.044620	0.792730	0.655860
O681	O68	0.954970	0.707500	0.656050
O691	O69	0.544620	0.292730	0.655860
O701	O70	0.454970	0.207500	0.656050
O711	O71	0.544620	0.792730	0.155860
O721	O72	0.454970	0.707500	0.156050
O731	O73	0.955380	0.292730	0.844140
O741	O74	0.045030	0.207500	0.843950
O751	O75	0.955380	0.792730	0.344140
O761	O76	0.045030	0.707500	0.343950
O771	O77	0.455380	0.292730	0.344140
O781	O78	0.545030	0.207500	0.343950
O791	O79	0.455380	0.792730	0.844140
O801	O80	0.545030	0.707500	0.843950
O811	O81	0.044620	0.707270	0.844140
O821	O82	0.954970	0.792500	0.843950
O831	O83	0.044620	0.207270	0.344140
O841	O84	0.954970	0.292500	0.343950
O851	O85	0.544620	0.707270	0.344140
O861	O86	0.454970	0.792500	0.343950
O871	O87	0.544620	0.207270	0.844140
O881	O88	0.454970	0.292500	0.843950
O891	O89	0.955380	0.707270	0.155860
O901	O90	0.045030	0.792500	0.156050
O911	O91	0.955380	0.207270	0.655860
O921	O92	0.045030	0.292500	0.656050
O931	O93	0.455380	0.707270	0.655860
O941	O94	0.545030	0.792500	0.656050
O951	O95	0.455380	0.207270	0.155860
O961	O96	0.545030	0.292500	0.156050
O971	O97	0.044620	0.155860	0.707270
O981	O98	0.954970	0.156050	0.792500
O991	O99	0.044620	0.655860	0.207270
O1001	O100	0.954970	0.656050	0.292500
O1011	O101	0.544620	0.155860	0.207270
O1021	O102	0.454970	0.156050	0.292500
O1031	O103	0.544620	0.655860	0.707270
O1041	O104	0.454970	0.656050	0.792500
O1051	O105	0.955380	0.844140	0.707270
O1061	O106	0.045030	0.843950	0.792500
O1071	O107	0.955380	0.344140	0.207270
O1081	O108	0.045030	0.343950	0.292500
O1091	O109	0.455380	0.844140	0.207270
O1101	O110	0.545030	0.843950	0.292500
O1111	O111	0.455380	0.344140	0.707270
O1121	O112	0.545030	0.343950	0.792500
O1131	O113	0.044620	0.844140	0.292730
O1141	O114	0.954970	0.843950	0.207500
O1151	O115	0.044620	0.344140	0.792730
O1161	O116	0.954970	0.343950	0.707500
O1171	O117	0.544620	0.844140	0.792730
O1181	O118	0.454970	0.843950	0.707500
O1191	O119	0.544620	0.344140	0.292730
O1201	O120	0.454970	0.343950	0.207500
O1211	O121	0.955380	0.155860	0.292730
O1221	O122	0.045030	0.156050	0.207500
O1231	O123	0.955380	0.655860	0.792730
O1241	O124	0.045030	0.656050	0.707500
O1251	O125	0.455380	0.155860	0.792730
O1261	O126	0.545030	0.156050	0.707500
O1271	O127	0.455380	0.655860	0.292730
O1281	O128	0.545030	0.656050	0.207500
O1291	O129	0.155860	0.292730	0.955380
O1301	O130	0.156050	0.207500	0.045030
O1311	O131	0.155860	0.792730	0.455380
O1321	O132	0.156050	0.707500	0.545030
O1331	O133	0.655860	0.292730	0.455380
O1341	O134	0.656050	0.207500	0.545030
O1351	O135	0.655860	0.792730	0.955380
O1361	O136	0.656050	0.707500	0.045030
O1371	O137	0.844140	0.292730	0.044620
O1381	O138	0.843950	0.207500	0.954970
O1391	O139	0.844140	0.792730	0.544620
O1401	O140	0.843950	0.707500	0.454970
O1411	O141	0.344140	0.292730	0.544620
O1421	O142	0.343950	0.207500	0.454970
O1431	O143	0.344140	0.792730	0.044620
O1441	O144	0.343950	0.707500	0.954970
O1451	O145	0.844140	0.707270	0.955380
O1461	O146	0.843950	0.792500	0.045030
O1471	O147	0.844140	0.207270	0.455380
O1481	O148	0.843950	0.292500	0.545030
O1491	O149	0.344140	0.707270	0.455380
O1501	O150	0.343950	0.792500	0.545030
O1511	O151	0.344140	0.207270	0.955380
O1521	O152	0.343950	0.292500	0.045030
O1531	O153	0.155860	0.707270	0.044620
O1541	O154	0.156050	0.792500	0.954970
O1551	O155	0.155860	0.207270	0.544620
O1561	O156	0.156050	0.292500	0.454970
O1571	O157	0.655860	0.707270	0.544620
O1581	O158	0.656050	0.792500	0.454970
O1591	O159	0.655860	0.207270	0.044620
O1601	O160	0.656050	0.292500	0.954970
O1611	O161	0.292730	0.044620	0.844140
O1621	O162	0.207500	0.954970	0.843950
O1631	O163	0.292730	0.544620	0.344140
O1641	O164	0.207500	0.454970	0.343950
O1651	O165	0.792730	0.044620	0.344140
O1661	O166	0.707500	0.954970	0.343950
O1671	O167	0.792730	0.544620	0.844140
O1681	O168	0.707500	0.454970	0.843950
O1691	O169	0.292730	0.955380	0.155860
O1701	O170	0.207500	0.045030	0.156050
O1711	O171	0.292730	0.455380	0.655860
O1721	O172	0.207500	0.545030	0.656050
O1731	O173	0.792730	0.955380	0.655860
O1741	O174	0.707500	0.045030	0.656050
O1751	O175	0.792730	0.455380	0.155860
O1761	O176	0.707500	0.545030	0.156050
O1771	O177	0.707270	0.044620	0.155860
O1781	O178	0.792500	0.954970	0.156050
O1791	O179	0.707270	0.544620	0.655860
O1801	O180	0.792500	0.454970	0.656050
O1811	O181	0.207270	0.044620	0.655860
O1821	O182	0.292500	0.954970	0.656050
O1831	O183	0.207270	0.544620	0.155860
O1841	O184	0.292500	0.454970	0.156050
O1851	O185	0.707270	0.955380	0.844140
O1861	O186	0.792500	0.045030	0.843950
O1871	O187	0.707270	0.455380	0.344140
O1881	O188	0.792500	0.545030	0.343950
O1891	O189	0.207270	0.955380	0.344140
O1901	O190	0.292500	0.045030	0.343950
O1911	O191	0.207270	0.455380	0.844140
O1921	O192	0.292500	0.545030	0.843950
O1931	O193	0.844140	0.955380	0.707270
O1941	O194	0.843950	0.045030	0.792500
O1951	O195	0.844140	0.455380	0.207270
O1961	O196	0.843950	0.545030	0.292500
O1971	O197	0.344140	0.955380	0.207270
O1981	O198	0.343950	0.045030	0.292500
O1991	O199	0.344140	0.455380	0.707270
O2001	O200	0.343950	0.545030	0.792500
O2011	O201	0.155860	0.044620	0.707270
O2021	O202	0.156050	0.954970	0.792500
O2031	O203	0.155860	0.544620	0.207270
O2041	O204	0.156050	0.454970	0.292500
O2051	O205	0.655860	0.044620	0.207270
O2061	O206	0.656050	0.954970	0.292500
O2071	O207	0.655860	0.544620	0.707270
O2081	O208	0.656050	0.454970	0.792500
O2091	O209	0.155860	0.955380	0.292730
O2101	O210	0.156050	0.045030	0.207500
O2111	O211	0.155860	0.455380	0.792730
O2121	O212	0.156050	0.545030	0.707500
O2131	O213	0.655860	0.955380	0.792730
O2141	O214	0.656050	0.045030	0.707500
O2151	O215	0.655860	0.455380	0.292730
O2161	O216	0.656050	0.545030	0.207500
O2171	O217	0.844140	0.044620	0.292730
O2181	O218	0.843950	0.954970	0.207500
O2191	O219	0.844140	0.544620	0.792730
O2201	O220	0.843950	0.454970	0.707500
O2211	O221	0.344140	0.044620	0.792730
O2221	O222	0.343950	0.954970	0.707500
O2231	O223	0.344140	0.544620	0.292730
O2241	O224	0.343950	0.454970	0.207500
O2251	O225	0.707270	0.844140	0.955380
O2261	O226	0.792500	0.843950	0.045030
O2271	O227	0.707270	0.344140	0.455380
O2281	O228	0.792500	0.343950	0.545030
O2291	O229	0.207270	0.844140	0.455380
O2301	O230	0.292500	0.843950	0.545030
O2311	O231	0.207270	0.344140	0.955380
O2321	O232	0.292500	0.343950	0.045030
O2331	O233	0.707270	0.155860	0.044620
O2341	O234	0.792500	0.156050	0.954970
O2351	O235	0.707270	0.655860	0.544620
O2361	O236	0.792500	0.656050	0.454970
O2371	O237	0.207270	0.155860	0.544620
O2381	O238	0.292500	0.156050	0.454970
O2391	O239	0.207270	0.655860	0.044620
O2401	O240	0.292500	0.656050	0.954970
O2411	O241	0.292730	0.155860	0.955380
O2421	O242	0.207500	0.156050	0.045030
O2431	O243	0.292730	0.655860	0.455380
O2441	O244	0.207500	0.656050	0.545030
O2451	O245	0.792730	0.155860	0.455380
O2461	O246	0.707500	0.156050	0.545030
O2471	O247	0.792730	0.655860	0.955380
O2481	O248	0.707500	0.656050	0.045030
O2491	O249	0.292730	0.844140	0.044620
O2501	O250	0.207500	0.843950	0.954970
O2511	O251	0.292730	0.344140	0.544620
O2521	O252	0.207500	0.343950	0.454970
O2531	O253	0.792730	0.844140	0.544620
O2541	O254	0.707500	0.843950	0.454970
O2551	O255	0.792730	0.344140	0.044620
O2561	O256	0.707500	0.343950	0.954970
O2571	O257	0.955380	0.707270	0.844140
O2581	O258	0.045030	0.792500	0.843950
O2591	O259	0.955380	0.207270	0.344140
O2601	O260	0.045030	0.292500	0.343950
O2611	O261	0.455380	0.707270	0.344140
O2621	O262	0.545030	0.792500	0.343950
O2631	O263	0.455380	0.207270	0.844140
O2641	O264	0.545030	0.292500	0.843950
O2651	O265	0.044620	0.707270	0.155860
O2661	O266	0.954970	0.792500	0.156050
O2671	O267	0.044620	0.207270	0.655860
O2681	O268	0.954970	0.292500	0.656050
O2691	O269	0.544620	0.707270	0.655860
O2701	O270	0.454970	0.792500	0.656050
O2711	O271	0.544620	0.207270	0.155860
O2721	O272	0.454970	0.292500	0.156050
O2731	O273	0.955380	0.292730	0.155860
O2741	O274	0.045030	0.207500	0.156050
O2751	O275	0.955380	0.792730	0.655860
O2761	O276	0.045030	0.707500	0.656050
O2771	O277	0.455380	0.292730	0.655860
O2781	O278	0.545030	0.207500	0.656050
O2791	O279	0.455380	0.792730	0.155860
O2801	O280	0.545030	0.707500	0.156050
O2811	O281	0.044620	0.292730	0.844140
O2821	O282	0.954970	0.207500	0.843950
O2831	O283	0.044620	0.792730	0.344140
O2841	O284	0.954970	0.707500	0.343950
O2851	O285	0.544620	0.292730	0.344140
O2861	O286	0.454970	0.207500	0.343950
O2871	O287	0.544620	0.792730	0.844140
O2881	O288	0.454970	0.707500	0.843950
O2891	O289	0.955380	0.844140	0.292730
O2901	O290	0.045030	0.843950	0.207500
O2911	O291	0.955380	0.344140	0.792730
O2921	O292	0.045030	0.343950	0.707500
O2931	O293	0.455380	0.844140	0.792730
O2941	O294	0.545030	0.843950	0.707500
O2951	O295	0.455380	0.344140	0.292730
O2961	O296	0.545030	0.343950	0.207500
O2971	O297	0.044620	0.155860	0.292730
O2981	O298	0.954970	0.156050	0.207500
O2991	O299	0.044620	0.655860	0.792730
O3001	O300	0.954970	0.656050	0.707500
O3011	O301	0.544620	0.155860	0.792730
O3021	O302	0.454970	0.156050	0.707500
O3031	O303	0.544620	0.655860	0.292730
O3041	O304	0.454970	0.656050	0.207500
O3051	O305	0.955380	0.155860	0.707270
O3061	O306	0.045030	0.156050	0.792500
O3071	O307	0.955380	0.655860	0.207270
O3081	O308	0.045030	0.656050	0.292500
O3091	O309	0.455380	0.155860	0.207270
O3101	O310	0.545030	0.156050	0.292500
O3111	O311	0.455380	0.655860	0.707270
O3121	O312	0.545030	0.656050	0.792500
O3131	O313	0.044620	0.844140	0.707270
O3141	O314	0.954970	0.843950	0.792500
O3151	O315	0.044620	0.344140	0.207270
O3161	O316	0.954970	0.343950	0.292500
O3171	O317	0.544620	0.844140	0.207270
O3181	O318	0.454970	0.843950	0.292500
O3191	O319	0.544620	0.344140	0.707270
O3201	O320	0.454970	0.343950	0.792500
O3211	O321	0.844140	0.707270	0.044620
O3221	O322	0.843950	0.792500	0.954970
O3231	O323	0.844140	0.207270	0.544620
O3241	O324	0.843950	0.292500	0.454970
O3251	O325	0.344140	0.707270	0.544620
O3261	O326	0.343950	0.792500	0.454970
O3271	O327	0.344140	0.207270	0.044620
O3281	O328	0.343950	0.292500	0.954970
O3291	O329	0.155860	0.707270	0.955380
O3301	O330	0.156050	0.792500	0.045030
O3311	O331	0.155860	0.207270	0.455380
O3321	O332	0.156050	0.292500	0.545030
O3331	O333	0.655860	0.707270	0.455380
O3341	O334	0.656050	0.792500	0.545030
O3351	O335	0.655860	0.207270	0.955380
O3361	O336	0.656050	0.292500	0.045030
O3371	O337	0.155860	0.292730	0.044620
O3381	O338	0.156050	0.207500	0.954970
O3391	O339	0.155860	0.792730	0.544620
O3401	O340	0.156050	0.707500	0.454970
O3411	O341	0.655860	0.292730	0.544620
O3421	O342	0.656050	0.207500	0.454970
O3431	O343	0.655860	0.792730	0.044620
O3441	O344	0.656050	0.707500	0.954970
O3451	O345	0.844140	0.292730	0.955380
O3461	O346	0.843950	0.207500	0.045030
O3471	O347	0.844140	0.792730	0.455380
O3481	O348	0.843950	0.707500	0.545030
O3491	O349	0.344140	0.292730	0.455380
O3501	O350	0.343950	0.207500	0.545030
O3511	O351	0.344140	0.792730	0.955380
O3521	O352	0.343950	0.707500	0.045030
O3531	O353	0.707270	0.955380	0.155860
O3541	O354	0.792500	0.045030	0.156050
O3551	O355	0.707270	0.455380	0.655860
O3561	O356	0.792500	0.545030	0.656050
O3571	O357	0.207270	0.955380	0.655860
O3581	O358	0.292500	0.045030	0.656050
O3591	O359	0.207270	0.455380	0.155860
O3601	O360	0.292500	0.545030	0.156050
O3611	O361	0.707270	0.044620	0.844140
O3621	O362	0.792500	0.954970	0.843950
O3631	O363	0.707270	0.544620	0.344140
O3641	O364	0.792500	0.454970	0.343950
O3651	O365	0.207270	0.044620	0.344140
O3661	O366	0.292500	0.954970	0.343950
O3671	O367	0.207270	0.544620	0.844140
O3681	O368	0.292500	0.454970	0.843950
O3691	O369	0.292730	0.955380	0.844140
O3701	O370	0.207500	0.045030	0.843950
O3711	O371	0.292730	0.455380	0.344140
O3721	O372	0.207500	0.545030	0.343950
O3731	O373	0.792730	0.955380	0.344140
O3741	O374	0.707500	0.045030	0.343950
O3751	O375	0.792730	0.455380	0.844140
O3761	O376	0.707500	0.545030	0.843950
O3771	O377	0.292730	0.044620	0.155860
O3781	O378	0.207500	0.954970	0.156050
O3791	O379	0.292730	0.544620	0.655860
O3801	O380	0.207500	0.454970	0.656050
O3811	O381	0.792730	0.044620	0.655860
O3821	O382	0.707500	0.954970	0.656050
O3831	O383	0.792730	0.544620	0.155860
O3841	O384	0.707500	0.454970	0.156050
Cl11	Cl1	0.250000	0.000000	0.250000
Cl21	Cl2	0.250000	0.500000	0.750000
Cl31	Cl3	0.750000	0.000000	0.250000
Cl41	Cl4	0.750000	0.500000	0.750000
Cl51	Cl5	0.250000	0.500000	0.250000
Cl61	Cl6	0.750000	0.000000	0.750000
Cl71	Cl7	0.750000	0.500000	0.250000
Cl81	Cl8	0.250000	0.000000	0.750000
Cl91	Cl9	0.250000	0.250000	0.000000
Cl101	Cl10	0.250000	0.750000	0.500000
Cl111	Cl11	0.250000	0.750000	0.000000
Cl121	Cl12	0.250000	0.250000	0.500000
Cl131	Cl13	0.750000	0.750000	0.000000
Cl141	Cl14	0.750000	0.250000	0.500000
Cl151	Cl15	0.750000	0.250000	0.000000
Cl161	Cl16	0.750000	0.750000	0.500000
Cl171	Cl17	0.000000	0.250000	0.250000
Cl181	Cl18	0.500000	0.250000	0.750000
Cl191	Cl19	0.000000	0.250000	0.750000
Cl201	Cl20	0.500000	0.250000	0.250000
Cl211	Cl21	0.000000	0.750000	0.750000
Cl221	Cl22	0.500000	0.750000	0.250000
Cl231	Cl23	0.000000	0.750000	0.250000
Cl241	Cl24	0.500000	0.750000	0.750000
Cu11	Cu1	0.167610	0.000000	0.249670
Cu21	Cu2	0.167610	0.500000	0.749670
Cu31	Cu3	0.667610	0.000000	0.749670
Cu41	Cu4	0.667610	0.500000	0.249670
Cu51	Cu5	0.832390	0.000000	0.249670
Cu61	Cu6	0.832390	0.500000	0.749670
Cu71	Cu7	0.332390	0.000000	0.749670
Cu81	Cu8	0.332390	0.500000	0.249670
Cu91	Cu9	0.832390	0.000000	0.750330
Cu101	Cu10	0.832390	0.500000	0.250330
Cu111	Cu11	0.332390	0.000000	0.250330
Cu121	Cu12	0.332390	0.500000	0.750330
Cu131	Cu13	0.167610	0.000000	0.750330
Cu141	Cu14	0.167610	0.500000	0.250330
Cu151	Cu15	0.667610	0.000000	0.250330
Cu161	Cu16	0.667610	0.500000	0.750330
Cu171	Cu17	0.249670	0.167610	0.000000
Cu181	Cu18	0.249670	0.667610	0.500000
Cu191	Cu19	0.749670	0.167610	0.500000
Cu201	Cu20	0.749670	0.667610	0.000000
Cu211	Cu21	0.249670	0.832390	0.000000
Cu221	Cu22	0.249670	0.332390	0.500000
Cu231	Cu23	0.749670	0.832390	0.500000
Cu241	Cu24	0.749670	0.332390	0.000000
Cu251	Cu25	0.750330	0.832390	0.000000
Cu261	Cu26	0.750330	0.332390	0.500000
Cu271	Cu27	0.250330	0.832390	0.500000
Cu281	Cu28	0.250330	0.332390	0.000000
Cu291	Cu29	0.750330	0.167610	0.000000
Cu301	Cu30	0.750330	0.667610	0.500000
Cu311	Cu31	0.250330	0.167610	0.500000
Cu321	Cu32	0.250330	0.667610	0.000000
Cu331	Cu33	0.000000	0.249670	0.167610
Cu341	Cu34	0.000000	0.749670	0.667610
Cu351	Cu35	0.500000	0.249670	0.667610
Cu361	Cu36	0.500000	0.749670	0.167610
Cu371	Cu37	0.000000	0.249670	0.832390
Cu381	Cu38	0.000000	0.749670	0.332390
Cu391	Cu39	0.500000	0.249670	0.332390
Cu401	Cu40	0.500000	0.749670	0.832390
Cu411	Cu41	0.000000	0.750330	0.832390
Cu421	Cu42	0.000000	0.250330	0.332390
Cu431	Cu43	0.500000	0.750330	0.332390
Cu441	Cu44	0.500000	0.250330	0.832390
Cu451	Cu45	0.000000	0.750330	0.167610
Cu461	Cu46	0.000000	0.250330	0.667610
Cu471	Cu47	0.500000	0.750330	0.667610
Cu481	Cu48	0.500000	0.250330	0.167610
Cu491	Cu49	0.000000	0.167610	0.750330
Cu501	Cu50	0.000000	0.667610	0.250330
Cu511	Cu51	0.500000	0.167610	0.250330
Cu521	Cu52	0.500000	0.667610	0.750330
Cu531	Cu53	0.000000	0.832390	0.750330
Cu541	Cu54	0.000000	0.332390	0.250330
Cu551	Cu55	0.500000	0.832390	0.250330
Cu561	Cu56	0.500000	0.332390	0.750330
Cu571	Cu57	0.000000	0.832390	0.249670
Cu581	Cu58	0.000000	0.332390	0.749670
Cu591	Cu59	0.500000	0.832390	0.749670
Cu601	Cu60	0.500000	0.332390	0.249670
Cu611	Cu61	0.000000	0.167610	0.249670
Cu621	Cu62	0.000000	0.667610	0.749670
Cu631	Cu63	0.500000	0.167610	0.749670
Cu641	Cu64	0.500000	0.667610	0.249670
Cu651	Cu65	0.167610	0.249670	0.000000
Cu661	Cu66	0.167610	0.749670	0.500000
Cu671	Cu67	0.667610	0.249670	0.500000
Cu681	Cu68	0.667610	0.749670	0.000000
Cu691	Cu69	0.832390	0.249670	0.000000
Cu701	Cu70	0.832390	0.749670	0.500000
Cu711	Cu71	0.332390	0.249670	0.500000
Cu721	Cu72	0.332390	0.749670	0.000000
Cu731	Cu73	0.832390	0.750330	0.000000
Cu741	Cu74	0.832390	0.250330	0.500000
Cu751	Cu75	0.332390	0.750330	0.500000
Cu761	Cu76	0.332390	0.250330	0.000000
Cu771	Cu77	0.167610	0.750330	0.000000
Cu781	Cu78	0.167610	0.250330	0.500000
Cu791	Cu79	0.667610	0.750330	0.500000
Cu801	Cu80	0.667610	0.250330	0.000000
Cu811	Cu81	0.249670	0.000000	0.832390
Cu821	Cu82	0.249670	0.500000	0.332390
Cu831	Cu83	0.749670	0.000000	0.332390
Cu841	Cu84	0.749670	0.500000	0.832390
Cu851	Cu85	0.249670	0.000000	0.167610
Cu861	Cu86	0.249670	0.500000	0.667610
Cu871	Cu87	0.749670	0.000000	0.667610
Cu881	Cu88	0.749670	0.500000	0.167610
Cu891	Cu89	0.750330	0.000000	0.167610
Cu901	Cu90	0.750330	0.500000	0.667610
Cu911	Cu91	0.250330	0.000000	0.667610
Cu921	Cu92	0.250330	0.500000	0.167610
Cu931	Cu93	0.750330	0.000000	0.832390
Cu941	Cu94	0.750330	0.500000	0.332390
Cu951	Cu95	0.250330	0.000000	0.332390
Cu961	Cu96	0.250330	0.500000	0.832390
C11	C1	0.173380	0.058220	0.326620
C21	C2	0.152350	0.096900	0.347650
C31	C3	0.173380	0.558220	0.826620
C41	C4	0.152350	0.596900	0.847650
C51	C5	0.826620	0.941780	0.326620
C61	C6	0.847650	0.903100	0.347650
C71	C7	0.826620	0.441780	0.826620
C81	C8	0.847650	0.403100	0.847650
C91	C9	0.326620	0.441780	0.326620
C101	C10	0.347650	0.403100	0.347650
C111	C11	0.826620	0.058220	0.673380
C121	C12	0.847650	0.096900	0.652350
C131	C13	0.826620	0.558220	0.173380
C141	C14	0.847650	0.596900	0.152350
C151	C15	0.326620	0.058220	0.173380
C161	C16	0.347650	0.096900	0.152350
C171	C17	0.173380	0.941780	0.673380
C181	C18	0.152350	0.903100	0.652350
C191	C19	0.173380	0.441780	0.173380
C201	C20	0.152350	0.403100	0.152350
C211	C21	0.326620	0.173380	0.058220
C221	C22	0.347650	0.152350	0.096900
C231	C23	0.326620	0.673380	0.558220
C241	C24	0.347650	0.652350	0.596900
C251	C25	0.326620	0.826620	0.941780
C261	C26	0.347650	0.847650	0.903100
C271	C27	0.326620	0.326620	0.441780
C281	C28	0.347650	0.347650	0.403100
C291	C29	0.673380	0.826620	0.058220
C301	C30	0.652350	0.847650	0.096900
C311	C31	0.673380	0.326620	0.558220
C321	C32	0.652350	0.347650	0.596900
C331	C33	0.173380	0.326620	0.058220
C341	C34	0.152350	0.347650	0.096900
C351	C35	0.673380	0.173380	0.941780
C361	C36	0.652350	0.152350	0.903100
C371	C37	0.673380	0.673380	0.441780
C381	C38	0.652350	0.652350	0.403100
C391	C39	0.173380	0.173380	0.441780
C401	C40	0.152350	0.152350	0.403100
C411	C41	0.058220	0.326620	0.173380
C421	C42	0.096900	0.347650	0.152350
C431	C43	0.558220	0.326620	0.673380
C441	C44	0.596900	0.347650	0.652350
C451	C45	0.941780	0.326620	0.826620
C461	C46	0.903100	0.347650	0.847650
C471	C47	0.441780	0.326620	0.326620
C481	C48	0.403100	0.347650	0.347650
C491	C49	0.058220	0.673380	0.826620
C501	C50	0.096900	0.652350	0.847650
C511	C51	0.058220	0.173380	0.326620
C521	C52	0.096900	0.152350	0.347650
C531	C53	0.558220	0.673380	0.326620
C541	C54	0.596900	0.652350	0.347650
C551	C55	0.941780	0.673380	0.173380
C561	C56	0.903100	0.652350	0.152350
C571	C57	0.441780	0.673380	0.673380
C581	C58	0.403100	0.652350	0.652350
C591	C59	0.441780	0.173380	0.173380
C601	C60	0.403100	0.152350	0.152350
C611	C61	0.058220	0.173380	0.673380
C621	C62	0.096900	0.152350	0.652350
C631	C63	0.558220	0.173380	0.173380
C641	C64	0.596900	0.152350	0.152350
C651	C65	0.941780	0.826620	0.673380
C661	C66	0.903100	0.847650	0.652350
C671	C67	0.941780	0.326620	0.173380
C681	C68	0.903100	0.347650	0.152350
C691	C69	0.441780	0.826620	0.173380
C701	C70	0.403100	0.847650	0.152350
C711	C71	0.058220	0.826620	0.326620
C721	C72	0.096900	0.847650	0.347650
C731	C73	0.558220	0.826620	0.826620
C741	C74	0.596900	0.847650	0.847650
C751	C75	0.558220	0.326620	0.326620
C761	C76	0.596900	0.347650	0.347650
C771	C77	0.941780	0.173380	0.326620
C781	C78	0.903100	0.152350	0.347650
C791	C79	0.441780	0.173380	0.826620
C801	C80	0.403100	0.152350	0.847650
C811	C81	0.173380	0.326620	0.941780
C821	C82	0.152350	0.347650	0.903100
C831	C83	0.173380	0.826620	0.441780
C841	C84	0.152350	0.847650	0.403100
C851	C85	0.826620	0.326620	0.058220
C861	C86	0.847650	0.347650	0.096900
C871	C87	0.826620	0.826620	0.558220
C881	C88	0.847650	0.847650	0.596900
C891	C89	0.326620	0.326620	0.558220
C901	C90	0.347650	0.347650	0.596900
C911	C91	0.826620	0.673380	0.941780
C921	C92	0.847650	0.652350	0.903100
C931	C93	0.826620	0.173380	0.441780
C941	C94	0.847650	0.152350	0.403100
C951	C95	0.326620	0.173380	0.941780
C961	C96	0.347650	0.152350	0.903100
C971	C97	0.173380	0.673380	0.058220
C981	C98	0.152350	0.652350	0.096900
C991	C99	0.173380	0.173380	0.558220
C1001	C100	0.152350	0.152350	0.596900
C1011	C101	0.326620	0.058220	0.826620
C1021	C102	0.347650	0.096900	0.847650
C1031	C103	0.326620	0.558220	0.326620
C1041	C104	0.347650	0.596900	0.347650
C1051	C105	0.326620	0.941780	0.173380
C1061	C106	0.347650	0.903100	0.152350
C1071	C107	0.326620	0.441780	0.673380
C1081	C108	0.347650	0.403100	0.652350
C1091	C109	0.673380	0.058220	0.173380
C1101	C110	0.652350	0.096900	0.152350
C1111	C111	0.673380	0.558220	0.673380
C1121	C112	0.652350	0.596900	0.652350
C1131	C113	0.173380	0.558220	0.173380
C1141	C114	0.152350	0.596900	0.152350
C1151	C115	0.673380	0.941780	0.826620
C1161	C116	0.652350	0.903100	0.847650
C1171	C117	0.673380	0.441780	0.326620
C1181	C118	0.652350	0.403100	0.347650
C1191	C119	0.173380	0.941780	0.326620
C1201	C120	0.152350	0.903100	0.347650
C1211	C121	0.826620	0.941780	0.673380
C1221	C122	0.847650	0.903100	0.652350
C1231	C123	0.826620	0.441780	0.173380
C1241	C124	0.847650	0.403100	0.152350
C1251	C125	0.173380	0.058220	0.673380
C1261	C126	0.152350	0.096900	0.652350
C1271	C127	0.173380	0.441780	0.826620
C1281	C128	0.152350	0.403100	0.847650
C1291	C129	0.826620	0.058220	0.326620
C1301	C130	0.847650	0.096900	0.347650
C1311	C131	0.826620	0.558220	0.826620
C1321	C132	0.847650	0.596900	0.847650
C1331	C133	0.673380	0.826620	0.941780
C1341	C134	0.652350	0.847650	0.903100
C1351	C135	0.673380	0.326620	0.441780
C1361	C136	0.652350	0.347650	0.403100
C1371	C137	0.673380	0.173380	0.058220
C1381	C138	0.652350	0.152350	0.096900
C1391	C139	0.673380	0.673380	0.558220
C1401	C140	0.652350	0.652350	0.596900
C1411	C141	0.326620	0.673380	0.441780
C1421	C142	0.347650	0.652350	0.403100
C1431	C143	0.326620	0.826620	0.058220
C1441	C144	0.347650	0.847650	0.096900
C1451	C145	0.941780	0.673380	0.826620
C1461	C146	0.903100	0.652350	0.847650
C1471	C147	0.441780	0.673380	0.326620
C1481	C148	0.403100	0.652350	0.347650
C1491	C149	0.058220	0.673380	0.173380
C1501	C150	0.096900	0.652350	0.152350
C1511	C151	0.558220	0.673380	0.673380
C1521	C152	0.596900	0.652350	0.652350
C1531	C153	0.441780	0.326620	0.673380
C1541	C154	0.403100	0.347650	0.652350
C1551	C155	0.058220	0.326620	0.826620
C1561	C156	0.096900	0.347650	0.847650
C1571	C157	0.941780	0.826620	0.326620
C1581	C158	0.903100	0.847650	0.347650
C1591	C159	0.441780	0.826620	0.826620
C1601	C160	0.403100	0.847650	0.847650
C1611	C161	0.558220	0.173380	0.826620
C1621	C162	0.596900	0.152350	0.847650
C1631	C163	0.941780	0.173380	0.673380
C1641	C164	0.903100	0.152350	0.652350
C1651	C165	0.058220	0.826620	0.673380
C1661	C166	0.096900	0.847650	0.652350
C1671	C167	0.558220	0.826620	0.173380
C1681	C168	0.596900	0.847650	0.152350
C1691	C169	0.826620	0.673380	0.058220
C1701	C170	0.847650	0.652350	0.096900
C1711	C171	0.826620	0.173380	0.558220
C1721	C172	0.847650	0.152350	0.596900
C1731	C173	0.173380	0.673380	0.941780
C1741	C174	0.152350	0.652350	0.903100
C1751	C175	0.173380	0.826620	0.558220
C1761	C176	0.152350	0.847650	0.596900
C1771	C177	0.826620	0.326620	0.941780
C1781	C178	0.847650	0.347650	0.903100
C1791	C179	0.826620	0.826620	0.441780
C1801	C180	0.847650	0.847650	0.403100
C1811	C181	0.673380	0.941780	0.173380
C1821	C182	0.652350	0.903100	0.152350
C1831	C183	0.673380	0.441780	0.673380
C1841	C184	0.652350	0.403100	0.652350
C1851	C185	0.673380	0.058220	0.826620
C1861	C186	0.652350	0.096900	0.847650
C1871	C187	0.673380	0.558220	0.326620
C1881	C188	0.652350	0.596900	0.347650
C1891	C189	0.326620	0.941780	0.826620
C1901	C190	0.347650	0.903100	0.847650
C1911	C191	0.326620	0.558220	0.673380
C1921	C192	0.347650	0.596900	0.652350
C1931	C193	0.115130	0.115130	0.329490
H11	H1	0.102700	0.102700	0.305000
C1941	C194	0.115130	0.615130	0.829490
H21	H2	0.102700	0.602700	0.805000
C1951	C195	0.615130	0.115130	0.829490
H31	H3	0.602700	0.102700	0.805000
C1961	C196	0.615130	0.615130	0.329490
H41	H4	0.602700	0.602700	0.305000
C1971	C197	0.884870	0.884870	0.329490
H51	H5	0.897300	0.897300	0.305000
C1981	C198	0.884870	0.384870	0.829490
H61	H6	0.897300	0.397300	0.805000
C1991	C199	0.384870	0.884870	0.829490
H71	H7	0.397300	0.897300	0.805000
C2001	C200	0.384870	0.384870	0.329490
H81	H8	0.397300	0.397300	0.305000
C2011	C201	0.884870	0.115130	0.670510
H91	H9	0.897300	0.102700	0.695000
C2021	C202	0.884870	0.615130	0.170510
H101	H10	0.897300	0.602700	0.195000
C2031	C203	0.384870	0.115130	0.170510
H111	H11	0.397300	0.102700	0.195000
C2041	C204	0.384870	0.615130	0.670510
H121	H12	0.397300	0.602700	0.695000
C2051	C205	0.115130	0.884870	0.670510
H131	H13	0.102700	0.897300	0.695000
C2061	C206	0.115130	0.384870	0.170510
H141	H14	0.102700	0.397300	0.195000
C2071	C207	0.615130	0.884870	0.170510
H151	H15	0.602700	0.897300	0.195000
C2081	C208	0.615130	0.384870	0.670510
H161	H16	0.602700	0.397300	0.695000
C2091	C209	0.329490	0.115130	0.115130
H171	H17	0.305000	0.102700	0.102700
C2101	C210	0.329490	0.615130	0.615130
H181	H18	0.305000	0.602700	0.602700
C2111	C211	0.829490	0.115130	0.615130
H191	H19	0.805000	0.102700	0.602700
C2121	C212	0.829490	0.615130	0.115130
H201	H20	0.805000	0.602700	0.102700
C2131	C213	0.329490	0.884870	0.884870
H211	H21	0.305000	0.897300	0.897300
C2141	C214	0.329490	0.384870	0.384870
H221	H22	0.305000	0.397300	0.397300
C2151	C215	0.829490	0.884870	0.384870
H231	H23	0.805000	0.897300	0.397300
C2161	C216	0.829490	0.384870	0.884870
H241	H24	0.805000	0.397300	0.897300
C2171	C217	0.670510	0.884870	0.115130
H251	H25	0.695000	0.897300	0.102700
C2181	C218	0.670510	0.384870	0.615130
H261	H26	0.695000	0.397300	0.602700
C2191	C219	0.170510	0.884870	0.615130
H271	H27	0.195000	0.897300	0.602700
C2201	C220	0.170510	0.384870	0.115130
H281	H28	0.195000	0.397300	0.102700
C2211	C221	0.670510	0.115130	0.884870
H291	H29	0.695000	0.102700	0.897300
C2221	C222	0.670510	0.615130	0.384870
H301	H30	0.695000	0.602700	0.397300
C2231	C223	0.170510	0.115130	0.384870
H311	H31	0.195000	0.102700	0.397300
C2241	C224	0.170510	0.615130	0.884870
H321	H32	0.195000	0.602700	0.897300
C2251	C225	0.115130	0.329490	0.115130
H331	H33	0.102700	0.305000	0.102700
C2261	C226	0.115130	0.829490	0.615130
H341	H34	0.102700	0.805000	0.602700
C2271	C227	0.615130	0.329490	0.615130
H351	H35	0.602700	0.305000	0.602700
C2281	C228	0.615130	0.829490	0.115130
H361	H36	0.602700	0.805000	0.102700
C2291	C229	0.884870	0.329490	0.884870
H371	H37	0.897300	0.305000	0.897300
C2301	C230	0.884870	0.829490	0.384870
H381	H38	0.897300	0.805000	0.397300
C2311	C231	0.384870	0.329490	0.384870
H391	H39	0.397300	0.305000	0.397300
C2321	C232	0.384870	0.829490	0.884870
H401	H40	0.397300	0.805000	0.897300
C2331	C233	0.115130	0.670510	0.884870
H411	H41	0.102700	0.695000	0.897300
C2341	C234	0.115130	0.170510	0.384870
H421	H42	0.102700	0.195000	0.397300
C2351	C235	0.615130	0.670510	0.384870
H431	H43	0.602700	0.695000	0.397300
C2361	C236	0.615130	0.170510	0.884870
H441	H44	0.602700	0.195000	0.897300
C2371	C237	0.884870	0.670510	0.115130
H451	H45	0.897300	0.695000	0.102700
C2381	C238	0.884870	0.170510	0.615130
H461	H46	0.897300	0.195000	0.602700
C2391	C239	0.384870	0.670510	0.615130
H471	H47	0.397300	0.695000	0.602700
C2401	C240	0.384870	0.170510	0.115130
H481	H48	0.397300	0.195000	0.102700
C2411	C241	0.115130	0.115130	0.670510
H491	H49	0.102700	0.102700	0.695000
C2421	C242	0.115130	0.615130	0.170510
H501	H50	0.102700	0.602700	0.195000
C2431	C243	0.615130	0.115130	0.170510
H511	H51	0.602700	0.102700	0.195000
C2441	C244	0.615130	0.615130	0.670510
H521	H52	0.602700	0.602700	0.695000
C2451	C245	0.884870	0.884870	0.670510
H531	H53	0.897300	0.897300	0.695000
C2461	C246	0.884870	0.384870	0.170510
H541	H54	0.897300	0.397300	0.195000
C2471	C247	0.384870	0.884870	0.170510
H551	H55	0.397300	0.897300	0.195000
C2481	C248	0.384870	0.384870	0.670510
H561	H56	0.397300	0.397300	0.695000
C2491	C249	0.115130	0.884870	0.329490
H571	H57	0.102700	0.897300	0.305000
C2501	C250	0.115130	0.384870	0.829490
H581	H58	0.102700	0.397300	0.805000
C2511	C251	0.615130	0.884870	0.829490
H591	H59	0.602700	0.897300	0.805000
C2521	C252	0.615130	0.384870	0.329490
H601	H60	0.602700	0.397300	0.305000
C2531	C253	0.884870	0.115130	0.329490
H611	H61	0.897300	0.102700	0.305000
C2541	C254	0.884870	0.615130	0.829490
H621	H62	0.897300	0.602700	0.805000
C2551	C255	0.384870	0.115130	0.829490
H631	H63	0.397300	0.102700	0.805000
C2561	C256	0.384870	0.615130	0.329490
H641	H64	0.397300	0.602700	0.305000
C2571	C257	0.115130	0.329490	0.884870
H651	H65	0.102700	0.305000	0.897300
C2581	C258	0.115130	0.829490	0.384870
H661	H66	0.102700	0.805000	0.397300
C2591	C259	0.615130	0.329490	0.384870
H671	H67	0.602700	0.305000	0.397300
C2601	C260	0.615130	0.829490	0.884870
H681	H68	0.602700	0.805000	0.897300
C2611	C261	0.884870	0.329490	0.115130
H691	H69	0.897300	0.305000	0.102700
C2621	C262	0.884870	0.829490	0.615130
H701	H70	0.897300	0.805000	0.602700
C2631	C263	0.384870	0.329490	0.615130
H711	H71	0.397300	0.305000	0.602700
C2641	C264	0.384870	0.829490	0.115130
H721	H72	0.397300	0.805000	0.102700
C2651	C265	0.884870	0.670510	0.884870
H731	H73	0.897300	0.695000	0.897300
C2661	C266	0.884870	0.170510	0.384870
H741	H74	0.897300	0.195000	0.397300
C2671	C267	0.384870	0.670510	0.384870
H751	H75	0.397300	0.695000	0.397300
C2681	C268	0.384870	0.170510	0.884870
H761	H76	0.397300	0.195000	0.897300
C2691	C269	0.115130	0.670510	0.115130
H771	H77	0.102700	0.695000	0.102700
C2701	C270	0.115130	0.170510	0.615130
H781	H78	0.102700	0.195000	0.602700
C2711	C271	0.615130	0.670510	0.615130
H791	H79	0.602700	0.695000	0.602700
C2721	C272	0.615130	0.170510	0.115130
H801	H80	0.602700	0.195000	0.102700
C2731	C273	0.329490	0.115130	0.884870
H811	H81	0.305000	0.102700	0.897300
C2741	C274	0.329490	0.615130	0.384870
H821	H82	0.305000	0.602700	0.397300
C2751	C275	0.829490	0.115130	0.384870
H831	H83	0.805000	0.102700	0.397300
C2761	C276	0.829490	0.615130	0.884870
H841	H84	0.805000	0.602700	0.897300
C2771	C277	0.329490	0.884870	0.115130
H851	H85	0.305000	0.897300	0.102700
C2781	C278	0.329490	0.384870	0.615130
H861	H86	0.305000	0.397300	0.602700
C2791	C279	0.829490	0.884870	0.615130
H871	H87	0.805000	0.897300	0.602700
C2801	C280	0.829490	0.384870	0.115130
H881	H88	0.805000	0.397300	0.102700
C2811	C281	0.670510	0.115130	0.115130
H891	H89	0.695000	0.102700	0.102700
C2821	C282	0.670510	0.615130	0.615130
H901	H90	0.695000	0.602700	0.602700
C2831	C283	0.170510	0.115130	0.615130
H911	H91	0.195000	0.102700	0.602700
C2841	C284	0.170510	0.615130	0.115130
H921	H92	0.195000	0.602700	0.102700
C2851	C285	0.670510	0.884870	0.884870
H931	H93	0.695000	0.897300	0.897300
C2861	C286	0.670510	0.384870	0.384870
H941	H94	0.695000	0.397300	0.397300
C2871	C287	0.170510	0.884870	0.384870
H951	H95	0.195000	0.897300	0.397300
C2881	C288	0.170510	0.384870	0.884870
H961	H96	0.195000	0.397300	0.897300
C2891	C289	0.173210	0.941260	0.173210
C2901	C290	0.151850	0.903400	0.151850
C2911	C291	0.173210	0.441260	0.673210
C2921	C292	0.151850	0.403400	0.651850
C2931	C293	0.673210	0.941260	0.673210
C2941	C294	0.651850	0.903400	0.651850
C2951	C295	0.673210	0.441260	0.173210
C2961	C296	0.651850	0.403400	0.151850
C2971	C297	0.826790	0.058740	0.173210
C2981	C298	0.848150	0.096600	0.151850
C2991	C299	0.826790	0.558740	0.673210
C3001	C300	0.848150	0.596600	0.651850
C3011	C301	0.326790	0.058740	0.673210
C3021	C302	0.348150	0.096600	0.651850
C3031	C303	0.326790	0.558740	0.173210
C3041	C304	0.348150	0.596600	0.151850
C3051	C305	0.826790	0.941260	0.826790
C3061	C306	0.848150	0.903400	0.848150
C3071	C307	0.826790	0.441260	0.326790
C3081	C308	0.848150	0.403400	0.348150
C3091	C309	0.326790	0.941260	0.326790
C3101	C310	0.348150	0.903400	0.348150
C3111	C311	0.326790	0.441260	0.826790
C3121	C312	0.348150	0.403400	0.848150
C3131	C313	0.173210	0.058740	0.826790
C3141	C314	0.151850	0.096600	0.848150
C3151	C315	0.173210	0.558740	0.326790
C3161	C316	0.151850	0.596600	0.348150
C3171	C317	0.673210	0.058740	0.326790
C3181	C318	0.651850	0.096600	0.348150
C3191	C319	0.673210	0.558740	0.826790
C3201	C320	0.651850	0.596600	0.848150
C3211	C321	0.173210	0.173210	0.941260
C3221	C322	0.151850	0.151850	0.903400
C3231	C323	0.173210	0.673210	0.441260
C3241	C324	0.151850	0.651850	0.403400
C3251	C325	0.673210	0.173210	0.441260
C3261	C326	0.651850	0.151850	0.403400
C3271	C327	0.673210	0.673210	0.941260
C3281	C328	0.651850	0.651850	0.903400
C3291	C329	0.173210	0.826790	0.058740
C3301	C330	0.151850	0.848150	0.096600
C3311	C331	0.173210	0.326790	0.558740
C3321	C332	0.151850	0.348150	0.596600
C3331	C333	0.673210	0.826790	0.558740
C3341	C334	0.651850	0.848150	0.596600
C3351	C335	0.673210	0.326790	0.058740
C3361	C336	0.651850	0.348150	0.096600
C3371	C337	0.826790	0.826790	0.941260
C3381	C338	0.848150	0.848150	0.903400
C3391	C339	0.826790	0.326790	0.441260
C3401	C340	0.848150	0.348150	0.403400
C3411	C341	0.326790	0.826790	0.441260
C3421	C342	0.348150	0.848150	0.403400
C3431	C343	0.326790	0.326790	0.941260
C3441	C344	0.348150	0.348150	0.903400
C3451	C345	0.826790	0.173210	0.058740
C3461	C346	0.848150	0.151850	0.096600
C3471	C347	0.826790	0.673210	0.558740
C3481	C348	0.848150	0.651850	0.596600
C3491	C349	0.326790	0.173210	0.558740
C3501	C350	0.348150	0.151850	0.596600
C3511	C351	0.326790	0.673210	0.058740
C3521	C352	0.348150	0.651850	0.096600
C3531	C353	0.941260	0.173210	0.173210
C3541	C354	0.903400	0.151850	0.151850
C3551	C355	0.941260	0.673210	0.673210
C3561	C356	0.903400	0.651850	0.651850
C3571	C357	0.441260	0.173210	0.673210
C3581	C358	0.403400	0.151850	0.651850
C3591	C359	0.441260	0.673210	0.173210
C3601	C360	0.403400	0.651850	0.151850
C3611	C361	0.058740	0.173210	0.826790
C3621	C362	0.096600	0.151850	0.848150
C3631	C363	0.058740	0.673210	0.326790
C3641	C364	0.096600	0.651850	0.348150
C3651	C365	0.558740	0.173210	0.326790
C3661	C366	0.596600	0.151850	0.348150
C3671	C367	0.558740	0.673210	0.826790
C3681	C368	0.596600	0.651850	0.848150
C3691	C369	0.941260	0.826790	0.826790
C3701	C370	0.903400	0.848150	0.848150
C3711	C371	0.941260	0.326790	0.326790
C3721	C372	0.903400	0.348150	0.348150
C3731	C373	0.441260	0.826790	0.326790
C3741	C374	0.403400	0.848150	0.348150
C3751	C375	0.441260	0.326790	0.826790
C3761	C376	0.403400	0.348150	0.848150
C3771	C377	0.058740	0.826790	0.173210
C3781	C378	0.096600	0.848150	0.151850
C3791	C379	0.058740	0.326790	0.673210
C3801	C380	0.096600	0.348150	0.651850
C3811	C381	0.558740	0.826790	0.673210
C3821	C382	0.596600	0.848150	0.651850
C3831	C383	0.558740	0.326790	0.173210
C3841	C384	0.596600	0.348150	0.151850
C3851	C385	0.941260	0.173210	0.826790
C3861	C386	0.903400	0.151850	0.848150
C3871	C387	0.941260	0.673210	0.326790
C3881	C388	0.903400	0.651850	0.348150
C3891	C389	0.441260	0.173210	0.326790
C3901	C390	0.403400	0.151850	0.348150
C3911	C391	0.441260	0.673210	0.826790
C3921	C392	0.403400	0.651850	0.848150
C3931	C393	0.058740	0.826790	0.826790
C3941	C394	0.096600	0.848150	0.848150
C3951	C395	0.058740	0.326790	0.326790
C3961	C396	0.096600	0.348150	0.348150
C3971	C397	0.558740	0.826790	0.326790
C3981	C398	0.596600	0.848150	0.348150
C3991	C399	0.558740	0.326790	0.826790
C4001	C400	0.596600	0.348150	0.848150
C4011	C401	0.941260	0.826790	0.173210
C4021	C402	0.903400	0.848150	0.151850
C4031	C403	0.941260	0.326790	0.673210
C4041	C404	0.903400	0.348150	0.651850
C4051	C405	0.441260	0.826790	0.673210
C4061	C406	0.403400	0.848150	0.651850
C4071	C407	0.441260	0.326790	0.173210
C4081	C408	0.403400	0.348150	0.151850
C4091	C409	0.058740	0.173210	0.173210
C4101	C410	0.096600	0.151850	0.151850
C4111	C411	0.058740	0.673210	0.673210
C4121	C412	0.096600	0.651850	0.651850
C4131	C413	0.558740	0.173210	0.673210
C4141	C414	0.596600	0.151850	0.651850
C4151	C415	0.558740	0.673210	0.173210
C4161	C416	0.596600	0.651850	0.151850
C4171	C417	0.173210	0.173210	0.058740
C4181	C418	0.151850	0.151850	0.096600
C4191	C419	0.173210	0.673210	0.558740
C4201	C420	0.151850	0.651850	0.596600
C4211	C421	0.673210	0.173210	0.558740
C4221	C422	0.651850	0.151850	0.596600
C4231	C423	0.673210	0.673210	0.058740
C4241	C424	0.651850	0.651850	0.096600
C4251	C425	0.826790	0.173210	0.941260
C4261	C426	0.848150	0.151850	0.903400
C4271	C427	0.826790	0.673210	0.441260
C4281	C428	0.848150	0.651850	0.403400
C4291	C429	0.326790	0.173210	0.441260
C4301	C430	0.348150	0.151850	0.403400
C4311	C431	0.326790	0.673210	0.941260
C4321	C432	0.348150	0.651850	0.903400
C4331	C433	0.826790	0.826790	0.058740
C4341	C434	0.848150	0.848150	0.096600
C4351	C435	0.826790	0.326790	0.558740
C4361	C436	0.848150	0.348150	0.596600
C4371	C437	0.326790	0.826790	0.558740
C4381	C438	0.348150	0.848150	0.596600
C4391	C439	0.326790	0.326790	0.058740
C4401	C440	0.348150	0.348150	0.096600
C4411	C441	0.173210	0.826790	0.941260
C4421	C442	0.151850	0.848150	0.903400
C4431	C443	0.173210	0.326790	0.441260
C4441	C444	0.151850	0.348150	0.403400
C4451	C445	0.673210	0.826790	0.441260
C4461	C446	0.651850	0.848150	0.403400
C4471	C447	0.673210	0.326790	0.941260
C4481	C448	0.651850	0.348150	0.903400
C4491	C449	0.173210	0.941260	0.826790
C4501	C450	0.151850	0.903400	0.848150
C4511	C451	0.173210	0.441260	0.326790
C4521	C452	0.151850	0.403400	0.348150
C4531	C453	0.673210	0.941260	0.326790
C4541	C454	0.651850	0.903400	0.348150
C4551	C455	0.673210	0.441260	0.826790
C4561	C456	0.651850	0.403400	0.848150
C4571	C457	0.173210	0.058740	0.173210
C4581	C458	0.151850	0.096600	0.151850
C4591	C459	0.173210	0.558740	0.673210
C4601	C460	0.151850	0.596600	0.651850
C4611	C461	0.673210	0.058740	0.673210
C4621	C462	0.651850	0.096600	0.651850
C4631	C463	0.673210	0.558740	0.173210
C4641	C464	0.651850	0.596600	0.151850
C4651	C465	0.826790	0.941260	0.173210
C4661	C466	0.848150	0.903400	0.151850
C4671	C467	0.826790	0.441260	0.673210
C4681	C468	0.848150	0.403400	0.651850
C4691	C469	0.326790	0.941260	0.673210
C4701	C470	0.348150	0.903400	0.651850
C4711	C471	0.326790	0.441260	0.173210
C4721	C472	0.348150	0.403400	0.151850
C4731	C473	0.826790	0.058740	0.826790
C4741	C474	0.848150	0.096600	0.848150
C4751	C475	0.826790	0.558740	0.326790
C4761	C476	0.848150	0.596600	0.348150
C4771	C477	0.326790	0.058740	0.326790
C4781	C478	0.348150	0.096600	0.348150
C4791	C479	0.326790	0.558740	0.826790
C4801	C480	0.348150	0.596600	0.848150
C4811	C481	0.115030	0.884970	0.170400
H971	H97	0.102900	0.897100	0.195000
C4821	C482	0.115030	0.384970	0.670400
H981	H98	0.102900	0.397100	0.695000
C4831	C483	0.615030	0.884970	0.670400
H991	H99	0.602900	0.897100	0.695000
C4841	C484	0.615030	0.384970	0.170400
H1001	H100	0.602900	0.397100	0.195000
C4851	C485	0.884970	0.115030	0.170400
H1011	H101	0.897100	0.102900	0.195000
C4861	C486	0.884970	0.615030	0.670400
H1021	H102	0.897100	0.602900	0.695000
C4871	C487	0.384970	0.115030	0.670400
H1031	H103	0.397100	0.102900	0.695000
C4881	C488	0.384970	0.615030	0.170400
H1041	H104	0.397100	0.602900	0.195000
C4891	C489	0.884970	0.884970	0.829600
H1051	H105	0.897100	0.897100	0.805000
C4901	C490	0.884970	0.384970	0.329600
H1061	H106	0.897100	0.397100	0.305000
C4911	C491	0.384970	0.884970	0.329600
H1071	H107	0.397100	0.897100	0.305000
C4921	C492	0.384970	0.384970	0.829600
H1081	H108	0.397100	0.397100	0.805000
C4931	C493	0.115030	0.115030	0.829600
H1091	H109	0.102900	0.102900	0.805000
C4941	C494	0.115030	0.615030	0.329600
H1101	H110	0.102900	0.602900	0.305000
C4951	C495	0.615030	0.115030	0.329600
H1111	H111	0.602900	0.102900	0.305000
C4961	C496	0.615030	0.615030	0.829600
H1121	H112	0.602900	0.602900	0.805000
C4971	C497	0.170400	0.115030	0.884970
H1131	H113	0.195000	0.102900	0.897100
C4981	C498	0.170400	0.615030	0.384970
H1141	H114	0.195000	0.602900	0.397100
C4991	C499	0.670400	0.115030	0.384970
H1151	H115	0.695000	0.102900	0.397100
C5001	C500	0.670400	0.615030	0.884970
H1161	H116	0.695000	0.602900	0.897100
C5011	C501	0.170400	0.884970	0.115030
H1171	H117	0.195000	0.897100	0.102900
C5021	C502	0.170400	0.384970	0.615030
H1181	H118	0.195000	0.397100	0.602900
C5031	C503	0.670400	0.884970	0.615030
H1191	H119	0.695000	0.897100	0.602900
C5041	C504	0.670400	0.384970	0.115030
H1201	H120	0.695000	0.397100	0.102900
C5051	C505	0.829600	0.884970	0.884970
H1211	H121	0.805000	0.897100	0.897100
C5061	C506	0.829600	0.384970	0.384970
H1221	H122	0.805000	0.397100	0.397100
C5071	C507	0.329600	0.884970	0.384970
H1231	H123	0.305000	0.897100	0.397100
C5081	C508	0.329600	0.384970	0.884970
H1241	H124	0.305000	0.397100	0.897100
C5091	C509	0.829600	0.115030	0.115030
H1251	H125	0.805000	0.102900	0.102900
C5101	C510	0.829600	0.615030	0.615030
H1261	H126	0.805000	0.602900	0.602900
C5111	C511	0.329600	0.115030	0.615030
H1271	H127	0.305000	0.102900	0.602900
C5121	C512	0.329600	0.615030	0.115030
H1281	H128	0.305000	0.602900	0.102900
C5131	C513	0.884970	0.170400	0.115030
H1291	H129	0.897100	0.195000	0.102900
C5141	C514	0.884970	0.670400	0.615030
H1301	H130	0.897100	0.695000	0.602900
C5151	C515	0.384970	0.170400	0.615030
H1311	H131	0.397100	0.195000	0.602900
C5161	C516	0.384970	0.670400	0.115030
H1321	H132	0.397100	0.695000	0.102900
C5171	C517	0.115030	0.170400	0.884970
H1331	H133	0.102900	0.195000	0.897100
C5181	C518	0.115030	0.670400	0.384970
H1341	H134	0.102900	0.695000	0.397100
C5191	C519	0.615030	0.170400	0.384970
H1351	H135	0.602900	0.195000	0.397100
C5201	C520	0.615030	0.670400	0.884970
H1361	H136	0.602900	0.695000	0.897100
C5211	C521	0.884970	0.829600	0.884970
H1371	H137	0.897100	0.805000	0.897100
C5221	C522	0.884970	0.329600	0.384970
H1381	H138	0.897100	0.305000	0.397100
C5231	C523	0.384970	0.829600	0.384970
H1391	H139	0.397100	0.805000	0.397100
C5241	C524	0.384970	0.329600	0.884970
H1401	H140	0.397100	0.305000	0.897100
C5251	C525	0.115030	0.829600	0.115030
H1411	H141	0.102900	0.805000	0.102900
C5261	C526	0.115030	0.329600	0.615030
H1421	H142	0.102900	0.305000	0.602900
C5271	C527	0.615030	0.829600	0.615030
H1431	H143	0.602900	0.805000	0.602900
C5281	C528	0.615030	0.329600	0.115030
H1441	H144	0.602900	0.305000	0.102900
C5291	C529	0.884970	0.115030	0.829600
H1451	H145	0.897100	0.102900	0.805000
C5301	C530	0.884970	0.615030	0.329600
H1461	H146	0.897100	0.602900	0.305000
C5311	C531	0.384970	0.115030	0.329600
H1471	H147	0.397100	0.102900	0.305000
C5321	C532	0.384970	0.615030	0.829600
H1481	H148	0.397100	0.602900	0.805000
C5331	C533	0.115030	0.884970	0.829600
H1491	H149	0.102900	0.897100	0.805000
C5341	C534	0.115030	0.384970	0.329600
H1501	H150	0.102900	0.397100	0.305000
C5351	C535	0.615030	0.884970	0.329600
H1511	H151	0.602900	0.897100	0.305000
C5361	C536	0.615030	0.384970	0.829600
H1521	H152	0.602900	0.397100	0.805000
C5371	C537	0.884970	0.884970	0.170400
H1531	H153	0.897100	0.897100	0.195000
C5381	C538	0.884970	0.384970	0.670400
H1541	H154	0.897100	0.397100	0.695000
C5391	C539	0.384970	0.884970	0.670400
H1551	H155	0.397100	0.897100	0.695000
C5401	C540	0.384970	0.384970	0.170400
H1561	H156	0.397100	0.397100	0.195000
C5411	C541	0.115030	0.115030	0.170400
H1571	H157	0.102900	0.102900	0.195000
C5421	C542	0.115030	0.615030	0.670400
H1581	H158	0.102900	0.602900	0.695000
C5431	C543	0.615030	0.115030	0.670400
H1591	H159	0.602900	0.102900	0.695000
C5441	C544	0.615030	0.615030	0.170400
H1601	H160	0.602900	0.602900	0.195000
C5451	C545	0.115030	0.170400	0.115030
H1611	H161	0.102900	0.195000	0.102900
C5461	C546	0.115030	0.670400	0.615030
H1621	H162	0.102900	0.695000	0.602900
C5471	C547	0.615030	0.170400	0.615030
H1631	H163	0.602900	0.195000	0.602900
C5481	C548	0.615030	0.670400	0.115030
H1641	H164	0.602900	0.695000	0.102900
C5491	C549	0.884970	0.170400	0.884970
H1651	H165	0.897100	0.195000	0.897100
C5501	C550	0.884970	0.670400	0.384970
H1661	H166	0.897100	0.695000	0.397100
C5511	C551	0.384970	0.170400	0.384970
H1671	H167	0.397100	0.195000	0.397100
C5521	C552	0.384970	0.670400	0.884970
H1681	H168	0.397100	0.695000	0.897100
C5531	C553	0.884970	0.829600	0.115030
H1691	H169	0.897100	0.805000	0.102900
C5541	C554	0.884970	0.329600	0.615030
H1701	H170	0.897100	0.305000	0.602900
C5551	C555	0.384970	0.829600	0.615030
H1711	H171	0.397100	0.805000	0.602900
C5561	C556	0.384970	0.329600	0.115030
H1721	H172	0.397100	0.305000	0.102900
C5571	C557	0.115030	0.829600	0.884970
H1731	H173	0.102900	0.805000	0.897100
C5581	C558	0.115030	0.329600	0.384970
H1741	H174	0.102900	0.305000	0.397100
C5591	C559	0.615030	0.829600	0.384970
H1751	H175	0.602900	0.805000	0.397100
C5601	C560	0.615030	0.329600	0.884970
H1761	H176	0.602900	0.305000	0.897100
C5611	C561	0.170400	0.884970	0.884970
H1771	H177	0.195000	0.897100	0.897100
C5621	C562	0.170400	0.384970	0.384970
H1781	H178	0.195000	0.397100	0.397100
C5631	C563	0.670400	0.884970	0.384970
H1791	H179	0.695000	0.897100	0.397100
C5641	C564	0.670400	0.384970	0.884970
H1801	H180	0.695000	0.397100	0.897100
C5651	C565	0.170400	0.115030	0.115030
H1811	H181	0.195000	0.102900	0.102900
C5661	C566	0.170400	0.615030	0.615030
H1821	H182	0.195000	0.602900	0.602900
C5671	C567	0.670400	0.115030	0.615030
H1831	H183	0.695000	0.102900	0.602900
C5681	C568	0.670400	0.615030	0.115030
H1841	H184	0.695000	0.602900	0.102900
C5691	C569	0.829600	0.884970	0.115030
H1851	H185	0.805000	0.897100	0.102900
C5701	C570	0.829600	0.384970	0.615030
H1861	H186	0.805000	0.397100	0.602900
C5711	C571	0.329600	0.884970	0.615030
H1871	H187	0.305000	0.897100	0.602900
C5721	C572	0.329600	0.384970	0.115030
H1881	H188	0.305000	0.397100	0.102900
C5731	C573	0.829600	0.115030	0.884970
H1891	H189	0.805000	0.102900	0.897100
C5741	C574	0.829600	0.615030	0.384970
H1901	H190	0.805000	0.602900	0.397100
C5751	C575	0.329600	0.115030	0.384970
H1911	H191	0.305000	0.102900	0.397100
C5761	C576	0.329600	0.615030	0.884970
H1921	H192	0.305000	0.602900	0.897100
