data_WEHHOI_clean_PM
_symmetry_space_group_name_H-M	'P1'
_cell_length_a	12.310000
_cell_length_b	26.250000
_cell_length_c	26.341000
_cell_angle_alpha	90.000000
_cell_angle_beta	90.000000
_cell_angle_gamma	90.000000
_symmetry_Int_Tables_number 1

loop_
_symmetry_equiv_pos_as_xyz
'x,y,z'

loop_
_atom_site_label
_atom_site_type_symbol
_atom_site_fract_x
_atom_site_fract_y
_atom_site_fract_z
Zn11	Zn1	0.417330	0.992660	0.959100
Zn21	Zn2	0.582670	0.007340	0.459100
Zn31	Zn3	0.582670	0.492660	0.540900
Zn41	Zn4	0.417330	0.507340	0.040900
Zn51	Zn5	0.582670	0.007340	0.040900
Zn61	Zn6	0.417330	0.992660	0.540900
Zn71	Zn7	0.417330	0.507340	0.459100
Zn81	Zn8	0.582670	0.492660	0.959100
Zn91	Zn9	0.492510	0.805550	0.750000
Zn101	Zn10	0.660860	0.723600	0.750000
Zn111	Zn11	0.507490	0.194450	0.250000
Zn121	Zn12	0.339140	0.276400	0.250000
Zn131	Zn13	0.507490	0.305550	0.750000
Zn141	Zn14	0.339140	0.223600	0.750000
Zn151	Zn15	0.492510	0.694450	0.250000
Zn161	Zn16	0.660860	0.776400	0.250000
H11	H1	0.920700	0.741900	0.948200
H21	H2	0.019700	0.772500	0.925700
H31	H3	0.073100	0.677400	0.971000
H41	H4	0.164200	0.694300	0.009500
H51	H5	0.812800	0.889300	0.991500
H61	H6	0.609600	0.890000	0.873000
H71	H7	0.844000	0.784400	0.881300
H81	H8	0.261300	0.635500	0.971100
H91	H9	0.297500	0.746100	0.867300
H101	H10	0.506300	0.629600	0.870500
H111	H11	0.079300	0.258100	0.448200
H121	H12	0.980300	0.227500	0.425700
H131	H13	0.926900	0.322600	0.471000
H141	H14	0.835800	0.305700	0.509500
H151	H15	0.187200	0.110700	0.491500
H161	H16	0.390400	0.110000	0.373000
H171	H17	0.156000	0.215600	0.381300
H181	H18	0.738700	0.364500	0.471100
H191	H19	0.702500	0.253900	0.367300
H201	H20	0.493700	0.370400	0.370500
H211	H21	0.079300	0.241900	0.551800
H221	H22	0.980300	0.272500	0.574300
H231	H23	0.926900	0.177400	0.529000
H241	H24	0.835800	0.194300	0.490500
H251	H25	0.187200	0.389300	0.508500
H261	H26	0.390400	0.390000	0.627000
H271	H27	0.156000	0.284400	0.618700
H281	H28	0.738700	0.135500	0.528900
H291	H29	0.702500	0.246100	0.632700
H301	H30	0.493700	0.129600	0.629500
H311	H31	0.920700	0.758100	0.051800
H321	H32	0.019700	0.727500	0.074300
H331	H33	0.073100	0.822600	0.029000
H341	H34	0.164200	0.805700	0.990500
H351	H35	0.812800	0.610700	0.008500
H361	H36	0.609600	0.610000	0.127000
H371	H37	0.844000	0.715600	0.118700
H381	H38	0.261300	0.864500	0.028900
H391	H39	0.297500	0.753900	0.132700
H401	H40	0.506300	0.870400	0.129500
H411	H41	0.079300	0.258100	0.051800
H421	H42	0.980300	0.227500	0.074300
H431	H43	0.926900	0.322600	0.029000
H441	H44	0.835800	0.305700	0.990500
H451	H45	0.187200	0.110700	0.008500
H461	H46	0.390400	0.110000	0.127000
H471	H47	0.156000	0.215600	0.118700
H481	H48	0.738700	0.364500	0.028900
H491	H49	0.702500	0.253900	0.132700
H501	H50	0.493700	0.370400	0.129500
H511	H51	0.920700	0.741900	0.551800
H521	H52	0.019700	0.772500	0.574300
H531	H53	0.073100	0.677400	0.529000
H541	H54	0.164200	0.694300	0.490500
H551	H55	0.812800	0.889300	0.508500
H561	H56	0.609600	0.890000	0.627000
H571	H57	0.844000	0.784400	0.618700
H581	H58	0.261300	0.635500	0.528900
H591	H59	0.297500	0.746100	0.632700
H601	H60	0.506300	0.629600	0.629500
H611	H61	0.920700	0.758100	0.448200
H621	H62	0.019700	0.727500	0.425700
H631	H63	0.073100	0.822600	0.471000
H641	H64	0.164200	0.805700	0.509500
H651	H65	0.812800	0.610700	0.491500
H661	H66	0.609600	0.610000	0.373000
H671	H67	0.844000	0.715600	0.381300
H681	H68	0.261300	0.864500	0.471100
H691	H69	0.297500	0.753900	0.367300
H701	H70	0.506300	0.870400	0.370500
H711	H71	0.079300	0.241900	0.948200
H721	H72	0.980300	0.272500	0.925700
H731	H73	0.926900	0.177400	0.971000
H741	H74	0.835800	0.194300	0.009500
H751	H75	0.187200	0.389300	0.991500
H761	H76	0.390400	0.390000	0.873000
H771	H77	0.156000	0.284400	0.881300
H781	H78	0.738700	0.135500	0.971100
H791	H79	0.702500	0.246100	0.867300
H801	H80	0.493700	0.129600	0.870500
C11	C1	0.975430	0.767400	0.955750
C21	C2	0.117690	0.705800	0.982050
C31	C3	0.843000	0.833520	0.940430
C41	C4	0.789400	0.875450	0.960890
C51	C5	0.701800	0.896480	0.936080
C61	C6	0.668300	0.875760	0.890220
C71	C7	0.721800	0.833910	0.869830
C81	C8	0.808600	0.812620	0.894850
C91	C9	0.637000	0.938460	0.960490
C101	C10	0.677200	0.809980	0.822130
C111	C11	0.299000	0.649750	0.944030
C121	C12	0.265800	0.695470	0.923480
C131	C13	0.321600	0.715850	0.881940
C141	C14	0.389700	0.625000	0.923860
C151	C15	0.445600	0.646070	0.883590
C161	C16	0.411200	0.691910	0.862550
C171	C17	0.472900	0.716590	0.819640
C181	C18	0.429600	0.576600	0.948810
C191	C19	0.024570	0.232600	0.455750
C201	C20	0.882310	0.294200	0.482050
C211	C21	0.157000	0.166480	0.440430
C221	C22	0.210600	0.124550	0.460890
C231	C23	0.298200	0.103520	0.436080
C241	C24	0.331700	0.124240	0.390220
C251	C25	0.278200	0.166090	0.369830
C261	C26	0.191400	0.187380	0.394850
C271	C27	0.363000	0.061540	0.460490
C281	C28	0.322800	0.190020	0.322130
C291	C29	0.701000	0.350250	0.444030
C301	C30	0.734200	0.304530	0.423480
C311	C31	0.678400	0.284150	0.381940
C321	C32	0.610300	0.375000	0.423860
C331	C33	0.554400	0.353930	0.383590
C341	C34	0.588800	0.308090	0.362550
C351	C35	0.527100	0.283410	0.319640
C361	C36	0.570400	0.423400	0.448810
C371	C37	0.024570	0.267400	0.544250
C381	C38	0.882310	0.205800	0.517950
C391	C39	0.157000	0.333520	0.559570
C401	C40	0.210600	0.375450	0.539110
C411	C41	0.298200	0.396480	0.563920
C421	C42	0.331700	0.375760	0.609780
C431	C43	0.278200	0.333910	0.630170
C441	C44	0.191400	0.312620	0.605150
C451	C45	0.363000	0.438460	0.539510
C461	C46	0.322800	0.309980	0.677870
C471	C47	0.701000	0.149750	0.555970
C481	C48	0.734200	0.195470	0.576520
C491	C49	0.678400	0.215850	0.618060
C501	C50	0.610300	0.125000	0.576140
C511	C51	0.554400	0.146070	0.616410
C521	C52	0.588800	0.191910	0.637450
C531	C53	0.527100	0.216590	0.680360
C541	C54	0.570400	0.076600	0.551190
C551	C55	0.975430	0.732600	0.044250
C561	C56	0.117690	0.794200	0.017950
C571	C57	0.843000	0.666480	0.059570
C581	C58	0.789400	0.624550	0.039110
C591	C59	0.701800	0.603520	0.063920
C601	C60	0.668300	0.624240	0.109780
C611	C61	0.721800	0.666090	0.130170
C621	C62	0.808600	0.687380	0.105150
C631	C63	0.637000	0.561540	0.039510
C641	C64	0.677200	0.690020	0.177870
C651	C65	0.299000	0.850250	0.055970
C661	C66	0.265800	0.804530	0.076520
C671	C67	0.321600	0.784150	0.118060
C681	C68	0.389700	0.875000	0.076140
C691	C69	0.445600	0.853930	0.116410
C701	C70	0.411200	0.808090	0.137450
C711	C71	0.472900	0.783410	0.180360
C721	C72	0.429600	0.923400	0.051190
C731	C73	0.024570	0.232600	0.044250
C741	C74	0.882310	0.294200	0.017950
C751	C75	0.157000	0.166480	0.059570
C761	C76	0.210600	0.124550	0.039110
C771	C77	0.298200	0.103520	0.063920
C781	C78	0.331700	0.124240	0.109780
C791	C79	0.278200	0.166090	0.130170
C801	C80	0.191400	0.187380	0.105150
C811	C81	0.363000	0.061540	0.039510
C821	C82	0.322800	0.190020	0.177870
C831	C83	0.701000	0.350250	0.055970
C841	C84	0.734200	0.304530	0.076520
C851	C85	0.678400	0.284150	0.118060
C861	C86	0.610300	0.375000	0.076140
C871	C87	0.554400	0.353930	0.116410
C881	C88	0.588800	0.308090	0.137450
C891	C89	0.527100	0.283410	0.180360
C901	C90	0.570400	0.423400	0.051190
C911	C91	0.975430	0.767400	0.544250
C921	C92	0.117690	0.705800	0.517950
C931	C93	0.843000	0.833520	0.559570
C941	C94	0.789400	0.875450	0.539110
C951	C95	0.701800	0.896480	0.563920
C961	C96	0.668300	0.875760	0.609780
C971	C97	0.721800	0.833910	0.630170
C981	C98	0.808600	0.812620	0.605150
C991	C99	0.637000	0.938460	0.539510
C1001	C100	0.677200	0.809980	0.677870
C1011	C101	0.299000	0.649750	0.555970
C1021	C102	0.265800	0.695470	0.576520
C1031	C103	0.321600	0.715850	0.618060
C1041	C104	0.389700	0.625000	0.576140
C1051	C105	0.445600	0.646070	0.616410
C1061	C106	0.411200	0.691910	0.637450
C1071	C107	0.472900	0.716590	0.680360
C1081	C108	0.429600	0.576600	0.551190
C1091	C109	0.975430	0.732600	0.455750
C1101	C110	0.117690	0.794200	0.482050
C1111	C111	0.843000	0.666480	0.440430
C1121	C112	0.789400	0.624550	0.460890
C1131	C113	0.701800	0.603520	0.436080
C1141	C114	0.668300	0.624240	0.390220
C1151	C115	0.721800	0.666090	0.369830
C1161	C116	0.808600	0.687380	0.394850
C1171	C117	0.637000	0.561540	0.460490
C1181	C118	0.677200	0.690020	0.322130
C1191	C119	0.299000	0.850250	0.444030
C1201	C120	0.265800	0.804530	0.423480
C1211	C121	0.321600	0.784150	0.381940
C1221	C122	0.389700	0.875000	0.423860
C1231	C123	0.445600	0.853930	0.383590
C1241	C124	0.411200	0.808090	0.362550
C1251	C125	0.472900	0.783410	0.319640
C1261	C126	0.429600	0.923400	0.448810
C1271	C127	0.024570	0.267400	0.955750
C1281	C128	0.882310	0.205800	0.982050
C1291	C129	0.157000	0.333520	0.940430
C1301	C130	0.210600	0.375450	0.960890
C1311	C131	0.298200	0.396480	0.936080
C1321	C132	0.331700	0.375760	0.890220
C1331	C133	0.278200	0.333910	0.869830
C1341	C134	0.191400	0.312620	0.894850
C1351	C135	0.363000	0.438460	0.960490
C1361	C136	0.322800	0.309980	0.822130
C1371	C137	0.701000	0.149750	0.944030
C1381	C138	0.734200	0.195470	0.923480
C1391	C139	0.678400	0.215850	0.881940
C1401	C140	0.610300	0.125000	0.923860
C1411	C141	0.554400	0.146070	0.883590
C1421	C142	0.588800	0.191910	0.862550
C1431	C143	0.527100	0.216590	0.819640
C1441	C144	0.570400	0.076600	0.948810
C1451	C145	0.045800	0.750000	0.000000
C1461	C146	0.954200	0.250000	0.500000
C1471	C147	0.954200	0.250000	0.000000
C1481	C148	0.045800	0.750000	0.500000
O11	O1	0.924900	0.814200	0.970350
O21	O2	0.181450	0.724190	0.941060
O31	O3	0.674390	0.957990	0.000170
O41	O4	0.549140	0.950450	0.938960
O51	O5	0.594820	0.832040	0.803150
O61	O6	0.721870	0.770750	0.805300
O71	O7	0.434090	0.757800	0.803280
O81	O8	0.555930	0.695580	0.803980
O91	O9	0.508590	0.554330	0.928070
O101	O10	0.382980	0.563100	0.988950
O111	O11	0.075100	0.185800	0.470350
O121	O12	0.818550	0.275810	0.441060
O131	O13	0.325610	0.042010	0.500170
O141	O14	0.450860	0.049550	0.438960
O151	O15	0.405180	0.167960	0.303150
O161	O16	0.278130	0.229250	0.305300
O171	O17	0.565910	0.242200	0.303280
O181	O18	0.444070	0.304420	0.303980
O191	O19	0.491410	0.445670	0.428070
O201	O20	0.617020	0.436900	0.488950
O211	O21	0.075100	0.314200	0.529650
O221	O22	0.818550	0.224190	0.558940
O231	O23	0.325610	0.457990	0.499830
O241	O24	0.450860	0.450450	0.561040
O251	O25	0.405180	0.332040	0.696850
O261	O26	0.278130	0.270750	0.694700
O271	O27	0.565910	0.257800	0.696720
O281	O28	0.444070	0.195580	0.696020
O291	O29	0.491410	0.054330	0.571930
O301	O30	0.617020	0.063100	0.511050
O311	O31	0.924900	0.685800	0.029650
O321	O32	0.181450	0.775810	0.058940
O331	O33	0.674390	0.542010	0.999830
O341	O34	0.549140	0.549550	0.061040
O351	O35	0.594820	0.667960	0.196850
O361	O36	0.721870	0.729250	0.194700
O371	O37	0.434090	0.742200	0.196720
O381	O38	0.555930	0.804420	0.196020
O391	O39	0.508590	0.945670	0.071930
O401	O40	0.382980	0.936900	0.011050
O411	O41	0.075100	0.185800	0.029650
O421	O42	0.818550	0.275810	0.058940
O431	O43	0.325610	0.042010	0.999830
O441	O44	0.450860	0.049550	0.061040
O451	O45	0.405180	0.167960	0.196850
O461	O46	0.278130	0.229250	0.194700
O471	O47	0.565910	0.242200	0.196720
O481	O48	0.444070	0.304420	0.196020
O491	O49	0.491410	0.445670	0.071930
O501	O50	0.617020	0.436900	0.011050
O511	O51	0.924900	0.814200	0.529650
O521	O52	0.181450	0.724190	0.558940
O531	O53	0.674390	0.957990	0.499830
O541	O54	0.549140	0.950450	0.561040
O551	O55	0.594820	0.832040	0.696850
O561	O56	0.721870	0.770750	0.694700
O571	O57	0.434090	0.757800	0.696720
O581	O58	0.555930	0.695580	0.696020
O591	O59	0.508590	0.554330	0.571930
O601	O60	0.382980	0.563100	0.511050
O611	O61	0.924900	0.685800	0.470350
O621	O62	0.181450	0.775810	0.441060
O631	O63	0.674390	0.542010	0.500170
O641	O64	0.549140	0.549550	0.438960
O651	O65	0.594820	0.667960	0.303150
O661	O66	0.721870	0.729250	0.305300
O671	O67	0.434090	0.742200	0.303280
O681	O68	0.555930	0.804420	0.303980
O691	O69	0.508590	0.945670	0.428070
O701	O70	0.382980	0.936900	0.488950
O711	O71	0.075100	0.314200	0.970350
O721	O72	0.818550	0.224190	0.941060
O731	O73	0.325610	0.457990	0.000170
O741	O74	0.450860	0.450450	0.938960
O751	O75	0.405180	0.332040	0.803150
O761	O76	0.278130	0.270750	0.805300
O771	O77	0.565910	0.257800	0.803280
O781	O78	0.444070	0.195580	0.803980
O791	O79	0.491410	0.054330	0.928070
O801	O80	0.617020	0.063100	0.988950
