data_WEHHUO_clean_PM
_symmetry_space_group_name_H-M	'P1'
_cell_length_a	12.505900
_cell_length_b	26.170800
_cell_length_c	26.250900
_cell_angle_alpha	90.000000
_cell_angle_beta	90.000000
_cell_angle_gamma	90.000000
_symmetry_Int_Tables_number 1

loop_
_symmetry_equiv_pos_as_xyz
'x,y,z'

loop_
_atom_site_label
_atom_site_type_symbol
_atom_site_fract_x
_atom_site_fract_y
_atom_site_fract_z
Zn11	Zn1	0.418960	0.006600	0.458840
Zn21	Zn2	0.581040	0.993400	0.958840
Zn31	Zn3	0.581040	0.506600	0.041160
Zn41	Zn4	0.418960	0.493400	0.541160
Zn51	Zn5	0.581040	0.993400	0.541160
Zn61	Zn6	0.418960	0.006600	0.041160
Zn71	Zn7	0.418960	0.493400	0.958840
Zn81	Zn8	0.581040	0.506600	0.458840
Zn91	Zn9	0.513330	0.803430	0.750000
Zn101	Zn10	0.349840	0.720660	0.750000
Zn111	Zn11	0.486670	0.196570	0.250000
Zn121	Zn12	0.650160	0.279340	0.250000
Zn131	Zn13	0.486670	0.303430	0.750000
Zn141	Zn14	0.650160	0.220660	0.750000
Zn151	Zn15	0.513330	0.696570	0.250000
Zn161	Zn16	0.349840	0.779340	0.250000
H11	H1	0.077200	0.739900	0.554100
H21	H2	0.983600	0.774900	0.574000
H31	H3	0.162200	0.781500	0.618500
H41	H4	0.399700	0.884900	0.625100
H51	H5	0.195700	0.886500	0.507800
H61	H6	0.931700	0.823800	0.473700
H71	H7	0.839700	0.804700	0.509900
H81	H8	0.748800	0.866700	0.471300
H91	H9	0.712900	0.755300	0.366700
H101	H10	0.509500	0.873700	0.368200
H111	H11	0.922800	0.260100	0.054100
H121	H12	0.016400	0.225100	0.074000
H131	H13	0.837800	0.218500	0.118500
H141	H14	0.600300	0.115100	0.125100
H151	H15	0.804300	0.113500	0.007800
H161	H16	0.068300	0.176200	0.973700
H171	H17	0.160300	0.195300	0.009900
H181	H18	0.251200	0.133300	0.971300
H191	H19	0.287100	0.244700	0.866700
H201	H20	0.490500	0.126300	0.868200
H211	H21	0.922800	0.239900	0.945900
H221	H22	0.016400	0.274900	0.926000
H231	H23	0.837800	0.281500	0.881500
H241	H24	0.600300	0.384900	0.874900
H251	H25	0.804300	0.386500	0.992200
H261	H26	0.068300	0.323800	0.026300
H271	H27	0.160300	0.304700	0.990100
H281	H28	0.251200	0.366700	0.028700
H291	H29	0.287100	0.255300	0.133300
H301	H30	0.490500	0.373700	0.131800
H311	H31	0.077200	0.760100	0.445900
H321	H32	0.983600	0.725100	0.426000
H331	H33	0.162200	0.718500	0.381500
H341	H34	0.399700	0.615100	0.374900
H351	H35	0.195700	0.613500	0.492200
H361	H36	0.931700	0.676200	0.526300
H371	H37	0.839700	0.695300	0.490100
H381	H38	0.748800	0.633300	0.528700
H391	H39	0.712900	0.744700	0.633300
H401	H40	0.509500	0.626300	0.631800
H411	H41	0.922800	0.260100	0.445900
H421	H42	0.016400	0.225100	0.426000
H431	H43	0.837800	0.218500	0.381500
H441	H44	0.600300	0.115100	0.374900
H451	H45	0.804300	0.113500	0.492200
H461	H46	0.068300	0.176200	0.526300
H471	H47	0.160300	0.195300	0.490100
H481	H48	0.251200	0.133300	0.528700
H491	H49	0.287100	0.244700	0.633300
H501	H50	0.490500	0.126300	0.631800
H511	H51	0.077200	0.739900	0.945900
H521	H52	0.983600	0.774900	0.926000
H531	H53	0.162200	0.781500	0.881500
H541	H54	0.399700	0.884900	0.874900
H551	H55	0.195700	0.886500	0.992200
H561	H56	0.931700	0.823800	0.026300
H571	H57	0.839700	0.804700	0.990100
H581	H58	0.748800	0.866700	0.028700
H591	H59	0.712900	0.755300	0.133300
H601	H60	0.509500	0.873700	0.131800
H611	H61	0.077200	0.760100	0.054100
H621	H62	0.983600	0.725100	0.074000
H631	H63	0.162200	0.718500	0.118500
H641	H64	0.399700	0.615100	0.125100
H651	H65	0.195700	0.613500	0.007800
H661	H66	0.931700	0.676200	0.973700
H671	H67	0.839700	0.695300	0.009900
H681	H68	0.748800	0.633300	0.971300
H691	H69	0.712900	0.744700	0.866700
H701	H70	0.509500	0.626300	0.868200
H711	H71	0.922800	0.239900	0.554100
H721	H72	0.016400	0.274900	0.574000
H731	H73	0.837800	0.281500	0.618500
H741	H74	0.600300	0.384900	0.625100
H751	H75	0.804300	0.386500	0.507800
H761	H76	0.068300	0.323800	0.473700
H771	H77	0.160300	0.304700	0.509900
H781	H78	0.251200	0.366700	0.471300
H791	H79	0.287100	0.255300	0.366700
H801	H80	0.490500	0.373700	0.368200
C11	C1	0.329900	0.805400	0.677710
C21	C2	0.027900	0.766850	0.544700
C31	C3	0.166000	0.829450	0.558560
C41	C4	0.198500	0.809070	0.604410
C51	C5	0.286000	0.830110	0.629390
C61	C6	0.340300	0.871390	0.608590
C71	C7	0.305700	0.892360	0.563100
C81	C8	0.219100	0.872060	0.538160
C91	C9	0.369300	0.935010	0.538470
C101	C10	0.887700	0.794650	0.482690
C111	C11	0.622300	0.877780	0.423390
C121	C12	0.712300	0.852790	0.443760
C131	C13	0.745900	0.807220	0.422300
C141	C14	0.690100	0.785940	0.380940
C151	C15	0.580800	0.925280	0.449080
C161	C16	0.601700	0.810600	0.361530
C171	C17	0.568100	0.856820	0.382070
C181	C18	0.539200	0.784430	0.319190
C191	C19	0.670100	0.194600	0.177710
C201	C20	0.972100	0.233150	0.044700
C211	C21	0.834000	0.170550	0.058560
C221	C22	0.801500	0.190930	0.104410
C231	C23	0.714000	0.169890	0.129390
C241	C24	0.659700	0.128610	0.108590
C251	C25	0.694300	0.107640	0.063100
C261	C26	0.780900	0.127940	0.038160
C271	C27	0.630700	0.064990	0.038470
C281	C28	0.112300	0.205350	0.982690
C291	C29	0.377700	0.122220	0.923390
C301	C30	0.287700	0.147210	0.943760
C311	C31	0.254100	0.192780	0.922300
C321	C32	0.309900	0.214060	0.880940
C331	C33	0.419200	0.074720	0.949080
C341	C34	0.398300	0.189400	0.861530
C351	C35	0.431900	0.143180	0.882070
C361	C36	0.460800	0.215570	0.819190
C371	C37	0.670100	0.305400	0.822290
C381	C38	0.972100	0.266850	0.955300
C391	C39	0.834000	0.329450	0.941440
C401	C40	0.801500	0.309070	0.895590
C411	C41	0.714000	0.330110	0.870610
C421	C42	0.659700	0.371390	0.891410
C431	C43	0.694300	0.392360	0.936900
C441	C44	0.780900	0.372060	0.961840
C451	C45	0.630700	0.435010	0.961530
C461	C46	0.112300	0.294650	0.017310
C471	C47	0.377700	0.377780	0.076610
C481	C48	0.287700	0.352790	0.056240
C491	C49	0.254100	0.307220	0.077700
C501	C50	0.309900	0.285940	0.119060
C511	C51	0.419200	0.425280	0.050920
C521	C52	0.398300	0.310600	0.138470
C531	C53	0.431900	0.356820	0.117930
C541	C54	0.460800	0.284430	0.180810
C551	C55	0.329900	0.694600	0.322290
C561	C56	0.027900	0.733150	0.455300
C571	C57	0.166000	0.670550	0.441440
C581	C58	0.198500	0.690930	0.395590
C591	C59	0.286000	0.669890	0.370610
C601	C60	0.340300	0.628610	0.391410
C611	C61	0.305700	0.607640	0.436900
C621	C62	0.219100	0.627940	0.461840
C631	C63	0.369300	0.564990	0.461530
C641	C64	0.887700	0.705350	0.517310
C651	C65	0.622300	0.622220	0.576610
C661	C66	0.712300	0.647210	0.556240
C671	C67	0.745900	0.692780	0.577700
C681	C68	0.690100	0.714060	0.619060
C691	C69	0.580800	0.574720	0.550920
C701	C70	0.601700	0.689400	0.638470
C711	C71	0.568100	0.643180	0.617930
C721	C72	0.539200	0.715570	0.680810
C731	C73	0.670100	0.194600	0.322290
C741	C74	0.972100	0.233150	0.455300
C751	C75	0.834000	0.170550	0.441440
C761	C76	0.801500	0.190930	0.395590
C771	C77	0.714000	0.169890	0.370610
C781	C78	0.659700	0.128610	0.391410
C791	C79	0.694300	0.107640	0.436900
C801	C80	0.780900	0.127940	0.461840
C811	C81	0.630700	0.064990	0.461530
C821	C82	0.112300	0.205350	0.517310
C831	C83	0.377700	0.122220	0.576610
C841	C84	0.287700	0.147210	0.556240
C851	C85	0.254100	0.192780	0.577700
C861	C86	0.309900	0.214060	0.619060
C871	C87	0.419200	0.074720	0.550920
C881	C88	0.398300	0.189400	0.638470
C891	C89	0.431900	0.143180	0.617930
C901	C90	0.460800	0.215570	0.680810
C911	C91	0.329900	0.805400	0.822290
C921	C92	0.027900	0.766850	0.955300
C931	C93	0.166000	0.829450	0.941440
C941	C94	0.198500	0.809070	0.895590
C951	C95	0.286000	0.830110	0.870610
C961	C96	0.340300	0.871390	0.891410
C971	C97	0.305700	0.892360	0.936900
C981	C98	0.219100	0.872060	0.961840
C991	C99	0.369300	0.935010	0.961530
C1001	C100	0.887700	0.794650	0.017310
C1011	C101	0.622300	0.877780	0.076610
C1021	C102	0.712300	0.852790	0.056240
C1031	C103	0.745900	0.807220	0.077700
C1041	C104	0.690100	0.785940	0.119060
C1051	C105	0.580800	0.925280	0.050920
C1061	C106	0.601700	0.810600	0.138470
C1071	C107	0.568100	0.856820	0.117930
C1081	C108	0.539200	0.784430	0.180810
C1091	C109	0.329900	0.694600	0.177710
C1101	C110	0.027900	0.733150	0.044700
C1111	C111	0.166000	0.670550	0.058560
C1121	C112	0.198500	0.690930	0.104410
C1131	C113	0.286000	0.669890	0.129390
C1141	C114	0.340300	0.628610	0.108590
C1151	C115	0.305700	0.607640	0.063100
C1161	C116	0.219100	0.627940	0.038160
C1171	C117	0.369300	0.564990	0.038470
C1181	C118	0.887700	0.705350	0.982690
C1191	C119	0.622300	0.622220	0.923390
C1201	C120	0.712300	0.647210	0.943760
C1211	C121	0.745900	0.692780	0.922300
C1221	C122	0.690100	0.714060	0.880940
C1231	C123	0.580800	0.574720	0.949080
C1241	C124	0.601700	0.689400	0.861530
C1251	C125	0.568100	0.643180	0.882070
C1261	C126	0.539200	0.715570	0.819190
C1271	C127	0.670100	0.305400	0.677710
C1281	C128	0.972100	0.266850	0.544700
C1291	C129	0.834000	0.329450	0.558560
C1301	C130	0.801500	0.309070	0.604410
C1311	C131	0.714000	0.330110	0.629390
C1321	C132	0.659700	0.371390	0.608590
C1331	C133	0.694300	0.392360	0.563100
C1341	C134	0.780900	0.372060	0.538160
C1351	C135	0.630700	0.435010	0.538470
C1361	C136	0.112300	0.294650	0.482690
C1371	C137	0.377700	0.377780	0.423390
C1381	C138	0.287700	0.352790	0.443760
C1391	C139	0.254100	0.307220	0.422300
C1401	C140	0.309900	0.285940	0.380940
C1411	C141	0.419200	0.425280	0.449080
C1421	C142	0.398300	0.310600	0.361530
C1431	C143	0.431900	0.356820	0.382070
C1441	C144	0.460800	0.284430	0.319190
C1451	C145	0.958500	0.750000	0.500000
C1461	C146	0.041500	0.250000	0.000000
C1471	C147	0.041500	0.250000	0.500000
C1481	C148	0.958500	0.750000	0.000000
O11	O1	0.410300	0.827370	0.697160
O21	O2	0.286200	0.766190	0.694140
O31	O3	0.085300	0.811120	0.528350
O41	O4	0.333000	0.954610	0.498290
O51	O5	0.454900	0.947150	0.560080
O61	O6	0.828100	0.778070	0.439580
O71	O7	0.625900	0.938660	0.489370
O81	O8	0.455900	0.806140	0.304240
O91	O9	0.502200	0.946930	0.428230
O101	O10	0.576100	0.742940	0.303680
O111	O11	0.589700	0.172630	0.197160
O121	O12	0.713800	0.233810	0.194140
O131	O13	0.914700	0.188880	0.028350
O141	O14	0.667000	0.045390	0.998290
O151	O15	0.545100	0.052850	0.060080
O161	O16	0.171900	0.221930	0.939580
O171	O17	0.374100	0.061340	0.989370
O181	O18	0.544100	0.193860	0.804240
O191	O19	0.497800	0.053070	0.928230
O201	O20	0.423900	0.257060	0.803680
O211	O21	0.589700	0.327370	0.802840
O221	O22	0.713800	0.266190	0.805860
O231	O23	0.914700	0.311120	0.971650
O241	O24	0.667000	0.454610	0.001710
O251	O25	0.545100	0.447150	0.939920
O261	O26	0.171900	0.278070	0.060420
O271	O27	0.374100	0.438660	0.010630
O281	O28	0.544100	0.306140	0.195760
O291	O29	0.497800	0.446930	0.071770
O301	O30	0.423900	0.242940	0.196320
O311	O31	0.410300	0.672630	0.302840
O321	O32	0.286200	0.733810	0.305860
O331	O33	0.085300	0.688880	0.471650
O341	O34	0.333000	0.545390	0.501710
O351	O35	0.454900	0.552850	0.439920
O361	O36	0.828100	0.721930	0.560420
O371	O37	0.625900	0.561340	0.510630
O381	O38	0.455900	0.693860	0.695760
O391	O39	0.502200	0.553070	0.571770
O401	O40	0.576100	0.757060	0.696320
O411	O41	0.589700	0.172630	0.302840
O421	O42	0.713800	0.233810	0.305860
O431	O43	0.914700	0.188880	0.471650
O441	O44	0.667000	0.045390	0.501710
O451	O45	0.545100	0.052850	0.439920
O461	O46	0.171900	0.221930	0.560420
O471	O47	0.374100	0.061340	0.510630
O481	O48	0.544100	0.193860	0.695760
O491	O49	0.497800	0.053070	0.571770
O501	O50	0.423900	0.257060	0.696320
O511	O51	0.410300	0.827370	0.802840
O521	O52	0.286200	0.766190	0.805860
O531	O53	0.085300	0.811120	0.971650
O541	O54	0.333000	0.954610	0.001710
O551	O55	0.454900	0.947150	0.939920
O561	O56	0.828100	0.778070	0.060420
O571	O57	0.625900	0.938660	0.010630
O581	O58	0.455900	0.806140	0.195760
O591	O59	0.502200	0.946930	0.071770
O601	O60	0.576100	0.742940	0.196320
O611	O61	0.410300	0.672630	0.197160
O621	O62	0.286200	0.733810	0.194140
O631	O63	0.085300	0.688880	0.028350
O641	O64	0.333000	0.545390	0.998290
O651	O65	0.454900	0.552850	0.060080
O661	O66	0.828100	0.721930	0.939580
O671	O67	0.625900	0.561340	0.989370
O681	O68	0.455900	0.693860	0.804240
O691	O69	0.502200	0.553070	0.928230
O701	O70	0.576100	0.757060	0.803680
O711	O71	0.589700	0.327370	0.697160
O721	O72	0.713800	0.266190	0.694140
O731	O73	0.914700	0.311120	0.528350
O741	O74	0.667000	0.454610	0.498290
O751	O75	0.545100	0.447150	0.560080
O761	O76	0.171900	0.278070	0.439580
O771	O77	0.374100	0.438660	0.489370
O781	O78	0.544100	0.306140	0.304240
O791	O79	0.497800	0.446930	0.428230
O801	O80	0.423900	0.242940	0.303680
