data_WEHQAC_charged_PM
_symmetry_space_group_name_H-M	'P1'
_cell_length_a	15.620900
_cell_length_b	15.620900
_cell_length_c	19.894400
_cell_angle_alpha	73.102900
_cell_angle_beta	73.103300
_cell_angle_gamma	105.050000
_symmetry_Int_Tables_number 1

loop_
_symmetry_equiv_pos_as_xyz
'x,y,z'

loop_
_atom_site_label
_atom_site_type_symbol
_atom_site_fract_x
_atom_site_fract_y
_atom_site_fract_z
Ag11	Ag1	0.426490	0.676490	0.147020
Ag21	Ag2	0.323520	0.573510	0.352970
Ag31	Ag3	0.573510	0.323510	0.852980
Ag41	Ag4	0.676490	0.426490	0.647020
H11	H1	0.402300	0.536500	0.069800
H21	H2	0.424200	0.540200	0.949600
H31	H3	0.293700	0.485300	0.920200
H41	H4	0.115500	0.423500	0.133000
H51	H5	0.011200	0.373000	0.873000
H61	H6	0.868900	0.315500	0.858600
H71	H7	0.720400	0.284000	0.071000
H81	H8	0.862600	0.340400	0.084600
H91	H9	0.527900	0.893700	0.069800
H101	H10	0.626200	0.010200	0.949600
H111	H11	0.786100	0.094500	0.920200
H121	H12	0.751500	0.943500	0.133000
H131	H13	0.115800	0.254000	0.873000
H141	H14	0.272500	0.325900	0.858600
H151	H15	0.208600	0.145000	0.071000
H161	H16	0.052800	0.075000	0.084600
H171	H17	0.463500	0.597700	0.430200
H181	H18	0.459800	0.575800	0.550400
H191	H19	0.514700	0.706300	0.579800
H201	H20	0.576500	0.884500	0.367000
H211	H21	0.627000	0.988800	0.627000
H221	H22	0.684500	0.131100	0.641400
H231	H23	0.716000	0.279600	0.429000
H241	H24	0.659600	0.137400	0.415400
H251	H25	0.106300	0.472100	0.430200
H261	H26	0.989800	0.373800	0.550400
H271	H27	0.905500	0.213900	0.579800
H281	H28	0.056500	0.248500	0.367000
H291	H29	0.746000	0.884200	0.627000
H301	H30	0.674100	0.727500	0.641400
H311	H31	0.855000	0.791400	0.429000
H321	H32	0.925000	0.947200	0.415400
H331	H33	0.597700	0.463500	0.930200
H341	H34	0.575800	0.459800	0.050400
H351	H35	0.706300	0.514700	0.079800
H361	H36	0.884500	0.576500	0.867000
H371	H37	0.988800	0.627000	0.127000
H381	H38	0.131100	0.684500	0.141400
H391	H39	0.279600	0.716000	0.929000
H401	H40	0.137400	0.659600	0.915400
H411	H41	0.472100	0.106300	0.930200
H421	H42	0.373800	0.989800	0.050400
H431	H43	0.213900	0.905500	0.079800
H441	H44	0.248500	0.056500	0.867000
H451	H45	0.884200	0.746000	0.127000
H461	H46	0.727500	0.674100	0.141400
H471	H47	0.791400	0.855000	0.929000
H481	H48	0.947200	0.925000	0.915400
H491	H49	0.536500	0.402300	0.569800
H501	H50	0.540200	0.424200	0.449600
H511	H51	0.485300	0.293700	0.420200
H521	H52	0.423500	0.115500	0.633000
H531	H53	0.373000	0.011200	0.373000
H541	H54	0.315500	0.868900	0.358600
H551	H55	0.284000	0.720400	0.571000
H561	H56	0.340400	0.862600	0.584600
H571	H57	0.893700	0.527900	0.569800
H581	H58	0.010200	0.626200	0.449600
H591	H59	0.094500	0.786100	0.420200
H601	H60	0.943500	0.751500	0.633000
H611	H61	0.254000	0.115800	0.373000
H621	H62	0.325900	0.272500	0.358600
H631	H63	0.145000	0.208600	0.571000
H641	H64	0.075000	0.052800	0.584600
C11	C1	0.241180	0.479080	0.189540
C21	C2	0.256950	0.479710	0.113340
C31	C3	0.349200	0.514600	0.058400
C41	C4	0.362010	0.516610	0.986780
C51	C5	0.283610	0.484010	0.968980
C61	C6	0.191340	0.449740	0.022720
C71	C7	0.177660	0.447100	0.095840
C81	C8	0.108570	0.419170	0.004860
C91	C9	0.038320	0.394320	0.992960
C101	C10	0.950300	0.360300	0.982000
C111	C11	0.952400	0.354200	0.913000
C121	C12	0.867400	0.320400	0.904400
C131	C13	0.780700	0.293900	0.963200
C141	C14	0.692120	0.262320	0.952960
C151	C15	0.778900	0.301500	0.031000
C161	C16	0.864200	0.335000	0.039000
C171	C17	0.569280	0.831380	0.189540
C181	C18	0.629710	0.906950	0.113340
C191	C19	0.592400	0.927000	0.058400
C201	C20	0.651210	0.996610	0.986780
C211	C21	0.747410	0.047010	0.968980
C221	C22	0.785940	0.027540	0.022720
C231	C23	0.726500	0.957060	0.095840
C241	C24	0.886570	0.075970	0.004860
C251	C25	0.968720	0.112720	0.992960
C261	C26	0.067700	0.157700	0.982000
C271	C27	0.134600	0.232800	0.913000
C281	C28	0.228200	0.275200	0.904400
C291	C29	0.256100	0.242900	0.963200
C301	C30	0.354920	0.284720	0.952960
C311	C31	0.190100	0.167500	0.031000
C321	C32	0.096800	0.126000	0.039000
C331	C33	0.520920	0.758820	0.310460
C341	C34	0.520290	0.743050	0.386660
C351	C35	0.485400	0.650800	0.441600
C361	C36	0.483390	0.637990	0.513220
C371	C37	0.515990	0.716390	0.531020
C381	C38	0.550260	0.808660	0.477280
C391	C39	0.552900	0.822340	0.404160
C401	C40	0.580830	0.891430	0.495140
C411	C41	0.605680	0.961680	0.507040
C421	C42	0.639700	0.049700	0.518000
C431	C43	0.645800	0.047600	0.587000
C441	C44	0.679600	0.132600	0.595600
C451	C45	0.706100	0.219300	0.536800
C461	C46	0.737680	0.307880	0.547040
C471	C47	0.698500	0.221100	0.469000
C481	C48	0.665000	0.135800	0.461000
C491	C49	0.168620	0.430720	0.310460
C501	C50	0.093050	0.370290	0.386660
C511	C51	0.073000	0.407600	0.441600
C521	C52	0.003390	0.348790	0.513220
C531	C53	0.952990	0.252590	0.531020
C541	C54	0.972460	0.214060	0.477280
C551	C55	0.042940	0.273500	0.404160
C561	C56	0.924030	0.113430	0.495140
C571	C57	0.887280	0.031280	0.507040
C581	C58	0.842300	0.932300	0.518000
C591	C59	0.767200	0.865400	0.587000
C601	C60	0.724800	0.771800	0.595600
C611	C61	0.757100	0.743900	0.536800
C621	C62	0.715280	0.645080	0.547040
C631	C63	0.832500	0.809900	0.469000
C641	C64	0.874000	0.903200	0.461000
C651	C65	0.758820	0.520920	0.810460
C661	C66	0.743050	0.520290	0.886660
C671	C67	0.650800	0.485400	0.941600
C681	C68	0.637990	0.483390	0.013220
C691	C69	0.716390	0.515990	0.031020
C701	C70	0.808660	0.550260	0.977280
C711	C71	0.822340	0.552900	0.904160
C721	C72	0.891430	0.580830	0.995140
C731	C73	0.961680	0.605680	0.007040
C741	C74	0.049700	0.639700	0.018000
C751	C75	0.047600	0.645800	0.087000
C761	C76	0.132600	0.679600	0.095600
C771	C77	0.219300	0.706100	0.036800
C781	C78	0.307880	0.737680	0.047040
C791	C79	0.221100	0.698500	0.969000
C801	C80	0.135800	0.665000	0.961000
C811	C81	0.430720	0.168620	0.810460
C821	C82	0.370290	0.093050	0.886660
C831	C83	0.407600	0.073000	0.941600
C841	C84	0.348790	0.003390	0.013220
C851	C85	0.252590	0.952990	0.031020
C861	C86	0.214060	0.972460	0.977280
C871	C87	0.273500	0.042940	0.904160
C881	C88	0.113430	0.924030	0.995140
C891	C89	0.031280	0.887280	0.007040
C901	C90	0.932300	0.842300	0.018000
C911	C91	0.865400	0.767200	0.087000
C921	C92	0.771800	0.724800	0.095600
C931	C93	0.743900	0.757100	0.036800
C941	C94	0.645080	0.715280	0.047040
C951	C95	0.809900	0.832500	0.969000
C961	C96	0.903200	0.874000	0.961000
C971	C97	0.479080	0.241180	0.689540
C981	C98	0.479710	0.256950	0.613340
C991	C99	0.514600	0.349200	0.558400
C1001	C100	0.516610	0.362010	0.486780
C1011	C101	0.484010	0.283610	0.468980
C1021	C102	0.449740	0.191340	0.522720
C1031	C103	0.447100	0.177660	0.595840
C1041	C104	0.419170	0.108570	0.504860
C1051	C105	0.394320	0.038320	0.492960
C1061	C106	0.360300	0.950300	0.482000
C1071	C107	0.354200	0.952400	0.413000
C1081	C108	0.320400	0.867400	0.404400
C1091	C109	0.293900	0.780700	0.463200
C1101	C110	0.262320	0.692120	0.452960
C1111	C111	0.301500	0.778900	0.531000
C1121	C112	0.335000	0.864200	0.539000
C1131	C113	0.831380	0.569280	0.689540
C1141	C114	0.906950	0.629710	0.613340
C1151	C115	0.927000	0.592400	0.558400
C1161	C116	0.996610	0.651210	0.486780
C1171	C117	0.047010	0.747410	0.468980
C1181	C118	0.027540	0.785940	0.522720
C1191	C119	0.957060	0.726500	0.595840
C1201	C120	0.075970	0.886570	0.504860
C1211	C121	0.112720	0.968720	0.492960
C1221	C122	0.157700	0.067700	0.482000
C1231	C123	0.232800	0.134600	0.413000
C1241	C124	0.275200	0.228200	0.404400
C1251	C125	0.242900	0.256100	0.463200
C1261	C126	0.284720	0.354920	0.452960
C1271	C127	0.167500	0.190100	0.531000
C1281	C128	0.126000	0.096800	0.539000
N11	N1	0.293200	0.536040	0.210240
N21	N2	0.622740	0.238740	0.944920
N31	N3	0.496560	0.753720	0.210240
N41	N4	0.432340	0.316340	0.944920
N51	N5	0.463960	0.706800	0.289760
N61	N6	0.761260	0.377260	0.555080
N71	N7	0.246280	0.503440	0.289760
N81	N8	0.683660	0.567660	0.555080
N91	N9	0.706800	0.463960	0.789760
N101	N10	0.377260	0.761260	0.055080
N111	N11	0.503440	0.246280	0.789760
N121	N12	0.567660	0.683660	0.055080
N131	N13	0.536040	0.293200	0.710240
N141	N14	0.238740	0.622740	0.444920
N151	N15	0.753720	0.496560	0.710240
N161	N16	0.316340	0.432340	0.444920
O11	O1	0.160400	0.410400	0.250000
O21	O2	0.589600	0.839600	0.250000
O31	O3	0.839600	0.589600	0.750000
O41	O4	0.410400	0.160400	0.750000
B11	B1	0.231400	0.768600	0.250000
F11	F1	0.148800	0.666200	0.287800
F21	F2	0.197400	0.794400	0.303600
F31	F3	0.333800	0.851200	0.212200
F41	F4	0.205600	0.802600	0.196400
B21	B2	0.518600	0.481400	0.250000
F51	F5	0.563400	0.546000	0.287800
F61	F6	0.499000	0.402000	0.303600
F71	F7	0.454000	0.436600	0.212200
F81	F8	0.598000	0.501000	0.196400
B31	B3	0.768600	0.231400	0.750000
F91	F9	0.851200	0.333800	0.712200
F101	F10	0.802600	0.205600	0.696400
F111	F11	0.666200	0.148800	0.787800
F121	F12	0.794400	0.197400	0.803600
B41	B4	0.481400	0.518600	0.750000
F131	F13	0.436600	0.454000	0.712200
F141	F14	0.501000	0.598000	0.696400
F151	F15	0.546000	0.563400	0.787800
F161	F16	0.402000	0.499000	0.803600
