data_WEJSAH_clean_PM
_symmetry_space_group_name_H-M	'P1'
_cell_length_a	14.526200
_cell_length_b	14.526200
_cell_length_c	14.526200
_cell_angle_alpha	63.076700
_cell_angle_beta	74.121300
_cell_angle_gamma	105.879000
_symmetry_Int_Tables_number 1

loop_
_symmetry_equiv_pos_as_xyz
'x,y,z'

loop_
_atom_site_label
_atom_site_type_symbol
_atom_site_fract_x
_atom_site_fract_y
_atom_site_fract_z
Cu11	Cu1	0.587800	0.092320	0.490850
Cu21	Cu2	0.912200	0.421350	0.495480
Cu31	Cu3	0.412200	0.907680	0.509150
Cu41	Cu4	0.087800	0.578650	0.504520
H11	H1	0.358900	0.119000	0.485100
H21	H2	0.322900	0.255700	0.340600
H31	H3	0.346200	0.356600	0.153000
H41	H4	0.487500	0.388300	0.006000
H51	H5	0.610100	0.326500	0.041000
H61	H6	0.587900	0.222100	0.230600
H71	H7	0.702700	0.266200	0.525900
H81	H8	0.807300	0.094300	0.476400
H91	H9	0.718300	0.973400	0.591300
H101	H10	0.569800	0.964800	0.731400
H111	H11	0.564800	0.080200	0.705200
H121	H12	0.792000	0.016500	0.780900
H131	H13	0.141100	0.656000	0.239900
H141	H14	0.177100	0.836500	0.067200
H151	H15	0.153800	0.000800	0.989600
H161	H16	0.012500	0.006500	0.099200
H171	H17	0.889900	0.848900	0.283600
H181	H18	0.912100	0.681500	0.365800
H191	H19	0.797300	0.271400	0.436500
H201	H20	0.692700	0.216300	0.713000
H211	H21	0.781700	0.190400	0.744900
H221	H22	0.930200	0.198800	0.605000
H231	H23	0.935200	0.230000	0.484600
H241	H24	0.708000	0.927100	0.775500
H251	H25	0.641100	0.881000	0.514900
H261	H26	0.677100	0.744300	0.659400
H271	H27	0.653800	0.643400	0.847000
H281	H28	0.512500	0.611700	0.994000
H291	H29	0.389900	0.673500	0.959000
H301	H30	0.412100	0.777900	0.769400
H311	H31	0.297300	0.733800	0.474100
H321	H32	0.192700	0.905700	0.523600
H331	H33	0.281700	0.026600	0.408700
H341	H34	0.430200	0.035200	0.268600
H351	H35	0.435200	0.919800	0.294800
H361	H36	0.208000	0.983500	0.219100
H371	H37	0.858900	0.344000	0.760100
H381	H38	0.822900	0.163500	0.932800
H391	H39	0.846200	0.999200	0.010400
H401	H40	0.987500	0.993500	0.900800
H411	H41	0.110100	0.151100	0.716400
H421	H42	0.087900	0.318500	0.634200
H431	H43	0.202700	0.728600	0.563500
H441	H44	0.307300	0.783700	0.287000
H451	H45	0.218300	0.809600	0.255100
H461	H46	0.069800	0.801200	0.395000
H471	H47	0.064800	0.770000	0.515400
H481	H48	0.292000	0.072900	0.224500
C11	C1	0.500330	0.243320	0.451870
C21	C2	0.435860	0.157470	0.430590
C31	C3	0.451900	0.226480	0.306220
C41	C4	0.380800	0.268600	0.280800
C51	C5	0.394600	0.329100	0.168700
C61	C6	0.479000	0.348500	0.081500
C71	C7	0.551600	0.310900	0.102300
C81	C8	0.538510	0.248410	0.216100
C91	C9	0.759420	0.055400	0.558260
C101	C10	0.613370	0.046970	0.696020
C111	C11	0.999670	0.547800	0.257010
C121	C12	0.064140	0.633550	0.278390
C131	C13	0.048100	0.741880	0.225420
C141	C14	0.119200	0.838400	0.112200
C151	C15	0.105400	0.936700	0.065500
C161	C16	0.021000	0.939500	0.130500
C171	C17	0.948400	0.846100	0.240700
C181	C18	0.961490	0.745390	0.290100
C191	C19	0.740580	0.182320	0.704020
C201	C20	0.886630	0.190610	0.566400
C211	C21	0.499670	0.756680	0.548130
C221	C22	0.564140	0.842530	0.569410
C231	C23	0.548100	0.773520	0.693780
C241	C24	0.619200	0.731400	0.719200
C251	C25	0.605400	0.670900	0.831300
C261	C26	0.521000	0.651500	0.918500
C271	C27	0.448400	0.689100	0.897700
C281	C28	0.461490	0.751590	0.783900
C291	C29	0.240580	0.944600	0.441740
C301	C30	0.386630	0.953030	0.303980
C311	C31	0.000330	0.452200	0.742990
C321	C32	0.935860	0.366450	0.721610
C331	C33	0.951900	0.258120	0.774580
C341	C34	0.880800	0.161600	0.887800
C351	C35	0.894600	0.063300	0.934500
C361	C36	0.979000	0.060500	0.869500
C371	C37	0.051600	0.153900	0.759300
C381	C38	0.038510	0.254610	0.709900
C391	C39	0.259420	0.817680	0.295980
C401	C40	0.113370	0.809390	0.433600
C411	C41	0.750000	0.231200	0.518800
C421	C42	0.750000	0.009300	0.740700
C431	C43	0.250000	0.768800	0.481200
C441	C44	0.250000	0.990700	0.259300
N11	N1	0.683790	0.106100	0.569350
N21	N2	0.823400	0.067630	0.617310
N31	N3	0.816210	0.246860	0.577690
N41	N4	0.676600	0.059290	0.755770
N51	N5	0.316210	0.893900	0.430650
N61	N6	0.176600	0.932370	0.382690
N71	N7	0.183790	0.753140	0.422310
N81	N8	0.323400	0.940710	0.244230
O11	O1	0.572630	0.226510	0.477540
O21	O2	0.479970	0.324370	0.440460
O31	O3	0.471130	0.073120	0.449970
O41	O4	0.927370	0.449830	0.346120
O51	O5	0.020030	0.579570	0.155600
O61	O6	0.028870	0.578900	0.398010
O71	O7	0.427370	0.773490	0.522460
O81	O8	0.520030	0.675630	0.559540
O91	O9	0.528870	0.926880	0.550030
O101	O10	0.072630	0.550170	0.653880
O111	O11	0.979970	0.420430	0.844400
O121	O12	0.971130	0.421100	0.601990
Cu51	Cu5	0.416830	0.509150	0.578650
Cu61	Cu6	0.083170	0.504520	0.907680
Cu71	Cu7	0.583170	0.490850	0.421350
Cu81	Cu8	0.916830	0.495480	0.092320
H491	H49	0.395900	0.514900	0.344000
H501	H50	0.403700	0.659400	0.163500
H511	H51	0.490400	0.847000	0.999200
H521	H52	0.605700	0.994000	0.993500
H531	H53	0.632500	0.959000	0.151100
H541	H54	0.547300	0.769400	0.318500
H551	H55	0.207900	0.474100	0.728600
H561	H56	0.429300	0.523600	0.783700
H571	H57	0.435300	0.408700	0.809600
H581	H58	0.303800	0.268600	0.801200
H591	H59	0.214600	0.294800	0.770000
H601	H60	0.202600	0.219100	0.072900
H611	H61	0.104100	0.760100	0.881000
H621	H62	0.096300	0.932800	0.744300
H631	H63	0.009600	0.010400	0.643400
H641	H64	0.894300	0.900800	0.611700
H651	H65	0.867500	0.716400	0.673500
H661	H66	0.952700	0.634200	0.777900
H671	H67	0.292100	0.563500	0.733800
H681	H68	0.070700	0.287000	0.905700
H691	H69	0.064700	0.255100	0.026600
H701	H70	0.196200	0.395000	0.035200
H711	H71	0.285400	0.515400	0.919800
H721	H72	0.297400	0.224500	0.983500
H731	H73	0.604100	0.485100	0.656000
H741	H74	0.596300	0.340600	0.836500
H751	H75	0.509600	0.153000	0.000800
H761	H76	0.394300	0.006000	0.006500
H771	H77	0.367500	0.041000	0.848900
H781	H78	0.452700	0.230600	0.681500
H791	H79	0.792100	0.525900	0.271400
H801	H80	0.570700	0.476400	0.216300
H811	H81	0.564700	0.591300	0.190400
H821	H82	0.696200	0.731400	0.198800
H831	H83	0.785400	0.705200	0.230000
H841	H84	0.797400	0.780900	0.927100
H851	H85	0.895900	0.239900	0.119000
H861	H86	0.903700	0.067200	0.255700
H871	H87	0.990400	0.989600	0.356600
H881	H88	0.105700	0.099200	0.388300
H891	H89	0.132500	0.283600	0.326500
H901	H90	0.047300	0.365800	0.222100
H911	H91	0.707900	0.436500	0.266200
H921	H92	0.929300	0.713000	0.094300
H931	H93	0.935300	0.744900	0.973400
H941	H94	0.803800	0.605000	0.964800
H951	H95	0.714600	0.484600	0.080200
H961	H96	0.702600	0.775500	0.016500
C451	C45	0.304810	0.548130	0.452200
C461	C46	0.411940	0.569410	0.366450
C471	C47	0.467300	0.693780	0.258120
C481	C48	0.450600	0.719200	0.161600
C491	C49	0.502200	0.831300	0.063300
C501	C50	0.570000	0.918500	0.060500
C511	C51	0.586800	0.897700	0.153900
C521	C52	0.535490	0.783900	0.254610
C531	C53	0.386340	0.441740	0.817680
C541	C54	0.257010	0.303980	0.809390
C551	C55	0.195190	0.742990	0.756680
C561	C56	0.088060	0.721610	0.842530
C571	C57	0.032700	0.774580	0.773520
C581	C58	0.049400	0.887800	0.731400
C591	C59	0.997800	0.934500	0.670900
C601	C60	0.930000	0.869500	0.651500
C611	C61	0.913200	0.759300	0.689100
C621	C62	0.964510	0.709900	0.751590
C631	C63	0.113660	0.295980	0.944600
C641	C64	0.242990	0.433600	0.953030
C651	C65	0.695190	0.451870	0.547800
C661	C66	0.588060	0.430590	0.633550
C671	C67	0.532700	0.306220	0.741880
C681	C68	0.549400	0.280800	0.838400
C691	C69	0.497800	0.168700	0.936700
C701	C70	0.430000	0.081500	0.939500
C711	C71	0.413200	0.102300	0.846100
C721	C72	0.464510	0.216100	0.745390
C731	C73	0.613660	0.558260	0.182320
C741	C74	0.742990	0.696020	0.190610
C751	C75	0.804810	0.257010	0.243320
C761	C76	0.911940	0.278390	0.157470
C771	C77	0.967300	0.225420	0.226480
C781	C78	0.950600	0.112200	0.268600
C791	C79	0.002200	0.065500	0.329100
C801	C80	0.070000	0.130500	0.348500
C811	C81	0.086800	0.240700	0.310900
C821	C82	0.035490	0.290100	0.248410
C831	C83	0.886340	0.704020	0.055400
C841	C84	0.757010	0.566400	0.046970
C851	C85	0.250000	0.481200	0.768800
C861	C86	0.250000	0.259300	0.990700
C871	C87	0.750000	0.518800	0.231200
C881	C88	0.750000	0.740700	0.009300
N91	N9	0.324550	0.430650	0.753140
N101	N10	0.315060	0.382690	0.940710
N111	N11	0.175450	0.422310	0.893900
N121	N12	0.184940	0.244230	0.932370
N131	N13	0.675450	0.569350	0.246860
N141	N14	0.684940	0.617310	0.059290
N151	N15	0.824550	0.577690	0.106100
N161	N16	0.815060	0.755770	0.067630
O131	O13	0.295950	0.522460	0.550170
O141	O14	0.235170	0.559540	0.420430
O151	O15	0.476910	0.550030	0.421100
O161	O16	0.204050	0.653880	0.773490
O171	O17	0.264830	0.844400	0.675630
O181	O18	0.023090	0.601990	0.926880
O191	O19	0.704050	0.477540	0.449830
O201	O20	0.764830	0.440460	0.579570
O211	O21	0.523090	0.449970	0.578900
O221	O22	0.795950	0.346120	0.226510
O231	O23	0.735170	0.155600	0.324370
O241	O24	0.976910	0.398010	0.073120
