data_WEJWAL_clean_PM
_symmetry_space_group_name_H-M	'P1'
_cell_length_a	6.673700
_cell_length_b	18.876900
_cell_length_c	13.552500
_cell_angle_alpha	90.000000
_cell_angle_beta	95.266000
_cell_angle_gamma	90.000000
_symmetry_Int_Tables_number 1

loop_
_symmetry_equiv_pos_as_xyz
'x,y,z'

loop_
_atom_site_label
_atom_site_type_symbol
_atom_site_fract_x
_atom_site_fract_y
_atom_site_fract_z
Ag11	Ag1	0.270940	0.008530	0.945940
N11	N1	0.522200	0.069000	0.891100
N21	N2	0.508700	0.141300	0.907800
N31	N3	0.708100	0.122300	0.789500
N41	N4	0.091600	0.404100	0.524200
N51	N5	0.921700	0.414600	0.572000
N61	N6	0.005200	0.303000	0.587700
C11	C1	0.640500	0.059500	0.820100
H11	H1	0.673100	0.015700	0.794600
C21	C2	0.620300	0.170700	0.845200
H21	H2	0.637600	0.219400	0.839500
C31	C3	0.138000	0.337100	0.535100
H31	H3	0.248100	0.315700	0.510000
C41	C4	0.871500	0.353600	0.609100
H41	H4	0.760700	0.346100	0.644700
C51	C5	0.843100	0.133300	0.709200
C61	C6	0.855700	0.213200	0.689100
H51	H5	0.722700	0.231700	0.668800
H61	H6	0.907900	0.237700	0.748900
C71	C7	0.994500	0.225400	0.607300
C81	C8	0.912100	0.188200	0.512900
H71	H7	0.000000	0.196500	0.461000
H81	H8	0.779800	0.206700	0.491100
C91	C9	0.898100	0.108300	0.533300
H91	H9	0.845300	0.084000	0.472500
C101	C10	0.756200	0.095400	0.614800
H101	H10	0.623200	0.113700	0.593900
H111	H11	0.744900	0.045000	0.627100
C111	C11	0.053900	0.105100	0.743700
H121	H12	0.107100	0.129600	0.803400
H131	H13	0.047200	0.054900	0.758300
C121	C12	0.190400	0.117600	0.660400
H141	H14	0.324800	0.099000	0.681200
C131	C13	0.207200	0.197400	0.640100
H151	H15	0.295900	0.205500	0.588400
H161	H16	0.262000	0.221800	0.699600
C141	C14	0.108200	0.079700	0.566600
H171	H17	0.101000	0.029200	0.578900
H181	H18	0.197000	0.087300	0.514800
Ag21	Ag2	0.729060	0.508530	0.554060
N71	N7	0.477800	0.569000	0.608900
N81	N8	0.491300	0.641300	0.592200
N91	N9	0.291900	0.622300	0.710500
N101	N10	0.908400	0.904100	0.975800
N111	N11	0.078300	0.914600	0.928000
N121	N12	0.994800	0.803000	0.912300
C151	C15	0.359500	0.559500	0.679900
H191	H19	0.326900	0.515700	0.705400
C161	C16	0.379700	0.670700	0.654800
H201	H20	0.362400	0.719400	0.660500
C171	C17	0.862000	0.837100	0.964900
H211	H21	0.751900	0.815700	0.990000
C181	C18	0.128500	0.853600	0.890900
H221	H22	0.239300	0.846100	0.855300
C191	C19	0.156900	0.633300	0.790800
C201	C20	0.144300	0.713200	0.810900
H231	H23	0.277300	0.731700	0.831200
H241	H24	0.092100	0.737700	0.751100
C211	C21	0.005500	0.725400	0.892700
C221	C22	0.087900	0.688200	0.987100
H251	H25	0.000000	0.696500	0.039000
H261	H26	0.220200	0.706700	0.008900
C231	C23	0.101900	0.608300	0.966700
H271	H27	0.154700	0.584000	0.027500
C241	C24	0.243800	0.595400	0.885200
H281	H28	0.376800	0.613700	0.906100
H291	H29	0.255100	0.545000	0.872900
C251	C25	0.946100	0.605100	0.756300
H301	H30	0.892900	0.629600	0.696600
H311	H31	0.952800	0.554900	0.741700
C261	C26	0.809600	0.617600	0.839600
H321	H32	0.675200	0.599000	0.818800
C271	C27	0.792800	0.697400	0.859900
H331	H33	0.704100	0.705500	0.911600
H341	H34	0.738000	0.721800	0.800400
C281	C28	0.891800	0.579700	0.933400
H351	H35	0.899000	0.529200	0.921100
H361	H36	0.803000	0.587300	0.985200
Ag31	Ag3	0.729060	0.991470	0.054060
N131	N13	0.477800	0.931000	0.108900
N141	N14	0.491300	0.858700	0.092200
N151	N15	0.291900	0.877700	0.210500
N161	N16	0.908400	0.595900	0.475800
N171	N17	0.078300	0.585400	0.428000
N181	N18	0.994800	0.697000	0.412300
C291	C29	0.359500	0.940500	0.179900
H371	H37	0.326900	0.984300	0.205400
C301	C30	0.379700	0.829300	0.154800
H381	H38	0.362400	0.780600	0.160500
C311	C31	0.862000	0.662900	0.464900
H391	H39	0.751900	0.684300	0.490000
C321	C32	0.128500	0.646400	0.390900
H401	H40	0.239300	0.653900	0.355300
C331	C33	0.156900	0.866700	0.290800
C341	C34	0.144300	0.786800	0.310900
H411	H41	0.277300	0.768300	0.331200
H421	H42	0.092100	0.762300	0.251100
C351	C35	0.005500	0.774600	0.392700
C361	C36	0.087900	0.811800	0.487100
H431	H43	0.000000	0.803500	0.539000
H441	H44	0.220200	0.793300	0.508900
C371	C37	0.101900	0.891700	0.466700
H451	H45	0.154700	0.916000	0.527500
C381	C38	0.243800	0.904600	0.385200
H461	H46	0.376800	0.886300	0.406100
H471	H47	0.255100	0.955000	0.372900
C391	C39	0.946100	0.894900	0.256300
H481	H48	0.892900	0.870400	0.196600
H491	H49	0.952800	0.945100	0.241700
C401	C40	0.809600	0.882400	0.339600
H501	H50	0.675200	0.901000	0.318800
C411	C41	0.792800	0.802600	0.359900
H511	H51	0.704100	0.794500	0.411600
H521	H52	0.738000	0.778200	0.300400
C421	C42	0.891800	0.920300	0.433400
H531	H53	0.899000	0.970800	0.421100
H541	H54	0.803000	0.912700	0.485200
Ag41	Ag4	0.270940	0.491470	0.445940
N191	N19	0.522200	0.431000	0.391100
N201	N20	0.508700	0.358700	0.407800
N211	N21	0.708100	0.377700	0.289500
N221	N22	0.091600	0.095900	0.024200
N231	N23	0.921700	0.085400	0.072000
N241	N24	0.005200	0.197000	0.087700
C431	C43	0.640500	0.440500	0.320100
H551	H55	0.673100	0.484300	0.294600
C441	C44	0.620300	0.329300	0.345200
H561	H56	0.637600	0.280600	0.339500
C451	C45	0.138000	0.162900	0.035100
H571	H57	0.248100	0.184300	0.010000
C461	C46	0.871500	0.146400	0.109100
H581	H58	0.760700	0.153900	0.144700
C471	C47	0.843100	0.366700	0.209200
C481	C48	0.855700	0.286800	0.189100
H591	H59	0.722700	0.268300	0.168800
H601	H60	0.907900	0.262300	0.248900
C491	C49	0.994500	0.274600	0.107300
C501	C50	0.912100	0.311800	0.012900
H611	H61	0.000000	0.303500	0.961000
H621	H62	0.779800	0.293300	0.991100
C511	C51	0.898100	0.391700	0.033300
H631	H63	0.845300	0.416000	0.972500
C521	C52	0.756200	0.404600	0.114800
H641	H64	0.623200	0.386300	0.093900
H651	H65	0.744900	0.455000	0.127100
C531	C53	0.053900	0.394900	0.243700
H661	H66	0.107100	0.370400	0.303400
H671	H67	0.047200	0.445100	0.258300
C541	C54	0.190400	0.382400	0.160400
H681	H68	0.324800	0.401000	0.181200
C551	C55	0.207200	0.302600	0.140100
H691	H69	0.295900	0.294500	0.088400
H701	H70	0.262000	0.278200	0.199600
C561	C56	0.108200	0.420300	0.066600
H711	H71	0.101000	0.470800	0.078900
H721	H72	0.197000	0.412700	0.014800
