data_WELTOX_clean_PM
_symmetry_space_group_name_H-M	'P1'
_cell_length_a	11.999600
_cell_length_b	21.066500
_cell_length_c	15.647700
_cell_angle_alpha	90.000000
_cell_angle_beta	109.555000
_cell_angle_gamma	90.000000
_symmetry_Int_Tables_number 1

loop_
_symmetry_equiv_pos_as_xyz
'x,y,z'

loop_
_atom_site_label
_atom_site_type_symbol
_atom_site_fract_x
_atom_site_fract_y
_atom_site_fract_z
Cu11	Cu1	0.757650	0.081810	0.164130
Br11	Br1	0.668920	0.108280	0.987130
Br21	Br2	0.727800	0.178000	0.924900
N11	N1	0.628600	0.033140	0.188900
N21	N2	0.910500	0.128300	0.183000
N31	N3	0.010500	0.095400	0.185900
N41	N4	0.051800	0.194800	0.206700
N51	N5	0.694500	0.161100	0.204500
N61	N6	0.726900	0.172000	0.297000
N71	N7	0.116300	0.251100	0.224700
N81	N8	0.881100	0.044700	0.313500
N91	N9	0.983200	0.025500	0.453500
C11	C1	0.535800	0.052100	0.207000
H11	H1	0.514200	0.094100	0.211200
C21	C2	0.937000	0.187900	0.196200
H21	H2	0.885300	0.220300	0.198200
C31	C3	0.096500	0.136300	0.200100
H31	H3	0.174200	0.127200	0.204800
C41	C4	0.679300	0.225000	0.306900
H41	H4	0.686700	0.244000	0.362200
C51	C5	0.628500	0.207600	0.162800
H51	H5	0.594900	0.211900	0.100200
C61	C6	0.884700	0.055700	0.396400
Cu21	Cu2	0.257650	0.581810	0.164130
Br31	Br3	0.168920	0.608280	0.987130
Br41	Br4	0.227800	0.678000	0.924900
N101	N10	0.128600	0.533140	0.188900
N111	N11	0.410500	0.628300	0.183000
N121	N12	0.510500	0.595400	0.185900
N131	N13	0.551800	0.694800	0.206700
N141	N14	0.194500	0.661100	0.204500
N151	N15	0.226900	0.672000	0.297000
N161	N16	0.616300	0.751100	0.224700
N171	N17	0.381100	0.544700	0.313500
N181	N18	0.483200	0.525500	0.453500
C71	C7	0.035800	0.552100	0.207000
H61	H6	0.014200	0.594100	0.211200
C81	C8	0.437000	0.687900	0.196200
H71	H7	0.385300	0.720300	0.198200
C91	C9	0.596500	0.636300	0.200100
H81	H8	0.674200	0.627200	0.204800
C101	C10	0.179300	0.725000	0.306900
H91	H9	0.186700	0.744000	0.362200
C111	C11	0.128500	0.707600	0.162800
H101	H10	0.094900	0.711900	0.100200
C121	C12	0.384700	0.555700	0.396400
Cu31	Cu3	0.242350	0.081810	0.835870
Br51	Br5	0.331080	0.108280	0.012870
Br61	Br6	0.272200	0.178000	0.075100
N191	N19	0.371400	0.033140	0.811100
N201	N20	0.089500	0.128300	0.817000
N211	N21	0.989500	0.095400	0.814100
N221	N22	0.948200	0.194800	0.793300
N231	N23	0.305500	0.161100	0.795500
N241	N24	0.273100	0.172000	0.703000
N251	N25	0.883700	0.251100	0.775300
N261	N26	0.118900	0.044700	0.686500
N271	N27	0.016800	0.025500	0.546500
C131	C13	0.464200	0.052100	0.793000
H111	H11	0.485800	0.094100	0.788800
C141	C14	0.063000	0.187900	0.803800
H121	H12	0.114700	0.220300	0.801800
C151	C15	0.903500	0.136300	0.799900
H131	H13	0.825800	0.127200	0.795200
C161	C16	0.320700	0.225000	0.693100
H141	H14	0.313300	0.244000	0.637800
C171	C17	0.371500	0.207600	0.837200
H151	H15	0.405100	0.211900	0.899800
C181	C18	0.115300	0.055700	0.603600
Cu41	Cu4	0.742350	0.581810	0.835870
Br71	Br7	0.831080	0.608280	0.012870
Br81	Br8	0.772200	0.678000	0.075100
N281	N28	0.871400	0.533140	0.811100
N291	N29	0.589500	0.628300	0.817000
N301	N30	0.489500	0.595400	0.814100
N311	N31	0.448200	0.694800	0.793300
N321	N32	0.805500	0.661100	0.795500
N331	N33	0.773100	0.672000	0.703000
N341	N34	0.383700	0.751100	0.775300
N351	N35	0.618900	0.544700	0.686500
N361	N36	0.516800	0.525500	0.546500
C191	C19	0.964200	0.552100	0.793000
H161	H16	0.985800	0.594100	0.788800
C201	C20	0.563000	0.687900	0.803800
H171	H17	0.614700	0.720300	0.801800
C211	C21	0.403500	0.636300	0.799900
H181	H18	0.325800	0.627200	0.795200
C221	C22	0.820700	0.725000	0.693100
H191	H19	0.813300	0.744000	0.637800
C231	C23	0.871500	0.707600	0.837200
H201	H20	0.905100	0.711900	0.899800
C241	C24	0.615300	0.555700	0.603600
Cu51	Cu5	0.242350	0.918190	0.835870
Br91	Br9	0.331080	0.891720	0.012870
Br101	Br10	0.272200	0.822000	0.075100
N371	N37	0.371400	0.966860	0.811100
N381	N38	0.089500	0.871700	0.817000
N391	N39	0.989500	0.904600	0.814100
N401	N40	0.948200	0.805200	0.793300
N411	N41	0.305500	0.838900	0.795500
N421	N42	0.273100	0.828000	0.703000
N431	N43	0.883700	0.748900	0.775300
N441	N44	0.118900	0.955300	0.686500
N451	N45	0.016800	0.974500	0.546500
C251	C25	0.464200	0.947900	0.793000
H211	H21	0.485800	0.905900	0.788800
C261	C26	0.063000	0.812100	0.803800
H221	H22	0.114700	0.779700	0.801800
C271	C27	0.903500	0.863700	0.799900
H231	H23	0.825800	0.872800	0.795200
C281	C28	0.320700	0.775000	0.693100
H241	H24	0.313300	0.756000	0.637800
C291	C29	0.371500	0.792400	0.837200
H251	H25	0.405100	0.788100	0.899800
C301	C30	0.115300	0.944300	0.603600
Cu61	Cu6	0.742350	0.418190	0.835870
Br111	Br11	0.831080	0.391720	0.012870
Br121	Br12	0.772200	0.322000	0.075100
N461	N46	0.871400	0.466860	0.811100
N471	N47	0.589500	0.371700	0.817000
N481	N48	0.489500	0.404600	0.814100
N491	N49	0.448200	0.305200	0.793300
N501	N50	0.805500	0.338900	0.795500
N511	N51	0.773100	0.328000	0.703000
N521	N52	0.383700	0.248900	0.775300
N531	N53	0.618900	0.455300	0.686500
N541	N54	0.516800	0.474500	0.546500
C311	C31	0.964200	0.447900	0.793000
H261	H26	0.985800	0.405900	0.788800
C321	C32	0.563000	0.312100	0.803800
H271	H27	0.614700	0.279700	0.801800
C331	C33	0.403500	0.363700	0.799900
H281	H28	0.325800	0.372800	0.795200
C341	C34	0.820700	0.275000	0.693100
H291	H29	0.813300	0.256000	0.637800
C351	C35	0.871500	0.292400	0.837200
H301	H30	0.905100	0.288100	0.899800
C361	C36	0.615300	0.444300	0.603600
Cu71	Cu7	0.757650	0.918190	0.164130
Br131	Br13	0.668920	0.891720	0.987130
Br141	Br14	0.727800	0.822000	0.924900
N551	N55	0.628600	0.966860	0.188900
N561	N56	0.910500	0.871700	0.183000
N571	N57	0.010500	0.904600	0.185900
N581	N58	0.051800	0.805200	0.206700
N591	N59	0.694500	0.838900	0.204500
N601	N60	0.726900	0.828000	0.297000
N611	N61	0.116300	0.748900	0.224700
N621	N62	0.881100	0.955300	0.313500
N631	N63	0.983200	0.974500	0.453500
C371	C37	0.535800	0.947900	0.207000
H311	H31	0.514200	0.905900	0.211200
C381	C38	0.937000	0.812100	0.196200
H321	H32	0.885300	0.779700	0.198200
C391	C39	0.096500	0.863700	0.200100
H331	H33	0.174200	0.872800	0.204800
C401	C40	0.679300	0.775000	0.306900
H341	H34	0.686700	0.756000	0.362200
C411	C41	0.628500	0.792400	0.162800
H351	H35	0.594900	0.788100	0.100200
C421	C42	0.884700	0.944300	0.396400
Cu81	Cu8	0.257650	0.418190	0.164130
Br151	Br15	0.168920	0.391720	0.987130
Br161	Br16	0.227800	0.322000	0.924900
N641	N64	0.128600	0.466860	0.188900
N651	N65	0.410500	0.371700	0.183000
N661	N66	0.510500	0.404600	0.185900
N671	N67	0.551800	0.305200	0.206700
N681	N68	0.194500	0.338900	0.204500
N691	N69	0.226900	0.328000	0.297000
N701	N70	0.616300	0.248900	0.224700
N711	N71	0.381100	0.455300	0.313500
N721	N72	0.483200	0.474500	0.453500
C431	C43	0.035800	0.447900	0.207000
H361	H36	0.014200	0.405900	0.211200
C441	C44	0.437000	0.312100	0.196200
H371	H37	0.385300	0.279700	0.198200
C451	C45	0.596500	0.363700	0.200100
H381	H38	0.674200	0.372800	0.204800
C461	C46	0.179300	0.275000	0.306900
H391	H39	0.186700	0.256000	0.362200
C471	C47	0.128500	0.292400	0.162800
H401	H40	0.094900	0.288100	0.100200
C481	C48	0.384700	0.444300	0.396400
Cu91	Cu9	0.009360	0.000000	0.179870
O11	O1	0.829600	0.000000	0.136100
H411	H41	0.810200	0.000000	0.078600
N731	N73	0.476200	0.000000	0.218800
N741	N74	0.188400	0.000000	0.222400
N751	N75	0.249300	0.000000	0.315100
N761	N76	0.372400	0.000000	0.239700
N771	N77	0.978200	0.000000	0.316100
C491	C49	0.361000	0.000000	0.323100
H421	H42	0.423500	0.000000	0.377800
C501	C50	0.261700	0.000000	0.176600
H431	H43	0.242500	0.000000	0.113900
C511	C51	0.040900	0.000000	0.402600
Cu101	Cu10	0.509360	0.500000	0.179870
O21	O2	0.329600	0.500000	0.136100
H441	H44	0.310200	0.500000	0.078600
N781	N78	0.976200	0.500000	0.218800
N791	N79	0.688400	0.500000	0.222400
N801	N80	0.749300	0.500000	0.315100
N811	N81	0.872400	0.500000	0.239700
N821	N82	0.478200	0.500000	0.316100
C521	C52	0.861000	0.500000	0.323100
H451	H45	0.923500	0.500000	0.377800
C531	C53	0.761700	0.500000	0.176600
H461	H46	0.742500	0.500000	0.113900
C541	C54	0.540900	0.500000	0.402600
Cu111	Cu11	0.990640	0.000000	0.820130
O31	O3	0.170400	0.000000	0.863900
H471	H47	0.189800	0.000000	0.921400
N831	N83	0.523800	0.000000	0.781200
N841	N84	0.811600	0.000000	0.777600
N851	N85	0.750700	0.000000	0.684900
N861	N86	0.627600	0.000000	0.760300
N871	N87	0.021800	0.000000	0.683900
C551	C55	0.639000	0.000000	0.676900
H481	H48	0.576500	0.000000	0.622200
C561	C56	0.738300	0.000000	0.823400
H491	H49	0.757500	0.000000	0.886100
C571	C57	0.959100	0.000000	0.597400
Cu121	Cu12	0.490640	0.500000	0.820130
O41	O4	0.670400	0.500000	0.863900
H501	H50	0.689800	0.500000	0.921400
N881	N88	0.023800	0.500000	0.781200
N891	N89	0.311600	0.500000	0.777600
N901	N90	0.250700	0.500000	0.684900
N911	N91	0.127600	0.500000	0.760300
N921	N92	0.521800	0.500000	0.683900
C581	C58	0.139000	0.500000	0.676900
H511	H51	0.076500	0.500000	0.622200
C591	C59	0.238300	0.500000	0.823400
H521	H52	0.257500	0.500000	0.886100
C601	C60	0.459100	0.500000	0.597400
Br171	Br17	0.000000	0.000000	0.000000
Br181	Br18	0.500000	0.500000	0.000000
