data_WEMBUN_clean_PM
_symmetry_space_group_name_H-M	'P1'
_cell_length_a	9.610300
_cell_length_b	11.531000
_cell_length_c	12.200000
_cell_angle_alpha	90.000000
_cell_angle_beta	99.030000
_cell_angle_gamma	90.000000
_symmetry_Int_Tables_number 1

loop_
_symmetry_equiv_pos_as_xyz
'x,y,z'

loop_
_atom_site_label
_atom_site_type_symbol
_atom_site_fract_x
_atom_site_fract_y
_atom_site_fract_z
Er11	Er1	0.784910	0.988480	0.667020
Er21	Er2	0.715090	0.488480	0.832980
Er31	Er3	0.215090	0.011520	0.332980
Er41	Er4	0.284910	0.511520	0.167020
C11	C1	0.799800	0.258500	0.716300
C21	C2	0.695700	0.214100	0.792200
C31	C3	0.496000	0.933900	0.501200
C41	C4	0.063000	0.000700	0.547000
C51	C5	0.700200	0.758500	0.783700
C61	C6	0.804300	0.714100	0.707800
C71	C7	0.004000	0.433900	0.998800
C81	C8	0.437000	0.500700	0.953000
C91	C9	0.200200	0.741500	0.283700
C101	C10	0.304300	0.785900	0.207800
C111	C11	0.504000	0.066100	0.498800
C121	C12	0.937000	0.999300	0.453000
C131	C13	0.299800	0.241500	0.216300
C141	C14	0.195700	0.285900	0.292200
C151	C15	0.996000	0.566100	0.001200
C161	C16	0.563000	0.499300	0.047000
O11	O1	0.863800	0.182900	0.670200
O21	O2	0.811400	0.365600	0.707900
O31	O3	0.677200	0.107000	0.794800
O41	O4	0.637700	0.290800	0.843300
O51	O5	0.588200	0.882300	0.568000
O61	O6	0.397200	0.887700	0.437500
O71	O7	0.033400	0.992200	0.644200
O81	O8	0.182200	0.010800	0.521600
O91	O9	0.636200	0.682900	0.829800
O101	O10	0.688600	0.865600	0.792100
O111	O11	0.822800	0.607000	0.705200
O121	O12	0.862300	0.790800	0.656700
O131	O13	0.911800	0.382300	0.932000
O141	O14	0.102800	0.387700	0.062500
O151	O15	0.466600	0.492200	0.855800
O161	O16	0.317800	0.510800	0.978400
O171	O17	0.136200	0.817100	0.329800
O181	O18	0.188600	0.634400	0.292100
O191	O19	0.322800	0.893000	0.205200
O201	O20	0.362300	0.709200	0.156700
O211	O21	0.411800	0.117700	0.432000
O221	O22	0.602800	0.112300	0.562500
O231	O23	0.966600	0.007800	0.355800
O241	O24	0.817800	0.989200	0.478400
O251	O25	0.363800	0.317100	0.170200
O261	O26	0.311400	0.134400	0.207900
O271	O27	0.177200	0.393000	0.294800
O281	O28	0.137700	0.209200	0.343300
O291	O29	0.088200	0.617700	0.068000
O301	O30	0.897200	0.612300	0.937500
O311	O31	0.533400	0.507800	0.144200
O321	O32	0.682200	0.489200	0.021600
