data_WEMCAU_clean_PM
_symmetry_space_group_name_H-M	'P1'
_cell_length_a	9.591500
_cell_length_b	11.452000
_cell_length_c	12.178000
_cell_angle_alpha	90.000000
_cell_angle_beta	98.960000
_cell_angle_gamma	90.000000
_symmetry_Int_Tables_number 1

loop_
_symmetry_equiv_pos_as_xyz
'x,y,z'

loop_
_atom_site_label
_atom_site_type_symbol
_atom_site_fract_x
_atom_site_fract_y
_atom_site_fract_z
Yb11	Yb1	0.784260	0.990160	0.166490
Yb21	Yb2	0.715740	0.490160	0.333510
Yb31	Yb3	0.215740	0.009840	0.833510
Yb41	Yb4	0.284260	0.509840	0.666490
C11	C1	0.804900	0.716400	0.208700
C21	C2	0.700000	0.760700	0.284000
C31	C3	0.935400	0.999300	0.953300
C41	C4	0.502900	0.066600	0.998700
C51	C5	0.695100	0.216400	0.291300
C61	C6	0.800000	0.260700	0.216000
C71	C7	0.564600	0.499300	0.546700
C81	C8	0.997100	0.566600	0.501300
C91	C9	0.195100	0.283600	0.791300
C101	C10	0.300000	0.239300	0.716000
C111	C11	0.064600	0.000700	0.046700
C121	C12	0.497100	0.933400	0.001300
C131	C13	0.304900	0.783600	0.708700
C141	C14	0.200000	0.739300	0.784000
C151	C15	0.435400	0.500700	0.453300
C161	C16	0.002900	0.433400	0.498700
O11	O1	0.862800	0.793500	0.157800
O21	O2	0.824700	0.608300	0.208000
O31	O3	0.687000	0.868400	0.291000
O41	O4	0.637000	0.684100	0.331200
O51	O5	0.817500	0.990200	0.979100
O61	O6	0.967300	0.006000	0.855300
O71	O7	0.602200	0.113700	0.061500
O81	O8	0.410200	0.117800	0.931400
O91	O9	0.637200	0.293500	0.342200
O101	O10	0.675300	0.108300	0.292000
O111	O11	0.813000	0.368400	0.209000
O121	O12	0.863000	0.184100	0.168800
O131	O13	0.682500	0.490200	0.520900
O141	O14	0.532700	0.506000	0.644700
O151	O15	0.897800	0.613700	0.438500
O161	O16	0.089800	0.617800	0.568600
O171	O17	0.137200	0.206500	0.842200
O181	O18	0.175300	0.391700	0.792000
O191	O19	0.313000	0.131600	0.709000
O201	O20	0.363000	0.315900	0.668800
O211	O21	0.182500	0.009800	0.020900
O221	O22	0.032700	0.994000	0.144700
O231	O23	0.397800	0.886300	0.938500
O241	O24	0.589800	0.882200	0.068600
O251	O25	0.362800	0.706500	0.657800
O261	O26	0.324700	0.891700	0.708000
O271	O27	0.187000	0.631600	0.791000
O281	O28	0.137000	0.815900	0.831200
O291	O29	0.317500	0.509800	0.479100
O301	O30	0.467300	0.494000	0.355300
O311	O31	0.102200	0.386300	0.561500
O321	O32	0.910200	0.382200	0.431400
