data_WEMFIF_clean_PM
_symmetry_space_group_name_H-M	'P1'
_cell_length_a	9.631500
_cell_length_b	11.613000
_cell_length_c	12.217000
_cell_angle_alpha	90.000000
_cell_angle_beta	99.130000
_cell_angle_gamma	90.000000
_symmetry_Int_Tables_number 1

loop_
_symmetry_equiv_pos_as_xyz
'x,y,z'

loop_
_atom_site_label
_atom_site_type_symbol
_atom_site_fract_x
_atom_site_fract_y
_atom_site_fract_z
Dy11	Dy1	0.785300	0.486890	0.167600
Dy21	Dy2	0.714700	0.986890	0.332400
Dy31	Dy3	0.214700	0.513110	0.832400
Dy41	Dy4	0.285300	0.013120	0.667600
C11	C1	0.700400	0.257000	0.283000
C21	C2	0.802900	0.212900	0.206900
C31	C3	0.504400	0.566400	0.998900
C41	C4	0.063000	0.499900	0.047800
C51	C5	0.799600	0.757000	0.217000
C61	C6	0.697100	0.712900	0.293100
C71	C7	0.995600	0.066400	0.501100
C81	C8	0.437000	0.999900	0.452200
C91	C9	0.299600	0.743000	0.717000
C101	C10	0.197100	0.787100	0.793100
C111	C11	0.495600	0.433600	0.001100
C121	C12	0.937000	0.500100	0.952200
C131	C13	0.200400	0.243000	0.783000
C141	C14	0.302900	0.287100	0.706900
C151	C15	0.004400	0.933600	0.498900
C161	C16	0.563000	0.000100	0.547800
O11	O1	0.690100	0.363200	0.292800
O21	O2	0.635200	0.181800	0.328800
O31	O3	0.861300	0.287800	0.156000
O41	O4	0.820300	0.106200	0.203600
O51	O5	0.602700	0.611500	0.064000
O61	O6	0.413200	0.618000	0.932800
O71	O7	0.032800	0.489700	0.143400
O81	O8	0.182200	0.511600	0.022300
O91	O9	0.809900	0.863200	0.207200
O101	O10	0.864800	0.681800	0.171200
O111	O11	0.638700	0.787800	0.344000
O121	O12	0.679700	0.606200	0.296400
O131	O13	0.897300	0.111500	0.436000
O141	O14	0.086800	0.118000	0.567200
O151	O15	0.467200	0.989700	0.356600
O161	O16	0.317800	0.011600	0.477700
O171	O17	0.309900	0.636800	0.707200
O181	O18	0.364800	0.818200	0.671200
O191	O19	0.138700	0.712200	0.844000
O201	O20	0.179700	0.893800	0.796400
O211	O21	0.397300	0.388500	0.936000
O221	O22	0.586800	0.382000	0.067200
O231	O23	0.967200	0.510300	0.856600
O241	O24	0.817800	0.488400	0.977700
O251	O25	0.190100	0.136800	0.792800
O261	O26	0.135200	0.318200	0.828800
O271	O27	0.361300	0.212200	0.656000
O281	O28	0.320300	0.393800	0.703600
O291	O29	0.102700	0.888500	0.564000
O301	O30	0.913200	0.882000	0.432800
O311	O31	0.532800	0.010300	0.643400
O321	O32	0.682200	0.988400	0.522300
