data_WEMHED_clean_PM
_symmetry_space_group_name_H-M	'P1'
_cell_length_a	12.253800
_cell_length_b	12.253800
_cell_length_c	23.077500
_cell_angle_alpha	86.899100
_cell_angle_beta	86.899100
_cell_angle_gamma	66.511500
_symmetry_Int_Tables_number 1

loop_
_symmetry_equiv_pos_as_xyz
'x,y,z'

loop_
_atom_site_label
_atom_site_type_symbol
_atom_site_fract_x
_atom_site_fract_y
_atom_site_fract_z
Cd11	Cd1	0.475310	0.946750	0.267830
Cd21	Cd2	0.053250	0.524690	0.232170
Cd31	Cd3	0.524690	0.053250	0.732170
Cd41	Cd4	0.946750	0.475310	0.767830
H11	H1	0.460600	0.643600	0.141100
H21	H2	0.500400	0.545400	0.055600
H31	H3	0.693700	0.455700	0.018300
H41	H4	0.848400	0.467000	0.067500
H51	H5	0.345300	0.864700	0.157800
H61	H6	0.244100	0.184100	0.208000
H71	H7	0.062900	0.286500	0.139500
H81	H8	0.141800	0.249600	0.082400
H91	H9	0.876900	0.302900	0.190500
H101	H10	0.843300	0.192900	0.202600
H111	H11	0.977400	0.175200	0.198800
H121	H12	0.108100	0.251100	0.978500
H131	H13	0.188400	0.134400	0.012200
H141	H14	0.125500	0.126500	0.956100
H151	H15	0.651700	0.236500	0.998200
H161	H16	0.735800	0.113200	0.973500
H171	H17	0.674200	0.119000	0.035300
H181	H18	0.626100	0.257900	0.101800
H191	H19	0.684000	0.278400	0.156800
H201	H20	0.733900	0.857500	0.181500
H211	H21	0.537900	0.185700	0.210600
H221	H22	0.882700	0.075700	0.934400
H231	H23	0.011700	0.073300	0.929900
H241	H24	0.034200	0.228000	0.854400
H251	H25	0.706700	0.438100	0.839800
H261	H26	0.356400	0.539400	0.358900
H271	H27	0.454600	0.499600	0.444400
H281	H28	0.544300	0.306300	0.481700
H291	H29	0.533000	0.151600	0.432500
H301	H30	0.135300	0.654700	0.342200
H311	H31	0.815900	0.755900	0.292000
H321	H32	0.713500	0.937100	0.360500
H331	H33	0.750400	0.858200	0.417600
H341	H34	0.697100	0.123100	0.309500
H351	H35	0.807100	0.156700	0.297400
H361	H36	0.824800	0.022600	0.301200
H371	H37	0.748900	0.891900	0.521500
H381	H38	0.865600	0.811600	0.487800
H391	H39	0.873500	0.874500	0.543900
H401	H40	0.763500	0.348300	0.501800
H411	H41	0.886800	0.264200	0.526500
H421	H42	0.881000	0.325800	0.464700
H431	H43	0.742100	0.373900	0.398200
H441	H44	0.721600	0.316000	0.343200
H451	H45	0.142500	0.266100	0.318500
H461	H46	0.814300	0.462100	0.289400
H471	H47	0.924300	0.117300	0.565600
H481	H48	0.926700	0.988300	0.570100
H491	H49	0.772000	0.965800	0.645600
H501	H50	0.561900	0.293300	0.660200
H511	H51	0.539400	0.356400	0.858900
H521	H52	0.499600	0.454600	0.944400
H531	H53	0.306300	0.544300	0.981700
H541	H54	0.151600	0.533000	0.932500
H551	H55	0.654700	0.135300	0.842200
H561	H56	0.755900	0.815900	0.792000
H571	H57	0.937100	0.713500	0.860500
H581	H58	0.858200	0.750400	0.917600
H591	H59	0.123100	0.697100	0.809500
H601	H60	0.156700	0.807100	0.797400
H611	H61	0.022600	0.824800	0.801200
H621	H62	0.891900	0.748900	0.021500
H631	H63	0.811600	0.865600	0.987800
H641	H64	0.874500	0.873500	0.043900
H651	H65	0.348300	0.763500	0.001800
H661	H66	0.264200	0.886800	0.026500
H671	H67	0.325800	0.881000	0.964700
H681	H68	0.373900	0.742100	0.898200
H691	H69	0.316000	0.721600	0.843200
H701	H70	0.266100	0.142500	0.818500
H711	H71	0.462100	0.814300	0.789400
H721	H72	0.117300	0.924300	0.065600
H731	H73	0.988300	0.926700	0.070100
H741	H74	0.965800	0.772000	0.145600
H751	H75	0.293300	0.561900	0.160200
H761	H76	0.643600	0.460600	0.641100
H771	H77	0.545400	0.500400	0.555600
H781	H78	0.455700	0.693700	0.518300
H791	H79	0.467000	0.848400	0.567500
H801	H80	0.864700	0.345300	0.657800
H811	H81	0.184100	0.244100	0.708000
H821	H82	0.286500	0.062900	0.639500
H831	H83	0.249600	0.141800	0.582400
H841	H84	0.302900	0.876900	0.690500
H851	H85	0.192900	0.843300	0.702600
H861	H86	0.175200	0.977400	0.698800
H871	H87	0.251100	0.108100	0.478500
H881	H88	0.134400	0.188400	0.512200
H891	H89	0.126500	0.125500	0.456100
H901	H90	0.236500	0.651700	0.498200
H911	H91	0.113200	0.735800	0.473500
H921	H92	0.119000	0.674200	0.535300
H931	H93	0.257900	0.626100	0.601800
H941	H94	0.278400	0.684000	0.656800
H951	H95	0.857500	0.733900	0.681500
H961	H96	0.185700	0.537900	0.710600
H971	H97	0.075700	0.882700	0.434400
H981	H98	0.073300	0.011700	0.429900
H991	H99	0.228000	0.034200	0.354400
H1001	H100	0.438100	0.706700	0.339800
C11	C1	0.600500	0.675500	0.214400
C21	C2	0.632100	0.613100	0.157600
C31	C3	0.538700	0.607700	0.126700
C41	C4	0.562600	0.549200	0.075500
C51	C5	0.678400	0.495600	0.052900
C61	C6	0.770900	0.502500	0.082600
C71	C7	0.750000	0.561600	0.134800
C81	C8	0.852700	0.564700	0.166600
C91	C9	0.304200	0.946600	0.160300
C101	C10	0.251300	0.117100	0.188400
C111	C11	0.099700	0.222500	0.112700
C121	C12	0.002700	0.196900	0.085600
C131	C13	0.904100	0.202900	0.119800
C141	C14	0.900000	0.220000	0.183600
C151	C15	0.807700	0.193500	0.093400
C161	C16	0.814600	0.168800	0.034800
C171	C17	0.917600	0.156600	0.001200
C181	C18	0.010300	0.174500	0.027000
C191	C19	0.117900	0.171300	0.990100
C201	C20	0.709500	0.158500	0.008000
C211	C21	0.691300	0.220900	0.128000
C221	C22	0.703300	0.940300	0.179900
C231	C23	0.596500	0.116900	0.195800
C241	C24	0.929000	0.122800	0.939100
C251	C25	0.951900	0.263300	0.859500
C261	C26	0.775100	0.375300	0.852300
C271	C27	0.324500	0.399500	0.285600
C281	C28	0.386900	0.367900	0.342400
C291	C29	0.392300	0.461300	0.373300
C301	C30	0.450800	0.437400	0.424500
C311	C31	0.504400	0.321600	0.447100
C321	C32	0.497500	0.229100	0.417400
C331	C33	0.438400	0.250000	0.365200
C341	C34	0.435300	0.147300	0.333400
C351	C35	0.053400	0.695800	0.339700
C361	C36	0.882900	0.748700	0.311600
C371	C37	0.777500	0.900300	0.387300
C381	C38	0.803100	0.997300	0.414400
C391	C39	0.797100	0.095900	0.380200
C401	C40	0.780000	0.100000	0.316400
C411	C41	0.806500	0.192300	0.406600
C421	C42	0.831200	0.185400	0.465200
C431	C43	0.843400	0.082400	0.498800
C441	C44	0.825500	0.989700	0.473000
C451	C45	0.828700	0.882100	0.509900
C461	C46	0.841500	0.290500	0.492000
C471	C47	0.779100	0.308700	0.372000
C481	C48	0.059700	0.296700	0.320100
C491	C49	0.883100	0.403500	0.304200
C501	C50	0.877200	0.071000	0.560900
C511	C51	0.736700	0.048100	0.640500
C521	C52	0.624700	0.224900	0.647700
C531	C53	0.399500	0.324500	0.785600
C541	C54	0.367900	0.386900	0.842400
C551	C55	0.461300	0.392300	0.873300
C561	C56	0.437400	0.450800	0.924500
C571	C57	0.321600	0.504400	0.947100
C581	C58	0.229100	0.497500	0.917400
C591	C59	0.250000	0.438400	0.865200
C601	C60	0.147300	0.435300	0.833400
C611	C61	0.695800	0.053400	0.839700
C621	C62	0.748700	0.882900	0.811600
C631	C63	0.900300	0.777500	0.887300
C641	C64	0.997300	0.803100	0.914400
C651	C65	0.095900	0.797100	0.880200
C661	C66	0.100000	0.780000	0.816400
C671	C67	0.192300	0.806500	0.906600
C681	C68	0.185400	0.831200	0.965200
C691	C69	0.082400	0.843400	0.998800
C701	C70	0.989700	0.825500	0.973000
C711	C71	0.882100	0.828700	0.009900
C721	C72	0.290500	0.841500	0.992000
C731	C73	0.308700	0.779100	0.872000
C741	C74	0.296700	0.059700	0.820100
C751	C75	0.403500	0.883100	0.804200
C761	C76	0.071000	0.877200	0.060900
C771	C77	0.048100	0.736700	0.140500
C781	C78	0.224900	0.624700	0.147700
C791	C79	0.675500	0.600500	0.714400
C801	C80	0.613100	0.632100	0.657600
C811	C81	0.607700	0.538700	0.626700
C821	C82	0.549200	0.562600	0.575500
C831	C83	0.495600	0.678400	0.552900
C841	C84	0.502500	0.770900	0.582600
C851	C85	0.561600	0.750000	0.634800
C861	C86	0.564700	0.852700	0.666600
C871	C87	0.946600	0.304200	0.660300
C881	C88	0.117100	0.251300	0.688400
C891	C89	0.222500	0.099700	0.612700
C901	C90	0.196900	0.002700	0.585600
C911	C91	0.202900	0.904100	0.619800
C921	C92	0.220000	0.900000	0.683600
C931	C93	0.193500	0.807700	0.593400
C941	C94	0.168800	0.814600	0.534800
C951	C95	0.156600	0.917600	0.501200
C961	C96	0.174500	0.010300	0.527000
C971	C97	0.171300	0.117900	0.490100
C981	C98	0.158500	0.709500	0.508000
C991	C99	0.220900	0.691300	0.628000
C1001	C100	0.940300	0.703300	0.679900
C1011	C101	0.116900	0.596500	0.695800
C1021	C102	0.122800	0.929000	0.439100
C1031	C103	0.263300	0.951900	0.359500
C1041	C104	0.375300	0.775100	0.352300
N11	N1	0.327100	0.009300	0.201200
N21	N2	0.220800	0.008600	0.124800
N31	N3	0.186000	0.119600	0.144000
N41	N4	0.606100	0.008500	0.211100
N51	N5	0.751100	0.002500	0.146900
N61	N6	0.678000	0.116600	0.157900
N71	N7	0.889500	0.224300	0.898000
N81	N8	0.772300	0.296500	0.894000
N91	N9	0.883500	0.356900	0.830000
N101	N10	0.990700	0.672900	0.298800
N111	N11	0.991400	0.779200	0.375200
N121	N12	0.880400	0.814000	0.356000
N131	N13	0.991500	0.393900	0.288900
N141	N14	0.997500	0.248900	0.353100
N151	N15	0.883400	0.322000	0.342100
N161	N16	0.775700	0.110500	0.602000
N171	N17	0.703500	0.227700	0.606000
N181	N18	0.643100	0.116500	0.670000
N191	N19	0.672900	0.990700	0.798800
N201	N20	0.779200	0.991400	0.875200
N211	N21	0.814000	0.880400	0.856000
N221	N22	0.393900	0.991500	0.788900
N231	N23	0.248900	0.997500	0.853100
N241	N24	0.322000	0.883400	0.842100
N251	N25	0.110500	0.775700	0.102000
N261	N26	0.227700	0.703500	0.106000
N271	N27	0.116500	0.643100	0.170000
N281	N28	0.009300	0.327100	0.701200
N291	N29	0.008600	0.220800	0.624800
N301	N30	0.119600	0.186000	0.644000
N311	N31	0.008500	0.606100	0.711100
N321	N32	0.002500	0.751100	0.646900
N331	N33	0.116600	0.678000	0.657900
N341	N34	0.224300	0.889500	0.398000
N351	N35	0.296500	0.772300	0.394000
N361	N36	0.356900	0.883500	0.330000
O11	O1	0.553900	0.786900	0.209600
O21	O2	0.616400	0.613000	0.260800
O31	O3	0.834700	0.637100	0.205100
O41	O4	0.955900	0.490100	0.153700
O51	O5	0.213100	0.446100	0.290400
O61	O6	0.387000	0.383600	0.239200
O71	O7	0.362900	0.165300	0.294900
O81	O8	0.509900	0.044100	0.346300
O91	O9	0.446100	0.213100	0.790400
O101	O10	0.383600	0.387000	0.739200
O111	O11	0.165300	0.362900	0.794900
O121	O12	0.044100	0.509900	0.846300
O131	O13	0.786900	0.553900	0.709600
O141	O14	0.613000	0.616400	0.760800
O151	O15	0.637100	0.834700	0.705100
O161	O16	0.490100	0.955900	0.653700
