data_WENDIE_clean_PM
_symmetry_space_group_name_H-M	'P1'
_cell_length_a	7.933200
_cell_length_b	9.901000
_cell_length_c	17.216300
_cell_angle_alpha	104.070000
_cell_angle_beta	90.000000
_cell_angle_gamma	113.617000
_symmetry_Int_Tables_number 1

loop_
_symmetry_equiv_pos_as_xyz
'x,y,z'

loop_
_atom_site_label
_atom_site_type_symbol
_atom_site_fract_x
_atom_site_fract_y
_atom_site_fract_z
Zn11	Zn1	0.186850	0.832680	0.755720
Zn21	Zn2	0.333710	0.500920	0.756600
Zn31	Zn3	0.354170	0.167320	0.244280
Zn41	Zn4	0.832790	0.499080	0.243400
H11	H1	0.876700	0.786200	0.606300
H21	H2	0.824900	0.685000	0.467400
H31	H3	0.477900	0.282200	0.495000
H41	H4	0.542500	0.372800	0.633500
H51	H5	0.146500	0.066600	0.897200
H61	H6	0.246400	0.144800	0.032500
H71	H7	0.687800	0.496400	0.998200
H81	H8	0.582400	0.422000	0.863900
H91	H9	0.090500	0.213800	0.393700
H101	H10	0.139900	0.315000	0.532600
H111	H11	0.195700	0.717800	0.505000
H121	H12	0.169700	0.627200	0.366500
H131	H13	0.079900	0.933400	0.102800
H141	H14	0.101600	0.855200	0.967500
H151	H15	0.191400	0.503600	0.001800
H161	H16	0.160400	0.578000	0.136100
C11	C1	0.741000	0.659200	0.721600
C21	C2	0.714500	0.592200	0.634500
C31	C3	0.798800	0.683800	0.584400
C41	C4	0.767600	0.623200	0.501100
C51	C5	0.652100	0.472000	0.468800
C61	C6	0.562900	0.382200	0.517800
C71	C7	0.596600	0.437200	0.600600
C81	C8	0.607200	0.406400	0.376600
C91	C9	0.283700	0.187400	0.779400
C101	C10	0.353100	0.242200	0.867300
C111	C11	0.254000	0.154600	0.917700
C121	C12	0.317000	0.199600	0.998300
C131	C13	0.477400	0.320200	0.028900
C141	C14	0.579100	0.409600	0.977800
C151	C15	0.514300	0.365800	0.898000
C161	C16	0.554100	0.361800	0.116900
C171	C17	0.081800	0.340800	0.278400
C181	C18	0.122300	0.407800	0.365500
C191	C19	0.115000	0.316200	0.415600
C201	C20	0.144400	0.376800	0.498900
C211	C21	0.180100	0.528000	0.531200
C221	C22	0.180700	0.617800	0.482200
C231	C23	0.159400	0.562800	0.399400
C241	C24	0.200800	0.593600	0.623400
C251	C25	0.096300	0.812600	0.220600
C261	C26	0.110900	0.757800	0.132700
C271	C27	0.099400	0.845400	0.082300
C281	C28	0.117400	0.800400	0.001700
C291	C29	0.157200	0.679800	0.971100
C301	C30	0.169500	0.590400	0.022200
C311	C31	0.148500	0.634200	0.102000
C321	C32	0.192300	0.638200	0.883100
N11	N1	0.604600	0.634400	0.769400
N21	N2	0.681100	0.724000	0.844300
N31	N3	0.857500	0.800000	0.842200
N41	N4	0.897500	0.759600	0.765100
N51	N5	0.282900	0.277400	0.734400
N61	N6	0.199400	0.179400	0.660400
N71	N7	0.152900	0.040600	0.662100
N81	N8	0.208600	0.040000	0.738400
N91	N9	0.970200	0.365600	0.230600
N101	N10	0.957100	0.276000	0.155700
N111	N11	0.057500	0.200000	0.157800
N121	N12	0.137900	0.240400	0.234900
N131	N13	0.005500	0.722600	0.265600
N141	N14	0.020000	0.820600	0.339600
N151	N15	0.112300	0.959400	0.337900
N161	N16	0.168600	0.960000	0.261600
O11	O1	0.490700	0.280800	0.351600
O21	O2	0.700800	0.497200	0.336200
O31	O3	0.464500	0.272200	0.154700
O41	O4	0.702300	0.469200	0.141100
O51	O5	0.209900	0.719200	0.648400
O61	O6	0.203600	0.502800	0.663800
O71	O7	0.192300	0.727800	0.845300
O81	O8	0.233100	0.530800	0.858900
