data_WERKUZ_clean_PM
_symmetry_space_group_name_H-M	'P1'
_cell_length_a	4.733000
_cell_length_b	17.305000
_cell_length_c	19.243000
_cell_angle_alpha	90.000000
_cell_angle_beta	90.000000
_cell_angle_gamma	90.000000
_symmetry_Int_Tables_number 1

loop_
_symmetry_equiv_pos_as_xyz
'x,y,z'

loop_
_atom_site_label
_atom_site_type_symbol
_atom_site_fract_x
_atom_site_fract_y
_atom_site_fract_z
Na11	Na1	0.969100	0.676100	0.549800
Na21	Na2	0.530900	0.323900	0.049800
Na31	Na3	0.030900	0.176100	0.950200
Na41	Na4	0.469100	0.823900	0.450200
P11	P1	0.992700	0.447570	0.101620
P21	P2	0.507300	0.552430	0.601620
P31	P3	0.007300	0.947570	0.398380
P41	P4	0.492700	0.052430	0.898380
H11	H1	0.770000	0.790000	0.233000
H21	H2	0.770000	0.810000	0.311000
H31	H3	0.080000	0.606000	0.228000
H41	H4	0.760000	0.592000	0.395000
H51	H5	0.220000	0.514000	0.413000
H61	H6	0.770000	0.507000	0.486000
H71	H7	0.210000	0.478000	0.297000
H81	H8	0.010000	0.352000	0.390000
H91	H9	0.630000	0.434000	0.319000
H101	H10	0.560000	0.461000	0.203000
H111	H11	0.790000	0.376000	0.220000
H121	H12	0.730000	0.210000	0.733000
H131	H13	0.730000	0.190000	0.811000
H141	H14	0.420000	0.394000	0.728000
H151	H15	0.740000	0.408000	0.895000
H161	H16	0.280000	0.486000	0.913000
H171	H17	0.730000	0.493000	0.986000
H181	H18	0.290000	0.522000	0.797000
H191	H19	0.490000	0.648000	0.890000
H201	H20	0.870000	0.566000	0.819000
H211	H21	0.940000	0.539000	0.703000
H221	H22	0.710000	0.624000	0.720000
H231	H23	0.230000	0.290000	0.267000
H241	H24	0.230000	0.310000	0.189000
H251	H25	0.920000	0.106000	0.272000
H261	H26	0.240000	0.092000	0.105000
H271	H27	0.780000	0.014000	0.087000
H281	H28	0.230000	0.007000	0.014000
H291	H29	0.790000	0.978000	0.203000
H301	H30	0.990000	0.852000	0.110000
H311	H31	0.370000	0.934000	0.181000
H321	H32	0.440000	0.961000	0.297000
H331	H33	0.210000	0.876000	0.280000
H341	H34	0.270000	0.710000	0.767000
H351	H35	0.270000	0.690000	0.689000
H361	H36	0.580000	0.894000	0.772000
H371	H37	0.260000	0.908000	0.605000
H381	H38	0.720000	0.986000	0.587000
H391	H39	0.270000	0.993000	0.514000
H401	H40	0.710000	0.022000	0.703000
H411	H41	0.510000	0.148000	0.610000
H421	H42	0.130000	0.066000	0.681000
H431	H43	0.060000	0.039000	0.797000
H441	H44	0.290000	0.124000	0.780000
C11	C1	0.192700	0.683000	0.379000
C21	C2	0.477500	0.734800	0.291700
C31	C3	0.353600	0.685400	0.241600
C41	C4	0.153000	0.634600	0.262800
C51	C5	0.869800	0.574600	0.358400
C61	C6	0.017700	0.505600	0.392400
C71	C7	0.048500	0.451900	0.330100
C81	C8	0.763000	0.462500	0.295500
C91	C9	0.738700	0.440000	0.219900
C101	C10	0.307300	0.317000	0.879000
C111	C11	0.022500	0.265200	0.791700
C121	C12	0.146400	0.314600	0.741600
C131	C13	0.347000	0.365400	0.762800
C141	C14	0.630200	0.425400	0.858400
C151	C15	0.482300	0.494400	0.892400
C161	C16	0.451500	0.548100	0.830100
C171	C17	0.737000	0.537500	0.795500
C181	C18	0.761300	0.560000	0.719900
C191	C19	0.807300	0.183000	0.121000
C201	C20	0.522500	0.234800	0.208300
C211	C21	0.646400	0.185400	0.258400
C221	C22	0.847000	0.134600	0.237200
C231	C23	0.130200	0.074600	0.141600
C241	C24	0.982300	0.005600	0.107600
C251	C25	0.951500	0.951900	0.169900
C261	C26	0.237000	0.962500	0.204500
C271	C27	0.261300	0.940000	0.280100
C281	C28	0.692700	0.817000	0.621000
C291	C29	0.977500	0.765200	0.708300
C301	C30	0.853600	0.814600	0.758400
C311	C31	0.653000	0.865400	0.737200
C321	C32	0.369800	0.925400	0.641600
C331	C33	0.517700	0.994400	0.607600
C341	C34	0.548500	0.048100	0.669900
C351	C35	0.263000	0.037500	0.704500
C361	C36	0.238700	0.060000	0.780100
Br11	Br1	0.476500	0.686640	0.148700
Br21	Br2	0.023500	0.313360	0.648700
Br31	Br3	0.523500	0.186640	0.351300
Br41	Br4	0.976500	0.813360	0.851300
N11	N1	0.077500	0.632100	0.331000
N21	N2	0.395600	0.733100	0.357900
N31	N3	0.688200	0.784100	0.275000
N41	N4	0.422500	0.367900	0.831000
N51	N5	0.104400	0.266900	0.857900
N61	N6	0.811800	0.215900	0.775000
N71	N7	0.922500	0.132100	0.169000
N81	N8	0.604400	0.233100	0.142100
N91	N9	0.311800	0.284100	0.225000
N101	N10	0.577500	0.867900	0.669000
N111	N11	0.895600	0.766900	0.642100
N121	N12	0.188200	0.715900	0.725000
O11	O1	0.113800	0.680800	0.440200
O21	O2	0.829900	0.469100	0.439600
O31	O3	0.110300	0.373800	0.344500
O41	O4	0.707700	0.544900	0.303100
O51	O5	0.949200	0.478900	0.179100
O61	O6	0.716200	0.453100	0.063100
O71	O7	0.118000	0.368800	0.104200
O81	O8	0.204500	0.509100	0.071900
O91	O9	0.386200	0.319200	0.940200
O101	O10	0.670100	0.530900	0.939600
O111	O11	0.389700	0.626200	0.844500
O121	O12	0.792300	0.455100	0.803100
O131	O13	0.550800	0.521100	0.679100
O141	O14	0.783800	0.546900	0.563100
O151	O15	0.382000	0.631200	0.604200
O161	O16	0.295500	0.490900	0.571900
O171	O17	0.886200	0.180800	0.059800
O181	O18	0.170100	0.969100	0.060400
O191	O19	0.889700	0.873800	0.155500
O201	O20	0.292300	0.044900	0.196900
O211	O21	0.050800	0.978900	0.320900
O221	O22	0.283800	0.953100	0.436900
O231	O23	0.882000	0.868800	0.395800
O241	O24	0.795500	0.009100	0.428100
O251	O25	0.613800	0.819200	0.559800
O261	O26	0.329900	0.030900	0.560400
O271	O27	0.610300	0.126200	0.655500
O281	O28	0.207700	0.955100	0.696900
O291	O29	0.449200	0.021100	0.820900
O301	O30	0.216200	0.046900	0.936900
O311	O31	0.618000	0.131200	0.895800
O321	O32	0.704500	0.990900	0.928100
