data_WESNIS_clean_PM
_symmetry_space_group_name_H-M	'P1'
_cell_length_a	10.081200
_cell_length_b	10.081200
_cell_length_c	6.199000
_cell_angle_alpha	90.000000
_cell_angle_beta	90.000000
_cell_angle_gamma	90.000000
_symmetry_Int_Tables_number 1

loop_
_symmetry_equiv_pos_as_xyz
'x,y,z'

loop_
_atom_site_label
_atom_site_type_symbol
_atom_site_fract_x
_atom_site_fract_y
_atom_site_fract_z
C11	C1	0.003100	0.093800	0.649300
H11	H1	0.001800	0.157900	0.757000
C21	C2	0.496900	0.406200	0.649300
H21	H2	0.498200	0.342100	0.757000
C31	C3	0.406200	0.003100	0.649300
H31	H3	0.342100	0.001800	0.757000
C41	C4	0.093800	0.496900	0.649300
H41	H4	0.157900	0.498200	0.757000
C51	C5	0.496900	0.093800	0.350700
H51	H5	0.498200	0.157900	0.243000
C61	C6	0.003100	0.406200	0.350700
H61	H6	0.001800	0.342100	0.243000
C71	C7	0.093800	0.003100	0.350700
H71	H7	0.157900	0.001800	0.243000
C81	C8	0.406200	0.496900	0.350700
H81	H8	0.342100	0.498200	0.243000
C91	C9	0.996900	0.906200	0.350700
H91	H9	0.998200	0.842100	0.243000
C101	C10	0.503100	0.593800	0.350700
H101	H10	0.501800	0.657900	0.243000
C111	C11	0.593800	0.996900	0.350700
H111	H11	0.657900	0.998200	0.243000
C121	C12	0.906200	0.503100	0.350700
H121	H12	0.842100	0.501800	0.243000
C131	C13	0.503100	0.906200	0.649300
H131	H13	0.501800	0.842100	0.757000
C141	C14	0.996900	0.593800	0.649300
H141	H14	0.998200	0.657900	0.757000
C151	C15	0.906200	0.996900	0.649300
H151	H15	0.842100	0.998200	0.757000
C161	C16	0.593800	0.503100	0.649300
H161	H16	0.657900	0.501800	0.757000
Co11	Co1	0.250000	0.250000	0.500000
Co21	Co2	0.750000	0.750000	0.500000
N11	N1	0.098500	0.098500	0.500000
N21	N2	0.401500	0.401500	0.500000
N31	N3	0.401500	0.098500	0.500000
N41	N4	0.098500	0.401500	0.500000
N51	N5	0.901500	0.901500	0.500000
N61	N6	0.598500	0.598500	0.500000
N71	N7	0.598500	0.901500	0.500000
N81	N8	0.901500	0.598500	0.500000
O11	O1	0.250000	0.250000	0.166500
O21	O2	0.250000	0.250000	0.833500
O31	O3	0.750000	0.750000	0.833500
O41	O4	0.750000	0.750000	0.166500
N91	N9	0.250000	0.250000	0.000000
N101	N10	0.750000	0.750000	0.000000
