data_WESYAV_clean_PM
_symmetry_space_group_name_H-M	'P1'
_cell_length_a	6.787500
_cell_length_b	10.561500
_cell_length_c	14.211800
_cell_angle_alpha	90.000000
_cell_angle_beta	97.567000
_cell_angle_gamma	90.000000
_symmetry_Int_Tables_number 1

loop_
_symmetry_equiv_pos_as_xyz
'x,y,z'

loop_
_atom_site_label
_atom_site_type_symbol
_atom_site_fract_x
_atom_site_fract_y
_atom_site_fract_z
O11	O1	0.747500	0.589770	0.493630
H11	H1	0.745600	0.678400	0.487300
N11	N1	0.669900	0.359300	0.392430
N21	N2	0.866000	0.386600	0.387370
N31	N3	0.649800	0.108400	0.110730
N41	N4	0.849100	0.129100	0.109040
C11	C1	0.571200	0.286500	0.327500
H21	H2	0.437000	0.268500	0.331700
C21	C2	0.660300	0.234100	0.251200
C31	C3	0.558100	0.157500	0.177800
H31	H3	0.421800	0.141700	0.177600
C41	C4	0.958000	0.341000	0.319300
H41	H4	0.092500	0.361200	0.317900
C51	C5	0.858000	0.261200	0.247000
C61	C6	0.949000	0.203400	0.172300
H51	H5	0.084000	0.219300	0.168400
O21	O2	0.252500	0.089770	0.006370
H61	H6	0.254400	0.178400	0.012700
N51	N5	0.330100	0.859300	0.107570
N61	N6	0.134000	0.886600	0.112630
N71	N7	0.350200	0.608400	0.389270
N81	N8	0.150900	0.629100	0.390960
C71	C7	0.428800	0.786500	0.172500
H71	H7	0.563000	0.768500	0.168300
C81	C8	0.339700	0.734100	0.248800
C91	C9	0.441900	0.657500	0.322200
H81	H8	0.578200	0.641700	0.322400
C101	C10	0.042000	0.841000	0.180700
H91	H9	0.907500	0.861200	0.182100
C111	C11	0.142000	0.761200	0.253000
C121	C12	0.051000	0.703400	0.327700
H101	H10	0.916000	0.719300	0.331600
O31	O3	0.252500	0.410230	0.506370
H111	H11	0.254400	0.321600	0.512700
N91	N9	0.330100	0.640700	0.607570
N101	N10	0.134000	0.613400	0.612630
N111	N11	0.350200	0.891600	0.889270
N121	N12	0.150900	0.870900	0.890960
C131	C13	0.428800	0.713500	0.672500
H121	H12	0.563000	0.731500	0.668300
C141	C14	0.339700	0.765900	0.748800
C151	C15	0.441900	0.842500	0.822200
H131	H13	0.578200	0.858300	0.822400
C161	C16	0.042000	0.659000	0.680700
H141	H14	0.907500	0.638800	0.682100
C171	C17	0.142000	0.738800	0.753000
C181	C18	0.051000	0.796600	0.827700
H151	H15	0.916000	0.780700	0.831600
O41	O4	0.747500	0.910230	0.993630
H161	H16	0.745600	0.821600	0.987300
N131	N13	0.669900	0.140700	0.892430
N141	N14	0.866000	0.113400	0.887370
N151	N15	0.649800	0.391600	0.610730
N161	N16	0.849100	0.370900	0.609040
C191	C19	0.571200	0.213500	0.827500
H171	H17	0.437000	0.231500	0.831700
C201	C20	0.660300	0.265900	0.751200
C211	C21	0.558100	0.342500	0.677800
H181	H18	0.421800	0.358300	0.677600
C221	C22	0.958000	0.159000	0.819300
H191	H19	0.092500	0.138800	0.817900
C231	C23	0.858000	0.238800	0.747000
C241	C24	0.949000	0.296600	0.672300
H201	H20	0.084000	0.280700	0.668400
Cu11	Cu1	0.500000	0.500000	0.500000
Cu21	Cu2	0.500000	0.000000	0.000000
Cu31	Cu3	0.000000	0.500000	0.500000
Cu41	Cu4	0.000000	0.000000	0.000000
