data_WEVQOD_clean_PM
_symmetry_space_group_name_H-M	'P1'
_cell_length_a	14.717000
_cell_length_b	14.717000
_cell_length_c	15.169000
_cell_angle_alpha	90.000000
_cell_angle_beta	90.000000
_cell_angle_gamma	120.000000
_symmetry_Int_Tables_number 1

loop_
_symmetry_equiv_pos_as_xyz
'x,y,z'

loop_
_atom_site_label
_atom_site_type_symbol
_atom_site_fract_x
_atom_site_fract_y
_atom_site_fract_z
Gd11	Gd1	0.333330	0.666660	0.250000
Gd21	Gd2	0.666670	0.333340	0.250000
Gd31	Gd3	0.666670	0.333340	0.750000
Gd41	Gd4	0.333330	0.666660	0.750000
Cu11	Cu1	0.500000	0.500000	0.000000
Cu21	Cu2	0.000000	0.500000	0.000000
Cu31	Cu3	0.500000	0.000000	0.000000
Cu41	Cu4	0.000000	0.500000	0.500000
Cu51	Cu5	0.500000	0.500000	0.500000
Cu61	Cu6	0.500000	0.000000	0.500000
H11	H1	0.794300	0.158800	0.839600
H21	H2	0.715200	0.086400	0.766700
H31	H3	0.364500	0.205700	0.839600
H41	H4	0.371200	0.284800	0.766700
H51	H5	0.841200	0.635500	0.839600
H61	H6	0.913600	0.628800	0.766700
H71	H7	0.205700	0.841200	0.839600
H81	H8	0.284800	0.913600	0.766700
H91	H9	0.635500	0.794300	0.839600
H101	H10	0.628800	0.715200	0.766700
H111	H11	0.158800	0.364500	0.839600
H121	H12	0.086400	0.371200	0.766700
H131	H13	0.635500	0.841200	0.660400
H141	H14	0.628800	0.913600	0.733300
H151	H15	0.158800	0.794300	0.660400
H161	H16	0.086400	0.715200	0.733300
H171	H17	0.205700	0.364500	0.660400
H181	H18	0.284800	0.371200	0.733300
H191	H19	0.364500	0.158800	0.660400
H201	H20	0.371200	0.086400	0.733300
H211	H21	0.841200	0.205700	0.660400
H221	H22	0.913600	0.284800	0.733300
H231	H23	0.794300	0.635500	0.660400
H241	H24	0.715200	0.628800	0.733300
H251	H25	0.205700	0.841200	0.160400
H261	H26	0.284800	0.913600	0.233300
H271	H27	0.635500	0.794300	0.160400
H281	H28	0.628800	0.715200	0.233300
H291	H29	0.158800	0.364500	0.160400
H301	H30	0.086400	0.371200	0.233300
H311	H31	0.794300	0.158800	0.160400
H321	H32	0.715200	0.086400	0.233300
H331	H33	0.364500	0.205700	0.160400
H341	H34	0.371200	0.284800	0.233300
H351	H35	0.841200	0.635500	0.160400
H361	H36	0.913600	0.628800	0.233300
H371	H37	0.364500	0.158800	0.339600
H381	H38	0.371200	0.086400	0.266700
H391	H39	0.841200	0.205700	0.339600
H401	H40	0.913600	0.284800	0.266700
H411	H41	0.794300	0.635500	0.339600
H421	H42	0.715200	0.628800	0.266700
H431	H43	0.635500	0.841200	0.339600
H441	H44	0.628800	0.913600	0.266700
H451	H45	0.158800	0.794300	0.339600
H461	H46	0.086400	0.715200	0.266700
H471	H47	0.205700	0.364500	0.339600
H481	H48	0.284800	0.371200	0.266700
C11	C1	0.129600	0.644700	0.361000
C21	C2	0.852400	0.264700	0.696700
C31	C3	0.515100	0.870400	0.361000
C41	C4	0.412300	0.147600	0.696700
C51	C5	0.355300	0.484900	0.361000
C61	C6	0.735300	0.587700	0.696700
C71	C7	0.870400	0.355300	0.361000
C81	C8	0.147600	0.735300	0.696700
C91	C9	0.484900	0.129600	0.361000
C101	C10	0.587700	0.852400	0.696700
C111	C11	0.644700	0.515100	0.361000
C121	C12	0.264700	0.412300	0.696700
C131	C13	0.484900	0.355300	0.139000
C141	C14	0.587700	0.735300	0.803300
C151	C15	0.644700	0.129600	0.139000
C161	C16	0.264700	0.852400	0.803300
C171	C17	0.870400	0.515100	0.139000
C181	C18	0.147600	0.412300	0.803300
C191	C19	0.515100	0.644700	0.139000
C201	C20	0.412300	0.264700	0.803300
C211	C21	0.355300	0.870400	0.139000
C221	C22	0.735300	0.147600	0.803300
C231	C23	0.129600	0.484900	0.139000
C241	C24	0.852400	0.587700	0.803300
C251	C25	0.870400	0.355300	0.639000
C261	C26	0.147600	0.735300	0.303300
C271	C27	0.484900	0.129600	0.639000
C281	C28	0.587700	0.852400	0.303300
C291	C29	0.644700	0.515100	0.639000
C301	C30	0.264700	0.412300	0.303300
C311	C31	0.129600	0.644700	0.639000
C321	C32	0.852400	0.264700	0.303300
C331	C33	0.515100	0.870400	0.639000
C341	C34	0.412300	0.147600	0.303300
C351	C35	0.355300	0.484900	0.639000
C361	C36	0.735300	0.587700	0.303300
C371	C37	0.515100	0.644700	0.861000
C381	C38	0.412300	0.264700	0.196700
C391	C39	0.355300	0.870400	0.861000
C401	C40	0.735300	0.147600	0.196700
C411	C41	0.129600	0.484900	0.861000
C421	C42	0.852400	0.587700	0.196700
C431	C43	0.484900	0.355300	0.861000
C441	C44	0.587700	0.735300	0.196700
C451	C45	0.644700	0.129600	0.861000
C461	C46	0.264700	0.852400	0.196700
C471	C47	0.870400	0.515100	0.861000
C481	C48	0.147600	0.412300	0.196700
O11	O1	0.194100	0.613040	0.356580
O21	O2	0.051100	0.609700	0.410000
O31	O3	0.418940	0.805900	0.356580
O41	O4	0.558600	0.948900	0.410000
O51	O5	0.386960	0.581060	0.356580
O61	O6	0.390300	0.441400	0.410000
O71	O7	0.805900	0.386960	0.356580
O81	O8	0.948900	0.390300	0.410000
O91	O9	0.581060	0.194100	0.356580
O101	O10	0.441400	0.051100	0.410000
O111	O11	0.613040	0.418940	0.356580
O121	O12	0.609700	0.558600	0.410000
O131	O13	0.581060	0.386960	0.143420
O141	O14	0.441400	0.390300	0.090000
O151	O15	0.613040	0.194100	0.143420
O161	O16	0.609700	0.051100	0.090000
O171	O17	0.805900	0.418940	0.143420
O181	O18	0.948900	0.558600	0.090000
O191	O19	0.418940	0.613040	0.143420
O201	O20	0.558600	0.609700	0.090000
O211	O21	0.386960	0.805900	0.143420
O221	O22	0.390300	0.948900	0.090000
O231	O23	0.194100	0.581060	0.143420
O241	O24	0.051100	0.441400	0.090000
O251	O25	0.805900	0.386960	0.643420
O261	O26	0.948900	0.390300	0.590000
O271	O27	0.581060	0.194100	0.643420
O281	O28	0.441400	0.051100	0.590000
O291	O29	0.613040	0.418940	0.643420
O301	O30	0.609700	0.558600	0.590000
O311	O31	0.194100	0.613040	0.643420
O321	O32	0.051100	0.609700	0.590000
O331	O33	0.418940	0.805900	0.643420
O341	O34	0.558600	0.948900	0.590000
O351	O35	0.386960	0.581060	0.643420
O361	O36	0.390300	0.441400	0.590000
O371	O37	0.418940	0.613040	0.856580
O381	O38	0.558600	0.609700	0.910000
O391	O39	0.386960	0.805900	0.856580
O401	O40	0.390300	0.948900	0.910000
O411	O41	0.194100	0.581060	0.856580
O421	O42	0.051100	0.441400	0.910000
O431	O43	0.581060	0.386960	0.856580
O441	O44	0.441400	0.390300	0.910000
O451	O45	0.613040	0.194100	0.856580
O461	O46	0.609700	0.051100	0.910000
O471	O47	0.805900	0.418940	0.856580
O481	O48	0.948900	0.558600	0.910000
O491	O49	0.764100	0.235900	0.750000
O501	O50	0.471800	0.235900	0.750000
O511	O51	0.764100	0.528200	0.750000
O521	O52	0.235900	0.764100	0.750000
O531	O53	0.528200	0.764100	0.750000
O541	O54	0.235900	0.471800	0.750000
O551	O55	0.235900	0.764100	0.250000
O561	O56	0.528200	0.764100	0.250000
O571	O57	0.235900	0.471800	0.250000
O581	O58	0.764100	0.235900	0.250000
O591	O59	0.471800	0.235900	0.250000
O601	O60	0.764100	0.528200	0.250000
