data_WEVQOD01_clean_PM
_symmetry_space_group_name_H-M	'P1'
_cell_length_a	14.478300
_cell_length_b	14.478300
_cell_length_c	15.293000
_cell_angle_alpha	90.000000
_cell_angle_beta	90.000000
_cell_angle_gamma	120.000000
_symmetry_Int_Tables_number 1

loop_
_symmetry_equiv_pos_as_xyz
'x,y,z'

loop_
_atom_site_label
_atom_site_type_symbol
_atom_site_fract_x
_atom_site_fract_y
_atom_site_fract_z
O11	O1	0.946700	0.386500	0.089900
C11	C1	0.868900	0.352400	0.138100
O21	O2	0.805800	0.386200	0.144400
C21	C2	0.854100	0.259900	0.195400
H11	H1	0.840100	0.197600	0.159100
H21	H2	0.918700	0.280800	0.231200
O31	O3	0.613500	0.560200	0.089900
C31	C3	0.647600	0.516500	0.138100
O41	O4	0.613800	0.419600	0.144400
C41	C4	0.740100	0.594200	0.195400
H31	H3	0.802400	0.642500	0.159100
H41	H4	0.719200	0.637900	0.231200
O51	O5	0.439800	0.053300	0.089900
C51	C5	0.483500	0.131100	0.138100
O61	O6	0.580400	0.194200	0.144400
C61	C6	0.405800	0.145900	0.195400
H51	H5	0.357500	0.159900	0.159100
H61	H6	0.362100	0.081300	0.231200
O71	O7	0.053300	0.613500	0.089900
C71	C7	0.131100	0.647600	0.138100
O81	O8	0.194200	0.613800	0.144400
C81	C8	0.145900	0.740100	0.195400
H71	H7	0.159900	0.802400	0.159100
H81	H8	0.081300	0.719200	0.231200
O91	O9	0.386500	0.439800	0.089900
C91	C9	0.352400	0.483500	0.138100
O101	O10	0.386200	0.580400	0.144400
C101	C10	0.259900	0.405800	0.195400
H91	H9	0.197600	0.357500	0.159100
H101	H10	0.280800	0.362100	0.231200
O111	O11	0.560200	0.946700	0.089900
C111	C11	0.516500	0.868900	0.138100
O121	O12	0.419600	0.805800	0.144400
C121	C12	0.594200	0.854100	0.195400
H111	H11	0.642500	0.840100	0.159100
H121	H12	0.637900	0.918700	0.231200
O131	O13	0.386500	0.946700	0.410100
C131	C13	0.352400	0.868900	0.361900
O141	O14	0.386200	0.805800	0.355600
C141	C14	0.259900	0.854100	0.304600
H131	H13	0.197600	0.840100	0.340900
H141	H14	0.280800	0.918700	0.268800
O151	O15	0.560200	0.613500	0.410100
C151	C15	0.516500	0.647600	0.361900
O161	O16	0.419600	0.613800	0.355600
C161	C16	0.594200	0.740100	0.304600
H151	H15	0.642500	0.802400	0.340900
H161	H16	0.637900	0.719200	0.268800
O171	O17	0.053300	0.439800	0.410100
C171	C17	0.131100	0.483500	0.361900
O181	O18	0.194200	0.580400	0.355600
C181	C18	0.145900	0.405800	0.304600
H171	H17	0.159900	0.357500	0.340900
H181	H18	0.081300	0.362100	0.268800
O191	O19	0.613500	0.053300	0.410100
C191	C19	0.647600	0.131100	0.361900
O201	O20	0.613800	0.194200	0.355600
C201	C20	0.740100	0.145900	0.304600
H191	H19	0.802400	0.159900	0.340900
H201	H20	0.719200	0.081300	0.268800
O211	O21	0.439800	0.386500	0.410100
C211	C21	0.483500	0.352400	0.361900
O221	O22	0.580400	0.386200	0.355600
C221	C22	0.405800	0.259900	0.304600
H211	H21	0.357500	0.197600	0.340900
H221	H22	0.362100	0.280800	0.268800
O231	O23	0.946700	0.560200	0.410100
C231	C23	0.868900	0.516500	0.361900
O241	O24	0.805800	0.419600	0.355600
C241	C24	0.854100	0.594200	0.304600
H231	H23	0.840100	0.642500	0.340900
H241	H24	0.918700	0.637900	0.268800
O251	O25	0.053300	0.613500	0.910100
C251	C25	0.131100	0.647600	0.861900
O261	O26	0.194200	0.613800	0.855600
C261	C26	0.145900	0.740100	0.804600
H251	H25	0.159900	0.802400	0.840900
H261	H26	0.081300	0.719200	0.768800
O271	O27	0.386500	0.439800	0.910100
C271	C27	0.352400	0.483500	0.861900
O281	O28	0.386200	0.580400	0.855600
C281	C28	0.259900	0.405800	0.804600
H271	H27	0.197600	0.357500	0.840900
H281	H28	0.280800	0.362100	0.768800
O291	O29	0.560200	0.946700	0.910100
C291	C29	0.516500	0.868900	0.861900
O301	O30	0.419600	0.805800	0.855600
C301	C30	0.594200	0.854100	0.804600
H291	H29	0.642500	0.840100	0.840900
H301	H30	0.637900	0.918700	0.768800
O311	O31	0.946700	0.386500	0.910100
C311	C31	0.868900	0.352400	0.861900
O321	O32	0.805800	0.386200	0.855600
C321	C32	0.854100	0.259900	0.804600
H311	H31	0.840100	0.197600	0.840900
H321	H32	0.918700	0.280800	0.768800
O331	O33	0.613500	0.560200	0.910100
C331	C33	0.647600	0.516500	0.861900
O341	O34	0.613800	0.419600	0.855600
C341	C34	0.740100	0.594200	0.804600
H331	H33	0.802400	0.642500	0.840900
H341	H34	0.719200	0.637900	0.768800
O351	O35	0.439800	0.053300	0.910100
C351	C35	0.483500	0.131100	0.861900
O361	O36	0.580400	0.194200	0.855600
C361	C36	0.405800	0.145900	0.804600
H351	H35	0.357500	0.159900	0.840900
H361	H36	0.362100	0.081300	0.768800
O371	O37	0.613500	0.053300	0.589900
C371	C37	0.647600	0.131100	0.638100
O381	O38	0.613800	0.194200	0.644400
C381	C38	0.740100	0.145900	0.695400
H371	H37	0.802400	0.159900	0.659100
H381	H38	0.719200	0.081300	0.731200
O391	O39	0.439800	0.386500	0.589900
C391	C39	0.483500	0.352400	0.638100
O401	O40	0.580400	0.386200	0.644400
C401	C40	0.405800	0.259900	0.695400
H391	H39	0.357500	0.197600	0.659100
H401	H40	0.362100	0.280800	0.731200
O411	O41	0.946700	0.560200	0.589900
C411	C41	0.868900	0.516500	0.638100
O421	O42	0.805800	0.419600	0.644400
C421	C42	0.854100	0.594200	0.695400
H411	H41	0.840100	0.642500	0.659100
H421	H42	0.918700	0.637900	0.731200
O431	O43	0.386500	0.946700	0.589900
C431	C43	0.352400	0.868900	0.638100
O441	O44	0.386200	0.805800	0.644400
C441	C44	0.259900	0.854100	0.695400
H431	H43	0.197600	0.840100	0.659100
H441	H44	0.280800	0.918700	0.731200
O451	O45	0.560200	0.613500	0.589900
C451	C45	0.516500	0.647600	0.638100
O461	O46	0.419600	0.613800	0.644400
C461	C46	0.594200	0.740100	0.695400
H451	H45	0.642500	0.802400	0.659100
H461	H46	0.637900	0.719200	0.731200
O471	O47	0.053300	0.439800	0.589900
C471	C47	0.131100	0.483500	0.638100
O481	O48	0.194200	0.580400	0.644400
C481	C48	0.145900	0.405800	0.695400
H471	H47	0.159900	0.357500	0.659100
H481	H48	0.081300	0.362100	0.731200
Gd11	Gd1	0.666670	0.333330	0.250000
Gd21	Gd2	0.333330	0.666670	0.250000
Gd31	Gd3	0.333330	0.666670	0.750000
Gd41	Gd4	0.666670	0.333330	0.750000
Cu11	Cu1	0.000000	0.500000	0.000000
Cu21	Cu2	0.500000	0.500000	0.000000
Cu31	Cu3	0.500000	0.000000	0.000000
Cu41	Cu4	0.500000	0.000000	0.500000
Cu51	Cu5	0.500000	0.500000	0.500000
Cu61	Cu6	0.000000	0.500000	0.500000
O491	O49	0.764800	0.235200	0.250000
O501	O50	0.764800	0.529600	0.250000
O511	O51	0.470400	0.235200	0.250000
O521	O52	0.235200	0.764800	0.250000
O531	O53	0.235200	0.470400	0.250000
O541	O54	0.529600	0.764800	0.250000
O551	O55	0.235200	0.764800	0.750000
O561	O56	0.235200	0.470400	0.750000
O571	O57	0.529600	0.764800	0.750000
O581	O58	0.764800	0.235200	0.750000
O591	O59	0.764800	0.529600	0.750000
O601	O60	0.470400	0.235200	0.750000
