data_WEVRUK_clean_PM
_symmetry_space_group_name_H-M	'P1'
_cell_length_a	14.584000
_cell_length_b	15.199000
_cell_length_c	15.199000
_cell_angle_alpha	120.000000
_cell_angle_beta	90.000000
_cell_angle_gamma	90.000000
_symmetry_Int_Tables_number 1

loop_
_symmetry_equiv_pos_as_xyz
'x,y,z'

loop_
_atom_site_label
_atom_site_type_symbol
_atom_site_fract_x
_atom_site_fract_y
_atom_site_fract_z
Pr11	Pr1	0.250000	0.333330	0.666660
Pr21	Pr2	0.250000	0.666670	0.333340
Pr31	Pr3	0.750000	0.666670	0.333340
Pr41	Pr4	0.750000	0.333330	0.666660
Cu11	Cu1	0.000000	0.500000	0.500000
Cu21	Cu2	0.000000	0.000000	0.500000
Cu31	Cu3	0.000000	0.500000	0.000000
Cu41	Cu4	0.500000	0.000000	0.500000
Cu51	Cu5	0.500000	0.500000	0.500000
Cu61	Cu6	0.500000	0.500000	0.000000
H11	H1	0.836800	0.786100	0.150700
H21	H2	0.757400	0.710000	0.089200
H31	H3	0.836800	0.364600	0.213900
H41	H4	0.757400	0.379200	0.290000
H51	H5	0.836800	0.849300	0.635400
H61	H6	0.757400	0.910800	0.620800
H71	H7	0.836800	0.213900	0.849300
H81	H8	0.757400	0.290000	0.910800
H91	H9	0.836800	0.635400	0.786100
H101	H10	0.757400	0.620800	0.710000
H111	H11	0.836800	0.150700	0.364600
H121	H12	0.757400	0.089200	0.379200
H131	H13	0.663200	0.635400	0.849300
H141	H14	0.742600	0.620800	0.910800
H151	H15	0.663200	0.150700	0.786100
H161	H16	0.742600	0.089200	0.710000
H171	H17	0.663200	0.213900	0.364600
H181	H18	0.742600	0.290000	0.379200
H191	H19	0.663200	0.364600	0.150700
H201	H20	0.742600	0.379200	0.089200
H211	H21	0.663200	0.849300	0.213900
H221	H22	0.742600	0.910800	0.290000
H231	H23	0.663200	0.786100	0.635400
H241	H24	0.742600	0.710000	0.620800
H251	H25	0.163200	0.213900	0.849300
H261	H26	0.242600	0.290000	0.910800
H271	H27	0.163200	0.635400	0.786100
H281	H28	0.242600	0.620800	0.710000
H291	H29	0.163200	0.150700	0.364600
H301	H30	0.242600	0.089200	0.379200
H311	H31	0.163200	0.786100	0.150700
H321	H32	0.242600	0.710000	0.089200
H331	H33	0.163200	0.364600	0.213900
H341	H34	0.242600	0.379200	0.290000
H351	H35	0.163200	0.849300	0.635400
H361	H36	0.242600	0.910800	0.620800
H371	H37	0.336800	0.364600	0.150700
H381	H38	0.257400	0.379200	0.089200
H391	H39	0.336800	0.849300	0.213900
H401	H40	0.257400	0.910800	0.290000
H411	H41	0.336800	0.786100	0.635400
H421	H42	0.257400	0.710000	0.620800
H431	H43	0.336800	0.635400	0.849300
H441	H44	0.257400	0.620800	0.910800
H451	H45	0.336800	0.150700	0.786100
H461	H46	0.257400	0.089200	0.710000
H471	H47	0.336800	0.213900	0.364600
H481	H48	0.257400	0.290000	0.379200
C11	C1	0.359800	0.127500	0.643000
C21	C2	0.700500	0.854400	0.269100
C31	C3	0.359800	0.515500	0.872500
C41	C4	0.700500	0.414700	0.145600
C51	C5	0.359800	0.357000	0.484500
C61	C6	0.700500	0.730900	0.585300
C71	C7	0.359800	0.872500	0.357000
C81	C8	0.700500	0.145600	0.730900
C91	C9	0.359800	0.484500	0.127500
C101	C10	0.700500	0.585300	0.854400
C111	C11	0.359800	0.643000	0.515500
C121	C12	0.700500	0.269100	0.414700
C131	C13	0.140200	0.484500	0.357000
C141	C14	0.799500	0.585300	0.730900
C151	C15	0.140200	0.643000	0.127500
C161	C16	0.799500	0.269100	0.854400
C171	C17	0.140200	0.872500	0.515500
C181	C18	0.799500	0.145600	0.414700
C191	C19	0.140200	0.515500	0.643000
C201	C20	0.799500	0.414700	0.269100
C211	C21	0.140200	0.357000	0.872500
C221	C22	0.799500	0.730900	0.145600
C231	C23	0.140200	0.127500	0.484500
C241	C24	0.799500	0.854400	0.585300
C251	C25	0.640200	0.872500	0.357000
C261	C26	0.299500	0.145600	0.730900
C271	C27	0.640200	0.484500	0.127500
C281	C28	0.299500	0.585300	0.854400
C291	C29	0.640200	0.643000	0.515500
C301	C30	0.299500	0.269100	0.414700
C311	C31	0.640200	0.127500	0.643000
C321	C32	0.299500	0.854400	0.269100
C331	C33	0.640200	0.515500	0.872500
C341	C34	0.299500	0.414700	0.145600
C351	C35	0.640200	0.357000	0.484500
C361	C36	0.299500	0.730900	0.585300
C371	C37	0.859800	0.515500	0.643000
C381	C38	0.200500	0.414700	0.269100
C391	C39	0.859800	0.357000	0.872500
C401	C40	0.200500	0.730900	0.145600
C411	C41	0.859800	0.127500	0.484500
C421	C42	0.200500	0.854400	0.585300
C431	C43	0.859800	0.484500	0.357000
C441	C44	0.200500	0.585300	0.730900
C451	C45	0.859800	0.643000	0.127500
C461	C46	0.200500	0.269100	0.854400
C471	C47	0.859800	0.872500	0.515500
C481	C48	0.200500	0.145600	0.414700
O11	O1	0.359300	0.192000	0.614900
O21	O2	0.406400	0.048300	0.606300
O31	O3	0.359300	0.422900	0.808000
O41	O4	0.406400	0.558000	0.951700
O51	O5	0.359300	0.385100	0.577100
O61	O6	0.406400	0.393700	0.442000
O71	O7	0.359300	0.808000	0.385100
O81	O8	0.406400	0.951700	0.393700
O91	O9	0.359300	0.577100	0.192000
O101	O10	0.406400	0.442000	0.048300
O111	O11	0.359300	0.614900	0.422900
O121	O12	0.406400	0.606300	0.558000
O131	O13	0.140700	0.577100	0.385100
O141	O14	0.093600	0.442000	0.393700
O151	O15	0.140700	0.614900	0.192000
O161	O16	0.093600	0.606300	0.048300
O171	O17	0.140700	0.808000	0.422900
O181	O18	0.093600	0.951700	0.558000
O191	O19	0.140700	0.422900	0.614900
O201	O20	0.093600	0.558000	0.606300
O211	O21	0.140700	0.385100	0.808000
O221	O22	0.093600	0.393700	0.951700
O231	O23	0.140700	0.192000	0.577100
O241	O24	0.093600	0.048300	0.442000
O251	O25	0.640700	0.808000	0.385100
O261	O26	0.593600	0.951700	0.393700
O271	O27	0.640700	0.577100	0.192000
O281	O28	0.593600	0.442000	0.048300
O291	O29	0.640700	0.614900	0.422900
O301	O30	0.593600	0.606300	0.558000
O311	O31	0.640700	0.192000	0.614900
O321	O32	0.593600	0.048300	0.606300
O331	O33	0.640700	0.422900	0.808000
O341	O34	0.593600	0.558000	0.951700
O351	O35	0.640700	0.385100	0.577100
O361	O36	0.593600	0.393700	0.442000
O371	O37	0.859300	0.422900	0.614900
O381	O38	0.906400	0.558000	0.606300
O391	O39	0.859300	0.385100	0.808000
O401	O40	0.906400	0.393700	0.951700
O411	O41	0.859300	0.192000	0.577100
O421	O42	0.906400	0.048300	0.442000
O431	O43	0.859300	0.577100	0.385100
O441	O44	0.906400	0.442000	0.393700
O451	O45	0.859300	0.614900	0.192000
O461	O46	0.906400	0.606300	0.048300
O471	O47	0.859300	0.808000	0.422900
O481	O48	0.906400	0.951700	0.558000
O491	O49	0.750000	0.763800	0.236200
O501	O50	0.750000	0.472400	0.236200
O511	O51	0.750000	0.763800	0.527600
O521	O52	0.750000	0.236200	0.763800
O531	O53	0.750000	0.527600	0.763800
O541	O54	0.750000	0.236200	0.472400
O551	O55	0.250000	0.236200	0.763800
O561	O56	0.250000	0.527600	0.763800
O571	O57	0.250000	0.236200	0.472400
O581	O58	0.250000	0.763800	0.236200
O591	O59	0.250000	0.472400	0.236200
O601	O60	0.250000	0.763800	0.527600
