data_WEWGAH_clean_PM
_symmetry_space_group_name_H-M	'P1'
_cell_length_a	7.621000
_cell_length_b	9.634000
_cell_length_c	10.500000
_cell_angle_alpha	106.409000
_cell_angle_beta	105.273000
_cell_angle_gamma	100.880000
_symmetry_Int_Tables_number 1

loop_
_symmetry_equiv_pos_as_xyz
'x,y,z'

loop_
_atom_site_label
_atom_site_type_symbol
_atom_site_fract_x
_atom_site_fract_y
_atom_site_fract_z
Ho11	Ho1	0.753330	0.967380	0.548230
Ho21	Ho2	0.246670	0.032620	0.451770
H11	H1	0.537900	0.800400	0.048200
H21	H2	0.815800	0.488800	0.963800
H31	H3	0.548400	0.622800	0.654000
H41	H4	0.363800	0.876000	0.877500
H51	H5	0.261400	0.736700	0.732900
H61	H6	0.635500	0.677300	0.215900
H71	H7	0.767400	0.568400	0.190800
H81	H8	0.850400	0.397500	0.735600
H91	H9	0.775300	0.470700	0.620100
H101	H10	0.462100	0.199600	0.951800
H111	H11	0.184200	0.511200	0.036200
H121	H12	0.451600	0.377200	0.346000
H131	H13	0.636200	0.124000	0.122500
H141	H14	0.738600	0.263300	0.267100
H151	H15	0.364500	0.322700	0.784100
H161	H16	0.232600	0.431600	0.809200
H171	H17	0.149600	0.602500	0.264400
H181	H18	0.224700	0.529300	0.379900
C11	C1	0.522200	0.726100	0.844800
C21	C2	0.577500	0.734200	0.983000
C31	C3	0.688500	0.649300	0.029700
C41	C4	0.742600	0.550400	0.933500
C51	C5	0.691400	0.540400	0.794300
C61	C6	0.582500	0.628500	0.749400
C71	C7	0.384700	0.811400	0.794200
C81	C8	0.443600	0.909100	0.714800
C91	C9	0.743000	0.663300	0.182300
C101	C10	0.917200	0.793800	0.275000
C111	C11	0.739900	0.425300	0.686700
C121	C12	0.575400	0.285800	0.605900
C131	C13	0.477800	0.273900	0.155200
C141	C14	0.422500	0.265800	0.017000
C151	C15	0.311500	0.350700	0.970300
C161	C16	0.257400	0.449600	0.066500
C171	C17	0.308600	0.459600	0.205700
C181	C18	0.417500	0.371500	0.250600
C191	C19	0.615300	0.188600	0.205800
C201	C20	0.556400	0.090900	0.285200
C211	C21	0.257000	0.336700	0.817700
C221	C22	0.082800	0.206200	0.725000
C231	C23	0.260100	0.574700	0.313300
C241	C24	0.424600	0.714200	0.394100
O11	O1	0.607700	0.931800	0.708400
O21	O2	0.314700	0.960800	0.655400
O31	O3	0.043900	0.833800	0.227700
O41	O4	0.936700	0.862200	0.404100
O51	O5	0.411500	0.296200	0.558500
O61	O6	0.600700	0.155000	0.583400
O71	O7	0.392300	0.068200	0.291600
O81	O8	0.685300	0.039200	0.344600
O91	O9	0.956100	0.166200	0.772300
O101	O10	0.063300	0.137800	0.595900
O111	O11	0.588500	0.703800	0.441500
O121	O12	0.399300	0.845000	0.416600
