data_WEXNIW_clean_PM
_symmetry_space_group_name_H-M	'P1'
_cell_length_a	7.796900
_cell_length_b	8.501700
_cell_length_c	9.017900
_cell_angle_alpha	78.669000
_cell_angle_beta	68.372000
_cell_angle_gamma	83.634000
_symmetry_Int_Tables_number 1

loop_
_symmetry_equiv_pos_as_xyz
'x,y,z'

loop_
_atom_site_label
_atom_site_type_symbol
_atom_site_fract_x
_atom_site_fract_y
_atom_site_fract_z
Ba11	Ba1	0.403820	0.851070	0.271830
Ba21	Ba2	0.596180	0.148930	0.728170
V11	V1	0.966960	0.318520	0.882450
V21	V2	0.033040	0.681480	0.117550
H11	H1	0.799900	0.683000	0.717300
H21	H2	0.981100	0.861000	0.724800
H31	H3	0.200100	0.317000	0.282700
H41	H4	0.018900	0.139000	0.275200
C11	C1	0.056100	0.588200	0.634200
C21	C2	0.885600	0.641800	0.766700
C31	C3	0.948900	0.770900	0.833100
C41	C4	0.782200	0.819900	0.969700
C51	C5	0.943900	0.411800	0.365800
C61	C6	0.114400	0.358200	0.233300
C71	C7	0.051100	0.229100	0.166900
C81	C8	0.217800	0.180100	0.030300
O11	O1	0.127800	0.677000	0.505900
O21	O2	0.640700	0.880700	0.945400
O31	O3	0.116200	0.443300	0.670900
O41	O4	0.792300	0.783700	0.111200
O51	O5	0.811900	0.512000	0.890800
O61	O6	0.092300	0.711500	0.888500
O71	O7	0.134700	0.815600	0.156500
O81	O8	0.872200	0.323000	0.494100
O91	O9	0.359300	0.119300	0.054600
O101	O10	0.883800	0.556700	0.329100
O111	O11	0.207700	0.216300	0.888800
O121	O12	0.188100	0.488000	0.109200
O131	O13	0.907700	0.288500	0.111500
O141	O14	0.865300	0.184400	0.843500
