data_WEXTAV_clean_PM
_symmetry_space_group_name_H-M	'P1'
_cell_length_a	8.714200
_cell_length_b	10.807500
_cell_length_c	18.074000
_cell_angle_alpha	90.000000
_cell_angle_beta	90.000000
_cell_angle_gamma	90.000000
_symmetry_Int_Tables_number 1

loop_
_symmetry_equiv_pos_as_xyz
'x,y,z'

loop_
_atom_site_label
_atom_site_type_symbol
_atom_site_fract_x
_atom_site_fract_y
_atom_site_fract_z
Co11	Co1	0.840200	0.673450	0.879760
Co21	Co2	0.838800	0.950760	0.955880
Cl11	Cl1	0.710800	0.864600	0.846100
P11	P1	0.841700	0.281900	0.533070
N11	N1	0.722800	0.297500	0.678200
H11	H1	0.823700	0.286400	0.689300
C11	C1	0.654000	0.377900	0.738200
H21	H2	0.561400	0.418100	0.719300
C21	C2	0.612000	0.290800	0.799300
H31	H3	0.683900	0.298200	0.839900
H41	H4	0.509800	0.310000	0.817700
C31	C3	0.615000	0.162800	0.768700
H51	H5	0.518000	0.121600	0.777900
H61	H6	0.696100	0.115200	0.792100
C41	C4	0.643700	0.172700	0.686300
H71	H7	0.548100	0.170700	0.658900
H81	H8	0.709300	0.106100	0.669200
C51	C5	0.765400	0.475400	0.764900
C61	C6	0.715000	0.349600	0.602400
H91	H9	0.737400	0.437400	0.605500
H101	H10	0.610200	0.341500	0.584900
O11	O1	0.713200	0.547000	0.813900
O21	O2	0.901300	0.475800	0.740200
O31	O3	0.007600	0.296500	0.559500
O41	O4	0.799100	0.145900	0.526000
O51	O5	0.807000	0.359000	0.464500
Co31	Co3	0.659800	0.326550	0.379760
Co41	Co4	0.661200	0.049240	0.455880
Cl21	Cl2	0.789200	0.135400	0.346100
P21	P2	0.658300	0.718100	0.033070
N21	N2	0.777200	0.702500	0.178200
H111	H11	0.676300	0.713600	0.189300
C71	C7	0.846000	0.622100	0.238200
H121	H12	0.938600	0.581900	0.219300
C81	C8	0.888000	0.709200	0.299300
H131	H13	0.816100	0.701800	0.339900
H141	H14	0.990200	0.690000	0.317700
C91	C9	0.885000	0.837200	0.268700
H151	H15	0.982000	0.878400	0.277900
H161	H16	0.803900	0.884800	0.292100
C101	C10	0.856300	0.827300	0.186300
H171	H17	0.951900	0.829300	0.158900
H181	H18	0.790700	0.893900	0.169200
C111	C11	0.734600	0.524600	0.264900
C121	C12	0.785000	0.650400	0.102400
H191	H19	0.762600	0.562600	0.105500
H201	H20	0.889800	0.658500	0.084900
O61	O6	0.786800	0.453000	0.313900
O71	O7	0.598700	0.524200	0.240200
O81	O8	0.492400	0.703500	0.059500
O91	O9	0.700900	0.854100	0.026000
O101	O10	0.693000	0.641000	0.964500
Co51	Co5	0.159800	0.173450	0.620240
Co61	Co6	0.161200	0.450760	0.544120
Cl31	Cl3	0.289200	0.364600	0.653900
P31	P3	0.158300	0.781900	0.966930
N31	N3	0.277200	0.797500	0.821800
H211	H21	0.176300	0.786400	0.810700
C131	C13	0.346000	0.877900	0.761800
H221	H22	0.438600	0.918100	0.780700
C141	C14	0.388000	0.790800	0.700700
H231	H23	0.316100	0.798200	0.660100
H241	H24	0.490200	0.810000	0.682300
C151	C15	0.385000	0.662800	0.731300
H251	H25	0.482000	0.621600	0.722100
H261	H26	0.303900	0.615200	0.707900
C161	C16	0.356300	0.672700	0.813700
H271	H27	0.451900	0.670700	0.841100
H281	H28	0.290700	0.606100	0.830800
C171	C17	0.234600	0.975400	0.735100
C181	C18	0.285000	0.849600	0.897600
H291	H29	0.262600	0.937400	0.894500
H301	H30	0.389800	0.841500	0.915100
O111	O11	0.286800	0.047000	0.686100
O121	O12	0.098700	0.975800	0.759800
O131	O13	0.992400	0.796500	0.940500
O141	O14	0.200900	0.645900	0.974000
O151	O15	0.193000	0.859000	0.035500
Co71	Co7	0.340200	0.826550	0.120240
Co81	Co8	0.338800	0.549240	0.044120
Cl41	Cl4	0.210800	0.635400	0.153900
P41	P4	0.341700	0.218100	0.466930
N41	N4	0.222800	0.202500	0.321800
H311	H31	0.323700	0.213600	0.310700
C191	C19	0.154000	0.122100	0.261800
H321	H32	0.061400	0.081900	0.280700
C201	C20	0.112000	0.209200	0.200700
H331	H33	0.183900	0.201800	0.160100
H341	H34	0.009800	0.190000	0.182300
C211	C21	0.115000	0.337200	0.231300
H351	H35	0.018000	0.378400	0.222100
H361	H36	0.196100	0.384800	0.207900
C221	C22	0.143700	0.327300	0.313700
H371	H37	0.048100	0.329300	0.341100
H381	H38	0.209300	0.393900	0.330800
C231	C23	0.265400	0.024600	0.235100
C241	C24	0.215000	0.150400	0.397600
H391	H39	0.237400	0.062600	0.394500
H401	H40	0.110200	0.158500	0.415100
O161	O16	0.213200	0.953000	0.186100
O171	O17	0.401300	0.024200	0.259800
O181	O18	0.507600	0.203500	0.440500
O191	O19	0.299100	0.354100	0.474000
O201	O20	0.307000	0.141000	0.535500
