data_WEYMIY_clean_PM
_symmetry_space_group_name_H-M	'P1'
_cell_length_a	10.626100
_cell_length_b	10.626100
_cell_length_c	10.626100
_cell_angle_alpha	103.645000
_cell_angle_beta	112.461000
_cell_angle_gamma	112.461000
_symmetry_Int_Tables_number 1

loop_
_symmetry_equiv_pos_as_xyz
'x,y,z'

loop_
_atom_site_label
_atom_site_type_symbol
_atom_site_fract_x
_atom_site_fract_y
_atom_site_fract_z
Co11	Co1	0.494220	0.694640	0.799580
Co21	Co2	0.505780	0.305360	0.200420
Co31	Co3	0.104940	0.799580	0.305360
Co41	Co4	0.895060	0.200420	0.694640
Mo11	Mo1	0.000000	0.749960	0.749960
Mo21	Mo2	0.000000	0.250040	0.250040
H11	H1	0.340100	0.753100	0.587000
H21	H2	0.659900	0.246900	0.413000
H31	H3	0.833900	0.587000	0.246900
H41	H4	0.166100	0.413000	0.753100
C11	C1	0.196540	0.710490	0.804790
C21	C2	0.787410	0.027390	0.079360
C31	C3	0.803460	0.608250	0.513950
C41	C4	0.212590	0.291950	0.239980
C51	C5	0.094300	0.804790	0.608250
C61	C6	0.051970	0.079360	0.291950
C71	C7	0.905700	0.513950	0.710490
C81	C8	0.948030	0.239980	0.027390
C91	C9	0.803460	0.289510	0.195210
C101	C10	0.212590	0.972610	0.920640
C111	C11	0.196540	0.391750	0.486050
C121	C12	0.787410	0.708050	0.760020
C131	C13	0.905700	0.195210	0.391750
C141	C14	0.948030	0.920640	0.708050
C151	C15	0.094300	0.486050	0.289510
C161	C16	0.051970	0.760020	0.972610
N11	N1	0.306380	0.698630	0.831610
N21	N2	0.671700	0.914200	0.985040
N31	N3	0.693620	0.525230	0.392250
N41	N4	0.328300	0.313340	0.242500
N51	N5	0.132980	0.831610	0.525230
N61	N6	0.070840	0.985040	0.313340
N71	N7	0.867020	0.392250	0.698630
N81	N8	0.929160	0.242500	0.914200
N91	N9	0.693620	0.301370	0.168390
N101	N10	0.328300	0.085800	0.014960
N111	N11	0.306380	0.474770	0.607750
N121	N12	0.671700	0.686660	0.757500
N131	N13	0.867020	0.168390	0.474770
N141	N14	0.929160	0.014960	0.686660
N151	N15	0.132980	0.607750	0.301370
N161	N16	0.070840	0.757500	0.085800
O11	O1	0.439410	0.791210	0.648200
O21	O2	0.560590	0.208790	0.351800
O31	O3	0.856990	0.648200	0.208790
O41	O4	0.143010	0.351800	0.791210
