data_WEYQAU06_clean_PM
_symmetry_space_group_name_H-M	'P1'
_cell_length_a	14.796000
_cell_length_b	12.427500
_cell_length_c	16.626600
_cell_angle_alpha	90.000000
_cell_angle_beta	90.000000
_cell_angle_gamma	90.000000
_symmetry_Int_Tables_number 1

loop_
_symmetry_equiv_pos_as_xyz
'x,y,z'

loop_
_atom_site_label
_atom_site_type_symbol
_atom_site_fract_x
_atom_site_fract_y
_atom_site_fract_z
O11	O1	0.525580	0.119800	0.004060
O21	O2	0.501400	0.082500	0.874820
C11	C1	0.769100	0.423600	0.996700
O31	O3	0.594500	0.349200	0.668200
C21	C2	0.596400	0.230200	0.905500
C31	C3	0.593300	0.269300	0.827000
H11	H1	0.557200	0.233100	0.788200
C41	C4	0.636900	0.400500	0.719100
O41	O4	0.672500	0.489900	0.703680
C51	C5	0.703500	0.370600	0.938800
C61	C6	0.652600	0.280700	0.961000
H21	H2	0.656400	0.253800	0.014400
C71	C7	0.641800	0.360100	0.804200
C81	C8	0.695100	0.411500	0.861100
H31	H3	0.726200	0.475600	0.846900
C91	C9	0.538000	0.137500	0.929800
O51	O5	0.791100	0.517200	0.986000
O61	O6	0.801600	0.367400	0.052180
Mn11	Mn1	0.604520	0.483810	0.579810
O71	O7	0.974420	0.880200	0.504060
O81	O8	0.998600	0.917500	0.374820
C101	C10	0.730900	0.576400	0.496700
O91	O9	0.905500	0.650800	0.168200
C111	C11	0.903600	0.769800	0.405500
C121	C12	0.906700	0.730700	0.327000
H41	H4	0.942800	0.766900	0.288200
C131	C13	0.863100	0.599500	0.219100
O101	O10	0.827500	0.510100	0.203680
C141	C14	0.796500	0.629400	0.438800
C151	C15	0.847400	0.719300	0.461000
H51	H5	0.843600	0.746200	0.514400
C161	C16	0.858200	0.639900	0.304200
C171	C17	0.804900	0.588500	0.361100
H61	H6	0.773800	0.524400	0.346900
C181	C18	0.962000	0.862500	0.429800
O111	O11	0.708900	0.482800	0.486000
O121	O12	0.698400	0.632600	0.552180
Mn21	Mn2	0.895480	0.516190	0.079810
O131	O13	0.474420	0.619800	0.495940
O141	O14	0.498600	0.582500	0.625180
C191	C19	0.230900	0.923600	0.503300
O151	O15	0.405500	0.849200	0.831800
C201	C20	0.403600	0.730200	0.594500
C211	C21	0.406700	0.769300	0.673000
H71	H7	0.442800	0.733100	0.711800
C221	C22	0.363100	0.900500	0.780900
O161	O16	0.327500	0.989900	0.796320
C231	C23	0.296500	0.870600	0.561200
C241	C24	0.347400	0.780700	0.539000
H81	H8	0.343600	0.753800	0.485600
C251	C25	0.358200	0.860100	0.695800
C261	C26	0.304900	0.911500	0.638900
H91	H9	0.273800	0.975600	0.653100
C271	C27	0.462000	0.637500	0.570200
O171	O17	0.208900	0.017200	0.514000
O181	O18	0.198400	0.867400	0.447820
Mn31	Mn3	0.395480	0.983810	0.920190
O191	O19	0.025580	0.380200	0.995940
O201	O20	0.001400	0.417500	0.125180
C281	C28	0.269100	0.076400	0.003300
O211	O21	0.094500	0.150800	0.331800
C291	C29	0.096400	0.269800	0.094500
C301	C30	0.093300	0.230700	0.173000
H101	H10	0.057200	0.266900	0.211800
C311	C31	0.136900	0.099500	0.280900
O221	O22	0.172500	0.010100	0.296320
C321	C32	0.203500	0.129400	0.061200
C331	C33	0.152600	0.219300	0.039000
H111	H11	0.156400	0.246200	0.985600
C341	C34	0.141800	0.139900	0.195800
C351	C35	0.195100	0.088500	0.138900
H121	H12	0.226200	0.024400	0.153100
C361	C36	0.038000	0.362500	0.070200
O231	O23	0.291100	0.982800	0.014000
O241	O24	0.301600	0.132600	0.947820
Mn41	Mn4	0.104520	0.016190	0.420190
O251	O25	0.474420	0.880200	0.995940
O261	O26	0.498600	0.917500	0.125180
C371	C37	0.230900	0.576400	0.003300
O271	O27	0.405500	0.650800	0.331800
C381	C38	0.403600	0.769800	0.094500
C391	C39	0.406700	0.730700	0.173000
H131	H13	0.442800	0.766900	0.211800
C401	C40	0.363100	0.599500	0.280900
O281	O28	0.327500	0.510100	0.296320
C411	C41	0.296500	0.629400	0.061200
C421	C42	0.347400	0.719300	0.039000
H141	H14	0.343600	0.746200	0.985600
C431	C43	0.358200	0.639900	0.195800
C441	C44	0.304900	0.588500	0.138900
H151	H15	0.273800	0.524400	0.153100
C451	C45	0.462000	0.862500	0.070200
O291	O29	0.208900	0.482800	0.014000
O301	O30	0.198400	0.632600	0.947820
Mn51	Mn5	0.395480	0.516190	0.420190
O311	O31	0.025580	0.119800	0.495940
O321	O32	0.001400	0.082500	0.625180
C461	C46	0.269100	0.423600	0.503300
O331	O33	0.094500	0.349200	0.831800
C471	C47	0.096400	0.230200	0.594500
C481	C48	0.093300	0.269300	0.673000
H161	H16	0.057200	0.233100	0.711800
C491	C49	0.136900	0.400500	0.780900
O341	O34	0.172500	0.489900	0.796320
C501	C50	0.203500	0.370600	0.561200
C511	C51	0.152600	0.280700	0.539000
H171	H17	0.156400	0.253800	0.485600
C521	C52	0.141800	0.360100	0.695800
C531	C53	0.195100	0.411500	0.638900
H181	H18	0.226200	0.475600	0.653100
C541	C54	0.038000	0.137500	0.570200
O351	O35	0.291100	0.517200	0.514000
O361	O36	0.301600	0.367400	0.447820
Mn61	Mn6	0.104520	0.483810	0.920190
O371	O37	0.525580	0.380200	0.504060
O381	O38	0.501400	0.417500	0.374820
C551	C55	0.769100	0.076400	0.496700
O391	O39	0.594500	0.150800	0.168200
C561	C56	0.596400	0.269800	0.405500
C571	C57	0.593300	0.230700	0.327000
H191	H19	0.557200	0.266900	0.288200
C581	C58	0.636900	0.099500	0.219100
O401	O40	0.672500	0.010100	0.203680
C591	C59	0.703500	0.129400	0.438800
C601	C60	0.652600	0.219300	0.461000
H201	H20	0.656400	0.246200	0.514400
C611	C61	0.641800	0.139900	0.304200
C621	C62	0.695100	0.088500	0.361100
H211	H21	0.726200	0.024400	0.346900
C631	C63	0.538000	0.362500	0.429800
O411	O41	0.791100	0.982800	0.486000
O421	O42	0.801600	0.132600	0.552180
Mn71	Mn7	0.604520	0.016190	0.079810
O431	O43	0.974420	0.619800	0.004060
O441	O44	0.998600	0.582500	0.874820
C641	C64	0.730900	0.923600	0.996700
O451	O45	0.905500	0.849200	0.668200
C651	C65	0.903600	0.730200	0.905500
C661	C66	0.906700	0.769300	0.827000
H221	H22	0.942800	0.733100	0.788200
C671	C67	0.863100	0.900500	0.719100
O461	O46	0.827500	0.989900	0.703680
C681	C68	0.796500	0.870600	0.938800
C691	C69	0.847400	0.780700	0.961000
H231	H23	0.843600	0.753800	0.014400
C701	C70	0.858200	0.860100	0.804200
C711	C71	0.804900	0.911500	0.861100
H241	H24	0.773800	0.975600	0.846900
C721	C72	0.962000	0.637500	0.929800
O471	O47	0.708900	0.017200	0.986000
O481	O48	0.698400	0.867400	0.052180
Mn81	Mn8	0.895480	0.983810	0.579810
