data_WEYQAU15_clean_PM
_symmetry_space_group_name_H-M	'P1'
_cell_length_a	14.138000
_cell_length_b	11.686000
_cell_length_c	16.583000
_cell_angle_alpha	90.000000
_cell_angle_beta	90.000000
_cell_angle_gamma	90.000000
_symmetry_Int_Tables_number 1

loop_
_symmetry_equiv_pos_as_xyz
'x,y,z'

loop_
_atom_site_label
_atom_site_type_symbol
_atom_site_fract_x
_atom_site_fract_y
_atom_site_fract_z
Mn11	Mn1	0.610630	0.468600	0.560650
O11	O1	0.798600	0.523500	0.955200
O21	O2	0.786700	0.379300	0.039900
O31	O3	0.604800	0.309300	0.641400
O41	O4	0.488900	0.058500	0.863800
C11	C1	0.639600	0.285700	0.943200
H11	H1	0.632500	0.272100	0.998100
O51	O5	0.502200	0.120200	0.991800
C21	C2	0.762500	0.431000	0.975000
C31	C3	0.700800	0.399600	0.835200
H21	H2	0.736000	0.461900	0.817300
C41	C4	0.649700	0.368000	0.692800
C51	C5	0.700900	0.367400	0.917800
C61	C6	0.523900	0.128000	0.914400
O61	O6	0.696200	0.451900	0.671700
C71	C7	0.593400	0.243000	0.805900
H31	H3	0.562600	0.196700	0.768600
C81	C8	0.587500	0.222300	0.888500
C91	C9	0.647200	0.336000	0.782200
Mn21	Mn2	0.889370	0.531400	0.060650
O71	O7	0.701400	0.476500	0.455200
O81	O8	0.713300	0.620700	0.539900
O91	O9	0.895200	0.690700	0.141400
O101	O10	0.011100	0.941500	0.363800
C101	C10	0.860400	0.714300	0.443200
H41	H4	0.867500	0.727900	0.498100
O111	O11	0.997800	0.879800	0.491800
C111	C11	0.737500	0.569000	0.475000
C121	C12	0.799200	0.600400	0.335200
H51	H5	0.764000	0.538100	0.317300
C131	C13	0.850300	0.632000	0.192800
C141	C14	0.799100	0.632600	0.417800
C151	C15	0.976100	0.872000	0.414400
O121	O12	0.803800	0.548100	0.171700
C161	C16	0.906600	0.757000	0.305900
H61	H6	0.937400	0.803300	0.268600
C171	C17	0.912500	0.777700	0.388500
C181	C18	0.852800	0.664000	0.282200
Mn31	Mn3	0.389370	0.968600	0.939350
O131	O13	0.201400	0.023500	0.544800
O141	O14	0.213300	0.879300	0.460100
O151	O15	0.395200	0.809300	0.858600
O161	O16	0.511100	0.558500	0.636200
C191	C19	0.360400	0.785700	0.556800
H71	H7	0.367500	0.772100	0.501900
O171	O17	0.497800	0.620200	0.508200
C201	C20	0.237500	0.931000	0.525000
C211	C21	0.299200	0.899600	0.664800
H81	H8	0.264000	0.961900	0.682700
C221	C22	0.350300	0.868000	0.807200
C231	C23	0.299100	0.867400	0.582200
C241	C24	0.476100	0.628000	0.585600
O181	O18	0.303800	0.951900	0.828300
C251	C25	0.406600	0.743000	0.694100
H91	H9	0.437400	0.696700	0.731400
C261	C26	0.412500	0.722300	0.611500
C271	C27	0.352800	0.836000	0.717800
Mn41	Mn4	0.110630	0.031400	0.439350
O191	O19	0.298600	0.976500	0.044800
O201	O20	0.286700	0.120700	0.960100
O211	O21	0.104800	0.190700	0.358600
O221	O22	0.988900	0.441500	0.136200
C281	C28	0.139600	0.214300	0.056800
H101	H10	0.132500	0.227900	0.001900
O231	O23	0.002200	0.379800	0.008200
C291	C29	0.262500	0.069000	0.025000
C301	C30	0.200800	0.100400	0.164800
H111	H11	0.236000	0.038100	0.182700
C311	C31	0.149700	0.132000	0.307200
C321	C32	0.200900	0.132600	0.082200
C331	C33	0.023900	0.372000	0.085600
O241	O24	0.196200	0.048100	0.328300
C341	C34	0.093400	0.257000	0.194100
H121	H12	0.062600	0.303300	0.231400
C351	C35	0.087500	0.277700	0.111500
C361	C36	0.147200	0.164000	0.217800
Mn51	Mn5	0.389370	0.531400	0.439350
O251	O25	0.201400	0.476500	0.044800
O261	O26	0.213300	0.620700	0.960100
O271	O27	0.395200	0.690700	0.358600
O281	O28	0.511100	0.941500	0.136200
C371	C37	0.360400	0.714300	0.056800
H131	H13	0.367500	0.727900	0.001900
O291	O29	0.497800	0.879800	0.008200
C381	C38	0.237500	0.569000	0.025000
C391	C39	0.299200	0.600400	0.164800
H141	H14	0.264000	0.538100	0.182700
C401	C40	0.350300	0.632000	0.307200
C411	C41	0.299100	0.632600	0.082200
C421	C42	0.476100	0.872000	0.085600
O301	O30	0.303800	0.548100	0.328300
C431	C43	0.406600	0.757000	0.194100
H151	H15	0.437400	0.803300	0.231400
C441	C44	0.412500	0.777700	0.111500
C451	C45	0.352800	0.664000	0.217800
Mn61	Mn6	0.110630	0.468600	0.939350
O311	O31	0.298600	0.523500	0.544800
O321	O32	0.286700	0.379300	0.460100
O331	O33	0.104800	0.309300	0.858600
O341	O34	0.988900	0.058500	0.636200
C461	C46	0.139600	0.285700	0.556800
H161	H16	0.132500	0.272100	0.501900
O351	O35	0.002200	0.120200	0.508200
C471	C47	0.262500	0.431000	0.525000
C481	C48	0.200800	0.399600	0.664800
H171	H17	0.236000	0.461900	0.682700
C491	C49	0.149700	0.368000	0.807200
C501	C50	0.200900	0.367400	0.582200
C511	C51	0.023900	0.128000	0.585600
O361	O36	0.196200	0.451900	0.828300
C521	C52	0.093400	0.243000	0.694100
H181	H18	0.062600	0.196700	0.731400
C531	C53	0.087500	0.222300	0.611500
C541	C54	0.147200	0.336000	0.717800
Mn71	Mn7	0.610630	0.031400	0.060650
O371	O37	0.798600	0.976500	0.455200
O381	O38	0.786700	0.120700	0.539900
O391	O39	0.604800	0.190700	0.141400
O401	O40	0.488900	0.441500	0.363800
C551	C55	0.639600	0.214300	0.443200
H191	H19	0.632500	0.227900	0.498100
O411	O41	0.502200	0.379800	0.491800
C561	C56	0.762500	0.069000	0.475000
C571	C57	0.700800	0.100400	0.335200
H201	H20	0.736000	0.038100	0.317300
C581	C58	0.649700	0.132000	0.192800
C591	C59	0.700900	0.132600	0.417800
C601	C60	0.523900	0.372000	0.414400
O421	O42	0.696200	0.048100	0.171700
C611	C61	0.593400	0.257000	0.305900
H211	H21	0.562600	0.303300	0.268600
C621	C62	0.587500	0.277700	0.388500
C631	C63	0.647200	0.164000	0.282200
Mn81	Mn8	0.889370	0.968600	0.560650
O431	O43	0.701400	0.023500	0.955200
O441	O44	0.713300	0.879300	0.039900
O451	O45	0.895200	0.809300	0.641400
O461	O46	0.011100	0.558500	0.863800
C641	C64	0.860400	0.785700	0.943200
H221	H22	0.867500	0.772100	0.998100
O471	O47	0.997800	0.620200	0.991800
C651	C65	0.737500	0.931000	0.975000
C661	C66	0.799200	0.899600	0.835200
H231	H23	0.764000	0.961900	0.817300
C671	C67	0.850300	0.868000	0.692800
C681	C68	0.799100	0.867400	0.917800
C691	C69	0.976100	0.628000	0.914400
O481	O48	0.803800	0.951900	0.671700
C701	C70	0.906600	0.743000	0.805900
H241	H24	0.937400	0.696700	0.768600
C711	C71	0.912500	0.722300	0.888500
C721	C72	0.852800	0.836000	0.782200
