data_WEYQAU09_clean_PM
_symmetry_space_group_name_H-M	'P1'
_cell_length_a	14.977300
_cell_length_b	12.501700
_cell_length_c	16.562900
_cell_angle_alpha	90.000000
_cell_angle_beta	90.000000
_cell_angle_gamma	90.000000
_symmetry_Int_Tables_number 1

loop_
_symmetry_equiv_pos_as_xyz
'x,y,z'

loop_
_atom_site_label
_atom_site_type_symbol
_atom_site_fract_x
_atom_site_fract_y
_atom_site_fract_z
C11	C1	0.768300	0.421400	0.000800
O11	O1	0.528100	0.119200	0.006790
C21	C2	0.634100	0.404000	0.722800
O21	O2	0.500800	0.086700	0.877300
C31	C3	0.591800	0.272100	0.830600
H11	H1	0.556000	0.237800	0.792700
C41	C4	0.538500	0.138900	0.933200
Mn11	Mn1	0.603840	0.486310	0.582390
O31	O3	0.593000	0.353600	0.671700
C51	C5	0.702600	0.369700	0.942800
C61	C6	0.652500	0.280600	0.964300
H21	H2	0.656900	0.253200	0.016400
C71	C7	0.640000	0.361500	0.808400
C81	C8	0.693900	0.412200	0.865000
H31	H3	0.724200	0.474500	0.851200
C91	C9	0.596400	0.232500	0.909400
O41	O4	0.801100	0.365500	0.054700
O51	O5	0.669500	0.492800	0.708000
O61	O6	0.792500	0.513600	0.989600
C101	C10	0.731700	0.578600	0.500800
O71	O7	0.971900	0.880800	0.506790
C111	C11	0.865900	0.596000	0.222800
O81	O8	0.999200	0.913300	0.377300
C121	C12	0.908200	0.727900	0.330600
H41	H4	0.944000	0.762200	0.292700
C131	C13	0.961500	0.861100	0.433200
Mn21	Mn2	0.896160	0.513690	0.082390
O91	O9	0.907000	0.646400	0.171700
C141	C14	0.797400	0.630300	0.442800
C151	C15	0.847500	0.719400	0.464300
H51	H5	0.843100	0.746800	0.516400
C161	C16	0.860000	0.638500	0.308400
C171	C17	0.806100	0.587800	0.365000
H61	H6	0.775800	0.525500	0.351200
C181	C18	0.903600	0.767500	0.409400
O101	O10	0.698900	0.634500	0.554700
O111	O11	0.830500	0.507200	0.208000
O121	O12	0.707500	0.486400	0.489600
C191	C19	0.231700	0.921400	0.499200
O131	O13	0.471900	0.619200	0.493210
C201	C20	0.365900	0.904000	0.777200
O141	O14	0.499200	0.586700	0.622700
C211	C21	0.408200	0.772100	0.669400
H71	H7	0.444000	0.737800	0.707300
C221	C22	0.461500	0.638900	0.566800
Mn31	Mn3	0.396160	0.986310	0.917610
O151	O15	0.407000	0.853600	0.828300
C231	C23	0.297400	0.869700	0.557200
C241	C24	0.347500	0.780600	0.535700
H81	H8	0.343100	0.753200	0.483600
C251	C25	0.360000	0.861500	0.691600
C261	C26	0.306100	0.912200	0.635000
H91	H9	0.275800	0.974500	0.648800
C271	C27	0.403600	0.732500	0.590600
O161	O16	0.198900	0.865500	0.445300
O171	O17	0.330500	0.992800	0.792000
O181	O18	0.207500	0.013600	0.510400
C281	C28	0.268300	0.078600	0.999200
O191	O19	0.028100	0.380800	0.993210
C291	C29	0.134100	0.096000	0.277200
O201	O20	0.000800	0.413300	0.122700
C301	C30	0.091800	0.227900	0.169400
H101	H10	0.056000	0.262200	0.207300
C311	C31	0.038500	0.361100	0.066800
Mn41	Mn4	0.103840	0.013690	0.417610
O211	O21	0.093000	0.146400	0.328300
C321	C32	0.202600	0.130300	0.057200
C331	C33	0.152500	0.219400	0.035700
H111	H11	0.156900	0.246800	0.983600
C341	C34	0.140000	0.138500	0.191600
C351	C35	0.193900	0.087800	0.135000
H121	H12	0.224200	0.025500	0.148800
C361	C36	0.096400	0.267500	0.090600
O221	O22	0.301100	0.134500	0.945300
O231	O23	0.169500	0.007200	0.292000
O241	O24	0.292500	0.986400	0.010400
C371	C37	0.231700	0.578600	0.999200
O251	O25	0.471900	0.880800	0.993210
C381	C38	0.365900	0.596000	0.277200
O261	O26	0.499200	0.913300	0.122700
C391	C39	0.408200	0.727900	0.169400
H131	H13	0.444000	0.762200	0.207300
C401	C40	0.461500	0.861100	0.066800
Mn51	Mn5	0.396160	0.513690	0.417610
O271	O27	0.407000	0.646400	0.328300
C411	C41	0.297400	0.630300	0.057200
C421	C42	0.347500	0.719400	0.035700
H141	H14	0.343100	0.746800	0.983600
C431	C43	0.360000	0.638500	0.191600
C441	C44	0.306100	0.587800	0.135000
H151	H15	0.275800	0.525500	0.148800
C451	C45	0.403600	0.767500	0.090600
O281	O28	0.198900	0.634500	0.945300
O291	O29	0.330500	0.507200	0.292000
O301	O30	0.207500	0.486400	0.010400
C461	C46	0.268300	0.421400	0.499200
O311	O31	0.028100	0.119200	0.493210
C471	C47	0.134100	0.404000	0.777200
O321	O32	0.000800	0.086700	0.622700
C481	C48	0.091800	0.272100	0.669400
H161	H16	0.056000	0.237800	0.707300
C491	C49	0.038500	0.138900	0.566800
Mn61	Mn6	0.103840	0.486310	0.917610
O331	O33	0.093000	0.353600	0.828300
C501	C50	0.202600	0.369700	0.557200
C511	C51	0.152500	0.280600	0.535700
H171	H17	0.156900	0.253200	0.483600
C521	C52	0.140000	0.361500	0.691600
C531	C53	0.193900	0.412200	0.635000
H181	H18	0.224200	0.474500	0.648800
C541	C54	0.096400	0.232500	0.590600
O341	O34	0.301100	0.365500	0.445300
O351	O35	0.169500	0.492800	0.792000
O361	O36	0.292500	0.513600	0.510400
C551	C55	0.768300	0.078600	0.500800
O371	O37	0.528100	0.380800	0.506790
C561	C56	0.634100	0.096000	0.222800
O381	O38	0.500800	0.413300	0.377300
C571	C57	0.591800	0.227900	0.330600
H191	H19	0.556000	0.262200	0.292700
C581	C58	0.538500	0.361100	0.433200
Mn71	Mn7	0.603840	0.013690	0.082390
O391	O39	0.593000	0.146400	0.171700
C591	C59	0.702600	0.130300	0.442800
C601	C60	0.652500	0.219400	0.464300
H201	H20	0.656900	0.246800	0.516400
C611	C61	0.640000	0.138500	0.308400
C621	C62	0.693900	0.087800	0.365000
H211	H21	0.724200	0.025500	0.351200
C631	C63	0.596400	0.267500	0.409400
O401	O40	0.801100	0.134500	0.554700
O411	O41	0.669500	0.007200	0.208000
O421	O42	0.792500	0.986400	0.489600
C641	C64	0.731700	0.921400	0.000800
O431	O43	0.971900	0.619200	0.006790
C651	C65	0.865900	0.904000	0.722800
O441	O44	0.999200	0.586700	0.877300
C661	C66	0.908200	0.772100	0.830600
H221	H22	0.944000	0.737800	0.792700
C671	C67	0.961500	0.638900	0.933200
Mn81	Mn8	0.896160	0.986310	0.582390
O451	O45	0.907000	0.853600	0.671700
C681	C68	0.797400	0.869700	0.942800
C691	C69	0.847500	0.780600	0.964300
H231	H23	0.843100	0.753200	0.016400
C701	C70	0.860000	0.861500	0.808400
C711	C71	0.806100	0.912200	0.865000
H241	H24	0.775800	0.974500	0.851200
C721	C72	0.903600	0.732500	0.909400
O461	O46	0.698900	0.865500	0.054700
O471	O47	0.830500	0.992800	0.708000
O481	O48	0.707500	0.013600	0.989600
