data_WEYQAU05_clean_PM
_symmetry_space_group_name_H-M	'P1'
_cell_length_a	14.707900
_cell_length_b	12.393100
_cell_length_c	16.645800
_cell_angle_alpha	90.000000
_cell_angle_beta	90.000000
_cell_angle_gamma	90.000000
_symmetry_Int_Tables_number 1

loop_
_symmetry_equiv_pos_as_xyz
'x,y,z'

loop_
_atom_site_label
_atom_site_type_symbol
_atom_site_fract_x
_atom_site_fract_y
_atom_site_fract_z
O11	O1	0.501410	0.080600	0.873980
O21	O2	0.595200	0.346800	0.666600
O31	O3	0.524220	0.120100	0.003150
O41	O4	0.674100	0.488700	0.701910
C11	C1	0.537600	0.137100	0.929100
C21	C2	0.593200	0.267500	0.825800
H11	H1	0.557600	0.230500	0.787000
C31	C3	0.768700	0.425400	0.995100
O51	O5	0.790700	0.519100	0.984690
C41	C4	0.652800	0.281200	0.959700
H21	H2	0.657200	0.254100	0.013000
C51	C5	0.703000	0.371500	0.937600
C61	C6	0.695400	0.411300	0.859900
H31	H3	0.727100	0.475200	0.845400
C71	C7	0.596400	0.230200	0.904700
C81	C8	0.642400	0.359200	0.803400
C91	C9	0.637700	0.398400	0.717500
O61	O6	0.801700	0.368700	0.051360
Mn11	Mn1	0.604970	0.482450	0.578930
O71	O7	0.998590	0.919400	0.373980
O81	O8	0.904800	0.653200	0.166600
O91	O9	0.975780	0.879900	0.503150
O101	O10	0.825900	0.511300	0.201910
C101	C10	0.962400	0.862900	0.429100
C111	C11	0.906800	0.732500	0.325800
H41	H4	0.942400	0.769500	0.287000
C121	C12	0.731300	0.574600	0.495100
O111	O11	0.709300	0.480900	0.484690
C131	C13	0.847200	0.718800	0.459700
H51	H5	0.842800	0.745900	0.513000
C141	C14	0.797000	0.628500	0.437600
C151	C15	0.804600	0.588700	0.359900
H61	H6	0.772900	0.524800	0.345400
C161	C16	0.903600	0.769800	0.404700
C171	C17	0.857600	0.640800	0.303400
C181	C18	0.862300	0.601600	0.217500
O121	O12	0.698300	0.631300	0.551360
Mn21	Mn2	0.895030	0.517550	0.078930
O131	O13	0.498590	0.580600	0.626020
O141	O14	0.404800	0.846800	0.833400
O151	O15	0.475780	0.620100	0.496850
O161	O16	0.325900	0.988700	0.798090
C191	C19	0.462400	0.637100	0.570900
C201	C20	0.406800	0.767500	0.674200
H71	H7	0.442400	0.730500	0.713000
C211	C21	0.231300	0.925400	0.504900
O171	O17	0.209300	0.019100	0.515310
C221	C22	0.347200	0.781200	0.540300
H81	H8	0.342800	0.754100	0.487000
C231	C23	0.297000	0.871500	0.562400
C241	C24	0.304600	0.911300	0.640100
H91	H9	0.272900	0.975200	0.654600
C251	C25	0.403600	0.730200	0.595300
C261	C26	0.357600	0.859200	0.696600
C271	C27	0.362300	0.898400	0.782500
O181	O18	0.198300	0.868700	0.448640
Mn31	Mn3	0.395030	0.982450	0.921070
O191	O19	0.001410	0.419400	0.126020
O201	O20	0.095200	0.153200	0.333400
O211	O21	0.024220	0.379900	0.996850
O221	O22	0.174100	0.011300	0.298090
C281	C28	0.037600	0.362900	0.070900
C291	C29	0.093200	0.232500	0.174200
H101	H10	0.057600	0.269500	0.213000
C301	C30	0.268700	0.074600	0.004900
O231	O23	0.290700	0.980900	0.015310
C311	C31	0.152800	0.218800	0.040300
H111	H11	0.157200	0.245900	0.987000
C321	C32	0.203000	0.128500	0.062400
C331	C33	0.195400	0.088700	0.140100
H121	H12	0.227100	0.024800	0.154600
C341	C34	0.096400	0.269800	0.095300
C351	C35	0.142400	0.140800	0.196600
C361	C36	0.137700	0.101600	0.282500
O241	O24	0.301700	0.131300	0.948640
Mn41	Mn4	0.104970	0.017550	0.421070
O251	O25	0.498590	0.919400	0.126020
O261	O26	0.404800	0.653200	0.333400
O271	O27	0.475780	0.879900	0.996850
O281	O28	0.325900	0.511300	0.298090
C371	C37	0.462400	0.862900	0.070900
C381	C38	0.406800	0.732500	0.174200
H131	H13	0.442400	0.769500	0.213000
C391	C39	0.231300	0.574600	0.004900
O291	O29	0.209300	0.480900	0.015310
C401	C40	0.347200	0.718800	0.040300
H141	H14	0.342800	0.745900	0.987000
C411	C41	0.297000	0.628500	0.062400
C421	C42	0.304600	0.588700	0.140100
H151	H15	0.272900	0.524800	0.154600
C431	C43	0.403600	0.769800	0.095300
C441	C44	0.357600	0.640800	0.196600
C451	C45	0.362300	0.601600	0.282500
O301	O30	0.198300	0.631300	0.948640
Mn51	Mn5	0.395030	0.517550	0.421070
O311	O31	0.001410	0.080600	0.626020
O321	O32	0.095200	0.346800	0.833400
O331	O33	0.024220	0.120100	0.496850
O341	O34	0.174100	0.488700	0.798090
C461	C46	0.037600	0.137100	0.570900
C471	C47	0.093200	0.267500	0.674200
H161	H16	0.057600	0.230500	0.713000
C481	C48	0.268700	0.425400	0.504900
O351	O35	0.290700	0.519100	0.515310
C491	C49	0.152800	0.281200	0.540300
H171	H17	0.157200	0.254100	0.487000
C501	C50	0.203000	0.371500	0.562400
C511	C51	0.195400	0.411300	0.640100
H181	H18	0.227100	0.475200	0.654600
C521	C52	0.096400	0.230200	0.595300
C531	C53	0.142400	0.359200	0.696600
C541	C54	0.137700	0.398400	0.782500
O361	O36	0.301700	0.368700	0.448640
Mn61	Mn6	0.104970	0.482450	0.921070
O371	O37	0.501410	0.419400	0.373980
O381	O38	0.595200	0.153200	0.166600
O391	O39	0.524220	0.379900	0.503150
O401	O40	0.674100	0.011300	0.201910
C551	C55	0.537600	0.362900	0.429100
C561	C56	0.593200	0.232500	0.325800
H191	H19	0.557600	0.269500	0.287000
C571	C57	0.768700	0.074600	0.495100
O411	O41	0.790700	0.980900	0.484690
C581	C58	0.652800	0.218800	0.459700
H201	H20	0.657200	0.245900	0.513000
C591	C59	0.703000	0.128500	0.437600
C601	C60	0.695400	0.088700	0.359900
H211	H21	0.727100	0.024800	0.345400
C611	C61	0.596400	0.269800	0.404700
C621	C62	0.642400	0.140800	0.303400
C631	C63	0.637700	0.101600	0.217500
O421	O42	0.801700	0.131300	0.551360
Mn71	Mn7	0.604970	0.017550	0.078930
O431	O43	0.998590	0.580600	0.873980
O441	O44	0.904800	0.846800	0.666600
O451	O45	0.975780	0.620100	0.003150
O461	O46	0.825900	0.988700	0.701910
C641	C64	0.962400	0.637100	0.929100
C651	C65	0.906800	0.767500	0.825800
H221	H22	0.942400	0.730500	0.787000
C661	C66	0.731300	0.925400	0.995100
O471	O47	0.709300	0.019100	0.984690
C671	C67	0.847200	0.781200	0.959700
H231	H23	0.842800	0.754100	0.013000
C681	C68	0.797000	0.871500	0.937600
C691	C69	0.804600	0.911300	0.859900
H241	H24	0.772900	0.975200	0.845400
C701	C70	0.903600	0.730200	0.904700
C711	C71	0.857600	0.859200	0.803400
C721	C72	0.862300	0.898400	0.717500
O481	O48	0.698300	0.868700	0.051360
Mn81	Mn8	0.895030	0.982450	0.578930
