data_WEYQAU02_clean_PM
_symmetry_space_group_name_H-M	'P1'
_cell_length_a	14.771600
_cell_length_b	12.426000
_cell_length_c	16.627700
_cell_angle_alpha	90.000000
_cell_angle_beta	90.000000
_cell_angle_gamma	90.000000
_symmetry_Int_Tables_number 1

loop_
_symmetry_equiv_pos_as_xyz
'x,y,z'

loop_
_atom_site_label
_atom_site_type_symbol
_atom_site_fract_x
_atom_site_fract_y
_atom_site_fract_z
Mn11	Mn1	0.604760	0.483550	0.579270
O11	O1	0.593290	0.348180	0.667320
O21	O2	0.673670	0.488970	0.702500
O31	O3	0.709110	0.480890	0.485410
O41	O4	0.698190	0.632370	0.551280
O51	O5	0.498450	0.581480	0.625660
O61	O6	0.525090	0.380390	0.503200
C11	C1	0.636270	0.400770	0.719230
C21	C2	0.641640	0.359030	0.803740
C31	C3	0.695060	0.411740	0.860660
C41	C4	0.592830	0.268330	0.826350
H11	H1	0.725600	0.474400	0.846600
C51	C5	0.702890	0.371150	0.938500
H21	H2	0.557500	0.232600	0.788500
C61	C6	0.596230	0.230290	0.905160
C71	C7	0.652740	0.280840	0.960680
C81	C8	0.768520	0.422280	0.996090
C91	C9	0.537830	0.136850	0.929470
H31	H3	0.657000	0.254200	0.012800
Mn21	Mn2	0.895240	0.516450	0.079270
O71	O7	0.906710	0.651820	0.167320
O81	O8	0.826330	0.511030	0.202500
O91	O9	0.790890	0.519110	0.985410
O101	O10	0.801810	0.367630	0.051280
O111	O11	0.001550	0.418520	0.125660
O121	O12	0.974910	0.619610	0.003200
C101	C10	0.863730	0.599230	0.219230
C111	C11	0.858360	0.640970	0.303740
C121	C12	0.804940	0.588260	0.360660
C131	C13	0.907170	0.731670	0.326350
H41	H4	0.774400	0.525600	0.346600
C141	C14	0.797110	0.628850	0.438500
H51	H5	0.942500	0.767400	0.288500
C151	C15	0.903770	0.769710	0.405160
C161	C16	0.847260	0.719160	0.460680
C171	C17	0.731480	0.577720	0.496090
C181	C18	0.962170	0.863150	0.429470
H61	H6	0.843000	0.745800	0.512800
Mn31	Mn3	0.395240	0.983550	0.920730
O131	O13	0.406710	0.848180	0.832680
O141	O14	0.326330	0.988970	0.797500
O151	O15	0.290890	0.980890	0.014590
O161	O16	0.301810	0.132370	0.948720
O171	O17	0.501550	0.081480	0.874340
O181	O18	0.474910	0.880390	0.996800
C191	C19	0.363730	0.900770	0.780770
C201	C20	0.358360	0.859030	0.696260
C211	C21	0.304940	0.911740	0.639340
C221	C22	0.407170	0.768330	0.673650
H71	H7	0.274400	0.974400	0.653400
C231	C23	0.297110	0.871150	0.561500
H81	H8	0.442500	0.732600	0.711500
C241	C24	0.403770	0.730290	0.594840
C251	C25	0.347260	0.780840	0.539320
C261	C26	0.231480	0.922280	0.503910
C271	C27	0.462170	0.636850	0.570530
H91	H9	0.343000	0.754200	0.487200
Mn41	Mn4	0.104760	0.016450	0.420730
O191	O19	0.093290	0.151820	0.332680
O201	O20	0.173670	0.011030	0.297500
O211	O21	0.209110	0.019110	0.514590
O221	O22	0.198190	0.867630	0.448720
O231	O23	0.998450	0.918520	0.374340
O241	O24	0.025090	0.119610	0.496800
C281	C28	0.136270	0.099230	0.280770
C291	C29	0.141640	0.140970	0.196260
C301	C30	0.195060	0.088260	0.139340
C311	C31	0.092830	0.231670	0.173650
H101	H10	0.225600	0.025600	0.153400
C321	C32	0.202890	0.128850	0.061500
H111	H11	0.057500	0.267400	0.211500
C331	C33	0.096230	0.269710	0.094840
C341	C34	0.152740	0.219160	0.039320
C351	C35	0.268520	0.077720	0.003910
C361	C36	0.037830	0.363150	0.070530
H121	H12	0.157000	0.245800	0.987200
Mn51	Mn5	0.395240	0.516450	0.420730
O251	O25	0.406710	0.651820	0.332680
O261	O26	0.326330	0.511030	0.297500
O271	O27	0.290890	0.519110	0.514590
O281	O28	0.301810	0.367630	0.448720
O291	O29	0.501550	0.418520	0.374340
O301	O30	0.474910	0.619610	0.496800
C371	C37	0.363730	0.599230	0.280770
C381	C38	0.358360	0.640970	0.196260
C391	C39	0.304940	0.588260	0.139340
C401	C40	0.407170	0.731670	0.173650
H131	H13	0.274400	0.525600	0.153400
C411	C41	0.297110	0.628850	0.061500
H141	H14	0.442500	0.767400	0.211500
C421	C42	0.403770	0.769710	0.094840
C431	C43	0.347260	0.719160	0.039320
C441	C44	0.231480	0.577720	0.003910
C451	C45	0.462170	0.863150	0.070530
H151	H15	0.343000	0.745800	0.987200
Mn61	Mn6	0.104760	0.483550	0.920730
O311	O31	0.093290	0.348180	0.832680
O321	O32	0.173670	0.488970	0.797500
O331	O33	0.209110	0.480890	0.014590
O341	O34	0.198190	0.632370	0.948720
O351	O35	0.998450	0.581480	0.874340
O361	O36	0.025090	0.380390	0.996800
C461	C46	0.136270	0.400770	0.780770
C471	C47	0.141640	0.359030	0.696260
C481	C48	0.195060	0.411740	0.639340
C491	C49	0.092830	0.268330	0.673650
H161	H16	0.225600	0.474400	0.653400
C501	C50	0.202890	0.371150	0.561500
H171	H17	0.057500	0.232600	0.711500
C511	C51	0.096230	0.230290	0.594840
C521	C52	0.152740	0.280840	0.539320
C531	C53	0.268520	0.422280	0.503910
C541	C54	0.037830	0.136850	0.570530
H181	H18	0.157000	0.254200	0.487200
Mn71	Mn7	0.604760	0.016450	0.079270
O371	O37	0.593290	0.151820	0.167320
O381	O38	0.673670	0.011030	0.202500
O391	O39	0.709110	0.019110	0.985410
O401	O40	0.698190	0.867630	0.051280
O411	O41	0.498450	0.918520	0.125660
O421	O42	0.525090	0.119610	0.003200
C551	C55	0.636270	0.099230	0.219230
C561	C56	0.641640	0.140970	0.303740
C571	C57	0.695060	0.088260	0.360660
C581	C58	0.592830	0.231670	0.326350
H191	H19	0.725600	0.025600	0.346600
C591	C59	0.702890	0.128850	0.438500
H201	H20	0.557500	0.267400	0.288500
C601	C60	0.596230	0.269710	0.405160
C611	C61	0.652740	0.219160	0.460680
C621	C62	0.768520	0.077720	0.496090
C631	C63	0.537830	0.363150	0.429470
H211	H21	0.657000	0.245800	0.512800
Mn81	Mn8	0.895240	0.983550	0.579270
O431	O43	0.906710	0.848180	0.667320
O441	O44	0.826330	0.988970	0.702500
O451	O45	0.790890	0.980890	0.485410
O461	O46	0.801810	0.132370	0.551280
O471	O47	0.001550	0.081480	0.625660
O481	O48	0.974910	0.880390	0.503200
C641	C64	0.863730	0.900770	0.719230
C651	C65	0.858360	0.859030	0.803740
C661	C66	0.804940	0.911740	0.860660
C671	C67	0.907170	0.768330	0.826350
H221	H22	0.774400	0.974400	0.846600
C681	C68	0.797110	0.871150	0.938500
H231	H23	0.942500	0.732600	0.788500
C691	C69	0.903770	0.730290	0.905160
C701	C70	0.847260	0.780840	0.960680
C711	C71	0.731480	0.922280	0.996090
C721	C72	0.962170	0.636850	0.929470
H241	H24	0.843000	0.754200	0.012800
