data_WEYQAU14_clean_PM
_symmetry_space_group_name_H-M	'P1'
_cell_length_a	14.150000
_cell_length_b	11.860000
_cell_length_c	16.574000
_cell_angle_alpha	90.000000
_cell_angle_beta	90.000000
_cell_angle_gamma	90.000000
_symmetry_Int_Tables_number 1

loop_
_symmetry_equiv_pos_as_xyz
'x,y,z'

loop_
_atom_site_label
_atom_site_type_symbol
_atom_site_fract_x
_atom_site_fract_y
_atom_site_fract_z
Mn11	Mn1	0.610090	0.470720	0.563530
O11	O1	0.796700	0.523600	0.960100
O21	O2	0.787700	0.378400	0.042000
O31	O3	0.603600	0.313700	0.645200
O41	O4	0.491800	0.062300	0.864500
C11	C1	0.642200	0.281600	0.947300
H11	H1	0.641000	0.261600	0.001500
O51	O5	0.504500	0.119300	0.993300
C21	C2	0.763000	0.428400	0.979100
C31	C3	0.698500	0.401900	0.840500
H21	H2	0.733200	0.464300	0.823900
C41	C4	0.648600	0.372300	0.694500
C51	C5	0.698100	0.370600	0.921400
C61	C6	0.525100	0.130100	0.918000
O61	O6	0.693200	0.459700	0.675500
C71	C7	0.592500	0.248500	0.809000
H31	H3	0.559600	0.205300	0.771500
C81	C8	0.587900	0.222400	0.891800
C91	C9	0.646700	0.339400	0.784300
Mn21	Mn2	0.889910	0.529280	0.063530
O71	O7	0.703300	0.476400	0.460100
O81	O8	0.712300	0.621600	0.542000
O91	O9	0.896400	0.686300	0.145200
O101	O10	0.008200	0.937700	0.364500
C101	C10	0.857800	0.718400	0.447300
H41	H4	0.859000	0.738400	0.501500
O111	O11	0.995500	0.880700	0.493300
C111	C11	0.737000	0.571600	0.479100
C121	C12	0.801500	0.598100	0.340500
H51	H5	0.766800	0.535700	0.323900
C131	C13	0.851400	0.627700	0.194500
C141	C14	0.801900	0.629400	0.421400
C151	C15	0.974900	0.869900	0.418000
O121	O12	0.806800	0.540300	0.175500
C161	C16	0.907500	0.751500	0.309000
H61	H6	0.940400	0.794700	0.271500
C171	C17	0.912100	0.777600	0.391800
C181	C18	0.853300	0.660600	0.284300
Mn31	Mn3	0.389910	0.970720	0.936470
O131	O13	0.203300	0.023600	0.539900
O141	O14	0.212300	0.878400	0.458000
O151	O15	0.396400	0.813700	0.854800
O161	O16	0.508200	0.562300	0.635500
C191	C19	0.357800	0.781600	0.552700
H71	H7	0.359000	0.761600	0.498500
O171	O17	0.495500	0.619300	0.506700
C201	C20	0.237000	0.928400	0.520900
C211	C21	0.301500	0.901900	0.659500
H81	H8	0.266800	0.964300	0.676100
C221	C22	0.351400	0.872300	0.805500
C231	C23	0.301900	0.870600	0.578600
C241	C24	0.474900	0.630100	0.582000
O181	O18	0.306800	0.959700	0.824500
C251	C25	0.407500	0.748500	0.691000
H91	H9	0.440400	0.705300	0.728500
C261	C26	0.412100	0.722400	0.608200
C271	C27	0.353300	0.839400	0.715700
Mn41	Mn4	0.110090	0.029280	0.436470
O191	O19	0.296700	0.976400	0.039900
O201	O20	0.287700	0.121600	0.958000
O211	O21	0.103600	0.186300	0.354800
O221	O22	0.991800	0.437700	0.135500
C281	C28	0.142200	0.218400	0.052700
H101	H10	0.141000	0.238400	0.998500
O231	O23	0.004500	0.380700	0.006700
C291	C29	0.263000	0.071600	0.020900
C301	C30	0.198500	0.098100	0.159500
H111	H11	0.233200	0.035700	0.176100
C311	C31	0.148600	0.127700	0.305500
C321	C32	0.198100	0.129400	0.078600
C331	C33	0.025100	0.369900	0.082000
O241	O24	0.193200	0.040300	0.324500
C341	C34	0.092500	0.251500	0.191000
H121	H12	0.059600	0.294700	0.228500
C351	C35	0.087900	0.277600	0.108200
C361	C36	0.146700	0.160600	0.215700
Mn51	Mn5	0.389910	0.529280	0.436470
O251	O25	0.203300	0.476400	0.039900
O261	O26	0.212300	0.621600	0.958000
O271	O27	0.396400	0.686300	0.354800
O281	O28	0.508200	0.937700	0.135500
C371	C37	0.357800	0.718400	0.052700
H131	H13	0.359000	0.738400	0.998500
O291	O29	0.495500	0.880700	0.006700
C381	C38	0.237000	0.571600	0.020900
C391	C39	0.301500	0.598100	0.159500
H141	H14	0.266800	0.535700	0.176100
C401	C40	0.351400	0.627700	0.305500
C411	C41	0.301900	0.629400	0.078600
C421	C42	0.474900	0.869900	0.082000
O301	O30	0.306800	0.540300	0.324500
C431	C43	0.407500	0.751500	0.191000
H151	H15	0.440400	0.794700	0.228500
C441	C44	0.412100	0.777600	0.108200
C451	C45	0.353300	0.660600	0.215700
Mn61	Mn6	0.110090	0.470720	0.936470
O311	O31	0.296700	0.523600	0.539900
O321	O32	0.287700	0.378400	0.458000
O331	O33	0.103600	0.313700	0.854800
O341	O34	0.991800	0.062300	0.635500
C461	C46	0.142200	0.281600	0.552700
H161	H16	0.141000	0.261600	0.498500
O351	O35	0.004500	0.119300	0.506700
C471	C47	0.263000	0.428400	0.520900
C481	C48	0.198500	0.401900	0.659500
H171	H17	0.233200	0.464300	0.676100
C491	C49	0.148600	0.372300	0.805500
C501	C50	0.198100	0.370600	0.578600
C511	C51	0.025100	0.130100	0.582000
O361	O36	0.193200	0.459700	0.824500
C521	C52	0.092500	0.248500	0.691000
H181	H18	0.059600	0.205300	0.728500
C531	C53	0.087900	0.222400	0.608200
C541	C54	0.146700	0.339400	0.715700
Mn71	Mn7	0.610090	0.029280	0.063530
O371	O37	0.796700	0.976400	0.460100
O381	O38	0.787700	0.121600	0.542000
O391	O39	0.603600	0.186300	0.145200
O401	O40	0.491800	0.437700	0.364500
C551	C55	0.642200	0.218400	0.447300
H191	H19	0.641000	0.238400	0.501500
O411	O41	0.504500	0.380700	0.493300
C561	C56	0.763000	0.071600	0.479100
C571	C57	0.698500	0.098100	0.340500
H201	H20	0.733200	0.035700	0.323900
C581	C58	0.648600	0.127700	0.194500
C591	C59	0.698100	0.129400	0.421400
C601	C60	0.525100	0.369900	0.418000
O421	O42	0.693200	0.040300	0.175500
C611	C61	0.592500	0.251500	0.309000
H211	H21	0.559600	0.294700	0.271500
C621	C62	0.587900	0.277600	0.391800
C631	C63	0.646700	0.160600	0.284300
Mn81	Mn8	0.889910	0.970720	0.563530
O431	O43	0.703300	0.023600	0.960100
O441	O44	0.712300	0.878400	0.042000
O451	O45	0.896400	0.813700	0.645200
O461	O46	0.008200	0.562300	0.864500
C641	C64	0.857800	0.781600	0.947300
H221	H22	0.859000	0.761600	0.001500
O471	O47	0.995500	0.619300	0.993300
C651	C65	0.737000	0.928400	0.979100
C661	C66	0.801500	0.901900	0.840500
H231	H23	0.766800	0.964300	0.823900
C671	C67	0.851400	0.872300	0.694500
C681	C68	0.801900	0.870600	0.921400
C691	C69	0.974900	0.630100	0.918000
O481	O48	0.806800	0.959700	0.675500
C701	C70	0.907500	0.748500	0.809000
H241	H24	0.940400	0.705300	0.771500
C711	C71	0.912100	0.722400	0.891800
C721	C72	0.853300	0.839400	0.784300
