data_WEYQAU08_clean_PM
_symmetry_space_group_name_H-M	'P1'
_cell_length_a	14.920400
_cell_length_b	12.473700
_cell_length_c	16.588400
_cell_angle_alpha	90.000000
_cell_angle_beta	90.000000
_cell_angle_gamma	90.000000
_symmetry_Int_Tables_number 1

loop_
_symmetry_equiv_pos_as_xyz
'x,y,z'

loop_
_atom_site_label
_atom_site_type_symbol
_atom_site_fract_x
_atom_site_fract_y
_atom_site_fract_z
Mn11	Mn1	0.604000	0.485580	0.581420
O11	O1	0.592800	0.352500	0.670860
O21	O2	0.670400	0.491500	0.706040
O31	O3	0.527600	0.380500	0.505710
O41	O4	0.498600	0.585400	0.623400
O51	O5	0.708200	0.484900	0.488700
O61	O6	0.698300	0.633600	0.553500
C11	C1	0.635300	0.402800	0.721600
C21	C2	0.640400	0.361400	0.807300
C31	C3	0.694100	0.412500	0.863900
C41	C4	0.592200	0.271000	0.829400
H11	H1	0.724400	0.475000	0.850000
C51	C5	0.703000	0.370400	0.941400
C61	C6	0.596800	0.231800	0.907500
H21	H2	0.556400	0.236400	0.791600
C71	C7	0.768700	0.422300	0.999000
C81	C8	0.652400	0.281000	0.962700
C91	C9	0.538700	0.138900	0.932100
H31	H3	0.656100	0.254100	0.014900
Mn21	Mn2	0.896000	0.514420	0.081420
O71	O7	0.907200	0.647500	0.170860
O81	O8	0.829600	0.508500	0.206040
O91	O9	0.972400	0.619500	0.005710
O101	O10	0.001400	0.414600	0.123400
O111	O11	0.791800	0.515100	0.988700
O121	O12	0.801700	0.366400	0.053500
C101	C10	0.864700	0.597200	0.221600
C111	C11	0.859600	0.638600	0.307300
C121	C12	0.805900	0.587500	0.363900
C131	C13	0.907800	0.729000	0.329400
H41	H4	0.775600	0.525000	0.350000
C141	C14	0.797000	0.629600	0.441400
C151	C15	0.903200	0.768200	0.407500
H51	H5	0.943600	0.763600	0.291600
C161	C16	0.731300	0.577700	0.499000
C171	C17	0.847600	0.719000	0.462700
C181	C18	0.961300	0.861100	0.432100
H61	H6	0.843900	0.745900	0.514900
Mn31	Mn3	0.396000	0.985580	0.918580
O131	O13	0.407200	0.852500	0.829140
O141	O14	0.329600	0.991500	0.793960
O151	O15	0.472400	0.880500	0.994290
O161	O16	0.501400	0.085400	0.876600
O171	O17	0.291800	0.984900	0.011300
O181	O18	0.301700	0.133600	0.946500
C191	C19	0.364700	0.902800	0.778400
C201	C20	0.359600	0.861400	0.692700
C211	C21	0.305900	0.912500	0.636100
C221	C22	0.407800	0.771000	0.670600
H71	H7	0.275600	0.975000	0.650000
C231	C23	0.297000	0.870400	0.558600
C241	C24	0.403200	0.731800	0.592500
H81	H8	0.443600	0.736400	0.708400
C251	C25	0.231300	0.922300	0.501000
C261	C26	0.347600	0.781000	0.537300
C271	C27	0.461300	0.638900	0.567900
H91	H9	0.343900	0.754100	0.485100
Mn41	Mn4	0.104000	0.014420	0.418580
O191	O19	0.092800	0.147500	0.329140
O201	O20	0.170400	0.008500	0.293960
O211	O21	0.027600	0.119500	0.494290
O221	O22	0.998600	0.914600	0.376600
O231	O23	0.208200	0.015100	0.511300
O241	O24	0.198300	0.866400	0.446500
C281	C28	0.135300	0.097200	0.278400
C291	C29	0.140400	0.138600	0.192700
C301	C30	0.194100	0.087500	0.136100
C311	C31	0.092200	0.229000	0.170600
H101	H10	0.224400	0.025000	0.150000
C321	C32	0.203000	0.129600	0.058600
C331	C33	0.096800	0.268200	0.092500
H111	H11	0.056400	0.263600	0.208400
C341	C34	0.268700	0.077700	0.001000
C351	C35	0.152400	0.219000	0.037300
C361	C36	0.038700	0.361100	0.067900
H121	H12	0.156100	0.245900	0.985100
Mn51	Mn5	0.396000	0.514420	0.418580
O251	O25	0.407200	0.647500	0.329140
O261	O26	0.329600	0.508500	0.293960
O271	O27	0.472400	0.619500	0.494290
O281	O28	0.501400	0.414600	0.376600
O291	O29	0.291800	0.515100	0.511300
O301	O30	0.301700	0.366400	0.446500
C371	C37	0.364700	0.597200	0.278400
C381	C38	0.359600	0.638600	0.192700
C391	C39	0.305900	0.587500	0.136100
C401	C40	0.407800	0.729000	0.170600
H131	H13	0.275600	0.525000	0.150000
C411	C41	0.297000	0.629600	0.058600
C421	C42	0.403200	0.768200	0.092500
H141	H14	0.443600	0.763600	0.208400
C431	C43	0.231300	0.577700	0.001000
C441	C44	0.347600	0.719000	0.037300
C451	C45	0.461300	0.861100	0.067900
H151	H15	0.343900	0.745900	0.985100
Mn61	Mn6	0.104000	0.485580	0.918580
O311	O31	0.092800	0.352500	0.829140
O321	O32	0.170400	0.491500	0.793960
O331	O33	0.027600	0.380500	0.994290
O341	O34	0.998600	0.585400	0.876600
O351	O35	0.208200	0.484900	0.011300
O361	O36	0.198300	0.633600	0.946500
C461	C46	0.135300	0.402800	0.778400
C471	C47	0.140400	0.361400	0.692700
C481	C48	0.194100	0.412500	0.636100
C491	C49	0.092200	0.271000	0.670600
H161	H16	0.224400	0.475000	0.650000
C501	C50	0.203000	0.370400	0.558600
C511	C51	0.096800	0.231800	0.592500
H171	H17	0.056400	0.236400	0.708400
C521	C52	0.268700	0.422300	0.501000
C531	C53	0.152400	0.281000	0.537300
C541	C54	0.038700	0.138900	0.567900
H181	H18	0.156100	0.254100	0.485100
Mn71	Mn7	0.604000	0.014420	0.081420
O371	O37	0.592800	0.147500	0.170860
O381	O38	0.670400	0.008500	0.206040
O391	O39	0.527600	0.119500	0.005710
O401	O40	0.498600	0.914600	0.123400
O411	O41	0.708200	0.015100	0.988700
O421	O42	0.698300	0.866400	0.053500
C551	C55	0.635300	0.097200	0.221600
C561	C56	0.640400	0.138600	0.307300
C571	C57	0.694100	0.087500	0.363900
C581	C58	0.592200	0.229000	0.329400
H191	H19	0.724400	0.025000	0.350000
C591	C59	0.703000	0.129600	0.441400
C601	C60	0.596800	0.268200	0.407500
H201	H20	0.556400	0.263600	0.291600
C611	C61	0.768700	0.077700	0.499000
C621	C62	0.652400	0.219000	0.462700
C631	C63	0.538700	0.361100	0.432100
H211	H21	0.656100	0.245900	0.514900
Mn81	Mn8	0.896000	0.985580	0.581420
O431	O43	0.907200	0.852500	0.670860
O441	O44	0.829600	0.991500	0.706040
O451	O45	0.972400	0.880500	0.505710
O461	O46	0.001400	0.085400	0.623400
O471	O47	0.791800	0.984900	0.488700
O481	O48	0.801700	0.133600	0.553500
C641	C64	0.864700	0.902800	0.721600
C651	C65	0.859600	0.861400	0.807300
C661	C66	0.805900	0.912500	0.863900
C671	C67	0.907800	0.771000	0.829400
H221	H22	0.775600	0.975000	0.850000
C681	C68	0.797000	0.870400	0.941400
C691	C69	0.903200	0.731800	0.907500
H231	H23	0.943600	0.736400	0.791600
C701	C70	0.731300	0.922300	0.999000
C711	C71	0.847600	0.781000	0.962700
C721	C72	0.961300	0.638900	0.932100
H241	H24	0.843900	0.754100	0.014900
