data_WEYQAU16_clean_PM
_symmetry_space_group_name_H-M	'P1'
_cell_length_a	14.140000
_cell_length_b	11.319000
_cell_length_c	16.600000
_cell_angle_alpha	90.000000
_cell_angle_beta	90.000000
_cell_angle_gamma	90.000000
_symmetry_Int_Tables_number 1

loop_
_symmetry_equiv_pos_as_xyz
'x,y,z'

loop_
_atom_site_label
_atom_site_type_symbol
_atom_site_fract_x
_atom_site_fract_y
_atom_site_fract_z
Mn11	Mn1	0.611800	0.466100	0.556300
O11	O1	0.801400	0.524000	0.947600
O21	O2	0.784200	0.381000	0.037000
O31	O3	0.609200	0.296000	0.635200
O41	O4	0.483200	0.052000	0.864400
C11	C1	0.638000	0.290000	0.939000
H11	H1	0.630600	0.278600	0.994600
O51	O5	0.498200	0.122000	0.991300
C21	C2	0.762000	0.423000	0.974000
C31	C3	0.705000	0.398000	0.829000
H21	H2	0.747200	0.454700	0.809400
C41	C4	0.652000	0.368000	0.689000
C51	C5	0.699000	0.371000	0.911000
C61	C6	0.519000	0.133000	0.917000
O61	O6	0.704200	0.448000	0.663200
C71	C7	0.596000	0.244000	0.803000
H31	H3	0.566600	0.194300	0.765400
C81	C8	0.586000	0.221000	0.883000
C91	C9	0.645000	0.335000	0.778000
Mn21	Mn2	0.888200	0.533900	0.056300
O71	O7	0.698600	0.476000	0.447600
O81	O8	0.715800	0.619000	0.537000
O91	O9	0.890800	0.704000	0.135200
O101	O10	0.016800	0.948000	0.364400
C101	C10	0.862000	0.710000	0.439000
H41	H4	0.869400	0.721400	0.494600
O111	O11	0.001800	0.878000	0.491300
C111	C11	0.738000	0.577000	0.474000
C121	C12	0.795000	0.602000	0.329000
H51	H5	0.752800	0.545300	0.309400
C131	C13	0.848000	0.632000	0.189000
C141	C14	0.801000	0.629000	0.411000
C151	C15	0.981000	0.867000	0.417000
O121	O12	0.795800	0.552000	0.163200
C161	C16	0.904000	0.756000	0.303000
H61	H6	0.933400	0.805700	0.265400
C171	C17	0.914000	0.779000	0.383000
C181	C18	0.855000	0.665000	0.278000
Mn31	Mn3	0.388200	0.966100	0.943700
O131	O13	0.198600	0.024000	0.552400
O141	O14	0.215800	0.881000	0.463000
O151	O15	0.390800	0.796000	0.864800
O161	O16	0.516800	0.552000	0.635600
C191	C19	0.362000	0.790000	0.561000
H71	H7	0.369400	0.778600	0.505400
O171	O17	0.501800	0.622000	0.508700
C201	C20	0.238000	0.923000	0.526000
C211	C21	0.295000	0.898000	0.671000
H81	H8	0.252800	0.954700	0.690600
C221	C22	0.348000	0.868000	0.811000
C231	C23	0.301000	0.871000	0.589000
C241	C24	0.481000	0.633000	0.583000
O181	O18	0.295800	0.948000	0.836800
C251	C25	0.404000	0.744000	0.697000
H91	H9	0.433400	0.694300	0.734600
C261	C26	0.414000	0.721000	0.617000
C271	C27	0.355000	0.835000	0.722000
Mn41	Mn4	0.111800	0.033900	0.443700
O191	O19	0.301400	0.976000	0.052400
O201	O20	0.284200	0.119000	0.963000
O211	O21	0.109200	0.204000	0.364800
O221	O22	0.983200	0.448000	0.135600
C281	C28	0.138000	0.210000	0.061000
H101	H10	0.130600	0.221400	0.005400
O231	O23	0.998200	0.378000	0.008700
C291	C29	0.262000	0.077000	0.026000
C301	C30	0.205000	0.102000	0.171000
H111	H11	0.247200	0.045300	0.190600
C311	C31	0.152000	0.132000	0.311000
C321	C32	0.199000	0.129000	0.089000
C331	C33	0.019000	0.367000	0.083000
O241	O24	0.204200	0.052000	0.336800
C341	C34	0.096000	0.256000	0.197000
H121	H12	0.066600	0.305700	0.234600
C351	C35	0.086000	0.279000	0.117000
C361	C36	0.145000	0.165000	0.222000
Mn51	Mn5	0.388200	0.533900	0.443700
O251	O25	0.198600	0.476000	0.052400
O261	O26	0.215800	0.619000	0.963000
O271	O27	0.390800	0.704000	0.364800
O281	O28	0.516800	0.948000	0.135600
C371	C37	0.362000	0.710000	0.061000
H131	H13	0.369400	0.721400	0.005400
O291	O29	0.501800	0.878000	0.008700
C381	C38	0.238000	0.577000	0.026000
C391	C39	0.295000	0.602000	0.171000
H141	H14	0.252800	0.545300	0.190600
C401	C40	0.348000	0.632000	0.311000
C411	C41	0.301000	0.629000	0.089000
C421	C42	0.481000	0.867000	0.083000
O301	O30	0.295800	0.552000	0.336800
C431	C43	0.404000	0.756000	0.197000
H151	H15	0.433400	0.805700	0.234600
C441	C44	0.414000	0.779000	0.117000
C451	C45	0.355000	0.665000	0.222000
Mn61	Mn6	0.111800	0.466100	0.943700
O311	O31	0.301400	0.524000	0.552400
O321	O32	0.284200	0.381000	0.463000
O331	O33	0.109200	0.296000	0.864800
O341	O34	0.983200	0.052000	0.635600
C461	C46	0.138000	0.290000	0.561000
H161	H16	0.130600	0.278600	0.505400
O351	O35	0.998200	0.122000	0.508700
C471	C47	0.262000	0.423000	0.526000
C481	C48	0.205000	0.398000	0.671000
H171	H17	0.247200	0.454700	0.690600
C491	C49	0.152000	0.368000	0.811000
C501	C50	0.199000	0.371000	0.589000
C511	C51	0.019000	0.133000	0.583000
O361	O36	0.204200	0.448000	0.836800
C521	C52	0.096000	0.244000	0.697000
H181	H18	0.066600	0.194300	0.734600
C531	C53	0.086000	0.221000	0.617000
C541	C54	0.145000	0.335000	0.722000
Mn71	Mn7	0.611800	0.033900	0.056300
O371	O37	0.801400	0.976000	0.447600
O381	O38	0.784200	0.119000	0.537000
O391	O39	0.609200	0.204000	0.135200
O401	O40	0.483200	0.448000	0.364400
C551	C55	0.638000	0.210000	0.439000
H191	H19	0.630600	0.221400	0.494600
O411	O41	0.498200	0.378000	0.491300
C561	C56	0.762000	0.077000	0.474000
C571	C57	0.705000	0.102000	0.329000
H201	H20	0.747200	0.045300	0.309400
C581	C58	0.652000	0.132000	0.189000
C591	C59	0.699000	0.129000	0.411000
C601	C60	0.519000	0.367000	0.417000
O421	O42	0.704200	0.052000	0.163200
C611	C61	0.596000	0.256000	0.303000
H211	H21	0.566600	0.305700	0.265400
C621	C62	0.586000	0.279000	0.383000
C631	C63	0.645000	0.165000	0.278000
Mn81	Mn8	0.888200	0.966100	0.556300
O431	O43	0.698600	0.024000	0.947600
O441	O44	0.715800	0.881000	0.037000
O451	O45	0.890800	0.796000	0.635200
O461	O46	0.016800	0.552000	0.864400
C641	C64	0.862000	0.790000	0.939000
H221	H22	0.869400	0.778600	0.994600
O471	O47	0.001800	0.622000	0.991300
C651	C65	0.738000	0.923000	0.974000
C661	C66	0.795000	0.898000	0.829000
H231	H23	0.752800	0.954700	0.809400
C671	C67	0.848000	0.868000	0.689000
C681	C68	0.801000	0.871000	0.911000
C691	C69	0.981000	0.633000	0.917000
O481	O48	0.795800	0.948000	0.663200
C701	C70	0.904000	0.744000	0.803000
H241	H24	0.933400	0.694300	0.765400
C711	C71	0.914000	0.721000	0.883000
C721	C72	0.855000	0.835000	0.778000
