data_WEYQAU07_clean_PM
_symmetry_space_group_name_H-M	'P1'
_cell_length_a	14.883700
_cell_length_b	12.455400
_cell_length_c	16.601800
_cell_angle_alpha	90.000000
_cell_angle_beta	90.000000
_cell_angle_gamma	90.000000
_symmetry_Int_Tables_number 1

loop_
_symmetry_equiv_pos_as_xyz
'x,y,z'

loop_
_atom_site_label
_atom_site_type_symbol
_atom_site_fract_x
_atom_site_fract_y
_atom_site_fract_z
O11	O1	0.527000	0.119500	0.005190
O21	O2	0.501100	0.084900	0.876080
C11	C1	0.769400	0.422700	0.998400
O31	O3	0.593400	0.351500	0.669800
C21	C2	0.592500	0.270000	0.828900
H11	H1	0.556800	0.235200	0.791100
C31	C3	0.635500	0.401900	0.720400
O41	O4	0.671200	0.491500	0.705100
C41	C4	0.703100	0.370800	0.940600
C51	C5	0.653100	0.281200	0.962500
H21	H2	0.657400	0.254400	0.014600
C61	C6	0.641100	0.360600	0.806300
C71	C7	0.694300	0.411900	0.862900
H31	H3	0.724600	0.474600	0.848800
C81	C8	0.596700	0.231100	0.906900
C91	C9	0.538600	0.138500	0.931100
Mn11	Mn1	0.604140	0.485190	0.580910
O51	O5	0.791000	0.515900	0.987600
O61	O6	0.802300	0.366700	0.052700
O71	O7	0.973000	0.880500	0.505190
O81	O8	0.998900	0.915100	0.376080
C101	C10	0.730600	0.577300	0.498400
O91	O9	0.906600	0.648500	0.169800
C111	C11	0.907500	0.730000	0.328900
H41	H4	0.943200	0.764800	0.291100
C121	C12	0.864500	0.598100	0.220400
O101	O10	0.828800	0.508500	0.205100
C131	C13	0.796900	0.629200	0.440600
C141	C14	0.846900	0.718800	0.462500
H51	H5	0.842600	0.745600	0.514600
C151	C15	0.858900	0.639400	0.306300
C161	C16	0.805700	0.588100	0.362900
H61	H6	0.775400	0.525400	0.348800
C171	C17	0.903300	0.768900	0.406900
C181	C18	0.961400	0.861500	0.431100
Mn21	Mn2	0.895860	0.514810	0.080910
O111	O11	0.709000	0.484100	0.487600
O121	O12	0.697700	0.633300	0.552700
O131	O13	0.473000	0.619500	0.494810
O141	O14	0.498900	0.584900	0.623920
C191	C19	0.230600	0.922700	0.501600
O151	O15	0.406600	0.851500	0.830200
C201	C20	0.407500	0.770000	0.671100
H71	H7	0.443200	0.735200	0.708900
C211	C21	0.364500	0.901900	0.779600
O161	O16	0.328800	0.991500	0.794900
C221	C22	0.296900	0.870800	0.559400
C231	C23	0.346900	0.781200	0.537500
H81	H8	0.342600	0.754400	0.485400
C241	C24	0.358900	0.860600	0.693700
C251	C25	0.305700	0.911900	0.637100
H91	H9	0.275400	0.974600	0.651200
C261	C26	0.403300	0.731100	0.593100
C271	C27	0.461400	0.638500	0.568900
Mn31	Mn3	0.395860	0.985190	0.919090
O171	O17	0.209000	0.015900	0.512400
O181	O18	0.197700	0.866700	0.447300
O191	O19	0.027000	0.380500	0.994810
O201	O20	0.001100	0.415100	0.123920
C281	C28	0.269400	0.077300	0.001600
O211	O21	0.093400	0.148500	0.330200
C291	C29	0.092500	0.230000	0.171100
H101	H10	0.056800	0.264800	0.208900
C301	C30	0.135500	0.098100	0.279600
O221	O22	0.171200	0.008500	0.294900
C311	C31	0.203100	0.129200	0.059400
C321	C32	0.153100	0.218800	0.037500
H111	H11	0.157400	0.245600	0.985400
C331	C33	0.141100	0.139400	0.193700
C341	C34	0.194300	0.088100	0.137100
H121	H12	0.224600	0.025400	0.151200
C351	C35	0.096700	0.268900	0.093100
C361	C36	0.038600	0.361500	0.068900
Mn41	Mn4	0.104140	0.014810	0.419090
O231	O23	0.291000	0.984100	0.012400
O241	O24	0.302300	0.133300	0.947300
O251	O25	0.473000	0.880500	0.994810
O261	O26	0.498900	0.915100	0.123920
C371	C37	0.230600	0.577300	0.001600
O271	O27	0.406600	0.648500	0.330200
C381	C38	0.407500	0.730000	0.171100
H131	H13	0.443200	0.764800	0.208900
C391	C39	0.364500	0.598100	0.279600
O281	O28	0.328800	0.508500	0.294900
C401	C40	0.296900	0.629200	0.059400
C411	C41	0.346900	0.718800	0.037500
H141	H14	0.342600	0.745600	0.985400
C421	C42	0.358900	0.639400	0.193700
C431	C43	0.305700	0.588100	0.137100
H151	H15	0.275400	0.525400	0.151200
C441	C44	0.403300	0.768900	0.093100
C451	C45	0.461400	0.861500	0.068900
Mn51	Mn5	0.395860	0.514810	0.419090
O291	O29	0.209000	0.484100	0.012400
O301	O30	0.197700	0.633300	0.947300
O311	O31	0.027000	0.119500	0.494810
O321	O32	0.001100	0.084900	0.623920
C461	C46	0.269400	0.422700	0.501600
O331	O33	0.093400	0.351500	0.830200
C471	C47	0.092500	0.270000	0.671100
H161	H16	0.056800	0.235200	0.708900
C481	C48	0.135500	0.401900	0.779600
O341	O34	0.171200	0.491500	0.794900
C491	C49	0.203100	0.370800	0.559400
C501	C50	0.153100	0.281200	0.537500
H171	H17	0.157400	0.254400	0.485400
C511	C51	0.141100	0.360600	0.693700
C521	C52	0.194300	0.411900	0.637100
H181	H18	0.224600	0.474600	0.651200
C531	C53	0.096700	0.231100	0.593100
C541	C54	0.038600	0.138500	0.568900
Mn61	Mn6	0.104140	0.485190	0.919090
O351	O35	0.291000	0.515900	0.512400
O361	O36	0.302300	0.366700	0.447300
O371	O37	0.527000	0.380500	0.505190
O381	O38	0.501100	0.415100	0.376080
C551	C55	0.769400	0.077300	0.498400
O391	O39	0.593400	0.148500	0.169800
C561	C56	0.592500	0.230000	0.328900
H191	H19	0.556800	0.264800	0.291100
C571	C57	0.635500	0.098100	0.220400
O401	O40	0.671200	0.008500	0.205100
C581	C58	0.703100	0.129200	0.440600
C591	C59	0.653100	0.218800	0.462500
H201	H20	0.657400	0.245600	0.514600
C601	C60	0.641100	0.139400	0.306300
C611	C61	0.694300	0.088100	0.362900
H211	H21	0.724600	0.025400	0.348800
C621	C62	0.596700	0.268900	0.406900
C631	C63	0.538600	0.361500	0.431100
Mn71	Mn7	0.604140	0.014810	0.080910
O411	O41	0.791000	0.984100	0.487600
O421	O42	0.802300	0.133300	0.552700
O431	O43	0.973000	0.619500	0.005190
O441	O44	0.998900	0.584900	0.876080
C641	C64	0.730600	0.922700	0.998400
O451	O45	0.906600	0.851500	0.669800
C651	C65	0.907500	0.770000	0.828900
H221	H22	0.943200	0.735200	0.791100
C661	C66	0.864500	0.901900	0.720400
O461	O46	0.828800	0.991500	0.705100
C671	C67	0.796900	0.870800	0.940600
C681	C68	0.846900	0.781200	0.962500
H231	H23	0.842600	0.754400	0.014600
C691	C69	0.858900	0.860600	0.806300
C701	C70	0.805700	0.911900	0.862900
H241	H24	0.775400	0.974600	0.848800
C711	C71	0.903300	0.731100	0.906900
C721	C72	0.961400	0.638500	0.931100
Mn81	Mn8	0.895860	0.985190	0.580910
O471	O47	0.709000	0.015900	0.987600
O481	O48	0.697700	0.866700	0.052700
