data_WIDQEG_clean_PM
_symmetry_space_group_name_H-M	'P1'
_cell_length_a	6.809100
_cell_length_b	16.412800
_cell_length_c	13.567400
_cell_angle_alpha	90.000000
_cell_angle_beta	90.000000
_cell_angle_gamma	90.000000
_symmetry_Int_Tables_number 1

loop_
_symmetry_equiv_pos_as_xyz
'x,y,z'

loop_
_atom_site_label
_atom_site_type_symbol
_atom_site_fract_x
_atom_site_fract_y
_atom_site_fract_z
O11	O1	0.311800	0.163200	0.655500
O21	O2	0.641500	0.162600	0.666500
C11	C1	0.322500	0.032900	0.526100
H11	H1	0.201500	0.055400	0.542500
C21	C2	0.667500	0.032300	0.536900
H21	H2	0.783000	0.054800	0.561100
C31	C3	0.491100	0.064900	0.565000
C41	C4	0.478100	0.136600	0.633300
O31	O3	0.188200	0.836800	0.155500
O41	O4	0.858500	0.837400	0.166500
C51	C5	0.177500	0.967100	0.026100
H31	H3	0.298500	0.944600	0.042500
C61	C6	0.832500	0.967700	0.036900
H41	H4	0.717000	0.945200	0.061100
C71	C7	0.008900	0.935100	0.065000
C81	C8	0.021900	0.863400	0.133300
O51	O5	0.688200	0.663200	0.344500
O61	O6	0.358500	0.662600	0.333500
C91	C9	0.677500	0.532900	0.473900
H51	H5	0.798500	0.555400	0.457500
C101	C10	0.332500	0.532300	0.463100
H61	H6	0.217000	0.554800	0.438900
C111	C11	0.508900	0.564900	0.435000
C121	C12	0.521900	0.636600	0.366700
O71	O7	0.811800	0.336800	0.844500
O81	O8	0.141500	0.337400	0.833500
C131	C13	0.822500	0.467100	0.973900
H71	H7	0.701500	0.444600	0.957500
C141	C14	0.167500	0.467700	0.963100
H81	H8	0.283000	0.445200	0.938900
C151	C15	0.991100	0.435100	0.935000
C161	C16	0.978100	0.363400	0.866700
O91	O9	0.688200	0.836800	0.344500
O101	O10	0.358500	0.837400	0.333500
C171	C17	0.677500	0.967100	0.473900
H91	H9	0.798500	0.944600	0.457500
C181	C18	0.332500	0.967700	0.463100
H101	H10	0.217000	0.945200	0.438900
C191	C19	0.508900	0.935100	0.435000
C201	C20	0.521900	0.863400	0.366700
O111	O11	0.811800	0.163200	0.844500
O121	O12	0.141500	0.162600	0.833500
C211	C21	0.822500	0.032900	0.973900
H111	H11	0.701500	0.055400	0.957500
C221	C22	0.167500	0.032300	0.963100
H121	H12	0.283000	0.054800	0.938900
C231	C23	0.991100	0.064900	0.935000
C241	C24	0.978100	0.136600	0.866700
O131	O13	0.311800	0.336800	0.655500
O141	O14	0.641500	0.337400	0.666500
C251	C25	0.322500	0.467100	0.526100
H131	H13	0.201500	0.444600	0.542500
C261	C26	0.667500	0.467700	0.536900
H141	H14	0.783000	0.445200	0.561100
C271	C27	0.491100	0.435100	0.565000
C281	C28	0.478100	0.363400	0.633300
O151	O15	0.188200	0.663200	0.155500
O161	O16	0.858500	0.662600	0.166500
C291	C29	0.177500	0.532900	0.026100
H151	H15	0.298500	0.555400	0.042500
C301	C30	0.832500	0.532300	0.036900
H161	H16	0.717000	0.554800	0.061100
C311	C31	0.008900	0.564900	0.065000
C321	C32	0.021900	0.636600	0.133300
O171	O17	0.475100	0.250000	0.808400
V11	V1	0.200200	0.250000	0.739160
O181	O18	0.024900	0.750000	0.308400
V21	V2	0.299800	0.750000	0.239160
O191	O19	0.524900	0.750000	0.191600
V31	V3	0.799800	0.750000	0.260840
O201	O20	0.975100	0.250000	0.691600
V41	V4	0.700200	0.250000	0.760840
