data_WIDWOX_clean_PM
_symmetry_space_group_name_H-M	'P1'
_cell_length_a	24.368700
_cell_length_b	24.368700
_cell_length_c	47.322000
_cell_angle_alpha	90.000000
_cell_angle_beta	90.000000
_cell_angle_gamma	90.000000
_symmetry_Int_Tables_number 1

loop_
_symmetry_equiv_pos_as_xyz
'x,y,z'

loop_
_atom_site_label
_atom_site_type_symbol
_atom_site_fract_x
_atom_site_fract_y
_atom_site_fract_z
La11	La1	0.081480	0.378470	0.637240
Ag11	Ag1	0.129700	0.706740	0.441150
Ag21	Ag2	0.147490	0.607450	0.499870
Ag31	Ag3	0.189130	0.503530	0.462870
Ag41	Ag4	0.201920	0.592850	0.406450
Ag51	Ag5	0.267580	0.737020	0.460550
Ag61	Ag6	0.277960	0.655840	0.518660
Ag71	Ag7	0.325180	0.556880	0.477450
Ag81	Ag8	0.339700	0.639700	0.412680
Ni11	Ni1	0.044220	0.565120	0.436590
Ni21	Ni2	0.426240	0.687740	0.482270
Ni31	Ni3	0.235530	0.747590	0.377100
Ni41	Ni4	0.242930	0.495930	0.545250
Ni51	Ni5	0.160950	0.773550	0.520760
Ni61	Ni6	0.315560	0.473070	0.404710
S11	S1	0.076100	0.629130	0.463660
S21	S2	0.124230	0.533400	0.425210
S31	S3	0.345490	0.716510	0.494710
S41	S4	0.395350	0.620830	0.456550
S51	S5	0.296240	0.732240	0.409440
S61	S6	0.175990	0.690660	0.394160
S71	S7	0.298660	0.557380	0.529400
S81	S8	0.177530	0.513340	0.515400
S91	S9	0.182710	0.688550	0.527770
S101	S10	0.175490	0.770810	0.475830
S111	S11	0.285650	0.480450	0.447560
S121	S12	0.294100	0.555950	0.392640
O11	O1	0.883100	0.614800	0.473000
O21	O2	0.893000	0.699600	0.474800
O31	O3	0.044200	0.368100	0.391610
O41	O4	0.978600	0.427800	0.380420
O51	O5	0.487000	0.824000	0.541940
O61	O6	0.418800	0.812500	0.572700
O71	O7	0.589100	0.609400	0.461500
O81	O8	0.571400	0.600500	0.413000
O91	O9	0.428900	0.841600	0.359700
O101	O10	0.350600	0.886500	0.354410
O111	O11	0.115400	0.755000	0.304200
O121	O12	0.041100	0.750800	0.327700
O131	O13	0.388600	0.449800	0.599600
O141	O14	0.410600	0.534900	0.612500
O151	O15	0.118500	0.391500	0.588780
O161	O16	0.069000	0.367500	0.552450
O171	O17	0.203200	0.723300	0.626150
O181	O18	0.125600	0.767000	0.614820
O191	O19	0.129100	0.953900	0.506700
O201	O20	0.089200	0.944400	0.463800
O211	O21	0.362900	0.298600	0.434290
O221	O22	0.284300	0.286600	0.456220
O231	O23	0.340500	0.448500	0.310930
O241	O24	0.378800	0.530800	0.302390
O251	O25	0.087100	0.433300	0.687060
N11	N1	0.971400	0.593400	0.444340
N21	N2	0.012400	0.505500	0.415030
N31	N3	0.456500	0.739000	0.509470
N41	N4	0.499200	0.670700	0.468560
N51	N5	0.287300	0.797200	0.359880
N61	N6	0.183100	0.765700	0.348370
N71	N7	0.295800	0.481200	0.574350
N81	N8	0.199300	0.435900	0.559040
N91	N9	0.157600	0.783300	0.561480
N101	N10	0.132400	0.846200	0.516350
N111	N11	0.327600	0.396600	0.411330
N121	N12	0.346500	0.462900	0.367430
C11	C1	0.968600	0.647500	0.457200
H11	H1	0.975400	0.675700	0.442900
C21	C2	0.011200	0.652200	0.480840
C31	C3	0.019500	0.711400	0.491500
H21	H2	0.986500	0.724000	0.500400
H31	H3	0.028100	0.734900	0.475800
H41	H4	0.049200	0.712200	0.504800
C41	C4	0.998400	0.615600	0.505500
H51	H5	0.965000	0.627600	0.514300
H61	H6	0.027900	0.617300	0.518900
H71	H7	0.994100	0.578500	0.499000
C51	C5	0.910800	0.655900	0.470300
C61	C6	0.048900	0.457700	0.411880
H81	H8	0.054300	0.441600	0.430700
C71	C7	0.105200	0.476600	0.401050
C81	C8	0.101500	0.498300	0.371040
H91	H9	0.091600	0.468900	0.358500
H101	H10	0.136400	0.513000	0.365500
H111	H11	0.074200	0.526600	0.370100
C91	C9	0.149400	0.433800	0.402900
H121	H12	0.140500	0.403800	0.390600
H131	H13	0.152000	0.420800	0.422000
H141	H14	0.183800	0.449600	0.397300
C101	C10	0.021900	0.413500	0.392800
C111	C11	0.418100	0.755700	0.530620
H151	H15	0.410200	0.723600	0.542400
C121	C12	0.364100	0.775000	0.517920
C131	C13	0.371700	0.825800	0.499370
H161	H16	0.381300	0.856600	0.511000
H171	H17	0.338100	0.833500	0.489600
H181	H18	0.400400	0.819200	0.485900
C141	C14	0.318700	0.781500	0.539760
H191	H19	0.327400	0.811600	0.552100
H201	H20	0.315600	0.748400	0.550600
H211	H21	0.284600	0.788700	0.530300
C151	C15	0.443600	0.802000	0.550800
C161	C16	0.499600	0.632300	0.443700
H221	H22	0.488200	0.653000	0.427000
C171	C17	0.460800	0.585900	0.447530
C181	C18	0.452000	0.551800	0.421760
H231	H23	0.485500	0.533200	0.417000
H241	H24	0.441200	0.574900	0.406300
H251	H25	0.423800	0.525200	0.425300
C191	C19	0.475700	0.550700	0.472800
H261	H26	0.509300	0.531600	0.469100
H271	H27	0.446900	0.524700	0.476300
H281	H28	0.480300	0.573700	0.489100
C201	C20	0.560300	0.613600	0.439200
C211	C21	0.345300	0.794100	0.369680
H291	H29	0.362300	0.761800	0.360900
C221	C22	0.346800	0.786500	0.401410
C231	C23	0.401400	0.767900	0.413500
H301	H30	0.428800	0.795200	0.409700
H311	H31	0.411900	0.733800	0.404900
H321	H32	0.397900	0.762800	0.433500
C241	C24	0.329800	0.838900	0.416400
H331	H33	0.356000	0.867400	0.412400
H341	H34	0.328600	0.832600	0.436400
H351	H35	0.294200	0.850000	0.409900
C251	C25	0.377500	0.845400	0.360100
C261	C26	0.125000	0.748600	0.354300
H361	H36	0.108700	0.773200	0.368400
C271	C27	0.123900	0.688700	0.365440
C281	C28	0.070400	0.670700	0.377800
H371	H37	0.043100	0.669300	0.363200
H381	H38	0.059200	0.696300	0.392100
H391	H39	0.074600	0.634900	0.386100
C291	C29	0.145700	0.648600	0.343000
H401	H40	0.119900	0.646000	0.327700
H411	H41	0.150700	0.613000	0.351300
H421	H42	0.180200	0.661700	0.335800
C301	C30	0.090900	0.750500	0.326500
C311	C31	0.335900	0.525300	0.580060
H431	H43	0.317700	0.554800	0.590600
C321	C32	0.359000	0.548600	0.552930
C331	C33	0.385800	0.603600	0.557500
H441	H44	0.417100	0.599400	0.569600
H451	H45	0.360000	0.628300	0.566100
H461	H46	0.397400	0.618300	0.539600
C341	C34	0.399000	0.508700	0.538050
H471	H47	0.430900	0.503500	0.549700
H481	H48	0.409800	0.523800	0.520200
H491	H49	0.381100	0.474100	0.535100
C351	C35	0.383500	0.499700	0.599160
C361	C36	0.148600	0.421400	0.543010
H501	H50	0.158400	0.397400	0.527200
C371	C37	0.120100	0.474900	0.531090
C381	C38	0.096400	0.507000	0.555200
H511	H51	0.066500	0.486900	0.563400
H521	H52	0.083400	0.541800	0.548400
H531	H53	0.124300	0.512900	0.569200
C391	C39	0.080700	0.461200	0.507780
H541	H54	0.050300	0.441000	0.515400
H551	H55	0.099100	0.439300	0.493800
H561	H56	0.067700	0.494400	0.499200
C401	C40	0.108700	0.389400	0.563500
C411	C41	0.183200	0.738300	0.577890
H571	H57	0.223000	0.741400	0.575500
C421	C42	0.165800	0.682000	0.566040
C431	C43	0.103300	0.672200	0.569300
H581	H58	0.094400	0.668600	0.588900
H591	H59	0.093200	0.639200	0.559500
H601	H60	0.083600	0.702700	0.561400
C441	C44	0.197200	0.635000	0.578140
H611	H61	0.188800	0.631400	0.597900
H621	H62	0.235800	0.641500	0.575900
H631	H63	0.187300	0.601800	0.568400
C451	C45	0.170700	0.745300	0.609300
C461	C46	0.120300	0.861100	0.486500
H641	H64	0.085900	0.843900	0.480500
C471	C47	0.166500	0.843600	0.466900
C481	C48	0.223300	0.873400	0.473900
H651	H65	0.220500	0.911700	0.469400
H661	H66	0.252100	0.857100	0.462900
H671	H67	0.231400	0.869200	0.493700
C491	C49	0.114100	0.926500	0.485800
C501	C50	0.154700	0.848500	0.435900
H681	H68	0.150200	0.886500	0.431000
H691	H69	0.121700	0.828800	0.431500
H701	H70	0.184800	0.833400	0.425300
C511	C51	0.299300	0.374500	0.437070
H711	H71	0.259900	0.373000	0.433000
C521	C52	0.307500	0.412900	0.461150
C531	C53	0.367800	0.416100	0.468980
H721	H72	0.379800	0.381200	0.476100
H731	H73	0.372900	0.443700	0.483200
H741	H74	0.388900	0.425500	0.452500
C541	C54	0.275400	0.398600	0.486990
H751	H75	0.287100	0.363500	0.493900
H761	H76	0.237100	0.397100	0.482400
H771	H77	0.281500	0.425900	0.501200
C551	C55	0.319400	0.314300	0.442950
C561	C56	0.350500	0.512800	0.349130
H781	H78	0.383300	0.533200	0.354900
C571	C57	0.300900	0.549700	0.354020
C581	C58	0.250600	0.524100	0.342400
H791	H79	0.254000	0.520900	0.322200
H801	H80	0.219400	0.546500	0.346900
H811	H81	0.245900	0.488300	0.350400
C591	C59	0.310500	0.607300	0.342400
H821	H82	0.314300	0.605500	0.322200
H831	H83	0.343400	0.622200	0.350400
H841	H84	0.279900	0.630300	0.347100
C601	C60	0.358200	0.495700	0.318900
O261	O26	0.168400	0.413700	0.664500
C611	C61	0.134800	0.437700	0.687300
C621	C62	0.166200	0.471400	0.713600
H851	H85	0.149300	0.462000	0.731300
H861	H86	0.163100	0.510200	0.710500
H871	H87	0.204300	0.461300	0.714100
La21	La2	0.918520	0.621530	0.137240
Ag91	Ag9	0.870300	0.293260	0.941150
Ag101	Ag10	0.852510	0.392550	0.999870
Ag111	Ag11	0.810870	0.496470	0.962870
Ag121	Ag12	0.798080	0.407150	0.906450
Ag131	Ag13	0.732420	0.262980	0.960550
Ag141	Ag14	0.722040	0.344160	0.018660
Ag151	Ag15	0.674820	0.443120	0.977450
Ag161	Ag16	0.660300	0.360300	0.912680
Ni71	Ni7	0.955780	0.434880	0.936590
Ni81	Ni8	0.573760	0.312260	0.982270
Ni91	Ni9	0.764470	0.252410	0.877100
Ni101	Ni10	0.757070	0.504070	0.045250
Ni111	Ni11	0.839050	0.226450	0.020760
Ni121	Ni12	0.684440	0.526930	0.904710
S131	S13	0.923900	0.370870	0.963660
S141	S14	0.875770	0.466600	0.925210
S151	S15	0.654510	0.283490	0.994710
S161	S16	0.604650	0.379170	0.956550
S171	S17	0.703760	0.267760	0.909440
S181	S18	0.824010	0.309340	0.894160
S191	S19	0.701340	0.442620	0.029400
S201	S20	0.822470	0.486660	0.015400
S211	S21	0.817290	0.311450	0.027770
S221	S22	0.824510	0.229190	0.975830
S231	S23	0.714350	0.519550	0.947560
S241	S24	0.705900	0.444050	0.892640
O271	O27	0.116900	0.385200	0.973000
O281	O28	0.107000	0.300400	0.974800
O291	O29	0.955800	0.631900	0.891610
O301	O30	0.021400	0.572200	0.880420
O311	O31	0.513000	0.176000	0.041940
O321	O32	0.581200	0.187500	0.072700
O331	O33	0.410900	0.390600	0.961500
O341	O34	0.428600	0.399500	0.913000
O351	O35	0.571100	0.158400	0.859700
O361	O36	0.649400	0.113500	0.854410
O371	O37	0.884600	0.245000	0.804200
O381	O38	0.958900	0.249200	0.827700
O391	O39	0.611400	0.550200	0.099600
O401	O40	0.589400	0.465100	0.112500
O411	O41	0.881500	0.608500	0.088780
O421	O42	0.931000	0.632500	0.052450
O431	O43	0.796800	0.276700	0.126150
O441	O44	0.874400	0.233000	0.114820
O451	O45	0.870900	0.046100	0.006700
O461	O46	0.910800	0.055600	0.963800
O471	O47	0.637100	0.701400	0.934290
O481	O48	0.715700	0.713400	0.956220
O491	O49	0.659500	0.551500	0.810930
O501	O50	0.621200	0.469200	0.802390
O511	O51	0.912900	0.566700	0.187060
N131	N13	0.028600	0.406600	0.944340
N141	N14	0.987600	0.494500	0.915030
N151	N15	0.543500	0.261000	0.009470
N161	N16	0.500800	0.329300	0.968560
N171	N17	0.712700	0.202800	0.859880
N181	N18	0.816900	0.234300	0.848370
N191	N19	0.704200	0.518800	0.074350
N201	N20	0.800700	0.564100	0.059040
N211	N21	0.842400	0.216700	0.061480
N221	N22	0.867600	0.153800	0.016350
N231	N23	0.672400	0.603400	0.911330
N241	N24	0.653500	0.537100	0.867430
C631	C63	0.031400	0.352500	0.957200
H881	H88	0.024600	0.324300	0.942900
C641	C64	0.988800	0.347800	0.980840
C651	C65	0.980500	0.288600	0.991500
H891	H89	0.013500	0.276000	0.000400
H901	H90	0.971900	0.265100	0.975800
H911	H91	0.950800	0.287800	0.004800
C661	C66	0.001600	0.384400	0.005500
H921	H92	0.035000	0.372400	0.014300
H931	H93	0.972100	0.382700	0.018900
H941	H94	0.005900	0.421500	0.999000
C671	C67	0.089200	0.344100	0.970300
C681	C68	0.951100	0.542300	0.911880
H951	H95	0.945700	0.558400	0.930700
C691	C69	0.894800	0.523400	0.901050
C701	C70	0.898500	0.501700	0.871040
H961	H96	0.908400	0.531100	0.858500
H971	H97	0.863600	0.487000	0.865500
H981	H98	0.925800	0.473400	0.870100
C711	C71	0.850600	0.566200	0.902900
H991	H99	0.859500	0.596200	0.890600
H1001	H100	0.848000	0.579200	0.922000
H1011	H101	0.816200	0.550400	0.897300
C721	C72	0.978100	0.586500	0.892800
C731	C73	0.581900	0.244300	0.030620
H1021	H102	0.589800	0.276400	0.042400
C741	C74	0.635900	0.225000	0.017920
C751	C75	0.628300	0.174200	0.999370
H1031	H103	0.618700	0.143400	0.011000
H1041	H104	0.661900	0.166500	0.989600
H1051	H105	0.599600	0.180800	0.985900
C761	C76	0.681300	0.218500	0.039760
H1061	H106	0.672600	0.188400	0.052100
H1071	H107	0.684400	0.251600	0.050600
H1081	H108	0.715400	0.211300	0.030300
C771	C77	0.556400	0.198000	0.050800
C781	C78	0.500400	0.367700	0.943700
H1091	H109	0.511800	0.347000	0.927000
C791	C79	0.539200	0.414100	0.947530
C801	C80	0.548000	0.448200	0.921760
H1101	H110	0.514500	0.466800	0.917000
H1111	H111	0.558800	0.425100	0.906300
H1121	H112	0.576200	0.474800	0.925300
C811	C81	0.524300	0.449300	0.972800
H1131	H113	0.490700	0.468400	0.969100
H1141	H114	0.553100	0.475300	0.976300
H1151	H115	0.519700	0.426300	0.989100
C821	C82	0.439700	0.386400	0.939200
C831	C83	0.654700	0.205900	0.869680
H1161	H116	0.637700	0.238200	0.860900
C841	C84	0.653200	0.213500	0.901410
C851	C85	0.598600	0.232100	0.913500
H1171	H117	0.571200	0.204800	0.909700
H1181	H118	0.588100	0.266200	0.904900
H1191	H119	0.602100	0.237200	0.933500
C861	C86	0.670200	0.161100	0.916400
H1201	H120	0.644000	0.132600	0.912400
H1211	H121	0.671400	0.167400	0.936400
H1221	H122	0.705800	0.150000	0.909900
C871	C87	0.622500	0.154600	0.860100
C881	C88	0.875000	0.251400	0.854300
H1231	H123	0.891300	0.226800	0.868400
C891	C89	0.876100	0.311300	0.865440
C901	C90	0.929600	0.329300	0.877800
H1241	H124	0.956900	0.330700	0.863200
H1251	H125	0.940800	0.303700	0.892100
H1261	H126	0.925400	0.365100	0.886100
C911	C91	0.854300	0.351400	0.843000
H1271	H127	0.880100	0.354000	0.827700
H1281	H128	0.849300	0.387000	0.851300
H1291	H129	0.819800	0.338300	0.835800
C921	C92	0.909100	0.249500	0.826500
C931	C93	0.664100	0.474700	0.080060
H1301	H130	0.682300	0.445200	0.090600
C941	C94	0.641000	0.451400	0.052930
C951	C95	0.614200	0.396400	0.057500
H1311	H131	0.582900	0.400600	0.069600
H1321	H132	0.640000	0.371700	0.066100
H1331	H133	0.602600	0.381700	0.039600
C961	C96	0.601000	0.491300	0.038050
H1341	H134	0.569100	0.496500	0.049700
H1351	H135	0.590200	0.476200	0.020200
H1361	H136	0.618900	0.525900	0.035100
C971	C97	0.616500	0.500300	0.099160
C981	C98	0.851400	0.578600	0.043010
H1371	H137	0.841600	0.602600	0.027200
C991	C99	0.879900	0.525100	0.031090
C1001	C100	0.903600	0.493000	0.055200
H1381	H138	0.933500	0.513100	0.063400
H1391	H139	0.916600	0.458200	0.048400
H1401	H140	0.875700	0.487100	0.069200
C1011	C101	0.919300	0.538800	0.007780
H1411	H141	0.949700	0.559000	0.015400
H1421	H142	0.900900	0.560700	0.993800
H1431	H143	0.932300	0.505600	0.999200
C1021	C102	0.891300	0.610600	0.063500
C1031	C103	0.816800	0.261700	0.077890
H1441	H144	0.777000	0.258600	0.075500
C1041	C104	0.834200	0.318000	0.066040
C1051	C105	0.896700	0.327800	0.069300
H1451	H145	0.905600	0.331400	0.088900
H1461	H146	0.906800	0.360800	0.059500
H1471	H147	0.916400	0.297300	0.061400
C1061	C106	0.802800	0.365000	0.078140
H1481	H148	0.811200	0.368600	0.097900
H1491	H149	0.764200	0.358500	0.075900
H1501	H150	0.812700	0.398200	0.068400
C1071	C107	0.829300	0.254700	0.109300
C1081	C108	0.879700	0.138900	0.986500
H1511	H151	0.914100	0.156100	0.980500
C1091	C109	0.833500	0.156400	0.966900
C1101	C110	0.776700	0.126600	0.973900
H1521	H152	0.779500	0.088300	0.969400
H1531	H153	0.747900	0.142900	0.962900
H1541	H154	0.768600	0.130800	0.993700
C1111	C111	0.885900	0.073500	0.985800
C1121	C112	0.845300	0.151500	0.935900
H1551	H155	0.849800	0.113500	0.931000
H1561	H156	0.878300	0.171200	0.931500
H1571	H157	0.815200	0.166600	0.925300
C1131	C113	0.700700	0.625500	0.937070
H1581	H158	0.740100	0.627000	0.933000
C1141	C114	0.692500	0.587100	0.961150
C1151	C115	0.632200	0.583900	0.968980
H1591	H159	0.620200	0.618800	0.976100
H1601	H160	0.627100	0.556300	0.983200
H1611	H161	0.611100	0.574500	0.952500
C1161	C116	0.724600	0.601400	0.986990
H1621	H162	0.712900	0.636500	0.993900
H1631	H163	0.762900	0.602900	0.982400
H1641	H164	0.718500	0.574100	0.001200
C1171	C117	0.680600	0.685700	0.942950
C1181	C118	0.649500	0.487200	0.849130
H1651	H165	0.616700	0.466800	0.854900
C1191	C119	0.699100	0.450300	0.854020
C1201	C120	0.749400	0.475900	0.842400
H1661	H166	0.746000	0.479100	0.822200
H1671	H167	0.780600	0.453500	0.846900
H1681	H168	0.754100	0.511700	0.850400
C1211	C121	0.689500	0.392700	0.842400
H1691	H169	0.685700	0.394500	0.822200
H1701	H170	0.656600	0.377800	0.850400
H1711	H171	0.720100	0.369700	0.847100
C1221	C122	0.641800	0.504300	0.818900
O521	O52	0.831600	0.586300	0.164500
C1231	C123	0.865200	0.562300	0.187300
C1241	C124	0.833800	0.528600	0.213600
H1721	H172	0.850700	0.538000	0.231300
H1731	H173	0.836900	0.489800	0.210500
H1741	H174	0.795700	0.538700	0.214100
La31	La3	0.121530	0.581480	0.887240
Ag171	Ag17	0.793260	0.629700	0.691150
Ag181	Ag18	0.892550	0.647490	0.749870
Ag191	Ag19	0.996470	0.689130	0.712870
Ag201	Ag20	0.907150	0.701920	0.656450
Ag211	Ag21	0.762980	0.767580	0.710550
Ag221	Ag22	0.844160	0.777960	0.768660
Ag231	Ag23	0.943120	0.825180	0.727450
Ag241	Ag24	0.860300	0.839700	0.662680
Ni131	Ni13	0.934880	0.544220	0.686590
Ni141	Ni14	0.812260	0.926240	0.732270
Ni151	Ni15	0.752410	0.735530	0.627100
Ni161	Ni16	0.004070	0.742930	0.795250
Ni171	Ni17	0.726450	0.660950	0.770760
Ni181	Ni18	0.026930	0.815560	0.654710
S251	S25	0.870870	0.576100	0.713660
S261	S26	0.966600	0.624230	0.675210
S271	S27	0.783490	0.845490	0.744710
S281	S28	0.879170	0.895350	0.706550
S291	S29	0.767760	0.796240	0.659440
S301	S30	0.809340	0.675990	0.644160
S311	S31	0.942620	0.798660	0.779400
S321	S32	0.986660	0.677530	0.765400
S331	S33	0.811450	0.682710	0.777770
S341	S34	0.729190	0.675490	0.725830
S351	S35	0.019550	0.785650	0.697560
S361	S36	0.944050	0.794100	0.642640
O531	O53	0.885200	0.383100	0.723000
O541	O54	0.800400	0.393000	0.724800
O551	O55	0.131900	0.544200	0.641610
O561	O56	0.072200	0.478600	0.630420
O571	O57	0.676000	0.987000	0.791940
O581	O58	0.687500	0.918800	0.822700
O591	O59	0.890600	0.089100	0.711500
O601	O60	0.899500	0.071400	0.663000
O611	O61	0.658400	0.928900	0.609700
O621	O62	0.613500	0.850600	0.604410
O631	O63	0.745000	0.615400	0.554200
O641	O64	0.749200	0.541100	0.577700
O651	O65	0.050200	0.888600	0.849600
O661	O66	0.965100	0.910600	0.862500
O671	O67	0.108500	0.618500	0.838780
O681	O68	0.132500	0.569000	0.802450
O691	O69	0.776700	0.703200	0.876150
O701	O70	0.733000	0.625600	0.864820
O711	O71	0.546100	0.629100	0.756700
O721	O72	0.555600	0.589200	0.713800
O731	O73	0.201400	0.862900	0.684290
O741	O74	0.213400	0.784300	0.706220
O751	O75	0.051500	0.840500	0.560930
O761	O76	0.969200	0.878800	0.552390
O771	O77	0.066700	0.587100	0.937060
N251	N25	0.906600	0.471400	0.694340
N261	N26	0.994500	0.512400	0.665030
N271	N27	0.761000	0.956500	0.759470
N281	N28	0.829300	0.999200	0.718560
N291	N29	0.702800	0.787300	0.609880
N301	N30	0.734300	0.683100	0.598370
N311	N31	0.018800	0.795800	0.824350
N321	N32	0.064100	0.699300	0.809040
N331	N33	0.716700	0.657600	0.811480
N341	N34	0.653800	0.632400	0.766350
N351	N35	0.103400	0.827600	0.661330
N361	N36	0.037100	0.846500	0.617430
C1251	C125	0.852500	0.468600	0.707200
H1751	H175	0.824300	0.475400	0.692900
C1261	C126	0.847800	0.511200	0.730840
C1271	C127	0.788600	0.519500	0.741500
H1761	H176	0.776000	0.486500	0.750400
H1771	H177	0.765100	0.528100	0.725800
H1781	H178	0.787800	0.549200	0.754800
C1281	C128	0.884400	0.498400	0.755500
H1791	H179	0.872400	0.465000	0.764300
H1801	H180	0.882700	0.527900	0.768900
H1811	H181	0.921500	0.494100	0.749000
C1291	C129	0.844100	0.410800	0.720300
C1301	C130	0.042300	0.548900	0.661880
H1821	H182	0.058400	0.554300	0.680700
C1311	C131	0.023400	0.605200	0.651050
C1321	C132	0.001700	0.601500	0.621040
H1831	H183	0.031100	0.591600	0.608500
H1841	H184	0.987000	0.636400	0.615500
H1851	H185	0.973400	0.574200	0.620100
C1331	C133	0.066200	0.649400	0.652900
H1861	H186	0.096200	0.640500	0.640600
H1871	H187	0.079200	0.652000	0.672000
H1881	H188	0.050400	0.683800	0.647300
C1341	C134	0.086500	0.521900	0.642800
C1351	C135	0.744300	0.918100	0.780620
H1891	H189	0.776400	0.910200	0.792400
C1361	C136	0.725000	0.864100	0.767920
C1371	C137	0.674200	0.871700	0.749370
H1901	H190	0.643400	0.881300	0.761000
H1911	H191	0.666500	0.838100	0.739600
H1921	H192	0.680800	0.900400	0.735900
C1381	C138	0.718500	0.818700	0.789760
H1931	H193	0.688400	0.827400	0.802100
H1941	H194	0.751600	0.815600	0.800600
H1951	H195	0.711300	0.784600	0.780300
C1391	C139	0.698000	0.943600	0.800800
C1401	C140	0.867700	0.999600	0.693700
H1961	H196	0.847000	0.988200	0.677000
C1411	C141	0.914100	0.960800	0.697530
C1421	C142	0.948200	0.952000	0.671760
H1971	H197	0.966800	0.985500	0.667000
H1981	H198	0.925100	0.941200	0.656300
H1991	H199	0.974800	0.923800	0.675300
C1431	C143	0.949300	0.975700	0.722800
H2001	H200	0.968400	0.009300	0.719100
H2011	H201	0.975300	0.946900	0.726300
H2021	H202	0.926300	0.980300	0.739100
C1441	C144	0.886400	0.060300	0.689200
C1451	C145	0.705900	0.845300	0.619680
H2031	H203	0.738200	0.862300	0.610900
C1461	C146	0.713500	0.846800	0.651410
C1471	C147	0.732100	0.901400	0.663500
H2041	H204	0.704800	0.928800	0.659700
H2051	H205	0.766200	0.911900	0.654900
H2061	H206	0.737200	0.897900	0.683500
C1481	C148	0.661100	0.829800	0.666400
H2071	H207	0.632600	0.856000	0.662400
H2081	H208	0.667400	0.828600	0.686400
H2091	H209	0.650000	0.794200	0.659900
C1491	C149	0.654600	0.877500	0.610100
C1501	C150	0.751400	0.625000	0.604300
H2101	H210	0.726800	0.608700	0.618400
C1511	C151	0.811300	0.623900	0.615440
C1521	C152	0.829300	0.570400	0.627800
H2111	H211	0.830700	0.543100	0.613200
H2121	H212	0.803700	0.559200	0.642100
H2131	H213	0.865100	0.574600	0.636100
C1531	C153	0.851400	0.645700	0.593000
H2141	H214	0.854000	0.619900	0.577700
H2151	H215	0.887000	0.650700	0.601300
H2161	H216	0.838300	0.680200	0.585800
C1541	C154	0.749500	0.590900	0.576500
C1551	C155	0.974700	0.835900	0.830060
H2171	H217	0.945200	0.817700	0.840600
C1561	C156	0.951400	0.859000	0.802930
C1571	C157	0.896400	0.885800	0.807500
H2181	H218	0.900600	0.917100	0.819600
H2191	H219	0.871700	0.860000	0.816100
H2201	H220	0.881700	0.897400	0.789600
C1581	C158	0.991300	0.899000	0.788050
H2211	H221	0.996500	0.930900	0.799700
H2221	H222	0.976200	0.909800	0.770200
H2231	H223	0.025900	0.881100	0.785100
C1591	C159	0.000300	0.883500	0.849160
C1601	C160	0.078600	0.648600	0.793010
H2241	H224	0.102600	0.658400	0.777200
C1611	C161	0.025100	0.620100	0.781090
C1621	C162	0.993000	0.596400	0.805200
H2251	H225	0.013100	0.566500	0.813400
H2261	H226	0.958200	0.583400	0.798400
H2271	H227	0.987100	0.624300	0.819200
C1631	C163	0.038800	0.580700	0.757780
H2281	H228	0.059000	0.550300	0.765400
H2291	H229	0.060700	0.599100	0.743800
H2301	H230	0.005600	0.567700	0.749200
C1641	C164	0.110600	0.608700	0.813500
C1651	C165	0.761700	0.683200	0.827890
H2311	H231	0.758600	0.723000	0.825500
C1661	C166	0.818000	0.665800	0.816040
C1671	C167	0.827800	0.603300	0.819300
H2321	H232	0.831400	0.594400	0.838900
H2331	H233	0.860800	0.593200	0.809500
H2341	H234	0.797300	0.583600	0.811400
C1681	C168	0.865000	0.697200	0.828140
H2351	H235	0.868600	0.688800	0.847900
H2361	H236	0.858500	0.735800	0.825900
H2371	H237	0.898200	0.687300	0.818400
C1691	C169	0.754700	0.670700	0.859300
C1701	C170	0.638900	0.620300	0.736500
H2381	H238	0.656100	0.585900	0.730500
C1711	C171	0.656400	0.666500	0.716900
C1721	C172	0.626600	0.723300	0.723900
H2391	H239	0.588300	0.720500	0.719400
H2401	H240	0.642900	0.752100	0.712900
H2411	H241	0.630800	0.731400	0.743700
C1731	C173	0.573500	0.614100	0.735800
C1741	C174	0.651500	0.654700	0.685900
H2421	H242	0.613500	0.650200	0.681000
H2431	H243	0.671200	0.621700	0.681500
H2441	H244	0.666600	0.684800	0.675300
C1751	C175	0.125500	0.799300	0.687070
H2451	H245	0.127000	0.759900	0.683000
C1761	C176	0.087100	0.807500	0.711150
C1771	C177	0.083900	0.867800	0.718980
H2461	H246	0.118800	0.879800	0.726100
H2471	H247	0.056300	0.872900	0.733200
H2481	H248	0.074500	0.888900	0.702500
C1781	C178	0.101400	0.775400	0.736990
H2491	H249	0.136500	0.787100	0.743900
H2501	H250	0.102900	0.737100	0.732400
H2511	H251	0.074100	0.781500	0.751200
C1791	C179	0.185700	0.819400	0.692950
C1801	C180	0.987200	0.850500	0.599130
H2521	H252	0.966800	0.883300	0.604900
C1811	C181	0.950300	0.800900	0.604020
C1821	C182	0.975900	0.750600	0.592400
H2531	H253	0.979100	0.754000	0.572200
H2541	H254	0.953500	0.719400	0.596900
H2551	H255	0.011700	0.745900	0.600400
C1831	C183	0.892700	0.810500	0.592400
H2561	H256	0.894500	0.814300	0.572200
H2571	H257	0.877800	0.843400	0.600400
H2581	H258	0.869700	0.779900	0.597100
C1841	C184	0.004300	0.858200	0.568900
O781	O78	0.086300	0.668400	0.914500
C1851	C185	0.062300	0.634800	0.937300
C1861	C186	0.028600	0.666200	0.963600
H2591	H259	0.038000	0.649300	0.981300
H2601	H260	0.989800	0.663100	0.960500
H2611	H261	0.038700	0.704300	0.964100
La41	La4	0.878470	0.418520	0.387240
Ag251	Ag25	0.206740	0.370300	0.191150
Ag261	Ag26	0.107450	0.352510	0.249870
Ag271	Ag27	0.003530	0.310870	0.212870
Ag281	Ag28	0.092850	0.298080	0.156450
Ag291	Ag29	0.237020	0.232420	0.210550
Ag301	Ag30	0.155840	0.222040	0.268660
Ag311	Ag31	0.056880	0.174820	0.227450
Ag321	Ag32	0.139700	0.160300	0.162680
Ni191	Ni19	0.065120	0.455780	0.186590
Ni201	Ni20	0.187740	0.073760	0.232270
Ni211	Ni21	0.247590	0.264470	0.127100
Ni221	Ni22	0.995930	0.257070	0.295250
Ni231	Ni23	0.273550	0.339050	0.270760
Ni241	Ni24	0.973070	0.184440	0.154710
S371	S37	0.129130	0.423900	0.213660
S381	S38	0.033400	0.375770	0.175210
S391	S39	0.216510	0.154510	0.244710
S401	S40	0.120830	0.104650	0.206550
S411	S41	0.232240	0.203760	0.159440
S421	S42	0.190660	0.324010	0.144160
S431	S43	0.057380	0.201340	0.279400
S441	S44	0.013340	0.322470	0.265400
S451	S45	0.188550	0.317290	0.277770
S461	S46	0.270810	0.324510	0.225830
S471	S47	0.980450	0.214350	0.197560
S481	S48	0.055950	0.205900	0.142640
O791	O79	0.114800	0.616900	0.223000
O801	O80	0.199600	0.607000	0.224800
O811	O81	0.868100	0.455800	0.141610
O821	O82	0.927800	0.521400	0.130420
O831	O83	0.324000	0.013000	0.291940
O841	O84	0.312500	0.081200	0.322700
O851	O85	0.109400	0.910900	0.211500
O861	O86	0.100500	0.928600	0.163000
O871	O87	0.341600	0.071100	0.109700
O881	O88	0.386500	0.149400	0.104410
O891	O89	0.255000	0.384600	0.054200
O901	O90	0.250800	0.458900	0.077700
O911	O91	0.949800	0.111400	0.349600
O921	O92	0.034900	0.089400	0.362500
O931	O93	0.891500	0.381500	0.338780
O941	O94	0.867500	0.431000	0.302450
O951	O95	0.223300	0.296800	0.376150
O961	O96	0.267000	0.374400	0.364820
O971	O97	0.453900	0.370900	0.256700
O981	O98	0.444400	0.410800	0.213800
O991	O99	0.798600	0.137100	0.184290
O1001	O100	0.786600	0.215700	0.206220
O1011	O101	0.948500	0.159500	0.060930
O1021	O102	0.030800	0.121200	0.052390
O1031	O103	0.933300	0.412900	0.437060
N371	N37	0.093400	0.528600	0.194340
N381	N38	0.005500	0.487600	0.165030
N391	N39	0.239000	0.043500	0.259470
N401	N40	0.170700	0.000800	0.218560
N411	N41	0.297200	0.212700	0.109880
N421	N42	0.265700	0.316900	0.098370
N431	N43	0.981200	0.204200	0.324350
N441	N44	0.935900	0.300700	0.309040
N451	N45	0.283300	0.342400	0.311480
N461	N46	0.346200	0.367600	0.266350
N471	N47	0.896600	0.172400	0.161330
N481	N48	0.962900	0.153500	0.117430
C1871	C187	0.147500	0.531400	0.207200
H2621	H262	0.175700	0.524600	0.192900
C1881	C188	0.152200	0.488800	0.230840
C1891	C189	0.211400	0.480500	0.241500
H2631	H263	0.224000	0.513500	0.250400
H2641	H264	0.234900	0.471900	0.225800
H2651	H265	0.212200	0.450800	0.254800
C1901	C190	0.115600	0.501600	0.255500
H2661	H266	0.127600	0.535000	0.264300
H2671	H267	0.117300	0.472100	0.268900
H2681	H268	0.078500	0.505900	0.249000
C1911	C191	0.155900	0.589200	0.220300
C1921	C192	0.957700	0.451100	0.161880
H2691	H269	0.941600	0.445700	0.180700
C1931	C193	0.976600	0.394800	0.151050
C1941	C194	0.998300	0.398500	0.121040
H2701	H270	0.968900	0.408400	0.108500
H2711	H271	0.013000	0.363600	0.115500
H2721	H272	0.026600	0.425800	0.120100
C1951	C195	0.933800	0.350600	0.152900
H2731	H273	0.903800	0.359500	0.140600
H2741	H274	0.920800	0.348000	0.172000
H2751	H275	0.949600	0.316200	0.147300
C1961	C196	0.913500	0.478100	0.142800
C1971	C197	0.255700	0.081900	0.280620
H2761	H276	0.223600	0.089800	0.292400
C1981	C198	0.275000	0.135900	0.267920
C1991	C199	0.325800	0.128300	0.249370
H2771	H277	0.356600	0.118700	0.261000
H2781	H278	0.333500	0.161900	0.239600
H2791	H279	0.319200	0.099600	0.235900
C2001	C200	0.281500	0.181300	0.289760
H2801	H280	0.311600	0.172600	0.302100
H2811	H281	0.248400	0.184400	0.300600
H2821	H282	0.288700	0.215400	0.280300
C2011	C201	0.302000	0.056400	0.300800
C2021	C202	0.132300	0.000400	0.193700
H2831	H283	0.153000	0.011800	0.177000
C2031	C203	0.085900	0.039200	0.197530
C2041	C204	0.051800	0.048000	0.171760
H2841	H284	0.033200	0.014500	0.167000
H2851	H285	0.074900	0.058800	0.156300
H2861	H286	0.025200	0.076200	0.175300
C2051	C205	0.050700	0.024300	0.222800
H2871	H287	0.031600	0.990700	0.219100
H2881	H288	0.024700	0.053100	0.226300
H2891	H289	0.073700	0.019700	0.239100
C2061	C206	0.113600	0.939700	0.189200
C2071	C207	0.294100	0.154700	0.119680
H2901	H290	0.261800	0.137700	0.110900
C2081	C208	0.286500	0.153200	0.151410
C2091	C209	0.267900	0.098600	0.163500
H2911	H291	0.295200	0.071200	0.159700
H2921	H292	0.233800	0.088100	0.154900
H2931	H293	0.262800	0.102100	0.183500
C2101	C210	0.338900	0.170200	0.166400
H2941	H294	0.367400	0.144000	0.162400
H2951	H295	0.332600	0.171400	0.186400
H2961	H296	0.350000	0.205800	0.159900
C2111	C211	0.345400	0.122500	0.110100
C2121	C212	0.248600	0.375000	0.104300
H2971	H297	0.273200	0.391300	0.118400
C2131	C213	0.188700	0.376100	0.115440
C2141	C214	0.170700	0.429600	0.127800
H2981	H298	0.169300	0.456900	0.113200
H2991	H299	0.196300	0.440800	0.142100
H3001	H300	0.134900	0.425400	0.136100
C2151	C215	0.148600	0.354300	0.093000
H3011	H301	0.146000	0.380100	0.077700
H3021	H302	0.113000	0.349300	0.101300
H3031	H303	0.161700	0.319800	0.085800
C2161	C216	0.250500	0.409100	0.076500
C2171	C217	0.025300	0.164100	0.330060
H3041	H304	0.054800	0.182300	0.340600
C2181	C218	0.048600	0.141000	0.302930
C2191	C219	0.103600	0.114200	0.307500
H3051	H305	0.099400	0.082900	0.319600
H3061	H306	0.128300	0.140000	0.316100
H3071	H307	0.118300	0.102600	0.289600
C2201	C220	0.008700	0.101000	0.288050
H3081	H308	0.003500	0.069100	0.299700
H3091	H309	0.023800	0.090200	0.270200
H3101	H310	0.974100	0.118900	0.285100
C2211	C221	0.999700	0.116500	0.349160
C2221	C222	0.921400	0.351400	0.293010
H3111	H311	0.897400	0.341600	0.277200
C2231	C223	0.974900	0.379900	0.281090
C2241	C224	0.007000	0.403600	0.305200
H3121	H312	0.986900	0.433500	0.313400
H3131	H313	0.041800	0.416600	0.298400
H3141	H314	0.012900	0.375700	0.319200
C2251	C225	0.961200	0.419300	0.257780
H3151	H315	0.941000	0.449700	0.265400
H3161	H316	0.939300	0.400900	0.243800
H3171	H317	0.994400	0.432300	0.249200
C2261	C226	0.889400	0.391300	0.313500
C2271	C227	0.238300	0.316800	0.327890
H3181	H318	0.241400	0.277000	0.325500
C2281	C228	0.182000	0.334200	0.316040
C2291	C229	0.172200	0.396700	0.319300
H3191	H319	0.168600	0.405600	0.338900
H3201	H320	0.139200	0.406800	0.309500
H3211	H321	0.202700	0.416400	0.311400
C2301	C230	0.135000	0.302800	0.328140
H3221	H322	0.131400	0.311200	0.347900
H3231	H323	0.141500	0.264200	0.325900
H3241	H324	0.101800	0.312700	0.318400
C2311	C231	0.245300	0.329300	0.359300
C2321	C232	0.361100	0.379700	0.236500
H3251	H325	0.343900	0.414100	0.230500
C2331	C233	0.343600	0.333500	0.216900
C2341	C234	0.373400	0.276700	0.223900
H3261	H326	0.411700	0.279500	0.219400
H3271	H327	0.357100	0.247900	0.212900
H3281	H328	0.369200	0.268600	0.243700
C2351	C235	0.426500	0.385900	0.235800
C2361	C236	0.348500	0.345300	0.185900
H3291	H329	0.386500	0.349800	0.181000
H3301	H330	0.328800	0.378300	0.181500
H3311	H331	0.333400	0.315200	0.175300
C2371	C237	0.874500	0.200700	0.187070
H3321	H332	0.873000	0.240100	0.183000
C2381	C238	0.912900	0.192500	0.211150
C2391	C239	0.916100	0.132200	0.218980
H3331	H333	0.881200	0.120200	0.226100
H3341	H334	0.943700	0.127100	0.233200
H3351	H335	0.925500	0.111100	0.202500
C2401	C240	0.898600	0.224600	0.236990
H3361	H336	0.863500	0.212900	0.243900
H3371	H337	0.897100	0.262900	0.232400
H3381	H338	0.925900	0.218500	0.251200
C2411	C241	0.814300	0.180600	0.192950
C2421	C242	0.012800	0.149500	0.099130
H3391	H339	0.033200	0.116700	0.104900
C2431	C243	0.049700	0.199100	0.104020
C2441	C244	0.024100	0.249400	0.092400
H3401	H340	0.020900	0.246000	0.072200
H3411	H341	0.046500	0.280600	0.096900
H3421	H342	0.988300	0.254100	0.100400
C2451	C245	0.107300	0.189500	0.092400
H3431	H343	0.105500	0.185700	0.072200
H3441	H344	0.122200	0.156600	0.100400
H3451	H345	0.130300	0.220100	0.097100
C2461	C246	0.995700	0.141800	0.068900
O1041	O104	0.913700	0.331600	0.414500
C2471	C247	0.937700	0.365200	0.437300
C2481	C248	0.971400	0.333800	0.463600
H3461	H346	0.962000	0.350700	0.481300
H3471	H347	0.010200	0.336900	0.460500
H3481	H348	0.961300	0.295700	0.464100
La51	La5	0.418520	0.878470	0.612760
Ag331	Ag33	0.370300	0.206740	0.808850
Ag341	Ag34	0.352510	0.107450	0.750130
Ag351	Ag35	0.310870	0.003530	0.787130
Ag361	Ag36	0.298080	0.092850	0.843550
Ag371	Ag37	0.232420	0.237020	0.789450
Ag381	Ag38	0.222040	0.155840	0.731340
Ag391	Ag39	0.174820	0.056880	0.772550
Ag401	Ag40	0.160300	0.139700	0.837320
Ni251	Ni25	0.455780	0.065120	0.813410
Ni261	Ni26	0.073760	0.187740	0.767730
Ni271	Ni27	0.264470	0.247590	0.872900
Ni281	Ni28	0.257070	0.995930	0.704750
Ni291	Ni29	0.339050	0.273550	0.729240
Ni301	Ni30	0.184440	0.973070	0.845290
S491	S49	0.423900	0.129130	0.786340
S501	S50	0.375770	0.033400	0.824790
S511	S51	0.154510	0.216510	0.755290
S521	S52	0.104650	0.120830	0.793450
S531	S53	0.203760	0.232240	0.840560
S541	S54	0.324010	0.190660	0.855840
S551	S55	0.201340	0.057380	0.720600
S561	S56	0.322470	0.013340	0.734600
S571	S57	0.317290	0.188550	0.722230
S581	S58	0.324510	0.270810	0.774170
S591	S59	0.214350	0.980450	0.802440
S601	S60	0.205900	0.055950	0.857360
O1051	O105	0.616900	0.114800	0.777000
O1061	O106	0.607000	0.199600	0.775200
O1071	O107	0.455800	0.868100	0.858390
O1081	O108	0.521400	0.927800	0.869580
O1091	O109	0.013000	0.324000	0.708060
O1101	O110	0.081200	0.312500	0.677300
O1111	O111	0.910900	0.109400	0.788500
O1121	O112	0.928600	0.100500	0.837000
O1131	O113	0.071100	0.341600	0.890300
O1141	O114	0.149400	0.386500	0.895590
O1151	O115	0.384600	0.255000	0.945800
O1161	O116	0.458900	0.250800	0.922300
O1171	O117	0.111400	0.949800	0.650400
O1181	O118	0.089400	0.034900	0.637500
O1191	O119	0.381500	0.891500	0.661220
O1201	O120	0.431000	0.867500	0.697550
O1211	O121	0.296800	0.223300	0.623850
O1221	O122	0.374400	0.267000	0.635180
O1231	O123	0.370900	0.453900	0.743300
O1241	O124	0.410800	0.444400	0.786200
O1251	O125	0.137100	0.798600	0.815710
O1261	O126	0.215700	0.786600	0.793780
O1271	O127	0.159500	0.948500	0.939070
O1281	O128	0.121200	0.030800	0.947610
O1291	O129	0.412900	0.933300	0.562940
N491	N49	0.528600	0.093400	0.805660
N501	N50	0.487600	0.005500	0.834970
N511	N51	0.043500	0.239000	0.740530
N521	N52	0.000800	0.170700	0.781440
N531	N53	0.212700	0.297200	0.890120
N541	N54	0.316900	0.265700	0.901630
N551	N55	0.204200	0.981200	0.675650
N561	N56	0.300700	0.935900	0.690960
N571	N57	0.342400	0.283300	0.688520
N581	N58	0.367600	0.346200	0.733650
N591	N59	0.172400	0.896600	0.838670
N601	N60	0.153500	0.962900	0.882570
C2491	C249	0.531400	0.147500	0.792800
H3491	H349	0.524600	0.175700	0.807100
C2501	C250	0.488800	0.152200	0.769160
C2511	C251	0.480500	0.211400	0.758500
H3501	H350	0.513500	0.224000	0.749600
H3511	H351	0.471900	0.234900	0.774200
H3521	H352	0.450800	0.212200	0.745200
C2521	C252	0.501600	0.115600	0.744500
H3531	H353	0.535000	0.127600	0.735700
H3541	H354	0.472100	0.117300	0.731100
H3551	H355	0.505900	0.078500	0.751000
C2531	C253	0.589200	0.155900	0.779700
C2541	C254	0.451100	0.957700	0.838120
H3561	H356	0.445700	0.941600	0.819300
C2551	C255	0.394800	0.976600	0.848950
C2561	C256	0.398500	0.998300	0.878960
H3571	H357	0.408400	0.968900	0.891500
H3581	H358	0.363600	0.013000	0.884500
H3591	H359	0.425800	0.026600	0.879900
C2571	C257	0.350600	0.933800	0.847100
H3601	H360	0.359500	0.903800	0.859400
H3611	H361	0.348000	0.920800	0.828000
H3621	H362	0.316200	0.949600	0.852700
C2581	C258	0.478100	0.913500	0.857200
C2591	C259	0.081900	0.255700	0.719380
H3631	H363	0.089800	0.223600	0.707600
C2601	C260	0.135900	0.275000	0.732080
C2611	C261	0.128300	0.325800	0.750630
H3641	H364	0.118700	0.356600	0.739000
H3651	H365	0.161900	0.333500	0.760400
H3661	H366	0.099600	0.319200	0.764100
C2621	C262	0.181300	0.281500	0.710240
H3671	H367	0.172600	0.311600	0.697900
H3681	H368	0.184400	0.248400	0.699400
H3691	H369	0.215400	0.288700	0.719700
C2631	C263	0.056400	0.302000	0.699200
C2641	C264	0.000400	0.132300	0.806300
H3701	H370	0.011800	0.153000	0.823000
C2651	C265	0.039200	0.085900	0.802470
C2661	C266	0.048000	0.051800	0.828240
H3711	H371	0.014500	0.033200	0.833000
H3721	H372	0.058800	0.074900	0.843700
H3731	H373	0.076200	0.025200	0.824700
C2671	C267	0.024300	0.050700	0.777200
H3741	H374	0.990700	0.031600	0.780900
H3751	H375	0.053100	0.024700	0.773700
H3761	H376	0.019700	0.073700	0.760900
C2681	C268	0.939700	0.113600	0.810800
C2691	C269	0.154700	0.294100	0.880320
H3771	H377	0.137700	0.261800	0.889100
C2701	C270	0.153200	0.286500	0.848590
C2711	C271	0.098600	0.267900	0.836500
H3781	H378	0.071200	0.295200	0.840300
H3791	H379	0.088100	0.233800	0.845100
H3801	H380	0.102100	0.262800	0.816500
C2721	C272	0.170200	0.338900	0.833600
H3811	H381	0.144000	0.367400	0.837600
H3821	H382	0.171400	0.332600	0.813600
H3831	H383	0.205800	0.350000	0.840100
C2731	C273	0.122500	0.345400	0.889900
C2741	C274	0.375000	0.248600	0.895700
H3841	H384	0.391300	0.273200	0.881600
C2751	C275	0.376100	0.188700	0.884560
C2761	C276	0.429600	0.170700	0.872200
H3851	H385	0.456900	0.169300	0.886800
H3861	H386	0.440800	0.196300	0.857900
H3871	H387	0.425400	0.134900	0.863900
C2771	C277	0.354300	0.148600	0.907000
H3881	H388	0.380100	0.146000	0.922300
H3891	H389	0.349300	0.113000	0.898700
H3901	H390	0.319800	0.161700	0.914200
C2781	C278	0.409100	0.250500	0.923500
C2791	C279	0.164100	0.025300	0.669940
H3911	H391	0.182300	0.054800	0.659400
C2801	C280	0.141000	0.048600	0.697070
C2811	C281	0.114200	0.103600	0.692500
H3921	H392	0.082900	0.099400	0.680400
H3931	H393	0.140000	0.128300	0.683900
H3941	H394	0.102600	0.118300	0.710400
C2821	C282	0.101000	0.008700	0.711950
H3951	H395	0.069100	0.003500	0.700300
H3961	H396	0.090200	0.023800	0.729800
H3971	H397	0.118900	0.974100	0.714900
C2831	C283	0.116500	0.999700	0.650840
C2841	C284	0.351400	0.921400	0.706990
H3981	H398	0.341600	0.897400	0.722800
C2851	C285	0.379900	0.974900	0.718910
C2861	C286	0.403600	0.007000	0.694800
H3991	H399	0.433500	0.986900	0.686600
H4001	H400	0.416600	0.041800	0.701600
H4011	H401	0.375700	0.012900	0.680800
C2871	C287	0.419300	0.961200	0.742220
H4021	H402	0.449700	0.941000	0.734600
H4031	H403	0.400900	0.939300	0.756200
H4041	H404	0.432300	0.994400	0.750800
C2881	C288	0.391300	0.889400	0.686500
C2891	C289	0.316800	0.238300	0.672110
H4051	H405	0.277000	0.241400	0.674500
C2901	C290	0.334200	0.182000	0.683960
C2911	C291	0.396700	0.172200	0.680700
H4061	H406	0.405600	0.168600	0.661100
H4071	H407	0.406800	0.139200	0.690500
H4081	H408	0.416400	0.202700	0.688600
C2921	C292	0.302800	0.135000	0.671860
H4091	H409	0.311200	0.131400	0.652100
H4101	H410	0.264200	0.141500	0.674100
H4111	H411	0.312700	0.101800	0.681600
C2931	C293	0.329300	0.245300	0.640700
C2941	C294	0.379700	0.361100	0.763500
H4121	H412	0.414100	0.343900	0.769500
C2951	C295	0.333500	0.343600	0.783100
C2961	C296	0.276700	0.373400	0.776100
H4131	H413	0.279500	0.411700	0.780600
H4141	H414	0.247900	0.357100	0.787100
H4151	H415	0.268600	0.369200	0.756300
C2971	C297	0.385900	0.426500	0.764200
C2981	C298	0.345300	0.348500	0.814100
H4161	H416	0.349800	0.386500	0.819000
H4171	H417	0.378300	0.328800	0.818500
H4181	H418	0.315200	0.333400	0.824700
C2991	C299	0.200700	0.874500	0.812930
H4191	H419	0.240100	0.873000	0.817000
C3001	C300	0.192500	0.912900	0.788850
C3011	C301	0.132200	0.916100	0.781020
H4201	H420	0.120200	0.881200	0.773900
H4211	H421	0.127100	0.943700	0.766800
H4221	H422	0.111100	0.925500	0.797500
C3021	C302	0.224600	0.898600	0.763010
H4231	H423	0.212900	0.863500	0.756100
H4241	H424	0.262900	0.897100	0.767600
H4251	H425	0.218500	0.925900	0.748800
C3031	C303	0.180600	0.814300	0.807050
C3041	C304	0.149500	0.012800	0.900870
H4261	H426	0.116700	0.033200	0.895100
C3051	C305	0.199100	0.049700	0.895980
C3061	C306	0.249400	0.024100	0.907600
H4271	H427	0.246000	0.020900	0.927800
H4281	H428	0.280600	0.046500	0.903100
H4291	H429	0.254100	0.988300	0.899600
C3071	C307	0.189500	0.107300	0.907600
H4301	H430	0.185700	0.105500	0.927800
H4311	H431	0.156600	0.122200	0.899600
H4321	H432	0.220100	0.130300	0.902900
C3081	C308	0.141800	0.995700	0.931100
O1301	O130	0.331600	0.913700	0.585500
C3091	C309	0.365200	0.937700	0.562700
C3101	C310	0.333800	0.971400	0.536400
H4331	H433	0.350700	0.962000	0.518700
H4341	H434	0.336900	0.010200	0.539500
H4351	H435	0.295700	0.961300	0.535900
La61	La6	0.581480	0.121530	0.112760
Ag411	Ag41	0.629700	0.793260	0.308850
Ag421	Ag42	0.647490	0.892550	0.250130
Ag431	Ag43	0.689130	0.996470	0.287130
Ag441	Ag44	0.701920	0.907150	0.343550
Ag451	Ag45	0.767580	0.762980	0.289450
Ag461	Ag46	0.777960	0.844160	0.231340
Ag471	Ag47	0.825180	0.943120	0.272550
Ag481	Ag48	0.839700	0.860300	0.337320
Ni311	Ni31	0.544220	0.934880	0.313410
Ni321	Ni32	0.926240	0.812260	0.267730
Ni331	Ni33	0.735530	0.752410	0.372900
Ni341	Ni34	0.742930	0.004070	0.204750
Ni351	Ni35	0.660950	0.726450	0.229240
Ni361	Ni36	0.815560	0.026930	0.345290
S611	S61	0.576100	0.870870	0.286340
S621	S62	0.624230	0.966600	0.324790
S631	S63	0.845490	0.783490	0.255290
S641	S64	0.895350	0.879170	0.293450
S651	S65	0.796240	0.767760	0.340560
S661	S66	0.675990	0.809340	0.355840
S671	S67	0.798660	0.942620	0.220600
S681	S68	0.677530	0.986660	0.234600
S691	S69	0.682710	0.811450	0.222230
S701	S70	0.675490	0.729190	0.274170
S711	S71	0.785650	0.019550	0.302440
S721	S72	0.794100	0.944050	0.357360
O1311	O131	0.383100	0.885200	0.277000
O1321	O132	0.393000	0.800400	0.275200
O1331	O133	0.544200	0.131900	0.358390
O1341	O134	0.478600	0.072200	0.369580
O1351	O135	0.987000	0.676000	0.208060
O1361	O136	0.918800	0.687500	0.177300
O1371	O137	0.089100	0.890600	0.288500
O1381	O138	0.071400	0.899500	0.337000
O1391	O139	0.928900	0.658400	0.390300
O1401	O140	0.850600	0.613500	0.395590
O1411	O141	0.615400	0.745000	0.445800
O1421	O142	0.541100	0.749200	0.422300
O1431	O143	0.888600	0.050200	0.150400
O1441	O144	0.910600	0.965100	0.137500
O1451	O145	0.618500	0.108500	0.161220
O1461	O146	0.569000	0.132500	0.197550
O1471	O147	0.703200	0.776700	0.123850
O1481	O148	0.625600	0.733000	0.135180
O1491	O149	0.629100	0.546100	0.243300
O1501	O150	0.589200	0.555600	0.286200
O1511	O151	0.862900	0.201400	0.315710
O1521	O152	0.784300	0.213400	0.293780
O1531	O153	0.840500	0.051500	0.439070
O1541	O154	0.878800	0.969200	0.447610
O1551	O155	0.587100	0.066700	0.062940
N611	N61	0.471400	0.906600	0.305660
N621	N62	0.512400	0.994500	0.334970
N631	N63	0.956500	0.761000	0.240530
N641	N64	0.999200	0.829300	0.281440
N651	N65	0.787300	0.702800	0.390120
N661	N66	0.683100	0.734300	0.401630
N671	N67	0.795800	0.018800	0.175650
N681	N68	0.699300	0.064100	0.190960
N691	N69	0.657600	0.716700	0.188520
N701	N70	0.632400	0.653800	0.233650
N711	N71	0.827600	0.103400	0.338670
N721	N72	0.846500	0.037100	0.382570
C3111	C311	0.468600	0.852500	0.292800
H4361	H436	0.475400	0.824300	0.307100
C3121	C312	0.511200	0.847800	0.269160
C3131	C313	0.519500	0.788600	0.258500
H4371	H437	0.486500	0.776000	0.249600
H4381	H438	0.528100	0.765100	0.274200
H4391	H439	0.549200	0.787800	0.245200
C3141	C314	0.498400	0.884400	0.244500
H4401	H440	0.465000	0.872400	0.235700
H4411	H441	0.527900	0.882700	0.231100
H4421	H442	0.494100	0.921500	0.251000
C3151	C315	0.410800	0.844100	0.279700
C3161	C316	0.548900	0.042300	0.338120
H4431	H443	0.554300	0.058400	0.319300
C3171	C317	0.605200	0.023400	0.348950
C3181	C318	0.601500	0.001700	0.378960
H4441	H444	0.591600	0.031100	0.391500
H4451	H445	0.636400	0.987000	0.384500
H4461	H446	0.574200	0.973400	0.379900
C3191	C319	0.649400	0.066200	0.347100
H4471	H447	0.640500	0.096200	0.359400
H4481	H448	0.652000	0.079200	0.328000
H4491	H449	0.683800	0.050400	0.352700
C3201	C320	0.521900	0.086500	0.357200
C3211	C321	0.918100	0.744300	0.219380
H4501	H450	0.910200	0.776400	0.207600
C3221	C322	0.864100	0.725000	0.232080
C3231	C323	0.871700	0.674200	0.250630
H4511	H451	0.881300	0.643400	0.239000
H4521	H452	0.838100	0.666500	0.260400
H4531	H453	0.900400	0.680800	0.264100
C3241	C324	0.818700	0.718500	0.210240
H4541	H454	0.827400	0.688400	0.197900
H4551	H455	0.815600	0.751600	0.199400
H4561	H456	0.784600	0.711300	0.219700
C3251	C325	0.943600	0.698000	0.199200
C3261	C326	0.999600	0.867700	0.306300
H4571	H457	0.988200	0.847000	0.323000
C3271	C327	0.960800	0.914100	0.302470
C3281	C328	0.952000	0.948200	0.328240
H4581	H458	0.985500	0.966800	0.333000
H4591	H459	0.941200	0.925100	0.343700
H4601	H460	0.923800	0.974800	0.324700
C3291	C329	0.975700	0.949300	0.277200
H4611	H461	0.009300	0.968400	0.280900
H4621	H462	0.946900	0.975300	0.273700
H4631	H463	0.980300	0.926300	0.260900
C3301	C330	0.060300	0.886400	0.310800
C3311	C331	0.845300	0.705900	0.380320
H4641	H464	0.862300	0.738200	0.389100
C3321	C332	0.846800	0.713500	0.348590
C3331	C333	0.901400	0.732100	0.336500
H4651	H465	0.928800	0.704800	0.340300
H4661	H466	0.911900	0.766200	0.345100
H4671	H467	0.897900	0.737200	0.316500
C3341	C334	0.829800	0.661100	0.333600
H4681	H468	0.856000	0.632600	0.337600
H4691	H469	0.828600	0.667400	0.313600
H4701	H470	0.794200	0.650000	0.340100
C3351	C335	0.877500	0.654600	0.389900
C3361	C336	0.625000	0.751400	0.395700
H4711	H471	0.608700	0.726800	0.381600
C3371	C337	0.623900	0.811300	0.384560
C3381	C338	0.570400	0.829300	0.372200
H4721	H472	0.543100	0.830700	0.386800
H4731	H473	0.559200	0.803700	0.357900
H4741	H474	0.574600	0.865100	0.363900
C3391	C339	0.645700	0.851400	0.407000
H4751	H475	0.619900	0.854000	0.422300
H4761	H476	0.650700	0.887000	0.398700
H4771	H477	0.680200	0.838300	0.414200
C3401	C340	0.590900	0.749500	0.423500
C3411	C341	0.835900	0.974700	0.169940
H4781	H478	0.817700	0.945200	0.159400
C3421	C342	0.859000	0.951400	0.197070
C3431	C343	0.885800	0.896400	0.192500
H4791	H479	0.917100	0.900600	0.180400
H4801	H480	0.860000	0.871700	0.183900
H4811	H481	0.897400	0.881700	0.210400
C3441	C344	0.899000	0.991300	0.211950
H4821	H482	0.930900	0.996500	0.200300
H4831	H483	0.909800	0.976200	0.229800
H4841	H484	0.881100	0.025900	0.214900
C3451	C345	0.883500	0.000300	0.150840
C3461	C346	0.648600	0.078600	0.206990
H4851	H485	0.658400	0.102600	0.222800
C3471	C347	0.620100	0.025100	0.218910
C3481	C348	0.596400	0.993000	0.194800
H4861	H486	0.566500	0.013100	0.186600
H4871	H487	0.583400	0.958200	0.201600
H4881	H488	0.624300	0.987100	0.180800
C3491	C349	0.580700	0.038800	0.242220
H4891	H489	0.550300	0.059000	0.234600
H4901	H490	0.599100	0.060700	0.256200
H4911	H491	0.567700	0.005600	0.250800
C3501	C350	0.608700	0.110600	0.186500
C3511	C351	0.683200	0.761700	0.172110
H4921	H492	0.723000	0.758600	0.174500
C3521	C352	0.665800	0.818000	0.183960
C3531	C353	0.603300	0.827800	0.180700
H4931	H493	0.594400	0.831400	0.161100
H4941	H494	0.593200	0.860800	0.190500
H4951	H495	0.583600	0.797300	0.188600
C3541	C354	0.697200	0.865000	0.171860
H4961	H496	0.688800	0.868600	0.152100
H4971	H497	0.735800	0.858500	0.174100
H4981	H498	0.687300	0.898200	0.181600
C3551	C355	0.670700	0.754700	0.140700
C3561	C356	0.620300	0.638900	0.263500
H4991	H499	0.585900	0.656100	0.269500
C3571	C357	0.666500	0.656400	0.283100
C3581	C358	0.723300	0.626600	0.276100
H5001	H500	0.720500	0.588300	0.280600
H5011	H501	0.752100	0.642900	0.287100
H5021	H502	0.731400	0.630800	0.256300
C3591	C359	0.614100	0.573500	0.264200
C3601	C360	0.654700	0.651500	0.314100
H5031	H503	0.650200	0.613500	0.319000
H5041	H504	0.621700	0.671200	0.318500
H5051	H505	0.684800	0.666600	0.324700
C3611	C361	0.799300	0.125500	0.312930
H5061	H506	0.759900	0.127000	0.317000
C3621	C362	0.807500	0.087100	0.288850
C3631	C363	0.867800	0.083900	0.281020
H5071	H507	0.879800	0.118800	0.273900
H5081	H508	0.872900	0.056300	0.266800
H5091	H509	0.888900	0.074500	0.297500
C3641	C364	0.775400	0.101400	0.263010
H5101	H510	0.787100	0.136500	0.256100
H5111	H511	0.737100	0.102900	0.267600
H5121	H512	0.781500	0.074100	0.248800
C3651	C365	0.819400	0.185700	0.307050
C3661	C366	0.850500	0.987200	0.400870
H5131	H513	0.883300	0.966800	0.395100
C3671	C367	0.800900	0.950300	0.395980
C3681	C368	0.750600	0.975900	0.407600
H5141	H514	0.754000	0.979100	0.427800
H5151	H515	0.719400	0.953500	0.403100
H5161	H516	0.745900	0.011700	0.399600
C3691	C369	0.810500	0.892700	0.407600
H5171	H517	0.814300	0.894500	0.427800
H5181	H518	0.843400	0.877800	0.399600
H5191	H519	0.779900	0.869700	0.402900
C3701	C370	0.858200	0.004300	0.431100
O1561	O156	0.668400	0.086300	0.085500
C3711	C371	0.634800	0.062300	0.062700
C3721	C372	0.666200	0.028600	0.036400
H5201	H520	0.649300	0.038000	0.018700
H5211	H521	0.663100	0.989800	0.039500
H5221	H522	0.704300	0.038700	0.035900
La71	La7	0.378470	0.081480	0.362760
Ag491	Ag49	0.706740	0.129700	0.558850
Ag501	Ag50	0.607450	0.147490	0.500130
Ag511	Ag51	0.503530	0.189130	0.537130
Ag521	Ag52	0.592850	0.201920	0.593550
Ag531	Ag53	0.737020	0.267580	0.539450
Ag541	Ag54	0.655840	0.277960	0.481340
Ag551	Ag55	0.556880	0.325180	0.522550
Ag561	Ag56	0.639700	0.339700	0.587320
Ni371	Ni37	0.565120	0.044220	0.563410
Ni381	Ni38	0.687740	0.426240	0.517730
Ni391	Ni39	0.747590	0.235530	0.622900
Ni401	Ni40	0.495930	0.242930	0.454750
Ni411	Ni41	0.773550	0.160950	0.479240
Ni421	Ni42	0.473070	0.315560	0.595290
S731	S73	0.629130	0.076100	0.536340
S741	S74	0.533400	0.124230	0.574790
S751	S75	0.716510	0.345490	0.505290
S761	S76	0.620830	0.395350	0.543450
S771	S77	0.732240	0.296240	0.590560
S781	S78	0.690660	0.175990	0.605840
S791	S79	0.557380	0.298660	0.470600
S801	S80	0.513340	0.177530	0.484600
S811	S81	0.688550	0.182710	0.472230
S821	S82	0.770810	0.175490	0.524170
S831	S83	0.480450	0.285650	0.552440
S841	S84	0.555950	0.294100	0.607360
O1571	O157	0.614800	0.883100	0.527000
O1581	O158	0.699600	0.893000	0.525200
O1591	O159	0.368100	0.044200	0.608390
O1601	O160	0.427800	0.978600	0.619580
O1611	O161	0.824000	0.487000	0.458060
O1621	O162	0.812500	0.418800	0.427300
O1631	O163	0.609400	0.589100	0.538500
O1641	O164	0.600500	0.571400	0.587000
O1651	O165	0.841600	0.428900	0.640300
O1661	O166	0.886500	0.350600	0.645590
O1671	O167	0.755000	0.115400	0.695800
O1681	O168	0.750800	0.041100	0.672300
O1691	O169	0.449800	0.388600	0.400400
O1701	O170	0.534900	0.410600	0.387500
O1711	O171	0.391500	0.118500	0.411220
O1721	O172	0.367500	0.069000	0.447550
O1731	O173	0.723300	0.203200	0.373850
O1741	O174	0.767000	0.125600	0.385180
O1751	O175	0.953900	0.129100	0.493300
O1761	O176	0.944400	0.089200	0.536200
O1771	O177	0.298600	0.362900	0.565710
O1781	O178	0.286600	0.284300	0.543780
O1791	O179	0.448500	0.340500	0.689070
O1801	O180	0.530800	0.378800	0.697610
O1811	O181	0.433300	0.087100	0.312940
N731	N73	0.593400	0.971400	0.555660
N741	N74	0.505500	0.012400	0.584970
N751	N75	0.739000	0.456500	0.490530
N761	N76	0.670700	0.499200	0.531440
N771	N77	0.797200	0.287300	0.640120
N781	N78	0.765700	0.183100	0.651630
N791	N79	0.481200	0.295800	0.425650
N801	N80	0.435900	0.199300	0.440960
N811	N81	0.783300	0.157600	0.438520
N821	N82	0.846200	0.132400	0.483650
N831	N83	0.396600	0.327600	0.588670
N841	N84	0.462900	0.346500	0.632570
C3731	C373	0.647500	0.968600	0.542800
H5231	H523	0.675700	0.975400	0.557100
C3741	C374	0.652200	0.011200	0.519160
C3751	C375	0.711400	0.019500	0.508500
H5241	H524	0.724000	0.986500	0.499600
H5251	H525	0.734900	0.028100	0.524200
H5261	H526	0.712200	0.049200	0.495200
C3761	C376	0.615600	0.998400	0.494500
H5271	H527	0.627600	0.965000	0.485700
H5281	H528	0.617300	0.027900	0.481100
H5291	H529	0.578500	0.994100	0.501000
C3771	C377	0.655900	0.910800	0.529700
C3781	C378	0.457700	0.048900	0.588120
H5301	H530	0.441600	0.054300	0.569300
C3791	C379	0.476600	0.105200	0.598950
C3801	C380	0.498300	0.101500	0.628960
H5311	H531	0.468900	0.091600	0.641500
H5321	H532	0.513000	0.136400	0.634500
H5331	H533	0.526600	0.074200	0.629900
C3811	C381	0.433800	0.149400	0.597100
H5341	H534	0.403800	0.140500	0.609400
H5351	H535	0.420800	0.152000	0.578000
H5361	H536	0.449600	0.183800	0.602700
C3821	C382	0.413500	0.021900	0.607200
C3831	C383	0.755700	0.418100	0.469380
H5371	H537	0.723600	0.410200	0.457600
C3841	C384	0.775000	0.364100	0.482080
C3851	C385	0.825800	0.371700	0.500630
H5381	H538	0.856600	0.381300	0.489000
H5391	H539	0.833500	0.338100	0.510400
H5401	H540	0.819200	0.400400	0.514100
C3861	C386	0.781500	0.318700	0.460240
H5411	H541	0.811600	0.327400	0.447900
H5421	H542	0.748400	0.315600	0.449400
H5431	H543	0.788700	0.284600	0.469700
C3871	C387	0.802000	0.443600	0.449200
C3881	C388	0.632300	0.499600	0.556300
H5441	H544	0.653000	0.488200	0.573000
C3891	C389	0.585900	0.460800	0.552470
C3901	C390	0.551800	0.452000	0.578240
H5451	H545	0.533200	0.485500	0.583000
H5461	H546	0.574900	0.441200	0.593700
H5471	H547	0.525200	0.423800	0.574700
C3911	C391	0.550700	0.475700	0.527200
H5481	H548	0.531600	0.509300	0.530900
H5491	H549	0.524700	0.446900	0.523700
H5501	H550	0.573700	0.480300	0.510900
C3921	C392	0.613600	0.560300	0.560800
C3931	C393	0.794100	0.345300	0.630320
H5511	H551	0.761800	0.362300	0.639100
C3941	C394	0.786500	0.346800	0.598590
C3951	C395	0.767900	0.401400	0.586500
H5521	H552	0.795200	0.428800	0.590300
H5531	H553	0.733800	0.411900	0.595100
H5541	H554	0.762800	0.397900	0.566500
C3961	C396	0.838900	0.329800	0.583600
H5551	H555	0.867400	0.356000	0.587600
H5561	H556	0.832600	0.328600	0.563600
H5571	H557	0.850000	0.294200	0.590100
C3971	C397	0.845400	0.377500	0.639900
C3981	C398	0.748600	0.125000	0.645700
H5581	H558	0.773200	0.108700	0.631600
C3991	C399	0.688700	0.123900	0.634560
C4001	C400	0.670700	0.070400	0.622200
H5591	H559	0.669300	0.043100	0.636800
H5601	H560	0.696300	0.059200	0.607900
H5611	H561	0.634900	0.074600	0.613900
C4011	C401	0.648600	0.145700	0.657000
H5621	H562	0.646000	0.119900	0.672300
H5631	H563	0.613000	0.150700	0.648700
H5641	H564	0.661700	0.180200	0.664200
C4021	C402	0.750500	0.090900	0.673500
C4031	C403	0.525300	0.335900	0.419940
H5651	H565	0.554800	0.317700	0.409400
C4041	C404	0.548600	0.359000	0.447070
C4051	C405	0.603600	0.385800	0.442500
H5661	H566	0.599400	0.417100	0.430400
H5671	H567	0.628300	0.360000	0.433900
H5681	H568	0.618300	0.397400	0.460400
C4061	C406	0.508700	0.399000	0.461950
H5691	H569	0.503500	0.430900	0.450300
H5701	H570	0.523800	0.409800	0.479800
H5711	H571	0.474100	0.381100	0.464900
C4071	C407	0.499700	0.383500	0.400840
C4081	C408	0.421400	0.148600	0.456990
H5721	H572	0.397400	0.158400	0.472800
C4091	C409	0.474900	0.120100	0.468910
C4101	C410	0.507000	0.096400	0.444800
H5731	H573	0.486900	0.066500	0.436600
H5741	H574	0.541800	0.083400	0.451600
H5751	H575	0.512900	0.124300	0.430800
C4111	C411	0.461200	0.080700	0.492220
H5761	H576	0.441000	0.050300	0.484600
H5771	H577	0.439300	0.099100	0.506200
H5781	H578	0.494400	0.067700	0.500800
C4121	C412	0.389400	0.108700	0.436500
C4131	C413	0.738300	0.183200	0.422110
H5791	H579	0.741400	0.223000	0.424500
C4141	C414	0.682000	0.165800	0.433960
C4151	C415	0.672200	0.103300	0.430700
H5801	H580	0.668600	0.094400	0.411100
H5811	H581	0.639200	0.093200	0.440500
H5821	H582	0.702700	0.083600	0.438600
C4161	C416	0.635000	0.197200	0.421860
H5831	H583	0.631400	0.188800	0.402100
H5841	H584	0.641500	0.235800	0.424100
H5851	H585	0.601800	0.187300	0.431600
C4171	C417	0.745300	0.170700	0.390700
C4181	C418	0.861100	0.120300	0.513500
H5861	H586	0.843900	0.085900	0.519500
C4191	C419	0.843600	0.166500	0.533100
C4201	C420	0.873400	0.223300	0.526100
H5871	H587	0.911700	0.220500	0.530600
H5881	H588	0.857100	0.252100	0.537100
H5891	H589	0.869200	0.231400	0.506300
C4211	C421	0.926500	0.114100	0.514200
C4221	C422	0.848500	0.154700	0.564100
H5901	H590	0.886500	0.150200	0.569000
H5911	H591	0.828800	0.121700	0.568500
H5921	H592	0.833400	0.184800	0.574700
C4231	C423	0.374500	0.299300	0.562930
H5931	H593	0.373000	0.259900	0.567000
C4241	C424	0.412900	0.307500	0.538850
C4251	C425	0.416100	0.367800	0.531020
H5941	H594	0.381200	0.379800	0.523900
H5951	H595	0.443700	0.372900	0.516800
H5961	H596	0.425500	0.388900	0.547500
C4261	C426	0.398600	0.275400	0.513010
H5971	H597	0.363500	0.287100	0.506100
H5981	H598	0.397100	0.237100	0.517600
H5991	H599	0.425900	0.281500	0.498800
C4271	C427	0.314300	0.319400	0.557050
C4281	C428	0.512800	0.350500	0.650870
H6001	H600	0.533200	0.383300	0.645100
C4291	C429	0.549700	0.300900	0.645980
C4301	C430	0.524100	0.250600	0.657600
H6011	H601	0.520900	0.254000	0.677800
H6021	H602	0.546500	0.219400	0.653100
H6031	H603	0.488300	0.245900	0.649600
C4311	C431	0.607300	0.310500	0.657600
H6041	H604	0.605500	0.314300	0.677800
H6051	H605	0.622200	0.343400	0.649600
H6061	H606	0.630300	0.279900	0.652900
C4321	C432	0.495700	0.358200	0.681100
O1821	O182	0.413700	0.168400	0.335500
C4331	C433	0.437700	0.134800	0.312700
C4341	C434	0.471400	0.166200	0.286400
H6071	H607	0.462000	0.149300	0.268700
H6081	H608	0.510200	0.163100	0.289500
H6091	H609	0.461300	0.204300	0.285900
La81	La8	0.621530	0.918520	0.862760
Ag571	Ag57	0.293260	0.870300	0.058850
Ag581	Ag58	0.392550	0.852510	0.000130
Ag591	Ag59	0.496470	0.810870	0.037130
Ag601	Ag60	0.407150	0.798080	0.093550
Ag611	Ag61	0.262980	0.732420	0.039450
Ag621	Ag62	0.344160	0.722040	0.981340
Ag631	Ag63	0.443120	0.674820	0.022550
Ag641	Ag64	0.360300	0.660300	0.087320
Ni431	Ni43	0.434880	0.955780	0.063410
Ni441	Ni44	0.312260	0.573760	0.017730
Ni451	Ni45	0.252410	0.764470	0.122900
Ni461	Ni46	0.504070	0.757070	0.954750
Ni471	Ni47	0.226450	0.839050	0.979240
Ni481	Ni48	0.526930	0.684440	0.095290
S851	S85	0.370870	0.923900	0.036340
S861	S86	0.466600	0.875770	0.074790
S871	S87	0.283490	0.654510	0.005290
S881	S88	0.379170	0.604650	0.043450
S891	S89	0.267760	0.703760	0.090560
S901	S90	0.309340	0.824010	0.105840
S911	S91	0.442620	0.701340	0.970600
S921	S92	0.486660	0.822470	0.984600
S931	S93	0.311450	0.817290	0.972230
S941	S94	0.229190	0.824510	0.024170
S951	S95	0.519550	0.714350	0.052440
S961	S96	0.444050	0.705900	0.107360
O1831	O183	0.385200	0.116900	0.027000
O1841	O184	0.300400	0.107000	0.025200
O1851	O185	0.631900	0.955800	0.108390
O1861	O186	0.572200	0.021400	0.119580
O1871	O187	0.176000	0.513000	0.958060
O1881	O188	0.187500	0.581200	0.927300
O1891	O189	0.390600	0.410900	0.038500
O1901	O190	0.399500	0.428600	0.087000
O1911	O191	0.158400	0.571100	0.140300
O1921	O192	0.113500	0.649400	0.145590
O1931	O193	0.245000	0.884600	0.195800
O1941	O194	0.249200	0.958900	0.172300
O1951	O195	0.550200	0.611400	0.900400
O1961	O196	0.465100	0.589400	0.887500
O1971	O197	0.608500	0.881500	0.911220
O1981	O198	0.632500	0.931000	0.947550
O1991	O199	0.276700	0.796800	0.873850
O2001	O200	0.233000	0.874400	0.885180
O2011	O201	0.046100	0.870900	0.993300
O2021	O202	0.055600	0.910800	0.036200
O2031	O203	0.701400	0.637100	0.065710
O2041	O204	0.713400	0.715700	0.043780
O2051	O205	0.551500	0.659500	0.189070
O2061	O206	0.469200	0.621200	0.197610
O2071	O207	0.566700	0.912900	0.812940
N851	N85	0.406600	0.028600	0.055660
N861	N86	0.494500	0.987600	0.084970
N871	N87	0.261000	0.543500	0.990530
N881	N88	0.329300	0.500800	0.031440
N891	N89	0.202800	0.712700	0.140120
N901	N90	0.234300	0.816900	0.151630
N911	N91	0.518800	0.704200	0.925650
N921	N92	0.564100	0.800700	0.940960
N931	N93	0.216700	0.842400	0.938520
N941	N94	0.153800	0.867600	0.983650
N951	N95	0.603400	0.672400	0.088670
N961	N96	0.537100	0.653500	0.132570
C4351	C435	0.352500	0.031400	0.042800
H6101	H610	0.324300	0.024600	0.057100
C4361	C436	0.347800	0.988800	0.019160
C4371	C437	0.288600	0.980500	0.008500
H6111	H611	0.276000	0.013500	0.999600
H6121	H612	0.265100	0.971900	0.024200
H6131	H613	0.287800	0.950800	0.995200
C4381	C438	0.384400	0.001600	0.994500
H6141	H614	0.372400	0.035000	0.985700
H6151	H615	0.382700	0.972100	0.981100
H6161	H616	0.421500	0.005900	0.001000
C4391	C439	0.344100	0.089200	0.029700
C4401	C440	0.542300	0.951100	0.088120
H6171	H617	0.558400	0.945700	0.069300
C4411	C441	0.523400	0.894800	0.098950
C4421	C442	0.501700	0.898500	0.128960
H6181	H618	0.531100	0.908400	0.141500
H6191	H619	0.487000	0.863600	0.134500
H6201	H620	0.473400	0.925800	0.129900
C4431	C443	0.566200	0.850600	0.097100
H6211	H621	0.596200	0.859500	0.109400
H6221	H622	0.579200	0.848000	0.078000
H6231	H623	0.550400	0.816200	0.102700
C4441	C444	0.586500	0.978100	0.107200
C4451	C445	0.244300	0.581900	0.969380
H6241	H624	0.276400	0.589800	0.957600
C4461	C446	0.225000	0.635900	0.982080
C4471	C447	0.174200	0.628300	0.000630
H6251	H625	0.143400	0.618700	0.989000
H6261	H626	0.166500	0.661900	0.010400
H6271	H627	0.180800	0.599600	0.014100
C4481	C448	0.218500	0.681300	0.960240
H6281	H628	0.188400	0.672600	0.947900
H6291	H629	0.251600	0.684400	0.949400
H6301	H630	0.211300	0.715400	0.969700
C4491	C449	0.198000	0.556400	0.949200
C4501	C450	0.367700	0.500400	0.056300
H6311	H631	0.347000	0.511800	0.073000
C4511	C451	0.414100	0.539200	0.052470
C4521	C452	0.448200	0.548000	0.078240
H6321	H632	0.466800	0.514500	0.083000
H6331	H633	0.425100	0.558800	0.093700
H6341	H634	0.474800	0.576200	0.074700
C4531	C453	0.449300	0.524300	0.027200
H6351	H635	0.468400	0.490700	0.030900
H6361	H636	0.475300	0.553100	0.023700
H6371	H637	0.426300	0.519700	0.010900
C4541	C454	0.386400	0.439700	0.060800
C4551	C455	0.205900	0.654700	0.130320
H6381	H638	0.238200	0.637700	0.139100
C4561	C456	0.213500	0.653200	0.098590
C4571	C457	0.232100	0.598600	0.086500
H6391	H639	0.204800	0.571200	0.090300
H6401	H640	0.266200	0.588100	0.095100
H6411	H641	0.237200	0.602100	0.066500
C4581	C458	0.161100	0.670200	0.083600
H6421	H642	0.132600	0.644000	0.087600
H6431	H643	0.167400	0.671400	0.063600
H6441	H644	0.150000	0.705800	0.090100
C4591	C459	0.154600	0.622500	0.139900
C4601	C460	0.251400	0.875000	0.145700
H6451	H645	0.226800	0.891300	0.131600
C4611	C461	0.311300	0.876100	0.134560
C4621	C462	0.329300	0.929600	0.122200
H6461	H646	0.330700	0.956900	0.136800
H6471	H647	0.303700	0.940800	0.107900
H6481	H648	0.365100	0.925400	0.113900
C4631	C463	0.351400	0.854300	0.157000
H6491	H649	0.354000	0.880100	0.172300
H6501	H650	0.387000	0.849300	0.148700
H6511	H651	0.338300	0.819800	0.164200
C4641	C464	0.249500	0.909100	0.173500
C4651	C465	0.474700	0.664100	0.919940
H6521	H652	0.445200	0.682300	0.909400
C4661	C466	0.451400	0.641000	0.947070
C4671	C467	0.396400	0.614200	0.942500
H6531	H653	0.400600	0.582900	0.930400
H6541	H654	0.371700	0.640000	0.933900
H6551	H655	0.381700	0.602600	0.960400
C4681	C468	0.491300	0.601000	0.961950
H6561	H656	0.496500	0.569100	0.950300
H6571	H657	0.476200	0.590200	0.979800
H6581	H658	0.525900	0.618900	0.964900
C4691	C469	0.500300	0.616500	0.900840
C4701	C470	0.578600	0.851400	0.956990
H6591	H659	0.602600	0.841600	0.972800
C4711	C471	0.525100	0.879900	0.968910
C4721	C472	0.493000	0.903600	0.944800
H6601	H660	0.513100	0.933500	0.936600
H6611	H661	0.458200	0.916600	0.951600
H6621	H662	0.487100	0.875700	0.930800
C4731	C473	0.538800	0.919300	0.992220
H6631	H663	0.559000	0.949700	0.984600
H6641	H664	0.560700	0.900900	0.006200
H6651	H665	0.505600	0.932300	0.000800
C4741	C474	0.610600	0.891300	0.936500
C4751	C475	0.261700	0.816800	0.922110
H6661	H666	0.258600	0.777000	0.924500
C4761	C476	0.318000	0.834200	0.933960
C4771	C477	0.327800	0.896700	0.930700
H6671	H667	0.331400	0.905600	0.911100
H6681	H668	0.360800	0.906800	0.940500
H6691	H669	0.297300	0.916400	0.938600
C4781	C478	0.365000	0.802800	0.921860
H6701	H670	0.368600	0.811200	0.902100
H6711	H671	0.358500	0.764200	0.924100
H6721	H672	0.398200	0.812700	0.931600
C4791	C479	0.254700	0.829300	0.890700
C4801	C480	0.138900	0.879700	0.013500
H6731	H673	0.156100	0.914100	0.019500
C4811	C481	0.156400	0.833500	0.033100
C4821	C482	0.126600	0.776700	0.026100
H6741	H674	0.088300	0.779500	0.030600
H6751	H675	0.142900	0.747900	0.037100
H6761	H676	0.130800	0.768600	0.006300
C4831	C483	0.073500	0.885900	0.014200
C4841	C484	0.151500	0.845300	0.064100
H6771	H677	0.113500	0.849800	0.069000
H6781	H678	0.171200	0.878300	0.068500
H6791	H679	0.166600	0.815200	0.074700
C4851	C485	0.625500	0.700700	0.062930
H6801	H680	0.627000	0.740100	0.067000
C4861	C486	0.587100	0.692500	0.038850
C4871	C487	0.583900	0.632200	0.031020
H6811	H681	0.618800	0.620200	0.023900
H6821	H682	0.556300	0.627100	0.016800
H6831	H683	0.574500	0.611100	0.047500
C4881	C488	0.601400	0.724600	0.013010
H6841	H684	0.636500	0.712900	0.006100
H6851	H685	0.602900	0.762900	0.017600
H6861	H686	0.574100	0.718500	0.998800
C4891	C489	0.685700	0.680600	0.057050
C4901	C490	0.487200	0.649500	0.150870
H6871	H687	0.466800	0.616700	0.145100
C4911	C491	0.450300	0.699100	0.145980
C4921	C492	0.475900	0.749400	0.157600
H6881	H688	0.479100	0.746000	0.177800
H6891	H689	0.453500	0.780600	0.153100
H6901	H690	0.511700	0.754100	0.149600
C4931	C493	0.392700	0.689500	0.157600
H6911	H691	0.394500	0.685700	0.177800
H6921	H692	0.377800	0.656600	0.149600
H6931	H693	0.369700	0.720100	0.152900
C4941	C494	0.504300	0.641800	0.181100
O2081	O208	0.586300	0.831600	0.835500
C4951	C495	0.562300	0.865200	0.812700
C4961	C496	0.528600	0.833800	0.786400
H6941	H694	0.538000	0.850700	0.768700
H6951	H695	0.489800	0.836900	0.789500
H6961	H696	0.538700	0.795700	0.785900
