data_WIDZUG_clean_PM
_symmetry_space_group_name_H-M	'P1'
_cell_length_a	11.598500
_cell_length_b	13.647900
_cell_length_c	14.248400
_cell_angle_alpha	102.167000
_cell_angle_beta	90.000000
_cell_angle_gamma	115.146000
_symmetry_Int_Tables_number 1

loop_
_symmetry_equiv_pos_as_xyz
'x,y,z'

loop_
_atom_site_label
_atom_site_type_symbol
_atom_site_fract_x
_atom_site_fract_y
_atom_site_fract_z
Cd11	Cd1	0.001100	0.445960	0.864250
Cd21	Cd2	0.444860	0.445960	0.364250
H11	H1	0.016600	0.210400	0.586000
H21	H2	0.151500	0.239600	0.634900
H31	H3	0.158600	0.287800	0.484400
H41	H4	0.109600	0.376200	0.530000
H51	H5	0.920800	0.190600	0.862300
H61	H6	0.751400	0.023800	0.867200
H71	H7	0.520200	0.174800	0.882100
H81	H8	0.695600	0.338400	0.878200
H91	H9	0.494600	0.705200	0.879800
H101	H10	0.310500	0.545200	0.874100
H111	H11	0.099000	0.697800	0.851100
H121	H12	0.276700	0.863400	0.858900
H131	H13	0.193800	0.210400	0.086000
H141	H14	0.088100	0.239600	0.134900
H151	H15	0.129200	0.287800	0.984400
H161	H16	0.266600	0.376200	0.030000
H171	H17	0.269800	0.190600	0.362300
H181	H18	0.272400	0.023800	0.367200
H191	H19	0.654600	0.174800	0.382100
H201	H20	0.642800	0.338400	0.378200
H211	H21	0.210600	0.705200	0.379800
H221	H22	0.234700	0.545200	0.374100
H231	H23	0.598800	0.697800	0.351100
H241	H24	0.586700	0.863400	0.358900
C11	C1	0.070270	0.335740	0.707600
C21	C2	0.096850	0.271500	0.616700
C31	C3	0.159420	0.338240	0.543900
C41	C4	0.295340	0.422880	0.577300
C51	C5	0.839160	0.187120	0.866500
C61	C6	0.738210	0.086820	0.869300
C71	C7	0.618020	0.082240	0.875200
C81	C8	0.601110	0.176620	0.878300
C91	C9	0.706930	0.274460	0.875700
C101	C10	0.403920	0.801440	0.869600
C111	C11	0.414850	0.705500	0.874700
C121	C12	0.303790	0.610180	0.871900
C131	C13	0.179710	0.700020	0.858700
C141	C14	0.285780	0.799560	0.861900
C151	C15	0.265470	0.335740	0.207600
C161	C16	0.174650	0.271500	0.116700
C171	C17	0.178820	0.338240	0.043900
C181	C18	0.127540	0.422880	0.077300
C191	C19	0.347960	0.187120	0.366500
C201	C20	0.348610	0.086820	0.369300
C211	C21	0.464220	0.082240	0.375200
C221	C22	0.575510	0.176620	0.378300
C231	C23	0.567530	0.274460	0.375700
C241	C24	0.397520	0.801440	0.369600
C251	C25	0.290650	0.705500	0.374700
C261	C26	0.306390	0.610180	0.371900
C271	C27	0.520310	0.700020	0.358700
C281	C28	0.513780	0.799560	0.361900
N11	N1	0.823550	0.280300	0.869800
N21	N2	0.503780	0.981960	0.875500
N31	N3	0.520710	0.900620	0.872400
N41	N4	0.187210	0.607020	0.866100
N51	N5	0.456750	0.280300	0.369800
N61	N6	0.478180	0.981960	0.375500
N71	N7	0.379910	0.900620	0.372400
N81	N8	0.419810	0.607020	0.366100
O11	O1	0.017510	0.396820	0.697720
O21	O2	0.095650	0.324100	0.788800
O31	O3	0.332890	0.457580	0.664030
O41	O4	0.370850	0.456500	0.515830
O51	O5	0.379310	0.396820	0.197720
O61	O6	0.228450	0.324100	0.288800
O71	O7	0.124690	0.457580	0.164030
O81	O8	0.085650	0.456500	0.015830
Cd31	Cd3	0.555140	0.554040	0.635750
Cd41	Cd4	0.998900	0.554040	0.135750
H251	H25	0.806200	0.789600	0.914000
H261	H26	0.911900	0.760400	0.865100
H271	H27	0.870800	0.712200	0.015600
H281	H28	0.733400	0.623800	0.970000
H291	H29	0.730200	0.809400	0.637700
H301	H30	0.727600	0.976200	0.632800
H311	H31	0.345400	0.825200	0.617900
H321	H32	0.357200	0.661600	0.621800
H331	H33	0.789400	0.294800	0.620200
H341	H34	0.765300	0.454800	0.625900
H351	H35	0.401200	0.302200	0.648900
H361	H36	0.413300	0.136600	0.641100
H371	H37	0.983400	0.789600	0.414000
H381	H38	0.848500	0.760400	0.365100
H391	H39	0.841400	0.712200	0.515600
H401	H40	0.890400	0.623800	0.470000
H411	H41	0.079200	0.809400	0.137700
H421	H42	0.248600	0.976200	0.132800
H431	H43	0.479800	0.825200	0.117900
H441	H44	0.304400	0.661600	0.121800
H451	H45	0.505400	0.294800	0.120200
H461	H46	0.689500	0.454800	0.125900
H471	H47	0.901000	0.302200	0.148900
H481	H48	0.723300	0.136600	0.141100
C291	C29	0.734530	0.664260	0.792400
C301	C30	0.825350	0.728500	0.883300
C311	C31	0.821180	0.661760	0.956100
C321	C32	0.872460	0.577120	0.922700
C331	C33	0.652040	0.812880	0.633500
C341	C34	0.651390	0.913180	0.630700
C351	C35	0.535780	0.917760	0.624800
C361	C36	0.424490	0.823380	0.621700
C371	C37	0.432470	0.725540	0.624300
C381	C38	0.602480	0.198560	0.630400
C391	C39	0.709350	0.294500	0.625300
C401	C40	0.693610	0.389820	0.628100
C411	C41	0.479690	0.299980	0.641300
C421	C42	0.486220	0.200440	0.638100
C431	C43	0.929730	0.664260	0.292400
C441	C44	0.903150	0.728500	0.383300
C451	C45	0.840580	0.661760	0.456100
C461	C46	0.704660	0.577120	0.422700
C471	C47	0.160840	0.812880	0.133500
C481	C48	0.261790	0.913180	0.130700
C491	C49	0.381980	0.917760	0.124800
C501	C50	0.398890	0.823380	0.121700
C511	C51	0.293070	0.725540	0.124300
C521	C52	0.596080	0.198560	0.130400
C531	C53	0.585150	0.294500	0.125300
C541	C54	0.696210	0.389820	0.128100
C551	C55	0.820290	0.299980	0.141300
C561	C56	0.714220	0.200440	0.138100
N91	N9	0.543250	0.719700	0.630200
N101	N10	0.521820	0.018040	0.624500
N111	N11	0.620090	0.099380	0.627600
N121	N12	0.580190	0.392980	0.633900
N131	N13	0.176450	0.719700	0.130200
N141	N14	0.496220	0.018040	0.124500
N151	N15	0.479290	0.099380	0.127600
N161	N16	0.812790	0.392980	0.133900
O91	O9	0.620690	0.603180	0.802280
O101	O10	0.771550	0.675900	0.711200
O111	O11	0.875310	0.542420	0.835970
O121	O12	0.914350	0.543500	0.984170
O131	O13	0.982490	0.603180	0.302280
O141	O14	0.904350	0.675900	0.211200
O151	O15	0.667110	0.542420	0.335970
O161	O16	0.629150	0.543500	0.484170
