data_WIFGOJ_clean_PM
_symmetry_space_group_name_H-M	'P1'
_cell_length_a	18.287000
_cell_length_b	18.287000
_cell_length_c	18.287000
_cell_angle_alpha	105.112000
_cell_angle_beta	105.112000
_cell_angle_gamma	118.594000
_symmetry_Int_Tables_number 1

loop_
_symmetry_equiv_pos_as_xyz
'x,y,z'

loop_
_atom_site_label
_atom_site_type_symbol
_atom_site_fract_x
_atom_site_fract_y
_atom_site_fract_z
Cd11	Cd1	0.701110	0.211020	0.122470
Cd21	Cd2	0.528910	0.146180	0.214610
Cd31	Cd3	0.329070	0.123350	0.257840
Cd41	Cd4	0.134670	0.876820	0.205910
Cd51	Cd5	0.068570	0.853860	0.382830
Cd61	Cd6	0.911520	0.788900	0.490080
Cd71	Cd7	0.088550	0.578640	0.877530
Cd81	Cd8	0.931570	0.314300	0.785390
Cd91	Cd9	0.865510	0.071230	0.742160
Cd101	Cd10	0.670910	0.928760	0.794090
Cd111	Cd11	0.471030	0.685740	0.617170
Cd121	Cd12	0.298820	0.421440	0.509920
Cd131	Cd13	0.421360	0.298890	0.509910
Cd141	Cd14	0.685700	0.471090	0.617270
Cd151	Cd15	0.928770	0.670930	0.794280
Cd161	Cd16	0.071240	0.865330	0.742150
Cd171	Cd17	0.314260	0.931430	0.785290
Cd181	Cd18	0.578560	0.088480	0.877380
Cd191	Cd19	0.788980	0.911450	0.490090
Cd201	Cd20	0.853820	0.068430	0.382730
Cd211	Cd21	0.876650	0.134490	0.205720
Cd221	Cd22	0.123180	0.329090	0.257850
Cd231	Cd23	0.146140	0.528970	0.214710
Cd241	Cd24	0.211100	0.701180	0.122620
H11	H1	0.947800	0.511100	0.174700
H21	H2	0.879800	0.483400	0.216000
H31	H3	0.843300	0.423600	0.119100
H41	H4	0.587800	0.083400	0.365800
H51	H5	0.687500	0.133200	0.439300
H61	H6	0.629400	0.027000	0.375800
H71	H7	0.256200	0.888300	0.941300
H81	H8	0.289700	0.972400	0.024700
H91	H9	0.306900	0.897400	0.030300
H101	H10	0.876700	0.737700	0.961800
H111	H11	0.962600	0.834800	0.981400
H121	H12	0.948500	0.813600	0.056300
H131	H13	0.276500	0.892400	0.498100
H141	H14	0.321800	0.883500	0.577700
H151	H15	0.340700	0.979600	0.587900
H161	H16	0.729600	0.510900	0.395700
H171	H17	0.701400	0.579600	0.416200
H181	H18	0.659400	0.493100	0.434700
H191	H19	0.336400	0.773100	0.825300
H201	H20	0.267400	0.663800	0.784000
H211	H21	0.304500	0.724200	0.880900
H221	H22	0.717600	0.222000	0.634200
H231	H23	0.693900	0.248200	0.560700
H241	H24	0.651200	0.253600	0.624200
H251	H25	0.947000	0.314900	0.058700
H261	H26	0.947700	0.265000	0.975300
H271	H27	0.867100	0.276600	0.969700
H281	H28	0.775900	0.914900	0.038200
H291	H29	0.853400	0.981200	0.018600
H301	H30	0.757300	0.892200	0.943700
H311	H31	0.394300	0.778400	0.501900
H321	H32	0.305800	0.744100	0.422300
H331	H33	0.391700	0.752800	0.412100
H341	H34	0.115200	0.333900	0.604300
H351	H35	0.163400	0.285200	0.583800
H361	H36	0.058400	0.224700	0.565300
H371	H37	0.226900	0.052200	0.563300
H381	H38	0.336200	0.120200	0.603600
H391	H39	0.275800	0.156700	0.580300
H401	H40	0.778000	0.412200	0.495600
H411	H41	0.751800	0.312500	0.445700
H421	H42	0.746400	0.370600	0.397600
H431	H43	0.685100	0.743800	0.632100
H441	H44	0.735000	0.710300	0.682700
H451	H45	0.723400	0.693100	0.590500
H461	H46	0.085100	0.123300	0.861000
H471	H47	0.018800	0.037400	0.872200
H481	H48	0.107800	0.051500	0.865100
H491	H49	0.221600	0.723500	0.615900
H501	H50	0.255900	0.678200	0.561700
H511	H51	0.247200	0.659300	0.638900
H521	H52	0.666100	0.270400	0.781300
H531	H53	0.714800	0.298600	0.878200
H541	H54	0.775300	0.340600	0.833700
H551	H55	0.488900	0.663600	0.436700
H561	H56	0.516600	0.732600	0.396400
H571	H57	0.576400	0.695500	0.419700
H581	H58	0.916600	0.282400	0.504400
H591	H59	0.866800	0.306100	0.554300
H601	H60	0.973000	0.348800	0.602400
H611	H61	0.111700	0.053000	0.367900
H621	H62	0.027600	0.052300	0.317300
H631	H63	0.102600	0.132900	0.409500
H641	H64	0.262300	0.224100	0.139000
H651	H65	0.165200	0.146600	0.127800
H661	H66	0.186400	0.242700	0.134900
H671	H67	0.107600	0.605700	0.384100
H681	H68	0.116500	0.694200	0.438300
H691	H69	0.020400	0.608300	0.361100
H701	H70	0.489100	0.884800	0.218700
H711	H71	0.420400	0.836600	0.121800
H721	H72	0.506900	0.941600	0.166300
C11	C1	0.921600	0.401400	0.194400
C21	C2	0.896000	0.459800	0.174400
C31	C3	0.688200	0.113200	0.322000
C41	C4	0.644000	0.086700	0.381500
C51	C5	0.395600	0.987300	0.999100
C61	C6	0.304000	0.931400	0.998800
C71	C7	0.000200	0.747700	0.000300
C81	C8	0.941300	0.787200	0.999900
C91	C9	0.209000	0.886400	0.573800
C101	C10	0.295100	0.913000	0.557900
C111	C11	0.792200	0.596800	0.520000
C121	C12	0.713900	0.540200	0.434300
C131	C13	0.207000	0.727200	0.805600
C141	C14	0.285400	0.721600	0.825600
C151	C15	0.791200	0.366200	0.678000
C161	C16	0.705200	0.262500	0.618500
C171	C17	0.988200	0.396500	0.000900
C181	C18	0.932600	0.305200	0.001200
C191	C19	0.747400	0.999900	0.999700
C201	C20	0.787300	0.941400	0.000100
C211	C21	0.312600	0.635200	0.426200
C221	C22	0.355100	0.737200	0.442100
C231	C23	0.076800	0.272200	0.480000
C241	C24	0.105900	0.279600	0.565700
C251	C25	0.272800	0.078400	0.479800
C261	C26	0.278400	0.104000	0.563800
C271	C27	0.633800	0.311800	0.425000
C281	C28	0.737500	0.356000	0.442700
C291	C29	0.603500	0.604400	0.591700
C301	C30	0.694800	0.696000	0.627400
C311	C31	0.000100	0.999800	0.747500
C321	C32	0.058600	0.058700	0.845900
C331	C33	0.364800	0.791000	0.677400
C341	C34	0.262800	0.704900	0.617900
C351	C35	0.727800	0.207800	0.804600
C361	C36	0.720400	0.286100	0.826300
C371	C37	0.598600	0.793000	0.520200
C381	C38	0.540200	0.714600	0.436200
C391	C39	0.886800	0.208800	0.575000
C401	C40	0.913300	0.294800	0.557300
C411	C41	0.012700	0.011800	0.408300
C421	C42	0.068600	0.067400	0.372600
C431	C43	0.252300	0.252600	0.252500
C441	C44	0.212800	0.212700	0.154100
C451	C45	0.113600	0.687400	0.322600
C461	C46	0.087000	0.644900	0.382100
C471	C47	0.403200	0.923200	0.195400
C481	C48	0.459800	0.894100	0.173700
N11	N1	0.862700	0.315800	0.187100
N21	N2	0.915400	0.286200	0.210600
N31	N3	0.003300	0.352000	0.232500
N41	N4	0.009200	0.425100	0.223100
N51	N5	0.653200	0.133800	0.264000
N61	N6	0.710400	0.151500	0.226100
N71	N7	0.774100	0.140700	0.261200
N81	N8	0.764300	0.117200	0.321900
N91	N9	0.478600	0.050500	0.070300
N101	N10	0.540600	0.082100	0.040700
N111	N11	0.500400	0.040900	0.959300
N121	N12	0.409000	0.981200	0.930000
N131	N13	0.064800	0.765100	0.069700
N141	N14	0.100800	0.722600	0.040800
N151	N15	0.059400	0.680400	0.959200
N161	N16	0.993300	0.695200	0.930300
N171	N17	0.129700	0.866000	0.520100
N181	N18	0.075600	0.849200	0.558600
N191	N19	0.121100	0.859700	0.634400
N201	N20	0.204600	0.882100	0.645900
N211	N21	0.871600	0.684900	0.546700
N221	N22	0.923900	0.714400	0.628700
N231	N23	0.880100	0.648200	0.652100
N241	N24	0.797700	0.575000	0.583700
N251	N25	0.128700	0.675600	0.812900
N261	N26	0.075600	0.704800	0.789400
N271	N27	0.119500	0.770800	0.767500
N281	N28	0.202000	0.786100	0.776900
N291	N29	0.869800	0.389200	0.736000
N301	N30	0.925400	0.484300	0.773900
N311	N31	0.879500	0.512900	0.738800
N321	N32	0.795300	0.442400	0.678100
N331	N33	0.980200	0.408300	0.929700
N341	N34	0.041400	0.499900	0.959300
N351	N35	0.081600	0.541100	0.040700
N361	N36	0.051200	0.479000	0.070000
N371	N37	0.695400	0.995100	0.930300
N381	N38	0.681800	0.060000	0.959200
N391	N39	0.721200	0.100200	0.040800
N401	N40	0.764900	0.063000	0.069700
N411	N41	0.345900	0.609600	0.479900
N421	N42	0.290600	0.517000	0.441400
N431	N43	0.225300	0.486700	0.365600
N441	N44	0.236200	0.558700	0.354100
N451	N45	0.138200	0.324900	0.453300
N461	N46	0.085700	0.295200	0.371300
N471	N47	0.996100	0.228000	0.347900
N481	N48	0.991300	0.214000	0.416300
N491	N49	0.324400	0.137300	0.453100
N501	N50	0.295200	0.084600	0.370800
N511	N51	0.229200	0.996700	0.348700
N521	N52	0.213900	0.990800	0.415900
N531	N53	0.610800	0.346800	0.480600
N541	N54	0.515700	0.289600	0.441100
N551	N55	0.487100	0.225900	0.366600
N561	N56	0.557600	0.235700	0.352900
N571	N57	0.591700	0.521400	0.571900
N581	N58	0.500100	0.459400	0.541500
N591	N59	0.458900	0.499600	0.540500
N601	N60	0.521000	0.591000	0.572200
N611	N61	0.004900	0.935200	0.700300
N621	N62	0.940000	0.899200	0.621800
N631	N63	0.899800	0.940600	0.621000
N641	N64	0.937000	0.006700	0.701900
N651	N65	0.390400	0.870300	0.736300
N661	N66	0.483000	0.924400	0.773600
N671	N67	0.513300	0.878900	0.738600
N681	N68	0.441300	0.795400	0.677500
N691	N69	0.675100	0.128400	0.813300
N701	N70	0.704800	0.076100	0.790500
N711	N71	0.772000	0.119900	0.768100
N721	N72	0.786000	0.202300	0.777300
N731	N73	0.684200	0.871300	0.546900
N741	N74	0.713800	0.924400	0.629200
N751	N75	0.648000	0.880500	0.651300
N761	N76	0.574900	0.798000	0.584100
N771	N77	0.866200	0.130200	0.519400
N781	N78	0.848500	0.074600	0.558900
N791	N79	0.859300	0.120500	0.633400
N801	N80	0.882800	0.204700	0.647100
N811	N81	0.949500	0.019800	0.428100
N821	N82	0.917900	0.958600	0.458500
N831	N83	0.959100	0.918400	0.459500
N841	N84	0.018800	0.948800	0.427800
N851	N85	0.234900	0.304600	0.299700
N861	N86	0.277400	0.318200	0.378200
N871	N87	0.319600	0.278800	0.379000
N881	N88	0.304800	0.235100	0.298100
N891	N89	0.134000	0.654100	0.263700
N901	N90	0.150800	0.709400	0.226400
N911	N91	0.140300	0.774700	0.261400
N921	N92	0.117900	0.763800	0.322500
N931	N93	0.315100	0.861800	0.186700
N941	N94	0.285600	0.914300	0.209500
N951	N95	0.351800	0.003900	0.231900
N961	N96	0.425000	0.008700	0.222700
Cl11	Cl1	0.653700	0.295250	0.211150
Cl21	Cl2	0.397640	0.164800	0.158440
Cl31	Cl3	0.156030	0.000000	0.156230
Cl41	Cl4	0.993560	0.835000	0.232760
Cl51	Cl5	0.916200	0.704630	0.358630
Cl61	Cl6	0.745880	0.745770	0.426790
Cl71	Cl7	0.084100	0.442550	0.788850
Cl81	Cl8	0.006360	0.239200	0.841560
Cl91	Cl9	0.843770	0.999800	0.843770
Cl101	Cl10	0.602240	0.760800	0.767240
Cl111	Cl11	0.346000	0.557570	0.641370
Cl121	Cl12	0.318980	0.319090	0.573210
Cl131	Cl13	0.557450	0.346300	0.641550
Cl141	Cl14	0.760800	0.602360	0.767160
Cl151	Cl15	0.000200	0.843970	0.843970
Cl161	Cl16	0.239200	0.006440	0.841440
Cl171	Cl17	0.442430	0.083800	0.788430
Cl181	Cl18	0.680910	0.254120	0.999890
Cl191	Cl19	0.704750	0.915900	0.358450
Cl201	Cl20	0.835200	0.993640	0.232840
Cl211	Cl21	0.000000	0.156230	0.156030
Cl221	Cl22	0.165000	0.397760	0.158560
Cl231	Cl23	0.295370	0.654000	0.211570
Cl241	Cl24	0.254230	0.681020	0.000110
