data_WIHCUM_clean_PM
_symmetry_space_group_name_H-M	'P1'
_cell_length_a	5.732800
_cell_length_b	10.915200
_cell_length_c	11.266500
_cell_angle_alpha	90.000000
_cell_angle_beta	97.106000
_cell_angle_gamma	90.000000
_symmetry_Int_Tables_number 1

loop_
_symmetry_equiv_pos_as_xyz
'x,y,z'

loop_
_atom_site_label
_atom_site_type_symbol
_atom_site_fract_x
_atom_site_fract_y
_atom_site_fract_z
Na11	Na1	0.772000	0.905580	0.745480
Na21	Na2	0.024090	0.594680	0.765220
Na31	Na3	0.272000	0.094420	0.745480
Na41	Na4	0.524090	0.405320	0.765220
H11	H1	0.759900	0.541500	0.045700
H21	H2	0.611700	0.628600	0.122400
H31	H3	0.026900	0.655100	0.170000
H41	H4	0.040500	0.701700	0.036800
H51	H5	0.924600	0.706300	0.389400
H61	H6	0.758600	0.775000	0.472100
H71	H7	0.156800	0.885300	0.384700
H81	H8	0.989800	0.954900	0.466800
H91	H9	0.184000	0.916000	0.898000
H101	H10	0.074000	0.014000	0.928000
H111	H11	0.609000	0.594000	0.612000
H121	H12	0.703000	0.512000	0.569000
H131	H13	0.259900	0.458500	0.045700
H141	H14	0.111700	0.371400	0.122400
H151	H15	0.526900	0.344900	0.170000
H161	H16	0.540500	0.298300	0.036800
H171	H17	0.424600	0.293700	0.389400
H181	H18	0.258600	0.225000	0.472100
H191	H19	0.656800	0.114700	0.384700
H201	H20	0.489800	0.045100	0.466800
H211	H21	0.684000	0.084000	0.898000
H221	H22	0.574000	0.986000	0.928000
H231	H23	0.109000	0.406000	0.612000
H241	H24	0.203000	0.488000	0.569000
C11	C1	0.716200	0.627800	0.058700
C21	C2	0.939900	0.700200	0.102200
C31	C3	0.857100	0.786800	0.406800
C41	C4	0.055700	0.874100	0.449000
C51	C5	0.216200	0.372200	0.058700
C61	C6	0.439900	0.299800	0.102200
C71	C7	0.357100	0.213200	0.406800
C81	C8	0.555700	0.125900	0.449000
S11	S1	0.557080	0.685350	0.924150
S21	S2	0.898740	0.856860	0.149690
S31	S3	0.671170	0.840170	0.273640
S41	S4	0.227680	0.816760	0.579430
S51	S5	0.057080	0.314650	0.924150
S61	S6	0.398740	0.143140	0.149690
S71	S7	0.171170	0.159830	0.273640
S81	S8	0.727680	0.183240	0.579430
O11	O1	0.404000	0.584560	0.877860
O21	O2	0.731300	0.716140	0.844670
O31	O3	0.424000	0.791280	0.956580
O41	O4	0.063600	0.784280	0.663230
O51	O5	0.389800	0.914830	0.624520
O61	O6	0.352300	0.710000	0.539820
O71	O7	0.093500	0.966400	0.880780
O81	O8	0.693500	0.541540	0.629800
O91	O9	0.904000	0.415440	0.877860
O101	O10	0.231300	0.283860	0.844670
O111	O11	0.924000	0.208720	0.956580
O121	O12	0.563600	0.215720	0.663230
O131	O13	0.889800	0.085170	0.624520
O141	O14	0.852300	0.290000	0.539820
O151	O15	0.593500	0.033600	0.880780
O161	O16	0.193500	0.458460	0.629800
