data_WIHSEN_clean_PM
_symmetry_space_group_name_H-M	'P1'
_cell_length_a	6.629100
_cell_length_b	18.254900
_cell_length_c	8.398300
_cell_angle_alpha	90.000000
_cell_angle_beta	90.000000
_cell_angle_gamma	90.000000
_symmetry_Int_Tables_number 1

loop_
_symmetry_equiv_pos_as_xyz
'x,y,z'

loop_
_atom_site_label
_atom_site_type_symbol
_atom_site_fract_x
_atom_site_fract_y
_atom_site_fract_z
O11	O1	0.165400	0.095000	0.729900
O21	O2	0.511600	0.050230	0.570500
O31	O3	0.326500	0.183710	0.980700
O41	O4	0.179100	0.258690	0.152300
C11	C1	0.262900	0.244100	0.023800
H11	H1	0.279400	0.282700	0.952700
O51	O5	0.665400	0.595000	0.729900
O61	O6	0.011600	0.550230	0.570500
O71	O7	0.826500	0.683710	0.980700
O81	O8	0.679100	0.758690	0.152300
C21	C2	0.762900	0.744100	0.023800
H21	H2	0.779400	0.782700	0.952700
O91	O9	0.834600	0.905000	0.229900
O101	O10	0.488400	0.949770	0.070500
O111	O11	0.673500	0.816290	0.480700
O121	O12	0.820900	0.741310	0.652300
C31	C3	0.737100	0.755900	0.523800
H31	H3	0.720600	0.717300	0.452700
O131	O13	0.334600	0.405000	0.229900
O141	O14	0.988400	0.449770	0.070500
O151	O15	0.173500	0.316290	0.480700
O161	O16	0.320900	0.241310	0.652300
C41	C4	0.237100	0.255900	0.523800
H41	H4	0.220600	0.217300	0.452700
O171	O17	0.834600	0.095000	0.770100
O181	O18	0.488400	0.050230	0.929500
O191	O19	0.673500	0.183710	0.519300
O201	O20	0.820900	0.258690	0.347700
C51	C5	0.737100	0.244100	0.476200
H51	H5	0.720600	0.282700	0.547300
O211	O21	0.334600	0.595000	0.770100
O221	O22	0.988400	0.550230	0.929500
O231	O23	0.173500	0.683710	0.519300
O241	O24	0.320900	0.758690	0.347700
C61	C6	0.237100	0.744100	0.476200
H61	H6	0.220600	0.782700	0.547300
O251	O25	0.165400	0.905000	0.270100
O261	O26	0.511600	0.949770	0.429500
O271	O27	0.326500	0.816290	0.019300
O281	O28	0.179100	0.741310	0.847700
C71	C7	0.262900	0.755900	0.976200
H71	H7	0.279400	0.717300	0.047300
O291	O29	0.665400	0.405000	0.270100
O301	O30	0.011600	0.449770	0.429500
O311	O31	0.826500	0.316290	0.019300
O321	O32	0.679100	0.241310	0.847700
C81	C8	0.762900	0.255900	0.976200
H81	H8	0.779400	0.217300	0.047300
Yb11	Yb1	0.500000	0.142780	0.750000
Yb21	Yb2	0.000000	0.642780	0.750000
Yb31	Yb3	0.500000	0.857220	0.250000
Yb41	Yb4	0.000000	0.357220	0.250000
C91	C9	0.000000	0.126400	0.750000
H91	H9	0.000000	0.177300	0.750000
C101	C10	0.500000	0.626400	0.750000
H101	H10	0.500000	0.677300	0.750000
C111	C11	0.000000	0.873600	0.250000
H111	H11	0.000000	0.822700	0.250000
C121	C12	0.500000	0.373600	0.250000
H121	H12	0.500000	0.322700	0.250000
C131	C13	0.424200	0.000000	0.500000
H131	H13	0.283900	0.000000	0.500000
C141	C14	0.924200	0.500000	0.500000
H141	H14	0.783900	0.500000	0.500000
C151	C15	0.575800	0.000000	0.000000
H151	H15	0.716100	0.000000	0.000000
C161	C16	0.075800	0.500000	0.000000
H161	H16	0.216100	0.500000	0.000000
