data_WIHTAK_clean_PM
_symmetry_space_group_name_H-M	'P1'
_cell_length_a	6.691600
_cell_length_b	18.581000
_cell_length_c	8.491000
_cell_angle_alpha	90.000000
_cell_angle_beta	90.000000
_cell_angle_gamma	90.000000
_symmetry_Int_Tables_number 1

loop_
_symmetry_equiv_pos_as_xyz
'x,y,z'

loop_
_atom_site_label
_atom_site_type_symbol
_atom_site_fract_x
_atom_site_fract_y
_atom_site_fract_z
O11	O1	0.485000	0.450090	0.067700
O21	O2	0.322500	0.318010	0.015600
O31	O3	0.163000	0.406200	0.273500
O41	O4	0.181600	0.243510	0.845900
C11	C1	0.267500	0.257600	0.972500
H11	H1	0.292300	0.219300	0.040400
O51	O5	0.985000	0.950090	0.067700
O61	O6	0.822500	0.818010	0.015600
O71	O7	0.663000	0.906200	0.273500
O81	O8	0.681600	0.743510	0.845900
C21	C2	0.767500	0.757600	0.972500
H21	H2	0.792300	0.719300	0.040400
O91	O9	0.515000	0.549910	0.567700
O101	O10	0.677500	0.681990	0.515600
O111	O11	0.837000	0.593800	0.773500
O121	O12	0.818400	0.756490	0.345900
C31	C3	0.732500	0.742400	0.472500
H31	H3	0.707700	0.780700	0.540400
O131	O13	0.015000	0.049910	0.567700
O141	O14	0.177500	0.181990	0.515600
O151	O15	0.337000	0.093800	0.773500
O161	O16	0.318400	0.256490	0.345900
C41	C4	0.232500	0.242400	0.472500
H41	H4	0.207700	0.280700	0.540400
O171	O17	0.515000	0.450090	0.432300
O181	O18	0.677500	0.318010	0.484400
O191	O19	0.837000	0.406200	0.226500
O201	O20	0.818400	0.243510	0.654100
C51	C5	0.732500	0.257600	0.527500
H51	H5	0.707700	0.219300	0.459600
O211	O21	0.015000	0.950090	0.432300
O221	O22	0.177500	0.818010	0.484400
O231	O23	0.337000	0.906200	0.226500
O241	O24	0.318400	0.743510	0.654100
C61	C6	0.232500	0.757600	0.527500
H61	H6	0.207700	0.719300	0.459600
O251	O25	0.485000	0.549910	0.932300
O261	O26	0.322500	0.681990	0.984400
O271	O27	0.163000	0.593800	0.726500
O281	O28	0.181600	0.756490	0.154100
C71	C7	0.267500	0.742400	0.027500
H71	H7	0.292300	0.780700	0.959600
O291	O29	0.985000	0.049910	0.932300
O301	O30	0.822500	0.181990	0.984400
O311	O31	0.663000	0.093800	0.726500
O321	O32	0.681600	0.256490	0.154100
C81	C8	0.767500	0.242400	0.027500
H81	H8	0.792300	0.280700	0.959600
Gd11	Gd1	0.500000	0.357300	0.250000
Gd21	Gd2	0.000000	0.857300	0.250000
Gd31	Gd3	0.500000	0.642700	0.750000
Gd41	Gd4	0.000000	0.142700	0.750000
C91	C9	0.000000	0.375700	0.250000
H91	H9	0.000000	0.325600	0.250000
C101	C10	0.500000	0.875700	0.250000
H101	H10	0.500000	0.825600	0.250000
C111	C11	0.000000	0.624300	0.750000
H111	H11	0.000000	0.674400	0.750000
C121	C12	0.500000	0.124300	0.750000
H121	H12	0.500000	0.174400	0.750000
C131	C13	0.573500	0.500000	0.000000
H131	H13	0.711000	0.500000	0.000000
C141	C14	0.073500	0.000000	0.000000
H141	H14	0.211000	0.000000	0.000000
C151	C15	0.426500	0.500000	0.500000
H151	H15	0.289000	0.500000	0.500000
C161	C16	0.926500	0.000000	0.500000
H161	H16	0.789000	0.000000	0.500000
