data_WIHTIS_clean_PM
_symmetry_space_group_name_H-M	'P1'
_cell_length_a	6.675400
_cell_length_b	18.394300
_cell_length_c	8.457100
_cell_angle_alpha	90.000000
_cell_angle_beta	90.000000
_cell_angle_gamma	90.000000
_symmetry_Int_Tables_number 1

loop_
_symmetry_equiv_pos_as_xyz
'x,y,z'

loop_
_atom_site_label
_atom_site_type_symbol
_atom_site_fract_x
_atom_site_fract_y
_atom_site_fract_z
O11	O1	0.164100	0.094380	0.769500
O21	O2	0.490000	0.050210	0.569800
O31	O3	0.175500	0.316510	0.018700
O41	O4	0.320200	0.241920	0.848000
C11	C1	0.236700	0.256300	0.975400
H11	H1	0.218500	0.217800	0.045300
O51	O5	0.664100	0.594380	0.769500
O61	O6	0.990000	0.550210	0.569800
O71	O7	0.675500	0.816510	0.018700
O81	O8	0.820200	0.741920	0.848000
C21	C2	0.736700	0.756300	0.975400
H21	H2	0.718500	0.717800	0.045300
O91	O9	0.835900	0.905620	0.269500
O101	O10	0.510000	0.949790	0.069800
O111	O11	0.824500	0.683490	0.518700
O121	O12	0.679800	0.758080	0.348000
C31	C3	0.763300	0.743700	0.475400
H31	H3	0.781500	0.782200	0.545300
O131	O13	0.335900	0.405620	0.269500
O141	O14	0.010000	0.449790	0.069800
O151	O15	0.324500	0.183490	0.518700
O161	O16	0.179800	0.258080	0.348000
C41	C4	0.263300	0.243700	0.475400
H41	H4	0.281500	0.282200	0.545300
O171	O17	0.835900	0.094380	0.730500
O181	O18	0.510000	0.050210	0.930200
O191	O19	0.824500	0.316510	0.481300
O201	O20	0.679800	0.241920	0.652000
C51	C5	0.763300	0.256300	0.524600
H51	H5	0.781500	0.217800	0.454700
O211	O21	0.335900	0.594380	0.730500
O221	O22	0.010000	0.550210	0.930200
O231	O23	0.324500	0.816510	0.481300
O241	O24	0.179800	0.741920	0.652000
C61	C6	0.263300	0.756300	0.524600
H61	H6	0.281500	0.717800	0.454700
O251	O25	0.164100	0.905620	0.230500
O261	O26	0.490000	0.949790	0.430200
O271	O27	0.175500	0.683490	0.981300
O281	O28	0.320200	0.758080	0.152000
C71	C7	0.236700	0.743700	0.024600
H71	H7	0.218500	0.782200	0.954700
O291	O29	0.664100	0.405620	0.230500
O301	O30	0.990000	0.449790	0.430200
O311	O31	0.675500	0.183490	0.981300
O321	O32	0.820200	0.258080	0.152000
C81	C8	0.736700	0.243700	0.024600
H81	H8	0.718500	0.282200	0.954700
Y11	Y1	0.500000	0.142610	0.750000
Y21	Y2	0.000000	0.642600	0.750000
Y31	Y3	0.500000	0.857400	0.250000
Y41	Y4	0.000000	0.357390	0.250000
C91	C9	0.000000	0.125400	0.750000
H91	H9	0.000000	0.176000	0.750000
C101	C10	0.500000	0.625400	0.750000
H101	H10	0.500000	0.676000	0.750000
C111	C11	0.000000	0.874600	0.250000
H111	H11	0.000000	0.824000	0.250000
C121	C12	0.500000	0.374600	0.250000
H121	H12	0.500000	0.324000	0.250000
C131	C13	0.574900	0.000000	0.500000
H131	H13	0.714200	0.000000	0.500000
C141	C14	0.074900	0.500000	0.500000
H141	H14	0.214200	0.500000	0.500000
C151	C15	0.425100	0.000000	0.000000
H151	H15	0.285800	0.000000	0.000000
C161	C16	0.925100	0.500000	0.000000
H161	H16	0.785800	0.500000	0.000000
