data_WIHVEP_clean_PM
_symmetry_space_group_name_H-M	'P1'
_cell_length_a	10.207200
_cell_length_b	11.756100
_cell_length_c	14.961400
_cell_angle_alpha	91.863900
_cell_angle_beta	90.000000
_cell_angle_gamma	90.000000
_symmetry_Int_Tables_number 1

loop_
_symmetry_equiv_pos_as_xyz
'x,y,z'

loop_
_atom_site_label
_atom_site_type_symbol
_atom_site_fract_x
_atom_site_fract_y
_atom_site_fract_z
Mn11	Mn1	0.919310	0.756790	0.131650
Mn21	Mn2	0.106880	0.739160	0.312820
Mn31	Mn3	0.419310	0.743210	0.368350
Mn41	Mn4	0.606880	0.760840	0.187180
Mn51	Mn5	0.080690	0.243210	0.868350
Mn61	Mn6	0.893120	0.260840	0.687180
Mn71	Mn7	0.580690	0.256790	0.631650
Mn81	Mn8	0.393120	0.239160	0.812820
Mn91	Mn9	0.000000	0.500000	0.000000
Mn101	Mn10	0.500000	0.000000	0.500000
Mn111	Mn11	0.000000	0.000000	0.000000
Mn121	Mn12	0.500000	0.500000	0.500000
H11	H1	0.753000	0.846800	0.370800
H21	H2	0.034000	0.483300	0.265300
H31	H3	0.615000	0.566100	0.041100
H41	H4	0.214000	0.961800	0.223800
H51	H5	0.153000	0.696800	0.925800
H61	H6	0.707000	0.996300	0.027300
H71	H7	0.253000	0.653200	0.129200
H81	H8	0.534000	0.016700	0.234700
H91	H9	0.115000	0.933900	0.458900
H101	H10	0.714000	0.538200	0.276200
H111	H11	0.653000	0.803200	0.574200
H121	H12	0.207000	0.503700	0.472700
H131	H13	0.247000	0.153200	0.629200
H141	H14	0.966000	0.516700	0.734700
H151	H15	0.385000	0.433900	0.958900
H161	H16	0.786000	0.038200	0.776200
H171	H17	0.847000	0.303200	0.074200
H181	H18	0.293000	0.003700	0.972700
H191	H19	0.747000	0.346800	0.870800
H201	H20	0.466000	0.983300	0.765300
H211	H21	0.885000	0.066100	0.541100
H221	H22	0.286000	0.461800	0.723800
H231	H23	0.347000	0.196800	0.425800
H241	H24	0.793000	0.496300	0.527300
C11	C1	0.825400	0.824060	0.331460
C21	C2	0.018600	0.519890	0.208590
C31	C3	0.712400	0.576890	0.049990
C41	C4	0.140400	0.941080	0.180480
C51	C5	0.097100	0.740530	0.964130
C61	C6	0.724500	0.936790	0.059690
C71	C7	0.325400	0.675940	0.168540
C81	C8	0.518600	0.980110	0.291410
C91	C9	0.212400	0.923110	0.450010
C101	C10	0.640400	0.558920	0.319520
C111	C11	0.597100	0.759470	0.535870
C121	C12	0.224500	0.563210	0.440310
C131	C13	0.174600	0.175940	0.668540
C141	C14	0.981400	0.480110	0.791410
C151	C15	0.287600	0.423110	0.950010
C161	C16	0.859600	0.058920	0.819520
C171	C17	0.902900	0.259470	0.035870
C181	C18	0.275500	0.063210	0.940310
C191	C19	0.674600	0.324060	0.831460
C201	C20	0.481400	0.019890	0.708590
C211	C21	0.787600	0.076890	0.549990
C221	C22	0.359600	0.441080	0.680480
C231	C23	0.402900	0.240530	0.464130
C241	C24	0.775500	0.436790	0.559690
O11	O1	0.799340	0.803930	0.249180
O21	O2	0.933100	0.811760	0.367810
O31	O3	0.007510	0.627680	0.216290
O41	O4	0.002100	0.461970	0.139880
O51	O5	0.742110	0.655190	0.107120
O61	O6	0.790020	0.520160	0.003310
O71	O7	0.080660	0.849000	0.196040
O81	O8	0.118900	0.004570	0.118600
O91	O9	0.028900	0.686660	0.020760
O101	O10	0.098360	0.844130	0.955660
O111	O11	0.842420	0.902920	0.064360
O121	O12	0.628930	0.895140	0.097190
O131	O13	0.299340	0.696070	0.250820
O141	O14	0.433100	0.688240	0.132190
O151	O15	0.507510	0.872320	0.283710
O161	O16	0.502100	0.038030	0.360120
O171	O17	0.242110	0.844810	0.392880
O181	O18	0.290020	0.979840	0.496690
O191	O19	0.580660	0.651000	0.303960
O201	O20	0.618900	0.495430	0.381400
O211	O21	0.528900	0.813340	0.479240
O221	O22	0.598360	0.655870	0.544340
O231	O23	0.342420	0.597080	0.435640
O241	O24	0.128930	0.604860	0.402810
O251	O25	0.200660	0.196070	0.750820
O261	O26	0.066900	0.188240	0.632190
O271	O27	0.992490	0.372320	0.783710
O281	O28	0.997900	0.538030	0.860120
O291	O29	0.257890	0.344810	0.892880
O301	O30	0.209980	0.479840	0.996690
O311	O31	0.919340	0.151000	0.803960
O321	O32	0.881100	0.995430	0.881400
O331	O33	0.971100	0.313340	0.979240
O341	O34	0.901640	0.155870	0.044340
O351	O35	0.157580	0.097080	0.935640
O361	O36	0.371070	0.104860	0.902810
O371	O37	0.700660	0.303930	0.749180
O381	O38	0.566900	0.311760	0.867810
O391	O39	0.492490	0.127680	0.716290
O401	O40	0.497900	0.961970	0.639880
O411	O41	0.757890	0.155190	0.607120
O421	O42	0.709980	0.020160	0.503310
O431	O43	0.419340	0.349000	0.696040
O441	O44	0.381100	0.504570	0.618600
O451	O45	0.471100	0.186660	0.520760
O461	O46	0.401640	0.344130	0.455660
O471	O47	0.657580	0.402920	0.564360
O481	O48	0.871070	0.395140	0.597190
