data_WIHWAN_clean_PM
_symmetry_space_group_name_H-M	'P1'
_cell_length_a	19.090300
_cell_length_b	19.090300
_cell_length_c	27.429500
_cell_angle_alpha	110.364000
_cell_angle_beta	110.364000
_cell_angle_gamma	90.000100
_symmetry_Int_Tables_number 1

loop_
_symmetry_equiv_pos_as_xyz
'x,y,z'

loop_
_atom_site_label
_atom_site_type_symbol
_atom_site_fract_x
_atom_site_fract_y
_atom_site_fract_z
Zn11	Zn1	0.505760	0.430930	0.511510
Zn21	Zn2	0.430930	0.505760	0.011510
Zn31	Zn3	0.505760	0.080580	0.511520
Zn41	Zn4	0.919420	0.494240	0.988480
Zn51	Zn5	0.080580	0.505760	0.011520
Zn61	Zn6	0.569070	0.494240	0.988490
Zn71	Zn7	0.494240	0.569070	0.488490
Zn81	Zn8	0.494240	0.919420	0.488480
H11	H1	0.766400	0.520900	0.916800
H21	H2	0.742200	0.820900	0.189400
H31	H3	0.585300	0.312200	0.381200
H41	H4	0.257800	0.631500	0.810600
H51	H5	0.650400	0.520900	0.916800
H61	H6	0.161400	0.346300	0.202200
H71	H7	0.383200	0.795500	0.475000
H81	H8	0.320500	0.408200	0.025000
H91	H9	0.520900	0.766400	0.416800
H101	H10	0.742200	0.368500	0.189400
H111	H11	0.679500	0.383200	0.975000
H121	H12	0.408200	0.204500	0.525000
H131	H13	0.740100	0.145100	0.633000
H141	H14	0.259900	0.512100	0.367000
H151	H15	0.179100	0.257800	0.310600
H161	H16	0.540800	0.855900	0.202200
H171	H17	0.414700	0.931000	0.618800
H181	H18	0.616800	0.320500	0.525000
H191	H19	0.650400	0.395900	0.916800
H201	H20	0.854900	0.259900	0.867000
H211	H21	0.204500	0.616800	0.025000
H221	H22	0.723800	0.488900	0.061600
H231	H23	0.487900	0.392900	0.133000
H241	H24	0.488900	0.837800	0.561600
H251	H25	0.487900	0.740100	0.133000
H261	H26	0.368500	0.742200	0.689400
H271	H27	0.855900	0.540800	0.702200
H281	H28	0.820900	0.947200	0.689400
H291	H29	0.346300	0.540800	0.702200
H301	H30	0.679500	0.591800	0.975000
H311	H31	0.408200	0.320500	0.525000
H321	H32	0.837800	0.488900	0.061600
H331	H33	0.145100	0.392900	0.133000
H341	H34	0.838600	0.144100	0.797800
H351	H35	0.931000	0.414700	0.118800
H361	H36	0.854900	0.607100	0.867000
H371	H37	0.591800	0.795500	0.475000
H381	H38	0.312200	0.295900	0.881200
H391	H39	0.052800	0.631500	0.810600
H401	H40	0.704100	0.931000	0.618800
H411	H41	0.604100	0.233600	0.583200
H421	H42	0.144100	0.838600	0.297800
H431	H43	0.276200	0.511100	0.938400
H441	H44	0.520900	0.650400	0.416800
H451	H45	0.479100	0.349600	0.583200
H461	H46	0.607100	0.854900	0.367000
H471	H47	0.931000	0.704100	0.118800
H481	H48	0.383200	0.679500	0.475000
H491	H49	0.795500	0.591800	0.975000
H501	H50	0.459200	0.144100	0.797800
H511	H51	0.162200	0.427300	0.938400
H521	H52	0.838600	0.653700	0.797800
H531	H53	0.459200	0.653700	0.797800
H541	H54	0.820900	0.742200	0.689400
H551	H55	0.837800	0.572700	0.061600
H561	H56	0.947200	0.820900	0.189400
H571	H57	0.653700	0.838600	0.297800
H581	H58	0.855900	0.161400	0.702200
H591	H59	0.144100	0.459200	0.297800
H601	H60	0.511100	0.162200	0.438400
H611	H61	0.427300	0.162200	0.438400
H621	H62	0.259900	0.854900	0.367000
H631	H63	0.069000	0.585300	0.881200
H641	H64	0.704100	0.687800	0.618800
H651	H65	0.295900	0.312200	0.381200
H661	H66	0.349600	0.604100	0.083200
H671	H67	0.179100	0.052800	0.310600
H681	H68	0.488900	0.723800	0.561600
H691	H69	0.052800	0.179100	0.810600
H701	H70	0.295900	0.069000	0.381200
H711	H71	0.591800	0.679500	0.475000
H721	H72	0.687800	0.704100	0.118800
H731	H73	0.368500	0.947200	0.689400
H741	H74	0.161400	0.855900	0.202200
H751	H75	0.540800	0.346300	0.202200
H761	H76	0.631500	0.257800	0.310600
H771	H77	0.257800	0.179100	0.810600
H781	H78	0.392900	0.487900	0.633000
H791	H79	0.145100	0.740100	0.133000
H801	H80	0.069000	0.295900	0.881200
H811	H81	0.604100	0.349600	0.583200
H821	H82	0.795500	0.383200	0.975000
H831	H83	0.947200	0.368500	0.189400
H841	H84	0.512100	0.607100	0.867000
H851	H85	0.511100	0.276200	0.438400
H861	H86	0.204500	0.408200	0.025000
H871	H87	0.607100	0.512100	0.367000
H881	H88	0.723800	0.572700	0.061600
H891	H89	0.427300	0.276200	0.438400
H901	H90	0.312200	0.585300	0.881200
H911	H91	0.585300	0.069000	0.381200
H921	H92	0.233600	0.479100	0.083200
H931	H93	0.162200	0.511100	0.938400
H941	H94	0.631500	0.052800	0.310600
H951	H95	0.479100	0.233600	0.583200
H961	H96	0.395900	0.766400	0.416800
H971	H97	0.766400	0.395900	0.916800
H981	H98	0.653700	0.459200	0.297800
H991	H99	0.687800	0.414700	0.118800
H1001	H100	0.572700	0.837800	0.561600
H1011	H101	0.276200	0.427300	0.938400
H1021	H102	0.740100	0.487900	0.633000
H1031	H103	0.616800	0.204500	0.525000
H1041	H104	0.233600	0.604100	0.083200
H1051	H105	0.395900	0.650400	0.416800
H1061	H106	0.349600	0.479100	0.083200
H1071	H107	0.392900	0.145100	0.633000
H1081	H108	0.572700	0.723800	0.561600
H1091	H109	0.512100	0.259900	0.867000
H1101	H110	0.346300	0.161400	0.702200
H1111	H111	0.414700	0.687800	0.618800
H1121	H112	0.320500	0.616800	0.025000
C11	C1	0.055920	0.355120	0.204680
C21	C2	0.658370	0.236670	0.222140
C31	C3	0.978970	0.734500	0.136600
C41	C4	0.265500	0.342370	0.363400
C51	C5	0.756020	0.540260	0.644980
C61	C6	0.583620	0.231240	0.544040
C71	C7	0.236670	0.063770	0.722140
C81	C8	0.063770	0.985470	0.222140
C91	C9	0.195540	0.011540	0.321280
C101	C10	0.341630	0.763330	0.777860
C111	C11	0.231240	0.583620	0.044040
C121	C12	0.588380	0.415560	0.379660
C131	C13	0.014530	0.936230	0.277860
C141	C14	0.011540	0.625740	0.821280
C151	C15	0.985470	0.063770	0.722140
C161	C16	0.644880	0.351240	0.295320
C171	C17	0.035900	0.411620	0.120340
C181	C18	0.231240	0.460420	0.044040
C191	C19	0.351240	0.150440	0.795320
C201	C20	0.597900	0.342370	0.363400
C211	C21	0.824410	0.114250	0.685920
C221	C22	0.540260	0.388960	0.144980
C231	C23	0.584440	0.708720	0.120340
C241	C24	0.368330	0.450100	0.424460
C251	C25	0.312800	0.460420	0.044040
C261	C26	0.708720	0.584440	0.620340
C271	C27	0.460420	0.231240	0.544040
C281	C28	0.025640	0.631670	0.075540
C291	C29	0.763330	0.341630	0.277860
C301	C30	0.025640	0.443870	0.075540
C311	C31	0.189410	0.479310	0.958620
C321	C32	0.035900	0.708720	0.120340
C331	C33	0.460420	0.312800	0.544040
C341	C34	0.351240	0.644880	0.795320
C351	C35	0.944080	0.644880	0.795320
C361	C36	0.416380	0.768760	0.455960
C371	C37	0.195540	0.309740	0.321280
C381	C38	0.988460	0.804460	0.178720
C391	C39	0.450100	0.368330	0.924460
C401	C40	0.269210	0.479310	0.958620
C411	C41	0.011540	0.195540	0.821280
C421	C42	0.687200	0.539580	0.955960
C431	C43	0.368330	0.974360	0.424460
C441	C44	0.625740	0.309740	0.321280
C451	C45	0.459740	0.611040	0.855020
C461	C46	0.571670	0.824410	0.185920
C471	C47	0.114250	0.824410	0.185920
C481	C48	0.631670	0.549900	0.575540
C491	C49	0.638490	0.428330	0.314080
C501	C50	0.459740	0.243980	0.855020
C511	C51	0.763330	0.936230	0.277860
C521	C52	0.243980	0.459740	0.355020
C531	C53	0.309740	0.195540	0.821280
C541	C54	0.388960	0.104720	0.644980
C551	C55	0.588380	0.964100	0.379660
C561	C56	0.657630	0.734500	0.136600
C571	C57	0.104720	0.388960	0.144980
C581	C58	0.450100	0.556130	0.924460
C591	C59	0.309740	0.625740	0.821280
C601	C60	0.644880	0.944080	0.295320
C611	C61	0.342370	0.597900	0.863400
C621	C62	0.988460	0.374260	0.178720
C631	C63	0.611040	0.459740	0.355020
C641	C64	0.734500	0.978970	0.636600
C651	C65	0.611040	0.895280	0.355020
C661	C66	0.804460	0.690260	0.678720
C671	C67	0.072300	0.322300	0.250000
C681	C68	0.443870	0.025640	0.575540
C691	C69	0.402100	0.657630	0.636600
C701	C70	0.355120	0.055920	0.704680
C711	C71	0.415560	0.588380	0.879660
C721	C72	0.597900	0.021030	0.363400
C731	C73	0.936230	0.763330	0.777860
C741	C74	0.768760	0.416380	0.955960
C751	C75	0.657630	0.402100	0.136600
C761	C76	0.374260	0.988460	0.678720
C771	C77	0.114250	0.361510	0.185920
C781	C78	0.687200	0.416380	0.955960
C791	C79	0.824410	0.571670	0.685920
C801	C80	0.974360	0.368330	0.924460
C811	C81	0.411620	0.035900	0.620340
C821	C82	0.804460	0.988460	0.678720
C831	C83	0.927700	0.072300	0.750000
C841	C84	0.428330	0.175590	0.814080
C851	C85	0.388960	0.540260	0.644980
C861	C86	0.411620	0.584440	0.620340
C871	C87	0.849560	0.055920	0.704680
C881	C88	0.638490	0.885750	0.314080
C891	C89	0.648760	0.355120	0.204680
C901	C90	0.768760	0.539580	0.955960
C911	C91	0.556130	0.974360	0.424460
C921	C92	0.985470	0.658370	0.722140
C931	C93	0.964100	0.588380	0.879660
C941	C94	0.539580	0.768760	0.455960
C951	C95	0.964100	0.291280	0.879660
C961	C96	0.756020	0.104720	0.644980
C971	C97	0.549900	0.443870	0.075540
C981	C98	0.549900	0.631670	0.075540
C991	C99	0.944080	0.150440	0.795320
C1001	C100	0.936230	0.014530	0.777860
C1011	C101	0.974360	0.556130	0.924460
C1021	C102	0.236670	0.658370	0.722140
C1031	C103	0.583620	0.312800	0.544040
C1041	C104	0.322300	0.072300	0.750000
C1051	C105	0.443870	0.549900	0.575540
C1061	C106	0.021030	0.597900	0.863400
C1071	C107	0.265500	0.021030	0.363400
C1081	C108	0.291280	0.415560	0.379660
C1091	C109	0.063770	0.236670	0.222140
C1101	C110	0.648760	0.849560	0.204680
C1111	C111	0.690260	0.374260	0.178720
C1121	C112	0.625740	0.011540	0.321280
C1131	C113	0.104720	0.756020	0.144980
C1141	C114	0.355120	0.648760	0.704680
C1151	C115	0.556130	0.450100	0.424460
C1161	C116	0.520690	0.730790	0.541380
C1171	C117	0.322300	0.677700	0.750000
C1181	C118	0.571670	0.361510	0.185920
C1191	C119	0.361510	0.571670	0.685920
C1201	C120	0.708720	0.035900	0.620340
C1211	C121	0.520690	0.810590	0.541380
C1221	C122	0.479310	0.269210	0.458620
C1231	C123	0.055920	0.849560	0.204680
C1241	C124	0.415560	0.291280	0.879660
C1251	C125	0.895280	0.611040	0.855020
C1261	C126	0.479310	0.189410	0.458620
C1271	C127	0.658370	0.985470	0.222140
C1281	C128	0.361510	0.114250	0.685920
C1291	C129	0.584440	0.411620	0.120340
C1301	C130	0.885750	0.638490	0.814080
C1311	C131	0.885750	0.175590	0.814080
C1321	C132	0.677700	0.927700	0.250000
C1331	C133	0.539580	0.687200	0.455960
C1341	C134	0.175590	0.428330	0.314080
C1351	C135	0.014530	0.341630	0.277860
C1361	C136	0.416380	0.687200	0.455960
C1371	C137	0.895280	0.243980	0.855020
C1381	C138	0.730790	0.520690	0.041380
C1391	C139	0.374260	0.690260	0.678720
C1401	C140	0.428330	0.638490	0.814080
C1411	C141	0.540260	0.756020	0.144980
C1421	C142	0.342370	0.265500	0.863400
C1431	C143	0.243980	0.895280	0.355020
C1441	C144	0.072300	0.927700	0.250000
C1451	C145	0.021030	0.265500	0.863400
C1461	C146	0.341630	0.014530	0.777860
C1471	C147	0.150440	0.351240	0.295320
C1481	C148	0.978970	0.402100	0.136600
C1491	C149	0.291280	0.964100	0.379660
C1501	C150	0.927700	0.677700	0.750000
C1511	C151	0.677700	0.322300	0.250000
C1521	C152	0.810590	0.520690	0.041380
C1531	C153	0.734500	0.657630	0.636600
C1541	C154	0.150440	0.944080	0.295320
C1551	C155	0.631670	0.025640	0.575540
C1561	C156	0.402100	0.978970	0.636600
C1571	C157	0.175590	0.885750	0.314080
C1581	C158	0.312800	0.583620	0.044040
C1591	C159	0.849560	0.648760	0.704680
C1601	C160	0.690260	0.804460	0.178720
N11	N1	0.507860	0.189600	0.515720
N21	N2	0.810400	0.492140	0.984280
N31	N3	0.492140	0.810400	0.484280
N41	N4	0.326120	0.507860	0.015720
N51	N5	0.189600	0.507860	0.015720
N61	N6	0.507860	0.326120	0.515720
N71	N7	0.492140	0.673880	0.484280
N81	N8	0.673880	0.492140	0.984280
O11	O1	0.402430	0.039990	0.450280
O21	O2	0.589710	0.452150	0.049720
O31	O3	0.402430	0.410290	0.450280
O41	O4	0.083280	0.459040	0.067920
O51	O5	0.916720	0.391120	0.932080
O61	O6	0.608880	0.083280	0.567920
O71	O7	0.540960	0.515360	0.432080
O81	O8	0.515360	0.391120	0.932080
O91	O9	0.960010	0.597570	0.049720
O101	O10	0.547850	0.039990	0.450280
O111	O11	0.452150	0.960010	0.549720
O121	O12	0.597570	0.960010	0.549720
O131	O13	0.515360	0.540960	0.932080
O141	O14	0.039990	0.547850	0.950280
O151	O15	0.459040	0.484640	0.567920
O161	O16	0.589710	0.597570	0.049720
O171	O17	0.039990	0.402430	0.950280
O181	O18	0.608880	0.484640	0.567920
O191	O19	0.391120	0.515360	0.432080
O201	O20	0.597570	0.589710	0.549720
O211	O21	0.540960	0.916720	0.432080
O221	O22	0.484640	0.459040	0.067920
O231	O23	0.410290	0.402430	0.950280
O241	O24	0.484640	0.608880	0.067920
O251	O25	0.960010	0.452150	0.049720
O261	O26	0.410290	0.547850	0.950280
O271	O27	0.391120	0.916720	0.432080
O281	O28	0.083280	0.608880	0.067920
O291	O29	0.459040	0.083280	0.567920
O301	O30	0.916720	0.540960	0.932080
O311	O31	0.547850	0.410290	0.450280
O321	O32	0.452150	0.589710	0.549720
F11	F1	0.695350	0.055570	0.254120
F21	F2	0.322130	0.035600	0.824300
F31	F3	0.035600	0.322130	0.324300
F41	F4	0.009880	0.881470	0.298480
F51	F5	0.990120	0.118530	0.701520
F61	F6	0.941230	0.944430	0.745880
F71	F7	0.997830	0.964400	0.175700
F81	F8	0.322130	0.788700	0.824300
F91	F9	0.997830	0.211300	0.175700
F101	F10	0.964400	0.997830	0.675700
F111	F11	0.304650	0.944430	0.745880
F121	F12	0.944430	0.304650	0.245880
F131	F13	0.058770	0.198550	0.254120
F141	F14	0.055570	0.695350	0.754120
F151	F15	0.118530	0.990120	0.201520
F161	F16	0.801450	0.941230	0.245880
F171	F17	0.211300	0.997830	0.675700
F181	F18	0.677870	0.964400	0.175700
F191	F19	0.002170	0.035600	0.824300
F201	F20	0.941230	0.801450	0.745880
F211	F21	0.788600	0.881470	0.298480
F221	F22	0.002170	0.788700	0.824300
F231	F23	0.582990	0.990120	0.201520
F241	F24	0.990120	0.582990	0.701520
F251	F25	0.695350	0.198550	0.254120
F261	F26	0.055570	0.058770	0.754120
F271	F27	0.944430	0.941230	0.245880
F281	F28	0.304650	0.801450	0.745880
F291	F29	0.198550	0.695350	0.754120
F301	F30	0.801450	0.304650	0.245880
F311	F31	0.788600	0.417010	0.298480
F321	F32	0.198550	0.058770	0.754120
F331	F33	0.058770	0.055570	0.254120
F341	F34	0.964400	0.677870	0.675700
F351	F35	0.788700	0.322130	0.324300
F361	F36	0.211400	0.582990	0.701520
F371	F37	0.118530	0.211400	0.201520
F381	F38	0.417010	0.788600	0.798480
F391	F39	0.035600	0.002170	0.324300
F401	F40	0.677870	0.211300	0.175700
F411	F41	0.211300	0.677870	0.675700
F421	F42	0.417010	0.009880	0.798480
F431	F43	0.881470	0.788600	0.798480
F441	F44	0.582990	0.211400	0.201520
F451	F45	0.881470	0.009880	0.798480
F461	F46	0.211400	0.118530	0.701520
F471	F47	0.009880	0.417010	0.298480
F481	F48	0.788700	0.002170	0.324300
