data_WIJXEU_clean_PM
_symmetry_space_group_name_H-M	'P1'
_cell_length_a	39.826000
_cell_length_b	14.012000
_cell_length_c	29.269000
_cell_angle_alpha	90.000000
_cell_angle_beta	123.206000
_cell_angle_gamma	90.000000
_symmetry_Int_Tables_number 1

loop_
_symmetry_equiv_pos_as_xyz
'x,y,z'

loop_
_atom_site_label
_atom_site_type_symbol
_atom_site_fract_x
_atom_site_fract_y
_atom_site_fract_z
Zn11	Zn1	0.989510	0.471690	0.945100
N11	N1	0.964630	0.444100	0.863310
O11	O1	0.048230	0.437700	0.978860
O21	O2	0.983030	0.345700	0.973000
O31	O3	0.938250	0.519300	0.940420
O41	O4	0.001960	0.612100	0.943510
C11	C1	0.954000	0.344000	0.849700
C21	C2	0.992830	0.468500	0.848000
C31	C3	0.928400	0.500700	0.829800
C41	C4	0.072200	0.444700	0.029700
C51	C5	0.987530	0.329300	0.019200
H11	H1	0.936500	0.324400	0.861400
H21	H2	0.978100	0.305200	0.868800
C61	C6	0.932300	0.327700	0.786900
H31	H3	0.017600	0.433300	0.870800
H41	H4	0.999000	0.536100	0.854000
C71	C7	0.975000	0.444400	0.788000
H51	H5	0.934600	0.567700	0.839000
H61	H6	0.908500	0.482200	0.837400
C81	C8	0.911300	0.486000	0.768500
C91	C9	0.113730	0.411900	0.055700
C101	C10	0.979900	0.228000	0.028200
N21	N2	0.934040	0.411800	0.760950
H71	H7	0.944900	0.275300	0.780200
H81	H8	0.904400	0.310800	0.771700
H91	H9	0.976000	0.500600	0.769400
H101	H10	0.991100	0.395100	0.785600
H111	H11	0.883300	0.467400	0.749700
H121	H12	0.912700	0.545500	0.752700
C111	C11	0.127400	0.381200	0.023600
C121	C12	0.138800	0.412000	0.111500
C131	C13	0.971400	0.155500	0.990400
C141	C14	0.982400	0.207200	0.076000
Zn21	Zn2	0.906350	0.391570	0.676270
H131	H13	0.110900	0.381500	0.985700
C151	C15	0.166320	0.350400	0.050300
C161	C16	0.175900	0.379800	0.137500
H141	H14	0.129200	0.435800	0.132000
H151	H15	0.971500	0.169900	0.959500
C171	C17	0.963000	0.063200	0.997700
C181	C18	0.974200	0.112900	0.083800
H161	H16	0.989200	0.253900	0.102200
O51	O5	0.855680	0.347800	0.662770
O61	O6	0.928330	0.335300	0.636500
N31	N3	0.187680	0.315800	0.029680
C191	C19	0.192000	0.345900	0.106300
H171	H17	0.191600	0.378700	0.175500
H181	H18	0.955900	0.017000	0.971100
C201	C20	0.965300	0.041500	0.044600
N41	N4	0.972800	0.074400	0.126200
H191	H19	0.178600	0.311800	0.995500
C211	C21	0.226470	0.287500	0.072000
C221	C22	0.230300	0.304000	0.122300
C231	C23	0.959000	0.952900	0.066500
H201	H20	0.976900	0.104200	0.154500
C241	C24	0.963300	0.977100	0.114200
C251	C25	0.257380	0.246900	0.070200
C261	C26	0.266000	0.278800	0.170700
C271	C27	0.949600	0.861200	0.048200
C281	C28	0.957100	0.915100	0.145900
H211	H21	0.254300	0.234400	0.036900
C291	C29	0.292400	0.225600	0.118100
C301	C30	0.298000	0.241300	0.170100
H221	H22	0.268400	0.287200	0.203800
C311	C31	0.944100	0.793300	0.078100
H231	H23	0.946800	0.844100	0.015500
H241	H24	0.958800	0.934500	0.177500
C321	C32	0.947800	0.820900	0.126400
C331	C33	0.327100	0.182400	0.118100
H251	H25	0.322200	0.226900	0.202300
H261	H26	0.938100	0.730400	0.066100
C341	C34	0.937800	0.745500	0.156100
O71	O7	0.325320	0.173300	0.074800
O81	O8	0.936400	0.774400	0.195100
Zn31	Zn3	0.489510	0.971690	0.945100
N51	N5	0.464630	0.944100	0.863310
O91	O9	0.548230	0.937700	0.978860
O101	O10	0.483030	0.845700	0.973000
O111	O11	0.438250	0.019300	0.940420
O121	O12	0.501960	0.112100	0.943510
C351	C35	0.454000	0.844000	0.849700
C361	C36	0.492830	0.968500	0.848000
C371	C37	0.428400	0.000700	0.829800
C381	C38	0.572200	0.944700	0.029700
C391	C39	0.487530	0.829300	0.019200
H271	H27	0.436500	0.824400	0.861400
H281	H28	0.478100	0.805200	0.868800
C401	C40	0.432300	0.827700	0.786900
H291	H29	0.517600	0.933300	0.870800
H301	H30	0.499000	0.036100	0.854000
C411	C41	0.475000	0.944400	0.788000
H311	H31	0.434600	0.067700	0.839000
H321	H32	0.408500	0.982200	0.837400
C421	C42	0.411300	0.986000	0.768500
C431	C43	0.613730	0.911900	0.055700
C441	C44	0.479900	0.728000	0.028200
N61	N6	0.434040	0.911800	0.760950
H331	H33	0.444900	0.775300	0.780200
H341	H34	0.404400	0.810800	0.771700
H351	H35	0.476000	0.000600	0.769400
H361	H36	0.491100	0.895100	0.785600
H371	H37	0.383300	0.967400	0.749700
H381	H38	0.412700	0.045500	0.752700
C451	C45	0.627400	0.881200	0.023600
C461	C46	0.638800	0.912000	0.111500
C471	C47	0.471400	0.655500	0.990400
C481	C48	0.482400	0.707200	0.076000
Zn41	Zn4	0.406350	0.891570	0.676270
H391	H39	0.610900	0.881500	0.985700
C491	C49	0.666320	0.850400	0.050300
C501	C50	0.675900	0.879800	0.137500
H401	H40	0.629200	0.935800	0.132000
H411	H41	0.471500	0.669900	0.959500
C511	C51	0.463000	0.563200	0.997700
C521	C52	0.474200	0.612900	0.083800
H421	H42	0.489200	0.753900	0.102200
O131	O13	0.355680	0.847800	0.662770
O141	O14	0.428330	0.835300	0.636500
N71	N7	0.687680	0.815800	0.029680
C531	C53	0.692000	0.845900	0.106300
H431	H43	0.691600	0.878700	0.175500
H441	H44	0.455900	0.517000	0.971100
C541	C54	0.465300	0.541500	0.044600
N81	N8	0.472800	0.574400	0.126200
H451	H45	0.678600	0.811800	0.995500
C551	C55	0.726470	0.787500	0.072000
C561	C56	0.730300	0.804000	0.122300
C571	C57	0.459000	0.452900	0.066500
H461	H46	0.476900	0.604200	0.154500
C581	C58	0.463300	0.477100	0.114200
C591	C59	0.757380	0.746900	0.070200
C601	C60	0.766000	0.778800	0.170700
C611	C61	0.449600	0.361200	0.048200
C621	C62	0.457100	0.415100	0.145900
H471	H47	0.754300	0.734400	0.036900
C631	C63	0.792400	0.725600	0.118100
C641	C64	0.798000	0.741300	0.170100
H481	H48	0.768400	0.787200	0.203800
C651	C65	0.444100	0.293300	0.078100
H491	H49	0.446800	0.344100	0.015500
H501	H50	0.458800	0.434500	0.177500
C661	C66	0.447800	0.320900	0.126400
C671	C67	0.827100	0.682400	0.118100
H511	H51	0.822200	0.726900	0.202300
H521	H52	0.438100	0.230400	0.066100
C681	C68	0.437800	0.245500	0.156100
O151	O15	0.825320	0.673300	0.074800
O161	O16	0.436400	0.274400	0.195100
Zn51	Zn5	0.010490	0.471690	0.554900
N91	N9	0.035370	0.444100	0.636690
O171	O17	0.951770	0.437700	0.521140
O181	O18	0.016970	0.345700	0.527000
O191	O19	0.061750	0.519300	0.559580
O201	O20	0.998040	0.612100	0.556490
C691	C69	0.046000	0.344000	0.650300
C701	C70	0.007170	0.468500	0.652000
C711	C71	0.071600	0.500700	0.670200
C721	C72	0.927800	0.444700	0.470300
C731	C73	0.012470	0.329300	0.480800
H531	H53	0.063500	0.324400	0.638600
H541	H54	0.021900	0.305200	0.631200
C741	C74	0.067700	0.327700	0.713100
H551	H55	0.982400	0.433300	0.629200
H561	H56	0.001000	0.536100	0.646000
C751	C75	0.025000	0.444400	0.712000
H571	H57	0.065400	0.567700	0.661000
H581	H58	0.091500	0.482200	0.662600
C761	C76	0.088700	0.486000	0.731500
C771	C77	0.886270	0.411900	0.444300
C781	C78	0.020100	0.228000	0.471800
N101	N10	0.065960	0.411800	0.739050
H591	H59	0.055100	0.275300	0.719800
H601	H60	0.095600	0.310800	0.728300
H611	H61	0.024000	0.500600	0.730600
H621	H62	0.008900	0.395100	0.714400
H631	H63	0.116700	0.467400	0.750300
H641	H64	0.087300	0.545500	0.747300
C791	C79	0.872600	0.381200	0.476400
C801	C80	0.861200	0.412000	0.388500
C811	C81	0.028600	0.155500	0.509600
C821	C82	0.017600	0.207200	0.424000
Zn61	Zn6	0.093650	0.391570	0.823730
H651	H65	0.889100	0.381500	0.514300
C831	C83	0.833680	0.350400	0.449700
C841	C84	0.824100	0.379800	0.362500
H661	H66	0.870800	0.435800	0.368000
H671	H67	0.028500	0.169900	0.540500
C851	C85	0.037000	0.063200	0.502300
C861	C86	0.025800	0.112900	0.416200
H681	H68	0.010800	0.253900	0.397800
O211	O21	0.144320	0.347800	0.837230
O221	O22	0.071670	0.335300	0.863500
N111	N11	0.812320	0.315800	0.470320
C871	C87	0.808000	0.345900	0.393700
H691	H69	0.808400	0.378700	0.324500
H701	H70	0.044100	0.017000	0.528900
C881	C88	0.034700	0.041500	0.455400
N121	N12	0.027200	0.074400	0.373800
H711	H71	0.821400	0.311800	0.504500
C891	C89	0.773530	0.287500	0.428000
C901	C90	0.769700	0.304000	0.377700
C911	C91	0.041000	0.952900	0.433500
H721	H72	0.023100	0.104200	0.345500
C921	C92	0.036700	0.977100	0.385800
C931	C93	0.742620	0.246900	0.429800
C941	C94	0.734000	0.278800	0.329300
C951	C95	0.050400	0.861200	0.451800
C961	C96	0.042900	0.915100	0.354100
H731	H73	0.745700	0.234400	0.463100
C971	C97	0.707600	0.225600	0.381900
C981	C98	0.702000	0.241300	0.329900
H741	H74	0.731600	0.287200	0.296200
C991	C99	0.055900	0.793300	0.421900
H751	H75	0.053200	0.844100	0.484500
H761	H76	0.041200	0.934500	0.322500
C1001	C100	0.052200	0.820900	0.373600
C1011	C101	0.672900	0.182400	0.381900
H771	H77	0.677800	0.226900	0.297700
H781	H78	0.061900	0.730400	0.433900
C1021	C102	0.062200	0.745500	0.343900
O231	O23	0.674680	0.173300	0.425200
O241	O24	0.063600	0.774400	0.304900
Zn71	Zn7	0.510490	0.971690	0.554900
N131	N13	0.535370	0.944100	0.636690
O251	O25	0.451770	0.937700	0.521140
O261	O26	0.516970	0.845700	0.527000
O271	O27	0.561750	0.019300	0.559580
O281	O28	0.498040	0.112100	0.556490
C1031	C103	0.546000	0.844000	0.650300
C1041	C104	0.507170	0.968500	0.652000
C1051	C105	0.571600	0.000700	0.670200
C1061	C106	0.427800	0.944700	0.470300
C1071	C107	0.512470	0.829300	0.480800
H791	H79	0.563500	0.824400	0.638600
H801	H80	0.521900	0.805200	0.631200
C1081	C108	0.567700	0.827700	0.713100
H811	H81	0.482400	0.933300	0.629200
H821	H82	0.501000	0.036100	0.646000
C1091	C109	0.525000	0.944400	0.712000
H831	H83	0.565400	0.067700	0.661000
H841	H84	0.591500	0.982200	0.662600
C1101	C110	0.588700	0.986000	0.731500
C1111	C111	0.386270	0.911900	0.444300
C1121	C112	0.520100	0.728000	0.471800
N141	N14	0.565960	0.911800	0.739050
H851	H85	0.555100	0.775300	0.719800
H861	H86	0.595600	0.810800	0.728300
H871	H87	0.524000	0.000600	0.730600
H881	H88	0.508900	0.895100	0.714400
H891	H89	0.616700	0.967400	0.750300
H901	H90	0.587300	0.045500	0.747300
C1131	C113	0.372600	0.881200	0.476400
C1141	C114	0.361200	0.912000	0.388500
C1151	C115	0.528600	0.655500	0.509600
C1161	C116	0.517600	0.707200	0.424000
Zn81	Zn8	0.593650	0.891570	0.823730
H911	H91	0.389100	0.881500	0.514300
C1171	C117	0.333680	0.850400	0.449700
C1181	C118	0.324100	0.879800	0.362500
H921	H92	0.370800	0.935800	0.368000
H931	H93	0.528500	0.669900	0.540500
C1191	C119	0.537000	0.563200	0.502300
C1201	C120	0.525800	0.612900	0.416200
H941	H94	0.510800	0.753900	0.397800
O291	O29	0.644320	0.847800	0.837230
O301	O30	0.571670	0.835300	0.863500
N151	N15	0.312320	0.815800	0.470320
C1211	C121	0.308000	0.845900	0.393700
H951	H95	0.308400	0.878700	0.324500
H961	H96	0.544100	0.517000	0.528900
C1221	C122	0.534700	0.541500	0.455400
N161	N16	0.527200	0.574400	0.373800
H971	H97	0.321400	0.811800	0.504500
C1231	C123	0.273530	0.787500	0.428000
C1241	C124	0.269700	0.804000	0.377700
C1251	C125	0.541000	0.452900	0.433500
H981	H98	0.523100	0.604200	0.345500
C1261	C126	0.536700	0.477100	0.385800
C1271	C127	0.242620	0.746900	0.429800
C1281	C128	0.234000	0.778800	0.329300
C1291	C129	0.550400	0.361200	0.451800
C1301	C130	0.542900	0.415100	0.354100
H991	H99	0.245700	0.734400	0.463100
C1311	C131	0.207600	0.725600	0.381900
C1321	C132	0.202000	0.741300	0.329900
H1001	H100	0.231600	0.787200	0.296200
C1331	C133	0.555900	0.293300	0.421900
H1011	H101	0.553200	0.344100	0.484500
H1021	H102	0.541200	0.434500	0.322500
C1341	C134	0.552200	0.320900	0.373600
C1351	C135	0.172900	0.682400	0.381900
H1031	H103	0.177800	0.726900	0.297700
H1041	H104	0.561900	0.230400	0.433900
C1361	C136	0.562200	0.245500	0.343900
O311	O31	0.174680	0.673300	0.425200
O321	O32	0.563600	0.274400	0.304900
Zn91	Zn9	0.010490	0.528310	0.054900
N171	N17	0.035370	0.555900	0.136690
O331	O33	0.951770	0.562300	0.021140
O341	O34	0.016970	0.654300	0.027000
O351	O35	0.061750	0.480700	0.059580
O361	O36	0.998040	0.387900	0.056490
C1371	C137	0.046000	0.656000	0.150300
C1381	C138	0.007170	0.531500	0.152000
C1391	C139	0.071600	0.499300	0.170200
C1401	C140	0.927800	0.555300	0.970300
C1411	C141	0.012470	0.670700	0.980800
H1051	H105	0.063500	0.675600	0.138600
H1061	H106	0.021900	0.694800	0.131200
C1421	C142	0.067700	0.672300	0.213100
H1071	H107	0.982400	0.566700	0.129200
H1081	H108	0.001000	0.463900	0.146000
C1431	C143	0.025000	0.555600	0.212000
H1091	H109	0.065400	0.432300	0.161000
H1101	H110	0.091500	0.517800	0.162600
C1441	C144	0.088700	0.514000	0.231500
C1451	C145	0.886270	0.588100	0.944300
C1461	C146	0.020100	0.772000	0.971800
N181	N18	0.065960	0.588200	0.239050
H1111	H111	0.055100	0.724700	0.219800
H1121	H112	0.095600	0.689200	0.228300
H1131	H113	0.024000	0.499400	0.230600
H1141	H114	0.008900	0.604900	0.214400
H1151	H115	0.116700	0.532600	0.250300
H1161	H116	0.087300	0.454500	0.247300
C1471	C147	0.872600	0.618800	0.976400
C1481	C148	0.861200	0.588000	0.888500
C1491	C149	0.028600	0.844500	0.009600
C1501	C150	0.017600	0.792800	0.924000
Zn101	Zn10	0.093650	0.608430	0.323730
H1171	H117	0.889100	0.618500	0.014300
C1511	C151	0.833680	0.649600	0.949700
C1521	C152	0.824100	0.620200	0.862500
H1181	H118	0.870800	0.564200	0.868000
H1191	H119	0.028500	0.830100	0.040500
C1531	C153	0.037000	0.936800	0.002300
C1541	C154	0.025800	0.887100	0.916200
H1201	H120	0.010800	0.746100	0.897800
O371	O37	0.144320	0.652200	0.337230
O381	O38	0.071670	0.664700	0.363500
N191	N19	0.812320	0.684200	0.970320
C1551	C155	0.808000	0.654100	0.893700
H1211	H121	0.808400	0.621300	0.824500
H1221	H122	0.044100	0.983000	0.028900
C1561	C156	0.034700	0.958500	0.955400
N201	N20	0.027200	0.925600	0.873800
H1231	H123	0.821400	0.688200	0.004500
C1571	C157	0.773530	0.712500	0.928000
C1581	C158	0.769700	0.696000	0.877700
C1591	C159	0.041000	0.047100	0.933500
H1241	H124	0.023100	0.895800	0.845500
C1601	C160	0.036700	0.022900	0.885800
C1611	C161	0.742620	0.753100	0.929800
C1621	C162	0.734000	0.721200	0.829300
C1631	C163	0.050400	0.138800	0.951800
C1641	C164	0.042900	0.084900	0.854100
H1251	H125	0.745700	0.765600	0.963100
C1651	C165	0.707600	0.774400	0.881900
C1661	C166	0.702000	0.758700	0.829900
H1261	H126	0.731600	0.712800	0.796200
C1671	C167	0.055900	0.206700	0.921900
H1271	H127	0.053200	0.155900	0.984500
H1281	H128	0.041200	0.065500	0.822500
C1681	C168	0.052200	0.179100	0.873600
C1691	C169	0.672900	0.817600	0.881900
H1291	H129	0.677800	0.773100	0.797700
H1301	H130	0.061900	0.269600	0.933900
C1701	C170	0.062200	0.254500	0.843900
O391	O39	0.674680	0.826700	0.925200
O401	O40	0.063600	0.225600	0.804900
Zn111	Zn11	0.510490	0.028310	0.054900
N211	N21	0.535370	0.055900	0.136690
O411	O41	0.451770	0.062300	0.021140
O421	O42	0.516970	0.154300	0.027000
O431	O43	0.561750	0.980700	0.059580
O441	O44	0.498040	0.887900	0.056490
C1711	C171	0.546000	0.156000	0.150300
C1721	C172	0.507170	0.031500	0.152000
C1731	C173	0.571600	0.999300	0.170200
C1741	C174	0.427800	0.055300	0.970300
C1751	C175	0.512470	0.170700	0.980800
H1311	H131	0.563500	0.175600	0.138600
H1321	H132	0.521900	0.194800	0.131200
C1761	C176	0.567700	0.172300	0.213100
H1331	H133	0.482400	0.066700	0.129200
H1341	H134	0.501000	0.963900	0.146000
C1771	C177	0.525000	0.055600	0.212000
H1351	H135	0.565400	0.932300	0.161000
H1361	H136	0.591500	0.017800	0.162600
C1781	C178	0.588700	0.014000	0.231500
C1791	C179	0.386270	0.088100	0.944300
C1801	C180	0.520100	0.272000	0.971800
N221	N22	0.565960	0.088200	0.239050
H1371	H137	0.555100	0.224700	0.219800
H1381	H138	0.595600	0.189200	0.228300
H1391	H139	0.524000	0.999400	0.230600
H1401	H140	0.508900	0.104900	0.214400
H1411	H141	0.616700	0.032600	0.250300
H1421	H142	0.587300	0.954500	0.247300
C1811	C181	0.372600	0.118800	0.976400
C1821	C182	0.361200	0.088000	0.888500
C1831	C183	0.528600	0.344500	0.009600
C1841	C184	0.517600	0.292800	0.924000
Zn121	Zn12	0.593650	0.108430	0.323730
H1431	H143	0.389100	0.118500	0.014300
C1851	C185	0.333680	0.149600	0.949700
C1861	C186	0.324100	0.120200	0.862500
H1441	H144	0.370800	0.064200	0.868000
H1451	H145	0.528500	0.330100	0.040500
C1871	C187	0.537000	0.436800	0.002300
C1881	C188	0.525800	0.387100	0.916200
H1461	H146	0.510800	0.246100	0.897800
O451	O45	0.644320	0.152200	0.337230
O461	O46	0.571670	0.164700	0.363500
N231	N23	0.312320	0.184200	0.970320
C1891	C189	0.308000	0.154100	0.893700
H1471	H147	0.308400	0.121300	0.824500
H1481	H148	0.544100	0.483000	0.028900
C1901	C190	0.534700	0.458500	0.955400
N241	N24	0.527200	0.425600	0.873800
H1491	H149	0.321400	0.188200	0.004500
C1911	C191	0.273530	0.212500	0.928000
C1921	C192	0.269700	0.196000	0.877700
C1931	C193	0.541000	0.547100	0.933500
H1501	H150	0.523100	0.395800	0.845500
C1941	C194	0.536700	0.522900	0.885800
C1951	C195	0.242620	0.253100	0.929800
C1961	C196	0.234000	0.221200	0.829300
C1971	C197	0.550400	0.638800	0.951800
C1981	C198	0.542900	0.584900	0.854100
H1511	H151	0.245700	0.265600	0.963100
C1991	C199	0.207600	0.274400	0.881900
C2001	C200	0.202000	0.258700	0.829900
H1521	H152	0.231600	0.212800	0.796200
C2011	C201	0.555900	0.706700	0.921900
H1531	H153	0.553200	0.655900	0.984500
H1541	H154	0.541200	0.565500	0.822500
C2021	C202	0.552200	0.679100	0.873600
C2031	C203	0.172900	0.317600	0.881900
H1551	H155	0.177800	0.273100	0.797700
H1561	H156	0.561900	0.769600	0.933900
C2041	C204	0.562200	0.754500	0.843900
O471	O47	0.174680	0.326700	0.925200
O481	O48	0.563600	0.725600	0.804900
Zn131	Zn13	0.989510	0.528310	0.445100
N251	N25	0.964630	0.555900	0.363310
O491	O49	0.048230	0.562300	0.478860
O501	O50	0.983030	0.654300	0.473000
O511	O51	0.938250	0.480700	0.440420
O521	O52	0.001960	0.387900	0.443510
C2051	C205	0.954000	0.656000	0.349700
C2061	C206	0.992830	0.531500	0.348000
C2071	C207	0.928400	0.499300	0.329800
C2081	C208	0.072200	0.555300	0.529700
C2091	C209	0.987530	0.670700	0.519200
H1571	H157	0.936500	0.675600	0.361400
H1581	H158	0.978100	0.694800	0.368800
C2101	C210	0.932300	0.672300	0.286900
H1591	H159	0.017600	0.566700	0.370800
H1601	H160	0.999000	0.463900	0.354000
C2111	C211	0.975000	0.555600	0.288000
H1611	H161	0.934600	0.432300	0.339000
H1621	H162	0.908500	0.517800	0.337400
C2121	C212	0.911300	0.514000	0.268500
C2131	C213	0.113730	0.588100	0.555700
C2141	C214	0.979900	0.772000	0.528200
N261	N26	0.934040	0.588200	0.260950
H1631	H163	0.944900	0.724700	0.280200
H1641	H164	0.904400	0.689200	0.271700
H1651	H165	0.976000	0.499400	0.269400
H1661	H166	0.991100	0.604900	0.285600
H1671	H167	0.883300	0.532600	0.249700
H1681	H168	0.912700	0.454500	0.252700
C2151	C215	0.127400	0.618800	0.523600
C2161	C216	0.138800	0.588000	0.611500
C2171	C217	0.971400	0.844500	0.490400
C2181	C218	0.982400	0.792800	0.576000
Zn141	Zn14	0.906350	0.608430	0.176270
H1691	H169	0.110900	0.618500	0.485700
C2191	C219	0.166320	0.649600	0.550300
C2201	C220	0.175900	0.620200	0.637500
H1701	H170	0.129200	0.564200	0.632000
H1711	H171	0.971500	0.830100	0.459500
C2211	C221	0.963000	0.936800	0.497700
C2221	C222	0.974200	0.887100	0.583800
H1721	H172	0.989200	0.746100	0.602200
O531	O53	0.855680	0.652200	0.162770
O541	O54	0.928330	0.664700	0.136500
N271	N27	0.187680	0.684200	0.529680
C2231	C223	0.192000	0.654100	0.606300
H1731	H173	0.191600	0.621300	0.675500
H1741	H174	0.955900	0.983000	0.471100
C2241	C224	0.965300	0.958500	0.544600
N281	N28	0.972800	0.925600	0.626200
H1751	H175	0.178600	0.688200	0.495500
C2251	C225	0.226470	0.712500	0.572000
C2261	C226	0.230300	0.696000	0.622300
C2271	C227	0.959000	0.047100	0.566500
H1761	H176	0.976900	0.895800	0.654500
C2281	C228	0.963300	0.022900	0.614200
C2291	C229	0.257380	0.753100	0.570200
C2301	C230	0.266000	0.721200	0.670700
C2311	C231	0.949600	0.138800	0.548200
C2321	C232	0.957100	0.084900	0.645900
H1771	H177	0.254300	0.765600	0.536900
C2331	C233	0.292400	0.774400	0.618100
C2341	C234	0.298000	0.758700	0.670100
H1781	H178	0.268400	0.712800	0.703800
C2351	C235	0.944100	0.206700	0.578100
H1791	H179	0.946800	0.155900	0.515500
H1801	H180	0.958800	0.065500	0.677500
C2361	C236	0.947800	0.179100	0.626400
C2371	C237	0.327100	0.817600	0.618100
H1811	H181	0.322200	0.773100	0.702300
H1821	H182	0.938100	0.269600	0.566100
C2381	C238	0.937800	0.254500	0.656100
O551	O55	0.325320	0.826700	0.574800
O561	O56	0.936400	0.225600	0.695100
Zn151	Zn15	0.489510	0.028310	0.445100
N291	N29	0.464630	0.055900	0.363310
O571	O57	0.548230	0.062300	0.478860
O581	O58	0.483030	0.154300	0.473000
O591	O59	0.438250	0.980700	0.440420
O601	O60	0.501960	0.887900	0.443510
C2391	C239	0.454000	0.156000	0.349700
C2401	C240	0.492830	0.031500	0.348000
C2411	C241	0.428400	0.999300	0.329800
C2421	C242	0.572200	0.055300	0.529700
C2431	C243	0.487530	0.170700	0.519200
H1831	H183	0.436500	0.175600	0.361400
H1841	H184	0.478100	0.194800	0.368800
C2441	C244	0.432300	0.172300	0.286900
H1851	H185	0.517600	0.066700	0.370800
H1861	H186	0.499000	0.963900	0.354000
C2451	C245	0.475000	0.055600	0.288000
H1871	H187	0.434600	0.932300	0.339000
H1881	H188	0.408500	0.017800	0.337400
C2461	C246	0.411300	0.014000	0.268500
C2471	C247	0.613730	0.088100	0.555700
C2481	C248	0.479900	0.272000	0.528200
N301	N30	0.434040	0.088200	0.260950
H1891	H189	0.444900	0.224700	0.280200
H1901	H190	0.404400	0.189200	0.271700
H1911	H191	0.476000	0.999400	0.269400
H1921	H192	0.491100	0.104900	0.285600
H1931	H193	0.383300	0.032600	0.249700
H1941	H194	0.412700	0.954500	0.252700
C2491	C249	0.627400	0.118800	0.523600
C2501	C250	0.638800	0.088000	0.611500
C2511	C251	0.471400	0.344500	0.490400
C2521	C252	0.482400	0.292800	0.576000
Zn161	Zn16	0.406350	0.108430	0.176270
H1951	H195	0.610900	0.118500	0.485700
C2531	C253	0.666320	0.149600	0.550300
C2541	C254	0.675900	0.120200	0.637500
H1961	H196	0.629200	0.064200	0.632000
H1971	H197	0.471500	0.330100	0.459500
C2551	C255	0.463000	0.436800	0.497700
C2561	C256	0.474200	0.387100	0.583800
H1981	H198	0.489200	0.246100	0.602200
O611	O61	0.355680	0.152200	0.162770
O621	O62	0.428330	0.164700	0.136500
N311	N31	0.687680	0.184200	0.529680
C2571	C257	0.692000	0.154100	0.606300
H1991	H199	0.691600	0.121300	0.675500
H2001	H200	0.455900	0.483000	0.471100
C2581	C258	0.465300	0.458500	0.544600
N321	N32	0.472800	0.425600	0.626200
H2011	H201	0.678600	0.188200	0.495500
C2591	C259	0.726470	0.212500	0.572000
C2601	C260	0.730300	0.196000	0.622300
C2611	C261	0.459000	0.547100	0.566500
H2021	H202	0.476900	0.395800	0.654500
C2621	C262	0.463300	0.522900	0.614200
C2631	C263	0.757380	0.253100	0.570200
C2641	C264	0.766000	0.221200	0.670700
C2651	C265	0.449600	0.638800	0.548200
C2661	C266	0.457100	0.584900	0.645900
H2031	H203	0.754300	0.265600	0.536900
C2671	C267	0.792400	0.274400	0.618100
C2681	C268	0.798000	0.258700	0.670100
H2041	H204	0.768400	0.212800	0.703800
C2691	C269	0.444100	0.706700	0.578100
H2051	H205	0.446800	0.655900	0.515500
H2061	H206	0.458800	0.565500	0.677500
C2701	C270	0.447800	0.679100	0.626400
C2711	C271	0.827100	0.317600	0.618100
H2071	H207	0.822200	0.273100	0.702300
H2081	H208	0.438100	0.769600	0.566100
C2721	C272	0.437800	0.754500	0.656100
O631	O63	0.825320	0.326700	0.574800
O641	O64	0.436400	0.725600	0.695100
