data_WIKXAQ_clean_PM
_symmetry_space_group_name_H-M	'P1'
_cell_length_a	21.713000
_cell_length_b	21.713000
_cell_length_c	14.998000
_cell_angle_alpha	90.000000
_cell_angle_beta	90.000000
_cell_angle_gamma	120.000000
_symmetry_Int_Tables_number 1

loop_
_symmetry_equiv_pos_as_xyz
'x,y,z'

loop_
_atom_site_label
_atom_site_type_symbol
_atom_site_fract_x
_atom_site_fract_y
_atom_site_fract_z
Cu11	Cu1	0.089260	0.379410	0.392150
C11	C1	0.965500	0.344900	0.260500
C21	C2	0.113400	0.252600	0.379000
N11	N1	0.010400	0.359200	0.310200
N21	N2	0.098910	0.294600	0.402000
S11	S1	0.899180	0.322380	0.190300
S21	S2	0.135770	0.194350	0.344990
Cu21	Cu2	0.755930	0.712740	0.725480
C31	C3	0.632170	0.678230	0.593830
C41	C4	0.780070	0.585930	0.712330
N31	N3	0.677070	0.692530	0.643530
N41	N4	0.765580	0.627930	0.735330
S31	S3	0.565850	0.655710	0.523630
S41	S4	0.802440	0.527680	0.678320
Cu31	Cu3	0.422590	0.046080	0.058820
C51	C5	0.298830	0.011570	0.927170
C61	C6	0.446730	0.919270	0.045670
N51	N5	0.343730	0.025870	0.976870
N61	N6	0.432240	0.961270	0.068670
S51	S5	0.232510	0.989050	0.856970
S61	S6	0.469100	0.861020	0.011660
Cu41	Cu4	0.620590	0.709850	0.392150
C71	C7	0.655100	0.620600	0.260500
C81	C8	0.747400	0.860800	0.379000
N71	N7	0.640800	0.651200	0.310200
N81	N8	0.705400	0.804310	0.402000
S71	S7	0.677620	0.576800	0.190300
S81	S8	0.805650	0.941420	0.344990
Cu51	Cu5	0.287260	0.043180	0.725480
C91	C9	0.321770	0.953930	0.593830
C101	C10	0.414070	0.194130	0.712330
N91	N9	0.307470	0.984530	0.643530
N101	N10	0.372070	0.137640	0.735330
S91	S9	0.344290	0.910130	0.523630
S101	S10	0.472320	0.274750	0.678320
Cu61	Cu6	0.953920	0.376520	0.058820
C111	C11	0.988430	0.287270	0.927170
C121	C12	0.080730	0.527470	0.045670
N111	N11	0.974130	0.317870	0.976870
N121	N12	0.038730	0.470980	0.068670
S111	S11	0.010950	0.243470	0.856970
S121	S12	0.138980	0.608090	0.011660
Cu71	Cu7	0.290150	0.910740	0.392150
C131	C13	0.379400	0.034500	0.260500
C141	C14	0.139200	0.886600	0.379000
N131	N13	0.348800	0.989600	0.310200
N141	N14	0.195690	0.901090	0.402000
S131	S13	0.423200	0.100820	0.190300
S141	S14	0.058580	0.864230	0.344990
Cu81	Cu8	0.956820	0.244070	0.725480
C151	C15	0.046070	0.367830	0.593830
C161	C16	0.805870	0.219930	0.712330
N151	N15	0.015470	0.322930	0.643530
N161	N16	0.862360	0.234420	0.735330
S151	S15	0.089870	0.434150	0.523630
S161	S16	0.725250	0.197560	0.678320
Cu91	Cu9	0.623480	0.577410	0.058820
C171	C17	0.712730	0.701170	0.927170
C181	C18	0.472530	0.553270	0.045670
N171	N17	0.682130	0.656270	0.976870
N181	N18	0.529020	0.567760	0.068670
S171	S17	0.756530	0.767490	0.856970
S181	S18	0.391910	0.530900	0.011660
Cu101	Cu10	0.910740	0.620590	0.607850
C191	C19	0.034500	0.655100	0.739500
C201	C20	0.886600	0.747400	0.621000
N191	N19	0.989600	0.640800	0.689800
N201	N20	0.901090	0.705400	0.598000
S191	S19	0.100820	0.677620	0.809700
S201	S20	0.864230	0.805650	0.655010
Cu111	Cu11	0.577410	0.953920	0.941180
C211	C21	0.701170	0.988430	0.072830
C221	C22	0.553270	0.080730	0.954330
N211	N21	0.656270	0.974130	0.023130
N221	N22	0.567760	0.038730	0.931330
S211	S21	0.767490	0.010950	0.143030
S221	S22	0.530900	0.138980	0.988340
Cu121	Cu12	0.244070	0.287260	0.274520
C231	C23	0.367830	0.321770	0.406170
C241	C24	0.219930	0.414070	0.287670
N231	N23	0.322930	0.307470	0.356470
N241	N24	0.234420	0.372070	0.264670
S231	S23	0.434150	0.344290	0.476370
S241	S24	0.197560	0.472320	0.321680
Cu131	Cu13	0.379410	0.290150	0.607850
C251	C25	0.344900	0.379400	0.739500
C261	C26	0.252600	0.139200	0.621000
N251	N25	0.359200	0.348800	0.689800
N261	N26	0.294600	0.195690	0.598000
S251	S25	0.322380	0.423200	0.809700
S261	S26	0.194350	0.058580	0.655010
Cu141	Cu14	0.046080	0.623480	0.941180
C271	C27	0.011570	0.712730	0.072830
C281	C28	0.919270	0.472530	0.954330
N271	N27	0.025870	0.682130	0.023130
N281	N28	0.961270	0.529020	0.931330
S271	S27	0.989050	0.756530	0.143030
S281	S28	0.861020	0.391910	0.988340
Cu151	Cu15	0.712740	0.956820	0.274520
C291	C29	0.678230	0.046070	0.406170
C301	C30	0.585930	0.805870	0.287670
N291	N29	0.692530	0.015470	0.356470
N301	N30	0.627930	0.862360	0.264670
S291	S29	0.655710	0.089870	0.476370
S301	S30	0.527680	0.725250	0.321680
Cu161	Cu16	0.709850	0.089260	0.607850
C311	C31	0.620600	0.965500	0.739500
C321	C32	0.860800	0.113400	0.621000
N311	N31	0.651200	0.010400	0.689800
N321	N32	0.804310	0.098910	0.598000
S311	S31	0.576800	0.899180	0.809700
S321	S32	0.941420	0.135770	0.655010
Cu171	Cu17	0.376520	0.422590	0.941180
C331	C33	0.287270	0.298830	0.072830
C341	C34	0.527470	0.446730	0.954330
N331	N33	0.317870	0.343730	0.023130
N341	N34	0.470980	0.432240	0.931330
S331	S33	0.243470	0.232510	0.143030
S341	S34	0.608090	0.469100	0.988340
Cu181	Cu18	0.043180	0.755930	0.274520
C351	C35	0.953930	0.632170	0.406170
C361	C36	0.194130	0.780070	0.287670
N351	N35	0.984530	0.677070	0.356470
N361	N36	0.137640	0.765580	0.264670
S351	S35	0.910130	0.565850	0.476370
S361	S36	0.274750	0.802440	0.321680
