data_WILFAZ_clean_PM
_symmetry_space_group_name_H-M	'P1'
_cell_length_a	17.080100
_cell_length_b	17.078200
_cell_length_c	7.592000
_cell_angle_alpha	90.000000
_cell_angle_beta	90.000000
_cell_angle_gamma	90.000000
_symmetry_Int_Tables_number 1

loop_
_symmetry_equiv_pos_as_xyz
'x,y,z'

loop_
_atom_site_label
_atom_site_type_symbol
_atom_site_fract_x
_atom_site_fract_y
_atom_site_fract_z
Ag11	Ag1	0.814160	0.189780	0.243460
N11	N1	0.903100	0.100500	0.090400
N21	N2	0.693200	0.193100	0.091300
N31	N3	0.421400	0.262700	0.092900
N41	N4	0.840800	0.320800	0.090900
N51	N5	0.749900	0.585800	0.087400
C11	C1	0.948700	0.053000	0.175700
H11	H1	0.947800	0.053700	0.299500
C21	C2	0.626900	0.204900	0.174700
H21	H2	0.627600	0.201400	0.298300
C31	C3	0.555400	0.222000	0.094300
C41	C4	0.485200	0.243100	0.173100
H31	H3	0.483900	0.243200	0.296900
C51	C5	0.824100	0.386400	0.177800
H41	H4	0.826300	0.386400	0.301500
C61	C6	0.802700	0.456800	0.087500
C71	C7	0.775500	0.523800	0.182000
H51	H5	0.775400	0.524700	0.305800
Ag21	Ag2	0.185840	0.810220	0.243460
N61	N6	0.096900	0.899500	0.090400
N71	N7	0.306800	0.806900	0.091300
N81	N8	0.578600	0.737300	0.092900
N91	N9	0.159200	0.679200	0.090900
N101	N10	0.250100	0.414200	0.087400
C81	C8	0.051300	0.947000	0.175700
H61	H6	0.052200	0.946300	0.299500
C91	C9	0.373100	0.795100	0.174700
H71	H7	0.372400	0.798600	0.298300
C101	C10	0.444600	0.778000	0.094300
C111	C11	0.514800	0.756900	0.173100
H81	H8	0.516100	0.756800	0.296900
C121	C12	0.175900	0.613600	0.177800
H91	H9	0.173700	0.613600	0.301500
C131	C13	0.197300	0.543200	0.087500
C141	C14	0.224500	0.476200	0.182000
H101	H10	0.224600	0.475300	0.305800
Ag31	Ag3	0.685840	0.689780	0.256540
N111	N11	0.596900	0.600500	0.409600
N121	N12	0.806800	0.693100	0.408700
N131	N13	0.078600	0.762700	0.407100
N141	N14	0.659200	0.820800	0.409100
N151	N15	0.750100	0.085800	0.412600
C151	C15	0.551300	0.553000	0.324300
H111	H11	0.552200	0.553700	0.200500
C161	C16	0.873100	0.704900	0.325300
H121	H12	0.872400	0.701400	0.201700
C171	C17	0.944600	0.722000	0.405700
C181	C18	0.014800	0.743100	0.326900
H131	H13	0.016100	0.743200	0.203100
C191	C19	0.675900	0.886400	0.322200
H141	H14	0.673700	0.886400	0.198500
C201	C20	0.697300	0.956800	0.412500
C211	C21	0.724500	0.023800	0.318000
H151	H15	0.724600	0.024700	0.194200
Ag41	Ag4	0.314160	0.310220	0.256540
N161	N16	0.403100	0.399500	0.409600
N171	N17	0.193200	0.306900	0.408700
N181	N18	0.921400	0.237300	0.407100
N191	N19	0.340800	0.179200	0.409100
N201	N20	0.249900	0.914200	0.412600
C221	C22	0.448700	0.447000	0.324300
H161	H16	0.447800	0.446300	0.200500
C231	C23	0.126900	0.295100	0.325300
H171	H17	0.127600	0.298600	0.201700
C241	C24	0.055400	0.278000	0.405700
C251	C25	0.985200	0.256900	0.326900
H181	H18	0.983900	0.256800	0.203100
C261	C26	0.324100	0.113600	0.322200
H191	H19	0.326300	0.113600	0.198500
C271	C27	0.302700	0.043200	0.412500
C281	C28	0.275500	0.976200	0.318000
H201	H20	0.275400	0.975300	0.194200
Ag51	Ag5	0.185840	0.810220	0.756540
N211	N21	0.096900	0.899500	0.909600
N221	N22	0.306800	0.806900	0.908700
N231	N23	0.578600	0.737300	0.907100
N241	N24	0.159200	0.679200	0.909100
N251	N25	0.250100	0.414200	0.912600
C291	C29	0.051300	0.947000	0.824300
H211	H21	0.052200	0.946300	0.700500
C301	C30	0.373100	0.795100	0.825300
H221	H22	0.372400	0.798600	0.701700
C311	C31	0.444600	0.778000	0.905700
C321	C32	0.514800	0.756900	0.826900
H231	H23	0.516100	0.756800	0.703100
C331	C33	0.175900	0.613600	0.822200
H241	H24	0.173700	0.613600	0.698500
C341	C34	0.197300	0.543200	0.912500
C351	C35	0.224500	0.476200	0.818000
H251	H25	0.224600	0.475300	0.694200
Ag61	Ag6	0.814160	0.189780	0.756540
N261	N26	0.903100	0.100500	0.909600
N271	N27	0.693200	0.193100	0.908700
N281	N28	0.421400	0.262700	0.907100
N291	N29	0.840800	0.320800	0.909100
N301	N30	0.749900	0.585800	0.912600
C361	C36	0.948700	0.053000	0.824300
H261	H26	0.947800	0.053700	0.700500
C371	C37	0.626900	0.204900	0.825300
H271	H27	0.627600	0.201400	0.701700
C381	C38	0.555400	0.222000	0.905700
C391	C39	0.485200	0.243100	0.826900
H281	H28	0.483900	0.243200	0.703100
C401	C40	0.824100	0.386400	0.822200
H291	H29	0.826300	0.386400	0.698500
C411	C41	0.802700	0.456800	0.912500
C421	C42	0.775500	0.523800	0.818000
H301	H30	0.775400	0.524700	0.694200
Ag71	Ag7	0.314160	0.310220	0.743460
N311	N31	0.403100	0.399500	0.590400
N321	N32	0.193200	0.306900	0.591300
N331	N33	0.921400	0.237300	0.592900
N341	N34	0.340800	0.179200	0.590900
N351	N35	0.249900	0.914200	0.587400
C431	C43	0.448700	0.447000	0.675700
H311	H31	0.447800	0.446300	0.799500
C441	C44	0.126900	0.295100	0.674700
H321	H32	0.127600	0.298600	0.798300
C451	C45	0.055400	0.278000	0.594300
C461	C46	0.985200	0.256900	0.673100
H331	H33	0.983900	0.256800	0.796900
C471	C47	0.324100	0.113600	0.677800
H341	H34	0.326300	0.113600	0.801500
C481	C48	0.302700	0.043200	0.587500
C491	C49	0.275500	0.976200	0.682000
H351	H35	0.275400	0.975300	0.805800
Ag81	Ag8	0.685840	0.689780	0.743460
N361	N36	0.596900	0.600500	0.590400
N371	N37	0.806800	0.693100	0.591300
N381	N38	0.078600	0.762700	0.592900
N391	N39	0.659200	0.820800	0.590900
N401	N40	0.750100	0.085800	0.587400
C501	C50	0.551300	0.553000	0.675700
H361	H36	0.552200	0.553700	0.799500
C511	C51	0.873100	0.704900	0.674700
H371	H37	0.872400	0.701400	0.798300
C521	C52	0.944600	0.722000	0.594300
C531	C53	0.014800	0.743100	0.673100
H381	H38	0.016100	0.743200	0.796900
C541	C54	0.675900	0.886400	0.677800
H391	H39	0.673700	0.886400	0.801500
C551	C55	0.697300	0.956800	0.587500
C561	C56	0.724500	0.023800	0.682000
H401	H40	0.724600	0.024700	0.805800
C571	C57	0.000000	0.000000	0.088300
C581	C58	0.500000	0.500000	0.411700
C591	C59	0.000000	0.000000	0.911700
C601	C60	0.500000	0.500000	0.588300
