data_WILGII_clean_PM
_symmetry_space_group_name_H-M	'P1'
_cell_length_a	8.765200
_cell_length_b	22.100400
_cell_length_c	10.441700
_cell_angle_alpha	90.000000
_cell_angle_beta	91.874000
_cell_angle_gamma	90.000000
_symmetry_Int_Tables_number 1

loop_
_symmetry_equiv_pos_as_xyz
'x,y,z'

loop_
_atom_site_label
_atom_site_type_symbol
_atom_site_fract_x
_atom_site_fract_y
_atom_site_fract_z
Ag11	Ag1	0.343320	0.803470	0.511960
Ag21	Ag2	0.251020	0.707810	0.756730
Ag31	Ag3	0.177300	0.795840	0.016530
N11	N1	0.373100	0.704130	0.479300
N21	N2	0.373200	0.668540	0.584700
N31	N3	0.554500	0.395790	0.462900
N41	N4	0.604200	0.432210	0.369400
N51	N5	0.114100	0.825420	0.622400
N61	N6	0.063100	0.778860	0.692200
N71	N7	0.450600	0.773950	0.826000
N81	N8	0.399200	0.819060	0.901800
N91	N9	0.124900	0.664780	0.922100
N101	N10	0.122600	0.696350	0.033100
N111	N11	0.935700	0.387830	0.006200
N121	N12	0.889400	0.421000	0.105900
C11	C1	0.402900	0.610200	0.575100
H11	H1	0.404400	0.586800	0.650300
C21	C2	0.432500	0.581040	0.458700
C31	C3	0.427100	0.616870	0.351300
H21	H2	0.441600	0.600200	0.269700
C41	C4	0.399500	0.678930	0.366400
H31	H3	0.399500	0.703900	0.293400
C51	C5	0.561700	0.489440	0.368200
H41	H4	0.596500	0.514300	0.302200
C61	C6	0.467900	0.515620	0.459300
C71	C7	0.415100	0.477840	0.552000
H51	H5	0.348900	0.491800	0.614500
C81	C8	0.463800	0.417560	0.549800
H61	H6	0.429900	0.391200	0.613600
C91	C9	0.028500	0.874440	0.608500
H71	H7	0.066800	0.907000	0.561300
C101	C10	0.884800	0.880400	0.659700
H81	H8	0.827800	0.916200	0.648600
C111	C11	0.828600	0.832260	0.727200
C121	C12	0.926300	0.782220	0.741800
H91	H9	0.892500	0.749100	0.789700
C131	C13	0.583300	0.779840	0.771000
H101	H10	0.616700	0.748100	0.719000
C141	C14	0.677600	0.831110	0.786100
C151	C15	0.621400	0.877800	0.856900
H111	H11	0.675800	0.914200	0.867100
C161	C16	0.480600	0.869480	0.913400
H121	H12	0.441600	0.901300	0.962200
C171	C17	0.090200	0.606340	0.921500
H131	H13	0.089500	0.585600	0.842900
C181	C18	0.054700	0.573760	0.032000
C191	C19	0.055400	0.605560	0.144800
H141	H14	0.035300	0.586400	0.222800
C201	C20	0.087100	0.667610	0.139900
H151	H15	0.083100	0.690100	0.216200
C211	C21	0.020700	0.412800	0.918700
H161	H16	0.051900	0.388600	0.850300
C221	C22	0.066900	0.473310	0.922300
H171	H17	0.129300	0.489500	0.859300
C231	C23	0.017400	0.508300	0.021900
C241	C24	0.930000	0.478450	0.112400
H181	H18	0.897900	0.501000	0.183000
Ag41	Ag4	0.656680	0.303470	0.488040
Ag51	Ag5	0.748980	0.207810	0.243270
Ag61	Ag6	0.822700	0.295840	0.983470
N131	N13	0.626900	0.204130	0.520700
N141	N14	0.626800	0.168540	0.415300
N151	N15	0.445500	0.895790	0.537100
N161	N16	0.395800	0.932210	0.630600
N171	N17	0.885900	0.325420	0.377600
N181	N18	0.936900	0.278860	0.307800
N191	N19	0.549400	0.273950	0.174000
N201	N20	0.600800	0.319060	0.098200
N211	N21	0.875100	0.164780	0.077900
N221	N22	0.877400	0.196350	0.966900
N231	N23	0.064300	0.887830	0.993800
N241	N24	0.110600	0.921000	0.894100
C251	C25	0.597100	0.110200	0.424900
H191	H19	0.595600	0.086800	0.349700
C261	C26	0.567500	0.081040	0.541300
C271	C27	0.572900	0.116870	0.648700
H201	H20	0.558400	0.100200	0.730300
C281	C28	0.600500	0.178930	0.633600
H211	H21	0.600500	0.203900	0.706600
C291	C29	0.438300	0.989440	0.631800
H221	H22	0.403500	0.014300	0.697800
C301	C30	0.532100	0.015620	0.540700
C311	C31	0.584900	0.977840	0.448000
H231	H23	0.651100	0.991800	0.385500
C321	C32	0.536200	0.917560	0.450200
H241	H24	0.570100	0.891200	0.386400
C331	C33	0.971500	0.374440	0.391500
H251	H25	0.933200	0.407000	0.438700
C341	C34	0.115200	0.380400	0.340300
H261	H26	0.172200	0.416200	0.351400
C351	C35	0.171400	0.332260	0.272800
C361	C36	0.073700	0.282220	0.258200
H271	H27	0.107500	0.249100	0.210300
C371	C37	0.416700	0.279840	0.229000
H281	H28	0.383300	0.248100	0.281000
C381	C38	0.322400	0.331110	0.213900
C391	C39	0.378600	0.377800	0.143100
H291	H29	0.324200	0.414200	0.132900
C401	C40	0.519400	0.369480	0.086600
H301	H30	0.558400	0.401300	0.037800
C411	C41	0.909800	0.106340	0.078500
H311	H31	0.910500	0.085600	0.157100
C421	C42	0.945300	0.073760	0.968000
C431	C43	0.944600	0.105560	0.855200
H321	H32	0.964700	0.086400	0.777200
C441	C44	0.912900	0.167610	0.860100
H331	H33	0.916900	0.190100	0.783800
C451	C45	0.979300	0.912800	0.081300
H341	H34	0.948100	0.888600	0.149700
C461	C46	0.933100	0.973310	0.077700
H351	H35	0.870700	0.989500	0.140700
C471	C47	0.982600	0.008300	0.978100
C481	C48	0.070000	0.978450	0.887600
H361	H36	0.102100	0.001000	0.817000
