data_WILNEL01_clean_PM
_symmetry_space_group_name_H-M	'P1'
_cell_length_a	17.257600
_cell_length_b	17.257600
_cell_length_c	20.849300
_cell_angle_alpha	90.000000
_cell_angle_beta	90.000000
_cell_angle_gamma	120.000000
_symmetry_Int_Tables_number 1

loop_
_symmetry_equiv_pos_as_xyz
'x,y,z'

loop_
_atom_site_label
_atom_site_type_symbol
_atom_site_fract_x
_atom_site_fract_y
_atom_site_fract_z
N11	N1	0.802000	0.240700	0.032900
N21	N2	0.742400	0.169200	0.065800
N31	N3	0.688900	0.182700	0.102620
N41	N4	0.713700	0.268400	0.093690
C11	C1	0.780800	0.301800	0.050800
H11	H1	0.809400	0.361500	0.035100
N51	N5	0.955600	0.183500	0.212500
N61	N6	0.880300	0.104700	0.208500
N71	N7	0.883800	0.038300	0.237300
N81	N8	0.965300	0.074900	0.261810
C21	C2	0.007500	0.162500	0.246200
H21	H2	0.067400	0.204200	0.258100
N91	N9	0.557500	0.796200	0.600600
N101	N10	0.571700	0.740000	0.565700
N111	N11	0.505200	0.688700	0.527100
N121	N12	0.443700	0.712200	0.537720
C31	C3	0.476900	0.777100	0.582300
H31	H3	0.446000	0.805600	0.598600
N131	N13	0.783900	0.976000	0.424800
N141	N14	0.774300	0.895400	0.425600
N151	N15	0.836200	0.887100	0.394400
N161	N16	0.890600	0.967700	0.372400
C41	C4	0.858200	0.021100	0.390900
H41	H4	0.885300	0.082900	0.381000
C51	C5	0.737500	0.081800	0.062100
H51	H5	0.741200	0.066900	0.016700
H61	H6	0.679800	0.034800	0.079900
C61	C6	0.815400	0.085900	0.100500
H71	H7	0.819700	0.031900	0.091300
H81	H8	0.872200	0.138900	0.086900
C71	C7	0.802800	0.091400	0.172000
H91	H9	0.791900	0.141600	0.180500
H101	H10	0.749400	0.035500	0.186300
C81	C8	0.656900	0.739700	0.566200
H111	H11	0.647900	0.683600	0.546500
H121	H12	0.676500	0.741500	0.611100
C91	C9	0.729000	0.818700	0.530000
H131	H13	0.785000	0.816100	0.531000
H141	H14	0.740700	0.874700	0.551400
C101	C10	0.702300	0.820100	0.460500
H151	H15	0.688700	0.763300	0.439300
H161	H16	0.647600	0.825100	0.459300
N171	N17	0.468670	0.574030	0.366230
N181	N18	0.409070	0.502530	0.399130
N191	N19	0.355570	0.516030	0.435950
N201	N20	0.380370	0.601730	0.427020
C111	C11	0.447470	0.635130	0.384130
H171	H17	0.476070	0.694830	0.368430
N211	N21	0.622270	0.516830	0.545830
N221	N22	0.546970	0.438030	0.541830
N231	N23	0.550470	0.371630	0.570630
N241	N24	0.631970	0.408230	0.595140
C121	C12	0.674170	0.495830	0.579530
H181	H18	0.734070	0.537530	0.591430
N251	N25	0.224170	0.129530	0.933930
N261	N26	0.238370	0.073330	0.899030
N271	N27	0.171870	0.022030	0.860430
N281	N28	0.110370	0.045530	0.871050
C131	C13	0.143570	0.110430	0.915630
H191	H19	0.112670	0.138930	0.931930
N291	N29	0.450570	0.309330	0.758130
N301	N30	0.440970	0.228730	0.758930
N311	N31	0.502870	0.220430	0.727730
N321	N32	0.557270	0.301030	0.705730
C141	C14	0.524870	0.354430	0.724230
H201	H20	0.551970	0.416230	0.714330
C151	C15	0.404170	0.415130	0.395430
H211	H21	0.407870	0.400230	0.350030
H221	H22	0.346470	0.368130	0.413230
C161	C16	0.482070	0.419230	0.433830
H231	H23	0.486370	0.365230	0.424630
H241	H24	0.538870	0.472230	0.420230
C171	C17	0.469470	0.424730	0.505330
H251	H25	0.458570	0.474930	0.513830
H261	H26	0.416070	0.368830	0.519630
C181	C18	0.323570	0.073030	0.899530
H271	H27	0.314570	0.016930	0.879830
H281	H28	0.343170	0.074830	0.944430
C191	C19	0.395670	0.152030	0.863330
H291	H29	0.451670	0.149430	0.864330
H301	H30	0.407370	0.208030	0.884730
C201	C20	0.368970	0.153430	0.793830
H311	H31	0.355370	0.096630	0.772630
H321	H32	0.314270	0.158430	0.792630
N331	N33	0.135330	0.907370	0.699570
N341	N34	0.075730	0.835870	0.732470
N351	N35	0.022230	0.849370	0.769290
N361	N36	0.047030	0.935070	0.760360
C211	C21	0.114130	0.968470	0.717470
H331	H33	0.142730	0.028170	0.701770
N371	N37	0.288930	0.850170	0.879170
N381	N38	0.213630	0.771370	0.875170
N391	N39	0.217130	0.704970	0.903970
N401	N40	0.298630	0.741570	0.928480
C221	C22	0.340830	0.829170	0.912870
H341	H34	0.400730	0.870870	0.924770
N411	N41	0.890830	0.462870	0.267270
N421	N42	0.905030	0.406670	0.232370
N431	N43	0.838530	0.355370	0.193770
N441	N44	0.777030	0.378870	0.204390
C231	C23	0.810230	0.443770	0.248970
H351	H35	0.779330	0.472270	0.265270
N451	N45	0.117230	0.642670	0.091470
N461	N46	0.107630	0.562070	0.092270
N471	N47	0.169530	0.553770	0.061070
N481	N48	0.223930	0.634370	0.039070
C241	C24	0.191530	0.687770	0.057570
H361	H36	0.218630	0.749570	0.047670
C251	C25	0.070830	0.748470	0.728770
H371	H37	0.074530	0.733570	0.683370
H381	H38	0.013130	0.701470	0.746570
C261	C26	0.148730	0.752570	0.767170
H391	H39	0.153030	0.698570	0.757970
H401	H40	0.205530	0.805570	0.753570
C271	C27	0.136130	0.758070	0.838670
H411	H41	0.125230	0.808270	0.847170
H421	H42	0.082730	0.702170	0.852970
C281	C28	0.990230	0.406370	0.232870
H431	H43	0.981230	0.350270	0.213170
H441	H44	0.009830	0.408170	0.277770
C291	C29	0.062330	0.485370	0.196670
H451	H45	0.118330	0.482770	0.197670
H461	H46	0.074030	0.541370	0.218070
C301	C30	0.035630	0.486770	0.127170
H471	H47	0.022030	0.429970	0.105970
H481	H48	0.980930	0.491770	0.125970
N491	N49	0.759300	0.561300	0.032900
N501	N50	0.830800	0.573200	0.065800
N511	N51	0.817300	0.506200	0.102620
N521	N52	0.731600	0.445300	0.093690
C311	C31	0.698200	0.479000	0.050800
H491	H49	0.638500	0.447900	0.035100
N531	N53	0.816500	0.772100	0.212500
N541	N54	0.895300	0.775600	0.208500
N551	N55	0.961700	0.845500	0.237300
N561	N56	0.925100	0.890400	0.261810
C321	C32	0.837500	0.845000	0.246200
H501	H50	0.795800	0.863200	0.258100
N571	N57	0.203800	0.761300	0.600600
N581	N58	0.260000	0.831700	0.565700
N591	N59	0.311300	0.816500	0.527100
N601	N60	0.287800	0.731500	0.537720
C331	C33	0.222900	0.699800	0.582300
H511	H51	0.194400	0.640400	0.598600
N611	N61	0.024000	0.807900	0.424800
N621	N62	0.104600	0.878900	0.425600
N631	N63	0.112900	0.949100	0.394400
N641	N64	0.032300	0.922900	0.372400
C341	C34	0.978900	0.837100	0.390900
H521	H52	0.917100	0.802400	0.381000
C351	C35	0.918200	0.655700	0.062100
H531	H53	0.933100	0.674300	0.016700
H541	H54	0.965200	0.645000	0.079900
C361	C36	0.914100	0.729500	0.100500
H551	H55	0.968100	0.787800	0.091300
H561	H56	0.861100	0.733300	0.086900
C371	C37	0.908600	0.711400	0.172000
H571	H57	0.858400	0.650300	0.180500
H581	H58	0.964500	0.713900	0.186300
C381	C38	0.260300	0.917200	0.566200
H591	H59	0.316400	0.964300	0.546500
H601	H60	0.258500	0.935000	0.611100
C391	C39	0.181300	0.910300	0.530000
H611	H61	0.183900	0.968900	0.531000
H621	H62	0.125300	0.866000	0.551400
C401	C40	0.179900	0.882200	0.460500
H631	H63	0.236700	0.925400	0.439300
H641	H64	0.174900	0.822500	0.459300
N651	N65	0.425970	0.894630	0.366230
N661	N66	0.497470	0.906530	0.399130
N671	N67	0.483970	0.839530	0.435950
N681	N68	0.398270	0.778630	0.427020
C411	C41	0.364870	0.812330	0.384130
H651	H65	0.305170	0.781230	0.368430
N691	N69	0.483170	0.105430	0.545830
N701	N70	0.561970	0.108930	0.541830
N711	N71	0.628370	0.178830	0.570630
N721	N72	0.591770	0.223730	0.595140
C421	C42	0.504170	0.178330	0.579530
H661	H66	0.462470	0.196530	0.591430
N731	N73	0.870470	0.094630	0.933930
N741	N74	0.926670	0.165030	0.899030
N751	N75	0.977970	0.149830	0.860430
N761	N76	0.954470	0.064830	0.871050
C431	C43	0.889570	0.033130	0.915630
H671	H67	0.861070	0.973730	0.931930
N771	N77	0.690670	0.141230	0.758130
N781	N78	0.771270	0.212230	0.758930
N791	N79	0.779570	0.282430	0.727730
N801	N80	0.698970	0.256230	0.705730
C441	C44	0.645570	0.170430	0.724230
H681	H68	0.583770	0.135730	0.714330
C451	C45	0.584870	0.989030	0.395430
H691	H69	0.599770	0.007630	0.350030
H701	H70	0.631870	0.978330	0.413230
C461	C46	0.580770	0.062830	0.433830
H711	H71	0.634770	0.121130	0.424630
H721	H72	0.527770	0.066630	0.420230
C471	C47	0.575270	0.044730	0.505330
H731	H73	0.525070	0.983630	0.513830
H741	H74	0.631170	0.047230	0.519630
C481	C48	0.926970	0.250530	0.899530
H751	H75	0.983070	0.297630	0.879830
H761	H76	0.925170	0.268330	0.944430
C491	C49	0.847970	0.243630	0.863330
H771	H77	0.850570	0.302230	0.864330
H781	H78	0.791970	0.199330	0.884730
C501	C50	0.846570	0.215530	0.793830
H791	H79	0.903370	0.258730	0.772630
H801	H80	0.841570	0.155830	0.792630
N811	N81	0.092630	0.227970	0.699570
N821	N82	0.164130	0.239870	0.732470
N831	N83	0.150630	0.172870	0.769290
N841	N84	0.064930	0.111970	0.760360
C511	C51	0.031530	0.145670	0.717470
H811	H81	0.971830	0.114570	0.701770
N851	N85	0.149830	0.438770	0.879170
N861	N86	0.228630	0.442270	0.875170
N871	N87	0.295030	0.512170	0.903970
N881	N88	0.258430	0.557070	0.928480
C521	C52	0.170830	0.511670	0.912870
H821	H82	0.129130	0.529870	0.924770
N891	N89	0.537130	0.427970	0.267270
N901	N90	0.593330	0.498370	0.232370
N911	N91	0.644630	0.483170	0.193770
N921	N92	0.621130	0.398170	0.204390
C531	C53	0.556230	0.366470	0.248970
H831	H83	0.527730	0.307070	0.265270
N931	N93	0.357330	0.474570	0.091470
N941	N94	0.437930	0.545570	0.092270
N951	N95	0.446230	0.615770	0.061070
N961	N96	0.365630	0.589570	0.039070
C541	C54	0.312230	0.503770	0.057570
H841	H84	0.250430	0.469070	0.047670
C551	C55	0.251530	0.322370	0.728770
H851	H85	0.266430	0.340970	0.683370
H861	H86	0.298530	0.311670	0.746570
C561	C56	0.247430	0.396170	0.767170
H871	H87	0.301430	0.454470	0.757970
H881	H88	0.194430	0.399970	0.753570
C571	C57	0.241930	0.378070	0.838670
H891	H89	0.191730	0.316970	0.847170
H901	H90	0.297830	0.380570	0.852970
C581	C58	0.593630	0.583870	0.232870
H911	H91	0.649730	0.630970	0.213170
H921	H92	0.591830	0.601670	0.277770
C591	C59	0.514630	0.576970	0.196670
H931	H93	0.517230	0.635570	0.197670
H941	H94	0.458630	0.532670	0.218070
C601	C60	0.513230	0.548870	0.127170
H951	H95	0.570030	0.592070	0.105970
H961	H96	0.508230	0.489170	0.125970
N971	N97	0.438700	0.198000	0.032900
N981	N98	0.426800	0.257600	0.065800
N991	N99	0.493800	0.311100	0.102620
N1001	N100	0.554700	0.286300	0.093690
C611	C61	0.521000	0.219200	0.050800
H971	H97	0.552100	0.190600	0.035100
N1011	N101	0.227900	0.044400	0.212500
N1021	N102	0.224400	0.119700	0.208500
N1031	N103	0.154500	0.116200	0.237300
N1041	N104	0.109600	0.034700	0.261810
C621	C62	0.155000	0.992500	0.246200
H981	H98	0.136800	0.932600	0.258100
N1051	N105	0.238700	0.442500	0.600600
N1061	N106	0.168300	0.428300	0.565700
N1071	N107	0.183500	0.494800	0.527100
N1081	N108	0.268500	0.556300	0.537720
C631	C63	0.300200	0.523100	0.582300
H991	H99	0.359600	0.554000	0.598600
N1091	N109	0.192100	0.216100	0.424800
N1101	N110	0.121100	0.225700	0.425600
N1111	N111	0.050900	0.163800	0.394400
N1121	N112	0.077100	0.109400	0.372400
C641	C64	0.162900	0.141800	0.390900
H1001	H100	0.197600	0.114700	0.381000
C651	C65	0.344300	0.262500	0.062100
H1011	H101	0.325700	0.258800	0.016700
H1021	H102	0.355000	0.320200	0.079900
C661	C66	0.270500	0.184600	0.100500
H1031	H103	0.212200	0.180300	0.091300
H1041	H104	0.266700	0.127800	0.086900
C671	C67	0.288600	0.197200	0.172000
H1051	H105	0.349700	0.208100	0.180500
H1061	H106	0.286100	0.250600	0.186300
C681	C68	0.082800	0.343100	0.566200
H1071	H107	0.035700	0.352100	0.546500
H1081	H108	0.065000	0.323500	0.611100
C691	C69	0.089700	0.271000	0.530000
H1091	H109	0.031100	0.215000	0.531000
H1101	H110	0.134000	0.259300	0.551400
C701	C70	0.117800	0.297700	0.460500
H1111	H111	0.074600	0.311300	0.439300
H1121	H112	0.177500	0.352400	0.459300
N1131	N113	0.105370	0.531330	0.366230
N1141	N114	0.093470	0.590930	0.399130
N1151	N115	0.160470	0.644430	0.435950
N1161	N116	0.221370	0.619630	0.427020
C711	C71	0.187670	0.552530	0.384130
H1131	H113	0.218770	0.523930	0.368430
N1171	N117	0.894570	0.377730	0.545830
N1181	N118	0.891070	0.453030	0.541830
N1191	N119	0.821170	0.449530	0.570630
N1201	N120	0.776270	0.368030	0.595140
C721	C72	0.821670	0.325830	0.579530
H1141	H114	0.803470	0.265930	0.591430
N1211	N121	0.905370	0.775830	0.933930
N1221	N122	0.834970	0.761630	0.899030
N1231	N123	0.850170	0.828130	0.860430
N1241	N124	0.935170	0.889630	0.871050
C731	C73	0.966870	0.856430	0.915630
H1151	H115	0.026270	0.887330	0.931930
N1251	N125	0.858770	0.549430	0.758130
N1261	N126	0.787770	0.559030	0.758930
N1271	N127	0.717570	0.497130	0.727730
N1281	N128	0.743770	0.442730	0.705730
C741	C74	0.829570	0.475130	0.724230
H1161	H116	0.864270	0.448030	0.714330
C751	C75	0.010970	0.595830	0.395430
H1171	H117	0.992370	0.592130	0.350030
H1181	H118	0.021670	0.653530	0.413230
C761	C76	0.937170	0.517930	0.433830
H1191	H119	0.878870	0.513630	0.424630
H1201	H120	0.933370	0.461130	0.420230
C771	C77	0.955270	0.530530	0.505330
H1211	H121	0.016370	0.541430	0.513830
H1221	H122	0.952770	0.583930	0.519630
C781	C78	0.749470	0.676430	0.899530
H1231	H123	0.702370	0.685430	0.879830
H1241	H124	0.731670	0.656830	0.944430
C791	C79	0.756370	0.604330	0.863330
H1251	H125	0.697770	0.548330	0.864330
H1261	H126	0.800670	0.592630	0.884730
C801	C80	0.784470	0.631030	0.793830
H1271	H127	0.741270	0.644630	0.772630
H1281	H128	0.844170	0.685730	0.792630
N1291	N129	0.772030	0.864670	0.699570
N1301	N130	0.760130	0.924270	0.732470
N1311	N131	0.827130	0.977770	0.769290
N1321	N132	0.888030	0.952970	0.760360
C811	C81	0.854330	0.885870	0.717470
H1291	H129	0.885430	0.857270	0.701770
N1331	N133	0.561230	0.711070	0.879170
N1341	N134	0.557730	0.786370	0.875170
N1351	N135	0.487830	0.782870	0.903970
N1361	N136	0.442930	0.701370	0.928480
C821	C82	0.488330	0.659170	0.912870
H1301	H130	0.470130	0.599270	0.924770
N1371	N137	0.572030	0.109170	0.267270
N1381	N138	0.501630	0.094970	0.232370
N1391	N139	0.516830	0.161470	0.193770
N1401	N140	0.601830	0.222970	0.204390
C831	C83	0.633530	0.189770	0.248970
H1311	H131	0.692930	0.220670	0.265270
N1411	N141	0.525430	0.882770	0.091470
N1421	N142	0.454430	0.892370	0.092270
N1431	N143	0.384230	0.830470	0.061070
N1441	N144	0.410430	0.776070	0.039070
C841	C84	0.496230	0.808470	0.057570
H1321	H132	0.530930	0.781370	0.047670
C851	C85	0.677630	0.929170	0.728770
H1331	H133	0.659030	0.925470	0.683370
H1341	H134	0.688330	0.986870	0.746570
C861	C86	0.603830	0.851270	0.767170
H1351	H135	0.545530	0.846970	0.757970
H1361	H136	0.600030	0.794470	0.753570
C871	C87	0.621930	0.863870	0.838670
H1371	H137	0.683030	0.874770	0.847170
H1381	H138	0.619430	0.917270	0.852970
C881	C88	0.416130	0.009770	0.232870
H1391	H139	0.369030	0.018770	0.213170
H1401	H140	0.398330	0.990170	0.277770
C891	C89	0.423030	0.937670	0.196670
H1411	H141	0.364430	0.881670	0.197670
H1421	H142	0.467330	0.925970	0.218070
C901	C90	0.451130	0.964370	0.127170
H1431	H143	0.407930	0.977970	0.105970
H1441	H144	0.510830	0.019070	0.125970
Fe11	Fe1	0.000000	0.000000	0.317560
Fe21	Fe2	0.666670	0.333330	0.650890
Fe31	Fe3	0.333330	0.666670	0.984230
Fe41	Fe4	0.666670	0.333330	0.149550
Fe51	Fe5	0.333330	0.666670	0.482880
Fe61	Fe6	0.000000	0.000000	0.816220
