data_WILRAK_clean_PM
_symmetry_space_group_name_H-M	'P1'
_cell_length_a	15.661000
_cell_length_b	15.661000
_cell_length_c	15.661000
_cell_angle_alpha	90.000000
_cell_angle_beta	90.000000
_cell_angle_gamma	90.000000
_symmetry_Int_Tables_number 1

loop_
_symmetry_equiv_pos_as_xyz
'x,y,z'

loop_
_atom_site_label
_atom_site_type_symbol
_atom_site_fract_x
_atom_site_fract_y
_atom_site_fract_z
N11	N1	0.240100	0.378400	0.084400
C11	C1	0.231700	0.323300	0.123700
N21	N2	0.759900	0.621600	0.084400
C21	C2	0.768300	0.676700	0.123700
N31	N3	0.759900	0.378400	0.915600
C31	C3	0.768300	0.323300	0.876300
N41	N4	0.240100	0.621600	0.915600
C41	C4	0.231700	0.676700	0.876300
N51	N5	0.084400	0.240100	0.378400
C51	C5	0.123700	0.231700	0.323300
N61	N6	0.084400	0.759900	0.621600
C61	C6	0.123700	0.768300	0.676700
N71	N7	0.915600	0.759900	0.378400
C71	C7	0.876300	0.768300	0.323300
N81	N8	0.915600	0.240100	0.621600
C81	C8	0.876300	0.231700	0.676700
N91	N9	0.378400	0.084400	0.240100
C91	C9	0.323300	0.123700	0.231700
N101	N10	0.621600	0.084400	0.759900
C101	C10	0.676700	0.123700	0.768300
N111	N11	0.378400	0.915600	0.759900
C111	C11	0.323300	0.876300	0.768300
N121	N12	0.621600	0.915600	0.240100
C121	C12	0.676700	0.876300	0.231700
N131	N13	0.878400	0.740100	0.584400
C131	C13	0.823300	0.731700	0.623700
N141	N14	0.121600	0.259900	0.584400
C141	C14	0.176700	0.268300	0.623700
N151	N15	0.878400	0.259900	0.415600
C151	C15	0.823300	0.268300	0.376300
N161	N16	0.121600	0.740100	0.415600
C161	C16	0.176700	0.731700	0.376300
N171	N17	0.740100	0.584400	0.878400
C171	C17	0.731700	0.623700	0.823300
N181	N18	0.259900	0.584400	0.121600
C181	C18	0.268300	0.623700	0.176700
N191	N19	0.259900	0.415600	0.878400
C191	C19	0.268300	0.376300	0.823300
N201	N20	0.740100	0.415600	0.121600
C201	C20	0.731700	0.376300	0.176700
N211	N21	0.584400	0.878400	0.740100
C211	C21	0.623700	0.823300	0.731700
N221	N22	0.584400	0.121600	0.259900
C221	C22	0.623700	0.176700	0.268300
N231	N23	0.415600	0.878400	0.259900
C231	C23	0.376300	0.823300	0.268300
N241	N24	0.415600	0.121600	0.740100
C241	C24	0.376300	0.176700	0.731700
Cd11	Cd1	0.250000	0.500000	0.000000
Cd21	Cd2	0.750000	0.500000	0.000000
Cd31	Cd3	0.000000	0.250000	0.500000
Cd41	Cd4	0.000000	0.750000	0.500000
Cd51	Cd5	0.500000	0.000000	0.250000
Cd61	Cd6	0.500000	0.000000	0.750000
Cd71	Cd7	0.000000	0.000000	0.000000
Cd81	Cd8	0.500000	0.500000	0.500000
Cd91	Cd9	0.207540	0.207540	0.207540
C251	C25	0.081270	0.081270	0.081270
C261	C26	0.125200	0.125200	0.125200
Cd101	Cd10	0.792460	0.792460	0.207540
C271	C27	0.918730	0.918730	0.081270
C281	C28	0.874800	0.874800	0.125200
Cd111	Cd11	0.792460	0.207540	0.792460
C291	C29	0.918730	0.081270	0.918730
C301	C30	0.874800	0.125200	0.874800
Cd121	Cd12	0.207540	0.792460	0.792460
C311	C31	0.081270	0.918730	0.918730
C321	C32	0.125200	0.874800	0.874800
Cd131	Cd13	0.707540	0.707540	0.707540
C331	C33	0.581270	0.581270	0.581270
C341	C34	0.625200	0.625200	0.625200
Cd141	Cd14	0.292460	0.292460	0.707540
C351	C35	0.418730	0.418730	0.581270
C361	C36	0.374800	0.374800	0.625200
Cd151	Cd15	0.707540	0.292460	0.292460
C371	C37	0.581270	0.418730	0.418730
C381	C38	0.625200	0.374800	0.374800
Cd161	Cd16	0.292460	0.707540	0.292460
C391	C39	0.418730	0.581270	0.418730
C401	C40	0.374800	0.625200	0.374800
