data_WIPDEF_clean_PM
_symmetry_space_group_name_H-M	'P1'
_cell_length_a	16.766700
_cell_length_b	16.766700
_cell_length_c	16.766700
_cell_angle_alpha	90.000000
_cell_angle_beta	90.000000
_cell_angle_gamma	90.000000
_symmetry_Int_Tables_number 1

loop_
_symmetry_equiv_pos_as_xyz
'x,y,z'

loop_
_atom_site_label
_atom_site_type_symbol
_atom_site_fract_x
_atom_site_fract_y
_atom_site_fract_z
O11	O1	0.092250	0.522840	0.194800
O21	O2	0.592250	0.022840	0.694800
O31	O3	0.907750	0.477160	0.194800
O41	O4	0.407750	0.977160	0.694800
O51	O5	0.907750	0.522840	0.805200
O61	O6	0.407750	0.022840	0.305200
O71	O7	0.092250	0.477160	0.805200
O81	O8	0.592250	0.977160	0.305200
O91	O9	0.194800	0.092250	0.522840
O101	O10	0.694800	0.592250	0.022840
O111	O11	0.194800	0.907750	0.477160
O121	O12	0.694800	0.407750	0.977160
O131	O13	0.805200	0.907750	0.522840
O141	O14	0.305200	0.407750	0.022840
O151	O15	0.805200	0.092250	0.477160
O161	O16	0.305200	0.592250	0.977160
O171	O17	0.522840	0.194800	0.092250
O181	O18	0.022840	0.694800	0.592250
O191	O19	0.477160	0.194800	0.907750
O201	O20	0.977160	0.694800	0.407750
O211	O21	0.522840	0.805200	0.907750
O221	O22	0.022840	0.305200	0.407750
O231	O23	0.477160	0.805200	0.092250
O241	O24	0.977160	0.305200	0.592250
O251	O25	0.522840	0.092250	0.194800
O261	O26	0.022840	0.592250	0.694800
O271	O27	0.477160	0.907750	0.194800
O281	O28	0.977160	0.407750	0.694800
O291	O29	0.522840	0.907750	0.805200
O301	O30	0.022840	0.407750	0.305200
O311	O31	0.477160	0.092250	0.805200
O321	O32	0.977160	0.592250	0.305200
O331	O33	0.092250	0.194800	0.522840
O341	O34	0.592250	0.694800	0.022840
O351	O35	0.907750	0.194800	0.477160
O361	O36	0.407750	0.694800	0.977160
O371	O37	0.907750	0.805200	0.522840
O381	O38	0.407750	0.305200	0.022840
O391	O39	0.092250	0.805200	0.477160
O401	O40	0.592250	0.305200	0.977160
O411	O41	0.194800	0.522840	0.092250
O421	O42	0.694800	0.022840	0.592250
O431	O43	0.194800	0.477160	0.907750
O441	O44	0.694800	0.977160	0.407750
O451	O45	0.805200	0.522840	0.907750
O461	O46	0.305200	0.022840	0.407750
O471	O47	0.805200	0.477160	0.092250
O481	O48	0.305200	0.977160	0.592250
Mg11	Mg1	0.000000	0.500000	0.250000
Mg21	Mg2	0.000000	0.500000	0.750000
Mg31	Mg3	0.500000	0.000000	0.250000
Mg41	Mg4	0.250000	0.000000	0.500000
Mg51	Mg5	0.750000	0.000000	0.500000
Mg61	Mg6	0.250000	0.500000	0.000000
Mg71	Mg7	0.500000	0.250000	0.000000
Mg81	Mg8	0.500000	0.750000	0.000000
Mg91	Mg9	0.000000	0.250000	0.500000
Mg101	Mg10	0.500000	0.000000	0.750000
Mg111	Mg11	0.000000	0.750000	0.500000
Mg121	Mg12	0.750000	0.500000	0.000000
Mg131	Mg13	0.000000	0.500000	0.000000
Mg141	Mg14	0.500000	0.000000	0.500000
Mg151	Mg15	0.000000	0.000000	0.500000
Mg161	Mg16	0.500000	0.500000	0.000000
Mg171	Mg17	0.500000	0.000000	0.000000
Mg181	Mg18	0.000000	0.500000	0.500000
P11	P1	0.121930	0.568900	0.121930
O491	O49	0.142940	0.653800	0.142940
O501	O50	0.057100	0.565800	0.057100
P21	P2	0.621930	0.068900	0.621930
O511	O51	0.642940	0.153800	0.642940
O521	O52	0.557100	0.065800	0.557100
P31	P3	0.878070	0.431100	0.121930
O531	O53	0.857060	0.346200	0.142940
O541	O54	0.942900	0.434200	0.057100
P41	P4	0.378070	0.931100	0.621930
O551	O55	0.357060	0.846200	0.642940
O561	O56	0.442900	0.934200	0.557100
P51	P5	0.878070	0.568900	0.878070
O571	O57	0.857060	0.653800	0.857060
O581	O58	0.942900	0.565800	0.942900
P61	P6	0.378070	0.068900	0.378070
O591	O59	0.357060	0.153800	0.357060
O601	O60	0.442900	0.065800	0.442900
P71	P7	0.121930	0.431100	0.878070
O611	O61	0.142940	0.346200	0.857060
O621	O62	0.057100	0.434200	0.942900
P81	P8	0.621930	0.931100	0.378070
O631	O63	0.642940	0.846200	0.357060
O641	O64	0.557100	0.934200	0.442900
P91	P9	0.121930	0.121930	0.568900
O651	O65	0.142940	0.142940	0.653800
O661	O66	0.057100	0.057100	0.565800
P101	P10	0.621930	0.621930	0.068900
O671	O67	0.642940	0.642940	0.153800
O681	O68	0.557100	0.557100	0.065800
P111	P11	0.121930	0.878070	0.431100
O691	O69	0.142940	0.857060	0.346200
O701	O70	0.057100	0.942900	0.434200
P121	P12	0.621930	0.378070	0.931100
O711	O71	0.642940	0.357060	0.846200
O721	O72	0.557100	0.442900	0.934200
P131	P13	0.878070	0.878070	0.568900
O731	O73	0.857060	0.857060	0.653800
O741	O74	0.942900	0.942900	0.565800
P141	P14	0.378070	0.378070	0.068900
O751	O75	0.357060	0.357060	0.153800
O761	O76	0.442900	0.442900	0.065800
P151	P15	0.878070	0.121930	0.431100
O771	O77	0.857060	0.142940	0.346200
O781	O78	0.942900	0.057100	0.434200
P161	P16	0.378070	0.621930	0.931100
O791	O79	0.357060	0.642940	0.846200
O801	O80	0.442900	0.557100	0.934200
P171	P17	0.568900	0.121930	0.121930
O811	O81	0.653800	0.142940	0.142940
O821	O82	0.565800	0.057100	0.057100
P181	P18	0.068900	0.621930	0.621930
O831	O83	0.153800	0.642940	0.642940
O841	O84	0.065800	0.557100	0.557100
P191	P19	0.431100	0.121930	0.878070
O851	O85	0.346200	0.142940	0.857060
O861	O86	0.434200	0.057100	0.942900
P201	P20	0.931100	0.621930	0.378070
O871	O87	0.846200	0.642940	0.357060
O881	O88	0.934200	0.557100	0.442900
P211	P21	0.568900	0.878070	0.878070
O891	O89	0.653800	0.857060	0.857060
O901	O90	0.565800	0.942900	0.942900
P221	P22	0.068900	0.378070	0.378070
O911	O91	0.153800	0.357060	0.357060
O921	O92	0.065800	0.442900	0.442900
P231	P23	0.431100	0.878070	0.121930
O931	O93	0.346200	0.857060	0.142940
O941	O94	0.434200	0.942900	0.057100
P241	P24	0.931100	0.378070	0.621930
O951	O95	0.846200	0.357060	0.642940
O961	O96	0.934200	0.442900	0.557100
