data_WIPPIW_clean_PM
_symmetry_space_group_name_H-M	'P1'
_cell_length_a	32.680000
_cell_length_b	34.950000
_cell_length_c	25.120000
_cell_angle_alpha	90.000000
_cell_angle_beta	90.000000
_cell_angle_gamma	90.000000
_symmetry_Int_Tables_number 1

loop_
_symmetry_equiv_pos_as_xyz
'x,y,z'

loop_
_atom_site_label
_atom_site_type_symbol
_atom_site_fract_x
_atom_site_fract_y
_atom_site_fract_z
Cd11	Cd1	0.497860	0.146560	0.884960
Cd21	Cd2	0.569810	0.249390	0.664630
Cd31	Cd3	0.531990	0.196100	0.771170
C11	C1	0.645400	0.162800	0.784900
H11	H1	0.626900	0.177200	0.804600
C21	C2	0.646800	0.168100	0.735500
C31	C3	0.675300	0.143100	0.699100
H21	H2	0.677400	0.146900	0.661300
C41	C4	0.698300	0.114100	0.730800
H31	H3	0.714000	0.096400	0.712100
C51	C5	0.698300	0.111800	0.779300
C61	C6	0.671700	0.134700	0.813800
C71	C7	0.671200	0.128900	0.869000
H41	H4	0.649900	0.140700	0.889600
C81	C8	0.697500	0.104500	0.891800
H51	H5	0.697200	0.101500	0.928600
C91	C9	0.725300	0.083500	0.861800
C101	C10	0.726600	0.086100	0.807800
H61	H6	0.745400	0.071600	0.788700
C111	C11	0.619100	0.193600	0.699900
C121	C12	0.758900	0.056200	0.885000
O11	O1	0.626300	0.198700	0.654800
O21	O2	0.594000	0.211500	0.732900
O31	O3	0.754100	0.056700	0.937600
O41	O4	0.777800	0.033900	0.861000
C131	C13	0.658200	0.325100	0.984500
H71	H7	0.670200	0.341500	0.959900
C141	C14	0.665300	0.329200	0.034400
C151	C15	0.651500	0.300000	0.072400
H81	H8	0.658000	0.302200	0.109500
C161	C16	0.626800	0.272100	0.052200
H91	H9	0.615300	0.254600	0.075800
C171	C17	0.618000	0.268200	0.999700
C181	C18	0.631500	0.294900	0.966900
C191	C19	0.624900	0.293900	0.908800
H101	H10	0.637500	0.311500	0.886400
C201	C20	0.597600	0.264000	0.887500
H111	H11	0.588700	0.263600	0.851100
C211	C21	0.583800	0.235300	0.926700
C221	C22	0.592500	0.238200	0.978800
H121	H12	0.581700	0.220200	0.002100
C231	C23	0.694100	0.360900	0.053700
C241	C24	0.557800	0.202900	0.904000
O51	O5	0.703800	0.356200	0.100000
O61	O6	0.704700	0.384000	0.021400
O71	O7	0.557300	0.201200	0.854200
O81	O8	0.538200	0.184600	0.935700
C251	C25	0.393600	0.045500	0.945800
H131	H13	0.390800	0.040000	0.909800
C261	C26	0.418600	0.071800	0.971500
C271	C27	0.420600	0.075300	0.026100
H141	H14	0.437800	0.094100	0.039600
C281	C28	0.399400	0.053700	0.062600
H151	H15	0.401500	0.058700	0.098900
C291	C29	0.375500	0.025100	0.044700
C301	C30	0.373500	0.029600	0.990400
C311	C31	0.350200	0.001700	0.968300
H161	H16	0.347400	0.997200	0.932000
C321	C32	0.331000	0.980500	0.008700
H171	H17	0.313700	0.962000	0.994500
C331	C33	0.330600	0.979700	0.064600
C341	C34	0.357500	0.005700	0.087300
H181	H18	0.361800	0.008700	0.124900
C351	C35	0.450600	0.098500	0.939300
C361	C36	0.303200	0.949200	0.090300
O91	O9	0.447600	0.098800	0.891100
O101	O10	0.469700	0.120800	0.966600
O111	O11	0.306800	0.947000	0.140800
O121	O12	0.279800	0.931000	0.061900
C371	C37	0.728100	0.427700	0.570200
H191	H19	0.741500	0.443700	0.596100
C381	C38	0.735600	0.433500	0.516400
C391	C39	0.714000	0.412100	0.478800
H201	H20	0.715600	0.418500	0.442900
C401	C40	0.690000	0.381200	0.494900
H211	H21	0.682400	0.361400	0.470200
C411	C41	0.681400	0.376700	0.547000
C421	C42	0.700600	0.399300	0.586600
C431	C43	0.693100	0.390600	0.639300
H221	H22	0.706100	0.404500	0.667600
C441	C44	0.667500	0.360600	0.653500
H231	H23	0.657700	0.354300	0.688400
C451	C45	0.648600	0.338900	0.613900
C461	C46	0.655800	0.346300	0.561000
H241	H24	0.641400	0.330300	0.536100
C471	C47	0.762700	0.465000	0.496500
C481	C48	0.618100	0.305500	0.623400
O131	O13	0.770400	0.493100	0.523900
O141	O14	0.772500	0.461900	0.448900
O151	O15	0.596900	0.285900	0.595100
O161	O16	0.620100	0.297600	0.673700
Cd41	Cd4	0.497860	0.646560	0.384960
Cd51	Cd5	0.569810	0.749390	0.164630
Cd61	Cd6	0.531990	0.696100	0.271170
C491	C49	0.645400	0.662800	0.284900
H251	H25	0.626900	0.677200	0.304600
C501	C50	0.646800	0.668100	0.235500
C511	C51	0.675300	0.643100	0.199100
H261	H26	0.677400	0.646900	0.161300
C521	C52	0.698300	0.614100	0.230800
H271	H27	0.714000	0.596400	0.212100
C531	C53	0.698300	0.611800	0.279300
C541	C54	0.671700	0.634700	0.313800
C551	C55	0.671200	0.628900	0.369000
H281	H28	0.649900	0.640700	0.389600
C561	C56	0.697500	0.604500	0.391800
H291	H29	0.697200	0.601500	0.428600
C571	C57	0.725300	0.583500	0.361800
C581	C58	0.726600	0.586100	0.307800
H301	H30	0.745400	0.571600	0.288700
C591	C59	0.619100	0.693600	0.199900
C601	C60	0.758900	0.556200	0.385000
O171	O17	0.626300	0.698700	0.154800
O181	O18	0.594000	0.711500	0.232900
O191	O19	0.754100	0.556700	0.437600
O201	O20	0.777800	0.533900	0.361000
C611	C61	0.658200	0.825100	0.484500
H311	H31	0.670200	0.841500	0.459900
C621	C62	0.665300	0.829200	0.534400
C631	C63	0.651500	0.800000	0.572400
H321	H32	0.658000	0.802200	0.609500
C641	C64	0.626800	0.772100	0.552200
H331	H33	0.615300	0.754600	0.575800
C651	C65	0.618000	0.768200	0.499700
C661	C66	0.631500	0.794900	0.466900
C671	C67	0.624900	0.793900	0.408800
H341	H34	0.637500	0.811500	0.386400
C681	C68	0.597600	0.764000	0.387500
H351	H35	0.588700	0.763600	0.351100
C691	C69	0.583800	0.735300	0.426700
C701	C70	0.592500	0.738200	0.478800
H361	H36	0.581700	0.720200	0.502100
C711	C71	0.694100	0.860900	0.553700
C721	C72	0.557800	0.702900	0.404000
O211	O21	0.703800	0.856200	0.600000
O221	O22	0.704700	0.884000	0.521400
O231	O23	0.557300	0.701200	0.354200
O241	O24	0.538200	0.684600	0.435700
C731	C73	0.393600	0.545500	0.445800
H371	H37	0.390800	0.540000	0.409800
C741	C74	0.418600	0.571800	0.471500
C751	C75	0.420600	0.575300	0.526100
H381	H38	0.437800	0.594100	0.539600
C761	C76	0.399400	0.553700	0.562600
H391	H39	0.401500	0.558700	0.598900
C771	C77	0.375500	0.525100	0.544700
C781	C78	0.373500	0.529600	0.490400
C791	C79	0.350200	0.501700	0.468300
H401	H40	0.347400	0.497200	0.432000
C801	C80	0.331000	0.480500	0.508700
H411	H41	0.313700	0.462000	0.494500
C811	C81	0.330600	0.479700	0.564600
C821	C82	0.357500	0.505700	0.587300
H421	H42	0.361800	0.508700	0.624900
C831	C83	0.450600	0.598500	0.439300
C841	C84	0.303200	0.449200	0.590300
O251	O25	0.447600	0.598800	0.391100
O261	O26	0.469700	0.620800	0.466600
O271	O27	0.306800	0.447000	0.640800
O281	O28	0.279800	0.431000	0.561900
C851	C85	0.728100	0.927700	0.070200
H431	H43	0.741500	0.943700	0.096100
C861	C86	0.735600	0.933500	0.016400
C871	C87	0.714000	0.912100	0.978800
H441	H44	0.715600	0.918500	0.942900
C881	C88	0.690000	0.881200	0.994900
H451	H45	0.682400	0.861400	0.970200
C891	C89	0.681400	0.876700	0.047000
C901	C90	0.700600	0.899300	0.086600
C911	C91	0.693100	0.890600	0.139300
H461	H46	0.706100	0.904500	0.167600
C921	C92	0.667500	0.860600	0.153500
H471	H47	0.657700	0.854300	0.188400
C931	C93	0.648600	0.838900	0.113900
C941	C94	0.655800	0.846300	0.061000
H481	H48	0.641400	0.830300	0.036100
C951	C95	0.762700	0.965000	0.996500
C961	C96	0.618100	0.805500	0.123400
O291	O29	0.770400	0.993100	0.023900
O301	O30	0.772500	0.961900	0.948900
O311	O31	0.596900	0.785900	0.095100
O321	O32	0.620100	0.797600	0.173700
Cd71	Cd7	0.997860	0.146560	0.384960
Cd81	Cd8	0.069810	0.249390	0.164630
Cd91	Cd9	0.031990	0.196100	0.271170
C971	C97	0.145400	0.162800	0.284900
H491	H49	0.126900	0.177200	0.304600
C981	C98	0.146800	0.168100	0.235500
C991	C99	0.175300	0.143100	0.199100
H501	H50	0.177400	0.146900	0.161300
C1001	C100	0.198300	0.114100	0.230800
H511	H51	0.214000	0.096400	0.212100
C1011	C101	0.198300	0.111800	0.279300
C1021	C102	0.171700	0.134700	0.313800
C1031	C103	0.171200	0.128900	0.369000
H521	H52	0.149900	0.140700	0.389600
C1041	C104	0.197500	0.104500	0.391800
H531	H53	0.197200	0.101500	0.428600
C1051	C105	0.225300	0.083500	0.361800
C1061	C106	0.226600	0.086100	0.307800
H541	H54	0.245400	0.071600	0.288700
C1071	C107	0.119100	0.193600	0.199900
C1081	C108	0.258900	0.056200	0.385000
O331	O33	0.126300	0.198700	0.154800
O341	O34	0.094000	0.211500	0.232900
O351	O35	0.254100	0.056700	0.437600
O361	O36	0.277800	0.033900	0.361000
C1091	C109	0.158200	0.325100	0.484500
H551	H55	0.170200	0.341500	0.459900
C1101	C110	0.165300	0.329200	0.534400
C1111	C111	0.151500	0.300000	0.572400
H561	H56	0.158000	0.302200	0.609500
C1121	C112	0.126800	0.272100	0.552200
H571	H57	0.115300	0.254600	0.575800
C1131	C113	0.118000	0.268200	0.499700
C1141	C114	0.131500	0.294900	0.466900
C1151	C115	0.124900	0.293900	0.408800
H581	H58	0.137500	0.311500	0.386400
C1161	C116	0.097600	0.264000	0.387500
H591	H59	0.088700	0.263600	0.351100
C1171	C117	0.083800	0.235300	0.426700
C1181	C118	0.092500	0.238200	0.478800
H601	H60	0.081700	0.220200	0.502100
C1191	C119	0.194100	0.360900	0.553700
C1201	C120	0.057800	0.202900	0.404000
O371	O37	0.203800	0.356200	0.600000
O381	O38	0.204700	0.384000	0.521400
O391	O39	0.057300	0.201200	0.354200
O401	O40	0.038200	0.184600	0.435700
C1211	C121	0.893600	0.045500	0.445800
H611	H61	0.890800	0.040000	0.409800
C1221	C122	0.918600	0.071800	0.471500
C1231	C123	0.920600	0.075300	0.526100
H621	H62	0.937800	0.094100	0.539600
C1241	C124	0.899400	0.053700	0.562600
H631	H63	0.901500	0.058700	0.598900
C1251	C125	0.875500	0.025100	0.544700
C1261	C126	0.873500	0.029600	0.490400
C1271	C127	0.850200	0.001700	0.468300
H641	H64	0.847400	0.997200	0.432000
C1281	C128	0.831000	0.980500	0.508700
H651	H65	0.813700	0.962000	0.494500
C1291	C129	0.830600	0.979700	0.564600
C1301	C130	0.857500	0.005700	0.587300
H661	H66	0.861800	0.008700	0.624900
C1311	C131	0.950600	0.098500	0.439300
C1321	C132	0.803200	0.949200	0.590300
O411	O41	0.947600	0.098800	0.391100
O421	O42	0.969700	0.120800	0.466600
O431	O43	0.806800	0.947000	0.640800
O441	O44	0.779800	0.931000	0.561900
C1331	C133	0.228100	0.427700	0.070200
H671	H67	0.241500	0.443700	0.096100
C1341	C134	0.235600	0.433500	0.016400
C1351	C135	0.214000	0.412100	0.978800
H681	H68	0.215600	0.418500	0.942900
C1361	C136	0.190000	0.381200	0.994900
H691	H69	0.182400	0.361400	0.970200
C1371	C137	0.181400	0.376700	0.047000
C1381	C138	0.200600	0.399300	0.086600
C1391	C139	0.193100	0.390600	0.139300
H701	H70	0.206100	0.404500	0.167600
C1401	C140	0.167500	0.360600	0.153500
H711	H71	0.157700	0.354300	0.188400
C1411	C141	0.148600	0.338900	0.113900
C1421	C142	0.155800	0.346300	0.061000
H721	H72	0.141400	0.330300	0.036100
C1431	C143	0.262700	0.465000	0.996500
C1441	C144	0.118100	0.305500	0.123400
O451	O45	0.270400	0.493100	0.023900
O461	O46	0.272500	0.461900	0.948900
O471	O47	0.096900	0.285900	0.095100
O481	O48	0.120100	0.297600	0.173700
Cd101	Cd10	0.997860	0.646560	0.884960
Cd111	Cd11	0.069810	0.749390	0.664630
Cd121	Cd12	0.031990	0.696100	0.771170
C1451	C145	0.145400	0.662800	0.784900
H731	H73	0.126900	0.677200	0.804600
C1461	C146	0.146800	0.668100	0.735500
C1471	C147	0.175300	0.643100	0.699100
H741	H74	0.177400	0.646900	0.661300
C1481	C148	0.198300	0.614100	0.730800
H751	H75	0.214000	0.596400	0.712100
C1491	C149	0.198300	0.611800	0.779300
C1501	C150	0.171700	0.634700	0.813800
C1511	C151	0.171200	0.628900	0.869000
H761	H76	0.149900	0.640700	0.889600
C1521	C152	0.197500	0.604500	0.891800
H771	H77	0.197200	0.601500	0.928600
C1531	C153	0.225300	0.583500	0.861800
C1541	C154	0.226600	0.586100	0.807800
H781	H78	0.245400	0.571600	0.788700
C1551	C155	0.119100	0.693600	0.699900
C1561	C156	0.258900	0.556200	0.885000
O491	O49	0.126300	0.698700	0.654800
O501	O50	0.094000	0.711500	0.732900
O511	O51	0.254100	0.556700	0.937600
O521	O52	0.277800	0.533900	0.861000
C1571	C157	0.158200	0.825100	0.984500
H791	H79	0.170200	0.841500	0.959900
C1581	C158	0.165300	0.829200	0.034400
C1591	C159	0.151500	0.800000	0.072400
H801	H80	0.158000	0.802200	0.109500
C1601	C160	0.126800	0.772100	0.052200
H811	H81	0.115300	0.754600	0.075800
C1611	C161	0.118000	0.768200	0.999700
C1621	C162	0.131500	0.794900	0.966900
C1631	C163	0.124900	0.793900	0.908800
H821	H82	0.137500	0.811500	0.886400
C1641	C164	0.097600	0.764000	0.887500
H831	H83	0.088700	0.763600	0.851100
C1651	C165	0.083800	0.735300	0.926700
C1661	C166	0.092500	0.738200	0.978800
H841	H84	0.081700	0.720200	0.002100
C1671	C167	0.194100	0.860900	0.053700
C1681	C168	0.057800	0.702900	0.904000
O531	O53	0.203800	0.856200	0.100000
O541	O54	0.204700	0.884000	0.021400
O551	O55	0.057300	0.701200	0.854200
O561	O56	0.038200	0.684600	0.935700
C1691	C169	0.893600	0.545500	0.945800
H851	H85	0.890800	0.540000	0.909800
C1701	C170	0.918600	0.571800	0.971500
C1711	C171	0.920600	0.575300	0.026100
H861	H86	0.937800	0.594100	0.039600
C1721	C172	0.899400	0.553700	0.062600
H871	H87	0.901500	0.558700	0.098900
C1731	C173	0.875500	0.525100	0.044700
C1741	C174	0.873500	0.529600	0.990400
C1751	C175	0.850200	0.501700	0.968300
H881	H88	0.847400	0.497200	0.932000
C1761	C176	0.831000	0.480500	0.008700
H891	H89	0.813700	0.462000	0.994500
C1771	C177	0.830600	0.479700	0.064600
C1781	C178	0.857500	0.505700	0.087300
H901	H90	0.861800	0.508700	0.124900
C1791	C179	0.950600	0.598500	0.939300
C1801	C180	0.803200	0.449200	0.090300
O571	O57	0.947600	0.598800	0.891100
O581	O58	0.969700	0.620800	0.966600
O591	O59	0.806800	0.447000	0.140800
O601	O60	0.779800	0.431000	0.061900
C1811	C181	0.228100	0.927700	0.570200
H911	H91	0.241500	0.943700	0.596100
C1821	C182	0.235600	0.933500	0.516400
C1831	C183	0.214000	0.912100	0.478800
H921	H92	0.215600	0.918500	0.442900
C1841	C184	0.190000	0.881200	0.494900
H931	H93	0.182400	0.861400	0.470200
C1851	C185	0.181400	0.876700	0.547000
C1861	C186	0.200600	0.899300	0.586600
C1871	C187	0.193100	0.890600	0.639300
H941	H94	0.206100	0.904500	0.667600
C1881	C188	0.167500	0.860600	0.653500
H951	H95	0.157700	0.854300	0.688400
C1891	C189	0.148600	0.838900	0.613900
C1901	C190	0.155800	0.846300	0.561000
H961	H96	0.141400	0.830300	0.536100
C1911	C191	0.262700	0.965000	0.496500
C1921	C192	0.118100	0.805500	0.623400
O611	O61	0.270400	0.993100	0.523900
O621	O62	0.272500	0.961900	0.448900
O631	O63	0.096900	0.785900	0.595100
O641	O64	0.120100	0.797600	0.673700
Cd131	Cd13	0.502140	0.853440	0.884960
Cd141	Cd14	0.430190	0.750610	0.664630
Cd151	Cd15	0.468010	0.803900	0.771170
C1931	C193	0.354600	0.837200	0.784900
H971	H97	0.373100	0.822800	0.804600
C1941	C194	0.353200	0.831900	0.735500
C1951	C195	0.324700	0.856900	0.699100
H981	H98	0.322600	0.853100	0.661300
C1961	C196	0.301700	0.885900	0.730800
H991	H99	0.286000	0.903600	0.712100
C1971	C197	0.301700	0.888200	0.779300
C1981	C198	0.328300	0.865300	0.813800
C1991	C199	0.328800	0.871100	0.869000
H1001	H100	0.350100	0.859300	0.889600
C2001	C200	0.302500	0.895500	0.891800
H1011	H101	0.302800	0.898500	0.928600
C2011	C201	0.274700	0.916500	0.861800
C2021	C202	0.273400	0.913900	0.807800
H1021	H102	0.254600	0.928400	0.788700
C2031	C203	0.380900	0.806400	0.699900
C2041	C204	0.241100	0.943800	0.885000
O651	O65	0.373700	0.801300	0.654800
O661	O66	0.406000	0.788500	0.732900
O671	O67	0.245900	0.943300	0.937600
O681	O68	0.222200	0.966100	0.861000
C2051	C205	0.341800	0.674900	0.984500
H1031	H103	0.329800	0.658500	0.959900
C2061	C206	0.334700	0.670800	0.034400
C2071	C207	0.348500	0.700000	0.072400
H1041	H104	0.342000	0.697800	0.109500
C2081	C208	0.373200	0.727900	0.052200
H1051	H105	0.384700	0.745400	0.075800
C2091	C209	0.382000	0.731800	0.999700
C2101	C210	0.368500	0.705100	0.966900
C2111	C211	0.375100	0.706100	0.908800
H1061	H106	0.362500	0.688500	0.886400
C2121	C212	0.402400	0.736000	0.887500
H1071	H107	0.411300	0.736400	0.851100
C2131	C213	0.416200	0.764700	0.926700
C2141	C214	0.407500	0.761800	0.978800
H1081	H108	0.418300	0.779800	0.002100
C2151	C215	0.305900	0.639100	0.053700
C2161	C216	0.442200	0.797100	0.904000
O691	O69	0.296200	0.643800	0.100000
O701	O70	0.295300	0.616000	0.021400
O711	O71	0.442700	0.798800	0.854200
O721	O72	0.461800	0.815400	0.935700
C2171	C217	0.606400	0.954500	0.945800
H1091	H109	0.609200	0.960000	0.909800
C2181	C218	0.581400	0.928200	0.971500
C2191	C219	0.579400	0.924700	0.026100
H1101	H110	0.562200	0.905900	0.039600
C2201	C220	0.600600	0.946300	0.062600
H1111	H111	0.598500	0.941300	0.098900
C2211	C221	0.624500	0.974900	0.044700
C2221	C222	0.626500	0.970400	0.990400
C2231	C223	0.649800	0.998300	0.968300
H1121	H112	0.652600	0.002800	0.932000
C2241	C224	0.669000	0.019500	0.008700
H1131	H113	0.686300	0.038000	0.994500
C2251	C225	0.669400	0.020300	0.064600
C2261	C226	0.642500	0.994300	0.087300
H1141	H114	0.638200	0.991300	0.124900
C2271	C227	0.549400	0.901500	0.939300
C2281	C228	0.696800	0.050800	0.090300
O731	O73	0.552400	0.901200	0.891100
O741	O74	0.530300	0.879200	0.966600
O751	O75	0.693200	0.053000	0.140800
O761	O76	0.720200	0.069000	0.061900
C2291	C229	0.271900	0.572300	0.570200
H1151	H115	0.258500	0.556300	0.596100
C2301	C230	0.264400	0.566500	0.516400
C2311	C231	0.286000	0.587900	0.478800
H1161	H116	0.284400	0.581500	0.442900
C2321	C232	0.310000	0.618800	0.494900
H1171	H117	0.317600	0.638600	0.470200
C2331	C233	0.318600	0.623300	0.547000
C2341	C234	0.299400	0.600700	0.586600
C2351	C235	0.306900	0.609400	0.639300
H1181	H118	0.293900	0.595500	0.667600
C2361	C236	0.332500	0.639400	0.653500
H1191	H119	0.342300	0.645700	0.688400
C2371	C237	0.351400	0.661100	0.613900
C2381	C238	0.344200	0.653700	0.561000
H1201	H120	0.358600	0.669700	0.536100
C2391	C239	0.237300	0.535000	0.496500
C2401	C240	0.381900	0.694500	0.623400
O771	O77	0.229600	0.506900	0.523900
O781	O78	0.227500	0.538100	0.448900
O791	O79	0.403100	0.714100	0.595100
O801	O80	0.379900	0.702400	0.673700
Cd161	Cd16	0.502140	0.353440	0.384960
Cd171	Cd17	0.430190	0.250610	0.164630
Cd181	Cd18	0.468010	0.303900	0.271170
C2411	C241	0.354600	0.337200	0.284900
H1211	H121	0.373100	0.322800	0.304600
C2421	C242	0.353200	0.331900	0.235500
C2431	C243	0.324700	0.356900	0.199100
H1221	H122	0.322600	0.353100	0.161300
C2441	C244	0.301700	0.385900	0.230800
H1231	H123	0.286000	0.403600	0.212100
C2451	C245	0.301700	0.388200	0.279300
C2461	C246	0.328300	0.365300	0.313800
C2471	C247	0.328800	0.371100	0.369000
H1241	H124	0.350100	0.359300	0.389600
C2481	C248	0.302500	0.395500	0.391800
H1251	H125	0.302800	0.398500	0.428600
C2491	C249	0.274700	0.416500	0.361800
C2501	C250	0.273400	0.413900	0.307800
H1261	H126	0.254600	0.428400	0.288700
C2511	C251	0.380900	0.306400	0.199900
C2521	C252	0.241100	0.443800	0.385000
O811	O81	0.373700	0.301300	0.154800
O821	O82	0.406000	0.288500	0.232900
O831	O83	0.245900	0.443300	0.437600
O841	O84	0.222200	0.466100	0.361000
C2531	C253	0.341800	0.174900	0.484500
H1271	H127	0.329800	0.158500	0.459900
C2541	C254	0.334700	0.170800	0.534400
C2551	C255	0.348500	0.200000	0.572400
H1281	H128	0.342000	0.197800	0.609500
C2561	C256	0.373200	0.227900	0.552200
H1291	H129	0.384700	0.245400	0.575800
C2571	C257	0.382000	0.231800	0.499700
C2581	C258	0.368500	0.205100	0.466900
C2591	C259	0.375100	0.206100	0.408800
H1301	H130	0.362500	0.188500	0.386400
C2601	C260	0.402400	0.236000	0.387500
H1311	H131	0.411300	0.236400	0.351100
C2611	C261	0.416200	0.264700	0.426700
C2621	C262	0.407500	0.261800	0.478800
H1321	H132	0.418300	0.279800	0.502100
C2631	C263	0.305900	0.139100	0.553700
C2641	C264	0.442200	0.297100	0.404000
O851	O85	0.296200	0.143800	0.600000
O861	O86	0.295300	0.116000	0.521400
O871	O87	0.442700	0.298800	0.354200
O881	O88	0.461800	0.315400	0.435700
C2651	C265	0.606400	0.454500	0.445800
H1331	H133	0.609200	0.460000	0.409800
C2661	C266	0.581400	0.428200	0.471500
C2671	C267	0.579400	0.424700	0.526100
H1341	H134	0.562200	0.405900	0.539600
C2681	C268	0.600600	0.446300	0.562600
H1351	H135	0.598500	0.441300	0.598900
C2691	C269	0.624500	0.474900	0.544700
C2701	C270	0.626500	0.470400	0.490400
C2711	C271	0.649800	0.498300	0.468300
H1361	H136	0.652600	0.502800	0.432000
C2721	C272	0.669000	0.519500	0.508700
H1371	H137	0.686300	0.538000	0.494500
C2731	C273	0.669400	0.520300	0.564600
C2741	C274	0.642500	0.494300	0.587300
H1381	H138	0.638200	0.491300	0.624900
C2751	C275	0.549400	0.401500	0.439300
C2761	C276	0.696800	0.550800	0.590300
O891	O89	0.552400	0.401200	0.391100
O901	O90	0.530300	0.379200	0.466600
O911	O91	0.693200	0.553000	0.640800
O921	O92	0.720200	0.569000	0.561900
C2771	C277	0.271900	0.072300	0.070200
H1391	H139	0.258500	0.056300	0.096100
C2781	C278	0.264400	0.066500	0.016400
C2791	C279	0.286000	0.087900	0.978800
H1401	H140	0.284400	0.081500	0.942900
C2801	C280	0.310000	0.118800	0.994900
H1411	H141	0.317600	0.138600	0.970200
C2811	C281	0.318600	0.123300	0.047000
C2821	C282	0.299400	0.100700	0.086600
C2831	C283	0.306900	0.109400	0.139300
H1421	H142	0.293900	0.095500	0.167600
C2841	C284	0.332500	0.139400	0.153500
H1431	H143	0.342300	0.145700	0.188400
C2851	C285	0.351400	0.161100	0.113900
C2861	C286	0.344200	0.153700	0.061000
H1441	H144	0.358600	0.169700	0.036100
C2871	C287	0.237300	0.035000	0.996500
C2881	C288	0.381900	0.194500	0.123400
O931	O93	0.229600	0.006900	0.023900
O941	O94	0.227500	0.038100	0.948900
O951	O95	0.403100	0.214100	0.095100
O961	O96	0.379900	0.202400	0.173700
Cd191	Cd19	0.002140	0.853440	0.384960
Cd201	Cd20	0.930190	0.750610	0.164630
Cd211	Cd21	0.968010	0.803900	0.271170
C2891	C289	0.854600	0.837200	0.284900
H1451	H145	0.873100	0.822800	0.304600
C2901	C290	0.853200	0.831900	0.235500
C2911	C291	0.824700	0.856900	0.199100
H1461	H146	0.822600	0.853100	0.161300
C2921	C292	0.801700	0.885900	0.230800
H1471	H147	0.786000	0.903600	0.212100
C2931	C293	0.801700	0.888200	0.279300
C2941	C294	0.828300	0.865300	0.313800
C2951	C295	0.828800	0.871100	0.369000
H1481	H148	0.850100	0.859300	0.389600
C2961	C296	0.802500	0.895500	0.391800
H1491	H149	0.802800	0.898500	0.428600
C2971	C297	0.774700	0.916500	0.361800
C2981	C298	0.773400	0.913900	0.307800
H1501	H150	0.754600	0.928400	0.288700
C2991	C299	0.880900	0.806400	0.199900
C3001	C300	0.741100	0.943800	0.385000
O971	O97	0.873700	0.801300	0.154800
O981	O98	0.906000	0.788500	0.232900
O991	O99	0.745900	0.943300	0.437600
O1001	O100	0.722200	0.966100	0.361000
C3011	C301	0.841800	0.674900	0.484500
H1511	H151	0.829800	0.658500	0.459900
C3021	C302	0.834700	0.670800	0.534400
C3031	C303	0.848500	0.700000	0.572400
H1521	H152	0.842000	0.697800	0.609500
C3041	C304	0.873200	0.727900	0.552200
H1531	H153	0.884700	0.745400	0.575800
C3051	C305	0.882000	0.731800	0.499700
C3061	C306	0.868500	0.705100	0.466900
C3071	C307	0.875100	0.706100	0.408800
H1541	H154	0.862500	0.688500	0.386400
C3081	C308	0.902400	0.736000	0.387500
H1551	H155	0.911300	0.736400	0.351100
C3091	C309	0.916200	0.764700	0.426700
C3101	C310	0.907500	0.761800	0.478800
H1561	H156	0.918300	0.779800	0.502100
C3111	C311	0.805900	0.639100	0.553700
C3121	C312	0.942200	0.797100	0.404000
O1011	O101	0.796200	0.643800	0.600000
O1021	O102	0.795300	0.616000	0.521400
O1031	O103	0.942700	0.798800	0.354200
O1041	O104	0.961800	0.815400	0.435700
C3131	C313	0.106400	0.954500	0.445800
H1571	H157	0.109200	0.960000	0.409800
C3141	C314	0.081400	0.928200	0.471500
C3151	C315	0.079400	0.924700	0.526100
H1581	H158	0.062200	0.905900	0.539600
C3161	C316	0.100600	0.946300	0.562600
H1591	H159	0.098500	0.941300	0.598900
C3171	C317	0.124500	0.974900	0.544700
C3181	C318	0.126500	0.970400	0.490400
C3191	C319	0.149800	0.998300	0.468300
H1601	H160	0.152600	0.002800	0.432000
C3201	C320	0.169000	0.019500	0.508700
H1611	H161	0.186300	0.038000	0.494500
C3211	C321	0.169400	0.020300	0.564600
C3221	C322	0.142500	0.994300	0.587300
H1621	H162	0.138200	0.991300	0.624900
C3231	C323	0.049400	0.901500	0.439300
C3241	C324	0.196800	0.050800	0.590300
O1051	O105	0.052400	0.901200	0.391100
O1061	O106	0.030300	0.879200	0.466600
O1071	O107	0.193200	0.053000	0.640800
O1081	O108	0.220200	0.069000	0.561900
C3251	C325	0.771900	0.572300	0.070200
H1631	H163	0.758500	0.556300	0.096100
C3261	C326	0.764400	0.566500	0.016400
C3271	C327	0.786000	0.587900	0.978800
H1641	H164	0.784400	0.581500	0.942900
C3281	C328	0.810000	0.618800	0.994900
H1651	H165	0.817600	0.638600	0.970200
C3291	C329	0.818600	0.623300	0.047000
C3301	C330	0.799400	0.600700	0.086600
C3311	C331	0.806900	0.609400	0.139300
H1661	H166	0.793900	0.595500	0.167600
C3321	C332	0.832500	0.639400	0.153500
H1671	H167	0.842300	0.645700	0.188400
C3331	C333	0.851400	0.661100	0.113900
C3341	C334	0.844200	0.653700	0.061000
H1681	H168	0.858600	0.669700	0.036100
C3351	C335	0.737300	0.535000	0.996500
C3361	C336	0.881900	0.694500	0.123400
O1091	O109	0.729600	0.506900	0.023900
O1101	O110	0.727500	0.538100	0.948900
O1111	O111	0.903100	0.714100	0.095100
O1121	O112	0.879900	0.702400	0.173700
Cd221	Cd22	0.002140	0.353440	0.884960
Cd231	Cd23	0.930190	0.250610	0.664630
Cd241	Cd24	0.968010	0.303900	0.771170
C3371	C337	0.854600	0.337200	0.784900
H1691	H169	0.873100	0.322800	0.804600
C3381	C338	0.853200	0.331900	0.735500
C3391	C339	0.824700	0.356900	0.699100
H1701	H170	0.822600	0.353100	0.661300
C3401	C340	0.801700	0.385900	0.730800
H1711	H171	0.786000	0.403600	0.712100
C3411	C341	0.801700	0.388200	0.779300
C3421	C342	0.828300	0.365300	0.813800
C3431	C343	0.828800	0.371100	0.869000
H1721	H172	0.850100	0.359300	0.889600
C3441	C344	0.802500	0.395500	0.891800
H1731	H173	0.802800	0.398500	0.928600
C3451	C345	0.774700	0.416500	0.861800
C3461	C346	0.773400	0.413900	0.807800
H1741	H174	0.754600	0.428400	0.788700
C3471	C347	0.880900	0.306400	0.699900
C3481	C348	0.741100	0.443800	0.885000
O1131	O113	0.873700	0.301300	0.654800
O1141	O114	0.906000	0.288500	0.732900
O1151	O115	0.745900	0.443300	0.937600
O1161	O116	0.722200	0.466100	0.861000
C3491	C349	0.841800	0.174900	0.984500
H1751	H175	0.829800	0.158500	0.959900
C3501	C350	0.834700	0.170800	0.034400
C3511	C351	0.848500	0.200000	0.072400
H1761	H176	0.842000	0.197800	0.109500
C3521	C352	0.873200	0.227900	0.052200
H1771	H177	0.884700	0.245400	0.075800
C3531	C353	0.882000	0.231800	0.999700
C3541	C354	0.868500	0.205100	0.966900
C3551	C355	0.875100	0.206100	0.908800
H1781	H178	0.862500	0.188500	0.886400
C3561	C356	0.902400	0.236000	0.887500
H1791	H179	0.911300	0.236400	0.851100
C3571	C357	0.916200	0.264700	0.926700
C3581	C358	0.907500	0.261800	0.978800
H1801	H180	0.918300	0.279800	0.002100
C3591	C359	0.805900	0.139100	0.053700
C3601	C360	0.942200	0.297100	0.904000
O1171	O117	0.796200	0.143800	0.100000
O1181	O118	0.795300	0.116000	0.021400
O1191	O119	0.942700	0.298800	0.854200
O1201	O120	0.961800	0.315400	0.935700
C3611	C361	0.106400	0.454500	0.945800
H1811	H181	0.109200	0.460000	0.909800
C3621	C362	0.081400	0.428200	0.971500
C3631	C363	0.079400	0.424700	0.026100
H1821	H182	0.062200	0.405900	0.039600
C3641	C364	0.100600	0.446300	0.062600
H1831	H183	0.098500	0.441300	0.098900
C3651	C365	0.124500	0.474900	0.044700
C3661	C366	0.126500	0.470400	0.990400
C3671	C367	0.149800	0.498300	0.968300
H1841	H184	0.152600	0.502800	0.932000
C3681	C368	0.169000	0.519500	0.008700
H1851	H185	0.186300	0.538000	0.994500
C3691	C369	0.169400	0.520300	0.064600
C3701	C370	0.142500	0.494300	0.087300
H1861	H186	0.138200	0.491300	0.124900
C3711	C371	0.049400	0.401500	0.939300
C3721	C372	0.196800	0.550800	0.090300
O1211	O121	0.052400	0.401200	0.891100
O1221	O122	0.030300	0.379200	0.966600
O1231	O123	0.193200	0.553000	0.140800
O1241	O124	0.220200	0.569000	0.061900
C3731	C373	0.771900	0.072300	0.570200
H1871	H187	0.758500	0.056300	0.596100
C3741	C374	0.764400	0.066500	0.516400
C3751	C375	0.786000	0.087900	0.478800
H1881	H188	0.784400	0.081500	0.442900
C3761	C376	0.810000	0.118800	0.494900
H1891	H189	0.817600	0.138600	0.470200
C3771	C377	0.818600	0.123300	0.547000
C3781	C378	0.799400	0.100700	0.586600
C3791	C379	0.806900	0.109400	0.639300
H1901	H190	0.793900	0.095500	0.667600
C3801	C380	0.832500	0.139400	0.653500
H1911	H191	0.842300	0.145700	0.688400
C3811	C381	0.851400	0.161100	0.613900
C3821	C382	0.844200	0.153700	0.561000
H1921	H192	0.858600	0.169700	0.536100
C3831	C383	0.737300	0.035000	0.496500
C3841	C384	0.881900	0.194500	0.623400
O1251	O125	0.729600	0.006900	0.523900
O1261	O126	0.727500	0.038100	0.448900
O1271	O127	0.903100	0.214100	0.595100
O1281	O128	0.879900	0.202400	0.673700
Cd251	Cd25	0.747860	0.103440	0.134960
Cd261	Cd26	0.819810	0.000610	0.914630
Cd271	Cd27	0.781990	0.053900	0.021170
C3851	C385	0.895400	0.087200	0.034900
H1931	H193	0.876900	0.072800	0.054600
C3861	C386	0.896800	0.081900	0.985500
C3871	C387	0.925300	0.106900	0.949100
H1941	H194	0.927400	0.103100	0.911300
C3881	C388	0.948300	0.135900	0.980800
H1951	H195	0.964000	0.153600	0.962100
C3891	C389	0.948300	0.138200	0.029300
C3901	C390	0.921700	0.115300	0.063800
C3911	C391	0.921200	0.121100	0.119000
H1961	H196	0.899900	0.109300	0.139600
C3921	C392	0.947500	0.145500	0.141800
H1971	H197	0.947200	0.148500	0.178600
C3931	C393	0.975300	0.166500	0.111800
C3941	C394	0.976600	0.163900	0.057800
H1981	H198	0.995400	0.178400	0.038700
C3951	C395	0.869100	0.056400	0.949900
C3961	C396	0.008900	0.193800	0.135000
O1291	O129	0.876300	0.051300	0.904800
O1301	O130	0.844000	0.038500	0.982900
O1311	O131	0.004100	0.193300	0.187600
O1321	O132	0.027800	0.216100	0.111000
C3971	C397	0.908200	0.924900	0.234500
H1991	H199	0.920200	0.908500	0.209900
C3981	C398	0.915300	0.920800	0.284400
C3991	C399	0.901500	0.950000	0.322400
H2001	H200	0.908000	0.947800	0.359500
C4001	C400	0.876800	0.977900	0.302200
H2011	H201	0.865300	0.995400	0.325800
C4011	C401	0.868000	0.981800	0.249700
C4021	C402	0.881500	0.955100	0.216900
C4031	C403	0.874900	0.956100	0.158800
H2021	H202	0.887500	0.938500	0.136400
C4041	C404	0.847600	0.986000	0.137500
H2031	H203	0.838700	0.986400	0.101100
C4051	C405	0.833800	0.014700	0.176700
C4061	C406	0.842500	0.011800	0.228800
H2041	H204	0.831700	0.029800	0.252100
C4071	C407	0.944100	0.889100	0.303700
C4081	C408	0.807800	0.047100	0.154000
O1331	O133	0.953800	0.893800	0.350000
O1341	O134	0.954700	0.866000	0.271400
O1351	O135	0.807300	0.048800	0.104200
O1361	O136	0.788200	0.065400	0.185700
C4091	C409	0.643600	0.204500	0.195800
H2051	H205	0.640800	0.210000	0.159800
C4101	C410	0.668600	0.178200	0.221500
C4111	C411	0.670600	0.174700	0.276100
H2061	H206	0.687800	0.155900	0.289600
C4121	C412	0.649400	0.196300	0.312600
H2071	H207	0.651500	0.191300	0.348900
C4131	C413	0.625500	0.224900	0.294700
C4141	C414	0.623500	0.220400	0.240400
C4151	C415	0.600200	0.248300	0.218300
H2081	H208	0.597400	0.252800	0.182000
C4161	C416	0.581000	0.269500	0.258700
H2091	H209	0.563700	0.288000	0.244500
C4171	C417	0.580600	0.270300	0.314600
C4181	C418	0.607500	0.244300	0.337300
H2101	H210	0.611800	0.241300	0.374900
C4191	C419	0.700600	0.151500	0.189300
C4201	C420	0.553200	0.300800	0.340300
O1371	O137	0.697600	0.151200	0.141100
O1381	O138	0.719700	0.129200	0.216600
O1391	O139	0.556800	0.303000	0.390800
O1401	O140	0.529800	0.319000	0.311900
C4211	C421	0.978100	0.822300	0.820200
H2111	H211	0.991500	0.806300	0.846100
C4221	C422	0.985600	0.816500	0.766400
C4231	C423	0.964000	0.837900	0.728800
H2121	H212	0.965600	0.831500	0.692900
C4241	C424	0.940000	0.868800	0.744900
H2131	H213	0.932400	0.888600	0.720200
C4251	C425	0.931400	0.873300	0.797000
C4261	C426	0.950600	0.850700	0.836600
C4271	C427	0.943100	0.859400	0.889300
H2141	H214	0.956100	0.845500	0.917600
C4281	C428	0.917500	0.889400	0.903500
H2151	H215	0.907700	0.895700	0.938400
C4291	C429	0.898600	0.911100	0.863900
C4301	C430	0.905800	0.903700	0.811000
H2161	H216	0.891400	0.919700	0.786100
C4311	C431	0.012700	0.785000	0.746500
C4321	C432	0.868100	0.944500	0.873400
O1411	O141	0.020400	0.756900	0.773900
O1421	O142	0.022500	0.788100	0.698900
O1431	O143	0.846900	0.964100	0.845100
O1441	O144	0.870100	0.952400	0.923700
Cd281	Cd28	0.747860	0.603440	0.634960
Cd291	Cd29	0.819810	0.500610	0.414630
Cd301	Cd30	0.781990	0.553900	0.521170
C4331	C433	0.895400	0.587200	0.534900
H2171	H217	0.876900	0.572800	0.554600
C4341	C434	0.896800	0.581900	0.485500
C4351	C435	0.925300	0.606900	0.449100
H2181	H218	0.927400	0.603100	0.411300
C4361	C436	0.948300	0.635900	0.480800
H2191	H219	0.964000	0.653600	0.462100
C4371	C437	0.948300	0.638200	0.529300
C4381	C438	0.921700	0.615300	0.563800
C4391	C439	0.921200	0.621100	0.619000
H2201	H220	0.899900	0.609300	0.639600
C4401	C440	0.947500	0.645500	0.641800
H2211	H221	0.947200	0.648500	0.678600
C4411	C441	0.975300	0.666500	0.611800
C4421	C442	0.976600	0.663900	0.557800
H2221	H222	0.995400	0.678400	0.538700
C4431	C443	0.869100	0.556400	0.449900
C4441	C444	0.008900	0.693800	0.635000
O1451	O145	0.876300	0.551300	0.404800
O1461	O146	0.844000	0.538500	0.482900
O1471	O147	0.004100	0.693300	0.687600
O1481	O148	0.027800	0.716100	0.611000
C4451	C445	0.908200	0.424900	0.734500
H2231	H223	0.920200	0.408500	0.709900
C4461	C446	0.915300	0.420800	0.784400
C4471	C447	0.901500	0.450000	0.822400
H2241	H224	0.908000	0.447800	0.859500
C4481	C448	0.876800	0.477900	0.802200
H2251	H225	0.865300	0.495400	0.825800
C4491	C449	0.868000	0.481800	0.749700
C4501	C450	0.881500	0.455100	0.716900
C4511	C451	0.874900	0.456100	0.658800
H2261	H226	0.887500	0.438500	0.636400
C4521	C452	0.847600	0.486000	0.637500
H2271	H227	0.838700	0.486400	0.601100
C4531	C453	0.833800	0.514700	0.676700
C4541	C454	0.842500	0.511800	0.728800
H2281	H228	0.831700	0.529800	0.752100
C4551	C455	0.944100	0.389100	0.803700
C4561	C456	0.807800	0.547100	0.654000
O1491	O149	0.953800	0.393800	0.850000
O1501	O150	0.954700	0.366000	0.771400
O1511	O151	0.807300	0.548800	0.604200
O1521	O152	0.788200	0.565400	0.685700
C4571	C457	0.643600	0.704500	0.695800
H2291	H229	0.640800	0.710000	0.659800
C4581	C458	0.668600	0.678200	0.721500
C4591	C459	0.670600	0.674700	0.776100
H2301	H230	0.687800	0.655900	0.789600
C4601	C460	0.649400	0.696300	0.812600
H2311	H231	0.651500	0.691300	0.848900
C4611	C461	0.625500	0.724900	0.794700
C4621	C462	0.623500	0.720400	0.740400
C4631	C463	0.600200	0.748300	0.718300
H2321	H232	0.597400	0.752800	0.682000
C4641	C464	0.581000	0.769500	0.758700
H2331	H233	0.563700	0.788000	0.744500
C4651	C465	0.580600	0.770300	0.814600
C4661	C466	0.607500	0.744300	0.837300
H2341	H234	0.611800	0.741300	0.874900
C4671	C467	0.700600	0.651500	0.689300
C4681	C468	0.553200	0.800800	0.840300
O1531	O153	0.697600	0.651200	0.641100
O1541	O154	0.719700	0.629200	0.716600
O1551	O155	0.556800	0.803000	0.890800
O1561	O156	0.529800	0.819000	0.811900
C4691	C469	0.978100	0.322300	0.320200
H2351	H235	0.991500	0.306300	0.346100
C4701	C470	0.985600	0.316500	0.266400
C4711	C471	0.964000	0.337900	0.228800
H2361	H236	0.965600	0.331500	0.192900
C4721	C472	0.940000	0.368800	0.244900
H2371	H237	0.932400	0.388600	0.220200
C4731	C473	0.931400	0.373300	0.297000
C4741	C474	0.950600	0.350700	0.336600
C4751	C475	0.943100	0.359400	0.389300
H2381	H238	0.956100	0.345500	0.417600
C4761	C476	0.917500	0.389400	0.403500
H2391	H239	0.907700	0.395700	0.438400
C4771	C477	0.898600	0.411100	0.363900
C4781	C478	0.905800	0.403700	0.311000
H2401	H240	0.891400	0.419700	0.286100
C4791	C479	0.012700	0.285000	0.246500
C4801	C480	0.868100	0.444500	0.373400
O1571	O157	0.020400	0.256900	0.273900
O1581	O158	0.022500	0.288100	0.198900
O1591	O159	0.846900	0.464100	0.345100
O1601	O160	0.870100	0.452400	0.423700
Cd311	Cd31	0.247860	0.103440	0.634960
Cd321	Cd32	0.319810	0.000610	0.414630
Cd331	Cd33	0.281990	0.053900	0.521170
C4811	C481	0.395400	0.087200	0.534900
H2411	H241	0.376900	0.072800	0.554600
C4821	C482	0.396800	0.081900	0.485500
C4831	C483	0.425300	0.106900	0.449100
H2421	H242	0.427400	0.103100	0.411300
C4841	C484	0.448300	0.135900	0.480800
H2431	H243	0.464000	0.153600	0.462100
C4851	C485	0.448300	0.138200	0.529300
C4861	C486	0.421700	0.115300	0.563800
C4871	C487	0.421200	0.121100	0.619000
H2441	H244	0.399900	0.109300	0.639600
C4881	C488	0.447500	0.145500	0.641800
H2451	H245	0.447200	0.148500	0.678600
C4891	C489	0.475300	0.166500	0.611800
C4901	C490	0.476600	0.163900	0.557800
H2461	H246	0.495400	0.178400	0.538700
C4911	C491	0.369100	0.056400	0.449900
C4921	C492	0.508900	0.193800	0.635000
O1611	O161	0.376300	0.051300	0.404800
O1621	O162	0.344000	0.038500	0.482900
O1631	O163	0.504100	0.193300	0.687600
O1641	O164	0.527800	0.216100	0.611000
C4931	C493	0.408200	0.924900	0.734500
H2471	H247	0.420200	0.908500	0.709900
C4941	C494	0.415300	0.920800	0.784400
C4951	C495	0.401500	0.950000	0.822400
H2481	H248	0.408000	0.947800	0.859500
C4961	C496	0.376800	0.977900	0.802200
H2491	H249	0.365300	0.995400	0.825800
C4971	C497	0.368000	0.981800	0.749700
C4981	C498	0.381500	0.955100	0.716900
C4991	C499	0.374900	0.956100	0.658800
H2501	H250	0.387500	0.938500	0.636400
C5001	C500	0.347600	0.986000	0.637500
H2511	H251	0.338700	0.986400	0.601100
C5011	C501	0.333800	0.014700	0.676700
C5021	C502	0.342500	0.011800	0.728800
H2521	H252	0.331700	0.029800	0.752100
C5031	C503	0.444100	0.889100	0.803700
C5041	C504	0.307800	0.047100	0.654000
O1651	O165	0.453800	0.893800	0.850000
O1661	O166	0.454700	0.866000	0.771400
O1671	O167	0.307300	0.048800	0.604200
O1681	O168	0.288200	0.065400	0.685700
C5051	C505	0.143600	0.204500	0.695800
H2531	H253	0.140800	0.210000	0.659800
C5061	C506	0.168600	0.178200	0.721500
C5071	C507	0.170600	0.174700	0.776100
H2541	H254	0.187800	0.155900	0.789600
C5081	C508	0.149400	0.196300	0.812600
H2551	H255	0.151500	0.191300	0.848900
C5091	C509	0.125500	0.224900	0.794700
C5101	C510	0.123500	0.220400	0.740400
C5111	C511	0.100200	0.248300	0.718300
H2561	H256	0.097400	0.252800	0.682000
C5121	C512	0.081000	0.269500	0.758700
H2571	H257	0.063700	0.288000	0.744500
C5131	C513	0.080600	0.270300	0.814600
C5141	C514	0.107500	0.244300	0.837300
H2581	H258	0.111800	0.241300	0.874900
C5151	C515	0.200600	0.151500	0.689300
C5161	C516	0.053200	0.300800	0.840300
O1691	O169	0.197600	0.151200	0.641100
O1701	O170	0.219700	0.129200	0.716600
O1711	O171	0.056800	0.303000	0.890800
O1721	O172	0.029800	0.319000	0.811900
C5171	C517	0.478100	0.822300	0.320200
H2591	H259	0.491500	0.806300	0.346100
C5181	C518	0.485600	0.816500	0.266400
C5191	C519	0.464000	0.837900	0.228800
H2601	H260	0.465600	0.831500	0.192900
C5201	C520	0.440000	0.868800	0.244900
H2611	H261	0.432400	0.888600	0.220200
C5211	C521	0.431400	0.873300	0.297000
C5221	C522	0.450600	0.850700	0.336600
C5231	C523	0.443100	0.859400	0.389300
H2621	H262	0.456100	0.845500	0.417600
C5241	C524	0.417500	0.889400	0.403500
H2631	H263	0.407700	0.895700	0.438400
C5251	C525	0.398600	0.911100	0.363900
C5261	C526	0.405800	0.903700	0.311000
H2641	H264	0.391400	0.919700	0.286100
C5271	C527	0.512700	0.785000	0.246500
C5281	C528	0.368100	0.944500	0.373400
O1731	O173	0.520400	0.756900	0.273900
O1741	O174	0.522500	0.788100	0.198900
O1751	O175	0.346900	0.964100	0.345100
O1761	O176	0.370100	0.952400	0.423700
Cd341	Cd34	0.247860	0.603440	0.134960
Cd351	Cd35	0.319810	0.500610	0.914630
Cd361	Cd36	0.281990	0.553900	0.021170
C5291	C529	0.395400	0.587200	0.034900
H2651	H265	0.376900	0.572800	0.054600
C5301	C530	0.396800	0.581900	0.985500
C5311	C531	0.425300	0.606900	0.949100
H2661	H266	0.427400	0.603100	0.911300
C5321	C532	0.448300	0.635900	0.980800
H2671	H267	0.464000	0.653600	0.962100
C5331	C533	0.448300	0.638200	0.029300
C5341	C534	0.421700	0.615300	0.063800
C5351	C535	0.421200	0.621100	0.119000
H2681	H268	0.399900	0.609300	0.139600
C5361	C536	0.447500	0.645500	0.141800
H2691	H269	0.447200	0.648500	0.178600
C5371	C537	0.475300	0.666500	0.111800
C5381	C538	0.476600	0.663900	0.057800
H2701	H270	0.495400	0.678400	0.038700
C5391	C539	0.369100	0.556400	0.949900
C5401	C540	0.508900	0.693800	0.135000
O1771	O177	0.376300	0.551300	0.904800
O1781	O178	0.344000	0.538500	0.982900
O1791	O179	0.504100	0.693300	0.187600
O1801	O180	0.527800	0.716100	0.111000
C5411	C541	0.408200	0.424900	0.234500
H2711	H271	0.420200	0.408500	0.209900
C5421	C542	0.415300	0.420800	0.284400
C5431	C543	0.401500	0.450000	0.322400
H2721	H272	0.408000	0.447800	0.359500
C5441	C544	0.376800	0.477900	0.302200
H2731	H273	0.365300	0.495400	0.325800
C5451	C545	0.368000	0.481800	0.249700
C5461	C546	0.381500	0.455100	0.216900
C5471	C547	0.374900	0.456100	0.158800
H2741	H274	0.387500	0.438500	0.136400
C5481	C548	0.347600	0.486000	0.137500
H2751	H275	0.338700	0.486400	0.101100
C5491	C549	0.333800	0.514700	0.176700
C5501	C550	0.342500	0.511800	0.228800
H2761	H276	0.331700	0.529800	0.252100
C5511	C551	0.444100	0.389100	0.303700
C5521	C552	0.307800	0.547100	0.154000
O1811	O181	0.453800	0.393800	0.350000
O1821	O182	0.454700	0.366000	0.271400
O1831	O183	0.307300	0.548800	0.104200
O1841	O184	0.288200	0.565400	0.185700
C5531	C553	0.143600	0.704500	0.195800
H2771	H277	0.140800	0.710000	0.159800
C5541	C554	0.168600	0.678200	0.221500
C5551	C555	0.170600	0.674700	0.276100
H2781	H278	0.187800	0.655900	0.289600
C5561	C556	0.149400	0.696300	0.312600
H2791	H279	0.151500	0.691300	0.348900
C5571	C557	0.125500	0.724900	0.294700
C5581	C558	0.123500	0.720400	0.240400
C5591	C559	0.100200	0.748300	0.218300
H2801	H280	0.097400	0.752800	0.182000
C5601	C560	0.081000	0.769500	0.258700
H2811	H281	0.063700	0.788000	0.244500
C5611	C561	0.080600	0.770300	0.314600
C5621	C562	0.107500	0.744300	0.337300
H2821	H282	0.111800	0.741300	0.374900
C5631	C563	0.200600	0.651500	0.189300
C5641	C564	0.053200	0.800800	0.340300
O1851	O185	0.197600	0.651200	0.141100
O1861	O186	0.219700	0.629200	0.216600
O1871	O187	0.056800	0.803000	0.390800
O1881	O188	0.029800	0.819000	0.311900
C5651	C565	0.478100	0.322300	0.820200
H2831	H283	0.491500	0.306300	0.846100
C5661	C566	0.485600	0.316500	0.766400
C5671	C567	0.464000	0.337900	0.728800
H2841	H284	0.465600	0.331500	0.692900
C5681	C568	0.440000	0.368800	0.744900
H2851	H285	0.432400	0.388600	0.720200
C5691	C569	0.431400	0.373300	0.797000
C5701	C570	0.450600	0.350700	0.836600
C5711	C571	0.443100	0.359400	0.889300
H2861	H286	0.456100	0.345500	0.917600
C5721	C572	0.417500	0.389400	0.903500
H2871	H287	0.407700	0.395700	0.938400
C5731	C573	0.398600	0.411100	0.863900
C5741	C574	0.405800	0.403700	0.811000
H2881	H288	0.391400	0.419700	0.786100
C5751	C575	0.512700	0.285000	0.746500
C5761	C576	0.368100	0.444500	0.873400
O1891	O189	0.520400	0.256900	0.773900
O1901	O190	0.522500	0.288100	0.698900
O1911	O191	0.346900	0.464100	0.845100
O1921	O192	0.370100	0.452400	0.923700
Cd371	Cd37	0.752140	0.396560	0.134960
Cd381	Cd38	0.680190	0.499390	0.914630
Cd391	Cd39	0.718010	0.446100	0.021170
C5771	C577	0.604600	0.412800	0.034900
H2891	H289	0.623100	0.427200	0.054600
C5781	C578	0.603200	0.418100	0.985500
C5791	C579	0.574700	0.393100	0.949100
H2901	H290	0.572600	0.396900	0.911300
C5801	C580	0.551700	0.364100	0.980800
H2911	H291	0.536000	0.346400	0.962100
C5811	C581	0.551700	0.361800	0.029300
C5821	C582	0.578300	0.384700	0.063800
C5831	C583	0.578800	0.378900	0.119000
H2921	H292	0.600100	0.390700	0.139600
C5841	C584	0.552500	0.354500	0.141800
H2931	H293	0.552800	0.351500	0.178600
C5851	C585	0.524700	0.333500	0.111800
C5861	C586	0.523400	0.336100	0.057800
H2941	H294	0.504600	0.321600	0.038700
C5871	C587	0.630900	0.443600	0.949900
C5881	C588	0.491100	0.306200	0.135000
O1931	O193	0.623700	0.448700	0.904800
O1941	O194	0.656000	0.461500	0.982900
O1951	O195	0.495900	0.306700	0.187600
O1961	O196	0.472200	0.283900	0.111000
C5891	C589	0.591800	0.575100	0.234500
H2951	H295	0.579800	0.591500	0.209900
C5901	C590	0.584700	0.579200	0.284400
C5911	C591	0.598500	0.550000	0.322400
H2961	H296	0.592000	0.552200	0.359500
C5921	C592	0.623200	0.522100	0.302200
H2971	H297	0.634700	0.504600	0.325800
C5931	C593	0.632000	0.518200	0.249700
C5941	C594	0.618500	0.544900	0.216900
C5951	C595	0.625100	0.543900	0.158800
H2981	H298	0.612500	0.561500	0.136400
C5961	C596	0.652400	0.514000	0.137500
H2991	H299	0.661300	0.513600	0.101100
C5971	C597	0.666200	0.485300	0.176700
C5981	C598	0.657500	0.488200	0.228800
H3001	H300	0.668300	0.470200	0.252100
C5991	C599	0.555900	0.610900	0.303700
C6001	C600	0.692200	0.452900	0.154000
O1971	O197	0.546200	0.606200	0.350000
O1981	O198	0.545300	0.634000	0.271400
O1991	O199	0.692700	0.451200	0.104200
O2001	O200	0.711800	0.434600	0.185700
C6011	C601	0.856400	0.295500	0.195800
H3011	H301	0.859200	0.290000	0.159800
C6021	C602	0.831400	0.321800	0.221500
C6031	C603	0.829400	0.325300	0.276100
H3021	H302	0.812200	0.344100	0.289600
C6041	C604	0.850600	0.303700	0.312600
H3031	H303	0.848500	0.308700	0.348900
C6051	C605	0.874500	0.275100	0.294700
C6061	C606	0.876500	0.279600	0.240400
C6071	C607	0.899800	0.251700	0.218300
H3041	H304	0.902600	0.247200	0.182000
C6081	C608	0.919000	0.230500	0.258700
H3051	H305	0.936300	0.212000	0.244500
C6091	C609	0.919400	0.229700	0.314600
C6101	C610	0.892500	0.255700	0.337300
H3061	H306	0.888200	0.258700	0.374900
C6111	C611	0.799400	0.348500	0.189300
C6121	C612	0.946800	0.199200	0.340300
O2011	O201	0.802400	0.348800	0.141100
O2021	O202	0.780300	0.370800	0.216600
O2031	O203	0.943200	0.197000	0.390800
O2041	O204	0.970200	0.181000	0.311900
C6131	C613	0.521900	0.677700	0.820200
H3071	H307	0.508500	0.693700	0.846100
C6141	C614	0.514400	0.683500	0.766400
C6151	C615	0.536000	0.662100	0.728800
H3081	H308	0.534400	0.668500	0.692900
C6161	C616	0.560000	0.631200	0.744900
H3091	H309	0.567600	0.611400	0.720200
C6171	C617	0.568600	0.626700	0.797000
C6181	C618	0.549400	0.649300	0.836600
C6191	C619	0.556900	0.640600	0.889300
H3101	H310	0.543900	0.654500	0.917600
C6201	C620	0.582500	0.610600	0.903500
H3111	H311	0.592300	0.604300	0.938400
C6211	C621	0.601400	0.588900	0.863900
C6221	C622	0.594200	0.596300	0.811000
H3121	H312	0.608600	0.580300	0.786100
C6231	C623	0.487300	0.715000	0.746500
C6241	C624	0.631900	0.555500	0.873400
O2051	O205	0.479600	0.743100	0.773900
O2061	O206	0.477500	0.711900	0.698900
O2071	O207	0.653100	0.535900	0.845100
O2081	O208	0.629900	0.547600	0.923700
Cd401	Cd40	0.752140	0.896560	0.634960
Cd411	Cd41	0.680190	0.999390	0.414630
Cd421	Cd42	0.718010	0.946100	0.521170
C6251	C625	0.604600	0.912800	0.534900
H3131	H313	0.623100	0.927200	0.554600
C6261	C626	0.603200	0.918100	0.485500
C6271	C627	0.574700	0.893100	0.449100
H3141	H314	0.572600	0.896900	0.411300
C6281	C628	0.551700	0.864100	0.480800
H3151	H315	0.536000	0.846400	0.462100
C6291	C629	0.551700	0.861800	0.529300
C6301	C630	0.578300	0.884700	0.563800
C6311	C631	0.578800	0.878900	0.619000
H3161	H316	0.600100	0.890700	0.639600
C6321	C632	0.552500	0.854500	0.641800
H3171	H317	0.552800	0.851500	0.678600
C6331	C633	0.524700	0.833500	0.611800
C6341	C634	0.523400	0.836100	0.557800
H3181	H318	0.504600	0.821600	0.538700
C6351	C635	0.630900	0.943600	0.449900
C6361	C636	0.491100	0.806200	0.635000
O2091	O209	0.623700	0.948700	0.404800
O2101	O210	0.656000	0.961500	0.482900
O2111	O211	0.495900	0.806700	0.687600
O2121	O212	0.472200	0.783900	0.611000
C6371	C637	0.591800	0.075100	0.734500
H3191	H319	0.579800	0.091500	0.709900
C6381	C638	0.584700	0.079200	0.784400
C6391	C639	0.598500	0.050000	0.822400
H3201	H320	0.592000	0.052200	0.859500
C6401	C640	0.623200	0.022100	0.802200
H3211	H321	0.634700	0.004600	0.825800
C6411	C641	0.632000	0.018200	0.749700
C6421	C642	0.618500	0.044900	0.716900
C6431	C643	0.625100	0.043900	0.658800
H3221	H322	0.612500	0.061500	0.636400
C6441	C644	0.652400	0.014000	0.637500
H3231	H323	0.661300	0.013600	0.601100
C6451	C645	0.666200	0.985300	0.676700
C6461	C646	0.657500	0.988200	0.728800
H3241	H324	0.668300	0.970200	0.752100
C6471	C647	0.555900	0.110900	0.803700
C6481	C648	0.692200	0.952900	0.654000
O2131	O213	0.546200	0.106200	0.850000
O2141	O214	0.545300	0.134000	0.771400
O2151	O215	0.692700	0.951200	0.604200
O2161	O216	0.711800	0.934600	0.685700
C6491	C649	0.856400	0.795500	0.695800
H3251	H325	0.859200	0.790000	0.659800
C6501	C650	0.831400	0.821800	0.721500
C6511	C651	0.829400	0.825300	0.776100
H3261	H326	0.812200	0.844100	0.789600
C6521	C652	0.850600	0.803700	0.812600
H3271	H327	0.848500	0.808700	0.848900
C6531	C653	0.874500	0.775100	0.794700
C6541	C654	0.876500	0.779600	0.740400
C6551	C655	0.899800	0.751700	0.718300
H3281	H328	0.902600	0.747200	0.682000
C6561	C656	0.919000	0.730500	0.758700
H3291	H329	0.936300	0.712000	0.744500
C6571	C657	0.919400	0.729700	0.814600
C6581	C658	0.892500	0.755700	0.837300
H3301	H330	0.888200	0.758700	0.874900
C6591	C659	0.799400	0.848500	0.689300
C6601	C660	0.946800	0.699200	0.840300
O2171	O217	0.802400	0.848800	0.641100
O2181	O218	0.780300	0.870800	0.716600
O2191	O219	0.943200	0.697000	0.890800
O2201	O220	0.970200	0.681000	0.811900
C6611	C661	0.521900	0.177700	0.320200
H3311	H331	0.508500	0.193700	0.346100
C6621	C662	0.514400	0.183500	0.266400
C6631	C663	0.536000	0.162100	0.228800
H3321	H332	0.534400	0.168500	0.192900
C6641	C664	0.560000	0.131200	0.244900
H3331	H333	0.567600	0.111400	0.220200
C6651	C665	0.568600	0.126700	0.297000
C6661	C666	0.549400	0.149300	0.336600
C6671	C667	0.556900	0.140600	0.389300
H3341	H334	0.543900	0.154500	0.417600
C6681	C668	0.582500	0.110600	0.403500
H3351	H335	0.592300	0.104300	0.438400
C6691	C669	0.601400	0.088900	0.363900
C6701	C670	0.594200	0.096300	0.311000
H3361	H336	0.608600	0.080300	0.286100
C6711	C671	0.487300	0.215000	0.246500
C6721	C672	0.631900	0.055500	0.373400
O2211	O221	0.479600	0.243100	0.273900
O2221	O222	0.477500	0.211900	0.198900
O2231	O223	0.653100	0.035900	0.345100
O2241	O224	0.629900	0.047600	0.423700
Cd431	Cd43	0.252140	0.396560	0.634960
Cd441	Cd44	0.180190	0.499390	0.414630
Cd451	Cd45	0.218010	0.446100	0.521170
C6731	C673	0.104600	0.412800	0.534900
H3371	H337	0.123100	0.427200	0.554600
C6741	C674	0.103200	0.418100	0.485500
C6751	C675	0.074700	0.393100	0.449100
H3381	H338	0.072600	0.396900	0.411300
C6761	C676	0.051700	0.364100	0.480800
H3391	H339	0.036000	0.346400	0.462100
C6771	C677	0.051700	0.361800	0.529300
C6781	C678	0.078300	0.384700	0.563800
C6791	C679	0.078800	0.378900	0.619000
H3401	H340	0.100100	0.390700	0.639600
C6801	C680	0.052500	0.354500	0.641800
H3411	H341	0.052800	0.351500	0.678600
C6811	C681	0.024700	0.333500	0.611800
C6821	C682	0.023400	0.336100	0.557800
H3421	H342	0.004600	0.321600	0.538700
C6831	C683	0.130900	0.443600	0.449900
C6841	C684	0.991100	0.306200	0.635000
O2251	O225	0.123700	0.448700	0.404800
O2261	O226	0.156000	0.461500	0.482900
O2271	O227	0.995900	0.306700	0.687600
O2281	O228	0.972200	0.283900	0.611000
C6851	C685	0.091800	0.575100	0.734500
H3431	H343	0.079800	0.591500	0.709900
C6861	C686	0.084700	0.579200	0.784400
C6871	C687	0.098500	0.550000	0.822400
H3441	H344	0.092000	0.552200	0.859500
C6881	C688	0.123200	0.522100	0.802200
H3451	H345	0.134700	0.504600	0.825800
C6891	C689	0.132000	0.518200	0.749700
C6901	C690	0.118500	0.544900	0.716900
C6911	C691	0.125100	0.543900	0.658800
H3461	H346	0.112500	0.561500	0.636400
C6921	C692	0.152400	0.514000	0.637500
H3471	H347	0.161300	0.513600	0.601100
C6931	C693	0.166200	0.485300	0.676700
C6941	C694	0.157500	0.488200	0.728800
H3481	H348	0.168300	0.470200	0.752100
C6951	C695	0.055900	0.610900	0.803700
C6961	C696	0.192200	0.452900	0.654000
O2291	O229	0.046200	0.606200	0.850000
O2301	O230	0.045300	0.634000	0.771400
O2311	O231	0.192700	0.451200	0.604200
O2321	O232	0.211800	0.434600	0.685700
C6971	C697	0.356400	0.295500	0.695800
H3491	H349	0.359200	0.290000	0.659800
C6981	C698	0.331400	0.321800	0.721500
C6991	C699	0.329400	0.325300	0.776100
H3501	H350	0.312200	0.344100	0.789600
C7001	C700	0.350600	0.303700	0.812600
H3511	H351	0.348500	0.308700	0.848900
C7011	C701	0.374500	0.275100	0.794700
C7021	C702	0.376500	0.279600	0.740400
C7031	C703	0.399800	0.251700	0.718300
H3521	H352	0.402600	0.247200	0.682000
C7041	C704	0.419000	0.230500	0.758700
H3531	H353	0.436300	0.212000	0.744500
C7051	C705	0.419400	0.229700	0.814600
C7061	C706	0.392500	0.255700	0.837300
H3541	H354	0.388200	0.258700	0.874900
C7071	C707	0.299400	0.348500	0.689300
C7081	C708	0.446800	0.199200	0.840300
O2331	O233	0.302400	0.348800	0.641100
O2341	O234	0.280300	0.370800	0.716600
O2351	O235	0.443200	0.197000	0.890800
O2361	O236	0.470200	0.181000	0.811900
C7091	C709	0.021900	0.677700	0.320200
H3551	H355	0.008500	0.693700	0.346100
C7101	C710	0.014400	0.683500	0.266400
C7111	C711	0.036000	0.662100	0.228800
H3561	H356	0.034400	0.668500	0.192900
C7121	C712	0.060000	0.631200	0.244900
H3571	H357	0.067600	0.611400	0.220200
C7131	C713	0.068600	0.626700	0.297000
C7141	C714	0.049400	0.649300	0.336600
C7151	C715	0.056900	0.640600	0.389300
H3581	H358	0.043900	0.654500	0.417600
C7161	C716	0.082500	0.610600	0.403500
H3591	H359	0.092300	0.604300	0.438400
C7171	C717	0.101400	0.588900	0.363900
C7181	C718	0.094200	0.596300	0.311000
H3601	H360	0.108600	0.580300	0.286100
C7191	C719	0.987300	0.715000	0.246500
C7201	C720	0.131900	0.555500	0.373400
O2371	O237	0.979600	0.743100	0.273900
O2381	O238	0.977500	0.711900	0.198900
O2391	O239	0.153100	0.535900	0.345100
O2401	O240	0.129900	0.547600	0.423700
Cd461	Cd46	0.252140	0.896560	0.134960
Cd471	Cd47	0.180190	0.999390	0.914630
Cd481	Cd48	0.218010	0.946100	0.021170
C7211	C721	0.104600	0.912800	0.034900
H3611	H361	0.123100	0.927200	0.054600
C7221	C722	0.103200	0.918100	0.985500
C7231	C723	0.074700	0.893100	0.949100
H3621	H362	0.072600	0.896900	0.911300
C7241	C724	0.051700	0.864100	0.980800
H3631	H363	0.036000	0.846400	0.962100
C7251	C725	0.051700	0.861800	0.029300
C7261	C726	0.078300	0.884700	0.063800
C7271	C727	0.078800	0.878900	0.119000
H3641	H364	0.100100	0.890700	0.139600
C7281	C728	0.052500	0.854500	0.141800
H3651	H365	0.052800	0.851500	0.178600
C7291	C729	0.024700	0.833500	0.111800
C7301	C730	0.023400	0.836100	0.057800
H3661	H366	0.004600	0.821600	0.038700
C7311	C731	0.130900	0.943600	0.949900
C7321	C732	0.991100	0.806200	0.135000
O2411	O241	0.123700	0.948700	0.904800
O2421	O242	0.156000	0.961500	0.982900
O2431	O243	0.995900	0.806700	0.187600
O2441	O244	0.972200	0.783900	0.111000
C7331	C733	0.091800	0.075100	0.234500
H3671	H367	0.079800	0.091500	0.209900
C7341	C734	0.084700	0.079200	0.284400
C7351	C735	0.098500	0.050000	0.322400
H3681	H368	0.092000	0.052200	0.359500
C7361	C736	0.123200	0.022100	0.302200
H3691	H369	0.134700	0.004600	0.325800
C7371	C737	0.132000	0.018200	0.249700
C7381	C738	0.118500	0.044900	0.216900
C7391	C739	0.125100	0.043900	0.158800
H3701	H370	0.112500	0.061500	0.136400
C7401	C740	0.152400	0.014000	0.137500
H3711	H371	0.161300	0.013600	0.101100
C7411	C741	0.166200	0.985300	0.176700
C7421	C742	0.157500	0.988200	0.228800
H3721	H372	0.168300	0.970200	0.252100
C7431	C743	0.055900	0.110900	0.303700
C7441	C744	0.192200	0.952900	0.154000
O2451	O245	0.046200	0.106200	0.350000
O2461	O246	0.045300	0.134000	0.271400
O2471	O247	0.192700	0.951200	0.104200
O2481	O248	0.211800	0.934600	0.185700
C7451	C745	0.356400	0.795500	0.195800
H3731	H373	0.359200	0.790000	0.159800
C7461	C746	0.331400	0.821800	0.221500
C7471	C747	0.329400	0.825300	0.276100
H3741	H374	0.312200	0.844100	0.289600
C7481	C748	0.350600	0.803700	0.312600
H3751	H375	0.348500	0.808700	0.348900
C7491	C749	0.374500	0.775100	0.294700
C7501	C750	0.376500	0.779600	0.240400
C7511	C751	0.399800	0.751700	0.218300
H3761	H376	0.402600	0.747200	0.182000
C7521	C752	0.419000	0.730500	0.258700
H3771	H377	0.436300	0.712000	0.244500
C7531	C753	0.419400	0.729700	0.314600
C7541	C754	0.392500	0.755700	0.337300
H3781	H378	0.388200	0.758700	0.374900
C7551	C755	0.299400	0.848500	0.189300
C7561	C756	0.446800	0.699200	0.340300
O2491	O249	0.302400	0.848800	0.141100
O2501	O250	0.280300	0.870800	0.216600
O2511	O251	0.443200	0.697000	0.390800
O2521	O252	0.470200	0.681000	0.311900
C7571	C757	0.021900	0.177700	0.820200
H3791	H379	0.008500	0.193700	0.846100
C7581	C758	0.014400	0.183500	0.766400
C7591	C759	0.036000	0.162100	0.728800
H3801	H380	0.034400	0.168500	0.692900
C7601	C760	0.060000	0.131200	0.744900
H3811	H381	0.067600	0.111400	0.720200
C7611	C761	0.068600	0.126700	0.797000
C7621	C762	0.049400	0.149300	0.836600
C7631	C763	0.056900	0.140600	0.889300
H3821	H382	0.043900	0.154500	0.917600
C7641	C764	0.082500	0.110600	0.903500
H3831	H383	0.092300	0.104300	0.938400
C7651	C765	0.101400	0.088900	0.863900
C7661	C766	0.094200	0.096300	0.811000
H3841	H384	0.108600	0.080300	0.786100
C7671	C767	0.987300	0.215000	0.746500
C7681	C768	0.131900	0.055500	0.873400
O2531	O253	0.979600	0.243100	0.773900
O2541	O254	0.977500	0.211900	0.698900
O2551	O255	0.153100	0.035900	0.845100
O2561	O256	0.129900	0.047600	0.923700
