data_WIPZEC_clean_PM
_symmetry_space_group_name_H-M	'P1'
_cell_length_a	29.114800
_cell_length_b	16.012000
_cell_length_c	16.709700
_cell_angle_alpha	90.000000
_cell_angle_beta	90.000000
_cell_angle_gamma	90.000000
_symmetry_Int_Tables_number 1

loop_
_symmetry_equiv_pos_as_xyz
'x,y,z'

loop_
_atom_site_label
_atom_site_type_symbol
_atom_site_fract_x
_atom_site_fract_y
_atom_site_fract_z
Cd11	Cd1	0.455740	0.795450	0.161730
C11	C1	0.634300	0.782600	0.142800
H11	H1	0.629800	0.793000	0.197600
N11	N1	0.456720	0.648500	0.166900
O11	O1	0.540760	0.795600	0.196000
C21	C2	0.549010	0.789600	0.122600
N21	N2	0.455060	0.940000	0.167000
O21	O2	0.875640	0.708600	0.835800
O31	O3	0.517240	0.792500	0.072200
C31	C3	0.453800	0.475100	0.170000
C41	C4	0.452600	0.113800	0.171000
O41	O4	0.904650	0.712100	0.953400
C51	C5	0.871500	0.713000	0.909100
C61	C6	0.686900	0.757300	0.036200
C71	C7	0.438700	0.607800	0.228700
H21	H2	0.427400	0.639500	0.271700
C81	C8	0.452000	0.384100	0.172000
C91	C9	0.452100	0.207700	0.172100
C101	C10	0.439900	0.981900	0.231100
H31	H3	0.430000	0.951400	0.275900
C111	C11	0.415000	0.338400	0.203500
C121	C12	0.734700	0.745300	0.003900
C131	C13	0.823600	0.724500	0.943400
C141	C14	0.414700	0.251300	0.202400
C151	C15	0.470200	0.986300	0.106300
H41	H4	0.483000	0.958800	0.061900
C161	C16	0.597480	0.778100	0.093800
C171	C17	0.435500	0.522200	0.233600
H51	H5	0.421700	0.496200	0.277900
C181	C18	0.472900	0.517800	0.106900
H61	H6	0.485400	0.488900	0.063000
C191	C19	0.473200	0.605600	0.109100
H71	H7	0.486400	0.634400	0.065700
C201	C20	0.438300	0.066200	0.234000
H81	H8	0.427100	0.092600	0.280300
C211	C21	0.468300	0.071200	0.105100
H91	H9	0.477800	0.100600	0.059300
C221	C22	0.786700	0.730600	0.892900
H101	H10	0.791300	0.728000	0.837300
C231	C23	0.489600	0.251600	0.140900
H111	H11	0.514900	0.222500	0.119800
C241	C24	0.678800	0.772200	0.114400
H121	H12	0.703700	0.775700	0.150200
C251	C25	0.489400	0.337300	0.141300
H131	H13	0.514900	0.366000	0.120500
C261	C26	0.815600	0.727800	0.022400
H141	H14	0.840400	0.721900	0.057900
C271	C27	0.649600	0.749900	0.986400
H151	H15	0.654300	0.737500	0.932100
C281	C28	0.742800	0.740600	0.923000
H161	H16	0.718000	0.744300	0.887200
C291	C29	0.605000	0.760200	0.014600
H171	H17	0.580100	0.754900	0.979300
C301	C30	0.771500	0.739600	0.053600
H181	H18	0.767300	0.743600	0.109300
O51	O5	0.336600	0.251600	0.258700
C311	C31	0.369800	0.212600	0.229600
H191	H19	0.366700	0.154500	0.224100
C321	C32	0.369100	0.369500	0.230600
H201	H20	0.365000	0.427200	0.223000
O61	O6	0.336000	0.335600	0.260000
Cd21	Cd2	0.044260	0.704550	0.661730
C331	C33	0.865700	0.717400	0.642800
H211	H21	0.870200	0.707000	0.697600
N31	N3	0.043280	0.851500	0.666900
O71	O7	0.959240	0.704400	0.696000
C341	C34	0.950990	0.710400	0.622600
N41	N4	0.044940	0.560000	0.667000
O81	O8	0.624360	0.791400	0.335800
O91	O9	0.982760	0.707500	0.572200
C351	C35	0.046200	0.024900	0.670000
C361	C36	0.047400	0.386200	0.671000
O101	O10	0.595350	0.787900	0.453400
C371	C37	0.628500	0.787000	0.409100
C381	C38	0.813100	0.742700	0.536200
C391	C39	0.061300	0.892200	0.728700
H221	H22	0.072600	0.860500	0.771700
C401	C40	0.048000	0.115900	0.672000
C411	C41	0.047900	0.292300	0.672100
C421	C42	0.060100	0.518100	0.731100
H231	H23	0.070000	0.548600	0.775900
C431	C43	0.085000	0.161600	0.703500
C441	C44	0.765300	0.754700	0.503900
C451	C45	0.676400	0.775500	0.443400
C461	C46	0.085300	0.248700	0.702400
C471	C47	0.029800	0.513700	0.606300
H241	H24	0.017000	0.541200	0.561900
C481	C48	0.902520	0.721900	0.593800
C491	C49	0.064500	0.977800	0.733600
H251	H25	0.078300	0.003800	0.777900
C501	C50	0.027100	0.982200	0.606900
H261	H26	0.014600	0.011100	0.563000
C511	C51	0.026800	0.894400	0.609100
H271	H27	0.013600	0.865600	0.565700
C521	C52	0.061700	0.433800	0.734000
H281	H28	0.072900	0.407400	0.780300
C531	C53	0.031700	0.428800	0.605100
H291	H29	0.022200	0.399400	0.559300
C541	C54	0.713300	0.769400	0.392900
H301	H30	0.708700	0.772000	0.337300
C551	C55	0.010400	0.248400	0.640900
H311	H31	0.985100	0.277500	0.619800
C561	C56	0.821200	0.727800	0.614400
H321	H32	0.796300	0.724300	0.650200
C571	C57	0.010600	0.162700	0.641300
H331	H33	0.985100	0.134000	0.620500
C581	C58	0.684400	0.772200	0.522400
H341	H34	0.659600	0.778100	0.557900
C591	C59	0.850400	0.750100	0.486400
H351	H35	0.845700	0.762500	0.432100
C601	C60	0.757200	0.759400	0.423000
H361	H36	0.782000	0.755700	0.387200
C611	C61	0.895000	0.739800	0.514600
H371	H37	0.919900	0.745100	0.479300
C621	C62	0.728500	0.760400	0.553600
H381	H38	0.732700	0.756400	0.609300
O111	O11	0.163400	0.248400	0.758700
C631	C63	0.130200	0.287400	0.729600
H391	H39	0.133300	0.345500	0.724100
C641	C64	0.130900	0.130500	0.730600
H401	H40	0.135000	0.072800	0.723000
O121	O12	0.164000	0.164400	0.760000
Cd31	Cd3	0.544260	0.795450	0.338270
C651	C65	0.365700	0.782600	0.357200
H411	H41	0.370200	0.793000	0.302400
N51	N5	0.543280	0.648500	0.333100
O131	O13	0.459240	0.795600	0.304000
C661	C66	0.450990	0.789600	0.377400
N61	N6	0.544940	0.940000	0.333000
O141	O14	0.124360	0.708600	0.664200
O151	O15	0.482760	0.792500	0.427800
C671	C67	0.546200	0.475100	0.330000
C681	C68	0.547400	0.113800	0.329000
O161	O16	0.095350	0.712100	0.546600
C691	C69	0.128500	0.713000	0.590900
C701	C70	0.313100	0.757300	0.463800
C711	C71	0.561300	0.607800	0.271300
H421	H42	0.572600	0.639500	0.228300
C721	C72	0.548000	0.384100	0.328000
C731	C73	0.547900	0.207700	0.327900
C741	C74	0.560100	0.981900	0.268900
H431	H43	0.570000	0.951400	0.224100
C751	C75	0.585000	0.338400	0.296500
C761	C76	0.265300	0.745300	0.496100
C771	C77	0.176400	0.724500	0.556600
C781	C78	0.585300	0.251300	0.297600
C791	C79	0.529800	0.986300	0.393700
H441	H44	0.517000	0.958800	0.438100
C801	C80	0.402520	0.778100	0.406200
C811	C81	0.564500	0.522200	0.266400
H451	H45	0.578300	0.496200	0.222100
C821	C82	0.527100	0.517800	0.393100
H461	H46	0.514600	0.488900	0.437000
C831	C83	0.526800	0.605600	0.390900
H471	H47	0.513600	0.634400	0.434300
C841	C84	0.561700	0.066200	0.266000
H481	H48	0.572900	0.092600	0.219700
C851	C85	0.531700	0.071200	0.394900
H491	H49	0.522200	0.100600	0.440700
C861	C86	0.213300	0.730600	0.607100
H501	H50	0.208700	0.728000	0.662700
C871	C87	0.510400	0.251600	0.359100
H511	H51	0.485100	0.222500	0.380200
C881	C88	0.321200	0.772200	0.385600
H521	H52	0.296300	0.775700	0.349800
C891	C89	0.510600	0.337300	0.358700
H531	H53	0.485100	0.366000	0.379500
C901	C90	0.184400	0.727800	0.477600
H541	H54	0.159600	0.721900	0.442100
C911	C91	0.350400	0.749900	0.513600
H551	H55	0.345700	0.737500	0.567900
C921	C92	0.257200	0.740600	0.577000
H561	H56	0.282000	0.744300	0.612800
C931	C93	0.395000	0.760200	0.485400
H571	H57	0.419900	0.754900	0.520700
C941	C94	0.228500	0.739600	0.446400
H581	H58	0.232700	0.743600	0.390700
O171	O17	0.663400	0.251600	0.241300
C951	C95	0.630200	0.212600	0.270400
H591	H59	0.633300	0.154500	0.275900
C961	C96	0.630900	0.369500	0.269400
H601	H60	0.635000	0.427200	0.277000
O181	O18	0.664000	0.335600	0.240000
Cd41	Cd4	0.955740	0.704550	0.838270
C971	C97	0.134300	0.717400	0.857200
H611	H61	0.129800	0.707000	0.802400
N71	N7	0.956720	0.851500	0.833100
O191	O19	0.040760	0.704400	0.804000
C981	C98	0.049010	0.710400	0.877400
N81	N8	0.955060	0.560000	0.833000
O201	O20	0.375640	0.791400	0.164200
O211	O21	0.017240	0.707500	0.927800
C991	C99	0.953800	0.024900	0.830000
C1001	C100	0.952600	0.386200	0.829000
O221	O22	0.404650	0.787900	0.046600
C1011	C101	0.371500	0.787000	0.090900
C1021	C102	0.186900	0.742700	0.963800
C1031	C103	0.938700	0.892200	0.771300
H621	H62	0.927400	0.860500	0.728300
C1041	C104	0.952000	0.115900	0.828000
C1051	C105	0.952100	0.292300	0.827900
C1061	C106	0.939900	0.518100	0.768900
H631	H63	0.930000	0.548600	0.724100
C1071	C107	0.915000	0.161600	0.796500
C1081	C108	0.234700	0.754700	0.996100
C1091	C109	0.323600	0.775500	0.056600
C1101	C110	0.914700	0.248700	0.797600
C1111	C111	0.970200	0.513700	0.893700
H641	H64	0.983000	0.541200	0.938100
C1121	C112	0.097480	0.721900	0.906200
C1131	C113	0.935500	0.977800	0.766400
H651	H65	0.921700	0.003800	0.722100
C1141	C114	0.972900	0.982200	0.893100
H661	H66	0.985400	0.011100	0.937000
C1151	C115	0.973200	0.894400	0.890900
H671	H67	0.986400	0.865600	0.934300
C1161	C116	0.938300	0.433800	0.766000
H681	H68	0.927100	0.407400	0.719700
C1171	C117	0.968300	0.428800	0.894900
H691	H69	0.977800	0.399400	0.940700
C1181	C118	0.286700	0.769400	0.107100
H701	H70	0.291300	0.772000	0.162700
C1191	C119	0.989600	0.248400	0.859100
H711	H71	0.014900	0.277500	0.880200
C1201	C120	0.178800	0.727800	0.885600
H721	H72	0.203700	0.724300	0.849800
C1211	C121	0.989400	0.162700	0.858700
H731	H73	0.014900	0.134000	0.879500
C1221	C122	0.315600	0.772200	0.977600
H741	H74	0.340400	0.778100	0.942100
C1231	C123	0.149600	0.750100	0.013600
H751	H75	0.154300	0.762500	0.067900
C1241	C124	0.242800	0.759400	0.077000
H761	H76	0.218000	0.755700	0.112800
C1251	C125	0.105000	0.739800	0.985400
H771	H77	0.080100	0.745100	0.020700
C1261	C126	0.271500	0.760400	0.946400
H781	H78	0.267300	0.756400	0.890700
O231	O23	0.836600	0.248400	0.741300
C1271	C127	0.869800	0.287400	0.770400
H791	H79	0.866700	0.345500	0.775900
C1281	C128	0.869100	0.130500	0.769400
H801	H80	0.865000	0.072800	0.777000
O241	O24	0.836000	0.164400	0.740000
Cd51	Cd5	0.544260	0.204550	0.838270
C1291	C129	0.365700	0.217400	0.857200
H811	H81	0.370200	0.207000	0.802400
N91	N9	0.543280	0.351500	0.833100
O251	O25	0.459240	0.204400	0.804000
C1301	C130	0.450990	0.210400	0.877400
N101	N10	0.544940	0.060000	0.833000
O261	O26	0.124360	0.291400	0.164200
O271	O27	0.482760	0.207500	0.927800
C1311	C131	0.546200	0.524900	0.830000
C1321	C132	0.547400	0.886200	0.829000
O281	O28	0.095350	0.287900	0.046600
C1331	C133	0.128500	0.287000	0.090900
C1341	C134	0.313100	0.242700	0.963800
C1351	C135	0.561300	0.392200	0.771300
H821	H82	0.572600	0.360500	0.728300
C1361	C136	0.548000	0.615900	0.828000
C1371	C137	0.547900	0.792300	0.827900
C1381	C138	0.560100	0.018100	0.768900
H831	H83	0.570000	0.048600	0.724100
C1391	C139	0.585000	0.661600	0.796500
C1401	C140	0.265300	0.254700	0.996100
C1411	C141	0.176400	0.275500	0.056600
C1421	C142	0.585300	0.748700	0.797600
C1431	C143	0.529800	0.013700	0.893700
H841	H84	0.517000	0.041200	0.938100
C1441	C144	0.402520	0.221900	0.906200
C1451	C145	0.564500	0.477800	0.766400
H851	H85	0.578300	0.503800	0.722100
C1461	C146	0.527100	0.482200	0.893100
H861	H86	0.514600	0.511100	0.937000
C1471	C147	0.526800	0.394400	0.890900
H871	H87	0.513600	0.365600	0.934300
C1481	C148	0.561700	0.933800	0.766000
H881	H88	0.572900	0.907400	0.719700
C1491	C149	0.531700	0.928800	0.894900
H891	H89	0.522200	0.899400	0.940700
C1501	C150	0.213300	0.269400	0.107100
H901	H90	0.208700	0.272000	0.162700
C1511	C151	0.510400	0.748400	0.859100
H911	H91	0.485100	0.777500	0.880200
C1521	C152	0.321200	0.227800	0.885600
H921	H92	0.296300	0.224300	0.849800
C1531	C153	0.510600	0.662700	0.858700
H931	H93	0.485100	0.634000	0.879500
C1541	C154	0.184400	0.272200	0.977600
H941	H94	0.159600	0.278100	0.942100
C1551	C155	0.350400	0.250100	0.013600
H951	H95	0.345700	0.262500	0.067900
C1561	C156	0.257200	0.259400	0.077000
H961	H96	0.282000	0.255700	0.112800
C1571	C157	0.395000	0.239800	0.985400
H971	H97	0.419900	0.245100	0.020700
C1581	C158	0.228500	0.260400	0.946400
H981	H98	0.232700	0.256400	0.890700
O291	O29	0.663400	0.748400	0.741300
C1591	C159	0.630200	0.787400	0.770400
H991	H99	0.633300	0.845500	0.775900
C1601	C160	0.630900	0.630500	0.769400
H1001	H100	0.635000	0.572800	0.777000
O301	O30	0.664000	0.664400	0.740000
Cd61	Cd6	0.955740	0.295450	0.338270
C1611	C161	0.134300	0.282600	0.357200
H1011	H101	0.129800	0.293000	0.302400
N111	N11	0.956720	0.148500	0.333100
O311	O31	0.040760	0.295600	0.304000
C1621	C162	0.049010	0.289600	0.377400
N121	N12	0.955060	0.440000	0.333000
O321	O32	0.375640	0.208600	0.664200
O331	O33	0.017240	0.292500	0.427800
C1631	C163	0.953800	0.975100	0.330000
C1641	C164	0.952600	0.613800	0.329000
O341	O34	0.404650	0.212100	0.546600
C1651	C165	0.371500	0.213000	0.590900
C1661	C166	0.186900	0.257300	0.463800
C1671	C167	0.938700	0.107800	0.271300
H1021	H102	0.927400	0.139500	0.228300
C1681	C168	0.952000	0.884100	0.328000
C1691	C169	0.952100	0.707700	0.327900
C1701	C170	0.939900	0.481900	0.268900
H1031	H103	0.930000	0.451400	0.224100
C1711	C171	0.915000	0.838400	0.296500
C1721	C172	0.234700	0.245300	0.496100
C1731	C173	0.323600	0.224500	0.556600
C1741	C174	0.914700	0.751300	0.297600
C1751	C175	0.970200	0.486300	0.393700
H1041	H104	0.983000	0.458800	0.438100
C1761	C176	0.097480	0.278100	0.406200
C1771	C177	0.935500	0.022200	0.266400
H1051	H105	0.921700	0.996200	0.222100
C1781	C178	0.972900	0.017800	0.393100
H1061	H106	0.985400	0.988900	0.437000
C1791	C179	0.973200	0.105600	0.390900
H1071	H107	0.986400	0.134400	0.434300
C1801	C180	0.938300	0.566200	0.266000
H1081	H108	0.927100	0.592600	0.219700
C1811	C181	0.968300	0.571200	0.394900
H1091	H109	0.977800	0.600600	0.440700
C1821	C182	0.286700	0.230600	0.607100
H1101	H110	0.291300	0.228000	0.662700
C1831	C183	0.989600	0.751600	0.359100
H1111	H111	0.014900	0.722500	0.380200
C1841	C184	0.178800	0.272200	0.385600
H1121	H112	0.203700	0.275700	0.349800
C1851	C185	0.989400	0.837300	0.358700
H1131	H113	0.014900	0.866000	0.379500
C1861	C186	0.315600	0.227800	0.477600
H1141	H114	0.340400	0.221900	0.442100
C1871	C187	0.149600	0.249900	0.513600
H1151	H115	0.154300	0.237500	0.567900
C1881	C188	0.242800	0.240600	0.577000
H1161	H116	0.218000	0.244300	0.612800
C1891	C189	0.105000	0.260200	0.485400
H1171	H117	0.080100	0.254900	0.520700
C1901	C190	0.271500	0.239600	0.446400
H1181	H118	0.267300	0.243600	0.390700
O351	O35	0.836600	0.751600	0.241300
C1911	C191	0.869800	0.712600	0.270400
H1191	H119	0.866700	0.654500	0.275900
C1921	C192	0.869100	0.869500	0.269400
H1201	H120	0.865000	0.927200	0.277000
O361	O36	0.836000	0.835600	0.240000
Cd71	Cd7	0.455740	0.204550	0.661730
C1931	C193	0.634300	0.217400	0.642800
H1211	H121	0.629800	0.207000	0.697600
N131	N13	0.456720	0.351500	0.666900
O371	O37	0.540760	0.204400	0.696000
C1941	C194	0.549010	0.210400	0.622600
N141	N14	0.455060	0.060000	0.667000
O381	O38	0.875640	0.291400	0.335800
O391	O39	0.517240	0.207500	0.572200
C1951	C195	0.453800	0.524900	0.670000
C1961	C196	0.452600	0.886200	0.671000
O401	O40	0.904650	0.287900	0.453400
C1971	C197	0.871500	0.287000	0.409100
C1981	C198	0.686900	0.242700	0.536200
C1991	C199	0.438700	0.392200	0.728700
H1221	H122	0.427400	0.360500	0.771700
C2001	C200	0.452000	0.615900	0.672000
C2011	C201	0.452100	0.792300	0.672100
C2021	C202	0.439900	0.018100	0.731100
H1231	H123	0.430000	0.048600	0.775900
C2031	C203	0.415000	0.661600	0.703500
C2041	C204	0.734700	0.254700	0.503900
C2051	C205	0.823600	0.275500	0.443400
C2061	C206	0.414700	0.748700	0.702400
C2071	C207	0.470200	0.013700	0.606300
H1241	H124	0.483000	0.041200	0.561900
C2081	C208	0.597480	0.221900	0.593800
C2091	C209	0.435500	0.477800	0.733600
H1251	H125	0.421700	0.503800	0.777900
C2101	C210	0.472900	0.482200	0.606900
H1261	H126	0.485400	0.511100	0.563000
C2111	C211	0.473200	0.394400	0.609100
H1271	H127	0.486400	0.365600	0.565700
C2121	C212	0.438300	0.933800	0.734000
H1281	H128	0.427100	0.907400	0.780300
C2131	C213	0.468300	0.928800	0.605100
H1291	H129	0.477800	0.899400	0.559300
C2141	C214	0.786700	0.269400	0.392900
H1301	H130	0.791300	0.272000	0.337300
C2151	C215	0.489600	0.748400	0.640900
H1311	H131	0.514900	0.777500	0.619800
C2161	C216	0.678800	0.227800	0.614400
H1321	H132	0.703700	0.224300	0.650200
C2171	C217	0.489400	0.662700	0.641300
H1331	H133	0.514900	0.634000	0.620500
C2181	C218	0.815600	0.272200	0.522400
H1341	H134	0.840400	0.278100	0.557900
C2191	C219	0.649600	0.250100	0.486400
H1351	H135	0.654300	0.262500	0.432100
C2201	C220	0.742800	0.259400	0.423000
H1361	H136	0.718000	0.255700	0.387200
C2211	C221	0.605000	0.239800	0.514600
H1371	H137	0.580100	0.245100	0.479300
C2221	C222	0.771500	0.260400	0.553600
H1381	H138	0.767300	0.256400	0.609300
O411	O41	0.336600	0.748400	0.758700
C2231	C223	0.369800	0.787400	0.729600
H1391	H139	0.366700	0.845500	0.724100
C2241	C224	0.369100	0.630500	0.730600
H1401	H140	0.365000	0.572800	0.723000
O421	O42	0.336000	0.664400	0.760000
Cd81	Cd8	0.044260	0.295450	0.161730
C2251	C225	0.865700	0.282600	0.142800
H1411	H141	0.870200	0.293000	0.197600
N151	N15	0.043280	0.148500	0.166900
O431	O43	0.959240	0.295600	0.196000
C2261	C226	0.950990	0.289600	0.122600
N161	N16	0.044940	0.440000	0.167000
O441	O44	0.624360	0.208600	0.835800
O451	O45	0.982760	0.292500	0.072200
C2271	C227	0.046200	0.975100	0.170000
C2281	C228	0.047400	0.613800	0.171000
O461	O46	0.595350	0.212100	0.953400
C2291	C229	0.628500	0.213000	0.909100
C2301	C230	0.813100	0.257300	0.036200
C2311	C231	0.061300	0.107800	0.228700
H1421	H142	0.072600	0.139500	0.271700
C2321	C232	0.048000	0.884100	0.172000
C2331	C233	0.047900	0.707700	0.172100
C2341	C234	0.060100	0.481900	0.231100
H1431	H143	0.070000	0.451400	0.275900
C2351	C235	0.085000	0.838400	0.203500
C2361	C236	0.765300	0.245300	0.003900
C2371	C237	0.676400	0.224500	0.943400
C2381	C238	0.085300	0.751300	0.202400
C2391	C239	0.029800	0.486300	0.106300
H1441	H144	0.017000	0.458800	0.061900
C2401	C240	0.902520	0.278100	0.093800
C2411	C241	0.064500	0.022200	0.233600
H1451	H145	0.078300	0.996200	0.277900
C2421	C242	0.027100	0.017800	0.106900
H1461	H146	0.014600	0.988900	0.063000
C2431	C243	0.026800	0.105600	0.109100
H1471	H147	0.013600	0.134400	0.065700
C2441	C244	0.061700	0.566200	0.234000
H1481	H148	0.072900	0.592600	0.280300
C2451	C245	0.031700	0.571200	0.105100
H1491	H149	0.022200	0.600600	0.059300
C2461	C246	0.713300	0.230600	0.892900
H1501	H150	0.708700	0.228000	0.837300
C2471	C247	0.010400	0.751600	0.140900
H1511	H151	0.985100	0.722500	0.119800
C2481	C248	0.821200	0.272200	0.114400
H1521	H152	0.796300	0.275700	0.150200
C2491	C249	0.010600	0.837300	0.141300
H1531	H153	0.985100	0.866000	0.120500
C2501	C250	0.684400	0.227800	0.022400
H1541	H154	0.659600	0.221900	0.057900
C2511	C251	0.850400	0.249900	0.986400
H1551	H155	0.845700	0.237500	0.932100
C2521	C252	0.757200	0.240600	0.923000
H1561	H156	0.782000	0.244300	0.887200
C2531	C253	0.895000	0.260200	0.014600
H1571	H157	0.919900	0.254900	0.979300
C2541	C254	0.728500	0.239600	0.053600
H1581	H158	0.732700	0.243600	0.109300
O471	O47	0.163400	0.751600	0.258700
C2551	C255	0.130200	0.712600	0.229600
H1591	H159	0.133300	0.654500	0.224100
C2561	C256	0.130900	0.869500	0.230600
H1601	H160	0.135000	0.927200	0.223000
O481	O48	0.164000	0.835600	0.260000
