data_WIRKOZ_clean_PM
_symmetry_space_group_name_H-M	'P1'
_cell_length_a	33.480000
_cell_length_b	33.480000
_cell_length_c	105.590000
_cell_angle_alpha	90.000000
_cell_angle_beta	90.000000
_cell_angle_gamma	120.000000
_symmetry_Int_Tables_number 1

loop_
_symmetry_equiv_pos_as_xyz
'x,y,z'

loop_
_atom_site_label
_atom_site_type_symbol
_atom_site_fract_x
_atom_site_fract_y
_atom_site_fract_z
Zn11	Zn1	0.778980	0.401210	0.039620
O11	O1	0.722200	0.381700	0.030970
O21	O2	0.825700	0.418500	0.026340
O31	O3	0.796400	0.455100	0.049140
O41	O4	0.784000	0.359400	0.050050
Zn21	Zn2	0.739100	0.441700	0.023400
C11	C1	0.822300	0.441300	0.017290
C21	C2	0.785700	0.486500	0.045670
O51	O5	0.795800	0.455900	0.014660
O61	O6	0.759700	0.485500	0.036820
O71	O7	0.708900	0.460900	0.011480
O81	O8	0.679300	0.387900	0.053890
C31	C3	0.859400	0.450800	0.007070
C41	C4	0.804700	0.528100	0.054620
C51	C5	0.861800	0.474900	0.995560
C61	C6	0.891500	0.438200	0.008220
C71	C7	0.833000	0.533600	0.065690
C81	C8	0.801200	0.565700	0.051270
C91	C9	0.894200	0.483600	0.987170
H11	H1	0.840000	0.484500	0.994000
H21	H2	0.890800	0.421900	0.015700
C101	C10	0.925600	0.447000	0.999400
C111	C11	0.851800	0.573100	0.073170
H31	H3	0.838800	0.509400	0.067900
H41	H4	0.787200	0.566000	0.043500
C121	C12	0.818800	0.605000	0.059630
C131	C13	0.926800	0.469100	0.988170
H51	H5	0.895700	0.501100	0.979900
H61	H6	0.947900	0.438000	0.001000
C141	C14	0.843500	0.607900	0.070220
H71	H7	0.870300	0.575800	0.080300
H81	H8	0.813100	0.629400	0.057700
C151	C15	0.960300	0.475100	0.978180
C161	C16	0.858800	0.649800	0.078360
H91	H9	0.992100	0.494100	0.981400
H101	H10	0.955900	0.444600	0.975700
O91	O9	0.953900	0.496500	0.967740
H111	H11	0.875700	0.678100	0.073200
H121	H12	0.831700	0.649600	0.082200
O101	O10	0.887500	0.648900	0.087870
C171	C17	0.990300	0.517700	0.959210
C181	C18	0.907700	0.685500	0.095480
C191	C19	0.024500	0.505500	0.958930
C201	C20	0.981800	0.538100	0.948220
C211	C21	0.896800	0.719600	0.095580
C221	C22	0.931200	0.680000	0.106350
H131	H13	0.023500	0.482900	0.964600
C231	C23	0.060300	0.527200	0.950160
C241	C24	0.016900	0.558200	0.939910
C251	C25	0.943800	0.546900	0.945800
C261	C26	0.918400	0.755400	0.105000
H141	H14	0.875700	0.719800	0.089600
C271	C27	0.952600	0.714100	0.115210
C281	C28	0.943400	0.643600	0.108150
H151	H15	0.087900	0.525900	0.951100
C291	C29	0.054400	0.551500	0.939690
C301	C30	0.008600	0.588000	0.930260
H161	H16	0.918200	0.531300	0.952100
C311	C31	0.929000	0.533800	0.933500
C321	C32	0.966500	0.597600	0.946500
C331	C33	0.945500	0.749800	0.115400
H171	H17	0.915400	0.782100	0.104600
C341	C34	0.982600	0.711200	0.124370
H181	H18	0.928700	0.618400	0.101700
C351	C35	0.992100	0.663900	0.108550
C361	C36	0.925100	0.626800	0.121910
O111	O11	0.086600	0.572500	0.930940
H191	H19	0.033800	0.603500	0.923800
C371	C37	0.961800	0.553200	0.924500
C381	C38	0.000200	0.620100	0.937600
C391	C39	0.884600	0.503700	0.929400
C401	C40	0.954200	0.623300	0.954500
O121	O12	0.962600	0.786900	0.124180
H201	H20	0.998800	0.738800	0.130000
C411	C41	0.013700	0.699900	0.117260
C421	C42	0.947700	0.666000	0.131380
C431	C43	0.020100	0.652200	0.101370
C441	C44	0.895200	0.582300	0.125640
C451	C45	0.120000	0.564500	0.930050
C461	C46	0.949300	0.540700	0.910500
C471	C47	0.023700	0.662900	0.935830
C481	C48	0.877700	0.491700	0.914000
H211	H21	0.859300	0.490600	0.935100
C491	C49	0.978200	0.668600	0.953600
H221	H22	0.929500	0.608500	0.960400
C501	C50	0.944500	0.815700	0.125570
C511	C51	0.058600	0.721700	0.118600
C521	C52	0.936800	0.655500	0.143780
H231	H23	0.005500	0.626500	0.095800
C531	C53	0.066700	0.675300	0.101900
H241	H24	0.881200	0.557900	0.119700
C541	C54	0.886100	0.574400	0.138640
H251	H25	0.106900	0.530900	0.928900
H261	H26	0.136800	0.572900	0.938200
C551	C55	0.154300	0.589000	0.919690
H271	H27	0.972500	0.555000	0.904200
C561	C56	0.905800	0.509600	0.907000
H281	H28	0.047800	0.675000	0.929700
C571	C57	0.013900	0.693700	0.943000
H291	H29	0.848300	0.468500	0.911100
H301	H30	0.973300	0.686500	0.959700
H311	H31	0.910400	0.797400	0.126000
H321	H32	0.953200	0.837000	0.118300
C581	C58	0.963400	0.841800	0.137300
C591	C59	0.084400	0.708100	0.111200
H331	H33	0.073400	0.746500	0.124400
C601	C60	0.905700	0.613200	0.147510
H341	H34	0.951800	0.679000	0.150000
H351	H35	0.085400	0.669400	0.096300
H361	H36	0.867300	0.543900	0.141700
C611	C61	0.142800	0.610300	0.910420
C621	C62	0.197900	0.592200	0.918530
H371	H37	0.899200	0.502900	0.898300
H381	H38	0.028000	0.725900	0.941400
C631	C63	0.952700	0.877000	0.141200
C641	C64	0.985200	0.831400	0.145800
H391	H39	0.116600	0.722600	0.112800
H401	H40	0.896000	0.608100	0.156100
H411	H41	0.114000	0.609200	0.911000
C651	C65	0.171400	0.633500	0.900090
C661	C66	0.224800	0.614600	0.908380
H421	H42	0.208300	0.579000	0.924800
H431	H43	0.935800	0.886500	0.136000
C671	C67	0.969000	0.896000	0.153280
C681	C68	0.007300	0.858400	0.157790
H441	H44	0.987400	0.804500	0.144400
H451	H45	0.161800	0.646700	0.893700
C691	C69	0.215300	0.636600	0.899590
H461	H46	0.252900	0.614300	0.907500
H471	H47	0.959800	0.917200	0.156000
C701	C70	0.994200	0.889700	0.161170
H481	H48	0.028700	0.854000	0.162600
C711	C71	0.247300	0.663500	0.889200
C721	C72	0.015400	0.918400	0.171900
O131	O13	0.993400	0.936500	0.175790
Zn31	Zn3	0.445650	0.734540	0.372950
O141	O14	0.388870	0.715030	0.364300
O151	O15	0.492370	0.751830	0.359670
O161	O16	0.463070	0.788430	0.382470
O171	O17	0.450670	0.692730	0.383380
Zn41	Zn4	0.405770	0.775030	0.356730
C731	C73	0.488970	0.774630	0.350620
C741	C74	0.452370	0.819830	0.379000
O181	O18	0.462470	0.789230	0.347990
O191	O19	0.426370	0.818830	0.370150
O201	O20	0.375570	0.794230	0.344810
O211	O21	0.345970	0.721230	0.387220
C751	C75	0.526070	0.784130	0.340400
C761	C76	0.471370	0.861430	0.387950
C771	C77	0.528470	0.808230	0.328890
C781	C78	0.558170	0.771530	0.341550
C791	C79	0.499670	0.866930	0.399020
C801	C80	0.467870	0.899030	0.384600
C811	C81	0.560870	0.816930	0.320500
H491	H49	0.506670	0.817830	0.327330
H501	H50	0.557470	0.755230	0.349030
C821	C82	0.592270	0.780330	0.332730
C831	C83	0.518470	0.906430	0.406500
H511	H51	0.505470	0.842730	0.401230
H521	H52	0.453870	0.899330	0.376830
C841	C84	0.485470	0.938330	0.392960
C851	C85	0.593470	0.802430	0.321500
H531	H53	0.562370	0.834430	0.313230
H541	H54	0.614570	0.771330	0.334330
C861	C86	0.510170	0.941230	0.403550
H551	H55	0.536970	0.909130	0.413630
H561	H56	0.479770	0.962730	0.391030
C871	C87	0.626970	0.808430	0.311510
C881	C88	0.525470	0.983130	0.411690
H571	H57	0.658770	0.827430	0.314730
H581	H58	0.622570	0.777930	0.309030
O221	O22	0.620570	0.829830	0.301070
H591	H59	0.542370	0.011430	0.406530
H601	H60	0.498370	0.982930	0.415530
O231	O23	0.554170	0.982230	0.421200
C891	C89	0.656970	0.851030	0.292540
C901	C90	0.574370	0.018830	0.428810
C911	C91	0.691170	0.838830	0.292260
C921	C92	0.648470	0.871430	0.281550
C931	C93	0.563470	0.052930	0.428910
C941	C94	0.597870	0.013330	0.439680
H611	H61	0.690170	0.816230	0.297930
C951	C95	0.726970	0.860530	0.283490
C961	C96	0.683570	0.891530	0.273240
C971	C97	0.610470	0.880230	0.279130
C981	C98	0.585070	0.088730	0.438330
H621	H62	0.542370	0.053130	0.422930
C991	C99	0.619270	0.047430	0.448540
C1001	C100	0.610070	0.976930	0.441480
H631	H63	0.754570	0.859230	0.284430
C1011	C101	0.721070	0.884830	0.273020
C1021	C102	0.675270	0.921330	0.263590
H641	H64	0.584870	0.864630	0.285430
C1031	C103	0.595670	0.867130	0.266830
C1041	C104	0.633170	0.930930	0.279830
C1051	C105	0.612170	0.083130	0.448730
H651	H65	0.582070	0.115430	0.437930
C1061	C106	0.649270	0.044530	0.457700
H661	H66	0.595370	0.951730	0.435030
C1071	C107	0.658770	0.997230	0.441880
C1081	C108	0.591770	0.960130	0.455240
O241	O24	0.753270	0.905830	0.264270
H671	H67	0.700470	0.936830	0.257130
C1091	C109	0.628470	0.886530	0.257830
C1101	C110	0.666870	0.953430	0.270930
C1111	C111	0.551270	0.837030	0.262730
C1121	C112	0.620870	0.956630	0.287830
O251	O25	0.629270	0.120230	0.457510
H681	H68	0.665470	0.072130	0.463330
C1131	C113	0.680370	0.033230	0.450590
C1141	C114	0.614370	0.999330	0.464710
C1151	C115	0.686770	0.985530	0.434700
C1161	C116	0.561870	0.915630	0.458970
C1171	C117	0.786670	0.897830	0.263380
C1181	C118	0.615970	0.874030	0.243830
C1191	C119	0.690370	0.996230	0.269160
C1201	C120	0.544370	0.825030	0.247330
H691	H69	0.525970	0.823930	0.268430
C1211	C121	0.644870	0.001930	0.286930
H701	H70	0.596170	0.941830	0.293730
C1221	C122	0.611170	0.149030	0.458900
C1231	C123	0.725270	0.055030	0.451930
C1241	C124	0.603470	0.988830	0.477110
H711	H71	0.672170	0.959830	0.429130
C1251	C125	0.733370	0.008630	0.435230
H721	H72	0.547870	0.891230	0.453030
C1261	C126	0.552770	0.907730	0.471970
H731	H73	0.773570	0.864230	0.262230
H741	H74	0.803470	0.906230	0.271530
C1271	C127	0.820970	0.922330	0.253020
H751	H75	0.639170	0.888330	0.237530
C1281	C128	0.572470	0.842930	0.240330
H761	H76	0.714470	0.008330	0.263030
C1291	C129	0.680570	0.027030	0.276330
H771	H77	0.514970	0.801830	0.244430
H781	H78	0.639970	0.019830	0.293030
H791	H79	0.577070	0.130730	0.459330
H801	H80	0.619870	0.170330	0.451630
C1301	C130	0.630070	0.175130	0.470630
C1311	C131	0.751070	0.041430	0.444530
H811	H81	0.740070	0.079830	0.457730
C1321	C132	0.572370	0.946530	0.480840
H821	H82	0.618470	0.012330	0.483330
H831	H83	0.752070	0.002730	0.429630
H841	H84	0.533970	0.877230	0.475030
C1331	C133	0.809470	0.943630	0.243750
C1341	C134	0.864570	0.925530	0.251860
H851	H85	0.565870	0.836230	0.231630
H861	H86	0.694670	0.059230	0.274730
C1351	C135	0.619370	0.210330	0.474530
C1361	C136	0.651870	0.164730	0.479130
H871	H87	0.783270	0.055930	0.446130
H881	H88	0.562670	0.941430	0.489430
H891	H89	0.780670	0.942530	0.244330
C1371	C137	0.838070	0.966830	0.233420
C1381	C138	0.891470	0.947930	0.241710
H901	H90	0.874970	0.912330	0.258130
H911	H91	0.602470	0.219830	0.469330
C1391	C139	0.635670	0.229330	0.486610
C1401	C140	0.673970	0.191730	0.491120
H921	H92	0.654070	0.137830	0.477730
H931	H93	0.828470	0.980030	0.227030
C1411	C141	0.881970	0.969930	0.232920
H941	H94	0.919570	0.947630	0.240830
H951	H95	0.626470	0.250530	0.489330
C1421	C142	0.660870	0.223030	0.494500
H961	H96	0.695370	0.187330	0.495930
C1431	C143	0.913970	0.996830	0.222530
C1441	C144	0.682070	0.251730	0.505230
O261	O26	0.660070	0.269830	0.509120
Zn51	Zn5	0.112310	0.067880	0.706290
O271	O27	0.055530	0.048370	0.697640
O281	O28	0.159030	0.085170	0.693010
O291	O29	0.129730	0.121770	0.715810
O301	O30	0.117330	0.026070	0.716720
Zn61	Zn6	0.072430	0.108370	0.690070
C1451	C145	0.155630	0.107970	0.683960
C1461	C146	0.119030	0.153170	0.712340
O311	O31	0.129130	0.122570	0.681330
O321	O32	0.093030	0.152170	0.703490
O331	O33	0.042230	0.127570	0.678150
O341	O34	0.012630	0.054570	0.720560
C1471	C147	0.192730	0.117470	0.673740
C1481	C148	0.138030	0.194770	0.721290
C1491	C149	0.195130	0.141570	0.662230
C1501	C150	0.224830	0.104870	0.674890
C1511	C151	0.166330	0.200270	0.732360
C1521	C152	0.134530	0.232370	0.717940
C1531	C153	0.227530	0.150270	0.653840
H971	H97	0.173330	0.151170	0.660670
H981	H98	0.224130	0.088570	0.682370
C1541	C154	0.258930	0.113670	0.666070
C1551	C155	0.185130	0.239770	0.739840
H991	H99	0.172130	0.176070	0.734570
H1001	H100	0.120530	0.232670	0.710170
C1561	C156	0.152130	0.271670	0.726300
C1571	C157	0.260130	0.135770	0.654840
H1011	H101	0.229030	0.167770	0.646570
H1021	H102	0.281230	0.104670	0.667670
C1581	C158	0.176830	0.274570	0.736890
H1031	H103	0.203630	0.242470	0.746970
H1041	H104	0.146430	0.296070	0.724370
C1591	C159	0.293630	0.141770	0.644850
C1601	C160	0.192130	0.316470	0.745030
H1051	H105	0.325430	0.160770	0.648070
H1061	H106	0.289230	0.111270	0.642370
O351	O35	0.287230	0.163170	0.634410
H1071	H107	0.209030	0.344770	0.739870
H1081	H108	0.165030	0.316270	0.748870
O361	O36	0.220830	0.315570	0.754540
C1611	C161	0.323630	0.184370	0.625880
C1621	C162	0.241030	0.352170	0.762150
C1631	C163	0.357830	0.172170	0.625600
C1641	C164	0.315130	0.204770	0.614890
C1651	C165	0.230130	0.386270	0.762250
C1661	C166	0.264530	0.346670	0.773020
H1091	H109	0.356830	0.149570	0.631270
C1671	C167	0.393630	0.193870	0.616830
C1681	C168	0.350230	0.224870	0.606580
C1691	C169	0.277130	0.213570	0.612470
C1701	C170	0.251730	0.422070	0.771670
H1101	H110	0.209030	0.386470	0.756270
C1711	C171	0.285930	0.380770	0.781880
C1721	C172	0.276730	0.310270	0.774820
H1111	H111	0.421230	0.192570	0.617770
C1731	C173	0.387730	0.218170	0.606360
C1741	C174	0.341930	0.254670	0.596930
H1121	H112	0.251530	0.197970	0.618770
C1751	C175	0.262330	0.200470	0.600170
C1761	C176	0.299830	0.264270	0.613170
C1771	C177	0.278830	0.416470	0.782070
H1131	H113	0.248730	0.448770	0.771270
C1781	C178	0.315930	0.377870	0.791040
H1141	H114	0.262030	0.285070	0.768370
C1791	C179	0.325430	0.330570	0.775220
C1801	C180	0.258430	0.293470	0.788580
O371	O37	0.419930	0.239170	0.597610
H1151	H115	0.367130	0.270170	0.590470
C1811	C181	0.295130	0.219870	0.591170
C1821	C182	0.333530	0.286770	0.604270
C1831	C183	0.217930	0.170370	0.596070
C1841	C184	0.287530	0.289970	0.621170
O381	O38	0.295930	0.453570	0.790850
H1161	H116	0.332130	0.405470	0.796670
C1851	C185	0.347030	0.366570	0.783930
C1861	C186	0.281030	0.332670	0.798050
C1871	C187	0.353430	0.318870	0.768040
C1881	C188	0.228530	0.248970	0.792310
C1891	C189	0.453330	0.231170	0.596720
C1901	C190	0.282630	0.207370	0.577170
C1911	C191	0.357030	0.329570	0.602500
C1921	C192	0.211030	0.158370	0.580670
H1171	H117	0.192630	0.157270	0.601770
C1931	C193	0.311530	0.335270	0.620270
H1181	H118	0.262830	0.275170	0.627070
C1941	C194	0.277830	0.482370	0.792240
C1951	C195	0.391930	0.388370	0.785270
C1961	C196	0.270130	0.322170	0.810450
H1191	H119	0.338830	0.293170	0.762470
C1971	C197	0.400030	0.341970	0.768570
H1201	H120	0.214530	0.224570	0.786370
C1981	C198	0.219430	0.241070	0.805310
H1211	H121	0.440230	0.197570	0.595570
H1221	H122	0.470130	0.239570	0.604870
C1991	C199	0.487630	0.255670	0.586360
H1231	H123	0.305830	0.221670	0.570870
C2001	C200	0.239130	0.176270	0.573670
H1241	H124	0.381130	0.341670	0.596370
C2011	C201	0.347230	0.360370	0.609670
H1251	H125	0.181630	0.135170	0.577770
H1261	H126	0.306630	0.353170	0.626370
H1271	H127	0.243730	0.464070	0.792670
H1281	H128	0.286530	0.503670	0.784970
C2021	C202	0.296730	0.508470	0.803970
C2031	C203	0.417730	0.374770	0.777870
H1291	H129	0.406730	0.413170	0.791070
C2041	C204	0.239030	0.279870	0.814180
H1301	H130	0.285130	0.345670	0.816670
H1311	H131	0.418730	0.336070	0.762970
H1321	H132	0.200630	0.210570	0.808370
C2051	C205	0.476130	0.276970	0.577090
C2061	C206	0.531230	0.258870	0.585200
H1331	H133	0.232530	0.169570	0.564970
H1341	H134	0.361330	0.392570	0.608070
C2071	C207	0.286030	0.543670	0.807870
C2081	C208	0.318530	0.498070	0.812470
H1351	H135	0.449930	0.389270	0.779470
H1361	H136	0.229330	0.274770	0.822770
H1371	H137	0.447330	0.275870	0.577670
C2091	C209	0.504730	0.300170	0.566760
C2101	C210	0.558130	0.281270	0.575050
H1381	H138	0.541630	0.245670	0.591470
H1391	H139	0.269130	0.553170	0.802670
C2111	C211	0.302330	0.562670	0.819950
C2121	C212	0.340630	0.525070	0.824460
H1401	H140	0.320730	0.471170	0.811070
H1411	H141	0.495130	0.313370	0.560370
C2131	C213	0.548630	0.303270	0.566260
H1421	H142	0.586230	0.280970	0.574170
H1431	H143	0.293130	0.583870	0.822670
C2141	C214	0.327530	0.556370	0.827840
H1441	H144	0.362030	0.520670	0.829270
C2151	C215	0.580630	0.330170	0.555870
C2161	C216	0.348730	0.585070	0.838570
O391	O39	0.326730	0.603170	0.842460
Zn71	Zn7	0.598790	0.377770	0.039620
O401	O40	0.618300	0.340500	0.030970
O411	O41	0.581500	0.407200	0.026340
O421	O42	0.544900	0.341300	0.049140
O431	O43	0.640600	0.424600	0.050050
Zn81	Zn8	0.558300	0.297400	0.023400
C2171	C217	0.558700	0.381000	0.017290
C2181	C218	0.513500	0.299200	0.045670
O441	O44	0.544100	0.339900	0.014660
O451	O45	0.514500	0.274200	0.036820
O461	O46	0.539100	0.248000	0.011480
O471	O47	0.612100	0.291400	0.053890
C2191	C219	0.549200	0.408600	0.007070
C2201	C220	0.471900	0.276600	0.054620
C2211	C221	0.525100	0.386900	0.995560
C2221	C222	0.561800	0.453300	0.008220
C2231	C223	0.466400	0.299400	0.065690
C2241	C224	0.434300	0.235500	0.051270
C2251	C225	0.516400	0.410600	0.987170
H1451	H145	0.515500	0.355500	0.994000
H1461	H146	0.578100	0.468900	0.015700
C2261	C226	0.553000	0.478600	0.999400
C2271	C227	0.426900	0.278700	0.073170
H1471	H147	0.490600	0.329400	0.067900
H1481	H148	0.434000	0.221200	0.043500
C2281	C228	0.395000	0.213800	0.059630
C2291	C229	0.530900	0.457700	0.988170
H1491	H149	0.498900	0.394600	0.979900
H1501	H150	0.562000	0.509900	0.001000
C2301	C230	0.392100	0.235600	0.070220
H1511	H151	0.424200	0.294500	0.080300
H1521	H152	0.370600	0.183700	0.057700
C2311	C231	0.524900	0.485200	0.978180
C2321	C232	0.350200	0.209000	0.078360
H1531	H153	0.505900	0.498000	0.981400
H1541	H154	0.555400	0.511300	0.975700
O481	O48	0.503500	0.457400	0.967740
H1551	H155	0.321900	0.197600	0.073200
H1561	H156	0.350400	0.182100	0.082200
O491	O49	0.351100	0.238600	0.087870
C2331	C233	0.482300	0.472600	0.959210
C2341	C234	0.314500	0.222200	0.095480
C2351	C235	0.494500	0.519000	0.958930
C2361	C236	0.461900	0.443700	0.948220
C2371	C237	0.280400	0.177200	0.095580
C2381	C238	0.320000	0.251200	0.106350
H1571	H157	0.517100	0.540600	0.964600
C2391	C239	0.472800	0.533100	0.950160
C2401	C240	0.441800	0.458700	0.939910
C2411	C241	0.453100	0.396900	0.945800
C2421	C242	0.244600	0.163000	0.105000
H1581	H158	0.280200	0.155900	0.089600
C2431	C243	0.285900	0.238500	0.115210
C2441	C244	0.356400	0.299800	0.108150
H1591	H159	0.474100	0.562000	0.951100
C2451	C245	0.448500	0.502900	0.939690
C2461	C246	0.412000	0.420600	0.930260
H1601	H160	0.468700	0.386900	0.952100
C2471	C247	0.466200	0.395200	0.933500
C2481	C248	0.402400	0.368900	0.946500
C2491	C249	0.250200	0.195700	0.115400
H1611	H161	0.217900	0.133300	0.104600
C2501	C250	0.288800	0.271400	0.124370
H1621	H162	0.381600	0.310300	0.101700
C2511	C251	0.336100	0.328200	0.108550
C2521	C252	0.373200	0.298300	0.121910
O501	O50	0.427500	0.514100	0.930940
H1631	H163	0.396500	0.430300	0.923800
C2531	C253	0.446800	0.408600	0.924500
C2541	C254	0.379900	0.380100	0.937600
C2551	C255	0.496300	0.380900	0.929400
C2561	C256	0.376700	0.330900	0.954500
O511	O51	0.213100	0.175700	0.124180
H1641	H164	0.261200	0.260000	0.130000
C2571	C257	0.300100	0.313800	0.117260
C2581	C258	0.334000	0.281700	0.131380
C2591	C259	0.347800	0.367900	0.101370
C2601	C260	0.417700	0.312900	0.125640
C2611	C261	0.435500	0.555500	0.930050
C2621	C262	0.459300	0.408600	0.910500
C2631	C263	0.337100	0.360800	0.935830
C2641	C264	0.508300	0.386000	0.914000
H1651	H165	0.509400	0.368700	0.935100
C2651	C265	0.331400	0.309600	0.953600
H1661	H166	0.391500	0.321000	0.960400
C2661	C266	0.184300	0.128800	0.125570
C2671	C267	0.278300	0.336900	0.118600
C2681	C268	0.344500	0.281300	0.143780
H1671	H167	0.373500	0.379000	0.095800
C2691	C269	0.324700	0.391400	0.101900
H1681	H168	0.442100	0.323300	0.119700
C2701	C270	0.425600	0.311700	0.138640
H1691	H169	0.469100	0.576000	0.928900
H1701	H170	0.427100	0.563900	0.938200
C2711	C271	0.411000	0.565300	0.919690
H1711	H171	0.445000	0.417500	0.904200
C2721	C272	0.490400	0.396200	0.907000
H1721	H172	0.325000	0.372800	0.929700
C2731	C273	0.306300	0.320200	0.943000
H1731	H173	0.531500	0.379800	0.911100
H1741	H174	0.313500	0.286800	0.959700
H1751	H175	0.202600	0.113000	0.126000
H1761	H176	0.163000	0.116200	0.118300
C2741	C274	0.158200	0.121600	0.137300
C2751	C275	0.291900	0.376300	0.111200
H1771	H177	0.253500	0.326900	0.124400
C2761	C276	0.386800	0.292500	0.147510
H1781	H178	0.321000	0.272800	0.150000
H1791	H179	0.330600	0.416000	0.096300
H1801	H180	0.456100	0.323400	0.141700
C2771	C277	0.389700	0.532500	0.910420
C2781	C278	0.407800	0.605700	0.918530
H1811	H181	0.497100	0.396300	0.898300
H1821	H182	0.274100	0.302100	0.941400
C2791	C279	0.123000	0.075700	0.141200
C2801	C280	0.168600	0.153800	0.145800
H1831	H183	0.277400	0.394000	0.112800
H1841	H184	0.391900	0.287900	0.156100
H1851	H185	0.390800	0.504800	0.911000
C2811	C281	0.366500	0.537900	0.900090
C2821	C282	0.385400	0.610200	0.908380
H1861	H186	0.421000	0.629300	0.924800
H1871	H187	0.113500	0.049300	0.136000
C2831	C283	0.104000	0.073000	0.153280
C2841	C284	0.141600	0.148900	0.157790
H1881	H188	0.195500	0.182900	0.144400
H1891	H189	0.353300	0.515100	0.893700
C2851	C285	0.363400	0.578700	0.899590
H1901	H190	0.385700	0.638600	0.907500
H1911	H191	0.082800	0.042600	0.156000
C2861	C286	0.110300	0.104500	0.161170
H1921	H192	0.146000	0.174700	0.162600
C2871	C287	0.336500	0.583800	0.889200
C2881	C288	0.081600	0.097000	0.171900
O521	O52	0.063500	0.056900	0.175790
Zn91	Zn9	0.265460	0.711100	0.372950
O531	O53	0.284970	0.673830	0.364300
O541	O54	0.248170	0.740530	0.359670
O551	O55	0.211570	0.674630	0.382470
O561	O56	0.307270	0.757930	0.383380
Zn101	Zn10	0.224970	0.630730	0.356730
C2891	C289	0.225370	0.714330	0.350620
C2901	C290	0.180170	0.632530	0.379000
O571	O57	0.210770	0.673230	0.347990
O581	O58	0.181170	0.607530	0.370150
O591	O59	0.205770	0.581330	0.344810
O601	O60	0.278770	0.624730	0.387220
C2911	C291	0.215870	0.741930	0.340400
C2921	C292	0.138570	0.609930	0.387950
C2931	C293	0.191770	0.720230	0.328890
C2941	C294	0.228470	0.786630	0.341550
C2951	C295	0.133070	0.632730	0.399020
C2961	C296	0.100970	0.568830	0.384600
C2971	C297	0.183070	0.743930	0.320500
H1931	H193	0.182170	0.688830	0.327330
H1941	H194	0.244770	0.802230	0.349030
C2981	C298	0.219670	0.811930	0.332730
C2991	C299	0.093570	0.612030	0.406500
H1951	H195	0.157270	0.662730	0.401230
H1961	H196	0.100670	0.554530	0.376830
C3001	C300	0.061670	0.547130	0.392960
C3011	C301	0.197570	0.791030	0.321500
H1971	H197	0.165570	0.727930	0.313230
H1981	H198	0.228670	0.843230	0.334330
C3021	C302	0.058770	0.568930	0.403550
H1991	H199	0.090870	0.627830	0.413630
H2001	H200	0.037270	0.517030	0.391030
C3031	C303	0.191570	0.818530	0.311510
C3041	C304	0.016870	0.542330	0.411690
H2011	H201	0.172570	0.831330	0.314730
H2021	H202	0.222070	0.844630	0.309030
O611	O61	0.170170	0.790730	0.301070
H2031	H203	0.988570	0.530930	0.406530
H2041	H204	0.017070	0.515430	0.415530
O621	O62	0.017770	0.571930	0.421200
C3051	C305	0.148970	0.805930	0.292540
C3061	C306	0.981170	0.555530	0.428810
C3071	C307	0.161170	0.852330	0.292260
C3081	C308	0.128570	0.777030	0.281550
C3091	C309	0.947070	0.510530	0.428910
C3101	C310	0.986670	0.584530	0.439680
H2051	H205	0.183770	0.873930	0.297930
C3111	C311	0.139470	0.866430	0.283490
C3121	C312	0.108470	0.792030	0.273240
C3131	C313	0.119770	0.730230	0.279130
C3141	C314	0.911270	0.496330	0.438330
H2061	H206	0.946870	0.489230	0.422930
C3151	C315	0.952570	0.571830	0.448540
C3161	C316	0.023070	0.633130	0.441480
H2071	H207	0.140770	0.895330	0.284430
C3171	C317	0.115170	0.836230	0.273020
C3181	C318	0.078670	0.753930	0.263590
H2081	H208	0.135370	0.720230	0.285430
C3191	C319	0.132870	0.728530	0.266830
C3201	C320	0.069070	0.702230	0.279830
C3211	C321	0.916870	0.529030	0.448730
H2091	H209	0.884570	0.466630	0.437930
C3221	C322	0.955470	0.604730	0.457700
H2101	H210	0.048270	0.643630	0.435030
C3231	C323	0.002770	0.661530	0.441880
C3241	C324	0.039870	0.631630	0.455240
O631	O63	0.094170	0.847430	0.264270
H2111	H211	0.063170	0.763630	0.257130
C3251	C325	0.113470	0.741930	0.257830
C3261	C326	0.046570	0.713430	0.270930
C3271	C327	0.162970	0.714230	0.262730
C3281	C328	0.043370	0.664230	0.287830
O641	O64	0.879770	0.509030	0.457510
H2121	H212	0.927870	0.593330	0.463330
C3291	C329	0.966770	0.647130	0.450590
C3301	C330	0.000670	0.615030	0.464710
C3311	C331	0.014470	0.701230	0.434700
C3321	C332	0.084370	0.646230	0.458970
C3331	C333	0.102170	0.888830	0.263380
C3341	C334	0.125970	0.741930	0.243830
C3351	C335	0.003770	0.694130	0.269160
C3361	C336	0.174970	0.719330	0.247330
H2131	H213	0.176070	0.702030	0.268430
C3371	C337	0.998070	0.642930	0.286930
H2141	H214	0.058170	0.654330	0.293730
C3381	C338	0.850970	0.462130	0.458900
C3391	C339	0.944970	0.670230	0.451930
C3401	C340	0.011170	0.614630	0.477110
H2151	H215	0.040170	0.712330	0.429130
C3411	C341	0.991370	0.724730	0.435230
H2161	H216	0.108770	0.656630	0.453030
C3421	C342	0.092270	0.645030	0.471970
H2171	H217	0.135770	0.909330	0.262230
H2181	H218	0.093770	0.897230	0.271530
C3431	C343	0.077670	0.898630	0.253020
H2191	H219	0.111670	0.750830	0.237530
C3441	C344	0.157070	0.729530	0.240330
H2201	H220	0.991670	0.706130	0.263030
C3451	C345	0.972970	0.653530	0.276330
H2211	H221	0.198170	0.713130	0.244430
H2221	H222	0.980170	0.620130	0.293030
H2231	H223	0.869270	0.446330	0.459330
H2241	H224	0.829670	0.449530	0.451630
C3461	C346	0.824870	0.454930	0.470630
C3471	C347	0.958570	0.709630	0.444530
H2251	H225	0.920170	0.660230	0.457730
C3481	C348	0.053470	0.625830	0.480840
H2261	H226	0.987670	0.606130	0.483330
H2271	H227	0.997270	0.749330	0.429630
H2281	H228	0.122770	0.656730	0.475030
C3491	C349	0.056370	0.865830	0.243750
C3501	C350	0.074470	0.939030	0.251860
H2291	H229	0.163770	0.729630	0.231630
H2301	H230	0.940770	0.635430	0.274730
C3511	C351	0.789670	0.409030	0.474530
C3521	C352	0.835270	0.487130	0.479130
H2311	H231	0.944070	0.727330	0.446130
H2321	H232	0.058570	0.621230	0.489430
H2331	H233	0.057470	0.838130	0.244330
C3531	C353	0.033170	0.871230	0.233420
C3541	C354	0.052070	0.943530	0.241710
H2341	H234	0.087670	0.962630	0.258130
H2351	H235	0.780170	0.382630	0.469330
C3551	C355	0.770670	0.406330	0.486610
C3561	C356	0.808270	0.482230	0.491120
H2361	H236	0.862170	0.516230	0.477730
H2371	H237	0.019970	0.848430	0.227030
C3571	C357	0.030070	0.912030	0.232920
H2381	H238	0.052370	0.971930	0.240830
H2391	H239	0.749470	0.375930	0.489330
C3581	C358	0.776970	0.437830	0.494500
H2401	H240	0.812670	0.508030	0.495930
C3591	C359	0.003170	0.917130	0.222530
C3601	C360	0.748270	0.430330	0.505230
O651	O65	0.730170	0.390230	0.509120
Zn111	Zn11	0.932120	0.044440	0.706290
O661	O66	0.951630	0.007170	0.697640
O671	O67	0.914830	0.073870	0.693010
O681	O68	0.878230	0.007970	0.715810
O691	O69	0.973930	0.091270	0.716720
Zn121	Zn12	0.891630	0.964070	0.690070
C3611	C361	0.892030	0.047670	0.683960
C3621	C362	0.846830	0.965870	0.712340
O701	O70	0.877430	0.006570	0.681330
O711	O71	0.847830	0.940870	0.703490
O721	O72	0.872430	0.914670	0.678150
O731	O73	0.945430	0.958070	0.720560
C3631	C363	0.882530	0.075270	0.673740
C3641	C364	0.805230	0.943270	0.721290
C3651	C365	0.858430	0.053570	0.662230
C3661	C366	0.895130	0.119970	0.674890
C3671	C367	0.799730	0.966070	0.732360
C3681	C368	0.767630	0.902170	0.717940
C3691	C369	0.849730	0.077270	0.653840
H2411	H241	0.848830	0.022170	0.660670
H2421	H242	0.911430	0.135570	0.682370
C3701	C370	0.886330	0.145270	0.666070
C3711	C371	0.760230	0.945370	0.739840
H2431	H243	0.823930	0.996070	0.734570
H2441	H244	0.767330	0.887870	0.710170
C3721	C372	0.728330	0.880470	0.726300
C3731	C373	0.864230	0.124370	0.654840
H2451	H245	0.832230	0.061270	0.646570
H2461	H246	0.895330	0.176570	0.667670
C3741	C374	0.725430	0.902270	0.736890
H2471	H247	0.757530	0.961170	0.746970
H2481	H248	0.703930	0.850370	0.724370
C3751	C375	0.858230	0.151870	0.644850
C3761	C376	0.683530	0.875670	0.745030
H2491	H249	0.839230	0.164670	0.648070
H2501	H250	0.888730	0.177970	0.642370
O741	O74	0.836830	0.124070	0.634410
H2511	H251	0.655230	0.864270	0.739870
H2521	H252	0.683730	0.848770	0.748870
O751	O75	0.684430	0.905270	0.754540
C3771	C377	0.815630	0.139270	0.625880
C3781	C378	0.647830	0.888870	0.762150
C3791	C379	0.827830	0.185670	0.625600
C3801	C380	0.795230	0.110370	0.614890
C3811	C381	0.613730	0.843870	0.762250
C3821	C382	0.653330	0.917870	0.773020
H2531	H253	0.850430	0.207270	0.631270
C3831	C383	0.806130	0.199770	0.616830
C3841	C384	0.775130	0.125370	0.606580
C3851	C385	0.786430	0.063570	0.612470
C3861	C386	0.577930	0.829670	0.771670
H2541	H254	0.613530	0.822570	0.756270
C3871	C387	0.619230	0.905170	0.781880
C3881	C388	0.689730	0.966470	0.774820
H2551	H255	0.807430	0.228670	0.617770
C3891	C389	0.781830	0.169570	0.606360
C3901	C390	0.745330	0.087270	0.596930
H2561	H256	0.802030	0.053570	0.618770
C3911	C391	0.799530	0.061870	0.600170
C3921	C392	0.735730	0.035570	0.613170
C3931	C393	0.583530	0.862370	0.782070
H2571	H257	0.551230	0.799970	0.771270
C3941	C394	0.622130	0.938070	0.791040
H2581	H258	0.714930	0.976970	0.768370
C3951	C395	0.669430	0.994870	0.775220
C3961	C396	0.706530	0.964970	0.788580
O761	O76	0.760830	0.180770	0.597610
H2591	H259	0.729830	0.096970	0.590470
C3971	C397	0.780130	0.075270	0.591170
C3981	C398	0.713230	0.046770	0.604270
C3991	C399	0.829630	0.047570	0.596070
C4001	C400	0.710030	0.997570	0.621170
O771	O77	0.546430	0.842370	0.790850
H2601	H260	0.594530	0.926670	0.796670
C4011	C401	0.633430	0.980470	0.783930
C4021	C402	0.667330	0.948370	0.798050
C4031	C403	0.681130	0.034570	0.768040
C4041	C404	0.751030	0.979570	0.792310
C4051	C405	0.768830	0.222170	0.596720
C4061	C406	0.792630	0.075270	0.577170
C4071	C407	0.670430	0.027470	0.602500
C4081	C408	0.841630	0.052670	0.580670
H2611	H261	0.842730	0.035370	0.601770
C4091	C409	0.664730	0.976270	0.620270
H2621	H262	0.724830	0.987670	0.627070
C4101	C410	0.517630	0.795470	0.792240
C4111	C411	0.611630	0.003570	0.785270
C4121	C412	0.677830	0.947970	0.810450
H2631	H263	0.706830	0.045670	0.762470
C4131	C413	0.658030	0.058070	0.768570
H2641	H264	0.775430	0.989970	0.786370
C4141	C414	0.758930	0.978370	0.805310
H2651	H265	0.802430	0.242670	0.595570
H2661	H266	0.760430	0.230570	0.604870
C4151	C415	0.744330	0.231970	0.586360
H2671	H267	0.778330	0.084170	0.570870
C4161	C416	0.823730	0.062870	0.573670
H2681	H268	0.658330	0.039470	0.596370
C4171	C417	0.639630	0.986870	0.609670
H2691	H269	0.864830	0.046470	0.577770
H2701	H270	0.646830	0.953470	0.626370
H2711	H271	0.535930	0.779670	0.792670
H2721	H272	0.496330	0.782870	0.784970
C4181	C418	0.491530	0.788270	0.803970
C4191	C419	0.625230	0.042970	0.777870
H2731	H273	0.586830	0.993570	0.791070
C4201	C420	0.720130	0.959170	0.814180
H2741	H274	0.654330	0.939470	0.816670
H2751	H275	0.663930	0.082670	0.762970
H2761	H276	0.789430	0.990070	0.808370
C4211	C421	0.723030	0.199170	0.577090
C4221	C422	0.741130	0.272370	0.585200
H2771	H277	0.830430	0.062970	0.564970
H2781	H278	0.607430	0.968770	0.608070
C4231	C423	0.456330	0.742370	0.807870
C4241	C424	0.501930	0.820470	0.812470
H2791	H279	0.610730	0.060670	0.779470
H2801	H280	0.725230	0.954570	0.822770
H2811	H281	0.724130	0.171470	0.577670
C4251	C425	0.699830	0.204570	0.566760
C4261	C426	0.718730	0.276870	0.575050
H2821	H282	0.754330	0.295970	0.591470
H2831	H283	0.446830	0.715970	0.802670
C4271	C427	0.437330	0.739670	0.819950
C4281	C428	0.474930	0.815570	0.824460
H2841	H284	0.528830	0.849570	0.811070
H2851	H285	0.686630	0.181770	0.560370
C4291	C429	0.696730	0.245370	0.566260
H2861	H286	0.719030	0.305270	0.574170
H2871	H287	0.416130	0.709270	0.822670
C4301	C430	0.443630	0.771170	0.827840
H2881	H288	0.479330	0.841370	0.829270
C4311	C431	0.669830	0.250470	0.555870
C4321	C432	0.414930	0.763670	0.838570
O781	O78	0.396830	0.723570	0.842460
Zn131	Zn13	0.622230	0.221020	0.039620
O791	O79	0.659500	0.277800	0.030970
O801	O80	0.592800	0.174300	0.026340
O811	O81	0.658700	0.203600	0.049140
O821	O82	0.575400	0.216000	0.050050
Zn141	Zn14	0.702600	0.260900	0.023400
C4331	C433	0.619000	0.177700	0.017290
C4341	C434	0.700800	0.214300	0.045670
O831	O83	0.660100	0.204200	0.014660
O841	O84	0.725800	0.240300	0.036820
O851	O85	0.752000	0.291100	0.011480
O861	O86	0.708600	0.320700	0.053890
C4351	C435	0.591400	0.140600	0.007070
C4361	C436	0.723400	0.195300	0.054620
C4371	C437	0.613100	0.138200	0.995560
C4381	C438	0.546700	0.108500	0.008220
C4391	C439	0.700600	0.167000	0.065690
C4401	C440	0.764500	0.198800	0.051270
C4411	C441	0.589400	0.105800	0.987170
H2891	H289	0.644500	0.160000	0.994000
H2901	H290	0.531100	0.109200	0.015700
C4421	C442	0.521400	0.074400	0.999400
C4431	C443	0.721300	0.148200	0.073170
H2911	H291	0.670600	0.161200	0.067900
H2921	H292	0.778800	0.212800	0.043500
C4441	C444	0.786200	0.181200	0.059630
C4451	C445	0.542300	0.073200	0.988170
H2931	H293	0.605400	0.104300	0.979900
H2941	H294	0.490100	0.052100	0.001000
C4461	C446	0.764400	0.156500	0.070220
H2951	H295	0.705500	0.129700	0.080300
H2961	H296	0.816300	0.186900	0.057700
C4471	C447	0.514800	0.039700	0.978180
C4481	C448	0.791000	0.141200	0.078360
H2971	H297	0.502000	0.007900	0.981400
H2981	H298	0.488700	0.044100	0.975700
O871	O87	0.542600	0.046100	0.967740
H2991	H299	0.802400	0.124300	0.073200
H3001	H300	0.817900	0.168300	0.082200
O881	O88	0.761400	0.112500	0.087870
C4491	C449	0.527400	0.009700	0.959210
C4501	C450	0.777800	0.092300	0.095480
C4511	C451	0.481000	0.975500	0.958930
C4521	C452	0.556300	0.018200	0.948220
C4531	C453	0.822800	0.103200	0.095580
C4541	C454	0.748800	0.068800	0.106350
H3011	H301	0.459400	0.976500	0.964600
C4551	C455	0.466900	0.939700	0.950160
C4561	C456	0.541300	0.983100	0.939910
C4571	C457	0.603100	0.056200	0.945800
C4581	C458	0.837000	0.081600	0.105000
H3021	H302	0.844100	0.124300	0.089600
C4591	C459	0.761500	0.047400	0.115210
C4601	C460	0.700200	0.056600	0.108150
H3031	H303	0.438000	0.912100	0.951100
C4611	C461	0.497100	0.945600	0.939690
C4621	C462	0.579400	0.991400	0.930260
H3041	H304	0.613100	0.081800	0.952100
C4631	C463	0.604800	0.071000	0.933500
C4641	C464	0.631100	0.033500	0.946500
C4651	C465	0.804300	0.054500	0.115400
H3051	H305	0.866700	0.084600	0.104600
C4661	C466	0.728600	0.017400	0.124370
H3061	H306	0.689700	0.071300	0.101700
C4671	C467	0.671800	0.007900	0.108550
C4681	C468	0.701700	0.074900	0.121910
O891	O89	0.485900	0.913400	0.930940
H3071	H307	0.569700	0.966200	0.923800
C4691	C469	0.591400	0.038200	0.924500
C4701	C470	0.619900	0.999800	0.937600
C4711	C471	0.619100	0.115400	0.929400
C4721	C472	0.669100	0.045800	0.954500
O901	O90	0.824300	0.037400	0.124180
H3081	H308	0.740000	0.001200	0.130000
C4731	C473	0.686200	0.986300	0.117260
C4741	C474	0.718300	0.052300	0.131380
C4751	C475	0.632100	0.979900	0.101370
C4761	C476	0.687100	0.104800	0.125640
C4771	C477	0.444500	0.880000	0.930050
C4781	C478	0.591400	0.050700	0.910500
C4791	C479	0.639200	0.976300	0.935830
C4801	C480	0.614000	0.122300	0.914000
H3091	H309	0.631300	0.140700	0.935100
C4811	C481	0.690400	0.021800	0.953600
H3101	H310	0.679000	0.070500	0.960400
C4821	C482	0.871200	0.055500	0.125570
C4831	C483	0.663100	0.941400	0.118600
C4841	C484	0.718700	0.063200	0.143780
H3111	H311	0.621000	0.994500	0.095800
C4851	C485	0.608600	0.933300	0.101900
H3121	H312	0.676700	0.118800	0.119700
C4861	C486	0.688300	0.113900	0.138640
H3131	H313	0.424000	0.893100	0.928900
H3141	H314	0.436100	0.863200	0.938200
C4871	C487	0.434700	0.845700	0.919690
H3151	H315	0.582500	0.027500	0.904200
C4881	C488	0.603800	0.094200	0.907000
H3161	H316	0.627200	0.952200	0.929700
C4891	C489	0.679800	0.986100	0.943000
H3171	H317	0.620200	0.151700	0.911100
H3181	H318	0.713200	0.026700	0.959700
H3191	H319	0.887000	0.089600	0.126000
H3201	H320	0.883800	0.046800	0.118300
C4901	C490	0.878400	0.036600	0.137300
C4911	C491	0.623700	0.915600	0.111200
H3211	H321	0.673100	0.926600	0.124400
C4921	C492	0.707500	0.094300	0.147510
H3221	H322	0.727200	0.048200	0.150000
H3231	H323	0.584000	0.914600	0.096300
H3241	H324	0.676600	0.132700	0.141700
C4931	C493	0.467500	0.857200	0.910420
C4941	C494	0.394300	0.802100	0.918530
H3251	H325	0.603700	0.100800	0.898300
H3261	H326	0.697900	0.972000	0.941400
C4951	C495	0.924300	0.047300	0.141200
C4961	C496	0.846200	0.014800	0.145800
H3271	H327	0.606000	0.883400	0.112800
H3281	H328	0.712100	0.104000	0.156100
H3291	H329	0.495200	0.886000	0.911000
C4971	C497	0.462100	0.828600	0.900090
C4981	C498	0.389800	0.775200	0.908380
H3301	H330	0.370700	0.791700	0.924800
H3311	H331	0.950700	0.064200	0.136000
C4991	C499	0.927000	0.031000	0.153280
C5001	C500	0.851100	0.992700	0.157790
H3321	H332	0.817100	0.012600	0.144400
H3331	H333	0.484900	0.838200	0.893700
C5011	C501	0.421300	0.784700	0.899590
H3341	H334	0.361400	0.747100	0.907500
H3351	H335	0.957400	0.040200	0.156000
C5021	C502	0.895500	0.005800	0.161170
H3361	H336	0.825300	0.971300	0.162600
C5031	C503	0.416200	0.752700	0.889200
C5041	C504	0.903000	0.984600	0.171900
O911	O91	0.943100	0.006600	0.175790
Zn151	Zn15	0.288900	0.554350	0.372950
O921	O92	0.326170	0.611130	0.364300
O931	O93	0.259470	0.507630	0.359670
O941	O94	0.325370	0.536930	0.382470
O951	O95	0.242070	0.549330	0.383380
Zn161	Zn16	0.369270	0.594230	0.356730
C5051	C505	0.285670	0.511030	0.350620
C5061	C506	0.367470	0.547630	0.379000
O961	O96	0.326770	0.537530	0.347990
O971	O97	0.392470	0.573630	0.370150
O981	O98	0.418670	0.624430	0.344810
O991	O99	0.375270	0.654030	0.387220
C5071	C507	0.258070	0.473930	0.340400
C5081	C508	0.390070	0.528630	0.387950
C5091	C509	0.279770	0.471530	0.328890
C5101	C510	0.213370	0.441830	0.341550
C5111	C511	0.367270	0.500330	0.399020
C5121	C512	0.431170	0.532130	0.384600
C5131	C513	0.256070	0.439130	0.320500
H3371	H337	0.311170	0.493330	0.327330
H3381	H338	0.197770	0.442530	0.349030
C5141	C514	0.188070	0.407730	0.332730
C5151	C515	0.387970	0.481530	0.406500
H3391	H339	0.337270	0.494530	0.401230
H3401	H340	0.445470	0.546130	0.376830
C5161	C516	0.452870	0.514530	0.392960
C5171	C517	0.208970	0.406530	0.321500
H3411	H341	0.272070	0.437630	0.313230
H3421	H342	0.156770	0.385430	0.334330
C5181	C518	0.431070	0.489830	0.403550
H3431	H343	0.372170	0.463030	0.413630
H3441	H344	0.482970	0.520230	0.391030
C5191	C519	0.181470	0.373030	0.311510
C5201	C520	0.457670	0.474530	0.411690
H3451	H345	0.168670	0.341230	0.314730
H3461	H346	0.155370	0.377430	0.309030
O1001	O100	0.209270	0.379430	0.301070
H3471	H347	0.469070	0.457630	0.406530
H3481	H348	0.484570	0.501630	0.415530
O1011	O101	0.428070	0.445830	0.421200
C5211	C521	0.194070	0.343030	0.292540
C5221	C522	0.444470	0.425630	0.428810
C5231	C523	0.147670	0.308830	0.292260
C5241	C524	0.222970	0.351530	0.281550
C5251	C525	0.489470	0.436530	0.428910
C5261	C526	0.415470	0.402130	0.439680
H3491	H349	0.126070	0.309830	0.297930
C5271	C527	0.133570	0.273030	0.283490
C5281	C528	0.207970	0.316430	0.273240
C5291	C529	0.269770	0.389530	0.279130
C5301	C530	0.503670	0.414930	0.438330
H3501	H350	0.510770	0.457630	0.422930
C5311	C531	0.428170	0.380730	0.448540
C5321	C532	0.366870	0.389930	0.441480
H3511	H351	0.104670	0.245430	0.284430
C5331	C533	0.163770	0.278930	0.273020
C5341	C534	0.246070	0.324730	0.263590
H3521	H352	0.279770	0.415130	0.285430
C5351	C535	0.271470	0.404330	0.266830
C5361	C536	0.297770	0.366830	0.279830
C5371	C537	0.470970	0.387830	0.448730
H3531	H353	0.533370	0.417930	0.437930
C5381	C538	0.395270	0.350730	0.457700
H3541	H354	0.356370	0.404630	0.435030
C5391	C539	0.338470	0.341230	0.441880
C5401	C540	0.368370	0.408230	0.455240
O1021	O102	0.152570	0.246730	0.264270
H3551	H355	0.236370	0.299530	0.257130
C5411	C541	0.258070	0.371530	0.257830
C5421	C542	0.286570	0.333130	0.270930
C5431	C543	0.285770	0.448730	0.262730
C5441	C544	0.335770	0.379130	0.287830
O1031	O103	0.490970	0.370730	0.457510
H3561	H356	0.406670	0.334530	0.463330
C5451	C545	0.352870	0.319630	0.450590
C5461	C546	0.384970	0.385630	0.464710
C5471	C547	0.298770	0.313230	0.434700
C5481	C548	0.353770	0.438130	0.458970
C5491	C549	0.111170	0.213330	0.263380
C5501	C550	0.258070	0.384030	0.243830
C5511	C551	0.305870	0.309630	0.269160
C5521	C552	0.280670	0.455630	0.247330
H3571	H357	0.297970	0.474030	0.268430
C5531	C553	0.357070	0.355130	0.286930
H3581	H358	0.345670	0.403830	0.293730
C5541	C554	0.537870	0.388830	0.458900
C5551	C555	0.329770	0.274730	0.451930
C5561	C556	0.385370	0.396530	0.477110
H3591	H359	0.287670	0.327830	0.429130
C5571	C557	0.275270	0.266630	0.435230
H3601	H360	0.343370	0.452130	0.453030
C5581	C558	0.354970	0.447230	0.471970
H3611	H361	0.090670	0.226430	0.262230
H3621	H362	0.102770	0.196530	0.271530
C5591	C559	0.101370	0.179030	0.253020
H3631	H363	0.249170	0.360830	0.237530
C5601	C560	0.270470	0.427530	0.240330
H3641	H364	0.293870	0.285530	0.263030
C5611	C561	0.346470	0.319430	0.276330
H3651	H365	0.286870	0.485030	0.244430
H3661	H366	0.379870	0.360030	0.293030
H3671	H367	0.553670	0.422930	0.459330
H3681	H368	0.550470	0.380130	0.451630
C5621	C562	0.545070	0.369930	0.470630
C5631	C563	0.290370	0.248930	0.444530
H3691	H369	0.339770	0.259930	0.457730
C5641	C564	0.374170	0.427630	0.480840
H3701	H370	0.393870	0.381530	0.483330
H3711	H371	0.250670	0.247930	0.429630
H3721	H372	0.343270	0.466030	0.475030
C5651	C565	0.134170	0.190530	0.243750
C5661	C566	0.060970	0.135430	0.251860
H3731	H373	0.270370	0.434130	0.231630
H3741	H374	0.364570	0.305330	0.274730
C5671	C567	0.590970	0.380630	0.474530
C5681	C568	0.512870	0.348130	0.479130
H3751	H375	0.272670	0.216730	0.446130
H3761	H376	0.378770	0.437330	0.489430
H3771	H377	0.161870	0.219330	0.244330
C5691	C569	0.128770	0.161930	0.233420
C5701	C570	0.056470	0.108530	0.241710
H3781	H378	0.037370	0.125030	0.258130
H3791	H379	0.617370	0.397530	0.469330
C5711	C571	0.593670	0.364330	0.486610
C5721	C572	0.517770	0.326030	0.491120
H3801	H380	0.483770	0.345930	0.477730
H3811	H381	0.151570	0.171530	0.227030
C5731	C573	0.087970	0.118030	0.232920
H3821	H382	0.028070	0.080430	0.240830
H3831	H383	0.624070	0.373530	0.489330
C5741	C574	0.562170	0.339130	0.494500
H3841	H384	0.491970	0.304630	0.495930
C5751	C575	0.082870	0.086030	0.222530
C5761	C576	0.569670	0.317930	0.505230
O1041	O104	0.609770	0.339930	0.509120
Zn171	Zn17	0.955560	0.887690	0.706290
O1051	O105	0.992830	0.944470	0.697640
O1061	O106	0.926130	0.840970	0.693010
O1071	O107	0.992030	0.870270	0.715810
O1081	O108	0.908730	0.882670	0.716720
Zn181	Zn18	0.035930	0.927570	0.690070
C5771	C577	0.952330	0.844370	0.683960
C5781	C578	0.034130	0.880970	0.712340
O1091	O109	0.993430	0.870870	0.681330
O1101	O110	0.059130	0.906970	0.703490
O1111	O111	0.085330	0.957770	0.678150
O1121	O112	0.041930	0.987370	0.720560
C5791	C579	0.924730	0.807270	0.673740
C5801	C580	0.056730	0.861970	0.721290
C5811	C581	0.946430	0.804870	0.662230
C5821	C582	0.880030	0.775170	0.674890
C5831	C583	0.033930	0.833670	0.732360
C5841	C584	0.097830	0.865470	0.717940
C5851	C585	0.922730	0.772470	0.653840
H3851	H385	0.977830	0.826670	0.660670
H3861	H386	0.864430	0.775870	0.682370
C5861	C586	0.854730	0.741070	0.666070
C5871	C587	0.054630	0.814870	0.739840
H3871	H387	0.003930	0.827870	0.734570
H3881	H388	0.112130	0.879470	0.710170
C5881	C588	0.119530	0.847870	0.726300
C5891	C589	0.875630	0.739870	0.654840
H3891	H389	0.938730	0.770970	0.646570
H3901	H390	0.823430	0.718770	0.667670
C5901	C590	0.097730	0.823170	0.736890
H3911	H391	0.038830	0.796370	0.746970
H3921	H392	0.149630	0.853570	0.724370
C5911	C591	0.848130	0.706370	0.644850
C5921	C592	0.124330	0.807870	0.745030
H3931	H393	0.835330	0.674570	0.648070
H3941	H394	0.822030	0.710770	0.642370
O1131	O113	0.875930	0.712770	0.634410
H3951	H395	0.135730	0.790970	0.739870
H3961	H396	0.151230	0.834970	0.748870
O1141	O114	0.094730	0.779170	0.754540
C5931	C593	0.860730	0.676370	0.625880
C5941	C594	0.111130	0.758970	0.762150
C5951	C595	0.814330	0.642170	0.625600
C5961	C596	0.889630	0.684870	0.614890
C5971	C597	0.156130	0.769870	0.762250
C5981	C598	0.082130	0.735470	0.773020
H3971	H397	0.792730	0.643170	0.631270
C5991	C599	0.800230	0.606370	0.616830
C6001	C600	0.874630	0.649770	0.606580
C6011	C601	0.936430	0.722870	0.612470
C6021	C602	0.170330	0.748270	0.771670
H3981	H398	0.177430	0.790970	0.756270
C6031	C603	0.094830	0.714070	0.781880
C6041	C604	0.033530	0.723270	0.774820
H3991	H399	0.771330	0.578770	0.617770
C6051	C605	0.830430	0.612270	0.606360
C6061	C606	0.912730	0.658070	0.596930
H4001	H400	0.946430	0.748470	0.618770
C6071	C607	0.938130	0.737670	0.600170
C6081	C608	0.964430	0.700170	0.613170
C6091	C609	0.137630	0.721170	0.782070
H4011	H401	0.200030	0.751270	0.771270
C6101	C610	0.061930	0.684070	0.791040
H4021	H402	0.023030	0.737970	0.768370
C6111	C611	0.005130	0.674570	0.775220
C6121	C612	0.035030	0.741570	0.788580
O1151	O115	0.819230	0.580070	0.597610
H4031	H403	0.903030	0.632870	0.590470
C6131	C613	0.924730	0.704870	0.591170
C6141	C614	0.953230	0.666470	0.604270
C6151	C615	0.952430	0.782070	0.596070
C6161	C616	0.002430	0.712470	0.621170
O1161	O116	0.157630	0.704070	0.790850
H4041	H404	0.073330	0.667870	0.796670
C6171	C617	0.019530	0.652970	0.783930
C6181	C618	0.051630	0.718970	0.798050
C6191	C619	0.965430	0.646570	0.768040
C6201	C620	0.020430	0.771470	0.792310
C6211	C621	0.777830	0.546670	0.596720
C6221	C622	0.924730	0.717370	0.577170
C6231	C623	0.972530	0.642970	0.602500
C6241	C624	0.947330	0.788970	0.580670
H4051	H405	0.964630	0.807370	0.601770
C6251	C625	0.023730	0.688470	0.620270
H4061	H406	0.012330	0.737170	0.627070
C6261	C626	0.204530	0.722170	0.792240
C6271	C627	0.996430	0.608070	0.785270
C6281	C628	0.052030	0.729870	0.810450
H4071	H407	0.954330	0.661170	0.762470
C6291	C629	0.941930	0.599970	0.768570
H4081	H408	0.010030	0.785470	0.786370
C6301	C630	0.021630	0.780570	0.805310
H4091	H409	0.757330	0.559770	0.595570
H4101	H410	0.769430	0.529870	0.604870
C6311	C631	0.768030	0.512370	0.586360
H4111	H411	0.915830	0.694170	0.570870
C6321	C632	0.937130	0.760870	0.573670
H4121	H412	0.960530	0.618870	0.596370
C6331	C633	0.013130	0.652770	0.609670
H4131	H413	0.953530	0.818370	0.577770
H4141	H414	0.046530	0.693370	0.626370
H4151	H415	0.220330	0.756270	0.792670
H4161	H416	0.217130	0.713470	0.784970
C6341	C634	0.211730	0.703270	0.803970
C6351	C635	0.957030	0.582270	0.777870
H4171	H417	0.006430	0.593270	0.791070
C6361	C636	0.040830	0.760970	0.814180
H4181	H418	0.060530	0.714870	0.816670
H4191	H419	0.917330	0.581270	0.762970
H4201	H420	0.009930	0.799370	0.808370
C6371	C637	0.800830	0.523870	0.577090
C6381	C638	0.727630	0.468770	0.585200
H4211	H421	0.937030	0.767470	0.564970
H4221	H422	0.031230	0.638670	0.608070
C6391	C639	0.257630	0.713970	0.807870
C6401	C640	0.179530	0.681470	0.812470
H4231	H423	0.939330	0.550070	0.779470
H4241	H424	0.045430	0.770670	0.822770
H4251	H425	0.828530	0.552670	0.577670
C6411	C641	0.795430	0.495270	0.566760
C6421	C642	0.723130	0.441870	0.575050
H4261	H426	0.704030	0.458370	0.591470
H4271	H427	0.284030	0.730870	0.802670
C6431	C643	0.260330	0.697670	0.819950
C6441	C644	0.184430	0.659370	0.824460
H4281	H428	0.150430	0.679270	0.811070
H4291	H429	0.818230	0.504870	0.560370
C6451	C645	0.754630	0.451370	0.566260
H4301	H430	0.694730	0.413770	0.574170
H4311	H431	0.290730	0.706870	0.822670
C6461	C646	0.228830	0.672470	0.827840
H4321	H432	0.158630	0.637970	0.829270
C6471	C647	0.749530	0.419370	0.555870
C6481	C648	0.236330	0.651270	0.838570
O1171	O117	0.276430	0.673270	0.842460
Zn191	Zn19	0.598790	0.221020	0.539620
O1181	O118	0.618300	0.277800	0.530970
O1191	O119	0.581500	0.174300	0.526340
O1201	O120	0.544900	0.203600	0.549140
O1211	O121	0.640600	0.216000	0.550050
Zn201	Zn20	0.558300	0.260900	0.523400
C6491	C649	0.558700	0.177700	0.517290
C6501	C650	0.513500	0.214300	0.545670
O1221	O122	0.544100	0.204200	0.514660
O1231	O123	0.514500	0.240300	0.536820
O1241	O124	0.539100	0.291100	0.511480
O1251	O125	0.612100	0.320700	0.553890
C6511	C651	0.549200	0.140600	0.507070
C6521	C652	0.471900	0.195300	0.554620
C6531	C653	0.525100	0.138200	0.495560
C6541	C654	0.561800	0.108500	0.508220
C6551	C655	0.466400	0.167000	0.565690
C6561	C656	0.434300	0.198800	0.551270
C6571	C657	0.516400	0.105800	0.487170
H4331	H433	0.515500	0.160000	0.494000
H4341	H434	0.578100	0.109200	0.515700
C6581	C658	0.553000	0.074400	0.499400
C6591	C659	0.426900	0.148200	0.573170
H4351	H435	0.490600	0.161200	0.567900
H4361	H436	0.434000	0.212800	0.543500
C6601	C660	0.395000	0.181200	0.559630
C6611	C661	0.530900	0.073200	0.488170
H4371	H437	0.498900	0.104300	0.479900
H4381	H438	0.562000	0.052100	0.501000
C6621	C662	0.392100	0.156500	0.570220
H4391	H439	0.424200	0.129700	0.580300
H4401	H440	0.370600	0.186900	0.557700
C6631	C663	0.524900	0.039700	0.478180
C6641	C664	0.350200	0.141200	0.578360
H4411	H441	0.505900	0.007900	0.481400
H4421	H442	0.555400	0.044100	0.475700
O1261	O126	0.503500	0.046100	0.467740
H4431	H443	0.321900	0.124300	0.573200
H4441	H444	0.350400	0.168300	0.582200
O1271	O127	0.351100	0.112500	0.587870
C6651	C665	0.482300	0.009700	0.459210
C6661	C666	0.314500	0.092300	0.595480
C6671	C667	0.494500	0.975500	0.458930
C6681	C668	0.461900	0.018200	0.448220
C6691	C669	0.280400	0.103200	0.595580
C6701	C670	0.320000	0.068800	0.606350
H4451	H445	0.517100	0.976500	0.464600
C6711	C671	0.472800	0.939700	0.450160
C6721	C672	0.441800	0.983100	0.439910
C6731	C673	0.453100	0.056200	0.445800
C6741	C674	0.244600	0.081600	0.605000
H4461	H446	0.280200	0.124300	0.589600
C6751	C675	0.285900	0.047400	0.615210
C6761	C676	0.356400	0.056600	0.608150
H4471	H447	0.474100	0.912100	0.451100
C6771	C677	0.448500	0.945600	0.439690
C6781	C678	0.412000	0.991400	0.430260
H4481	H448	0.468700	0.081800	0.452100
C6791	C679	0.466200	0.071000	0.433500
C6801	C680	0.402400	0.033500	0.446500
C6811	C681	0.250200	0.054500	0.615400
H4491	H449	0.217900	0.084600	0.604600
C6821	C682	0.288800	0.017400	0.624370
H4501	H450	0.381600	0.071300	0.601700
C6831	C683	0.336100	0.007900	0.608550
C6841	C684	0.373200	0.074900	0.621910
O1281	O128	0.427500	0.913400	0.430940
H4511	H451	0.396500	0.966200	0.423800
C6851	C685	0.446800	0.038200	0.424500
C6861	C686	0.379900	0.999800	0.437600
C6871	C687	0.496300	0.115400	0.429400
C6881	C688	0.376700	0.045800	0.454500
O1291	O129	0.213100	0.037400	0.624180
H4521	H452	0.261200	0.001200	0.630000
C6891	C689	0.300100	0.986300	0.617260
C6901	C690	0.334000	0.052300	0.631380
C6911	C691	0.347800	0.979900	0.601370
C6921	C692	0.417700	0.104800	0.625640
C6931	C693	0.435500	0.880000	0.430050
C6941	C694	0.459300	0.050700	0.410500
C6951	C695	0.337100	0.976300	0.435830
C6961	C696	0.508300	0.122300	0.414000
H4531	H453	0.509400	0.140700	0.435100
C6971	C697	0.331400	0.021800	0.453600
H4541	H454	0.391500	0.070500	0.460400
C6981	C698	0.184300	0.055500	0.625570
C6991	C699	0.278300	0.941400	0.618600
C7001	C700	0.344500	0.063200	0.643780
H4551	H455	0.373500	0.994500	0.595800
C7011	C701	0.324700	0.933300	0.601900
H4561	H456	0.442100	0.118800	0.619700
C7021	C702	0.425600	0.113900	0.638640
H4571	H457	0.469100	0.893100	0.428900
H4581	H458	0.427100	0.863200	0.438200
C7031	C703	0.411000	0.845700	0.419690
H4591	H459	0.445000	0.027500	0.404200
C7041	C704	0.490400	0.094200	0.407000
H4601	H460	0.325000	0.952200	0.429700
C7051	C705	0.306300	0.986100	0.443000
H4611	H461	0.531500	0.151700	0.411100
H4621	H462	0.313500	0.026700	0.459700
H4631	H463	0.202600	0.089600	0.626000
H4641	H464	0.163000	0.046800	0.618300
C7061	C706	0.158200	0.036600	0.637300
C7071	C707	0.291900	0.915600	0.611200
H4651	H465	0.253500	0.926600	0.624400
C7081	C708	0.386800	0.094300	0.647510
H4661	H466	0.321000	0.048200	0.650000
H4671	H467	0.330600	0.914600	0.596300
H4681	H468	0.456100	0.132700	0.641700
C7091	C709	0.389700	0.857200	0.410420
C7101	C710	0.407800	0.802100	0.418530
H4691	H469	0.497100	0.100800	0.398300
H4701	H470	0.274100	0.972000	0.441400
C7111	C711	0.123000	0.047300	0.641200
C7121	C712	0.168600	0.014800	0.645800
H4711	H471	0.277400	0.883400	0.612800
H4721	H472	0.391900	0.104000	0.656100
H4731	H473	0.390800	0.886000	0.411000
C7131	C713	0.366500	0.828600	0.400090
C7141	C714	0.385400	0.775200	0.408380
H4741	H474	0.421000	0.791700	0.424800
H4751	H475	0.113500	0.064200	0.636000
C7151	C715	0.104000	0.031000	0.653280
C7161	C716	0.141600	0.992700	0.657790
H4761	H476	0.195500	0.012600	0.644400
H4771	H477	0.353300	0.838200	0.393700
C7171	C717	0.363400	0.784700	0.399590
H4781	H478	0.385700	0.747100	0.407500
H4791	H479	0.082800	0.040200	0.656000
C7181	C718	0.110300	0.005800	0.661170
H4801	H480	0.146000	0.971300	0.662600
C7191	C719	0.336500	0.752700	0.389200
C7201	C720	0.081600	0.984600	0.671900
O1301	O130	0.063500	0.006600	0.675790
Zn211	Zn21	0.265460	0.554350	0.872950
O1311	O131	0.284970	0.611130	0.864300
O1321	O132	0.248170	0.507630	0.859670
O1331	O133	0.211570	0.536930	0.882470
O1341	O134	0.307270	0.549330	0.883380
Zn221	Zn22	0.224970	0.594230	0.856730
C7211	C721	0.225370	0.511030	0.850620
C7221	C722	0.180170	0.547630	0.879000
O1351	O135	0.210770	0.537530	0.847990
O1361	O136	0.181170	0.573630	0.870150
O1371	O137	0.205770	0.624430	0.844810
O1381	O138	0.278770	0.654030	0.887220
C7231	C723	0.215870	0.473930	0.840400
C7241	C724	0.138570	0.528630	0.887950
C7251	C725	0.191770	0.471530	0.828890
C7261	C726	0.228470	0.441830	0.841550
C7271	C727	0.133070	0.500330	0.899020
C7281	C728	0.100970	0.532130	0.884600
C7291	C729	0.183070	0.439130	0.820500
H4811	H481	0.182170	0.493330	0.827330
H4821	H482	0.244770	0.442530	0.849030
C7301	C730	0.219670	0.407730	0.832730
C7311	C731	0.093570	0.481530	0.906500
H4831	H483	0.157270	0.494530	0.901230
H4841	H484	0.100670	0.546130	0.876830
C7321	C732	0.061670	0.514530	0.892960
C7331	C733	0.197570	0.406530	0.821500
H4851	H485	0.165570	0.437630	0.813230
H4861	H486	0.228670	0.385430	0.834330
C7341	C734	0.058770	0.489830	0.903550
H4871	H487	0.090870	0.463030	0.913630
H4881	H488	0.037270	0.520230	0.891030
C7351	C735	0.191570	0.373030	0.811510
C7361	C736	0.016870	0.474530	0.911690
H4891	H489	0.172570	0.341230	0.814730
H4901	H490	0.222070	0.377430	0.809030
O1391	O139	0.170170	0.379430	0.801070
H4911	H491	0.988570	0.457630	0.906530
H4921	H492	0.017070	0.501630	0.915530
O1401	O140	0.017770	0.445830	0.921200
C7371	C737	0.148970	0.343030	0.792540
C7381	C738	0.981170	0.425630	0.928810
C7391	C739	0.161170	0.308830	0.792260
C7401	C740	0.128570	0.351530	0.781550
C7411	C741	0.947070	0.436530	0.928910
C7421	C742	0.986670	0.402130	0.939680
H4931	H493	0.183770	0.309830	0.797930
C7431	C743	0.139470	0.273030	0.783490
C7441	C744	0.108470	0.316430	0.773240
C7451	C745	0.119770	0.389530	0.779130
C7461	C746	0.911270	0.414930	0.938330
H4941	H494	0.946870	0.457630	0.922930
C7471	C747	0.952570	0.380730	0.948540
C7481	C748	0.023070	0.389930	0.941480
H4951	H495	0.140770	0.245430	0.784430
C7491	C749	0.115170	0.278930	0.773020
C7501	C750	0.078670	0.324730	0.763590
H4961	H496	0.135370	0.415130	0.785430
C7511	C751	0.132870	0.404330	0.766830
C7521	C752	0.069070	0.366830	0.779830
C7531	C753	0.916870	0.387830	0.948730
H4971	H497	0.884570	0.417930	0.937930
C7541	C754	0.955470	0.350730	0.957700
H4981	H498	0.048270	0.404630	0.935030
C7551	C755	0.002770	0.341230	0.941880
C7561	C756	0.039870	0.408230	0.955240
O1411	O141	0.094170	0.246730	0.764270
H4991	H499	0.063170	0.299530	0.757130
C7571	C757	0.113470	0.371530	0.757830
C7581	C758	0.046570	0.333130	0.770930
C7591	C759	0.162970	0.448730	0.762730
C7601	C760	0.043370	0.379130	0.787830
O1421	O142	0.879770	0.370730	0.957510
H5001	H500	0.927870	0.334530	0.963330
C7611	C761	0.966770	0.319630	0.950590
C7621	C762	0.000670	0.385630	0.964710
C7631	C763	0.014470	0.313230	0.934700
C7641	C764	0.084370	0.438130	0.958970
C7651	C765	0.102170	0.213330	0.763380
C7661	C766	0.125970	0.384030	0.743830
C7671	C767	0.003770	0.309630	0.769160
C7681	C768	0.174970	0.455630	0.747330
H5011	H501	0.176070	0.474030	0.768430
C7691	C769	0.998070	0.355130	0.786930
H5021	H502	0.058170	0.403830	0.793730
C7701	C770	0.850970	0.388830	0.958900
C7711	C771	0.944970	0.274730	0.951930
C7721	C772	0.011170	0.396530	0.977110
H5031	H503	0.040170	0.327830	0.929130
C7731	C773	0.991370	0.266630	0.935230
H5041	H504	0.108770	0.452130	0.953030
C7741	C774	0.092270	0.447230	0.971970
H5051	H505	0.135770	0.226430	0.762230
H5061	H506	0.093770	0.196530	0.771530
C7751	C775	0.077670	0.179030	0.753020
H5071	H507	0.111670	0.360830	0.737530
C7761	C776	0.157070	0.427530	0.740330
H5081	H508	0.991670	0.285530	0.763030
C7771	C777	0.972970	0.319430	0.776330
H5091	H509	0.198170	0.485030	0.744430
H5101	H510	0.980170	0.360030	0.793030
H5111	H511	0.869270	0.422930	0.959330
H5121	H512	0.829670	0.380130	0.951630
C7781	C778	0.824870	0.369930	0.970630
C7791	C779	0.958570	0.248930	0.944530
H5131	H513	0.920170	0.259930	0.957730
C7801	C780	0.053470	0.427630	0.980840
H5141	H514	0.987670	0.381530	0.983330
H5151	H515	0.997270	0.247930	0.929630
H5161	H516	0.122770	0.466030	0.975030
C7811	C781	0.056370	0.190530	0.743750
C7821	C782	0.074470	0.135430	0.751860
H5171	H517	0.163770	0.434130	0.731630
H5181	H518	0.940770	0.305330	0.774730
C7831	C783	0.789670	0.380630	0.974530
C7841	C784	0.835270	0.348130	0.979130
H5191	H519	0.944070	0.216730	0.946130
H5201	H520	0.058570	0.437330	0.989430
H5211	H521	0.057470	0.219330	0.744330
C7851	C785	0.033170	0.161930	0.733420
C7861	C786	0.052070	0.108530	0.741710
H5221	H522	0.087670	0.125030	0.758130
H5231	H523	0.780170	0.397530	0.969330
C7871	C787	0.770670	0.364330	0.986610
C7881	C788	0.808270	0.326030	0.991120
H5241	H524	0.862170	0.345930	0.977730
H5251	H525	0.019970	0.171530	0.727030
C7891	C789	0.030070	0.118030	0.732920
H5261	H526	0.052370	0.080430	0.740830
H5271	H527	0.749470	0.373530	0.989330
C7901	C790	0.776970	0.339130	0.994500
H5281	H528	0.812670	0.304630	0.995930
C7911	C791	0.003170	0.086030	0.722530
C7921	C792	0.748270	0.317930	0.005230
O1431	O143	0.730170	0.339930	0.009120
Zn231	Zn23	0.932120	0.887690	0.206290
O1441	O144	0.951630	0.944470	0.197640
O1451	O145	0.914830	0.840970	0.193010
O1461	O146	0.878230	0.870270	0.215810
O1471	O147	0.973930	0.882670	0.216720
Zn241	Zn24	0.891630	0.927570	0.190070
C7931	C793	0.892030	0.844370	0.183960
C7941	C794	0.846830	0.880970	0.212340
O1481	O148	0.877430	0.870870	0.181330
O1491	O149	0.847830	0.906970	0.203490
O1501	O150	0.872430	0.957770	0.178150
O1511	O151	0.945430	0.987370	0.220560
C7951	C795	0.882530	0.807270	0.173740
C7961	C796	0.805230	0.861970	0.221290
C7971	C797	0.858430	0.804870	0.162230
C7981	C798	0.895130	0.775170	0.174890
C7991	C799	0.799730	0.833670	0.232360
C8001	C800	0.767630	0.865470	0.217940
C8011	C801	0.849730	0.772470	0.153840
H5291	H529	0.848830	0.826670	0.160670
H5301	H530	0.911430	0.775870	0.182370
C8021	C802	0.886330	0.741070	0.166070
C8031	C803	0.760230	0.814870	0.239840
H5311	H531	0.823930	0.827870	0.234570
H5321	H532	0.767330	0.879470	0.210170
C8041	C804	0.728330	0.847870	0.226300
C8051	C805	0.864230	0.739870	0.154840
H5331	H533	0.832230	0.770970	0.146570
H5341	H534	0.895330	0.718770	0.167670
C8061	C806	0.725430	0.823170	0.236890
H5351	H535	0.757530	0.796370	0.246970
H5361	H536	0.703930	0.853570	0.224370
C8071	C807	0.858230	0.706370	0.144850
C8081	C808	0.683530	0.807870	0.245030
H5371	H537	0.839230	0.674570	0.148070
H5381	H538	0.888730	0.710770	0.142370
O1521	O152	0.836830	0.712770	0.134410
H5391	H539	0.655230	0.790970	0.239870
H5401	H540	0.683730	0.834970	0.248870
O1531	O153	0.684430	0.779170	0.254540
C8091	C809	0.815630	0.676370	0.125880
C8101	C810	0.647830	0.758970	0.262150
C8111	C811	0.827830	0.642170	0.125600
C8121	C812	0.795230	0.684870	0.114890
C8131	C813	0.613730	0.769870	0.262250
C8141	C814	0.653330	0.735470	0.273020
H5411	H541	0.850430	0.643170	0.131270
C8151	C815	0.806130	0.606370	0.116830
C8161	C816	0.775130	0.649770	0.106580
C8171	C817	0.786430	0.722870	0.112470
C8181	C818	0.577930	0.748270	0.271670
H5421	H542	0.613530	0.790970	0.256270
C8191	C819	0.619230	0.714070	0.281880
C8201	C820	0.689730	0.723270	0.274820
H5431	H543	0.807430	0.578770	0.117770
C8211	C821	0.781830	0.612270	0.106360
C8221	C822	0.745330	0.658070	0.096930
H5441	H544	0.802030	0.748470	0.118770
C8231	C823	0.799530	0.737670	0.100170
C8241	C824	0.735730	0.700170	0.113170
C8251	C825	0.583530	0.721170	0.282070
H5451	H545	0.551230	0.751270	0.271270
C8261	C826	0.622130	0.684070	0.291040
H5461	H546	0.714930	0.737970	0.268370
C8271	C827	0.669430	0.674570	0.275220
C8281	C828	0.706530	0.741570	0.288580
O1541	O154	0.760830	0.580070	0.097610
H5471	H547	0.729830	0.632870	0.090470
C8291	C829	0.780130	0.704870	0.091170
C8301	C830	0.713230	0.666470	0.104270
C8311	C831	0.829630	0.782070	0.096070
C8321	C832	0.710030	0.712470	0.121170
O1551	O155	0.546430	0.704070	0.290850
H5481	H548	0.594530	0.667870	0.296670
C8331	C833	0.633430	0.652970	0.283930
C8341	C834	0.667330	0.718970	0.298050
C8351	C835	0.681130	0.646570	0.268040
C8361	C836	0.751030	0.771470	0.292310
C8371	C837	0.768830	0.546670	0.096720
C8381	C838	0.792630	0.717370	0.077170
C8391	C839	0.670430	0.642970	0.102500
C8401	C840	0.841630	0.788970	0.080670
H5491	H549	0.842730	0.807370	0.101770
C8411	C841	0.664730	0.688470	0.120270
H5501	H550	0.724830	0.737170	0.127070
C8421	C842	0.517630	0.722170	0.292240
C8431	C843	0.611630	0.608070	0.285270
C8441	C844	0.677830	0.729870	0.310450
H5511	H551	0.706830	0.661170	0.262470
C8451	C845	0.658030	0.599970	0.268570
H5521	H552	0.775430	0.785470	0.286370
C8461	C846	0.758930	0.780570	0.305310
H5531	H553	0.802430	0.559770	0.095570
H5541	H554	0.760430	0.529870	0.104870
C8471	C847	0.744330	0.512370	0.086360
H5551	H555	0.778330	0.694170	0.070870
C8481	C848	0.823730	0.760870	0.073670
H5561	H556	0.658330	0.618870	0.096370
C8491	C849	0.639630	0.652770	0.109670
H5571	H557	0.864830	0.818370	0.077770
H5581	H558	0.646830	0.693370	0.126370
H5591	H559	0.535930	0.756270	0.292670
H5601	H560	0.496330	0.713470	0.284970
C8501	C850	0.491530	0.703270	0.303970
C8511	C851	0.625230	0.582270	0.277870
H5611	H561	0.586830	0.593270	0.291070
C8521	C852	0.720130	0.760970	0.314180
H5621	H562	0.654330	0.714870	0.316670
H5631	H563	0.663930	0.581270	0.262970
H5641	H564	0.789430	0.799370	0.308370
C8531	C853	0.723030	0.523870	0.077090
C8541	C854	0.741130	0.468770	0.085200
H5651	H565	0.830430	0.767470	0.064970
H5661	H566	0.607430	0.638670	0.108070
C8551	C855	0.456330	0.713970	0.307870
C8561	C856	0.501930	0.681470	0.312470
H5671	H567	0.610730	0.550070	0.279470
H5681	H568	0.725230	0.770670	0.322770
H5691	H569	0.724130	0.552670	0.077670
C8571	C857	0.699830	0.495270	0.066760
C8581	C858	0.718730	0.441870	0.075050
H5701	H570	0.754330	0.458370	0.091470
H5711	H571	0.446830	0.730870	0.302670
C8591	C859	0.437330	0.697670	0.319950
C8601	C860	0.474930	0.659370	0.324460
H5721	H572	0.528830	0.679270	0.311070
H5731	H573	0.686630	0.504870	0.060370
C8611	C861	0.696730	0.451370	0.066260
H5741	H574	0.719030	0.413770	0.074170
H5751	H575	0.416130	0.706870	0.322670
C8621	C862	0.443630	0.672470	0.327840
H5761	H576	0.479330	0.637970	0.329270
C8631	C863	0.669830	0.419370	0.055870
C8641	C864	0.414930	0.651270	0.338570
O1561	O156	0.396830	0.673270	0.342460
Zn251	Zn25	0.622230	0.401210	0.539620
O1571	O157	0.659500	0.381700	0.530970
O1581	O158	0.592800	0.418500	0.526340
O1591	O159	0.658700	0.455100	0.549140
O1601	O160	0.575400	0.359400	0.550050
Zn261	Zn26	0.702600	0.441700	0.523400
C8651	C865	0.619000	0.441300	0.517290
C8661	C866	0.700800	0.486500	0.545670
O1611	O161	0.660100	0.455900	0.514660
O1621	O162	0.725800	0.485500	0.536820
O1631	O163	0.752000	0.460900	0.511480
O1641	O164	0.708600	0.387900	0.553890
C8671	C867	0.591400	0.450800	0.507070
C8681	C868	0.723400	0.528100	0.554620
C8691	C869	0.613100	0.474900	0.495560
C8701	C870	0.546700	0.438200	0.508220
C8711	C871	0.700600	0.533600	0.565690
C8721	C872	0.764500	0.565700	0.551270
C8731	C873	0.589400	0.483600	0.487170
H5771	H577	0.644500	0.484500	0.494000
H5781	H578	0.531100	0.421900	0.515700
C8741	C874	0.521400	0.447000	0.499400
C8751	C875	0.721300	0.573100	0.573170
H5791	H579	0.670600	0.509400	0.567900
H5801	H580	0.778800	0.566000	0.543500
C8761	C876	0.786200	0.605000	0.559630
C8771	C877	0.542300	0.469100	0.488170
H5811	H581	0.605400	0.501100	0.479900
H5821	H582	0.490100	0.438000	0.501000
C8781	C878	0.764400	0.607900	0.570220
H5831	H583	0.705500	0.575800	0.580300
H5841	H584	0.816300	0.629400	0.557700
C8791	C879	0.514800	0.475100	0.478180
C8801	C880	0.791000	0.649800	0.578360
H5851	H585	0.502000	0.494100	0.481400
H5861	H586	0.488700	0.444600	0.475700
O1651	O165	0.542600	0.496500	0.467740
H5871	H587	0.802400	0.678100	0.573200
H5881	H588	0.817900	0.649600	0.582200
O1661	O166	0.761400	0.648900	0.587870
C8811	C881	0.527400	0.517700	0.459210
C8821	C882	0.777800	0.685500	0.595480
C8831	C883	0.481000	0.505500	0.458930
C8841	C884	0.556300	0.538100	0.448220
C8851	C885	0.822800	0.719600	0.595580
C8861	C886	0.748800	0.680000	0.606350
H5891	H589	0.459400	0.482900	0.464600
C8871	C887	0.466900	0.527200	0.450160
C8881	C888	0.541300	0.558200	0.439910
C8891	C889	0.603100	0.546900	0.445800
C8901	C890	0.837000	0.755400	0.605000
H5901	H590	0.844100	0.719800	0.589600
C8911	C891	0.761500	0.714100	0.615210
C8921	C892	0.700200	0.643600	0.608150
H5911	H591	0.438000	0.525900	0.451100
C8931	C893	0.497100	0.551500	0.439690
C8941	C894	0.579400	0.588000	0.430260
H5921	H592	0.613100	0.531300	0.452100
C8951	C895	0.604800	0.533800	0.433500
C8961	C896	0.631100	0.597600	0.446500
C8971	C897	0.804300	0.749800	0.615400
H5931	H593	0.866700	0.782100	0.604600
C8981	C898	0.728600	0.711200	0.624370
H5941	H594	0.689700	0.618400	0.601700
C8991	C899	0.671800	0.663900	0.608550
C9001	C900	0.701700	0.626800	0.621910
O1671	O167	0.485900	0.572500	0.430940
H5951	H595	0.569700	0.603500	0.423800
C9011	C901	0.591400	0.553200	0.424500
C9021	C902	0.619900	0.620100	0.437600
C9031	C903	0.619100	0.503700	0.429400
C9041	C904	0.669100	0.623300	0.454500
O1681	O168	0.824300	0.786900	0.624180
H5961	H596	0.740000	0.738800	0.630000
C9051	C905	0.686200	0.699900	0.617260
C9061	C906	0.718300	0.666000	0.631380
C9071	C907	0.632100	0.652200	0.601370
C9081	C908	0.687100	0.582300	0.625640
C9091	C909	0.444500	0.564500	0.430050
C9101	C910	0.591400	0.540700	0.410500
C9111	C911	0.639200	0.662900	0.435830
C9121	C912	0.614000	0.491700	0.414000
H5971	H597	0.631300	0.490600	0.435100
C9131	C913	0.690400	0.668600	0.453600
H5981	H598	0.679000	0.608500	0.460400
C9141	C914	0.871200	0.815700	0.625570
C9151	C915	0.663100	0.721700	0.618600
C9161	C916	0.718700	0.655500	0.643780
H5991	H599	0.621000	0.626500	0.595800
C9171	C917	0.608600	0.675300	0.601900
H6001	H600	0.676700	0.557900	0.619700
C9181	C918	0.688300	0.574400	0.638640
H6011	H601	0.424000	0.530900	0.428900
H6021	H602	0.436100	0.572900	0.438200
C9191	C919	0.434700	0.589000	0.419690
H6031	H603	0.582500	0.555000	0.404200
C9201	C920	0.603800	0.509600	0.407000
H6041	H604	0.627200	0.675000	0.429700
C9211	C921	0.679800	0.693700	0.443000
H6051	H605	0.620200	0.468500	0.411100
H6061	H606	0.713200	0.686500	0.459700
H6071	H607	0.887000	0.797400	0.626000
H6081	H608	0.883800	0.837000	0.618300
C9221	C922	0.878400	0.841800	0.637300
C9231	C923	0.623700	0.708100	0.611200
H6091	H609	0.673100	0.746500	0.624400
C9241	C924	0.707500	0.613200	0.647510
H6101	H610	0.727200	0.679000	0.650000
H6111	H611	0.584000	0.669400	0.596300
H6121	H612	0.676600	0.543900	0.641700
C9251	C925	0.467500	0.610300	0.410420
C9261	C926	0.394300	0.592200	0.418530
H6131	H613	0.603700	0.502900	0.398300
H6141	H614	0.697900	0.725900	0.441400
C9271	C927	0.924300	0.877000	0.641200
C9281	C928	0.846200	0.831400	0.645800
H6151	H615	0.606000	0.722600	0.612800
H6161	H616	0.712100	0.608100	0.656100
H6171	H617	0.495200	0.609200	0.411000
C9291	C929	0.462100	0.633500	0.400090
C9301	C930	0.389800	0.614600	0.408380
H6181	H618	0.370700	0.579000	0.424800
H6191	H619	0.950700	0.886500	0.636000
C9311	C931	0.927000	0.896000	0.653280
C9321	C932	0.851100	0.858400	0.657790
H6201	H620	0.817100	0.804500	0.644400
H6211	H621	0.484900	0.646700	0.393700
C9331	C933	0.421300	0.636600	0.399590
H6221	H622	0.361400	0.614300	0.407500
H6231	H623	0.957400	0.917200	0.656000
C9341	C934	0.895500	0.889700	0.661170
H6241	H624	0.825300	0.854000	0.662600
C9351	C935	0.416200	0.663500	0.389200
C9361	C936	0.903000	0.918400	0.671900
O1691	O169	0.943100	0.936500	0.675790
Zn271	Zn27	0.288900	0.734540	0.872950
O1701	O170	0.326170	0.715030	0.864300
O1711	O171	0.259470	0.751830	0.859670
O1721	O172	0.325370	0.788430	0.882470
O1731	O173	0.242070	0.692730	0.883380
Zn281	Zn28	0.369270	0.775030	0.856730
C9371	C937	0.285670	0.774630	0.850620
C9381	C938	0.367470	0.819830	0.879000
O1741	O174	0.326770	0.789230	0.847990
O1751	O175	0.392470	0.818830	0.870150
O1761	O176	0.418670	0.794230	0.844810
O1771	O177	0.375270	0.721230	0.887220
C9391	C939	0.258070	0.784130	0.840400
C9401	C940	0.390070	0.861430	0.887950
C9411	C941	0.279770	0.808230	0.828890
C9421	C942	0.213370	0.771530	0.841550
C9431	C943	0.367270	0.866930	0.899020
C9441	C944	0.431170	0.899030	0.884600
C9451	C945	0.256070	0.816930	0.820500
H6251	H625	0.311170	0.817830	0.827330
H6261	H626	0.197770	0.755230	0.849030
C9461	C946	0.188070	0.780330	0.832730
C9471	C947	0.387970	0.906430	0.906500
H6271	H627	0.337270	0.842730	0.901230
H6281	H628	0.445470	0.899330	0.876830
C9481	C948	0.452870	0.938330	0.892960
C9491	C949	0.208970	0.802430	0.821500
H6291	H629	0.272070	0.834430	0.813230
H6301	H630	0.156770	0.771330	0.834330
C9501	C950	0.431070	0.941230	0.903550
H6311	H631	0.372170	0.909130	0.913630
H6321	H632	0.482970	0.962730	0.891030
C9511	C951	0.181470	0.808430	0.811510
C9521	C952	0.457670	0.983130	0.911690
H6331	H633	0.168670	0.827430	0.814730
H6341	H634	0.155370	0.777930	0.809030
O1781	O178	0.209270	0.829830	0.801070
H6351	H635	0.469070	0.011430	0.906530
H6361	H636	0.484570	0.982930	0.915530
O1791	O179	0.428070	0.982230	0.921200
C9531	C953	0.194070	0.851030	0.792540
C9541	C954	0.444470	0.018830	0.928810
C9551	C955	0.147670	0.838830	0.792260
C9561	C956	0.222970	0.871430	0.781550
C9571	C957	0.489470	0.052930	0.928910
C9581	C958	0.415470	0.013330	0.939680
H6371	H637	0.126070	0.816230	0.797930
C9591	C959	0.133570	0.860530	0.783490
C9601	C960	0.207970	0.891530	0.773240
C9611	C961	0.269770	0.880230	0.779130
C9621	C962	0.503670	0.088730	0.938330
H6381	H638	0.510770	0.053130	0.922930
C9631	C963	0.428170	0.047430	0.948540
C9641	C964	0.366870	0.976930	0.941480
H6391	H639	0.104670	0.859230	0.784430
C9651	C965	0.163770	0.884830	0.773020
C9661	C966	0.246070	0.921330	0.763590
H6401	H640	0.279770	0.864630	0.785430
C9671	C967	0.271470	0.867130	0.766830
C9681	C968	0.297770	0.930930	0.779830
C9691	C969	0.470970	0.083130	0.948730
H6411	H641	0.533370	0.115430	0.937930
C9701	C970	0.395270	0.044530	0.957700
H6421	H642	0.356370	0.951730	0.935030
C9711	C971	0.338470	0.997230	0.941880
C9721	C972	0.368370	0.960130	0.955240
O1801	O180	0.152570	0.905830	0.764270
H6431	H643	0.236370	0.936830	0.757130
C9731	C973	0.258070	0.886530	0.757830
C9741	C974	0.286570	0.953430	0.770930
C9751	C975	0.285770	0.837030	0.762730
C9761	C976	0.335770	0.956630	0.787830
O1811	O181	0.490970	0.120230	0.957510
H6441	H644	0.406670	0.072130	0.963330
C9771	C977	0.352870	0.033230	0.950590
C9781	C978	0.384970	0.999330	0.964710
C9791	C979	0.298770	0.985530	0.934700
C9801	C980	0.353770	0.915630	0.958970
C9811	C981	0.111170	0.897830	0.763380
C9821	C982	0.258070	0.874030	0.743830
C9831	C983	0.305870	0.996230	0.769160
C9841	C984	0.280670	0.825030	0.747330
H6451	H645	0.297970	0.823930	0.768430
C9851	C985	0.357070	0.001930	0.786930
H6461	H646	0.345670	0.941830	0.793730
C9861	C986	0.537870	0.149030	0.958900
C9871	C987	0.329770	0.055030	0.951930
C9881	C988	0.385370	0.988830	0.977110
H6471	H647	0.287670	0.959830	0.929130
C9891	C989	0.275270	0.008630	0.935230
H6481	H648	0.343370	0.891230	0.953030
C9901	C990	0.354970	0.907730	0.971970
H6491	H649	0.090670	0.864230	0.762230
H6501	H650	0.102770	0.906230	0.771530
C9911	C991	0.101370	0.922330	0.753020
H6511	H651	0.249170	0.888330	0.737530
C9921	C992	0.270470	0.842930	0.740330
H6521	H652	0.293870	0.008330	0.763030
C9931	C993	0.346470	0.027030	0.776330
H6531	H653	0.286870	0.801830	0.744430
H6541	H654	0.379870	0.019830	0.793030
H6551	H655	0.553670	0.130730	0.959330
H6561	H656	0.550470	0.170330	0.951630
C9941	C994	0.545070	0.175130	0.970630
C9951	C995	0.290370	0.041430	0.944530
H6571	H657	0.339770	0.079830	0.957730
C9961	C996	0.374170	0.946530	0.980840
H6581	H658	0.393870	0.012330	0.983330
H6591	H659	0.250670	0.002730	0.929630
H6601	H660	0.343270	0.877230	0.975030
C9971	C997	0.134170	0.943630	0.743750
C9981	C998	0.060970	0.925530	0.751860
H6611	H661	0.270370	0.836230	0.731630
H6621	H662	0.364570	0.059230	0.774730
C9991	C999	0.590970	0.210330	0.974530
C10001	C1000	0.512870	0.164730	0.979130
H6631	H663	0.272670	0.055930	0.946130
H6641	H664	0.378770	0.941430	0.989430
H6651	H665	0.161870	0.942530	0.744330
C10011	C1001	0.128770	0.966830	0.733420
C10021	C1002	0.056470	0.947930	0.741710
H6661	H666	0.037370	0.912330	0.758130
H6671	H667	0.617370	0.219830	0.969330
C10031	C1003	0.593670	0.229330	0.986610
C10041	C1004	0.517770	0.191730	0.991120
H6681	H668	0.483770	0.137830	0.977730
H6691	H669	0.151570	0.980030	0.727030
C10051	C1005	0.087970	0.969930	0.732920
H6701	H670	0.028070	0.947630	0.740830
H6711	H671	0.624070	0.250530	0.989330
C10061	C1006	0.562170	0.223030	0.994500
H6721	H672	0.491970	0.187330	0.995930
C10071	C1007	0.082870	0.996830	0.722530
C10081	C1008	0.569670	0.251730	0.005230
O1821	O182	0.609770	0.269830	0.009120
Zn291	Zn29	0.955560	0.067880	0.206290
O1831	O183	0.992830	0.048370	0.197640
O1841	O184	0.926130	0.085170	0.193010
O1851	O185	0.992030	0.121770	0.215810
O1861	O186	0.908730	0.026070	0.216720
Zn301	Zn30	0.035930	0.108370	0.190070
C10091	C1009	0.952330	0.107970	0.183960
C10101	C1010	0.034130	0.153170	0.212340
O1871	O187	0.993430	0.122570	0.181330
O1881	O188	0.059130	0.152170	0.203490
O1891	O189	0.085330	0.127570	0.178150
O1901	O190	0.041930	0.054570	0.220560
C10111	C1011	0.924730	0.117470	0.173740
C10121	C1012	0.056730	0.194770	0.221290
C10131	C1013	0.946430	0.141570	0.162230
C10141	C1014	0.880030	0.104870	0.174890
C10151	C1015	0.033930	0.200270	0.232360
C10161	C1016	0.097830	0.232370	0.217940
C10171	C1017	0.922730	0.150270	0.153840
H6731	H673	0.977830	0.151170	0.160670
H6741	H674	0.864430	0.088570	0.182370
C10181	C1018	0.854730	0.113670	0.166070
C10191	C1019	0.054630	0.239770	0.239840
H6751	H675	0.003930	0.176070	0.234570
H6761	H676	0.112130	0.232670	0.210170
C10201	C1020	0.119530	0.271670	0.226300
C10211	C1021	0.875630	0.135770	0.154840
H6771	H677	0.938730	0.167770	0.146570
H6781	H678	0.823430	0.104670	0.167670
C10221	C1022	0.097730	0.274570	0.236890
H6791	H679	0.038830	0.242470	0.246970
H6801	H680	0.149630	0.296070	0.224370
C10231	C1023	0.848130	0.141770	0.144850
C10241	C1024	0.124330	0.316470	0.245030
H6811	H681	0.835330	0.160770	0.148070
H6821	H682	0.822030	0.111270	0.142370
O1911	O191	0.875930	0.163170	0.134410
H6831	H683	0.135730	0.344770	0.239870
H6841	H684	0.151230	0.316270	0.248870
O1921	O192	0.094730	0.315570	0.254540
C10251	C1025	0.860730	0.184370	0.125880
C10261	C1026	0.111130	0.352170	0.262150
C10271	C1027	0.814330	0.172170	0.125600
C10281	C1028	0.889630	0.204770	0.114890
C10291	C1029	0.156130	0.386270	0.262250
C10301	C1030	0.082130	0.346670	0.273020
H6851	H685	0.792730	0.149570	0.131270
C10311	C1031	0.800230	0.193870	0.116830
C10321	C1032	0.874630	0.224870	0.106580
C10331	C1033	0.936430	0.213570	0.112470
C10341	C1034	0.170330	0.422070	0.271670
H6861	H686	0.177430	0.386470	0.256270
C10351	C1035	0.094830	0.380770	0.281880
C10361	C1036	0.033530	0.310270	0.274820
H6871	H687	0.771330	0.192570	0.117770
C10371	C1037	0.830430	0.218170	0.106360
C10381	C1038	0.912730	0.254670	0.096930
H6881	H688	0.946430	0.197970	0.118770
C10391	C1039	0.938130	0.200470	0.100170
C10401	C1040	0.964430	0.264270	0.113170
C10411	C1041	0.137630	0.416470	0.282070
H6891	H689	0.200030	0.448770	0.271270
C10421	C1042	0.061930	0.377870	0.291040
H6901	H690	0.023030	0.285070	0.268370
C10431	C1043	0.005130	0.330570	0.275220
C10441	C1044	0.035030	0.293470	0.288580
O1931	O193	0.819230	0.239170	0.097610
H6911	H691	0.903030	0.270170	0.090470
C10451	C1045	0.924730	0.219870	0.091170
C10461	C1046	0.953230	0.286770	0.104270
C10471	C1047	0.952430	0.170370	0.096070
C10481	C1048	0.002430	0.289970	0.121170
O1941	O194	0.157630	0.453570	0.290850
H6921	H692	0.073330	0.405470	0.296670
C10491	C1049	0.019530	0.366570	0.283930
C10501	C1050	0.051630	0.332670	0.298050
C10511	C1051	0.965430	0.318870	0.268040
C10521	C1052	0.020430	0.248970	0.292310
C10531	C1053	0.777830	0.231170	0.096720
C10541	C1054	0.924730	0.207370	0.077170
C10551	C1055	0.972530	0.329570	0.102500
C10561	C1056	0.947330	0.158370	0.080670
H6931	H693	0.964630	0.157270	0.101770
C10571	C1057	0.023730	0.335270	0.120270
H6941	H694	0.012330	0.275170	0.127070
C10581	C1058	0.204530	0.482370	0.292240
C10591	C1059	0.996430	0.388370	0.285270
C10601	C1060	0.052030	0.322170	0.310450
H6951	H695	0.954330	0.293170	0.262470
C10611	C1061	0.941930	0.341970	0.268570
H6961	H696	0.010030	0.224570	0.286370
C10621	C1062	0.021630	0.241070	0.305310
H6971	H697	0.757330	0.197570	0.095570
H6981	H698	0.769430	0.239570	0.104870
C10631	C1063	0.768030	0.255670	0.086360
H6991	H699	0.915830	0.221670	0.070870
C10641	C1064	0.937130	0.176270	0.073670
H7001	H700	0.960530	0.341670	0.096370
C10651	C1065	0.013130	0.360370	0.109670
H7011	H701	0.953530	0.135170	0.077770
H7021	H702	0.046530	0.353170	0.126370
H7031	H703	0.220330	0.464070	0.292670
H7041	H704	0.217130	0.503670	0.284970
C10661	C1066	0.211730	0.508470	0.303970
C10671	C1067	0.957030	0.374770	0.277870
H7051	H705	0.006430	0.413170	0.291070
C10681	C1068	0.040830	0.279870	0.314180
H7061	H706	0.060530	0.345670	0.316670
H7071	H707	0.917330	0.336070	0.262970
H7081	H708	0.009930	0.210570	0.308370
C10691	C1069	0.800830	0.276970	0.077090
C10701	C1070	0.727630	0.258870	0.085200
H7091	H709	0.937030	0.169570	0.064970
H7101	H710	0.031230	0.392570	0.108070
C10711	C1071	0.257630	0.543670	0.307870
C10721	C1072	0.179530	0.498070	0.312470
H7111	H711	0.939330	0.389270	0.279470
H7121	H712	0.045430	0.274770	0.322770
H7131	H713	0.828530	0.275870	0.077670
C10731	C1073	0.795430	0.300170	0.066760
C10741	C1074	0.723130	0.281270	0.075050
H7141	H714	0.704030	0.245670	0.091470
H7151	H715	0.284030	0.553170	0.302670
C10751	C1075	0.260330	0.562670	0.319950
C10761	C1076	0.184430	0.525070	0.324460
H7161	H716	0.150430	0.471170	0.311070
H7171	H717	0.818230	0.313370	0.060370
C10771	C1077	0.754630	0.303270	0.066260
H7181	H718	0.694730	0.280970	0.074170
H7191	H719	0.290730	0.583870	0.322670
C10781	C1078	0.228830	0.556370	0.327840
H7201	H720	0.158630	0.520670	0.329270
C10791	C1079	0.749530	0.330170	0.055870
C10801	C1080	0.236330	0.585070	0.338570
O1951	O195	0.276430	0.603170	0.342460
Zn311	Zn31	0.778980	0.377770	0.539620
O1961	O196	0.722200	0.340500	0.530970
O1971	O197	0.825700	0.407200	0.526340
O1981	O198	0.796400	0.341300	0.549140
O1991	O199	0.784000	0.424600	0.550050
Zn321	Zn32	0.739100	0.297400	0.523400
C10811	C1081	0.822300	0.381000	0.517290
C10821	C1082	0.785700	0.299200	0.545670
O2001	O200	0.795800	0.339900	0.514660
O2011	O201	0.759700	0.274200	0.536820
O2021	O202	0.708900	0.248000	0.511480
O2031	O203	0.679300	0.291400	0.553890
C10831	C1083	0.859400	0.408600	0.507070
C10841	C1084	0.804700	0.276600	0.554620
C10851	C1085	0.861800	0.386900	0.495560
C10861	C1086	0.891500	0.453300	0.508220
C10871	C1087	0.833000	0.299400	0.565690
C10881	C1088	0.801200	0.235500	0.551270
C10891	C1089	0.894200	0.410600	0.487170
H7211	H721	0.840000	0.355500	0.494000
H7221	H722	0.890800	0.468900	0.515700
C10901	C1090	0.925600	0.478600	0.499400
C10911	C1091	0.851800	0.278700	0.573170
H7231	H723	0.838800	0.329400	0.567900
H7241	H724	0.787200	0.221200	0.543500
C10921	C1092	0.818800	0.213800	0.559630
C10931	C1093	0.926800	0.457700	0.488170
H7251	H725	0.895700	0.394600	0.479900
H7261	H726	0.947900	0.509900	0.501000
C10941	C1094	0.843500	0.235600	0.570220
H7271	H727	0.870300	0.294500	0.580300
H7281	H728	0.813100	0.183700	0.557700
C10951	C1095	0.960300	0.485200	0.478180
C10961	C1096	0.858800	0.209000	0.578360
H7291	H729	0.992100	0.498000	0.481400
H7301	H730	0.955900	0.511300	0.475700
O2041	O204	0.953900	0.457400	0.467740
H7311	H731	0.875700	0.197600	0.573200
H7321	H732	0.831700	0.182100	0.582200
O2051	O205	0.887500	0.238600	0.587870
C10971	C1097	0.990300	0.472600	0.459210
C10981	C1098	0.907700	0.222200	0.595480
C10991	C1099	0.024500	0.519000	0.458930
C11001	C1100	0.981800	0.443700	0.448220
C11011	C1101	0.896800	0.177200	0.595580
C11021	C1102	0.931200	0.251200	0.606350
H7331	H733	0.023500	0.540600	0.464600
C11031	C1103	0.060300	0.533100	0.450160
C11041	C1104	0.016900	0.458700	0.439910
C11051	C1105	0.943800	0.396900	0.445800
C11061	C1106	0.918400	0.163000	0.605000
H7341	H734	0.875700	0.155900	0.589600
C11071	C1107	0.952600	0.238500	0.615210
C11081	C1108	0.943400	0.299800	0.608150
H7351	H735	0.087900	0.562000	0.451100
C11091	C1109	0.054400	0.502900	0.439690
C11101	C1110	0.008600	0.420600	0.430260
H7361	H736	0.918200	0.386900	0.452100
C11111	C1111	0.929000	0.395200	0.433500
C11121	C1112	0.966500	0.368900	0.446500
C11131	C1113	0.945500	0.195700	0.615400
H7371	H737	0.915400	0.133300	0.604600
C11141	C1114	0.982600	0.271400	0.624370
H7381	H738	0.928700	0.310300	0.601700
C11151	C1115	0.992100	0.328200	0.608550
C11161	C1116	0.925100	0.298300	0.621910
O2061	O206	0.086600	0.514100	0.430940
H7391	H739	0.033800	0.430300	0.423800
C11171	C1117	0.961800	0.408600	0.424500
C11181	C1118	0.000200	0.380100	0.437600
C11191	C1119	0.884600	0.380900	0.429400
C11201	C1120	0.954200	0.330900	0.454500
O2071	O207	0.962600	0.175700	0.624180
H7401	H740	0.998800	0.260000	0.630000
C11211	C1121	0.013700	0.313800	0.617260
C11221	C1122	0.947700	0.281700	0.631380
C11231	C1123	0.020100	0.367900	0.601370
C11241	C1124	0.895200	0.312900	0.625640
C11251	C1125	0.120000	0.555500	0.430050
C11261	C1126	0.949300	0.408600	0.410500
C11271	C1127	0.023700	0.360800	0.435830
C11281	C1128	0.877700	0.386000	0.414000
H7411	H741	0.859300	0.368700	0.435100
C11291	C1129	0.978200	0.309600	0.453600
H7421	H742	0.929500	0.321000	0.460400
C11301	C1130	0.944500	0.128800	0.625570
C11311	C1131	0.058600	0.336900	0.618600
C11321	C1132	0.936800	0.281300	0.643780
H7431	H743	0.005500	0.379000	0.595800
C11331	C1133	0.066700	0.391400	0.601900
H7441	H744	0.881200	0.323300	0.619700
C11341	C1134	0.886100	0.311700	0.638640
H7451	H745	0.106900	0.576000	0.428900
H7461	H746	0.136800	0.563900	0.438200
C11351	C1135	0.154300	0.565300	0.419690
H7471	H747	0.972500	0.417500	0.404200
C11361	C1136	0.905800	0.396200	0.407000
H7481	H748	0.047800	0.372800	0.429700
C11371	C1137	0.013900	0.320200	0.443000
H7491	H749	0.848300	0.379800	0.411100
H7501	H750	0.973300	0.286800	0.459700
H7511	H751	0.910400	0.113000	0.626000
H7521	H752	0.953200	0.116200	0.618300
C11381	C1138	0.963400	0.121600	0.637300
C11391	C1139	0.084400	0.376300	0.611200
H7531	H753	0.073400	0.326900	0.624400
C11401	C1140	0.905700	0.292500	0.647510
H7541	H754	0.951800	0.272800	0.650000
H7551	H755	0.085400	0.416000	0.596300
H7561	H756	0.867300	0.323400	0.641700
C11411	C1141	0.142800	0.532500	0.410420
C11421	C1142	0.197900	0.605700	0.418530
H7571	H757	0.899200	0.396300	0.398300
H7581	H758	0.028000	0.302100	0.441400
C11431	C1143	0.952700	0.075700	0.641200
C11441	C1144	0.985200	0.153800	0.645800
H7591	H759	0.116600	0.394000	0.612800
H7601	H760	0.896000	0.287900	0.656100
H7611	H761	0.114000	0.504800	0.411000
C11451	C1145	0.171400	0.537900	0.400090
C11461	C1146	0.224800	0.610200	0.408380
H7621	H762	0.208300	0.629300	0.424800
H7631	H763	0.935800	0.049300	0.636000
C11471	C1147	0.969000	0.073000	0.653280
C11481	C1148	0.007300	0.148900	0.657790
H7641	H764	0.987400	0.182900	0.644400
H7651	H765	0.161800	0.515100	0.393700
C11491	C1149	0.215300	0.578700	0.399590
H7661	H766	0.252900	0.638600	0.407500
H7671	H767	0.959800	0.042600	0.656000
C11501	C1150	0.994200	0.104500	0.661170
H7681	H768	0.028700	0.174700	0.662600
C11511	C1151	0.247300	0.583800	0.389200
C11521	C1152	0.015400	0.097000	0.671900
O2081	O208	0.993400	0.056900	0.675790
Zn331	Zn33	0.445650	0.711100	0.872950
O2091	O209	0.388870	0.673830	0.864300
O2101	O210	0.492370	0.740530	0.859670
O2111	O211	0.463070	0.674630	0.882470
O2121	O212	0.450670	0.757930	0.883380
Zn341	Zn34	0.405770	0.630730	0.856730
C11531	C1153	0.488970	0.714330	0.850620
C11541	C1154	0.452370	0.632530	0.879000
O2131	O213	0.462470	0.673230	0.847990
O2141	O214	0.426370	0.607530	0.870150
O2151	O215	0.375570	0.581330	0.844810
O2161	O216	0.345970	0.624730	0.887220
C11551	C1155	0.526070	0.741930	0.840400
C11561	C1156	0.471370	0.609930	0.887950
C11571	C1157	0.528470	0.720230	0.828890
C11581	C1158	0.558170	0.786630	0.841550
C11591	C1159	0.499670	0.632730	0.899020
C11601	C1160	0.467870	0.568830	0.884600
C11611	C1161	0.560870	0.743930	0.820500
H7691	H769	0.506670	0.688830	0.827330
H7701	H770	0.557470	0.802230	0.849030
C11621	C1162	0.592270	0.811930	0.832730
C11631	C1163	0.518470	0.612030	0.906500
H7711	H771	0.505470	0.662730	0.901230
H7721	H772	0.453870	0.554530	0.876830
C11641	C1164	0.485470	0.547130	0.892960
C11651	C1165	0.593470	0.791030	0.821500
H7731	H773	0.562370	0.727930	0.813230
H7741	H774	0.614570	0.843230	0.834330
C11661	C1166	0.510170	0.568930	0.903550
H7751	H775	0.536970	0.627830	0.913630
H7761	H776	0.479770	0.517030	0.891030
C11671	C1167	0.626970	0.818530	0.811510
C11681	C1168	0.525470	0.542330	0.911690
H7771	H777	0.658770	0.831330	0.814730
H7781	H778	0.622570	0.844630	0.809030
O2171	O217	0.620570	0.790730	0.801070
H7791	H779	0.542370	0.530930	0.906530
H7801	H780	0.498370	0.515430	0.915530
O2181	O218	0.554170	0.571930	0.921200
C11691	C1169	0.656970	0.805930	0.792540
C11701	C1170	0.574370	0.555530	0.928810
C11711	C1171	0.691170	0.852330	0.792260
C11721	C1172	0.648470	0.777030	0.781550
C11731	C1173	0.563470	0.510530	0.928910
C11741	C1174	0.597870	0.584530	0.939680
H7811	H781	0.690170	0.873930	0.797930
C11751	C1175	0.726970	0.866430	0.783490
C11761	C1176	0.683570	0.792030	0.773240
C11771	C1177	0.610470	0.730230	0.779130
C11781	C1178	0.585070	0.496330	0.938330
H7821	H782	0.542370	0.489230	0.922930
C11791	C1179	0.619270	0.571830	0.948540
C11801	C1180	0.610070	0.633130	0.941480
H7831	H783	0.754570	0.895330	0.784430
C11811	C1181	0.721070	0.836230	0.773020
C11821	C1182	0.675270	0.753930	0.763590
H7841	H784	0.584870	0.720230	0.785430
C11831	C1183	0.595670	0.728530	0.766830
C11841	C1184	0.633170	0.702230	0.779830
C11851	C1185	0.612170	0.529030	0.948730
H7851	H785	0.582070	0.466630	0.937930
C11861	C1186	0.649270	0.604730	0.957700
H7861	H786	0.595370	0.643630	0.935030
C11871	C1187	0.658770	0.661530	0.941880
C11881	C1188	0.591770	0.631630	0.955240
O2191	O219	0.753270	0.847430	0.764270
H7871	H787	0.700470	0.763630	0.757130
C11891	C1189	0.628470	0.741930	0.757830
C11901	C1190	0.666870	0.713430	0.770930
C11911	C1191	0.551270	0.714230	0.762730
C11921	C1192	0.620870	0.664230	0.787830
O2201	O220	0.629270	0.509030	0.957510
H7881	H788	0.665470	0.593330	0.963330
C11931	C1193	0.680370	0.647130	0.950590
C11941	C1194	0.614370	0.615030	0.964710
C11951	C1195	0.686770	0.701230	0.934700
C11961	C1196	0.561870	0.646230	0.958970
C11971	C1197	0.786670	0.888830	0.763380
C11981	C1198	0.615970	0.741930	0.743830
C11991	C1199	0.690370	0.694130	0.769160
C12001	C1200	0.544370	0.719330	0.747330
H7891	H789	0.525970	0.702030	0.768430
C12011	C1201	0.644870	0.642930	0.786930
H7901	H790	0.596170	0.654330	0.793730
C12021	C1202	0.611170	0.462130	0.958900
C12031	C1203	0.725270	0.670230	0.951930
C12041	C1204	0.603470	0.614630	0.977110
H7911	H791	0.672170	0.712330	0.929130
C12051	C1205	0.733370	0.724730	0.935230
H7921	H792	0.547870	0.656630	0.953030
C12061	C1206	0.552770	0.645030	0.971970
H7931	H793	0.773570	0.909330	0.762230
H7941	H794	0.803470	0.897230	0.771530
C12071	C1207	0.820970	0.898630	0.753020
H7951	H795	0.639170	0.750830	0.737530
C12081	C1208	0.572470	0.729530	0.740330
H7961	H796	0.714470	0.706130	0.763030
C12091	C1209	0.680570	0.653530	0.776330
H7971	H797	0.514970	0.713130	0.744430
H7981	H798	0.639970	0.620130	0.793030
H7991	H799	0.577070	0.446330	0.959330
H8001	H800	0.619870	0.449530	0.951630
C12101	C1210	0.630070	0.454930	0.970630
C12111	C1211	0.751070	0.709630	0.944530
H8011	H801	0.740070	0.660230	0.957730
C12121	C1212	0.572370	0.625830	0.980840
H8021	H802	0.618470	0.606130	0.983330
H8031	H803	0.752070	0.749330	0.929630
H8041	H804	0.533970	0.656730	0.975030
C12131	C1213	0.809470	0.865830	0.743750
C12141	C1214	0.864570	0.939030	0.751860
H8051	H805	0.565870	0.729630	0.731630
H8061	H806	0.694670	0.635430	0.774730
C12151	C1215	0.619370	0.409030	0.974530
C12161	C1216	0.651870	0.487130	0.979130
H8071	H807	0.783270	0.727330	0.946130
H8081	H808	0.562670	0.621230	0.989430
H8091	H809	0.780670	0.838130	0.744330
C12171	C1217	0.838070	0.871230	0.733420
C12181	C1218	0.891470	0.943530	0.741710
H8101	H810	0.874970	0.962630	0.758130
H8111	H811	0.602470	0.382630	0.969330
C12191	C1219	0.635670	0.406330	0.986610
C12201	C1220	0.673970	0.482230	0.991120
H8121	H812	0.654070	0.516230	0.977730
H8131	H813	0.828470	0.848430	0.727030
C12211	C1221	0.881970	0.912030	0.732920
H8141	H814	0.919570	0.971930	0.740830
H8151	H815	0.626470	0.375930	0.989330
C12221	C1222	0.660870	0.437830	0.994500
H8161	H816	0.695370	0.508030	0.995930
C12231	C1223	0.913970	0.917130	0.722530
C12241	C1224	0.682070	0.430330	0.005230
O2211	O221	0.660070	0.390230	0.009120
Zn351	Zn35	0.112310	0.044440	0.206290
O2221	O222	0.055530	0.007170	0.197640
O2231	O223	0.159030	0.073870	0.193010
O2241	O224	0.129730	0.007970	0.215810
O2251	O225	0.117330	0.091270	0.216720
Zn361	Zn36	0.072430	0.964070	0.190070
C12251	C1225	0.155630	0.047670	0.183960
C12261	C1226	0.119030	0.965870	0.212340
O2261	O226	0.129130	0.006570	0.181330
O2271	O227	0.093030	0.940870	0.203490
O2281	O228	0.042230	0.914670	0.178150
O2291	O229	0.012630	0.958070	0.220560
C12271	C1227	0.192730	0.075270	0.173740
C12281	C1228	0.138030	0.943270	0.221290
C12291	C1229	0.195130	0.053570	0.162230
C12301	C1230	0.224830	0.119970	0.174890
C12311	C1231	0.166330	0.966070	0.232360
C12321	C1232	0.134530	0.902170	0.217940
C12331	C1233	0.227530	0.077270	0.153840
H8171	H817	0.173330	0.022170	0.160670
H8181	H818	0.224130	0.135570	0.182370
C12341	C1234	0.258930	0.145270	0.166070
C12351	C1235	0.185130	0.945370	0.239840
H8191	H819	0.172130	0.996070	0.234570
H8201	H820	0.120530	0.887870	0.210170
C12361	C1236	0.152130	0.880470	0.226300
C12371	C1237	0.260130	0.124370	0.154840
H8211	H821	0.229030	0.061270	0.146570
H8221	H822	0.281230	0.176570	0.167670
C12381	C1238	0.176830	0.902270	0.236890
H8231	H823	0.203630	0.961170	0.246970
H8241	H824	0.146430	0.850370	0.224370
C12391	C1239	0.293630	0.151870	0.144850
C12401	C1240	0.192130	0.875670	0.245030
H8251	H825	0.325430	0.164670	0.148070
H8261	H826	0.289230	0.177970	0.142370
O2301	O230	0.287230	0.124070	0.134410
H8271	H827	0.209030	0.864270	0.239870
H8281	H828	0.165030	0.848770	0.248870
O2311	O231	0.220830	0.905270	0.254540
C12411	C1241	0.323630	0.139270	0.125880
C12421	C1242	0.241030	0.888870	0.262150
C12431	C1243	0.357830	0.185670	0.125600
C12441	C1244	0.315130	0.110370	0.114890
C12451	C1245	0.230130	0.843870	0.262250
C12461	C1246	0.264530	0.917870	0.273020
H8291	H829	0.356830	0.207270	0.131270
C12471	C1247	0.393630	0.199770	0.116830
C12481	C1248	0.350230	0.125370	0.106580
C12491	C1249	0.277130	0.063570	0.112470
C12501	C1250	0.251730	0.829670	0.271670
H8301	H830	0.209030	0.822570	0.256270
C12511	C1251	0.285930	0.905170	0.281880
C12521	C1252	0.276730	0.966470	0.274820
H8311	H831	0.421230	0.228670	0.117770
C12531	C1253	0.387730	0.169570	0.106360
C12541	C1254	0.341930	0.087270	0.096930
H8321	H832	0.251530	0.053570	0.118770
C12551	C1255	0.262330	0.061870	0.100170
C12561	C1256	0.299830	0.035570	0.113170
C12571	C1257	0.278830	0.862370	0.282070
H8331	H833	0.248730	0.799970	0.271270
C12581	C1258	0.315930	0.938070	0.291040
H8341	H834	0.262030	0.976970	0.268370
C12591	C1259	0.325430	0.994870	0.275220
C12601	C1260	0.258430	0.964970	0.288580
O2321	O232	0.419930	0.180770	0.097610
H8351	H835	0.367130	0.096970	0.090470
C12611	C1261	0.295130	0.075270	0.091170
C12621	C1262	0.333530	0.046770	0.104270
C12631	C1263	0.217930	0.047570	0.096070
C12641	C1264	0.287530	0.997570	0.121170
O2331	O233	0.295930	0.842370	0.290850
H8361	H836	0.332130	0.926670	0.296670
C12651	C1265	0.347030	0.980470	0.283930
C12661	C1266	0.281030	0.948370	0.298050
C12671	C1267	0.353430	0.034570	0.268040
C12681	C1268	0.228530	0.979570	0.292310
C12691	C1269	0.453330	0.222170	0.096720
C12701	C1270	0.282630	0.075270	0.077170
C12711	C1271	0.357030	0.027470	0.102500
C12721	C1272	0.211030	0.052670	0.080670
H8371	H837	0.192630	0.035370	0.101770
C12731	C1273	0.311530	0.976270	0.120270
H8381	H838	0.262830	0.987670	0.127070
C12741	C1274	0.277830	0.795470	0.292240
C12751	C1275	0.391930	0.003570	0.285270
C12761	C1276	0.270130	0.947970	0.310450
H8391	H839	0.338830	0.045670	0.262470
C12771	C1277	0.400030	0.058070	0.268570
H8401	H840	0.214530	0.989970	0.286370
C12781	C1278	0.219430	0.978370	0.305310
H8411	H841	0.440230	0.242670	0.095570
H8421	H842	0.470130	0.230570	0.104870
C12791	C1279	0.487630	0.231970	0.086360
H8431	H843	0.305830	0.084170	0.070870
C12801	C1280	0.239130	0.062870	0.073670
H8441	H844	0.381130	0.039470	0.096370
C12811	C1281	0.347230	0.986870	0.109670
H8451	H845	0.181630	0.046470	0.077770
H8461	H846	0.306630	0.953470	0.126370
H8471	H847	0.243730	0.779670	0.292670
H8481	H848	0.286530	0.782870	0.284970
C12821	C1282	0.296730	0.788270	0.303970
C12831	C1283	0.417730	0.042970	0.277870
H8491	H849	0.406730	0.993570	0.291070
C12841	C1284	0.239030	0.959170	0.314180
H8501	H850	0.285130	0.939470	0.316670
H8511	H851	0.418730	0.082670	0.262970
H8521	H852	0.200630	0.990070	0.308370
C12851	C1285	0.476130	0.199170	0.077090
C12861	C1286	0.531230	0.272370	0.085200
H8531	H853	0.232530	0.062970	0.064970
H8541	H854	0.361330	0.968770	0.108070
C12871	C1287	0.286030	0.742370	0.307870
C12881	C1288	0.318530	0.820470	0.312470
H8551	H855	0.449930	0.060670	0.279470
H8561	H856	0.229330	0.954570	0.322770
H8571	H857	0.447330	0.171470	0.077670
C12891	C1289	0.504730	0.204570	0.066760
C12901	C1290	0.558130	0.276870	0.075050
H8581	H858	0.541630	0.295970	0.091470
H8591	H859	0.269130	0.715970	0.302670
C12911	C1291	0.302330	0.739670	0.319950
C12921	C1292	0.340630	0.815570	0.324460
H8601	H860	0.320730	0.849570	0.311070
H8611	H861	0.495130	0.181770	0.060370
C12931	C1293	0.548630	0.245370	0.066260
H8621	H862	0.586230	0.305270	0.074170
H8631	H863	0.293130	0.709270	0.322670
C12941	C1294	0.327530	0.771170	0.327840
H8641	H864	0.362030	0.841370	0.329270
C12951	C1295	0.580630	0.250470	0.055870
C12961	C1296	0.348730	0.763670	0.338570
O2341	O234	0.326730	0.723570	0.342460
Zn371	Zn37	0.666670	0.333330	0.042190
Zn381	Zn38	0.333330	0.666670	0.375520
Zn391	Zn39	0.000000	0.000000	0.708860
Zn401	Zn40	0.666670	0.333330	0.542190
Zn411	Zn41	0.333330	0.666670	0.875520
Zn421	Zn42	0.000000	0.000000	0.208860
Zn431	Zn43	0.401210	0.778980	0.460380
O2351	O235	0.381700	0.722200	0.469030
O2361	O236	0.418500	0.825700	0.473660
O2371	O237	0.455100	0.796400	0.450860
O2381	O238	0.359400	0.784000	0.449950
Zn441	Zn44	0.441700	0.739100	0.476600
C12971	C1297	0.441300	0.822300	0.482710
C12981	C1298	0.486500	0.785700	0.454330
O2391	O239	0.455900	0.795800	0.485340
O2401	O240	0.485500	0.759700	0.463180
O2411	O241	0.460900	0.708900	0.488520
O2421	O242	0.387900	0.679300	0.446110
C12991	C1299	0.450800	0.859400	0.492930
C13001	C1300	0.528100	0.804700	0.445380
C13011	C1301	0.474900	0.861800	0.504440
C13021	C1302	0.438200	0.891500	0.491780
C13031	C1303	0.533600	0.833000	0.434310
C13041	C1304	0.565700	0.801200	0.448730
C13051	C1305	0.483600	0.894200	0.512830
H8651	H865	0.484500	0.840000	0.506000
H8661	H866	0.421900	0.890800	0.484300
C13061	C1306	0.447000	0.925600	0.500600
C13071	C1307	0.573100	0.851800	0.426830
H8671	H867	0.509400	0.838800	0.432100
H8681	H868	0.566000	0.787200	0.456500
C13081	C1308	0.605000	0.818800	0.440370
C13091	C1309	0.469100	0.926800	0.511830
H8691	H869	0.501100	0.895700	0.520100
H8701	H870	0.438000	0.947900	0.499000
C13101	C1310	0.607900	0.843500	0.429780
H8711	H871	0.575800	0.870300	0.419700
H8721	H872	0.629400	0.813100	0.442300
C13111	C1311	0.475100	0.960300	0.521820
C13121	C1312	0.649800	0.858800	0.421640
H8731	H873	0.494100	0.992100	0.518600
H8741	H874	0.444600	0.955900	0.524300
O2431	O243	0.496500	0.953900	0.532260
H8751	H875	0.678100	0.875700	0.426800
H8761	H876	0.649600	0.831700	0.417800
O2441	O244	0.648900	0.887500	0.412130
C13131	C1313	0.517700	0.990300	0.540790
C13141	C1314	0.685500	0.907700	0.404520
C13151	C1315	0.505500	0.024500	0.541070
C13161	C1316	0.538100	0.981800	0.551780
C13171	C1317	0.719600	0.896800	0.404420
C13181	C1318	0.680000	0.931200	0.393650
H8771	H877	0.482900	0.023500	0.535400
C13191	C1319	0.527200	0.060300	0.549840
C13201	C1320	0.558200	0.016900	0.560090
C13211	C1321	0.546900	0.943800	0.554200
C13221	C1322	0.755400	0.918400	0.395000
H8781	H878	0.719800	0.875700	0.410400
C13231	C1323	0.714100	0.952600	0.384790
C13241	C1324	0.643600	0.943400	0.391850
H8791	H879	0.525900	0.087900	0.548900
C13251	C1325	0.551500	0.054400	0.560310
C13261	C1326	0.588000	0.008600	0.569740
H8801	H880	0.531300	0.918200	0.547900
C13271	C1327	0.533800	0.929000	0.566500
C13281	C1328	0.597600	0.966500	0.553500
C13291	C1329	0.749800	0.945500	0.384600
H8811	H881	0.782100	0.915400	0.395400
C13301	C1330	0.711200	0.982600	0.375630
H8821	H882	0.618400	0.928700	0.398300
C13311	C1331	0.663900	0.992100	0.391450
C13321	C1332	0.626800	0.925100	0.378090
O2451	O245	0.572500	0.086600	0.569060
H8831	H883	0.603500	0.033800	0.576200
C13331	C1333	0.553200	0.961800	0.575500
C13341	C1334	0.620100	0.000200	0.562400
C13351	C1335	0.503700	0.884600	0.570600
C13361	C1336	0.623300	0.954200	0.545500
O2461	O246	0.786900	0.962600	0.375820
H8841	H884	0.738800	0.998800	0.370000
C13371	C1337	0.699900	0.013700	0.382740
C13381	C1338	0.666000	0.947700	0.368620
C13391	C1339	0.652200	0.020100	0.398630
C13401	C1340	0.582300	0.895200	0.374360
C13411	C1341	0.564500	0.120000	0.569950
C13421	C1342	0.540700	0.949300	0.589500
C13431	C1343	0.662900	0.023700	0.564170
C13441	C1344	0.491700	0.877700	0.586000
H8851	H885	0.490600	0.859300	0.564900
C13451	C1345	0.668600	0.978200	0.546400
H8861	H886	0.608500	0.929500	0.539600
C13461	C1346	0.815700	0.944500	0.374430
C13471	C1347	0.721700	0.058600	0.381400
C13481	C1348	0.655500	0.936800	0.356220
H8871	H887	0.626500	0.005500	0.404200
C13491	C1349	0.675300	0.066700	0.398100
H8881	H888	0.557900	0.881200	0.380300
C13501	C1350	0.574400	0.886100	0.361360
H8891	H889	0.530900	0.106900	0.571100
H8901	H890	0.572900	0.136800	0.561800
C13511	C1351	0.589000	0.154300	0.580310
H8911	H891	0.555000	0.972500	0.595800
C13521	C1352	0.509600	0.905800	0.593000
H8921	H892	0.675000	0.047800	0.570300
C13531	C1353	0.693700	0.013900	0.557000
H8931	H893	0.468500	0.848300	0.588900
H8941	H894	0.686500	0.973300	0.540300
H8951	H895	0.797400	0.910400	0.374000
H8961	H896	0.837000	0.953200	0.381700
C13541	C1354	0.841800	0.963400	0.362700
C13551	C1355	0.708100	0.084400	0.388800
H8971	H897	0.746500	0.073400	0.375600
C13561	C1356	0.613200	0.905700	0.352490
H8981	H898	0.679000	0.951800	0.350000
H8991	H899	0.669400	0.085400	0.403700
H9001	H900	0.543900	0.867300	0.358300
C13571	C1357	0.610300	0.142800	0.589580
C13581	C1358	0.592200	0.197900	0.581470
H9011	H901	0.502900	0.899200	0.601700
H9021	H902	0.725900	0.028000	0.558600
C13591	C1359	0.877000	0.952700	0.358800
C13601	C1360	0.831400	0.985200	0.354200
H9031	H903	0.722600	0.116600	0.387200
H9041	H904	0.608100	0.896000	0.343900
H9051	H905	0.609200	0.114000	0.589000
C13611	C1361	0.633500	0.171400	0.599910
C13621	C1362	0.614600	0.224800	0.591620
H9061	H906	0.579000	0.208300	0.575200
H9071	H907	0.886500	0.935800	0.364000
C13631	C1363	0.896000	0.969000	0.346720
C13641	C1364	0.858400	0.007300	0.342210
H9081	H908	0.804500	0.987400	0.355600
H9091	H909	0.646700	0.161800	0.606300
C13651	C1365	0.636600	0.215300	0.600410
H9101	H910	0.614300	0.252900	0.592500
H9111	H911	0.917200	0.959800	0.344000
C13661	C1366	0.889700	0.994200	0.338830
H9121	H912	0.854000	0.028700	0.337400
C13671	C1367	0.663500	0.247300	0.610800
C13681	C1368	0.918400	0.015400	0.328100
O2471	O247	0.936500	0.993400	0.324210
Zn451	Zn45	0.067880	0.112310	0.793710
O2481	O248	0.048370	0.055530	0.802360
O2491	O249	0.085170	0.159030	0.806990
O2501	O250	0.121770	0.129730	0.784190
O2511	O251	0.026070	0.117330	0.783280
Zn461	Zn46	0.108370	0.072430	0.809930
C13691	C1369	0.107970	0.155630	0.816040
C13701	C1370	0.153170	0.119030	0.787660
O2521	O252	0.122570	0.129130	0.818670
O2531	O253	0.152170	0.093030	0.796510
O2541	O254	0.127570	0.042230	0.821850
O2551	O255	0.054570	0.012630	0.779440
C13711	C1371	0.117470	0.192730	0.826260
C13721	C1372	0.194770	0.138030	0.778710
C13731	C1373	0.141570	0.195130	0.837770
C13741	C1374	0.104870	0.224830	0.825110
C13751	C1375	0.200270	0.166330	0.767640
C13761	C1376	0.232370	0.134530	0.782060
C13771	C1377	0.150270	0.227530	0.846160
H9131	H913	0.151170	0.173330	0.839330
H9141	H914	0.088570	0.224130	0.817630
C13781	C1378	0.113670	0.258930	0.833930
C13791	C1379	0.239770	0.185130	0.760160
H9151	H915	0.176070	0.172130	0.765430
H9161	H916	0.232670	0.120530	0.789830
C13801	C1380	0.271670	0.152130	0.773700
C13811	C1381	0.135770	0.260130	0.845160
H9171	H917	0.167770	0.229030	0.853430
H9181	H918	0.104670	0.281230	0.832330
C13821	C1382	0.274570	0.176830	0.763110
H9191	H919	0.242470	0.203630	0.753030
H9201	H920	0.296070	0.146430	0.775630
C13831	C1383	0.141770	0.293630	0.855150
C13841	C1384	0.316470	0.192130	0.754970
H9211	H921	0.160770	0.325430	0.851930
H9221	H922	0.111270	0.289230	0.857630
O2561	O256	0.163170	0.287230	0.865590
H9231	H923	0.344770	0.209030	0.760130
H9241	H924	0.316270	0.165030	0.751130
O2571	O257	0.315570	0.220830	0.745460
C13851	C1385	0.184370	0.323630	0.874120
C13861	C1386	0.352170	0.241030	0.737850
C13871	C1387	0.172170	0.357830	0.874400
C13881	C1388	0.204770	0.315130	0.885110
C13891	C1389	0.386270	0.230130	0.737750
C13901	C1390	0.346670	0.264530	0.726980
H9251	H925	0.149570	0.356830	0.868730
C13911	C1391	0.193870	0.393630	0.883170
C13921	C1392	0.224870	0.350230	0.893420
C13931	C1393	0.213570	0.277130	0.887530
C13941	C1394	0.422070	0.251730	0.728330
H9261	H926	0.386470	0.209030	0.743730
C13951	C1395	0.380770	0.285930	0.718120
C13961	C1396	0.310270	0.276730	0.725180
H9271	H927	0.192570	0.421230	0.882230
C13971	C1397	0.218170	0.387730	0.893640
C13981	C1398	0.254670	0.341930	0.903070
H9281	H928	0.197970	0.251530	0.881230
C13991	C1399	0.200470	0.262330	0.899830
C14001	C1400	0.264270	0.299830	0.886830
C14011	C1401	0.416470	0.278830	0.717930
H9291	H929	0.448770	0.248730	0.728730
C14021	C1402	0.377870	0.315930	0.708960
H9301	H930	0.285070	0.262030	0.731630
C14031	C1403	0.330570	0.325430	0.724780
C14041	C1404	0.293470	0.258430	0.711420
O2581	O258	0.239170	0.419930	0.902390
H9311	H931	0.270170	0.367130	0.909530
C14051	C1405	0.219870	0.295130	0.908830
C14061	C1406	0.286770	0.333530	0.895730
C14071	C1407	0.170370	0.217930	0.903930
C14081	C1408	0.289970	0.287530	0.878830
O2591	O259	0.453570	0.295930	0.709150
H9321	H932	0.405470	0.332130	0.703330
C14091	C1409	0.366570	0.347030	0.716070
C14101	C1410	0.332670	0.281030	0.701950
C14111	C1411	0.318870	0.353430	0.731960
C14121	C1412	0.248970	0.228530	0.707690
C14131	C1413	0.231170	0.453330	0.903280
C14141	C1414	0.207370	0.282630	0.922830
C14151	C1415	0.329570	0.357030	0.897500
C14161	C1416	0.158370	0.211030	0.919330
H9331	H933	0.157270	0.192630	0.898230
C14171	C1417	0.335270	0.311530	0.879730
H9341	H934	0.275170	0.262830	0.872930
C14181	C1418	0.482370	0.277830	0.707760
C14191	C1419	0.388370	0.391930	0.714730
C14201	C1420	0.322170	0.270130	0.689550
H9351	H935	0.293170	0.338830	0.737530
C14211	C1421	0.341970	0.400030	0.731430
H9361	H936	0.224570	0.214530	0.713630
C14221	C1422	0.241070	0.219430	0.694690
H9371	H937	0.197570	0.440230	0.904430
H9381	H938	0.239570	0.470130	0.895130
C14231	C1423	0.255670	0.487630	0.913640
H9391	H939	0.221670	0.305830	0.929130
C14241	C1424	0.176270	0.239130	0.926330
H9401	H940	0.341670	0.381130	0.903630
C14251	C1425	0.360370	0.347230	0.890330
H9411	H941	0.135170	0.181630	0.922230
H9421	H942	0.353170	0.306630	0.873630
H9431	H943	0.464070	0.243730	0.707330
H9441	H944	0.503670	0.286530	0.715030
C14261	C1426	0.508470	0.296730	0.696030
C14271	C1427	0.374770	0.417730	0.722130
H9451	H945	0.413170	0.406730	0.708930
C14281	C1428	0.279870	0.239030	0.685820
H9461	H946	0.345670	0.285130	0.683330
H9471	H947	0.336070	0.418730	0.737030
H9481	H948	0.210570	0.200630	0.691630
C14291	C1429	0.276970	0.476130	0.922910
C14301	C1430	0.258870	0.531230	0.914800
H9491	H949	0.169570	0.232530	0.935030
H9501	H950	0.392570	0.361330	0.891930
C14311	C1431	0.543670	0.286030	0.692130
C14321	C1432	0.498070	0.318530	0.687530
H9511	H951	0.389270	0.449930	0.720530
H9521	H952	0.274770	0.229330	0.677230
H9531	H953	0.275870	0.447330	0.922330
C14331	C1433	0.300170	0.504730	0.933240
C14341	C1434	0.281270	0.558130	0.924950
H9541	H954	0.245670	0.541630	0.908530
H9551	H955	0.553170	0.269130	0.697330
C14351	C1435	0.562670	0.302330	0.680050
C14361	C1436	0.525070	0.340630	0.675540
H9561	H956	0.471170	0.320730	0.688930
H9571	H957	0.313370	0.495130	0.939630
C14371	C1437	0.303270	0.548630	0.933740
H9581	H958	0.280970	0.586230	0.925830
H9591	H959	0.583870	0.293130	0.677330
C14381	C1438	0.556370	0.327530	0.672160
H9601	H960	0.520670	0.362030	0.670730
C14391	C1439	0.330170	0.580630	0.944130
C14401	C1440	0.585070	0.348730	0.661430
O2601	O260	0.603170	0.326730	0.657540
Zn471	Zn47	0.734540	0.445650	0.127050
O2611	O261	0.715030	0.388870	0.135700
O2621	O262	0.751830	0.492370	0.140330
O2631	O263	0.788430	0.463070	0.117530
O2641	O264	0.692730	0.450670	0.116620
Zn481	Zn48	0.775030	0.405770	0.143270
C14411	C1441	0.774630	0.488970	0.149380
C14421	C1442	0.819830	0.452370	0.121000
O2651	O265	0.789230	0.462470	0.152010
O2661	O266	0.818830	0.426370	0.129850
O2671	O267	0.794230	0.375570	0.155190
O2681	O268	0.721230	0.345970	0.112780
C14431	C1443	0.784130	0.526070	0.159600
C14441	C1444	0.861430	0.471370	0.112050
C14451	C1445	0.808230	0.528470	0.171110
C14461	C1446	0.771530	0.558170	0.158450
C14471	C1447	0.866930	0.499670	0.100980
C14481	C1448	0.899030	0.467870	0.115400
C14491	C1449	0.816930	0.560870	0.179500
H9611	H961	0.817830	0.506670	0.172670
H9621	H962	0.755230	0.557470	0.150970
C14501	C1450	0.780330	0.592270	0.167270
C14511	C1451	0.906430	0.518470	0.093500
H9631	H963	0.842730	0.505470	0.098770
H9641	H964	0.899330	0.453870	0.123170
C14521	C1452	0.938330	0.485470	0.107040
C14531	C1453	0.802430	0.593470	0.178500
H9651	H965	0.834430	0.562370	0.186770
H9661	H966	0.771330	0.614570	0.165670
C14541	C1454	0.941230	0.510170	0.096450
H9671	H967	0.909130	0.536970	0.086370
H9681	H968	0.962730	0.479770	0.108970
C14551	C1455	0.808430	0.626970	0.188490
C14561	C1456	0.983130	0.525470	0.088310
H9691	H969	0.827430	0.658770	0.185270
H9701	H970	0.777930	0.622570	0.190970
O2691	O269	0.829830	0.620570	0.198930
H9711	H971	0.011430	0.542370	0.093470
H9721	H972	0.982930	0.498370	0.084470
O2701	O270	0.982230	0.554170	0.078800
C14571	C1457	0.851030	0.656970	0.207460
C14581	C1458	0.018830	0.574370	0.071190
C14591	C1459	0.838830	0.691170	0.207740
C14601	C1460	0.871430	0.648470	0.218450
C14611	C1461	0.052930	0.563470	0.071090
C14621	C1462	0.013330	0.597870	0.060320
H9731	H973	0.816230	0.690170	0.202070
C14631	C1463	0.860530	0.726970	0.216510
C14641	C1464	0.891530	0.683570	0.226760
C14651	C1465	0.880230	0.610470	0.220870
C14661	C1466	0.088730	0.585070	0.061670
H9741	H974	0.053130	0.542370	0.077070
C14671	C1467	0.047430	0.619270	0.051460
C14681	C1468	0.976930	0.610070	0.058520
H9751	H975	0.859230	0.754570	0.215570
C14691	C1469	0.884830	0.721070	0.226980
C14701	C1470	0.921330	0.675270	0.236410
H9761	H976	0.864630	0.584870	0.214570
C14711	C1471	0.867130	0.595670	0.233170
C14721	C1472	0.930930	0.633170	0.220170
C14731	C1473	0.083130	0.612170	0.051270
H9771	H977	0.115430	0.582070	0.062070
C14741	C1474	0.044530	0.649270	0.042300
H9781	H978	0.951730	0.595370	0.064970
C14751	C1475	0.997230	0.658770	0.058120
C14761	C1476	0.960130	0.591770	0.044760
O2711	O271	0.905830	0.753270	0.235730
H9791	H979	0.936830	0.700470	0.242870
C14771	C1477	0.886530	0.628470	0.242170
C14781	C1478	0.953430	0.666870	0.229070
C14791	C1479	0.837030	0.551270	0.237270
C14801	C1480	0.956630	0.620870	0.212170
O2721	O272	0.120230	0.629270	0.042490
H9801	H980	0.072130	0.665470	0.036670
C14811	C1481	0.033230	0.680370	0.049410
C14821	C1482	0.999330	0.614370	0.035290
C14831	C1483	0.985530	0.686770	0.065300
C14841	C1484	0.915630	0.561870	0.041030
C14851	C1485	0.897830	0.786670	0.236620
C14861	C1486	0.874030	0.615970	0.256170
C14871	C1487	0.996230	0.690370	0.230840
C14881	C1488	0.825030	0.544370	0.252670
H9811	H981	0.823930	0.525970	0.231570
C14891	C1489	0.001930	0.644870	0.213070
H9821	H982	0.941830	0.596170	0.206270
C14901	C1490	0.149030	0.611170	0.041100
C14911	C1491	0.055030	0.725270	0.048070
C14921	C1492	0.988830	0.603470	0.022890
H9831	H983	0.959830	0.672170	0.070870
C14931	C1493	0.008630	0.733370	0.064770
H9841	H984	0.891230	0.547870	0.046970
C14941	C1494	0.907730	0.552770	0.028030
H9851	H985	0.864230	0.773570	0.237770
H9861	H986	0.906230	0.803470	0.228470
C14951	C1495	0.922330	0.820970	0.246980
H9871	H987	0.888330	0.639170	0.262470
C14961	C1496	0.842930	0.572470	0.259670
H9881	H988	0.008330	0.714470	0.236970
C14971	C1497	0.027030	0.680570	0.223670
H9891	H989	0.801830	0.514970	0.255570
H9901	H990	0.019830	0.639970	0.206970
H9911	H991	0.130730	0.577070	0.040670
H9921	H992	0.170330	0.619870	0.048370
C14981	C1498	0.175130	0.630070	0.029370
C14991	C1499	0.041430	0.751070	0.055470
H9931	H993	0.079830	0.740070	0.042270
C15001	C1500	0.946530	0.572370	0.019160
H9941	H994	0.012330	0.618470	0.016670
H9951	H995	0.002730	0.752070	0.070370
H9961	H996	0.877230	0.533970	0.024970
C15011	C1501	0.943630	0.809470	0.256250
C15021	C1502	0.925530	0.864570	0.248140
H9971	H997	0.836230	0.565870	0.268370
H9981	H998	0.059230	0.694670	0.225270
C15031	C1503	0.210330	0.619370	0.025470
C15041	C1504	0.164730	0.651870	0.020870
H9991	H999	0.055930	0.783270	0.053870
H10001	H1000	0.941430	0.562670	0.010570
H10011	H1001	0.942530	0.780670	0.255670
C15051	C1505	0.966830	0.838070	0.266580
C15061	C1506	0.947930	0.891470	0.258290
H10021	H1002	0.912330	0.874970	0.241870
H10031	H1003	0.219830	0.602470	0.030670
C15071	C1507	0.229330	0.635670	0.013390
C15081	C1508	0.191730	0.673970	0.008880
H10041	H1004	0.137830	0.654070	0.022270
H10051	H1005	0.980030	0.828470	0.272970
C15091	C1509	0.969930	0.881970	0.267080
H10061	H1006	0.947630	0.919570	0.259170
H10071	H1007	0.250530	0.626470	0.010670
C15101	C1510	0.223030	0.660870	0.005500
H10081	H1008	0.187330	0.695370	0.004070
C15111	C1511	0.996830	0.913970	0.277470
C15121	C1512	0.251730	0.682070	0.994770
O2731	O273	0.269830	0.660070	0.990880
Zn491	Zn49	0.377770	0.598790	0.460380
O2741	O274	0.340500	0.618300	0.469030
O2751	O275	0.407200	0.581500	0.473660
O2761	O276	0.341300	0.544900	0.450860
O2771	O277	0.424600	0.640600	0.449950
Zn501	Zn50	0.297400	0.558300	0.476600
C15131	C1513	0.381000	0.558700	0.482710
C15141	C1514	0.299200	0.513500	0.454330
O2781	O278	0.339900	0.544100	0.485340
O2791	O279	0.274200	0.514500	0.463180
O2801	O280	0.248000	0.539100	0.488520
O2811	O281	0.291400	0.612100	0.446110
C15151	C1515	0.408600	0.549200	0.492930
C15161	C1516	0.276600	0.471900	0.445380
C15171	C1517	0.386900	0.525100	0.504440
C15181	C1518	0.453300	0.561800	0.491780
C15191	C1519	0.299400	0.466400	0.434310
C15201	C1520	0.235500	0.434300	0.448730
C15211	C1521	0.410600	0.516400	0.512830
H10091	H1009	0.355500	0.515500	0.506000
H10101	H1010	0.468900	0.578100	0.484300
C15221	C1522	0.478600	0.553000	0.500600
C15231	C1523	0.278700	0.426900	0.426830
H10111	H1011	0.329400	0.490600	0.432100
H10121	H1012	0.221200	0.434000	0.456500
C15241	C1524	0.213800	0.395000	0.440370
C15251	C1525	0.457700	0.530900	0.511830
H10131	H1013	0.394600	0.498900	0.520100
H10141	H1014	0.509900	0.562000	0.499000
C15261	C1526	0.235600	0.392100	0.429780
H10151	H1015	0.294500	0.424200	0.419700
H10161	H1016	0.183700	0.370600	0.442300
C15271	C1527	0.485200	0.524900	0.521820
C15281	C1528	0.209000	0.350200	0.421640
H10171	H1017	0.498000	0.505900	0.518600
H10181	H1018	0.511300	0.555400	0.524300
O2821	O282	0.457400	0.503500	0.532260
H10191	H1019	0.197600	0.321900	0.426800
H10201	H1020	0.182100	0.350400	0.417800
O2831	O283	0.238600	0.351100	0.412130
C15291	C1529	0.472600	0.482300	0.540790
C15301	C1530	0.222200	0.314500	0.404520
C15311	C1531	0.519000	0.494500	0.541070
C15321	C1532	0.443700	0.461900	0.551780
C15331	C1533	0.177200	0.280400	0.404420
C15341	C1534	0.251200	0.320000	0.393650
H10211	H1021	0.540600	0.517100	0.535400
C15351	C1535	0.533100	0.472800	0.549840
C15361	C1536	0.458700	0.441800	0.560090
C15371	C1537	0.396900	0.453100	0.554200
C15381	C1538	0.163000	0.244600	0.395000
H10221	H1022	0.155900	0.280200	0.410400
C15391	C1539	0.238500	0.285900	0.384790
C15401	C1540	0.299800	0.356400	0.391850
H10231	H1023	0.562000	0.474100	0.548900
C15411	C1541	0.502900	0.448500	0.560310
C15421	C1542	0.420600	0.412000	0.569740
H10241	H1024	0.386900	0.468700	0.547900
C15431	C1543	0.395200	0.466200	0.566500
C15441	C1544	0.368900	0.402400	0.553500
C15451	C1545	0.195700	0.250200	0.384600
H10251	H1025	0.133300	0.217900	0.395400
C15461	C1546	0.271400	0.288800	0.375630
H10261	H1026	0.310300	0.381600	0.398300
C15471	C1547	0.328200	0.336100	0.391450
C15481	C1548	0.298300	0.373200	0.378090
O2841	O284	0.514100	0.427500	0.569060
H10271	H1027	0.430300	0.396500	0.576200
C15491	C1549	0.408600	0.446800	0.575500
C15501	C1550	0.380100	0.379900	0.562400
C15511	C1551	0.380900	0.496300	0.570600
C15521	C1552	0.330900	0.376700	0.545500
O2851	O285	0.175700	0.213100	0.375820
H10281	H1028	0.260000	0.261200	0.370000
C15531	C1553	0.313800	0.300100	0.382740
C15541	C1554	0.281700	0.334000	0.368620
C15551	C1555	0.367900	0.347800	0.398630
C15561	C1556	0.312900	0.417700	0.374360
C15571	C1557	0.555500	0.435500	0.569950
C15581	C1558	0.408600	0.459300	0.589500
C15591	C1559	0.360800	0.337100	0.564170
C15601	C1560	0.386000	0.508300	0.586000
H10291	H1029	0.368700	0.509400	0.564900
C15611	C1561	0.309600	0.331400	0.546400
H10301	H1030	0.321000	0.391500	0.539600
C15621	C1562	0.128800	0.184300	0.374430
C15631	C1563	0.336900	0.278300	0.381400
C15641	C1564	0.281300	0.344500	0.356220
H10311	H1031	0.379000	0.373500	0.404200
C15651	C1565	0.391400	0.324700	0.398100
H10321	H1032	0.323300	0.442100	0.380300
C15661	C1566	0.311700	0.425600	0.361360
H10331	H1033	0.576000	0.469100	0.571100
H10341	H1034	0.563900	0.427100	0.561800
C15671	C1567	0.565300	0.411000	0.580310
H10351	H1035	0.417500	0.445000	0.595800
C15681	C1568	0.396200	0.490400	0.593000
H10361	H1036	0.372800	0.325000	0.570300
C15691	C1569	0.320200	0.306300	0.557000
H10371	H1037	0.379800	0.531500	0.588900
H10381	H1038	0.286800	0.313500	0.540300
H10391	H1039	0.113000	0.202600	0.374000
H10401	H1040	0.116200	0.163000	0.381700
C15701	C1570	0.121600	0.158200	0.362700
C15711	C1571	0.376300	0.291900	0.388800
H10411	H1041	0.326900	0.253500	0.375600
C15721	C1572	0.292500	0.386800	0.352490
H10421	H1042	0.272800	0.321000	0.350000
H10431	H1043	0.416000	0.330600	0.403700
H10441	H1044	0.323400	0.456100	0.358300
C15731	C1573	0.532500	0.389700	0.589580
C15741	C1574	0.605700	0.407800	0.581470
H10451	H1045	0.396300	0.497100	0.601700
H10461	H1046	0.302100	0.274100	0.558600
C15751	C1575	0.075700	0.123000	0.358800
C15761	C1576	0.153800	0.168600	0.354200
H10471	H1047	0.394000	0.277400	0.387200
H10481	H1048	0.287900	0.391900	0.343900
H10491	H1049	0.504800	0.390800	0.589000
C15771	C1577	0.537900	0.366500	0.599910
C15781	C1578	0.610200	0.385400	0.591620
H10501	H1050	0.629300	0.421000	0.575200
H10511	H1051	0.049300	0.113500	0.364000
C15791	C1579	0.073000	0.104000	0.346720
C15801	C1580	0.148900	0.141600	0.342210
H10521	H1052	0.182900	0.195500	0.355600
H10531	H1053	0.515100	0.353300	0.606300
C15811	C1581	0.578700	0.363400	0.600410
H10541	H1054	0.638600	0.385700	0.592500
H10551	H1055	0.042600	0.082800	0.344000
C15821	C1582	0.104500	0.110300	0.338830
H10561	H1056	0.174700	0.146000	0.337400
C15831	C1583	0.583800	0.336500	0.610800
C15841	C1584	0.097000	0.081600	0.328100
O2861	O286	0.056900	0.063500	0.324210
Zn511	Zn51	0.044440	0.932120	0.793710
O2871	O287	0.007170	0.951630	0.802360
O2881	O288	0.073870	0.914830	0.806990
O2891	O289	0.007970	0.878230	0.784190
O2901	O290	0.091270	0.973930	0.783280
Zn521	Zn52	0.964070	0.891630	0.809930
C15851	C1585	0.047670	0.892030	0.816040
C15861	C1586	0.965870	0.846830	0.787660
O2911	O291	0.006570	0.877430	0.818670
O2921	O292	0.940870	0.847830	0.796510
O2931	O293	0.914670	0.872430	0.821850
O2941	O294	0.958070	0.945430	0.779440
C15871	C1587	0.075270	0.882530	0.826260
C15881	C1588	0.943270	0.805230	0.778710
C15891	C1589	0.053570	0.858430	0.837770
C15901	C1590	0.119970	0.895130	0.825110
C15911	C1591	0.966070	0.799730	0.767640
C15921	C1592	0.902170	0.767630	0.782060
C15931	C1593	0.077270	0.849730	0.846160
H10571	H1057	0.022170	0.848830	0.839330
H10581	H1058	0.135570	0.911430	0.817630
C15941	C1594	0.145270	0.886330	0.833930
C15951	C1595	0.945370	0.760230	0.760160
H10591	H1059	0.996070	0.823930	0.765430
H10601	H1060	0.887870	0.767330	0.789830
C15961	C1596	0.880470	0.728330	0.773700
C15971	C1597	0.124370	0.864230	0.845160
H10611	H1061	0.061270	0.832230	0.853430
H10621	H1062	0.176570	0.895330	0.832330
C15981	C1598	0.902270	0.725430	0.763110
H10631	H1063	0.961170	0.757530	0.753030
H10641	H1064	0.850370	0.703930	0.775630
C15991	C1599	0.151870	0.858230	0.855150
C16001	C1600	0.875670	0.683530	0.754970
H10651	H1065	0.164670	0.839230	0.851930
H10661	H1066	0.177970	0.888730	0.857630
O2951	O295	0.124070	0.836830	0.865590
H10671	H1067	0.864270	0.655230	0.760130
H10681	H1068	0.848770	0.683730	0.751130
O2961	O296	0.905270	0.684430	0.745460
C16011	C1601	0.139270	0.815630	0.874120
C16021	C1602	0.888870	0.647830	0.737850
C16031	C1603	0.185670	0.827830	0.874400
C16041	C1604	0.110370	0.795230	0.885110
C16051	C1605	0.843870	0.613730	0.737750
C16061	C1606	0.917870	0.653330	0.726980
H10691	H1069	0.207270	0.850430	0.868730
C16071	C1607	0.199770	0.806130	0.883170
C16081	C1608	0.125370	0.775130	0.893420
C16091	C1609	0.063570	0.786430	0.887530
C16101	C1610	0.829670	0.577930	0.728330
H10701	H1070	0.822570	0.613530	0.743730
C16111	C1611	0.905170	0.619230	0.718120
C16121	C1612	0.966470	0.689730	0.725180
H10711	H1071	0.228670	0.807430	0.882230
C16131	C1613	0.169570	0.781830	0.893640
C16141	C1614	0.087270	0.745330	0.903070
H10721	H1072	0.053570	0.802030	0.881230
C16151	C1615	0.061870	0.799530	0.899830
C16161	C1616	0.035570	0.735730	0.886830
C16171	C1617	0.862370	0.583530	0.717930
H10731	H1073	0.799970	0.551230	0.728730
C16181	C1618	0.938070	0.622130	0.708960
H10741	H1074	0.976970	0.714930	0.731630
C16191	C1619	0.994870	0.669430	0.724780
C16201	C1620	0.964970	0.706530	0.711420
O2971	O297	0.180770	0.760830	0.902390
H10751	H1075	0.096970	0.729830	0.909530
C16211	C1621	0.075270	0.780130	0.908830
C16221	C1622	0.046770	0.713230	0.895730
C16231	C1623	0.047570	0.829630	0.903930
C16241	C1624	0.997570	0.710030	0.878830
O2981	O298	0.842370	0.546430	0.709150
H10761	H1076	0.926670	0.594530	0.703330
C16251	C1625	0.980470	0.633430	0.716070
C16261	C1626	0.948370	0.667330	0.701950
C16271	C1627	0.034570	0.681130	0.731960
C16281	C1628	0.979570	0.751030	0.707690
C16291	C1629	0.222170	0.768830	0.903280
C16301	C1630	0.075270	0.792630	0.922830
C16311	C1631	0.027470	0.670430	0.897500
C16321	C1632	0.052670	0.841630	0.919330
H10771	H1077	0.035370	0.842730	0.898230
C16331	C1633	0.976270	0.664730	0.879730
H10781	H1078	0.987670	0.724830	0.872930
C16341	C1634	0.795470	0.517630	0.707760
C16351	C1635	0.003570	0.611630	0.714730
C16361	C1636	0.947970	0.677830	0.689550
H10791	H1079	0.045670	0.706830	0.737530
C16371	C1637	0.058070	0.658030	0.731430
H10801	H1080	0.989970	0.775430	0.713630
C16381	C1638	0.978370	0.758930	0.694690
H10811	H1081	0.242670	0.802430	0.904430
H10821	H1082	0.230570	0.760430	0.895130
C16391	C1639	0.231970	0.744330	0.913640
H10831	H1083	0.084170	0.778330	0.929130
C16401	C1640	0.062870	0.823730	0.926330
H10841	H1084	0.039470	0.658330	0.903630
C16411	C1641	0.986870	0.639630	0.890330
H10851	H1085	0.046470	0.864830	0.922230
H10861	H1086	0.953470	0.646830	0.873630
H10871	H1087	0.779670	0.535930	0.707330
H10881	H1088	0.782870	0.496330	0.715030
C16421	C1642	0.788270	0.491530	0.696030
C16431	C1643	0.042970	0.625230	0.722130
H10891	H1089	0.993570	0.586830	0.708930
C16441	C1644	0.959170	0.720130	0.685820
H10901	H1090	0.939470	0.654330	0.683330
H10911	H1091	0.082670	0.663930	0.737030
H10921	H1092	0.990070	0.789430	0.691630
C16451	C1645	0.199170	0.723030	0.922910
C16461	C1646	0.272370	0.741130	0.914800
H10931	H1093	0.062970	0.830430	0.935030
H10941	H1094	0.968770	0.607430	0.891930
C16471	C1647	0.742370	0.456330	0.692130
C16481	C1648	0.820470	0.501930	0.687530
H10951	H1095	0.060670	0.610730	0.720530
H10961	H1096	0.954570	0.725230	0.677230
H10971	H1097	0.171470	0.724130	0.922330
C16491	C1649	0.204570	0.699830	0.933240
C16501	C1650	0.276870	0.718730	0.924950
H10981	H1098	0.295970	0.754330	0.908530
H10991	H1099	0.715970	0.446830	0.697330
C16511	C1651	0.739670	0.437330	0.680050
C16521	C1652	0.815570	0.474930	0.675540
H11001	H1100	0.849570	0.528830	0.688930
H11011	H1101	0.181770	0.686630	0.939630
C16531	C1653	0.245370	0.696730	0.933740
H11021	H1102	0.305270	0.719030	0.925830
H11031	H1103	0.709270	0.416130	0.677330
C16541	C1654	0.771170	0.443630	0.672160
H11041	H1104	0.841370	0.479330	0.670730
C16551	C1655	0.250470	0.669830	0.944130
C16561	C1656	0.763670	0.414930	0.661430
O2991	O299	0.723570	0.396830	0.657540
Zn531	Zn53	0.711100	0.265460	0.127050
O3001	O300	0.673830	0.284970	0.135700
O3011	O301	0.740530	0.248170	0.140330
O3021	O302	0.674630	0.211570	0.117530
O3031	O303	0.757930	0.307270	0.116620
Zn541	Zn54	0.630730	0.224970	0.143270
C16571	C1657	0.714330	0.225370	0.149380
C16581	C1658	0.632530	0.180170	0.121000
O3041	O304	0.673230	0.210770	0.152010
O3051	O305	0.607530	0.181170	0.129850
O3061	O306	0.581330	0.205770	0.155190
O3071	O307	0.624730	0.278770	0.112780
C16591	C1659	0.741930	0.215870	0.159600
C16601	C1660	0.609930	0.138570	0.112050
C16611	C1661	0.720230	0.191770	0.171110
C16621	C1662	0.786630	0.228470	0.158450
C16631	C1663	0.632730	0.133070	0.100980
C16641	C1664	0.568830	0.100970	0.115400
C16651	C1665	0.743930	0.183070	0.179500
H11051	H1105	0.688830	0.182170	0.172670
H11061	H1106	0.802230	0.244770	0.150970
C16661	C1666	0.811930	0.219670	0.167270
C16671	C1667	0.612030	0.093570	0.093500
H11071	H1107	0.662730	0.157270	0.098770
H11081	H1108	0.554530	0.100670	0.123170
C16681	C1668	0.547130	0.061670	0.107040
C16691	C1669	0.791030	0.197570	0.178500
H11091	H1109	0.727930	0.165570	0.186770
H11101	H1110	0.843230	0.228670	0.165670
C16701	C1670	0.568930	0.058770	0.096450
H11111	H1111	0.627830	0.090870	0.086370
H11121	H1112	0.517030	0.037270	0.108970
C16711	C1671	0.818530	0.191570	0.188490
C16721	C1672	0.542330	0.016870	0.088310
H11131	H1113	0.831330	0.172570	0.185270
H11141	H1114	0.844630	0.222070	0.190970
O3081	O308	0.790730	0.170170	0.198930
H11151	H1115	0.530930	0.988570	0.093470
H11161	H1116	0.515430	0.017070	0.084470
O3091	O309	0.571930	0.017770	0.078800
C16731	C1673	0.805930	0.148970	0.207460
C16741	C1674	0.555530	0.981170	0.071190
C16751	C1675	0.852330	0.161170	0.207740
C16761	C1676	0.777030	0.128570	0.218450
C16771	C1677	0.510530	0.947070	0.071090
C16781	C1678	0.584530	0.986670	0.060320
H11171	H1117	0.873930	0.183770	0.202070
C16791	C1679	0.866430	0.139470	0.216510
C16801	C1680	0.792030	0.108470	0.226760
C16811	C1681	0.730230	0.119770	0.220870
C16821	C1682	0.496330	0.911270	0.061670
H11181	H1118	0.489230	0.946870	0.077070
C16831	C1683	0.571830	0.952570	0.051460
C16841	C1684	0.633130	0.023070	0.058520
H11191	H1119	0.895330	0.140770	0.215570
C16851	C1685	0.836230	0.115170	0.226980
C16861	C1686	0.753930	0.078670	0.236410
H11201	H1120	0.720230	0.135370	0.214570
C16871	C1687	0.728530	0.132870	0.233170
C16881	C1688	0.702230	0.069070	0.220170
C16891	C1689	0.529030	0.916870	0.051270
H11211	H1121	0.466630	0.884570	0.062070
C16901	C1690	0.604730	0.955470	0.042300
H11221	H1122	0.643630	0.048270	0.064970
C16911	C1691	0.661530	0.002770	0.058120
C16921	C1692	0.631630	0.039870	0.044760
O3101	O310	0.847430	0.094170	0.235730
H11231	H1123	0.763630	0.063170	0.242870
C16931	C1693	0.741930	0.113470	0.242170
C16941	C1694	0.713430	0.046570	0.229070
C16951	C1695	0.714230	0.162970	0.237270
C16961	C1696	0.664230	0.043370	0.212170
O3111	O311	0.509030	0.879770	0.042490
H11241	H1124	0.593330	0.927870	0.036670
C16971	C1697	0.647130	0.966770	0.049410
C16981	C1698	0.615030	0.000670	0.035290
C16991	C1699	0.701230	0.014470	0.065300
C17001	C1700	0.646230	0.084370	0.041030
C17011	C1701	0.888830	0.102170	0.236620
C17021	C1702	0.741930	0.125970	0.256170
C17031	C1703	0.694130	0.003770	0.230840
C17041	C1704	0.719330	0.174970	0.252670
H11251	H1125	0.702030	0.176070	0.231570
C17051	C1705	0.642930	0.998070	0.213070
H11261	H1126	0.654330	0.058170	0.206270
C17061	C1706	0.462130	0.850970	0.041100
C17071	C1707	0.670230	0.944970	0.048070
C17081	C1708	0.614630	0.011170	0.022890
H11271	H1127	0.712330	0.040170	0.070870
C17091	C1709	0.724730	0.991370	0.064770
H11281	H1128	0.656630	0.108770	0.046970
C17101	C1710	0.645030	0.092270	0.028030
H11291	H1129	0.909330	0.135770	0.237770
H11301	H1130	0.897230	0.093770	0.228470
C17111	C1711	0.898630	0.077670	0.246980
H11311	H1131	0.750830	0.111670	0.262470
C17121	C1712	0.729530	0.157070	0.259670
H11321	H1132	0.706130	0.991670	0.236970
C17131	C1713	0.653530	0.972970	0.223670
H11331	H1133	0.713130	0.198170	0.255570
H11341	H1134	0.620130	0.980170	0.206970
H11351	H1135	0.446330	0.869270	0.040670
H11361	H1136	0.449530	0.829670	0.048370
C17141	C1714	0.454930	0.824870	0.029370
C17151	C1715	0.709630	0.958570	0.055470
H11371	H1137	0.660230	0.920170	0.042270
C17161	C1716	0.625830	0.053470	0.019160
H11381	H1138	0.606130	0.987670	0.016670
H11391	H1139	0.749330	0.997270	0.070370
H11401	H1140	0.656730	0.122770	0.024970
C17171	C1717	0.865830	0.056370	0.256250
C17181	C1718	0.939030	0.074470	0.248140
H11411	H1141	0.729630	0.163770	0.268370
H11421	H1142	0.635430	0.940770	0.225270
C17191	C1719	0.409030	0.789670	0.025470
C17201	C1720	0.487130	0.835270	0.020870
H11431	H1143	0.727330	0.944070	0.053870
H11441	H1144	0.621230	0.058570	0.010570
H11451	H1145	0.838130	0.057470	0.255670
C17211	C1721	0.871230	0.033170	0.266580
C17221	C1722	0.943530	0.052070	0.258290
H11461	H1146	0.962630	0.087670	0.241870
H11471	H1147	0.382630	0.780170	0.030670
C17231	C1723	0.406330	0.770670	0.013390
C17241	C1724	0.482230	0.808270	0.008880
H11481	H1148	0.516230	0.862170	0.022270
H11491	H1149	0.848430	0.019970	0.272970
C17251	C1725	0.912030	0.030070	0.267080
H11501	H1150	0.971930	0.052370	0.259170
H11511	H1151	0.375930	0.749470	0.010670
C17261	C1726	0.437830	0.776970	0.005500
H11521	H1152	0.508030	0.812670	0.004070
C17271	C1727	0.917130	0.003170	0.277470
C17281	C1728	0.430330	0.748270	0.994770
O3121	O312	0.390230	0.730170	0.990880
Zn551	Zn55	0.221020	0.622230	0.460380
O3131	O313	0.277800	0.659500	0.469030
O3141	O314	0.174300	0.592800	0.473660
O3151	O315	0.203600	0.658700	0.450860
O3161	O316	0.216000	0.575400	0.449950
Zn561	Zn56	0.260900	0.702600	0.476600
C17291	C1729	0.177700	0.619000	0.482710
C17301	C1730	0.214300	0.700800	0.454330
O3171	O317	0.204200	0.660100	0.485340
O3181	O318	0.240300	0.725800	0.463180
O3191	O319	0.291100	0.752000	0.488520
O3201	O320	0.320700	0.708600	0.446110
C17311	C1731	0.140600	0.591400	0.492930
C17321	C1732	0.195300	0.723400	0.445380
C17331	C1733	0.138200	0.613100	0.504440
C17341	C1734	0.108500	0.546700	0.491780
C17351	C1735	0.167000	0.700600	0.434310
C17361	C1736	0.198800	0.764500	0.448730
C17371	C1737	0.105800	0.589400	0.512830
H11531	H1153	0.160000	0.644500	0.506000
H11541	H1154	0.109200	0.531100	0.484300
C17381	C1738	0.074400	0.521400	0.500600
C17391	C1739	0.148200	0.721300	0.426830
H11551	H1155	0.161200	0.670600	0.432100
H11561	H1156	0.212800	0.778800	0.456500
C17401	C1740	0.181200	0.786200	0.440370
C17411	C1741	0.073200	0.542300	0.511830
H11571	H1157	0.104300	0.605400	0.520100
H11581	H1158	0.052100	0.490100	0.499000
C17421	C1742	0.156500	0.764400	0.429780
H11591	H1159	0.129700	0.705500	0.419700
H11601	H1160	0.186900	0.816300	0.442300
C17431	C1743	0.039700	0.514800	0.521820
C17441	C1744	0.141200	0.791000	0.421640
H11611	H1161	0.007900	0.502000	0.518600
H11621	H1162	0.044100	0.488700	0.524300
O3211	O321	0.046100	0.542600	0.532260
H11631	H1163	0.124300	0.802400	0.426800
H11641	H1164	0.168300	0.817900	0.417800
O3221	O322	0.112500	0.761400	0.412130
C17451	C1745	0.009700	0.527400	0.540790
C17461	C1746	0.092300	0.777800	0.404520
C17471	C1747	0.975500	0.481000	0.541070
C17481	C1748	0.018200	0.556300	0.551780
C17491	C1749	0.103200	0.822800	0.404420
C17501	C1750	0.068800	0.748800	0.393650
H11651	H1165	0.976500	0.459400	0.535400
C17511	C1751	0.939700	0.466900	0.549840
C17521	C1752	0.983100	0.541300	0.560090
C17531	C1753	0.056200	0.603100	0.554200
C17541	C1754	0.081600	0.837000	0.395000
H11661	H1166	0.124300	0.844100	0.410400
C17551	C1755	0.047400	0.761500	0.384790
C17561	C1756	0.056600	0.700200	0.391850
H11671	H1167	0.912100	0.438000	0.548900
C17571	C1757	0.945600	0.497100	0.560310
C17581	C1758	0.991400	0.579400	0.569740
H11681	H1168	0.081800	0.613100	0.547900
C17591	C1759	0.071000	0.604800	0.566500
C17601	C1760	0.033500	0.631100	0.553500
C17611	C1761	0.054500	0.804300	0.384600
H11691	H1169	0.084600	0.866700	0.395400
C17621	C1762	0.017400	0.728600	0.375630
H11701	H1170	0.071300	0.689700	0.398300
C17631	C1763	0.007900	0.671800	0.391450
C17641	C1764	0.074900	0.701700	0.378090
O3231	O323	0.913400	0.485900	0.569060
H11711	H1171	0.966200	0.569700	0.576200
C17651	C1765	0.038200	0.591400	0.575500
C17661	C1766	0.999800	0.619900	0.562400
C17671	C1767	0.115400	0.619100	0.570600
C17681	C1768	0.045800	0.669100	0.545500
O3241	O324	0.037400	0.824300	0.375820
H11721	H1172	0.001200	0.740000	0.370000
C17691	C1769	0.986300	0.686200	0.382740
C17701	C1770	0.052300	0.718300	0.368620
C17711	C1771	0.979900	0.632100	0.398630
C17721	C1772	0.104800	0.687100	0.374360
C17731	C1773	0.880000	0.444500	0.569950
C17741	C1774	0.050700	0.591400	0.589500
C17751	C1775	0.976300	0.639200	0.564170
C17761	C1776	0.122300	0.614000	0.586000
H11731	H1173	0.140700	0.631300	0.564900
C17771	C1777	0.021800	0.690400	0.546400
H11741	H1174	0.070500	0.679000	0.539600
C17781	C1778	0.055500	0.871200	0.374430
C17791	C1779	0.941400	0.663100	0.381400
C17801	C1780	0.063200	0.718700	0.356220
H11751	H1175	0.994500	0.621000	0.404200
C17811	C1781	0.933300	0.608600	0.398100
H11761	H1176	0.118800	0.676700	0.380300
C17821	C1782	0.113900	0.688300	0.361360
H11771	H1177	0.893100	0.424000	0.571100
H11781	H1178	0.863200	0.436100	0.561800
C17831	C1783	0.845700	0.434700	0.580310
H11791	H1179	0.027500	0.582500	0.595800
C17841	C1784	0.094200	0.603800	0.593000
H11801	H1180	0.952200	0.627200	0.570300
C17851	C1785	0.986100	0.679800	0.557000
H11811	H1181	0.151700	0.620200	0.588900
H11821	H1182	0.026700	0.713200	0.540300
H11831	H1183	0.089600	0.887000	0.374000
H11841	H1184	0.046800	0.883800	0.381700
C17861	C1786	0.036600	0.878400	0.362700
C17871	C1787	0.915600	0.623700	0.388800
H11851	H1185	0.926600	0.673100	0.375600
C17881	C1788	0.094300	0.707500	0.352490
H11861	H1186	0.048200	0.727200	0.350000
H11871	H1187	0.914600	0.584000	0.403700
H11881	H1188	0.132700	0.676600	0.358300
C17891	C1789	0.857200	0.467500	0.589580
C17901	C1790	0.802100	0.394300	0.581470
H11891	H1189	0.100800	0.603700	0.601700
H11901	H1190	0.972000	0.697900	0.558600
C17911	C1791	0.047300	0.924300	0.358800
C17921	C1792	0.014800	0.846200	0.354200
H11911	H1191	0.883400	0.606000	0.387200
H11921	H1192	0.104000	0.712100	0.343900
H11931	H1193	0.886000	0.495200	0.589000
C17931	C1793	0.828600	0.462100	0.599910
C17941	C1794	0.775200	0.389800	0.591620
H11941	H1194	0.791700	0.370700	0.575200
H11951	H1195	0.064200	0.950700	0.364000
C17951	C1795	0.031000	0.927000	0.346720
C17961	C1796	0.992700	0.851100	0.342210
H11961	H1196	0.012600	0.817100	0.355600
H11971	H1197	0.838200	0.484900	0.606300
C17971	C1797	0.784700	0.421300	0.600410
H11981	H1198	0.747100	0.361400	0.592500
H11991	H1199	0.040200	0.957400	0.344000
C17981	C1798	0.005800	0.895500	0.338830
H12001	H1200	0.971300	0.825300	0.337400
C17991	C1799	0.752700	0.416200	0.610800
C18001	C1800	0.984600	0.903000	0.328100
O3251	O325	0.006600	0.943100	0.324210
Zn571	Zn57	0.887690	0.955560	0.793710
O3261	O326	0.944470	0.992830	0.802360
O3271	O327	0.840970	0.926130	0.806990
O3281	O328	0.870270	0.992030	0.784190
O3291	O329	0.882670	0.908730	0.783280
Zn581	Zn58	0.927570	0.035930	0.809930
C18011	C1801	0.844370	0.952330	0.816040
C18021	C1802	0.880970	0.034130	0.787660
O3301	O330	0.870870	0.993430	0.818670
O3311	O331	0.906970	0.059130	0.796510
O3321	O332	0.957770	0.085330	0.821850
O3331	O333	0.987370	0.041930	0.779440
C18031	C1803	0.807270	0.924730	0.826260
C18041	C1804	0.861970	0.056730	0.778710
C18051	C1805	0.804870	0.946430	0.837770
C18061	C1806	0.775170	0.880030	0.825110
C18071	C1807	0.833670	0.033930	0.767640
C18081	C1808	0.865470	0.097830	0.782060
C18091	C1809	0.772470	0.922730	0.846160
H12011	H1201	0.826670	0.977830	0.839330
H12021	H1202	0.775870	0.864430	0.817630
C18101	C1810	0.741070	0.854730	0.833930
C18111	C1811	0.814870	0.054630	0.760160
H12031	H1203	0.827870	0.003930	0.765430
H12041	H1204	0.879470	0.112130	0.789830
C18121	C1812	0.847870	0.119530	0.773700
C18131	C1813	0.739870	0.875630	0.845160
H12051	H1205	0.770970	0.938730	0.853430
H12061	H1206	0.718770	0.823430	0.832330
C18141	C1814	0.823170	0.097730	0.763110
H12071	H1207	0.796370	0.038830	0.753030
H12081	H1208	0.853570	0.149630	0.775630
C18151	C1815	0.706370	0.848130	0.855150
C18161	C1816	0.807870	0.124330	0.754970
H12091	H1209	0.674570	0.835330	0.851930
H12101	H1210	0.710770	0.822030	0.857630
O3341	O334	0.712770	0.875930	0.865590
H12111	H1211	0.790970	0.135730	0.760130
H12121	H1212	0.834970	0.151230	0.751130
O3351	O335	0.779170	0.094730	0.745460
C18171	C1817	0.676370	0.860730	0.874120
C18181	C1818	0.758970	0.111130	0.737850
C18191	C1819	0.642170	0.814330	0.874400
C18201	C1820	0.684870	0.889630	0.885110
C18211	C1821	0.769870	0.156130	0.737750
C18221	C1822	0.735470	0.082130	0.726980
H12131	H1213	0.643170	0.792730	0.868730
C18231	C1823	0.606370	0.800230	0.883170
C18241	C1824	0.649770	0.874630	0.893420
C18251	C1825	0.722870	0.936430	0.887530
C18261	C1826	0.748270	0.170330	0.728330
H12141	H1214	0.790970	0.177430	0.743730
C18271	C1827	0.714070	0.094830	0.718120
C18281	C1828	0.723270	0.033530	0.725180
H12151	H1215	0.578770	0.771330	0.882230
C18291	C1829	0.612270	0.830430	0.893640
C18301	C1830	0.658070	0.912730	0.903070
H12161	H1216	0.748470	0.946430	0.881230
C18311	C1831	0.737670	0.938130	0.899830
C18321	C1832	0.700170	0.964430	0.886830
C18331	C1833	0.721170	0.137630	0.717930
H12171	H1217	0.751270	0.200030	0.728730
C18341	C1834	0.684070	0.061930	0.708960
H12181	H1218	0.737970	0.023030	0.731630
C18351	C1835	0.674570	0.005130	0.724780
C18361	C1836	0.741570	0.035030	0.711420
O3361	O336	0.580070	0.819230	0.902390
H12191	H1219	0.632870	0.903030	0.909530
C18371	C1837	0.704870	0.924730	0.908830
C18381	C1838	0.666470	0.953230	0.895730
C18391	C1839	0.782070	0.952430	0.903930
C18401	C1840	0.712470	0.002430	0.878830
O3371	O337	0.704070	0.157630	0.709150
H12201	H1220	0.667870	0.073330	0.703330
C18411	C1841	0.652970	0.019530	0.716070
C18421	C1842	0.718970	0.051630	0.701950
C18431	C1843	0.646570	0.965430	0.731960
C18441	C1844	0.771470	0.020430	0.707690
C18451	C1845	0.546670	0.777830	0.903280
C18461	C1846	0.717370	0.924730	0.922830
C18471	C1847	0.642970	0.972530	0.897500
C18481	C1848	0.788970	0.947330	0.919330
H12211	H1221	0.807370	0.964630	0.898230
C18491	C1849	0.688470	0.023730	0.879730
H12221	H1222	0.737170	0.012330	0.872930
C18501	C1850	0.722170	0.204530	0.707760
C18511	C1851	0.608070	0.996430	0.714730
C18521	C1852	0.729870	0.052030	0.689550
H12231	H1223	0.661170	0.954330	0.737530
C18531	C1853	0.599970	0.941930	0.731430
H12241	H1224	0.785470	0.010030	0.713630
C18541	C1854	0.780570	0.021630	0.694690
H12251	H1225	0.559770	0.757330	0.904430
H12261	H1226	0.529870	0.769430	0.895130
C18551	C1855	0.512370	0.768030	0.913640
H12271	H1227	0.694170	0.915830	0.929130
C18561	C1856	0.760870	0.937130	0.926330
H12281	H1228	0.618870	0.960530	0.903630
C18571	C1857	0.652770	0.013130	0.890330
H12291	H1229	0.818370	0.953530	0.922230
H12301	H1230	0.693370	0.046530	0.873630
H12311	H1231	0.756270	0.220330	0.707330
H12321	H1232	0.713470	0.217130	0.715030
C18581	C1858	0.703270	0.211730	0.696030
C18591	C1859	0.582270	0.957030	0.722130
H12331	H1233	0.593270	0.006430	0.708930
C18601	C1860	0.760970	0.040830	0.685820
H12341	H1234	0.714870	0.060530	0.683330
H12351	H1235	0.581270	0.917330	0.737030
H12361	H1236	0.799370	0.009930	0.691630
C18611	C1861	0.523870	0.800830	0.922910
C18621	C1862	0.468770	0.727630	0.914800
H12371	H1237	0.767470	0.937030	0.935030
H12381	H1238	0.638670	0.031230	0.891930
C18631	C1863	0.713970	0.257630	0.692130
C18641	C1864	0.681470	0.179530	0.687530
H12391	H1239	0.550070	0.939330	0.720530
H12401	H1240	0.770670	0.045430	0.677230
H12411	H1241	0.552670	0.828530	0.922330
C18651	C1865	0.495270	0.795430	0.933240
C18661	C1866	0.441870	0.723130	0.924950
H12421	H1242	0.458370	0.704030	0.908530
H12431	H1243	0.730870	0.284030	0.697330
C18671	C1867	0.697670	0.260330	0.680050
C18681	C1868	0.659370	0.184430	0.675540
H12441	H1244	0.679270	0.150430	0.688930
H12451	H1245	0.504870	0.818230	0.939630
C18691	C1869	0.451370	0.754630	0.933740
H12461	H1246	0.413770	0.694730	0.925830
H12471	H1247	0.706870	0.290730	0.677330
C18701	C1870	0.672470	0.228830	0.672160
H12481	H1248	0.637970	0.158630	0.670730
C18711	C1871	0.419370	0.749530	0.944130
C18721	C1872	0.651270	0.236330	0.661430
O3381	O338	0.673270	0.276430	0.657540
Zn591	Zn59	0.554350	0.288900	0.127050
O3391	O339	0.611130	0.326170	0.135700
O3401	O340	0.507630	0.259470	0.140330
O3411	O341	0.536930	0.325370	0.117530
O3421	O342	0.549330	0.242070	0.116620
Zn601	Zn60	0.594230	0.369270	0.143270
C18731	C1873	0.511030	0.285670	0.149380
C18741	C1874	0.547630	0.367470	0.121000
O3431	O343	0.537530	0.326770	0.152010
O3441	O344	0.573630	0.392470	0.129850
O3451	O345	0.624430	0.418670	0.155190
O3461	O346	0.654030	0.375270	0.112780
C18751	C1875	0.473930	0.258070	0.159600
C18761	C1876	0.528630	0.390070	0.112050
C18771	C1877	0.471530	0.279770	0.171110
C18781	C1878	0.441830	0.213370	0.158450
C18791	C1879	0.500330	0.367270	0.100980
C18801	C1880	0.532130	0.431170	0.115400
C18811	C1881	0.439130	0.256070	0.179500
H12491	H1249	0.493330	0.311170	0.172670
H12501	H1250	0.442530	0.197770	0.150970
C18821	C1882	0.407730	0.188070	0.167270
C18831	C1883	0.481530	0.387970	0.093500
H12511	H1251	0.494530	0.337270	0.098770
H12521	H1252	0.546130	0.445470	0.123170
C18841	C1884	0.514530	0.452870	0.107040
C18851	C1885	0.406530	0.208970	0.178500
H12531	H1253	0.437630	0.272070	0.186770
H12541	H1254	0.385430	0.156770	0.165670
C18861	C1886	0.489830	0.431070	0.096450
H12551	H1255	0.463030	0.372170	0.086370
H12561	H1256	0.520230	0.482970	0.108970
C18871	C1887	0.373030	0.181470	0.188490
C18881	C1888	0.474530	0.457670	0.088310
H12571	H1257	0.341230	0.168670	0.185270
H12581	H1258	0.377430	0.155370	0.190970
O3471	O347	0.379430	0.209270	0.198930
H12591	H1259	0.457630	0.469070	0.093470
H12601	H1260	0.501630	0.484570	0.084470
O3481	O348	0.445830	0.428070	0.078800
C18891	C1889	0.343030	0.194070	0.207460
C18901	C1890	0.425630	0.444470	0.071190
C18911	C1891	0.308830	0.147670	0.207740
C18921	C1892	0.351530	0.222970	0.218450
C18931	C1893	0.436530	0.489470	0.071090
C18941	C1894	0.402130	0.415470	0.060320
H12611	H1261	0.309830	0.126070	0.202070
C18951	C1895	0.273030	0.133570	0.216510
C18961	C1896	0.316430	0.207970	0.226760
C18971	C1897	0.389530	0.269770	0.220870
C18981	C1898	0.414930	0.503670	0.061670
H12621	H1262	0.457630	0.510770	0.077070
C18991	C1899	0.380730	0.428170	0.051460
C19001	C1900	0.389930	0.366870	0.058520
H12631	H1263	0.245430	0.104670	0.215570
C19011	C1901	0.278930	0.163770	0.226980
C19021	C1902	0.324730	0.246070	0.236410
H12641	H1264	0.415130	0.279770	0.214570
C19031	C1903	0.404330	0.271470	0.233170
C19041	C1904	0.366830	0.297770	0.220170
C19051	C1905	0.387830	0.470970	0.051270
H12651	H1265	0.417930	0.533370	0.062070
C19061	C1906	0.350730	0.395270	0.042300
H12661	H1266	0.404630	0.356370	0.064970
C19071	C1907	0.341230	0.338470	0.058120
C19081	C1908	0.408230	0.368370	0.044760
O3491	O349	0.246730	0.152570	0.235730
H12671	H1267	0.299530	0.236370	0.242870
C19091	C1909	0.371530	0.258070	0.242170
C19101	C1910	0.333130	0.286570	0.229070
C19111	C1911	0.448730	0.285770	0.237270
C19121	C1912	0.379130	0.335770	0.212170
O3501	O350	0.370730	0.490970	0.042490
H12681	H1268	0.334530	0.406670	0.036670
C19131	C1913	0.319630	0.352870	0.049410
C19141	C1914	0.385630	0.384970	0.035290
C19151	C1915	0.313230	0.298770	0.065300
C19161	C1916	0.438130	0.353770	0.041030
C19171	C1917	0.213330	0.111170	0.236620
C19181	C1918	0.384030	0.258070	0.256170
C19191	C1919	0.309630	0.305870	0.230840
C19201	C1920	0.455630	0.280670	0.252670
H12691	H1269	0.474030	0.297970	0.231570
C19211	C1921	0.355130	0.357070	0.213070
H12701	H1270	0.403830	0.345670	0.206270
C19221	C1922	0.388830	0.537870	0.041100
C19231	C1923	0.274730	0.329770	0.048070
C19241	C1924	0.396530	0.385370	0.022890
H12711	H1271	0.327830	0.287670	0.070870
C19251	C1925	0.266630	0.275270	0.064770
H12721	H1272	0.452130	0.343370	0.046970
C19261	C1926	0.447230	0.354970	0.028030
H12731	H1273	0.226430	0.090670	0.237770
H12741	H1274	0.196530	0.102770	0.228470
C19271	C1927	0.179030	0.101370	0.246980
H12751	H1275	0.360830	0.249170	0.262470
C19281	C1928	0.427530	0.270470	0.259670
H12761	H1276	0.285530	0.293870	0.236970
C19291	C1929	0.319430	0.346470	0.223670
H12771	H1277	0.485030	0.286870	0.255570
H12781	H1278	0.360030	0.379870	0.206970
H12791	H1279	0.422930	0.553670	0.040670
H12801	H1280	0.380130	0.550470	0.048370
C19301	C1930	0.369930	0.545070	0.029370
C19311	C1931	0.248930	0.290370	0.055470
H12811	H1281	0.259930	0.339770	0.042270
C19321	C1932	0.427630	0.374170	0.019160
H12821	H1282	0.381530	0.393870	0.016670
H12831	H1283	0.247930	0.250670	0.070370
H12841	H1284	0.466030	0.343270	0.024970
C19331	C1933	0.190530	0.134170	0.256250
C19341	C1934	0.135430	0.060970	0.248140
H12851	H1285	0.434130	0.270370	0.268370
H12861	H1286	0.305330	0.364570	0.225270
C19351	C1935	0.380630	0.590970	0.025470
C19361	C1936	0.348130	0.512870	0.020870
H12871	H1287	0.216730	0.272670	0.053870
H12881	H1288	0.437330	0.378770	0.010570
H12891	H1289	0.219330	0.161870	0.255670
C19371	C1937	0.161930	0.128770	0.266580
C19381	C1938	0.108530	0.056470	0.258290
H12901	H1290	0.125030	0.037370	0.241870
H12911	H1291	0.397530	0.617370	0.030670
C19391	C1939	0.364330	0.593670	0.013390
C19401	C1940	0.326030	0.517770	0.008880
H12921	H1292	0.345930	0.483770	0.022270
H12931	H1293	0.171530	0.151570	0.272970
C19411	C1941	0.118030	0.087970	0.267080
H12941	H1294	0.080430	0.028070	0.259170
H12951	H1295	0.373530	0.624070	0.010670
C19421	C1942	0.339130	0.562170	0.005500
H12961	H1296	0.304630	0.491970	0.004070
C19431	C1943	0.086030	0.082870	0.277470
C19441	C1944	0.317930	0.569670	0.994770
O3511	O351	0.339930	0.609770	0.990880
Zn611	Zn61	0.221020	0.598790	0.960380
O3521	O352	0.277800	0.618300	0.969030
O3531	O353	0.174300	0.581500	0.973660
O3541	O354	0.203600	0.544900	0.950860
O3551	O355	0.216000	0.640600	0.949950
Zn621	Zn62	0.260900	0.558300	0.976600
C19451	C1945	0.177700	0.558700	0.982710
C19461	C1946	0.214300	0.513500	0.954330
O3561	O356	0.204200	0.544100	0.985340
O3571	O357	0.240300	0.514500	0.963180
O3581	O358	0.291100	0.539100	0.988520
O3591	O359	0.320700	0.612100	0.946110
C19471	C1947	0.140600	0.549200	0.992930
C19481	C1948	0.195300	0.471900	0.945380
C19491	C1949	0.138200	0.525100	0.004440
C19501	C1950	0.108500	0.561800	0.991780
C19511	C1951	0.167000	0.466400	0.934310
C19521	C1952	0.198800	0.434300	0.948730
C19531	C1953	0.105800	0.516400	0.012830
H12971	H1297	0.160000	0.515500	0.006000
H12981	H1298	0.109200	0.578100	0.984300
C19541	C1954	0.074400	0.553000	0.000600
C19551	C1955	0.148200	0.426900	0.926830
H12991	H1299	0.161200	0.490600	0.932100
H13001	H1300	0.212800	0.434000	0.956500
C19561	C1956	0.181200	0.395000	0.940370
C19571	C1957	0.073200	0.530900	0.011830
H13011	H1301	0.104300	0.498900	0.020100
H13021	H1302	0.052100	0.562000	0.999000
C19581	C1958	0.156500	0.392100	0.929780
H13031	H1303	0.129700	0.424200	0.919700
H13041	H1304	0.186900	0.370600	0.942300
C19591	C1959	0.039700	0.524900	0.021820
C19601	C1960	0.141200	0.350200	0.921640
H13051	H1305	0.007900	0.505900	0.018600
H13061	H1306	0.044100	0.555400	0.024300
O3601	O360	0.046100	0.503500	0.032260
H13071	H1307	0.124300	0.321900	0.926800
H13081	H1308	0.168300	0.350400	0.917800
O3611	O361	0.112500	0.351100	0.912130
C19611	C1961	0.009700	0.482300	0.040790
C19621	C1962	0.092300	0.314500	0.904520
C19631	C1963	0.975500	0.494500	0.041070
C19641	C1964	0.018200	0.461900	0.051780
C19651	C1965	0.103200	0.280400	0.904420
C19661	C1966	0.068800	0.320000	0.893650
H13091	H1309	0.976500	0.517100	0.035400
C19671	C1967	0.939700	0.472800	0.049840
C19681	C1968	0.983100	0.441800	0.060090
C19691	C1969	0.056200	0.453100	0.054200
C19701	C1970	0.081600	0.244600	0.895000
H13101	H1310	0.124300	0.280200	0.910400
C19711	C1971	0.047400	0.285900	0.884790
C19721	C1972	0.056600	0.356400	0.891850
H13111	H1311	0.912100	0.474100	0.048900
C19731	C1973	0.945600	0.448500	0.060310
C19741	C1974	0.991400	0.412000	0.069740
H13121	H1312	0.081800	0.468700	0.047900
C19751	C1975	0.071000	0.466200	0.066500
C19761	C1976	0.033500	0.402400	0.053500
C19771	C1977	0.054500	0.250200	0.884600
H13131	H1313	0.084600	0.217900	0.895400
C19781	C1978	0.017400	0.288800	0.875630
H13141	H1314	0.071300	0.381600	0.898300
C19791	C1979	0.007900	0.336100	0.891450
C19801	C1980	0.074900	0.373200	0.878090
O3621	O362	0.913400	0.427500	0.069060
H13151	H1315	0.966200	0.396500	0.076200
C19811	C1981	0.038200	0.446800	0.075500
C19821	C1982	0.999800	0.379900	0.062400
C19831	C1983	0.115400	0.496300	0.070600
C19841	C1984	0.045800	0.376700	0.045500
O3631	O363	0.037400	0.213100	0.875820
H13161	H1316	0.001200	0.261200	0.870000
C19851	C1985	0.986300	0.300100	0.882740
C19861	C1986	0.052300	0.334000	0.868620
C19871	C1987	0.979900	0.347800	0.898630
C19881	C1988	0.104800	0.417700	0.874360
C19891	C1989	0.880000	0.435500	0.069950
C19901	C1990	0.050700	0.459300	0.089500
C19911	C1991	0.976300	0.337100	0.064170
C19921	C1992	0.122300	0.508300	0.086000
H13171	H1317	0.140700	0.509400	0.064900
C19931	C1993	0.021800	0.331400	0.046400
H13181	H1318	0.070500	0.391500	0.039600
C19941	C1994	0.055500	0.184300	0.874430
C19951	C1995	0.941400	0.278300	0.881400
C19961	C1996	0.063200	0.344500	0.856220
H13191	H1319	0.994500	0.373500	0.904200
C19971	C1997	0.933300	0.324700	0.898100
H13201	H1320	0.118800	0.442100	0.880300
C19981	C1998	0.113900	0.425600	0.861360
H13211	H1321	0.893100	0.469100	0.071100
H13221	H1322	0.863200	0.427100	0.061800
C19991	C1999	0.845700	0.411000	0.080310
H13231	H1323	0.027500	0.445000	0.095800
C20001	C2000	0.094200	0.490400	0.093000
H13241	H1324	0.952200	0.325000	0.070300
C20011	C2001	0.986100	0.306300	0.057000
H13251	H1325	0.151700	0.531500	0.088900
H13261	H1326	0.026700	0.313500	0.040300
H13271	H1327	0.089600	0.202600	0.874000
H13281	H1328	0.046800	0.163000	0.881700
C20021	C2002	0.036600	0.158200	0.862700
C20031	C2003	0.915600	0.291900	0.888800
H13291	H1329	0.926600	0.253500	0.875600
C20041	C2004	0.094300	0.386800	0.852490
H13301	H1330	0.048200	0.321000	0.850000
H13311	H1331	0.914600	0.330600	0.903700
H13321	H1332	0.132700	0.456100	0.858300
C20051	C2005	0.857200	0.389700	0.089580
C20061	C2006	0.802100	0.407800	0.081470
H13331	H1333	0.100800	0.497100	0.101700
H13341	H1334	0.972000	0.274100	0.058600
C20071	C2007	0.047300	0.123000	0.858800
C20081	C2008	0.014800	0.168600	0.854200
H13351	H1335	0.883400	0.277400	0.887200
H13361	H1336	0.104000	0.391900	0.843900
H13371	H1337	0.886000	0.390800	0.089000
C20091	C2009	0.828600	0.366500	0.099910
C20101	C2010	0.775200	0.385400	0.091620
H13381	H1338	0.791700	0.421000	0.075200
H13391	H1339	0.064200	0.113500	0.864000
C20111	C2011	0.031000	0.104000	0.846720
C20121	C2012	0.992700	0.141600	0.842210
H13401	H1340	0.012600	0.195500	0.855600
H13411	H1341	0.838200	0.353300	0.106300
C20131	C2013	0.784700	0.363400	0.100410
H13421	H1342	0.747100	0.385700	0.092500
H13431	H1343	0.040200	0.082800	0.844000
C20141	C2014	0.005800	0.110300	0.838830
H13441	H1344	0.971300	0.146000	0.837400
C20151	C2015	0.752700	0.336500	0.110800
C20161	C2016	0.984600	0.081600	0.828100
O3641	O364	0.006600	0.063500	0.824210
Zn631	Zn63	0.887690	0.932120	0.293710
O3651	O365	0.944470	0.951630	0.302360
O3661	O366	0.840970	0.914830	0.306990
O3671	O367	0.870270	0.878230	0.284190
O3681	O368	0.882670	0.973930	0.283280
Zn641	Zn64	0.927570	0.891630	0.309930
C20171	C2017	0.844370	0.892030	0.316040
C20181	C2018	0.880970	0.846830	0.287660
O3691	O369	0.870870	0.877430	0.318670
O3701	O370	0.906970	0.847830	0.296510
O3711	O371	0.957770	0.872430	0.321850
O3721	O372	0.987370	0.945430	0.279440
C20191	C2019	0.807270	0.882530	0.326260
C20201	C2020	0.861970	0.805230	0.278710
C20211	C2021	0.804870	0.858430	0.337770
C20221	C2022	0.775170	0.895130	0.325110
C20231	C2023	0.833670	0.799730	0.267640
C20241	C2024	0.865470	0.767630	0.282060
C20251	C2025	0.772470	0.849730	0.346160
H13451	H1345	0.826670	0.848830	0.339330
H13461	H1346	0.775870	0.911430	0.317630
C20261	C2026	0.741070	0.886330	0.333930
C20271	C2027	0.814870	0.760230	0.260160
H13471	H1347	0.827870	0.823930	0.265430
H13481	H1348	0.879470	0.767330	0.289830
C20281	C2028	0.847870	0.728330	0.273700
C20291	C2029	0.739870	0.864230	0.345160
H13491	H1349	0.770970	0.832230	0.353430
H13501	H1350	0.718770	0.895330	0.332330
C20301	C2030	0.823170	0.725430	0.263110
H13511	H1351	0.796370	0.757530	0.253030
H13521	H1352	0.853570	0.703930	0.275630
C20311	C2031	0.706370	0.858230	0.355150
C20321	C2032	0.807870	0.683530	0.254970
H13531	H1353	0.674570	0.839230	0.351930
H13541	H1354	0.710770	0.888730	0.357630
O3731	O373	0.712770	0.836830	0.365590
H13551	H1355	0.790970	0.655230	0.260130
H13561	H1356	0.834970	0.683730	0.251130
O3741	O374	0.779170	0.684430	0.245460
C20331	C2033	0.676370	0.815630	0.374120
C20341	C2034	0.758970	0.647830	0.237850
C20351	C2035	0.642170	0.827830	0.374400
C20361	C2036	0.684870	0.795230	0.385110
C20371	C2037	0.769870	0.613730	0.237750
C20381	C2038	0.735470	0.653330	0.226980
H13571	H1357	0.643170	0.850430	0.368730
C20391	C2039	0.606370	0.806130	0.383170
C20401	C2040	0.649770	0.775130	0.393420
C20411	C2041	0.722870	0.786430	0.387530
C20421	C2042	0.748270	0.577930	0.228330
H13581	H1358	0.790970	0.613530	0.243730
C20431	C2043	0.714070	0.619230	0.218120
C20441	C2044	0.723270	0.689730	0.225180
H13591	H1359	0.578770	0.807430	0.382230
C20451	C2045	0.612270	0.781830	0.393640
C20461	C2046	0.658070	0.745330	0.403070
H13601	H1360	0.748470	0.802030	0.381230
C20471	C2047	0.737670	0.799530	0.399830
C20481	C2048	0.700170	0.735730	0.386830
C20491	C2049	0.721170	0.583530	0.217930
H13611	H1361	0.751270	0.551230	0.228730
C20501	C2050	0.684070	0.622130	0.208960
H13621	H1362	0.737970	0.714930	0.231630
C20511	C2051	0.674570	0.669430	0.224780
C20521	C2052	0.741570	0.706530	0.211420
O3751	O375	0.580070	0.760830	0.402390
H13631	H1363	0.632870	0.729830	0.409530
C20531	C2053	0.704870	0.780130	0.408830
C20541	C2054	0.666470	0.713230	0.395730
C20551	C2055	0.782070	0.829630	0.403930
C20561	C2056	0.712470	0.710030	0.378830
O3761	O376	0.704070	0.546430	0.209150
H13641	H1364	0.667870	0.594530	0.203330
C20571	C2057	0.652970	0.633430	0.216070
C20581	C2058	0.718970	0.667330	0.201950
C20591	C2059	0.646570	0.681130	0.231960
C20601	C2060	0.771470	0.751030	0.207690
C20611	C2061	0.546670	0.768830	0.403280
C20621	C2062	0.717370	0.792630	0.422830
C20631	C2063	0.642970	0.670430	0.397500
C20641	C2064	0.788970	0.841630	0.419330
H13651	H1365	0.807370	0.842730	0.398230
C20651	C2065	0.688470	0.664730	0.379730
H13661	H1366	0.737170	0.724830	0.372930
C20661	C2066	0.722170	0.517630	0.207760
C20671	C2067	0.608070	0.611630	0.214730
C20681	C2068	0.729870	0.677830	0.189550
H13671	H1367	0.661170	0.706830	0.237530
C20691	C2069	0.599970	0.658030	0.231430
H13681	H1368	0.785470	0.775430	0.213630
C20701	C2070	0.780570	0.758930	0.194690
H13691	H1369	0.559770	0.802430	0.404430
H13701	H1370	0.529870	0.760430	0.395130
C20711	C2071	0.512370	0.744330	0.413640
H13711	H1371	0.694170	0.778330	0.429130
C20721	C2072	0.760870	0.823730	0.426330
H13721	H1372	0.618870	0.658330	0.403630
C20731	C2073	0.652770	0.639630	0.390330
H13731	H1373	0.818370	0.864830	0.422230
H13741	H1374	0.693370	0.646830	0.373630
H13751	H1375	0.756270	0.535930	0.207330
H13761	H1376	0.713470	0.496330	0.215030
C20741	C2074	0.703270	0.491530	0.196030
C20751	C2075	0.582270	0.625230	0.222130
H13771	H1377	0.593270	0.586830	0.208930
C20761	C2076	0.760970	0.720130	0.185820
H13781	H1378	0.714870	0.654330	0.183330
H13791	H1379	0.581270	0.663930	0.237030
H13801	H1380	0.799370	0.789430	0.191630
C20771	C2077	0.523870	0.723030	0.422910
C20781	C2078	0.468770	0.741130	0.414800
H13811	H1381	0.767470	0.830430	0.435030
H13821	H1382	0.638670	0.607430	0.391930
C20791	C2079	0.713970	0.456330	0.192130
C20801	C2080	0.681470	0.501930	0.187530
H13831	H1383	0.550070	0.610730	0.220530
H13841	H1384	0.770670	0.725230	0.177230
H13851	H1385	0.552670	0.724130	0.422330
C20811	C2081	0.495270	0.699830	0.433240
C20821	C2082	0.441870	0.718730	0.424950
H13861	H1386	0.458370	0.754330	0.408530
H13871	H1387	0.730870	0.446830	0.197330
C20831	C2083	0.697670	0.437330	0.180050
C20841	C2084	0.659370	0.474930	0.175540
H13881	H1388	0.679270	0.528830	0.188930
H13891	H1389	0.504870	0.686630	0.439630
C20851	C2085	0.451370	0.696730	0.433740
H13901	H1390	0.413770	0.719030	0.425830
H13911	H1391	0.706870	0.416130	0.177330
C20861	C2086	0.672470	0.443630	0.172160
H13921	H1392	0.637970	0.479330	0.170730
C20871	C2087	0.419370	0.669830	0.444130
C20881	C2088	0.651270	0.414930	0.161430
O3771	O377	0.673270	0.396830	0.157540
Zn651	Zn65	0.554350	0.265460	0.627050
O3781	O378	0.611130	0.284970	0.635700
O3791	O379	0.507630	0.248170	0.640330
O3801	O380	0.536930	0.211570	0.617530
O3811	O381	0.549330	0.307270	0.616620
Zn661	Zn66	0.594230	0.224970	0.643270
C20891	C2089	0.511030	0.225370	0.649380
C20901	C2090	0.547630	0.180170	0.621000
O3821	O382	0.537530	0.210770	0.652010
O3831	O383	0.573630	0.181170	0.629850
O3841	O384	0.624430	0.205770	0.655190
O3851	O385	0.654030	0.278770	0.612780
C20911	C2091	0.473930	0.215870	0.659600
C20921	C2092	0.528630	0.138570	0.612050
C20931	C2093	0.471530	0.191770	0.671110
C20941	C2094	0.441830	0.228470	0.658450
C20951	C2095	0.500330	0.133070	0.600980
C20961	C2096	0.532130	0.100970	0.615400
C20971	C2097	0.439130	0.183070	0.679500
H13931	H1393	0.493330	0.182170	0.672670
H13941	H1394	0.442530	0.244770	0.650970
C20981	C2098	0.407730	0.219670	0.667270
C20991	C2099	0.481530	0.093570	0.593500
H13951	H1395	0.494530	0.157270	0.598770
H13961	H1396	0.546130	0.100670	0.623170
C21001	C2100	0.514530	0.061670	0.607040
C21011	C2101	0.406530	0.197570	0.678500
H13971	H1397	0.437630	0.165570	0.686770
H13981	H1398	0.385430	0.228670	0.665670
C21021	C2102	0.489830	0.058770	0.596450
H13991	H1399	0.463030	0.090870	0.586370
H14001	H1400	0.520230	0.037270	0.608970
C21031	C2103	0.373030	0.191570	0.688490
C21041	C2104	0.474530	0.016870	0.588310
H14011	H1401	0.341230	0.172570	0.685270
H14021	H1402	0.377430	0.222070	0.690970
O3861	O386	0.379430	0.170170	0.698930
H14031	H1403	0.457630	0.988570	0.593470
H14041	H1404	0.501630	0.017070	0.584470
O3871	O387	0.445830	0.017770	0.578800
C21051	C2105	0.343030	0.148970	0.707460
C21061	C2106	0.425630	0.981170	0.571190
C21071	C2107	0.308830	0.161170	0.707740
C21081	C2108	0.351530	0.128570	0.718450
C21091	C2109	0.436530	0.947070	0.571090
C21101	C2110	0.402130	0.986670	0.560320
H14051	H1405	0.309830	0.183770	0.702070
C21111	C2111	0.273030	0.139470	0.716510
C21121	C2112	0.316430	0.108470	0.726760
C21131	C2113	0.389530	0.119770	0.720870
C21141	C2114	0.414930	0.911270	0.561670
H14061	H1406	0.457630	0.946870	0.577070
C21151	C2115	0.380730	0.952570	0.551460
C21161	C2116	0.389930	0.023070	0.558520
H14071	H1407	0.245430	0.140770	0.715570
C21171	C2117	0.278930	0.115170	0.726980
C21181	C2118	0.324730	0.078670	0.736410
H14081	H1408	0.415130	0.135370	0.714570
C21191	C2119	0.404330	0.132870	0.733170
C21201	C2120	0.366830	0.069070	0.720170
C21211	C2121	0.387830	0.916870	0.551270
H14091	H1409	0.417930	0.884570	0.562070
C21221	C2122	0.350730	0.955470	0.542300
H14101	H1410	0.404630	0.048270	0.564970
C21231	C2123	0.341230	0.002770	0.558120
C21241	C2124	0.408230	0.039870	0.544760
O3881	O388	0.246730	0.094170	0.735730
H14111	H1411	0.299530	0.063170	0.742870
C21251	C2125	0.371530	0.113470	0.742170
C21261	C2126	0.333130	0.046570	0.729070
C21271	C2127	0.448730	0.162970	0.737270
C21281	C2128	0.379130	0.043370	0.712170
O3891	O389	0.370730	0.879770	0.542490
H14121	H1412	0.334530	0.927870	0.536670
C21291	C2129	0.319630	0.966770	0.549410
C21301	C2130	0.385630	0.000670	0.535290
C21311	C2131	0.313230	0.014470	0.565300
C21321	C2132	0.438130	0.084370	0.541030
C21331	C2133	0.213330	0.102170	0.736620
C21341	C2134	0.384030	0.125970	0.756170
C21351	C2135	0.309630	0.003770	0.730840
C21361	C2136	0.455630	0.174970	0.752670
H14131	H1413	0.474030	0.176070	0.731570
C21371	C2137	0.355130	0.998070	0.713070
H14141	H1414	0.403830	0.058170	0.706270
C21381	C2138	0.388830	0.850970	0.541100
C21391	C2139	0.274730	0.944970	0.548070
C21401	C2140	0.396530	0.011170	0.522890
H14151	H1415	0.327830	0.040170	0.570870
C21411	C2141	0.266630	0.991370	0.564770
H14161	H1416	0.452130	0.108770	0.546970
C21421	C2142	0.447230	0.092270	0.528030
H14171	H1417	0.226430	0.135770	0.737770
H14181	H1418	0.196530	0.093770	0.728470
C21431	C2143	0.179030	0.077670	0.746980
H14191	H1419	0.360830	0.111670	0.762470
C21441	C2144	0.427530	0.157070	0.759670
H14201	H1420	0.285530	0.991670	0.736970
C21451	C2145	0.319430	0.972970	0.723670
H14211	H1421	0.485030	0.198170	0.755570
H14221	H1422	0.360030	0.980170	0.706970
H14231	H1423	0.422930	0.869270	0.540670
H14241	H1424	0.380130	0.829670	0.548370
C21461	C2146	0.369930	0.824870	0.529370
C21471	C2147	0.248930	0.958570	0.555470
H14251	H1425	0.259930	0.920170	0.542270
C21481	C2148	0.427630	0.053470	0.519160
H14261	H1426	0.381530	0.987670	0.516670
H14271	H1427	0.247930	0.997270	0.570370
H14281	H1428	0.466030	0.122770	0.524970
C21491	C2149	0.190530	0.056370	0.756250
C21501	C2150	0.135430	0.074470	0.748140
H14291	H1429	0.434130	0.163770	0.768370
H14301	H1430	0.305330	0.940770	0.725270
C21511	C2151	0.380630	0.789670	0.525470
C21521	C2152	0.348130	0.835270	0.520870
H14311	H1431	0.216730	0.944070	0.553870
H14321	H1432	0.437330	0.058570	0.510570
H14331	H1433	0.219330	0.057470	0.755670
C21531	C2153	0.161930	0.033170	0.766580
C21541	C2154	0.108530	0.052070	0.758290
H14341	H1434	0.125030	0.087670	0.741870
H14351	H1435	0.397530	0.780170	0.530670
C21551	C2155	0.364330	0.770670	0.513390
C21561	C2156	0.326030	0.808270	0.508880
H14361	H1436	0.345930	0.862170	0.522270
H14371	H1437	0.171530	0.019970	0.772970
C21571	C2157	0.118030	0.030070	0.767080
H14381	H1438	0.080430	0.052370	0.759170
H14391	H1439	0.373530	0.749470	0.510670
C21581	C2158	0.339130	0.776970	0.505500
H14401	H1440	0.304630	0.812670	0.504070
C21591	C2159	0.086030	0.003170	0.777470
C21601	C2160	0.317930	0.748270	0.494770
O3901	O390	0.339930	0.730170	0.490880
Zn671	Zn67	0.401210	0.622230	0.960380
O3911	O391	0.381700	0.659500	0.969030
O3921	O392	0.418500	0.592800	0.973660
O3931	O393	0.455100	0.658700	0.950860
O3941	O394	0.359400	0.575400	0.949950
Zn681	Zn68	0.441700	0.702600	0.976600
C21611	C2161	0.441300	0.619000	0.982710
C21621	C2162	0.486500	0.700800	0.954330
O3951	O395	0.455900	0.660100	0.985340
O3961	O396	0.485500	0.725800	0.963180
O3971	O397	0.460900	0.752000	0.988520
O3981	O398	0.387900	0.708600	0.946110
C21631	C2163	0.450800	0.591400	0.992930
C21641	C2164	0.528100	0.723400	0.945380
C21651	C2165	0.474900	0.613100	0.004440
C21661	C2166	0.438200	0.546700	0.991780
C21671	C2167	0.533600	0.700600	0.934310
C21681	C2168	0.565700	0.764500	0.948730
C21691	C2169	0.483600	0.589400	0.012830
H14411	H1441	0.484500	0.644500	0.006000
H14421	H1442	0.421900	0.531100	0.984300
C21701	C2170	0.447000	0.521400	0.000600
C21711	C2171	0.573100	0.721300	0.926830
H14431	H1443	0.509400	0.670600	0.932100
H14441	H1444	0.566000	0.778800	0.956500
C21721	C2172	0.605000	0.786200	0.940370
C21731	C2173	0.469100	0.542300	0.011830
H14451	H1445	0.501100	0.605400	0.020100
H14461	H1446	0.438000	0.490100	0.999000
C21741	C2174	0.607900	0.764400	0.929780
H14471	H1447	0.575800	0.705500	0.919700
H14481	H1448	0.629400	0.816300	0.942300
C21751	C2175	0.475100	0.514800	0.021820
C21761	C2176	0.649800	0.791000	0.921640
H14491	H1449	0.494100	0.502000	0.018600
H14501	H1450	0.444600	0.488700	0.024300
O3991	O399	0.496500	0.542600	0.032260
H14511	H1451	0.678100	0.802400	0.926800
H14521	H1452	0.649600	0.817900	0.917800
O4001	O400	0.648900	0.761400	0.912130
C21771	C2177	0.517700	0.527400	0.040790
C21781	C2178	0.685500	0.777800	0.904520
C21791	C2179	0.505500	0.481000	0.041070
C21801	C2180	0.538100	0.556300	0.051780
C21811	C2181	0.719600	0.822800	0.904420
C21821	C2182	0.680000	0.748800	0.893650
H14531	H1453	0.482900	0.459400	0.035400
C21831	C2183	0.527200	0.466900	0.049840
C21841	C2184	0.558200	0.541300	0.060090
C21851	C2185	0.546900	0.603100	0.054200
C21861	C2186	0.755400	0.837000	0.895000
H14541	H1454	0.719800	0.844100	0.910400
C21871	C2187	0.714100	0.761500	0.884790
C21881	C2188	0.643600	0.700200	0.891850
H14551	H1455	0.525900	0.438000	0.048900
C21891	C2189	0.551500	0.497100	0.060310
C21901	C2190	0.588000	0.579400	0.069740
H14561	H1456	0.531300	0.613100	0.047900
C21911	C2191	0.533800	0.604800	0.066500
C21921	C2192	0.597600	0.631100	0.053500
C21931	C2193	0.749800	0.804300	0.884600
H14571	H1457	0.782100	0.866700	0.895400
C21941	C2194	0.711200	0.728600	0.875630
H14581	H1458	0.618400	0.689700	0.898300
C21951	C2195	0.663900	0.671800	0.891450
C21961	C2196	0.626800	0.701700	0.878090
O4011	O401	0.572500	0.485900	0.069060
H14591	H1459	0.603500	0.569700	0.076200
C21971	C2197	0.553200	0.591400	0.075500
C21981	C2198	0.620100	0.619900	0.062400
C21991	C2199	0.503700	0.619100	0.070600
C22001	C2200	0.623300	0.669100	0.045500
O4021	O402	0.786900	0.824300	0.875820
H14601	H1460	0.738800	0.740000	0.870000
C22011	C2201	0.699900	0.686200	0.882740
C22021	C2202	0.666000	0.718300	0.868620
C22031	C2203	0.652200	0.632100	0.898630
C22041	C2204	0.582300	0.687100	0.874360
C22051	C2205	0.564500	0.444500	0.069950
C22061	C2206	0.540700	0.591400	0.089500
C22071	C2207	0.662900	0.639200	0.064170
C22081	C2208	0.491700	0.614000	0.086000
H14611	H1461	0.490600	0.631300	0.064900
C22091	C2209	0.668600	0.690400	0.046400
H14621	H1462	0.608500	0.679000	0.039600
C22101	C2210	0.815700	0.871200	0.874430
C22111	C2211	0.721700	0.663100	0.881400
C22121	C2212	0.655500	0.718700	0.856220
H14631	H1463	0.626500	0.621000	0.904200
C22131	C2213	0.675300	0.608600	0.898100
H14641	H1464	0.557900	0.676700	0.880300
C22141	C2214	0.574400	0.688300	0.861360
H14651	H1465	0.530900	0.424000	0.071100
H14661	H1466	0.572900	0.436100	0.061800
C22151	C2215	0.589000	0.434700	0.080310
H14671	H1467	0.555000	0.582500	0.095800
C22161	C2216	0.509600	0.603800	0.093000
H14681	H1468	0.675000	0.627200	0.070300
C22171	C2217	0.693700	0.679800	0.057000
H14691	H1469	0.468500	0.620200	0.088900
H14701	H1470	0.686500	0.713200	0.040300
H14711	H1471	0.797400	0.887000	0.874000
H14721	H1472	0.837000	0.883800	0.881700
C22181	C2218	0.841800	0.878400	0.862700
C22191	C2219	0.708100	0.623700	0.888800
H14731	H1473	0.746500	0.673100	0.875600
C22201	C2220	0.613200	0.707500	0.852490
H14741	H1474	0.679000	0.727200	0.850000
H14751	H1475	0.669400	0.584000	0.903700
H14761	H1476	0.543900	0.676600	0.858300
C22211	C2221	0.610300	0.467500	0.089580
C22221	C2222	0.592200	0.394300	0.081470
H14771	H1477	0.502900	0.603700	0.101700
H14781	H1478	0.725900	0.697900	0.058600
C22231	C2223	0.877000	0.924300	0.858800
C22241	C2224	0.831400	0.846200	0.854200
H14791	H1479	0.722600	0.606000	0.887200
H14801	H1480	0.608100	0.712100	0.843900
H14811	H1481	0.609200	0.495200	0.089000
C22251	C2225	0.633500	0.462100	0.099910
C22261	C2226	0.614600	0.389800	0.091620
H14821	H1482	0.579000	0.370700	0.075200
H14831	H1483	0.886500	0.950700	0.864000
C22271	C2227	0.896000	0.927000	0.846720
C22281	C2228	0.858400	0.851100	0.842210
H14841	H1484	0.804500	0.817100	0.855600
H14851	H1485	0.646700	0.484900	0.106300
C22291	C2229	0.636600	0.421300	0.100410
H14861	H1486	0.614300	0.361400	0.092500
H14871	H1487	0.917200	0.957400	0.844000
C22301	C2230	0.889700	0.895500	0.838830
H14881	H1488	0.854000	0.825300	0.837400
C22311	C2231	0.663500	0.416200	0.110800
C22321	C2232	0.918400	0.903000	0.828100
O4031	O403	0.936500	0.943100	0.824210
Zn691	Zn69	0.067880	0.955560	0.293710
O4041	O404	0.048370	0.992830	0.302360
O4051	O405	0.085170	0.926130	0.306990
O4061	O406	0.121770	0.992030	0.284190
O4071	O407	0.026070	0.908730	0.283280
Zn701	Zn70	0.108370	0.035930	0.309930
C22331	C2233	0.107970	0.952330	0.316040
C22341	C2234	0.153170	0.034130	0.287660
O4081	O408	0.122570	0.993430	0.318670
O4091	O409	0.152170	0.059130	0.296510
O4101	O410	0.127570	0.085330	0.321850
O4111	O411	0.054570	0.041930	0.279440
C22351	C2235	0.117470	0.924730	0.326260
C22361	C2236	0.194770	0.056730	0.278710
C22371	C2237	0.141570	0.946430	0.337770
C22381	C2238	0.104870	0.880030	0.325110
C22391	C2239	0.200270	0.033930	0.267640
C22401	C2240	0.232370	0.097830	0.282060
C22411	C2241	0.150270	0.922730	0.346160
H14891	H1489	0.151170	0.977830	0.339330
H14901	H1490	0.088570	0.864430	0.317630
C22421	C2242	0.113670	0.854730	0.333930
C22431	C2243	0.239770	0.054630	0.260160
H14911	H1491	0.176070	0.003930	0.265430
H14921	H1492	0.232670	0.112130	0.289830
C22441	C2244	0.271670	0.119530	0.273700
C22451	C2245	0.135770	0.875630	0.345160
H14931	H1493	0.167770	0.938730	0.353430
H14941	H1494	0.104670	0.823430	0.332330
C22461	C2246	0.274570	0.097730	0.263110
H14951	H1495	0.242470	0.038830	0.253030
H14961	H1496	0.296070	0.149630	0.275630
C22471	C2247	0.141770	0.848130	0.355150
C22481	C2248	0.316470	0.124330	0.254970
H14971	H1497	0.160770	0.835330	0.351930
H14981	H1498	0.111270	0.822030	0.357630
O4121	O412	0.163170	0.875930	0.365590
H14991	H1499	0.344770	0.135730	0.260130
H15001	H1500	0.316270	0.151230	0.251130
O4131	O413	0.315570	0.094730	0.245460
C22491	C2249	0.184370	0.860730	0.374120
C22501	C2250	0.352170	0.111130	0.237850
C22511	C2251	0.172170	0.814330	0.374400
C22521	C2252	0.204770	0.889630	0.385110
C22531	C2253	0.386270	0.156130	0.237750
C22541	C2254	0.346670	0.082130	0.226980
H15011	H1501	0.149570	0.792730	0.368730
C22551	C2255	0.193870	0.800230	0.383170
C22561	C2256	0.224870	0.874630	0.393420
C22571	C2257	0.213570	0.936430	0.387530
C22581	C2258	0.422070	0.170330	0.228330
H15021	H1502	0.386470	0.177430	0.243730
C22591	C2259	0.380770	0.094830	0.218120
C22601	C2260	0.310270	0.033530	0.225180
H15031	H1503	0.192570	0.771330	0.382230
C22611	C2261	0.218170	0.830430	0.393640
C22621	C2262	0.254670	0.912730	0.403070
H15041	H1504	0.197970	0.946430	0.381230
C22631	C2263	0.200470	0.938130	0.399830
C22641	C2264	0.264270	0.964430	0.386830
C22651	C2265	0.416470	0.137630	0.217930
H15051	H1505	0.448770	0.200030	0.228730
C22661	C2266	0.377870	0.061930	0.208960
H15061	H1506	0.285070	0.023030	0.231630
C22671	C2267	0.330570	0.005130	0.224780
C22681	C2268	0.293470	0.035030	0.211420
O4141	O414	0.239170	0.819230	0.402390
H15071	H1507	0.270170	0.903030	0.409530
C22691	C2269	0.219870	0.924730	0.408830
C22701	C2270	0.286770	0.953230	0.395730
C22711	C2271	0.170370	0.952430	0.403930
C22721	C2272	0.289970	0.002430	0.378830
O4151	O415	0.453570	0.157630	0.209150
H15081	H1508	0.405470	0.073330	0.203330
C22731	C2273	0.366570	0.019530	0.216070
C22741	C2274	0.332670	0.051630	0.201950
C22751	C2275	0.318870	0.965430	0.231960
C22761	C2276	0.248970	0.020430	0.207690
C22771	C2277	0.231170	0.777830	0.403280
C22781	C2278	0.207370	0.924730	0.422830
C22791	C2279	0.329570	0.972530	0.397500
C22801	C2280	0.158370	0.947330	0.419330
H15091	H1509	0.157270	0.964630	0.398230
C22811	C2281	0.335270	0.023730	0.379730
H15101	H1510	0.275170	0.012330	0.372930
C22821	C2282	0.482370	0.204530	0.207760
C22831	C2283	0.388370	0.996430	0.214730
C22841	C2284	0.322170	0.052030	0.189550
H15111	H1511	0.293170	0.954330	0.237530
C22851	C2285	0.341970	0.941930	0.231430
H15121	H1512	0.224570	0.010030	0.213630
C22861	C2286	0.241070	0.021630	0.194690
H15131	H1513	0.197570	0.757330	0.404430
H15141	H1514	0.239570	0.769430	0.395130
C22871	C2287	0.255670	0.768030	0.413640
H15151	H1515	0.221670	0.915830	0.429130
C22881	C2288	0.176270	0.937130	0.426330
H15161	H1516	0.341670	0.960530	0.403630
C22891	C2289	0.360370	0.013130	0.390330
H15171	H1517	0.135170	0.953530	0.422230
H15181	H1518	0.353170	0.046530	0.373630
H15191	H1519	0.464070	0.220330	0.207330
H15201	H1520	0.503670	0.217130	0.215030
C22901	C2290	0.508470	0.211730	0.196030
C22911	C2291	0.374770	0.957030	0.222130
H15211	H1521	0.413170	0.006430	0.208930
C22921	C2292	0.279870	0.040830	0.185820
H15221	H1522	0.345670	0.060530	0.183330
H15231	H1523	0.336070	0.917330	0.237030
H15241	H1524	0.210570	0.009930	0.191630
C22931	C2293	0.276970	0.800830	0.422910
C22941	C2294	0.258870	0.727630	0.414800
H15251	H1525	0.169570	0.937030	0.435030
H15261	H1526	0.392570	0.031230	0.391930
C22951	C2295	0.543670	0.257630	0.192130
C22961	C2296	0.498070	0.179530	0.187530
H15271	H1527	0.389270	0.939330	0.220530
H15281	H1528	0.274770	0.045430	0.177230
H15291	H1529	0.275870	0.828530	0.422330
C22971	C2297	0.300170	0.795430	0.433240
C22981	C2298	0.281270	0.723130	0.424950
H15301	H1530	0.245670	0.704030	0.408530
H15311	H1531	0.553170	0.284030	0.197330
C22991	C2299	0.562670	0.260330	0.180050
C23001	C2300	0.525070	0.184430	0.175540
H15321	H1532	0.471170	0.150430	0.188930
H15331	H1533	0.313370	0.818230	0.439630
C23011	C2301	0.303270	0.754630	0.433740
H15341	H1534	0.280970	0.694730	0.425830
H15351	H1535	0.583870	0.290730	0.177330
C23021	C2302	0.556370	0.228830	0.172160
H15361	H1536	0.520670	0.158630	0.170730
C23031	C2303	0.330170	0.749530	0.444130
C23041	C2304	0.585070	0.236330	0.161430
O4161	O416	0.603170	0.276430	0.157540
Zn711	Zn71	0.734540	0.288900	0.627050
O4171	O417	0.715030	0.326170	0.635700
O4181	O418	0.751830	0.259470	0.640330
O4191	O419	0.788430	0.325370	0.617530
O4201	O420	0.692730	0.242070	0.616620
Zn721	Zn72	0.775030	0.369270	0.643270
C23051	C2305	0.774630	0.285670	0.649380
C23061	C2306	0.819830	0.367470	0.621000
O4211	O421	0.789230	0.326770	0.652010
O4221	O422	0.818830	0.392470	0.629850
O4231	O423	0.794230	0.418670	0.655190
O4241	O424	0.721230	0.375270	0.612780
C23071	C2307	0.784130	0.258070	0.659600
C23081	C2308	0.861430	0.390070	0.612050
C23091	C2309	0.808230	0.279770	0.671110
C23101	C2310	0.771530	0.213370	0.658450
C23111	C2311	0.866930	0.367270	0.600980
C23121	C2312	0.899030	0.431170	0.615400
C23131	C2313	0.816930	0.256070	0.679500
H15371	H1537	0.817830	0.311170	0.672670
H15381	H1538	0.755230	0.197770	0.650970
C23141	C2314	0.780330	0.188070	0.667270
C23151	C2315	0.906430	0.387970	0.593500
H15391	H1539	0.842730	0.337270	0.598770
H15401	H1540	0.899330	0.445470	0.623170
C23161	C2316	0.938330	0.452870	0.607040
C23171	C2317	0.802430	0.208970	0.678500
H15411	H1541	0.834430	0.272070	0.686770
H15421	H1542	0.771330	0.156770	0.665670
C23181	C2318	0.941230	0.431070	0.596450
H15431	H1543	0.909130	0.372170	0.586370
H15441	H1544	0.962730	0.482970	0.608970
C23191	C2319	0.808430	0.181470	0.688490
C23201	C2320	0.983130	0.457670	0.588310
H15451	H1545	0.827430	0.168670	0.685270
H15461	H1546	0.777930	0.155370	0.690970
O4251	O425	0.829830	0.209270	0.698930
H15471	H1547	0.011430	0.469070	0.593470
H15481	H1548	0.982930	0.484570	0.584470
O4261	O426	0.982230	0.428070	0.578800
C23211	C2321	0.851030	0.194070	0.707460
C23221	C2322	0.018830	0.444470	0.571190
C23231	C2323	0.838830	0.147670	0.707740
C23241	C2324	0.871430	0.222970	0.718450
C23251	C2325	0.052930	0.489470	0.571090
C23261	C2326	0.013330	0.415470	0.560320
H15491	H1549	0.816230	0.126070	0.702070
C23271	C2327	0.860530	0.133570	0.716510
C23281	C2328	0.891530	0.207970	0.726760
C23291	C2329	0.880230	0.269770	0.720870
C23301	C2330	0.088730	0.503670	0.561670
H15501	H1550	0.053130	0.510770	0.577070
C23311	C2331	0.047430	0.428170	0.551460
C23321	C2332	0.976930	0.366870	0.558520
H15511	H1551	0.859230	0.104670	0.715570
C23331	C2333	0.884830	0.163770	0.726980
C23341	C2334	0.921330	0.246070	0.736410
H15521	H1552	0.864630	0.279770	0.714570
C23351	C2335	0.867130	0.271470	0.733170
C23361	C2336	0.930930	0.297770	0.720170
C23371	C2337	0.083130	0.470970	0.551270
H15531	H1553	0.115430	0.533370	0.562070
C23381	C2338	0.044530	0.395270	0.542300
H15541	H1554	0.951730	0.356370	0.564970
C23391	C2339	0.997230	0.338470	0.558120
C23401	C2340	0.960130	0.368370	0.544760
O4271	O427	0.905830	0.152570	0.735730
H15551	H1555	0.936830	0.236370	0.742870
C23411	C2341	0.886530	0.258070	0.742170
C23421	C2342	0.953430	0.286570	0.729070
C23431	C2343	0.837030	0.285770	0.737270
C23441	C2344	0.956630	0.335770	0.712170
O4281	O428	0.120230	0.490970	0.542490
H15561	H1556	0.072130	0.406670	0.536670
C23451	C2345	0.033230	0.352870	0.549410
C23461	C2346	0.999330	0.384970	0.535290
C23471	C2347	0.985530	0.298770	0.565300
C23481	C2348	0.915630	0.353770	0.541030
C23491	C2349	0.897830	0.111170	0.736620
C23501	C2350	0.874030	0.258070	0.756170
C23511	C2351	0.996230	0.305870	0.730840
C23521	C2352	0.825030	0.280670	0.752670
H15571	H1557	0.823930	0.297970	0.731570
C23531	C2353	0.001930	0.357070	0.713070
H15581	H1558	0.941830	0.345670	0.706270
C23541	C2354	0.149030	0.537870	0.541100
C23551	C2355	0.055030	0.329770	0.548070
C23561	C2356	0.988830	0.385370	0.522890
H15591	H1559	0.959830	0.287670	0.570870
C23571	C2357	0.008630	0.275270	0.564770
H15601	H1560	0.891230	0.343370	0.546970
C23581	C2358	0.907730	0.354970	0.528030
H15611	H1561	0.864230	0.090670	0.737770
H15621	H1562	0.906230	0.102770	0.728470
C23591	C2359	0.922330	0.101370	0.746980
H15631	H1563	0.888330	0.249170	0.762470
C23601	C2360	0.842930	0.270470	0.759670
H15641	H1564	0.008330	0.293870	0.736970
C23611	C2361	0.027030	0.346470	0.723670
H15651	H1565	0.801830	0.286870	0.755570
H15661	H1566	0.019830	0.379870	0.706970
H15671	H1567	0.130730	0.553670	0.540670
H15681	H1568	0.170330	0.550470	0.548370
C23621	C2362	0.175130	0.545070	0.529370
C23631	C2363	0.041430	0.290370	0.555470
H15691	H1569	0.079830	0.339770	0.542270
C23641	C2364	0.946530	0.374170	0.519160
H15701	H1570	0.012330	0.393870	0.516670
H15711	H1571	0.002730	0.250670	0.570370
H15721	H1572	0.877230	0.343270	0.524970
C23651	C2365	0.943630	0.134170	0.756250
C23661	C2366	0.925530	0.060970	0.748140
H15731	H1573	0.836230	0.270370	0.768370
H15741	H1574	0.059230	0.364570	0.725270
C23671	C2367	0.210330	0.590970	0.525470
C23681	C2368	0.164730	0.512870	0.520870
H15751	H1575	0.055930	0.272670	0.553870
H15761	H1576	0.941430	0.378770	0.510570
H15771	H1577	0.942530	0.161870	0.755670
C23691	C2369	0.966830	0.128770	0.766580
C23701	C2370	0.947930	0.056470	0.758290
H15781	H1578	0.912330	0.037370	0.741870
H15791	H1579	0.219830	0.617370	0.530670
C23711	C2371	0.229330	0.593670	0.513390
C23721	C2372	0.191730	0.517770	0.508880
H15801	H1580	0.137830	0.483770	0.522270
H15811	H1581	0.980030	0.151570	0.772970
C23731	C2373	0.969930	0.087970	0.767080
H15821	H1582	0.947630	0.028070	0.759170
H15831	H1583	0.250530	0.624070	0.510670
C23741	C2374	0.223030	0.562170	0.505500
H15841	H1584	0.187330	0.491970	0.504070
C23751	C2375	0.996830	0.082870	0.777470
C23761	C2376	0.251730	0.569670	0.494770
O4291	O429	0.269830	0.609770	0.490880
Zn731	Zn73	0.377770	0.778980	0.960380
O4301	O430	0.340500	0.722200	0.969030
O4311	O431	0.407200	0.825700	0.973660
O4321	O432	0.341300	0.796400	0.950860
O4331	O433	0.424600	0.784000	0.949950
Zn741	Zn74	0.297400	0.739100	0.976600
C23771	C2377	0.381000	0.822300	0.982710
C23781	C2378	0.299200	0.785700	0.954330
O4341	O434	0.339900	0.795800	0.985340
O4351	O435	0.274200	0.759700	0.963180
O4361	O436	0.248000	0.708900	0.988520
O4371	O437	0.291400	0.679300	0.946110
C23791	C2379	0.408600	0.859400	0.992930
C23801	C2380	0.276600	0.804700	0.945380
C23811	C2381	0.386900	0.861800	0.004440
C23821	C2382	0.453300	0.891500	0.991780
C23831	C2383	0.299400	0.833000	0.934310
C23841	C2384	0.235500	0.801200	0.948730
C23851	C2385	0.410600	0.894200	0.012830
H15851	H1585	0.355500	0.840000	0.006000
H15861	H1586	0.468900	0.890800	0.984300
C23861	C2386	0.478600	0.925600	0.000600
C23871	C2387	0.278700	0.851800	0.926830
H15871	H1587	0.329400	0.838800	0.932100
H15881	H1588	0.221200	0.787200	0.956500
C23881	C2388	0.213800	0.818800	0.940370
C23891	C2389	0.457700	0.926800	0.011830
H15891	H1589	0.394600	0.895700	0.020100
H15901	H1590	0.509900	0.947900	0.999000
C23901	C2390	0.235600	0.843500	0.929780
H15911	H1591	0.294500	0.870300	0.919700
H15921	H1592	0.183700	0.813100	0.942300
C23911	C2391	0.485200	0.960300	0.021820
C23921	C2392	0.209000	0.858800	0.921640
H15931	H1593	0.498000	0.992100	0.018600
H15941	H1594	0.511300	0.955900	0.024300
O4381	O438	0.457400	0.953900	0.032260
H15951	H1595	0.197600	0.875700	0.926800
H15961	H1596	0.182100	0.831700	0.917800
O4391	O439	0.238600	0.887500	0.912130
C23931	C2393	0.472600	0.990300	0.040790
C23941	C2394	0.222200	0.907700	0.904520
C23951	C2395	0.519000	0.024500	0.041070
C23961	C2396	0.443700	0.981800	0.051780
C23971	C2397	0.177200	0.896800	0.904420
C23981	C2398	0.251200	0.931200	0.893650
H15971	H1597	0.540600	0.023500	0.035400
C23991	C2399	0.533100	0.060300	0.049840
C24001	C2400	0.458700	0.016900	0.060090
C24011	C2401	0.396900	0.943800	0.054200
C24021	C2402	0.163000	0.918400	0.895000
H15981	H1598	0.155900	0.875700	0.910400
C24031	C2403	0.238500	0.952600	0.884790
C24041	C2404	0.299800	0.943400	0.891850
H15991	H1599	0.562000	0.087900	0.048900
C24051	C2405	0.502900	0.054400	0.060310
C24061	C2406	0.420600	0.008600	0.069740
H16001	H1600	0.386900	0.918200	0.047900
C24071	C2407	0.395200	0.929000	0.066500
C24081	C2408	0.368900	0.966500	0.053500
C24091	C2409	0.195700	0.945500	0.884600
H16011	H1601	0.133300	0.915400	0.895400
C24101	C2410	0.271400	0.982600	0.875630
H16021	H1602	0.310300	0.928700	0.898300
C24111	C2411	0.328200	0.992100	0.891450
C24121	C2412	0.298300	0.925100	0.878090
O4401	O440	0.514100	0.086600	0.069060
H16031	H1603	0.430300	0.033800	0.076200
C24131	C2413	0.408600	0.961800	0.075500
C24141	C2414	0.380100	0.000200	0.062400
C24151	C2415	0.380900	0.884600	0.070600
C24161	C2416	0.330900	0.954200	0.045500
O4411	O441	0.175700	0.962600	0.875820
H16041	H1604	0.260000	0.998800	0.870000
C24171	C2417	0.313800	0.013700	0.882740
C24181	C2418	0.281700	0.947700	0.868620
C24191	C2419	0.367900	0.020100	0.898630
C24201	C2420	0.312900	0.895200	0.874360
C24211	C2421	0.555500	0.120000	0.069950
C24221	C2422	0.408600	0.949300	0.089500
C24231	C2423	0.360800	0.023700	0.064170
C24241	C2424	0.386000	0.877700	0.086000
H16051	H1605	0.368700	0.859300	0.064900
C24251	C2425	0.309600	0.978200	0.046400
H16061	H1606	0.321000	0.929500	0.039600
C24261	C2426	0.128800	0.944500	0.874430
C24271	C2427	0.336900	0.058600	0.881400
C24281	C2428	0.281300	0.936800	0.856220
H16071	H1607	0.379000	0.005500	0.904200
C24291	C2429	0.391400	0.066700	0.898100
H16081	H1608	0.323300	0.881200	0.880300
C24301	C2430	0.311700	0.886100	0.861360
H16091	H1609	0.576000	0.106900	0.071100
H16101	H1610	0.563900	0.136800	0.061800
C24311	C2431	0.565300	0.154300	0.080310
H16111	H1611	0.417500	0.972500	0.095800
C24321	C2432	0.396200	0.905800	0.093000
H16121	H1612	0.372800	0.047800	0.070300
C24331	C2433	0.320200	0.013900	0.057000
H16131	H1613	0.379800	0.848300	0.088900
H16141	H1614	0.286800	0.973300	0.040300
H16151	H1615	0.113000	0.910400	0.874000
H16161	H1616	0.116200	0.953200	0.881700
C24341	C2434	0.121600	0.963400	0.862700
C24351	C2435	0.376300	0.084400	0.888800
H16171	H1617	0.326900	0.073400	0.875600
C24361	C2436	0.292500	0.905700	0.852490
H16181	H1618	0.272800	0.951800	0.850000
H16191	H1619	0.416000	0.085400	0.903700
H16201	H1620	0.323400	0.867300	0.858300
C24371	C2437	0.532500	0.142800	0.089580
C24381	C2438	0.605700	0.197900	0.081470
H16211	H1621	0.396300	0.899200	0.101700
H16221	H1622	0.302100	0.028000	0.058600
C24391	C2439	0.075700	0.952700	0.858800
C24401	C2440	0.153800	0.985200	0.854200
H16231	H1623	0.394000	0.116600	0.887200
H16241	H1624	0.287900	0.896000	0.843900
H16251	H1625	0.504800	0.114000	0.089000
C24411	C2441	0.537900	0.171400	0.099910
C24421	C2442	0.610200	0.224800	0.091620
H16261	H1626	0.629300	0.208300	0.075200
H16271	H1627	0.049300	0.935800	0.864000
C24431	C2443	0.073000	0.969000	0.846720
C24441	C2444	0.148900	0.007300	0.842210
H16281	H1628	0.182900	0.987400	0.855600
H16291	H1629	0.515100	0.161800	0.106300
C24451	C2445	0.578700	0.215300	0.100410
H16301	H1630	0.638600	0.252900	0.092500
H16311	H1631	0.042600	0.959800	0.844000
C24461	C2446	0.104500	0.994200	0.838830
H16321	H1632	0.174700	0.028700	0.837400
C24471	C2447	0.583800	0.247300	0.110800
C24481	C2448	0.097000	0.015400	0.828100
O4421	O442	0.056900	0.993400	0.824210
Zn751	Zn75	0.044440	0.112310	0.293710
O4431	O443	0.007170	0.055530	0.302360
O4441	O444	0.073870	0.159030	0.306990
O4451	O445	0.007970	0.129730	0.284190
O4461	O446	0.091270	0.117330	0.283280
Zn761	Zn76	0.964070	0.072430	0.309930
C24491	C2449	0.047670	0.155630	0.316040
C24501	C2450	0.965870	0.119030	0.287660
O4471	O447	0.006570	0.129130	0.318670
O4481	O448	0.940870	0.093030	0.296510
O4491	O449	0.914670	0.042230	0.321850
O4501	O450	0.958070	0.012630	0.279440
C24511	C2451	0.075270	0.192730	0.326260
C24521	C2452	0.943270	0.138030	0.278710
C24531	C2453	0.053570	0.195130	0.337770
C24541	C2454	0.119970	0.224830	0.325110
C24551	C2455	0.966070	0.166330	0.267640
C24561	C2456	0.902170	0.134530	0.282060
C24571	C2457	0.077270	0.227530	0.346160
H16331	H1633	0.022170	0.173330	0.339330
H16341	H1634	0.135570	0.224130	0.317630
C24581	C2458	0.145270	0.258930	0.333930
C24591	C2459	0.945370	0.185130	0.260160
H16351	H1635	0.996070	0.172130	0.265430
H16361	H1636	0.887870	0.120530	0.289830
C24601	C2460	0.880470	0.152130	0.273700
C24611	C2461	0.124370	0.260130	0.345160
H16371	H1637	0.061270	0.229030	0.353430
H16381	H1638	0.176570	0.281230	0.332330
C24621	C2462	0.902270	0.176830	0.263110
H16391	H1639	0.961170	0.203630	0.253030
H16401	H1640	0.850370	0.146430	0.275630
C24631	C2463	0.151870	0.293630	0.355150
C24641	C2464	0.875670	0.192130	0.254970
H16411	H1641	0.164670	0.325430	0.351930
H16421	H1642	0.177970	0.289230	0.357630
O4511	O451	0.124070	0.287230	0.365590
H16431	H1643	0.864270	0.209030	0.260130
H16441	H1644	0.848770	0.165030	0.251130
O4521	O452	0.905270	0.220830	0.245460
C24651	C2465	0.139270	0.323630	0.374120
C24661	C2466	0.888870	0.241030	0.237850
C24671	C2467	0.185670	0.357830	0.374400
C24681	C2468	0.110370	0.315130	0.385110
C24691	C2469	0.843870	0.230130	0.237750
C24701	C2470	0.917870	0.264530	0.226980
H16451	H1645	0.207270	0.356830	0.368730
C24711	C2471	0.199770	0.393630	0.383170
C24721	C2472	0.125370	0.350230	0.393420
C24731	C2473	0.063570	0.277130	0.387530
C24741	C2474	0.829670	0.251730	0.228330
H16461	H1646	0.822570	0.209030	0.243730
C24751	C2475	0.905170	0.285930	0.218120
C24761	C2476	0.966470	0.276730	0.225180
H16471	H1647	0.228670	0.421230	0.382230
C24771	C2477	0.169570	0.387730	0.393640
C24781	C2478	0.087270	0.341930	0.403070
H16481	H1648	0.053570	0.251530	0.381230
C24791	C2479	0.061870	0.262330	0.399830
C24801	C2480	0.035570	0.299830	0.386830
C24811	C2481	0.862370	0.278830	0.217930
H16491	H1649	0.799970	0.248730	0.228730
C24821	C2482	0.938070	0.315930	0.208960
H16501	H1650	0.976970	0.262030	0.231630
C24831	C2483	0.994870	0.325430	0.224780
C24841	C2484	0.964970	0.258430	0.211420
O4531	O453	0.180770	0.419930	0.402390
H16511	H1651	0.096970	0.367130	0.409530
C24851	C2485	0.075270	0.295130	0.408830
C24861	C2486	0.046770	0.333530	0.395730
C24871	C2487	0.047570	0.217930	0.403930
C24881	C2488	0.997570	0.287530	0.378830
O4541	O454	0.842370	0.295930	0.209150
H16521	H1652	0.926670	0.332130	0.203330
C24891	C2489	0.980470	0.347030	0.216070
C24901	C2490	0.948370	0.281030	0.201950
C24911	C2491	0.034570	0.353430	0.231960
C24921	C2492	0.979570	0.228530	0.207690
C24931	C2493	0.222170	0.453330	0.403280
C24941	C2494	0.075270	0.282630	0.422830
C24951	C2495	0.027470	0.357030	0.397500
C24961	C2496	0.052670	0.211030	0.419330
H16531	H1653	0.035370	0.192630	0.398230
C24971	C2497	0.976270	0.311530	0.379730
H16541	H1654	0.987670	0.262830	0.372930
C24981	C2498	0.795470	0.277830	0.207760
C24991	C2499	0.003570	0.391930	0.214730
C25001	C2500	0.947970	0.270130	0.189550
H16551	H1655	0.045670	0.338830	0.237530
C25011	C2501	0.058070	0.400030	0.231430
H16561	H1656	0.989970	0.214530	0.213630
C25021	C2502	0.978370	0.219430	0.194690
H16571	H1657	0.242670	0.440230	0.404430
H16581	H1658	0.230570	0.470130	0.395130
C25031	C2503	0.231970	0.487630	0.413640
H16591	H1659	0.084170	0.305830	0.429130
C25041	C2504	0.062870	0.239130	0.426330
H16601	H1660	0.039470	0.381130	0.403630
C25051	C2505	0.986870	0.347230	0.390330
H16611	H1661	0.046470	0.181630	0.422230
H16621	H1662	0.953470	0.306630	0.373630
H16631	H1663	0.779670	0.243730	0.207330
H16641	H1664	0.782870	0.286530	0.215030
C25061	C2506	0.788270	0.296730	0.196030
C25071	C2507	0.042970	0.417730	0.222130
H16651	H1665	0.993570	0.406730	0.208930
C25081	C2508	0.959170	0.239030	0.185820
H16661	H1666	0.939470	0.285130	0.183330
H16671	H1667	0.082670	0.418730	0.237030
H16681	H1668	0.990070	0.200630	0.191630
C25091	C2509	0.199170	0.476130	0.422910
C25101	C2510	0.272370	0.531230	0.414800
H16691	H1669	0.062970	0.232530	0.435030
H16701	H1670	0.968770	0.361330	0.391930
C25111	C2511	0.742370	0.286030	0.192130
C25121	C2512	0.820470	0.318530	0.187530
H16711	H1671	0.060670	0.449930	0.220530
H16721	H1672	0.954570	0.229330	0.177230
H16731	H1673	0.171470	0.447330	0.422330
C25131	C2513	0.204570	0.504730	0.433240
C25141	C2514	0.276870	0.558130	0.424950
H16741	H1674	0.295970	0.541630	0.408530
H16751	H1675	0.715970	0.269130	0.197330
C25151	C2515	0.739670	0.302330	0.180050
C25161	C2516	0.815570	0.340630	0.175540
H16761	H1676	0.849570	0.320730	0.188930
H16771	H1677	0.181770	0.495130	0.439630
C25171	C2517	0.245370	0.548630	0.433740
H16781	H1678	0.305270	0.586230	0.425830
H16791	H1679	0.709270	0.293130	0.177330
C25181	C2518	0.771170	0.327530	0.172160
H16801	H1680	0.841370	0.362030	0.170730
C25191	C2519	0.250470	0.580630	0.444130
C25201	C2520	0.763670	0.348730	0.161430
O4551	O455	0.723570	0.326730	0.157540
Zn771	Zn77	0.711100	0.445650	0.627050
O4561	O456	0.673830	0.388870	0.635700
O4571	O457	0.740530	0.492370	0.640330
O4581	O458	0.674630	0.463070	0.617530
O4591	O459	0.757930	0.450670	0.616620
Zn781	Zn78	0.630730	0.405770	0.643270
C25211	C2521	0.714330	0.488970	0.649380
C25221	C2522	0.632530	0.452370	0.621000
O4601	O460	0.673230	0.462470	0.652010
O4611	O461	0.607530	0.426370	0.629850
O4621	O462	0.581330	0.375570	0.655190
O4631	O463	0.624730	0.345970	0.612780
C25231	C2523	0.741930	0.526070	0.659600
C25241	C2524	0.609930	0.471370	0.612050
C25251	C2525	0.720230	0.528470	0.671110
C25261	C2526	0.786630	0.558170	0.658450
C25271	C2527	0.632730	0.499670	0.600980
C25281	C2528	0.568830	0.467870	0.615400
C25291	C2529	0.743930	0.560870	0.679500
H16811	H1681	0.688830	0.506670	0.672670
H16821	H1682	0.802230	0.557470	0.650970
C25301	C2530	0.811930	0.592270	0.667270
C25311	C2531	0.612030	0.518470	0.593500
H16831	H1683	0.662730	0.505470	0.598770
H16841	H1684	0.554530	0.453870	0.623170
C25321	C2532	0.547130	0.485470	0.607040
C25331	C2533	0.791030	0.593470	0.678500
H16851	H1685	0.727930	0.562370	0.686770
H16861	H1686	0.843230	0.614570	0.665670
C25341	C2534	0.568930	0.510170	0.596450
H16871	H1687	0.627830	0.536970	0.586370
H16881	H1688	0.517030	0.479770	0.608970
C25351	C2535	0.818530	0.626970	0.688490
C25361	C2536	0.542330	0.525470	0.588310
H16891	H1689	0.831330	0.658770	0.685270
H16901	H1690	0.844630	0.622570	0.690970
O4641	O464	0.790730	0.620570	0.698930
H16911	H1691	0.530930	0.542370	0.593470
H16921	H1692	0.515430	0.498370	0.584470
O4651	O465	0.571930	0.554170	0.578800
C25371	C2537	0.805930	0.656970	0.707460
C25381	C2538	0.555530	0.574370	0.571190
C25391	C2539	0.852330	0.691170	0.707740
C25401	C2540	0.777030	0.648470	0.718450
C25411	C2541	0.510530	0.563470	0.571090
C25421	C2542	0.584530	0.597870	0.560320
H16931	H1693	0.873930	0.690170	0.702070
C25431	C2543	0.866430	0.726970	0.716510
C25441	C2544	0.792030	0.683570	0.726760
C25451	C2545	0.730230	0.610470	0.720870
C25461	C2546	0.496330	0.585070	0.561670
H16941	H1694	0.489230	0.542370	0.577070
C25471	C2547	0.571830	0.619270	0.551460
C25481	C2548	0.633130	0.610070	0.558520
H16951	H1695	0.895330	0.754570	0.715570
C25491	C2549	0.836230	0.721070	0.726980
C25501	C2550	0.753930	0.675270	0.736410
H16961	H1696	0.720230	0.584870	0.714570
C25511	C2551	0.728530	0.595670	0.733170
C25521	C2552	0.702230	0.633170	0.720170
C25531	C2553	0.529030	0.612170	0.551270
H16971	H1697	0.466630	0.582070	0.562070
C25541	C2554	0.604730	0.649270	0.542300
H16981	H1698	0.643630	0.595370	0.564970
C25551	C2555	0.661530	0.658770	0.558120
C25561	C2556	0.631630	0.591770	0.544760
O4661	O466	0.847430	0.753270	0.735730
H16991	H1699	0.763630	0.700470	0.742870
C25571	C2557	0.741930	0.628470	0.742170
C25581	C2558	0.713430	0.666870	0.729070
C25591	C2559	0.714230	0.551270	0.737270
C25601	C2560	0.664230	0.620870	0.712170
O4671	O467	0.509030	0.629270	0.542490
H17001	H1700	0.593330	0.665470	0.536670
C25611	C2561	0.647130	0.680370	0.549410
C25621	C2562	0.615030	0.614370	0.535290
C25631	C2563	0.701230	0.686770	0.565300
C25641	C2564	0.646230	0.561870	0.541030
C25651	C2565	0.888830	0.786670	0.736620
C25661	C2566	0.741930	0.615970	0.756170
C25671	C2567	0.694130	0.690370	0.730840
C25681	C2568	0.719330	0.544370	0.752670
H17011	H1701	0.702030	0.525970	0.731570
C25691	C2569	0.642930	0.644870	0.713070
H17021	H1702	0.654330	0.596170	0.706270
C25701	C2570	0.462130	0.611170	0.541100
C25711	C2571	0.670230	0.725270	0.548070
C25721	C2572	0.614630	0.603470	0.522890
H17031	H1703	0.712330	0.672170	0.570870
C25731	C2573	0.724730	0.733370	0.564770
H17041	H1704	0.656630	0.547870	0.546970
C25741	C2574	0.645030	0.552770	0.528030
H17051	H1705	0.909330	0.773570	0.737770
H17061	H1706	0.897230	0.803470	0.728470
C25751	C2575	0.898630	0.820970	0.746980
H17071	H1707	0.750830	0.639170	0.762470
C25761	C2576	0.729530	0.572470	0.759670
H17081	H1708	0.706130	0.714470	0.736970
C25771	C2577	0.653530	0.680570	0.723670
H17091	H1709	0.713130	0.514970	0.755570
H17101	H1710	0.620130	0.639970	0.706970
H17111	H1711	0.446330	0.577070	0.540670
H17121	H1712	0.449530	0.619870	0.548370
C25781	C2578	0.454930	0.630070	0.529370
C25791	C2579	0.709630	0.751070	0.555470
H17131	H1713	0.660230	0.740070	0.542270
C25801	C2580	0.625830	0.572370	0.519160
H17141	H1714	0.606130	0.618470	0.516670
H17151	H1715	0.749330	0.752070	0.570370
H17161	H1716	0.656730	0.533970	0.524970
C25811	C2581	0.865830	0.809470	0.756250
C25821	C2582	0.939030	0.864570	0.748140
H17171	H1717	0.729630	0.565870	0.768370
H17181	H1718	0.635430	0.694670	0.725270
C25831	C2583	0.409030	0.619370	0.525470
C25841	C2584	0.487130	0.651870	0.520870
H17191	H1719	0.727330	0.783270	0.553870
H17201	H1720	0.621230	0.562670	0.510570
H17211	H1721	0.838130	0.780670	0.755670
C25851	C2585	0.871230	0.838070	0.766580
C25861	C2586	0.943530	0.891470	0.758290
H17221	H1722	0.962630	0.874970	0.741870
H17231	H1723	0.382630	0.602470	0.530670
C25871	C2587	0.406330	0.635670	0.513390
C25881	C2588	0.482230	0.673970	0.508880
H17241	H1724	0.516230	0.654070	0.522270
H17251	H1725	0.848430	0.828470	0.772970
C25891	C2589	0.912030	0.881970	0.767080
H17261	H1726	0.971930	0.919570	0.759170
H17271	H1727	0.375930	0.626470	0.510670
C25901	C2590	0.437830	0.660870	0.505500
H17281	H1728	0.508030	0.695370	0.504070
C25911	C2591	0.917130	0.913970	0.777470
C25921	C2592	0.430330	0.682070	0.494770
O4681	O468	0.390230	0.660070	0.490880
Zn791	Zn79	0.333330	0.666670	0.457810
Zn801	Zn80	0.000000	0.000000	0.791140
Zn811	Zn81	0.666670	0.333330	0.124480
Zn821	Zn82	0.333330	0.666670	0.957810
Zn831	Zn83	0.000000	0.000000	0.291140
Zn841	Zn84	0.666670	0.333330	0.624480
