data_WIRMOB_clean_PM
_symmetry_space_group_name_H-M	'P1'
_cell_length_a	18.978000
_cell_length_b	23.170000
_cell_length_c	23.477000
_cell_angle_alpha	87.730000
_cell_angle_beta	68.378000
_cell_angle_gamma	68.299000
_symmetry_Int_Tables_number 1

loop_
_symmetry_equiv_pos_as_xyz
'x,y,z'

loop_
_atom_site_label
_atom_site_type_symbol
_atom_site_fract_x
_atom_site_fract_y
_atom_site_fract_z
Zn11	Zn1	0.537770	0.282840	0.238850
Zn21	Zn2	0.468800	0.223650	0.353950
Zn31	Zn3	0.349550	0.325810	0.312970
Zn41	Zn4	0.457080	0.378920	0.357880
O11	O1	0.454000	0.302500	0.320500
C11	C1	0.501300	0.186800	0.772600
C21	C2	0.521500	0.211800	0.814000
C31	C3	0.489900	0.207300	0.876700
C41	C4	0.434600	0.174900	0.898100
C51	C5	0.574400	0.251100	0.798800
H11	H1	0.598100	0.253900	0.753600
C61	C6	0.513500	0.242900	0.915300
H21	H2	0.489800	0.239500	0.960400
C71	C7	0.639000	0.220900	0.823800
C81	C8	0.607800	0.216100	0.887900
C91	C9	0.658900	0.193600	0.918600
H31	H3	0.637000	0.192400	0.961900
C101	C10	0.743100	0.172400	0.886600
H41	H4	0.779300	0.156500	0.907700
C111	C11	0.773800	0.174600	0.823800
H51	H5	0.831600	0.158900	0.801900
C121	C12	0.723100	0.199000	0.791900
H61	H6	0.745600	0.200800	0.748700
C131	C13	0.520100	0.314300	0.835000
C141	C14	0.487200	0.309200	0.899800
C151	C15	0.439000	0.363600	0.939600
H71	H7	0.417300	0.361400	0.982700
C161	C16	0.422300	0.420600	0.917600
H81	H8	0.389600	0.457700	0.945400
C171	C17	0.453400	0.424300	0.854000
H91	H9	0.440400	0.463900	0.838800
C181	C18	0.501500	0.372000	0.814400
H101	H10	0.522800	0.375200	0.771400
C191	C19	0.449400	0.153200	0.794500
C201	C20	0.417000	0.148500	0.856700
C211	C21	0.420600	0.122900	0.755600
H111	H11	0.445300	0.126800	0.710700
C221	C22	0.359300	0.113000	0.871400
H121	H12	0.335000	0.108600	0.916300
C231	C23	0.442300	0.056200	0.769100
C241	C24	0.410800	0.050800	0.830900
C251	C25	0.426700	0.992800	0.853100
H131	H13	0.404600	0.989600	0.896000
C261	C26	0.475400	0.939800	0.811300
H141	H14	0.486500	0.899700	0.825600
C271	C27	0.508800	0.944800	0.747300
H151	H15	0.542600	0.908400	0.718600
C281	C28	0.491300	0.003900	0.727200
H161	H16	0.513200	0.008100	0.684500
C291	C29	0.327700	0.155100	0.782300
C301	C30	0.295500	0.149400	0.844700
C311	C31	0.210700	0.176400	0.877600
H171	H17	0.187200	0.173600	0.920400
C321	C32	0.162200	0.207400	0.845600
H181	H18	0.104400	0.225800	0.867200
C331	C33	0.193900	0.212600	0.784600
H191	H19	0.158500	0.233600	0.764000
C341	C34	0.278100	0.187200	0.752200
H201	H20	0.300900	0.192000	0.709700
O21	O2	0.525900	0.197200	0.711100
C351	C35	0.468300	0.252400	0.701500
H211	H21	0.486900	0.287200	0.700900
H221	H22	0.414800	0.263200	0.736400
C361	C36	0.457200	0.245800	0.643100
C371	C37	0.395800	0.291400	0.631000
H231	H23	0.359700	0.326100	0.661400
C381	C38	0.383800	0.289800	0.578300
H241	H24	0.341500	0.323300	0.571400
C391	C39	0.433300	0.239200	0.534700
C401	C40	0.496600	0.189700	0.545000
H251	H25	0.531400	0.154200	0.515400
C411	C41	0.505600	0.195400	0.600300
H261	H26	0.547600	0.162500	0.608500
C421	C42	0.428700	0.237800	0.471300
O31	O3	0.487400	0.201000	0.428400
O41	O4	0.366100	0.277200	0.465200
O51	O5	0.393400	0.178500	0.961500
C431	C43	0.421800	0.123500	0.990900
H271	H27	0.476100	0.093700	0.962900
H281	H28	0.382600	0.102300	0.002500
C441	C44	0.427200	0.146200	0.045400
C451	C45	0.359300	0.171900	0.098800
H291	H29	0.310600	0.165800	0.103900
C461	C46	0.359900	0.207100	0.146200
H301	H30	0.311500	0.225500	0.182000
C471	C47	0.431500	0.214800	0.140500
C481	C48	0.502000	0.183800	0.088500
H311	H31	0.552700	0.185500	0.084900
C491	C49	0.499200	0.150500	0.042100
H321	H32	0.548100	0.130300	0.007100
C501	C50	0.435000	0.250700	0.189500
O61	O6	0.369600	0.281100	0.232000
O71	O7	0.503300	0.250200	0.181700
C511	C51	0.090600	0.738500	0.174500
C521	C52	0.039600	0.782600	0.224800
C531	C53	0.996400	0.844000	0.217400
C541	C54	0.007200	0.860900	0.157100
C551	C55	0.024200	0.773200	0.292500
H331	H33	0.055900	0.729700	0.298400
C561	C56	0.942200	0.885900	0.276900
H341	H34	0.910300	0.929500	0.271500
C571	C57	0.933500	0.792100	0.324600
C581	C58	0.887800	0.851300	0.318400
C591	C59	0.803600	0.878800	0.345300
H351	H35	0.773500	0.920800	0.341600
C601	C60	0.766600	0.840000	0.378400
H361	H36	0.708400	0.856100	0.397100
C611	C61	0.806900	0.782400	0.385500
H371	H37	0.777600	0.758400	0.409000
C621	C62	0.888000	0.757200	0.360200
H381	H38	0.916200	0.715400	0.366000
C631	C63	0.045000	0.822300	0.316600
C641	C64	0.002400	0.881400	0.308300
C651	C65	0.016100	0.930800	0.326400
H391	H39	0.985500	0.972100	0.320900
C661	C66	0.073500	0.921600	0.352600
H401	H40	0.082800	0.955800	0.365000
C671	C67	0.116800	0.861000	0.360300
H411	H41	0.156600	0.853500	0.377900
C681	C68	0.103000	0.810600	0.342600
H421	H42	0.132800	0.769200	0.348200
C691	C69	0.097500	0.755600	0.115500
C701	C70	0.058100	0.817200	0.107200
C711	C71	0.145600	0.710600	0.055600
H431	H43	0.173300	0.666200	0.062000
C721	C72	0.072800	0.826000	0.039800
H441	H44	0.045400	0.870300	0.033300
C731	C73	0.081900	0.719700	0.027100
C741	C74	0.043500	0.780900	0.017700
C751	C75	0.984700	0.797800	0.992200
H451	H45	0.959000	0.840000	0.986100
C761	C76	0.964000	0.749600	0.975300
H461	H46	0.923900	0.759300	0.957500
C771	C77	0.002400	0.688600	0.984900
H471	H47	0.988000	0.657000	0.973400
C781	C78	0.060400	0.672300	0.010600
H481	H48	0.085600	0.630200	0.017200
C791	C79	0.204800	0.738900	0.012700
C801	C80	0.165700	0.799700	0.004600
C811	C81	0.211100	0.830500	0.963200
H491	H49	0.184300	0.872500	0.957000
C821	C82	0.292700	0.800400	0.932300
H501	H50	0.323100	0.820900	0.903500
C831	C83	0.330900	0.741400	0.942200
H511	H51	0.388600	0.721200	0.921100
C841	C84	0.287100	0.708300	0.983500
H521	H52	0.314300	0.666700	0.990300
O81	O8	0.131900	0.678500	0.183300
C851	C85	0.212100	0.668300	0.179000
H531	H53	0.211400	0.705000	0.199800
H541	H54	0.249100	0.662600	0.135200
C861	C86	0.243600	0.610100	0.209500
C871	C87	0.194700	0.578400	0.238900
H551	H55	0.140600	0.591700	0.239800
C881	C88	0.225400	0.525800	0.267700
H561	H56	0.191700	0.503600	0.288300
C891	C89	0.303500	0.506600	0.266200
C901	C90	0.350500	0.540700	0.238100
H571	H57	0.403700	0.529200	0.238800
C911	C91	0.321000	0.590900	0.209300
H581	H58	0.354900	0.612900	0.188700
C921	C92	0.336900	0.448400	0.293800
O91	O9	0.297300	0.412100	0.303500
O101	O10	0.399300	0.438700	0.303700
O111	O11	0.965100	0.922600	0.151100
C931	C93	0.898000	0.929600	0.131400
H591	H59	0.881800	0.893200	0.140500
H601	H60	0.915200	0.932500	0.086400
C941	C94	0.828000	0.987900	0.165900
C951	C95	0.755100	0.987300	0.208800
H611	H61	0.749300	0.948600	0.217800
C961	C96	0.692000	0.041500	0.238000
H621	H62	0.642900	0.040000	0.267900
C971	C97	0.697100	0.099600	0.225500
C981	C98	0.769800	0.100400	0.183800
H631	H63	0.775300	0.139300	0.175900
C991	C99	0.833800	0.046900	0.153700
H641	H64	0.883000	0.048800	0.124300
C1001	C100	0.626600	0.158900	0.255400
O121	O12	0.634400	0.209500	0.237200
O131	O13	0.564300	0.154600	0.295400
C1011	C101	0.047400	0.035100	0.475800
C1021	C102	0.078500	0.979400	0.500400
C1031	C103	0.968800	0.054100	0.475500
C1041	C104	0.163300	0.949300	0.503000
H651	H65	0.198200	0.973800	0.484000
C1051	C105	0.927100	0.112600	0.448800
H661	H66	0.962500	0.136600	0.429400
C1061	C106	0.151500	0.942400	0.569500
C1071	C107	0.895000	0.092300	0.405600
C1081	C108	0.911500	0.108200	0.344200
H671	H67	0.946600	0.130000	0.326300
C1091	C109	0.873000	0.089700	0.311300
H681	H68	0.880700	0.100500	0.270600
C1101	C110	0.823800	0.055800	0.337500
H691	H69	0.798400	0.043200	0.315000
C1111	C111	0.186900	0.958700	0.604100
H701	H70	0.220800	0.981400	0.586300
C1121	C112	0.199000	0.885900	0.471300
C1131	C113	0.847800	0.150200	0.502700
C1141	C114	0.820700	0.212600	0.524200
H711	H71	0.852800	0.236500	0.505800
C1151	C115	0.746300	0.239200	0.572500
H721	H72	0.727500	0.281800	0.587700
C1161	C116	0.698700	0.205500	0.599400
H731	H73	0.648000	0.224100	0.633300
C1171	C117	0.274200	0.855600	0.423800
H741	H74	0.308600	0.878100	0.406600
O141	O14	0.095000	0.070200	0.453200
C1181	C118	0.081400	0.114600	0.505300
H751	H75	0.023300	0.143700	0.523600
H761	H76	0.096500	0.091100	0.538000
C1191	C119	0.135600	0.149300	0.476700
C1201	C120	0.219900	0.116400	0.457200
H771	H77	0.240700	0.074500	0.466100
C1211	C121	0.274500	0.145000	0.424400
H781	H78	0.332000	0.121900	0.409500
C1221	C122	0.243500	0.207200	0.413800
C1231	C123	0.161200	0.237900	0.437000
H791	H79	0.138400	0.280600	0.431300
C1241	C124	0.110000	0.208300	0.468800
H801	H80	0.052700	0.232300	0.486000
C1251	C125	0.303500	0.235000	0.375300
O151	O15	0.378800	0.199600	0.353500
O161	O16	0.273800	0.291200	0.369300
C1261	C126	0.937100	0.479300	0.032800
C1271	C127	0.992600	0.478700	0.056800
C1281	C128	0.997300	0.452800	0.116700
H811	H81	0.953100	0.436800	0.138500
C1291	C129	0.944800	0.500100	0.973400
C1301	C130	0.889900	0.505300	0.939900
H821	H82	0.845600	0.489600	0.962200
C1311	C131	0.945000	0.470600	0.875900
C1321	C132	0.993500	0.506900	0.155500
C1331	C133	0.937700	0.532900	0.212700
H831	H83	0.897000	0.516500	0.233800
C1341	C134	0.940300	0.585600	0.241500
H841	H84	0.901100	0.605200	0.281300
C1351	C135	0.002700	0.607000	0.209000
H851	H85	0.006200	0.641100	0.227400
C1361	C136	0.942000	0.420000	0.848100
H861	H86	0.900800	0.404200	0.869400
C1371	C137	0.856400	0.574800	0.931200
C1381	C138	0.081700	0.403400	0.099900
C1391	C139	0.101600	0.341000	0.109200
H871	H87	0.059800	0.326000	0.130800
C1401	C140	0.182800	0.301100	0.086700
H881	H88	0.196300	0.257900	0.091400
C1411	C141	0.244600	0.321900	0.057700
H891	H89	0.300300	0.293600	0.044100
C1421	C142	0.774800	0.615200	0.951700
H901	H90	0.732600	0.600200	0.972000
O171	O17	0.877000	0.456600	0.062100
C1431	C143	0.802900	0.505500	0.104300
H911	H91	0.778400	0.538300	0.081200
H921	H92	0.815800	0.525100	0.133900
C1441	C144	0.744500	0.474800	0.137900
C1451	C145	0.724800	0.437800	0.105300
H931	H93	0.746900	0.433400	0.061500
C1461	C146	0.674400	0.408100	0.135900
H941	H94	0.660900	0.383700	0.113100
C1471	C147	0.642100	0.412800	0.199900
C1481	C148	0.661500	0.450600	0.232800
H951	H95	0.640500	0.454800	0.276600
C1491	C149	0.712200	0.481900	0.199700
H961	H96	0.723800	0.508600	0.221500
C1501	C150	0.591200	0.376900	0.232400
O181	O18	0.569300	0.378400	0.290300
O191	O19	0.576300	0.345400	0.199600
Zn51	Zn5	0.462230	0.717160	0.761150
Zn61	Zn6	0.531200	0.776350	0.646050
Zn71	Zn7	0.650450	0.674190	0.687030
Zn81	Zn8	0.542920	0.621080	0.642120
O201	O20	0.546000	0.697500	0.679500
C1511	C151	0.498700	0.813200	0.227400
C1521	C152	0.478500	0.788200	0.186000
C1531	C153	0.510100	0.792700	0.123300
C1541	C154	0.565400	0.825100	0.101900
C1551	C155	0.425600	0.748900	0.201200
H971	H97	0.401900	0.746100	0.246400
C1561	C156	0.486500	0.757100	0.084700
H981	H98	0.510200	0.760500	0.039600
C1571	C157	0.361000	0.779100	0.176200
C1581	C158	0.392200	0.783900	0.112100
C1591	C159	0.341100	0.806400	0.081400
H991	H99	0.363000	0.807600	0.038100
C1601	C160	0.256900	0.827600	0.113400
H1001	H100	0.220700	0.843500	0.092300
C1611	C161	0.226200	0.825400	0.176200
H1011	H101	0.168400	0.841100	0.198100
C1621	C162	0.276900	0.801000	0.208100
H1021	H102	0.254400	0.799200	0.251300
C1631	C163	0.479900	0.685700	0.165000
C1641	C164	0.512800	0.690800	0.100200
C1651	C165	0.561000	0.636400	0.060400
H1031	H103	0.582700	0.638600	0.017300
C1661	C166	0.577700	0.579400	0.082400
H1041	H104	0.610400	0.542300	0.054600
C1671	C167	0.546600	0.575700	0.146000
H1051	H105	0.559600	0.536100	0.161200
C1681	C168	0.498500	0.628000	0.185600
H1061	H106	0.477200	0.624800	0.228600
C1691	C169	0.550600	0.846800	0.205500
C1701	C170	0.583000	0.851500	0.143300
C1711	C171	0.579400	0.877100	0.244400
H1071	H107	0.554700	0.873200	0.289300
C1721	C172	0.640700	0.887000	0.128600
H1081	H108	0.665000	0.891400	0.083700
C1731	C173	0.557700	0.943800	0.230900
C1741	C174	0.589200	0.949200	0.169100
C1751	C175	0.573300	0.007200	0.146900
H1091	H109	0.595400	0.010400	0.104000
C1761	C176	0.524600	0.060200	0.188700
H1101	H110	0.513500	0.100300	0.174400
C1771	C177	0.491200	0.055200	0.252700
H1111	H111	0.457400	0.091600	0.281400
C1781	C178	0.508700	0.996100	0.272800
H1121	H112	0.486800	0.991900	0.315500
C1791	C179	0.672300	0.844900	0.217700
C1801	C180	0.704500	0.850600	0.155300
C1811	C181	0.789300	0.823600	0.122400
H1131	H113	0.812800	0.826400	0.079600
C1821	C182	0.837800	0.792600	0.154400
H1141	H114	0.895600	0.774200	0.132800
C1831	C183	0.806100	0.787400	0.215400
H1151	H115	0.841500	0.766400	0.236000
C1841	C184	0.721900	0.812800	0.247800
H1161	H116	0.699100	0.808000	0.290300
O211	O21	0.474100	0.802800	0.288900
C1851	C185	0.531700	0.747600	0.298500
H1171	H117	0.513100	0.712800	0.299100
H1181	H118	0.585200	0.736800	0.263600
C1861	C186	0.542800	0.754200	0.356900
C1871	C187	0.604200	0.708600	0.369000
H1191	H119	0.640300	0.673900	0.338600
C1881	C188	0.616200	0.710200	0.421700
H1201	H120	0.658500	0.676700	0.428600
C1891	C189	0.566700	0.760800	0.465300
C1901	C190	0.503400	0.810300	0.455000
H1211	H121	0.468600	0.845800	0.484600
C1911	C191	0.494400	0.804600	0.399700
H1221	H122	0.452400	0.837500	0.391500
C1921	C192	0.571300	0.762200	0.528700
O221	O22	0.512600	0.799000	0.571600
O231	O23	0.633900	0.722800	0.534800
O241	O24	0.606600	0.821500	0.038500
C1931	C193	0.578200	0.876500	0.009100
H1231	H123	0.523900	0.906300	0.037100
H1241	H124	0.617400	0.897700	0.997500
C1941	C194	0.572800	0.853800	0.954600
C1951	C195	0.640700	0.828100	0.901200
H1251	H125	0.689400	0.834200	0.896100
C1961	C196	0.640100	0.792900	0.853800
H1261	H126	0.688500	0.774500	0.818000
C1971	C197	0.568500	0.785200	0.859500
C1981	C198	0.498000	0.816200	0.911500
H1271	H127	0.447300	0.814500	0.915100
C1991	C199	0.500800	0.849500	0.957900
H1281	H128	0.451900	0.869700	0.992900
C2001	C200	0.565000	0.749300	0.810500
O251	O25	0.630400	0.718900	0.768000
O261	O26	0.496700	0.749800	0.818300
C2011	C201	0.909400	0.261500	0.825500
C2021	C202	0.960400	0.217400	0.775200
C2031	C203	0.003600	0.156000	0.782600
C2041	C204	0.992800	0.139100	0.842900
C2051	C205	0.975800	0.226800	0.707500
H1291	H129	0.944100	0.270300	0.701600
C2061	C206	0.057800	0.114100	0.723100
H1301	H130	0.089700	0.070500	0.728500
C2071	C207	0.066500	0.207900	0.675400
C2081	C208	0.112200	0.148700	0.681600
C2091	C209	0.196400	0.121200	0.654700
H1311	H131	0.226500	0.079200	0.658400
C2101	C210	0.233400	0.160000	0.621600
H1321	H132	0.291600	0.143900	0.602900
C2111	C211	0.193100	0.217600	0.614500
H1331	H133	0.222400	0.241600	0.591000
C2121	C212	0.112000	0.242800	0.639800
H1341	H134	0.083800	0.284600	0.634000
C2131	C213	0.955000	0.177700	0.683400
C2141	C214	0.997600	0.118600	0.691700
C2151	C215	0.983900	0.069200	0.673600
H1351	H135	0.014500	0.027900	0.679100
C2161	C216	0.926500	0.078400	0.647400
H1361	H136	0.917200	0.044200	0.635000
C2171	C217	0.883200	0.139000	0.639700
H1371	H137	0.843400	0.146500	0.622100
C2181	C218	0.897000	0.189400	0.657400
H1381	H138	0.867200	0.230800	0.651800
C2191	C219	0.902500	0.244400	0.884500
C2201	C220	0.941900	0.182800	0.892800
C2211	C221	0.854400	0.289400	0.944400
H1391	H139	0.826700	0.333800	0.938000
C2221	C222	0.927200	0.174000	0.960200
H1401	H140	0.954600	0.129700	0.966700
C2231	C223	0.918100	0.280300	0.972900
C2241	C224	0.956500	0.219100	0.982300
C2251	C225	0.015300	0.202200	0.007800
H1411	H141	0.041000	0.160000	0.013900
C2261	C226	0.036000	0.250400	0.024700
H1421	H142	0.076100	0.240700	0.042500
C2271	C227	0.997600	0.311400	0.015100
H1431	H143	0.012000	0.343000	0.026600
C2281	C228	0.939600	0.327700	0.989400
H1441	H144	0.914400	0.369800	0.982800
C2291	C229	0.795200	0.261100	0.987300
C2301	C230	0.834300	0.200300	0.995400
C2311	C231	0.788900	0.169500	0.036800
H1451	H145	0.815700	0.127500	0.043000
C2321	C232	0.707300	0.199600	0.067700
H1461	H146	0.676900	0.179100	0.096500
C2331	C233	0.669100	0.258600	0.057800
H1471	H147	0.611400	0.278800	0.078900
C2341	C234	0.712900	0.291700	0.016500
H1481	H148	0.685700	0.333300	0.009700
O271	O27	0.868100	0.321500	0.816700
C2351	C235	0.787900	0.331700	0.821000
H1491	H149	0.788600	0.295000	0.800200
H1501	H150	0.750900	0.337400	0.864800
C2361	C236	0.756400	0.389900	0.790500
C2371	C237	0.805300	0.421600	0.761100
H1511	H151	0.859400	0.408300	0.760200
C2381	C238	0.774600	0.474200	0.732300
H1521	H152	0.808300	0.496400	0.711700
C2391	C239	0.696500	0.493400	0.733800
C2401	C240	0.649500	0.459300	0.761900
H1531	H153	0.596300	0.470800	0.761200
C2411	C241	0.679000	0.409100	0.790700
H1541	H154	0.645100	0.387100	0.811300
C2421	C242	0.663100	0.551600	0.706200
O281	O28	0.702700	0.587900	0.696500
O291	O29	0.600700	0.561300	0.696300
O301	O30	0.034900	0.077400	0.848900
C2431	C243	0.102000	0.070400	0.868600
H1551	H155	0.118200	0.106800	0.859500
H1561	H156	0.084800	0.067500	0.913600
C2441	C244	0.172000	0.012100	0.834100
C2451	C245	0.244900	0.012700	0.791200
H1571	H157	0.250700	0.051400	0.782200
C2461	C246	0.308000	0.958500	0.762000
H1581	H158	0.357100	0.960000	0.732100
C2471	C247	0.302900	0.900400	0.774500
C2481	C248	0.230200	0.899600	0.816200
H1591	H159	0.224700	0.860700	0.824100
C2491	C249	0.166200	0.953100	0.846300
H1601	H160	0.117000	0.951200	0.875700
C2501	C250	0.373400	0.841100	0.744600
O311	O31	0.365600	0.790500	0.762800
O321	O32	0.435700	0.845400	0.704600
C2511	C251	0.952600	0.964900	0.524200
C2521	C252	0.921500	0.020600	0.499600
C2531	C253	0.031200	0.945900	0.524500
C2541	C254	0.836700	0.050700	0.497000
H1611	H161	0.801800	0.026200	0.516000
C2551	C255	0.072900	0.887400	0.551200
H1621	H162	0.037500	0.863400	0.570600
C2561	C256	0.848500	0.057600	0.430500
C2571	C257	0.105000	0.907700	0.594400
C2581	C258	0.088500	0.891800	0.655800
H1631	H163	0.053400	0.870000	0.673700
C2591	C259	0.127000	0.910300	0.688700
H1641	H164	0.119300	0.899500	0.729400
C2601	C260	0.176200	0.944200	0.662500
H1651	H165	0.201600	0.956800	0.685000
C2611	C261	0.813100	0.041300	0.395900
H1661	H166	0.779200	0.018600	0.413700
C2621	C262	0.801000	0.114100	0.528700
C2631	C263	0.152200	0.849800	0.497300
C2641	C264	0.179300	0.787400	0.475800
H1671	H167	0.147200	0.763500	0.494200
C2651	C265	0.253700	0.760800	0.427500
H1681	H168	0.272500	0.718200	0.412300
C2661	C266	0.301300	0.794500	0.400600
H1691	H169	0.352000	0.775900	0.366700
C2671	C267	0.725800	0.144400	0.576200
H1701	H170	0.691400	0.121900	0.593400
O331	O33	0.905000	0.929800	0.546800
C2681	C268	0.918600	0.885400	0.494700
H1711	H171	0.976700	0.856300	0.476400
H1721	H172	0.903500	0.908900	0.462000
C2691	C269	0.864400	0.850700	0.523300
C2701	C270	0.780100	0.883600	0.542800
H1731	H173	0.759300	0.925500	0.533900
C2711	C271	0.725500	0.855000	0.575600
H1741	H174	0.668000	0.878100	0.590500
C2721	C272	0.756500	0.792800	0.586200
C2731	C273	0.838800	0.762100	0.563000
H1751	H175	0.861600	0.719400	0.568700
C2741	C274	0.890000	0.791700	0.531200
H1761	H176	0.947300	0.767700	0.514000
C2751	C275	0.696500	0.765000	0.624700
O341	O34	0.621200	0.800400	0.646500
O351	O35	0.726200	0.708800	0.630700
C2761	C276	0.062900	0.520700	0.967200
C2771	C277	0.007400	0.521300	0.943200
C2781	C278	0.002700	0.547200	0.883300
H1771	H177	0.046900	0.563200	0.861500
C2791	C279	0.055200	0.499900	0.026600
C2801	C280	0.110100	0.494700	0.060100
H1781	H178	0.154400	0.510400	0.037800
C2811	C281	0.055000	0.529400	0.124100
C2821	C282	0.006500	0.493100	0.844500
C2831	C283	0.062300	0.467100	0.787300
H1791	H179	0.103000	0.483500	0.766200
C2841	C284	0.059700	0.414400	0.758500
H1801	H180	0.098900	0.394800	0.718700
C2851	C285	0.997300	0.393000	0.791000
H1811	H181	0.993800	0.358900	0.772600
C2861	C286	0.058000	0.580000	0.151900
H1821	H182	0.099200	0.595800	0.130600
C2871	C287	0.143600	0.425200	0.068800
C2881	C288	0.918300	0.596600	0.900100
C2891	C289	0.898400	0.659000	0.890800
H1831	H183	0.940200	0.674000	0.869200
C2901	C290	0.817200	0.698900	0.913300
H1841	H184	0.803700	0.742100	0.908600
C2911	C291	0.755400	0.678100	0.942300
H1851	H185	0.699700	0.706400	0.955900
C2921	C292	0.225200	0.384800	0.048300
H1861	H186	0.267400	0.399800	0.028000
O361	O36	0.123000	0.543400	0.937900
C2931	C293	0.197100	0.494500	0.895700
H1871	H187	0.221600	0.461700	0.918800
H1881	H188	0.184200	0.474900	0.866100
C2941	C294	0.255500	0.525200	0.862100
C2951	C295	0.275200	0.562200	0.894700
H1891	H189	0.253100	0.566600	0.938500
C2961	C296	0.325600	0.591900	0.864100
H1901	H190	0.339100	0.616300	0.886900
C2971	C297	0.357900	0.587200	0.800100
C2981	C298	0.338500	0.549400	0.767200
H1911	H191	0.359500	0.545200	0.723400
C2991	C299	0.287800	0.518100	0.800300
H1921	H192	0.276200	0.491400	0.778500
C3001	C300	0.408800	0.623100	0.767600
O371	O37	0.430700	0.621600	0.709700
O381	O38	0.423700	0.654600	0.800400
