data_WISTID_clean_PM
_symmetry_space_group_name_H-M	'P1'
_cell_length_a	7.997400
_cell_length_b	10.374400
_cell_length_c	12.610600
_cell_angle_alpha	90.316000
_cell_angle_beta	90.311000
_cell_angle_gamma	107.047000
_symmetry_Int_Tables_number 1

loop_
_symmetry_equiv_pos_as_xyz
'x,y,z'

loop_
_atom_site_label
_atom_site_type_symbol
_atom_site_fract_x
_atom_site_fract_y
_atom_site_fract_z
Zn11	Zn1	0.556350	0.210070	0.762480
Zn21	Zn2	0.177600	0.128510	0.943330
Zn31	Zn3	0.443650	0.789930	0.237520
Zn41	Zn4	0.822400	0.871490	0.056670
H11	H1	0.971800	0.085500	0.654100
H21	H2	0.857900	0.042500	0.487000
H31	H3	0.558300	0.599100	0.753400
H41	H4	0.440700	0.765800	0.600700
H51	H5	0.779800	0.465300	0.005800
H61	H6	0.441700	0.400900	0.246600
H71	H7	0.760700	0.240200	0.005000
H81	H8	0.220200	0.534700	0.994200
H91	H9	0.559300	0.234200	0.399300
H101	H10	0.239300	0.759800	0.995000
H111	H11	0.028200	0.914500	0.345900
H121	H12	0.142100	0.957500	0.513000
C11	C1	0.135100	0.979700	0.356200
C21	C2	0.140800	0.025100	0.162300
C31	C3	0.291500	0.592800	0.945900
C41	C4	0.611700	0.851800	0.715100
C51	C5	0.223900	0.049400	0.268600
C61	C6	0.708500	0.407200	0.054100
C71	C7	0.505300	0.367100	0.197900
C81	C8	0.405100	0.816100	0.873500
C91	C9	0.594900	0.183900	0.126500
C101	C10	0.579500	0.861300	0.414500
C111	C11	0.302700	0.727200	0.945400
C121	C12	0.358300	0.101900	0.473500
C131	C13	0.494700	0.632900	0.802100
C141	C14	0.697300	0.272800	0.054600
C151	C15	0.611000	0.454700	0.127000
C161	C16	0.451300	0.170900	0.387200
C171	C17	0.548700	0.829100	0.612800
C181	C18	0.388300	0.148200	0.284900
C191	C19	0.797300	0.994300	0.543900
C201	C20	0.509600	0.769500	0.800900
C211	C21	0.864900	0.020300	0.643800
C221	C22	0.600300	0.038600	0.123200
C231	C23	0.420500	0.138700	0.585500
C241	C24	0.641700	0.898100	0.526500
C251	C25	0.859200	0.974900	0.837700
C261	C26	0.399700	0.961400	0.876800
C271	C27	0.379200	0.398200	0.866600
C281	C28	0.389000	0.545300	0.873000
C291	C29	0.490400	0.230500	0.199100
C301	C30	0.776100	0.950600	0.731400
C311	C31	0.202700	0.005700	0.456100
C321	C32	0.620800	0.601800	0.133400
O11	O1	0.332600	0.088200	0.662600
O21	O2	0.041200	0.907700	0.141000
O31	O3	0.958800	0.092300	0.859000
O41	O4	0.267500	0.320500	0.925900
O51	O5	0.831300	0.879200	0.901300
O61	O6	0.667400	0.911800	0.337400
O71	O7	0.570200	0.219600	0.600300
O81	O8	0.429800	0.780400	0.399700
O91	O9	0.537500	0.053200	0.853600
O101	O10	0.741600	0.022800	0.095500
O111	O11	0.462500	0.946800	0.146400
O121	O12	0.258400	0.977200	0.904500
O131	O13	0.732500	0.679500	0.074100
O141	O14	0.482100	0.363900	0.806800
O151	O15	0.168700	0.120800	0.098700
O161	O16	0.517900	0.636100	0.193200
