data_WISVEB_clean_PM
_symmetry_space_group_name_H-M	'P1'
_cell_length_a	14.319000
_cell_length_b	14.490000
_cell_length_c	22.598000
_cell_angle_alpha	90.000000
_cell_angle_beta	98.210000
_cell_angle_gamma	90.000000
_symmetry_Int_Tables_number 1

loop_
_symmetry_equiv_pos_as_xyz
'x,y,z'

loop_
_atom_site_label
_atom_site_type_symbol
_atom_site_fract_x
_atom_site_fract_y
_atom_site_fract_z
Cd11	Cd1	0.178770	0.132560	0.860010
Cd21	Cd2	0.178770	0.367440	0.360010
Cd31	Cd3	0.744140	0.750770	0.758830
Cd41	Cd4	0.255860	0.249230	0.241170
Cd51	Cd5	0.744140	0.749230	0.258830
Cd61	Cd6	0.821230	0.632560	0.639990
Cd71	Cd7	0.821230	0.867440	0.139990
Cd81	Cd8	0.255860	0.250770	0.741170
H11	H1	0.074600	0.083300	0.595800
H21	H2	0.401800	0.426100	0.408600
H31	H3	0.984800	0.524100	0.240100
H41	H4	0.015200	0.024100	0.259900
H51	H5	0.598200	0.573900	0.591400
H61	H6	0.984800	0.975900	0.740100
H71	H7	0.389900	0.385900	0.583300
H81	H8	0.501200	0.493400	0.741600
H91	H9	0.925400	0.916700	0.404200
H101	H10	0.015200	0.475900	0.759900
H111	H11	0.401800	0.073900	0.908600
H121	H12	0.889100	0.624500	0.078000
H131	H13	0.498800	0.506600	0.258400
H141	H14	0.889100	0.875500	0.578000
H151	H15	0.598200	0.926100	0.091400
H161	H16	0.074600	0.416700	0.095800
H171	H17	0.501200	0.006600	0.241600
H181	H18	0.389900	0.114100	0.083300
H191	H19	0.610100	0.614100	0.416700
H201	H20	0.925400	0.583300	0.904200
H211	H21	0.110900	0.124500	0.422000
H221	H22	0.110900	0.375500	0.922000
H231	H23	0.610100	0.885900	0.916700
H241	H24	0.498800	0.993400	0.758400
C11	C1	0.432500	0.425200	0.605700
C21	C2	0.559400	0.955900	0.171700
C31	C3	0.440600	0.455900	0.328300
C41	C4	0.015000	0.023700	0.301020
C51	C5	0.961500	0.959700	0.386970
C61	C6	0.105400	0.396800	0.213100
C71	C7	0.927300	0.583500	0.102000
C81	C8	0.927300	0.916500	0.602000
C91	C9	0.072700	0.416500	0.898000
C101	C10	0.018300	0.478200	0.923500
C111	C11	0.958400	0.961400	0.325780
C121	C12	0.134400	0.348400	0.810300
C131	C13	0.435900	0.430000	0.667300
C141	C14	0.961500	0.540300	0.886970
C151	C15	0.981700	0.978200	0.576500
C161	C16	0.559400	0.544100	0.671700
C171	C17	0.442800	0.038600	0.889500
C181	C18	0.630300	0.630000	0.303000
C191	C19	0.630300	0.870000	0.803000
C201	C20	0.105400	0.103200	0.713100
C211	C21	0.985000	0.523700	0.198980
C221	C22	0.038500	0.040300	0.613030
C231	C23	0.625400	0.889300	0.208200
C241	C24	0.492900	0.020600	0.077700
C251	C25	0.928600	0.914600	0.663200
C261	C26	0.865600	0.651600	0.189700
C271	C27	0.435900	0.070000	0.167300
C281	C28	0.369700	0.370000	0.697000
C291	C29	0.557200	0.961400	0.110500
C301	C30	0.374600	0.110700	0.791800
C311	C31	0.557200	0.538600	0.610500
C321	C32	0.499100	0.489700	0.700300
C331	C33	0.564100	0.930000	0.832700
C341	C34	0.507100	0.520600	0.422300
C351	C35	0.865600	0.848400	0.689700
C361	C36	0.041600	0.461400	0.174220
C371	C37	0.981700	0.521800	0.076500
C381	C38	0.374600	0.389300	0.291800
C391	C39	0.071400	0.085400	0.336800
C401	C40	0.499100	0.010300	0.200300
C411	C41	0.018300	0.021800	0.423500
C421	C42	0.928600	0.585400	0.163200
C431	C43	0.432500	0.074800	0.105700
C441	C44	0.440600	0.044100	0.828300
C451	C45	0.134400	0.151600	0.310300
C461	C46	0.567500	0.574800	0.394300
C471	C47	0.894600	0.603200	0.786900
C481	C48	0.492900	0.479400	0.577700
C491	C49	0.625400	0.610700	0.708200
C501	C50	0.507100	0.979400	0.922300
C511	C51	0.015000	0.476300	0.801020
C521	C52	0.038500	0.459700	0.113030
C531	C53	0.369700	0.130000	0.197000
C541	C54	0.072700	0.083500	0.398000
C551	C55	0.071400	0.414600	0.836800
C561	C56	0.564100	0.570000	0.332700
C571	C57	0.894600	0.896800	0.286900
C581	C58	0.500900	0.510300	0.299700
C591	C59	0.567500	0.925200	0.894300
C601	C60	0.442800	0.461400	0.389500
C611	C61	0.041600	0.038600	0.674220
C621	C62	0.958400	0.538600	0.825780
C631	C63	0.500900	0.989700	0.799700
C641	C64	0.985000	0.976300	0.698980
N11	N1	0.514600	0.532900	0.485560
N21	N2	0.485400	0.467100	0.514440
N31	N3	0.971500	0.523100	0.012230
N41	N4	0.028500	0.476900	0.987770
N51	N5	0.971500	0.976900	0.512230
N61	N6	0.485400	0.032900	0.014440
N71	N7	0.514600	0.967100	0.985560
N81	N8	0.028500	0.023100	0.487770
O11	O1	0.621800	0.632200	0.247740
O21	O2	0.847500	0.658000	0.812540
O31	O3	0.378200	0.132200	0.252260
O41	O4	0.688300	0.677500	0.335560
O51	O5	0.620000	0.875400	0.261300
O61	O6	0.897300	0.901200	0.232040
O71	O7	0.380000	0.375400	0.238700
O81	O8	0.315500	0.344800	0.318650
O91	O9	0.688300	0.822500	0.835560
O101	O10	0.311700	0.177500	0.164440
O111	O11	0.847500	0.842000	0.312540
O121	O12	0.152500	0.342000	0.187460
O131	O13	0.684500	0.655200	0.681350
O141	O14	0.102700	0.098800	0.767960
O151	O15	0.684500	0.844800	0.181350
O161	O16	0.857500	0.643700	0.244000
O171	O17	0.380000	0.124600	0.738700
O181	O18	0.822300	0.788400	0.655960
O191	O19	0.152500	0.158000	0.687460
O201	O20	0.315500	0.155200	0.818650
O211	O21	0.822300	0.711600	0.155960
O221	O22	0.177700	0.211600	0.344040
O231	O23	0.378200	0.367800	0.752260
O241	O24	0.620000	0.624600	0.761300
O251	O25	0.621800	0.867800	0.747740
O261	O26	0.142500	0.356300	0.756000
O271	O27	0.142500	0.143700	0.256000
O281	O28	0.897300	0.598800	0.732040
O291	O29	0.857500	0.856300	0.744000
O301	O30	0.311700	0.322500	0.664440
O311	O31	0.102700	0.401200	0.267960
O321	O32	0.177700	0.288400	0.844040
