data_WITJOA_clean_PM
_symmetry_space_group_name_H-M	'P1'
_cell_length_a	15.999500
_cell_length_b	18.185200
_cell_length_c	24.819900
_cell_angle_alpha	90.000000
_cell_angle_beta	102.917000
_cell_angle_gamma	90.000000
_symmetry_Int_Tables_number 1

loop_
_symmetry_equiv_pos_as_xyz
'x,y,z'

loop_
_atom_site_label
_atom_site_type_symbol
_atom_site_fract_x
_atom_site_fract_y
_atom_site_fract_z
Mn11	Mn1	0.446140	0.929380	0.520570
Mn21	Mn2	0.590700	0.881120	0.423170
Mn31	Mn3	0.535440	0.750070	0.514800
S11	S1	0.098550	0.741780	0.620980
S21	S2	0.481440	0.800930	0.862600
S31	S3	0.954460	0.002580	0.705640
O11	O1	0.460720	0.878090	0.597080
O21	O2	0.853730	0.637720	0.969280
O31	O3	0.536990	0.863080	0.491040
H11	H1	0.587400	0.877500	0.519400
O41	O4	0.553620	0.001970	0.552190
O51	O5	0.353130	0.001680	0.548830
O61	O6	0.056000	0.708500	0.868980
O71	O7	0.708350	0.831100	0.468630
O81	O8	0.530220	0.067630	0.623840
O91	O9	0.334450	0.051560	0.625910
O101	O10	0.029500	0.788200	0.931480
O111	O11	0.673760	0.760090	0.534760
O121	O12	0.895900	0.754130	0.990450
O131	O13	0.532580	0.772010	0.601280
O141	O14	0.124400	0.682380	0.590340
O151	O15	0.102800	0.732500	0.679830
O161	O16	0.425500	0.741100	0.868840
O171	O17	0.464400	0.872700	0.881220
O181	O18	0.979400	0.072100	0.732710
O191	O19	0.994900	0.978100	0.662060
C11	C1	0.321700	0.000500	0.591120
C21	C2	0.264500	0.936500	0.599170
C31	C3	0.237500	0.887000	0.556990
H21	H2	0.254100	0.892900	0.523700
C41	C4	0.186200	0.828800	0.563790
H31	H3	0.168800	0.795200	0.535200
C51	C5	0.160600	0.819800	0.612330
C61	C6	0.186200	0.868800	0.654700
H41	H4	0.168100	0.862700	0.687500
C71	C7	0.239100	0.928100	0.649050
H51	H5	0.257000	0.961100	0.677900
C81	C8	0.990900	0.762300	0.588300
C91	C9	0.968500	0.783200	0.534500
H61	H6	0.010500	0.789600	0.514500
C101	C10	0.882500	0.795100	0.509200
H71	H7	0.867300	0.811600	0.472800
C111	C11	0.819300	0.782000	0.538830
C121	C12	0.842100	0.758300	0.591900
H81	H8	0.799700	0.747400	0.610900
C131	C13	0.928700	0.749900	0.618710
H91	H9	0.944100	0.736400	0.655800
C141	C14	0.725000	0.792100	0.511210
C151	C15	0.495900	0.821700	0.621620
C161	C16	0.493000	0.816800	0.681880
C171	C17	0.464100	0.875700	0.707640
H101	H10	0.446700	0.918500	0.687800
C181	C18	0.460700	0.871700	0.763370
H111	H11	0.441200	0.911400	0.780800
C191	C19	0.486900	0.807500	0.792000
C201	C20	0.514800	0.747200	0.766860
H121	H12	0.531100	0.704100	0.786700
C211	C21	0.518200	0.751900	0.711060
H131	H13	0.537200	0.712100	0.693600
C221	C22	0.586400	0.773700	0.895400
C231	C23	0.648100	0.827700	0.915610
H141	H14	0.633400	0.877200	0.912700
C241	C24	0.730900	0.806300	0.939840
H151	H15	0.772400	0.841300	0.954100
C251	C25	0.751500	0.730900	0.942630
C261	C26	0.690700	0.678500	0.921770
H161	H16	0.705600	0.629000	0.922900
C271	C27	0.606200	0.700400	0.898730
H171	H17	0.564100	0.665500	0.885800
C281	C28	0.842200	0.706400	0.969580
C291	C29	0.577600	0.030800	0.600330
C301	C30	0.671000	0.020200	0.628470
C311	C31	0.706900	0.062000	0.674840
H181	H18	0.672400	0.093800	0.689600
C321	C32	0.793500	0.056600	0.699280
H191	H19	0.817900	0.085700	0.729500
C331	C33	0.842600	0.007000	0.677790
C341	C34	0.806500	0.963400	0.632590
H201	H20	0.840200	0.929700	0.618900
C351	C35	0.720200	0.970400	0.607920
H211	H21	0.695700	0.941400	0.577600
C361	C36	0.971300	0.933400	0.756630
C371	C37	0.960400	0.949200	0.809300
H221	H22	0.939700	0.994900	0.817100
C381	C38	0.980700	0.896000	0.850000
H231	H23	0.975200	0.906700	0.885700
C391	C39	0.009000	0.827500	0.838400
C401	C40	0.016800	0.812000	0.785190
H241	H24	0.035300	0.765700	0.776900
C411	C41	0.997000	0.865500	0.743900
H251	H25	0.001400	0.854900	0.708000
C421	C42	0.033100	0.770700	0.883000
Mn41	Mn4	0.053860	0.429380	0.979430
Mn51	Mn5	0.909300	0.381120	0.076830
Mn61	Mn6	0.964560	0.250070	0.985200
S41	S4	0.401450	0.241780	0.879020
S51	S5	0.018560	0.300930	0.637400
S61	S6	0.545540	0.502580	0.794360
O201	O20	0.039280	0.378090	0.902920
O211	O21	0.646270	0.137720	0.530720
O221	O22	0.963010	0.363080	0.008960
H261	H26	0.912600	0.377500	0.980600
O231	O23	0.946380	0.501970	0.947810
O241	O24	0.146870	0.501680	0.951170
O251	O25	0.444000	0.208500	0.631020
O261	O26	0.791650	0.331100	0.031370
O271	O27	0.969780	0.567630	0.876160
O281	O28	0.165550	0.551560	0.874090
O291	O29	0.470500	0.288200	0.568520
O301	O30	0.826240	0.260090	0.965240
O311	O31	0.604100	0.254130	0.509550
O321	O32	0.967420	0.272010	0.898720
O331	O33	0.375600	0.182380	0.909660
O341	O34	0.397200	0.232500	0.820170
O351	O35	0.074500	0.241100	0.631160
O361	O36	0.035600	0.372700	0.618780
O371	O37	0.520600	0.572100	0.767290
O381	O38	0.505100	0.478100	0.837940
C431	C43	0.178300	0.500500	0.908880
C441	C44	0.235500	0.436500	0.900830
C451	C45	0.262500	0.387000	0.943010
H271	H27	0.245900	0.392900	0.976300
C461	C46	0.313800	0.328800	0.936210
H281	H28	0.331200	0.295200	0.964800
C471	C47	0.339400	0.319800	0.887670
C481	C48	0.313800	0.368800	0.845300
H291	H29	0.331900	0.362700	0.812500
C491	C49	0.260900	0.428100	0.850950
H301	H30	0.243000	0.461100	0.822100
C501	C50	0.509100	0.262300	0.911700
C511	C51	0.531500	0.283200	0.965500
H311	H31	0.489500	0.289600	0.985500
C521	C52	0.617500	0.295100	0.990800
H321	H32	0.632700	0.311600	0.027200
C531	C53	0.680700	0.282000	0.961170
C541	C54	0.657900	0.258300	0.908100
H331	H33	0.700300	0.247400	0.889100
C551	C55	0.571300	0.249900	0.881290
H341	H34	0.555900	0.236400	0.844200
C561	C56	0.775000	0.292100	0.988790
C571	C57	0.004100	0.321700	0.878380
C581	C58	0.007000	0.316800	0.818120
C591	C59	0.035900	0.375700	0.792360
H351	H35	0.053300	0.418500	0.812200
C601	C60	0.039300	0.371700	0.736630
H361	H36	0.058800	0.411400	0.719200
C611	C61	0.013100	0.307500	0.708000
C621	C62	0.985200	0.247200	0.733140
H371	H37	0.968900	0.204100	0.713300
C631	C63	0.981800	0.251900	0.788940
H381	H38	0.962800	0.212100	0.806400
C641	C64	0.913600	0.273700	0.604600
C651	C65	0.851900	0.327700	0.584390
H391	H39	0.866600	0.377200	0.587300
C661	C66	0.769100	0.306300	0.560160
H401	H40	0.727600	0.341300	0.545900
C671	C67	0.748500	0.230900	0.557370
C681	C68	0.809300	0.178500	0.578230
H411	H41	0.794400	0.129000	0.577100
C691	C69	0.893800	0.200400	0.601270
H421	H42	0.935900	0.165500	0.614200
C701	C70	0.657800	0.206400	0.530420
C711	C71	0.922400	0.530800	0.899670
C721	C72	0.829000	0.520200	0.871530
C731	C73	0.793100	0.562000	0.825160
H431	H43	0.827600	0.593800	0.810400
C741	C74	0.706500	0.556600	0.800720
H441	H44	0.682100	0.585700	0.770500
C751	C75	0.657400	0.507000	0.822210
C761	C76	0.693500	0.463400	0.867410
H451	H45	0.659800	0.429700	0.881100
C771	C77	0.779800	0.470400	0.892080
H461	H46	0.804300	0.441400	0.922400
C781	C78	0.528700	0.433400	0.743370
C791	C79	0.539600	0.449200	0.690700
H471	H47	0.560300	0.494900	0.682900
C801	C80	0.519300	0.396000	0.650000
H481	H48	0.524800	0.406700	0.614300
C811	C81	0.491000	0.327500	0.661600
C821	C82	0.483200	0.312000	0.714810
H491	H49	0.464700	0.265700	0.723100
C831	C83	0.503000	0.365500	0.756100
H501	H50	0.498600	0.354900	0.792000
C841	C84	0.466900	0.270700	0.617000
Mn71	Mn7	0.553860	0.070620	0.479430
Mn81	Mn8	0.409300	0.118880	0.576830
Mn91	Mn9	0.464560	0.249930	0.485200
S71	S7	0.901450	0.258220	0.379020
S81	S8	0.518560	0.199070	0.137400
S91	S9	0.045540	0.997420	0.294360
O391	O39	0.539280	0.121910	0.402920
O401	O40	0.146270	0.362280	0.030720
O411	O41	0.463010	0.136920	0.508960
H511	H51	0.412600	0.122500	0.480600
O421	O42	0.446380	0.998030	0.447810
O431	O43	0.646870	0.998320	0.451170
O441	O44	0.944000	0.291500	0.131020
O451	O45	0.291650	0.168900	0.531370
O461	O46	0.469780	0.932370	0.376160
O471	O47	0.665550	0.948440	0.374090
O481	O48	0.970500	0.211800	0.068520
O491	O49	0.326240	0.239910	0.465240
O501	O50	0.104100	0.245870	0.009550
O511	O51	0.467420	0.227990	0.398720
O521	O52	0.875600	0.317620	0.409660
O531	O53	0.897200	0.267500	0.320170
O541	O54	0.574500	0.258900	0.131160
O551	O55	0.535600	0.127300	0.118780
O561	O56	0.020600	0.927900	0.267290
O571	O57	0.005100	0.021900	0.337940
C851	C85	0.678300	0.999500	0.408880
C861	C86	0.735500	0.063500	0.400830
C871	C87	0.762500	0.113000	0.443010
H521	H52	0.745900	0.107100	0.476300
C881	C88	0.813800	0.171200	0.436210
H531	H53	0.831200	0.204800	0.464800
C891	C89	0.839400	0.180200	0.387670
C901	C90	0.813800	0.131200	0.345300
H541	H54	0.831900	0.137300	0.312500
C911	C91	0.760900	0.071900	0.350950
H551	H55	0.743000	0.038900	0.322100
C921	C92	0.009100	0.237700	0.411700
C931	C93	0.031500	0.216800	0.465500
H561	H56	0.989500	0.210400	0.485500
C941	C94	0.117500	0.204900	0.490800
H571	H57	0.132700	0.188400	0.527200
C951	C95	0.180700	0.218000	0.461170
C961	C96	0.157900	0.241700	0.408100
H581	H58	0.200300	0.252600	0.389100
C971	C97	0.071300	0.250100	0.381290
H591	H59	0.055900	0.263600	0.344200
C981	C98	0.275000	0.207900	0.488790
C991	C99	0.504100	0.178300	0.378380
C1001	C100	0.507000	0.183200	0.318120
C1011	C101	0.535900	0.124300	0.292360
H601	H60	0.553300	0.081500	0.312200
C1021	C102	0.539300	0.128300	0.236630
H611	H61	0.558800	0.088600	0.219200
C1031	C103	0.513100	0.192500	0.208000
C1041	C104	0.485200	0.252800	0.233140
H621	H62	0.468900	0.295900	0.213300
C1051	C105	0.481800	0.248100	0.288940
H631	H63	0.462800	0.287900	0.306400
C1061	C106	0.413600	0.226300	0.104600
C1071	C107	0.351900	0.172300	0.084390
H641	H64	0.366600	0.122800	0.087300
C1081	C108	0.269100	0.193700	0.060160
H651	H65	0.227600	0.158700	0.045900
C1091	C109	0.248500	0.269100	0.057370
C1101	C110	0.309300	0.321500	0.078230
H661	H66	0.294400	0.371000	0.077100
C1111	C111	0.393800	0.299600	0.101270
H671	H67	0.435900	0.334500	0.114200
C1121	C112	0.157800	0.293600	0.030420
C1131	C113	0.422400	0.969200	0.399670
C1141	C114	0.329000	0.979800	0.371530
C1151	C115	0.293100	0.938000	0.325160
H681	H68	0.327600	0.906200	0.310400
C1161	C116	0.206500	0.943400	0.300720
H691	H69	0.182100	0.914300	0.270500
C1171	C117	0.157400	0.993000	0.322210
C1181	C118	0.193500	0.036600	0.367410
H701	H70	0.159800	0.070300	0.381100
C1191	C119	0.279800	0.029600	0.392080
H711	H71	0.304300	0.058600	0.422400
C1201	C120	0.028700	0.066600	0.243370
C1211	C121	0.039600	0.050800	0.190700
H721	H72	0.060300	0.005100	0.182900
C1221	C122	0.019300	0.104000	0.150000
H731	H73	0.024800	0.093300	0.114300
C1231	C123	0.991000	0.172500	0.161600
C1241	C124	0.983200	0.188000	0.214810
H741	H74	0.964700	0.234300	0.223100
C1251	C125	0.003000	0.134500	0.256100
H751	H75	0.998600	0.145100	0.292000
C1261	C126	0.966900	0.229300	0.117000
Mn101	Mn10	0.946140	0.570620	0.020570
Mn111	Mn11	0.090700	0.618880	0.923170
Mn121	Mn12	0.035440	0.749930	0.014800
S101	S10	0.598550	0.758220	0.120980
S111	S11	0.981440	0.699070	0.362600
S121	S12	0.454460	0.497420	0.205640
O581	O58	0.960720	0.621910	0.097080
O591	O59	0.353730	0.862280	0.469280
O601	O60	0.036990	0.636920	0.991040
H761	H76	0.087400	0.622500	0.019400
O611	O61	0.053620	0.498030	0.052190
O621	O62	0.853130	0.498320	0.048830
O631	O63	0.556000	0.791500	0.368980
O641	O64	0.208350	0.668900	0.968630
O651	O65	0.030220	0.432370	0.123840
O661	O66	0.834450	0.448440	0.125910
O671	O67	0.529500	0.711800	0.431480
O681	O68	0.173760	0.739910	0.034760
O691	O69	0.395900	0.745870	0.490450
O701	O70	0.032580	0.727990	0.101280
O711	O71	0.624400	0.817620	0.090340
O721	O72	0.602800	0.767500	0.179830
O731	O73	0.925500	0.758900	0.368840
O741	O74	0.964400	0.627300	0.381220
O751	O75	0.479400	0.427900	0.232710
O761	O76	0.494900	0.521900	0.162060
C1271	C127	0.821700	0.499500	0.091120
C1281	C128	0.764500	0.563500	0.099170
C1291	C129	0.737500	0.613000	0.056990
H771	H77	0.754100	0.607100	0.023700
C1301	C130	0.686200	0.671200	0.063790
H781	H78	0.668800	0.704800	0.035200
C1311	C131	0.660600	0.680200	0.112330
C1321	C132	0.686200	0.631200	0.154700
H791	H79	0.668100	0.637300	0.187500
C1331	C133	0.739100	0.571900	0.149050
H801	H80	0.757000	0.538900	0.177900
C1341	C134	0.490900	0.737700	0.088300
C1351	C135	0.468500	0.716800	0.034500
H811	H81	0.510500	0.710400	0.014500
C1361	C136	0.382500	0.704900	0.009200
H821	H82	0.367300	0.688400	0.972800
C1371	C137	0.319300	0.718000	0.038830
C1381	C138	0.342100	0.741700	0.091900
H831	H83	0.299700	0.752600	0.110900
C1391	C139	0.428700	0.750100	0.118710
H841	H84	0.444100	0.763600	0.155800
C1401	C140	0.225000	0.707900	0.011210
C1411	C141	0.995900	0.678300	0.121620
C1421	C142	0.993000	0.683200	0.181880
C1431	C143	0.964100	0.624300	0.207640
H851	H85	0.946700	0.581500	0.187800
C1441	C144	0.960700	0.628300	0.263370
H861	H86	0.941200	0.588600	0.280800
C1451	C145	0.986900	0.692500	0.292000
C1461	C146	0.014800	0.752800	0.266860
H871	H87	0.031100	0.795900	0.286700
C1471	C147	0.018200	0.748100	0.211060
H881	H88	0.037200	0.787900	0.193600
C1481	C148	0.086400	0.726300	0.395400
C1491	C149	0.148100	0.672300	0.415610
H891	H89	0.133400	0.622800	0.412700
C1501	C150	0.230900	0.693700	0.439840
H901	H90	0.272400	0.658700	0.454100
C1511	C151	0.251500	0.769100	0.442630
C1521	C152	0.190700	0.821500	0.421770
H911	H91	0.205600	0.871000	0.422900
C1531	C153	0.106200	0.799600	0.398730
H921	H92	0.064100	0.834500	0.385800
C1541	C154	0.342200	0.793600	0.469580
C1551	C155	0.077600	0.469200	0.100330
C1561	C156	0.171000	0.479800	0.128470
C1571	C157	0.206900	0.438000	0.174840
H931	H93	0.172400	0.406200	0.189600
C1581	C158	0.293500	0.443400	0.199280
H941	H94	0.317900	0.414300	0.229500
C1591	C159	0.342600	0.493000	0.177790
C1601	C160	0.306500	0.536600	0.132590
H951	H95	0.340200	0.570300	0.118900
C1611	C161	0.220200	0.529600	0.107920
H961	H96	0.195700	0.558600	0.077600
C1621	C162	0.471300	0.566600	0.256630
C1631	C163	0.460400	0.550800	0.309300
H971	H97	0.439700	0.505100	0.317100
C1641	C164	0.480700	0.604000	0.350000
H981	H98	0.475200	0.593300	0.385700
C1651	C165	0.509000	0.672500	0.338400
C1661	C166	0.516800	0.688000	0.285190
H991	H99	0.535300	0.734300	0.276900
C1671	C167	0.497000	0.634500	0.243900
H1001	H100	0.501400	0.645100	0.208000
C1681	C168	0.533100	0.729300	0.383000
