data_WITKIV_clean_PM
_symmetry_space_group_name_H-M	'P1'
_cell_length_a	34.001100
_cell_length_b	34.001100
_cell_length_c	54.959500
_cell_angle_alpha	71.981200
_cell_angle_beta	71.981200
_cell_angle_gamma	60.000000
_symmetry_Int_Tables_number 1

loop_
_symmetry_equiv_pos_as_xyz
'x,y,z'

loop_
_atom_site_label
_atom_site_type_symbol
_atom_site_fract_x
_atom_site_fract_y
_atom_site_fract_z
Zn11	Zn1	0.788710	0.896020	0.471800
Zn21	Zn2	0.383480	0.383480	0.849560
Zn31	Zn3	0.603980	0.711290	0.028200
Zn41	Zn4	0.017980	0.163930	0.506150
Zn51	Zn5	0.575820	0.077510	0.716800
Zn61	Zn6	0.883480	0.883480	0.349560
Zn71	Zn7	0.688060	0.982020	0.493850
Zn81	Zn8	0.924180	0.870130	0.783200
Zn91	Zn9	0.288710	0.343470	0.971800
Zn101	Zn10	0.211290	0.103980	0.528200
Zn111	Zn11	0.424180	0.922490	0.283200
Zn121	Zn12	0.811940	0.663930	0.006150
Zn131	Zn13	0.140330	0.140330	0.579010
Zn141	Zn14	0.422490	0.924180	0.783200
Zn151	Zn15	0.616520	0.616520	0.150440
Zn161	Zn16	0.711290	0.656530	0.028200
Zn171	Zn17	0.396020	0.288710	0.971800
Zn181	Zn18	0.629870	0.575820	0.716800
Zn191	Zn19	0.896020	0.843470	0.471800
Zn201	Zn20	0.870130	0.422490	0.783200
Zn211	Zn21	0.482020	0.188060	0.993850
Zn221	Zn22	0.859670	0.859670	0.420990
Zn231	Zn23	0.370130	0.424180	0.283200
Zn241	Zn24	0.663930	0.517980	0.006150
Zn251	Zn25	0.129870	0.577510	0.216800
Zn261	Zn26	0.656530	0.603980	0.028200
Zn271	Zn27	0.077510	0.629870	0.716800
Zn281	Zn28	0.343470	0.396020	0.971800
Zn291	Zn29	0.640330	0.640330	0.079010
Zn301	Zn30	0.311940	0.017980	0.506150
Zn311	Zn31	0.517980	0.811940	0.006150
Zn321	Zn32	0.188060	0.336070	0.993850
Zn331	Zn33	0.116520	0.116520	0.650440
Zn341	Zn34	0.103980	0.156530	0.528200
Zn351	Zn35	0.843470	0.788710	0.471800
Zn361	Zn36	0.336070	0.482020	0.993850
Zn371	Zn37	0.359670	0.359670	0.920990
Zn381	Zn38	0.163930	0.311940	0.506150
Zn391	Zn39	0.156530	0.211290	0.528200
Zn401	Zn40	0.982020	0.836070	0.493850
Zn411	Zn41	0.577510	0.075820	0.216800
Zn421	Zn42	0.075820	0.129870	0.216800
Zn431	Zn43	0.922490	0.370130	0.283200
Zn441	Zn44	0.836070	0.688060	0.493850
P11	P1	0.289800	0.239600	0.141900
P21	P2	0.855560	0.348460	0.624020
P31	P3	0.210200	0.171300	0.358100
P41	P4	0.847910	0.137610	0.422270
P51	P5	0.151540	0.644440	0.875980
P61	P6	0.152090	0.862390	0.577730
P71	P7	0.602910	0.415710	0.882970
P81	P8	0.901590	0.397090	0.117030
P91	P9	0.407790	0.152090	0.577730
P101	P10	0.102910	0.598410	0.382970
P111	P11	0.710200	0.760400	0.858100
P121	P12	0.789800	0.828700	0.641900
P131	P13	0.171300	0.260400	0.358100
P141	P14	0.092210	0.637610	0.922270
P151	P15	0.328700	0.289800	0.141900
P161	P16	0.239600	0.328700	0.141900
P171	P17	0.907790	0.362390	0.077730
P181	P18	0.828700	0.739600	0.641900
P191	P19	0.328040	0.151540	0.875980
P201	P20	0.362390	0.652090	0.077730
P211	P21	0.671300	0.710200	0.858100
P221	P22	0.897090	0.401590	0.617030
P231	P23	0.739600	0.789800	0.641900
P241	P24	0.760400	0.671300	0.858100
P251	P25	0.355560	0.671960	0.124020
P261	P26	0.415710	0.098410	0.882970
P271	P27	0.644440	0.328040	0.875980
P281	P28	0.137610	0.592210	0.422270
P291	P29	0.828040	0.144440	0.375980
P301	P30	0.171960	0.855560	0.624020
P311	P31	0.347910	0.092210	0.922270
P321	P32	0.671960	0.848460	0.124020
P331	P33	0.848460	0.355560	0.124020
P341	P34	0.592210	0.847910	0.422270
P351	P35	0.260400	0.210200	0.358100
P361	P36	0.862390	0.407790	0.577730
P371	P37	0.598410	0.915710	0.382970
P381	P38	0.098410	0.602910	0.882970
P391	P39	0.084290	0.897090	0.617030
P401	P40	0.652090	0.907790	0.077730
P411	P41	0.397090	0.584290	0.117030
P421	P42	0.348460	0.171960	0.624020
P431	P43	0.637610	0.347910	0.922270
P441	P44	0.915710	0.102910	0.382970
P451	P45	0.651540	0.828040	0.375980
P461	P46	0.584290	0.901590	0.117030
P471	P47	0.144440	0.651540	0.375980
P481	P48	0.401590	0.084290	0.617030
H11	H1	0.083200	0.369700	0.330500
H21	H2	0.170600	0.509800	0.476600
H31	H3	0.626600	0.942000	0.203100
H41	H4	0.157000	0.829400	0.523400
H51	H5	0.694900	0.410800	0.904000
H61	H6	0.360900	0.777600	0.095700
H71	H7	0.738500	0.843800	0.377600
H81	H8	0.265300	0.682400	0.114900
H91	H9	0.432900	0.144400	0.921100
H101	H10	0.218300	0.114300	0.186600
H111	H11	0.777600	0.765800	0.095700
H121	H12	0.268400	0.149100	0.415700
H131	H13	0.282900	0.483500	0.907900
H141	H14	0.416800	0.283400	0.169500
H151	H15	0.062200	0.272000	0.395000
H161	H16	0.783400	0.916800	0.669500
H171	H17	0.829400	0.490200	0.523400
H181	H18	0.355600	0.067100	0.578900
H191	H19	0.515400	0.670600	0.040500
H201	H20	0.080500	0.307900	0.080100
H211	H21	0.781700	0.885700	0.813400
H221	H22	0.760200	0.591400	0.792700
H231	H23	0.270800	0.062200	0.395000
H241	H24	0.944700	0.955400	0.347000
H251	H25	0.825700	0.983500	0.407900
H261	H26	0.434900	0.697700	0.053700
H271	H27	0.416900	0.976600	0.180000
H281	H28	0.192100	0.419500	0.419900
H291	H29	0.782300	0.557900	0.075000
H301	H30	0.885700	0.519200	0.813400
H311	H31	0.040100	0.738500	0.377600
H321	H32	0.057700	0.567300	0.473900
H331	H33	0.533000	0.018500	0.860200
H341	H34	0.018500	0.588300	0.860200
H351	H35	0.100300	0.828100	0.506300
H361	H36	0.836000	0.856000	0.541700
H371	H37	0.978200	0.606000	0.487700
H381	H38	0.490200	0.157000	0.523400
H391	H39	0.194900	0.490300	0.404000
H401	H40	0.716600	0.869700	0.830500
H411	H41	0.065100	0.686300	0.446300
H421	H42	0.674300	0.717100	0.092100
H431	H43	0.520400	0.454500	0.842800
H441	H44	0.473700	0.098600	0.784600
H451	H45	0.734200	0.722400	0.404300
H461	H46	0.983500	0.782900	0.407900
H471	H47	0.373400	0.058000	0.796900
H481	H48	0.062600	0.734700	0.885100
H491	H49	0.765800	0.360900	0.095700
H501	H50	0.283400	0.130300	0.169500
H511	H51	0.444700	0.252900	0.847000
H521	H52	0.437800	0.229200	0.105000
H531	H53	0.091400	0.260200	0.292700
H541	H54	0.144000	0.233700	0.458300
H551	H55	0.649100	0.768400	0.915700
H561	H56	0.298200	0.917100	0.566900
H571	H57	0.782200	0.701800	0.433100
H581	H58	0.328100	0.600300	0.006300
H591	H59	0.860900	0.265800	0.595700
H601	H60	0.234200	0.639100	0.904300
H611	H61	0.917100	0.217800	0.566900
H621	H62	0.817600	0.234700	0.385100
H631	H63	0.208000	0.252800	0.191400
H641	H64	0.084800	0.057900	0.575000
H651	H65	0.802300	0.065100	0.446300
H661	H66	0.644000	0.664000	0.958300
H671	H67	0.410800	0.990300	0.904000
H681	H68	0.490300	0.910800	0.404000
H691	H69	0.959900	0.261500	0.622400
H701	H70	0.019200	0.385700	0.313400
H711	H71	0.664500	0.872400	0.187800
H721	H72	0.937800	0.728000	0.605000
H731	H73	0.526300	0.901400	0.215400
H741	H74	0.149100	0.166800	0.415700
H751	H75	0.399700	0.934700	0.993700
H761	H76	0.872400	0.275300	0.187800
H771	H77	0.233700	0.164000	0.458300
H781	H78	0.828100	0.565300	0.506300
H791	H79	0.292000	0.152200	0.308600
H801	H80	0.350900	0.231600	0.084300
H811	H81	0.562600	0.817600	0.385100
H821	H82	0.343000	0.009800	0.976600
H831	H83	0.238500	0.540100	0.877600
H841	H84	0.829400	0.984600	0.459500
H851	H85	0.990300	0.694900	0.904000
H861	H86	0.411700	0.467000	0.139800
H871	H87	0.277600	0.860900	0.595700
H881	H88	0.261500	0.156200	0.622400
H891	H89	0.916800	0.630300	0.669500
H901	H90	0.562200	0.770800	0.895000
H911	H91	0.850900	0.833200	0.584300
H921	H92	0.644300	0.908600	0.707300
H931	H93	0.045500	0.979600	0.657200
H941	H94	0.643100	0.473700	0.784600
H951	H95	0.807900	0.580500	0.580100
H961	H96	0.843000	0.170600	0.476600
H971	H97	0.639100	0.222400	0.904300
H981	H98	0.454500	0.182300	0.842800
H991	H99	0.217800	0.298200	0.566900
H1001	H100	0.919500	0.692100	0.919900
H1011	H101	0.904600	0.344900	0.174900
H1021	H102	0.155100	0.595400	0.325100
H1031	H103	0.901100	0.057700	0.473900
H1041	H104	0.067100	0.998400	0.578900
H1051	H105	0.657000	0.990200	0.023400
H1061	H106	0.307900	0.531500	0.080100
H1071	H107	0.260200	0.355700	0.292700
H1081	H108	0.747200	0.652200	0.808600
H1091	H109	0.766300	0.836000	0.541700
H1101	H110	0.228300	0.626600	0.203100
H1111	H111	0.768400	0.666800	0.915700
H1121	H112	0.082900	0.782200	0.433100
H1131	H113	0.415200	0.217700	0.925000
H1141	H114	0.981500	0.411700	0.139800
H1151	H115	0.545500	0.817700	0.157200
H1161	H116	0.717700	0.915200	0.425000
H1171	H117	0.432700	0.098900	0.526100
H1181	H118	0.355700	0.091400	0.292700
H1191	H119	0.765300	0.437400	0.614900
H1201	H120	0.934700	0.671900	0.993700
H1211	H121	0.652500	0.006900	0.129600
H1221	H122	0.724700	0.335500	0.812200
H1231	H123	0.055300	0.044600	0.653000
H1241	H124	0.057900	0.282300	0.575000
H1251	H125	0.239800	0.408600	0.207300
H1261	H126	0.908600	0.739800	0.707300
H1271	H127	0.498400	0.567100	0.078900
H1281	H128	0.247100	0.055300	0.653000
H1291	H129	0.844900	0.404600	0.674900
H1301	H130	0.580500	0.031500	0.580100
H1311	H131	0.644400	0.932900	0.421100
H1321	H132	0.244600	0.282700	0.438500
H1331	H133	0.856900	0.401400	0.715400
H1341	H134	0.697700	0.813700	0.053700
H1351	H135	0.976600	0.426500	0.180000
H1361	H136	0.247200	0.292000	0.308600
H1371	H137	0.369700	0.216600	0.330500
H1381	H138	0.557700	0.401100	0.973900
H1391	H139	0.734700	0.317600	0.885100
H1401	H140	0.979600	0.317700	0.657200
H1411	H141	0.843800	0.040100	0.377600
H1421	H142	0.468500	0.919500	0.919900
H1431	H143	0.275300	0.664500	0.187800
H1441	H144	0.197700	0.934900	0.553700
H1451	H145	0.544600	0.555300	0.153000
H1461	H146	0.575600	0.904600	0.174900
H1471	H147	0.224700	0.627600	0.312200
H1481	H148	0.728000	0.729200	0.605000
H1491	H149	0.717800	0.417100	0.066900
H1501	H150	0.573500	0.583100	0.820000
H1511	H151	0.789000	0.347500	0.870400
H1521	H152	0.222400	0.234200	0.904300
H1531	H153	0.915200	0.942100	0.425000
H1541	H154	0.937400	0.265300	0.114900
H1551	H155	0.356900	0.526300	0.215400
H1561	H156	0.001600	0.644400	0.421100
H1571	H157	0.493100	0.847500	0.370400
H1581	H158	0.770800	0.772000	0.895000
H1591	H159	0.718300	0.980800	0.686600
H1601	H160	0.419500	0.968500	0.419900
H1611	H161	0.506900	0.152500	0.629600
H1621	H162	0.356000	0.336000	0.041700
H1631	H163	0.127600	0.724700	0.812200
H1641	H164	0.031500	0.807900	0.580100
H1651	H165	0.401400	0.026300	0.715400
H1661	H166	0.591400	0.855700	0.792700
H1671	H167	0.728300	0.442000	0.703100
H1681	H168	0.588300	0.533000	0.860200
H1691	H169	0.152200	0.247200	0.308600
H1701	H170	0.571900	0.894000	0.012300
H1711	H171	0.075600	0.844900	0.674900
H1721	H172	0.282300	0.084800	0.575000
H1731	H173	0.899700	0.171900	0.493700
H1741	H174	0.089200	0.805100	0.596000
H1751	H175	0.302300	0.186300	0.946300
H1761	H176	0.385700	0.281700	0.313400
H1771	H177	0.144400	0.501600	0.921100
H1781	H178	0.630300	0.783400	0.669500
H1791	H179	0.083100	0.073500	0.320000
H1801	H180	0.509800	0.843000	0.476600
H1811	H181	0.015400	0.273500	0.540500
H1821	H182	0.401100	0.067300	0.973900
H1831	H183	0.557900	0.584800	0.075000
H1841	H184	0.772000	0.562200	0.895000
H1851	H185	0.752900	0.944700	0.347000
H1861	H186	0.980800	0.614300	0.686600
H1871	H187	0.317700	0.045500	0.657200
H1881	H188	0.044600	0.247100	0.653000
H1891	H189	0.911700	0.481500	0.639800
H1901	H190	0.761500	0.459900	0.122400
H1911	H191	0.139100	0.734200	0.404300
H1921	H192	0.394000	0.071900	0.512300
H1931	H193	0.686300	0.802300	0.446300
H1941	H194	0.217700	0.442100	0.925000
H1951	H195	0.484600	0.329400	0.959500
H1961	H196	0.523400	0.083100	0.320000
H1971	H197	0.655100	0.424400	0.825100
H1981	H198	0.664000	0.733700	0.958300
H1991	H199	0.067300	0.557700	0.973900
H2001	H200	0.773500	0.515400	0.040500
H2011	H201	0.998400	0.355600	0.578900
H2021	H202	0.152500	0.711000	0.629600
H2031	H203	0.652200	0.792000	0.808600
H2041	H204	0.614300	0.718300	0.686600
H2051	H205	0.114300	0.480800	0.186600
H2061	H206	0.521800	0.571900	0.012300
H2071	H207	0.501600	0.432900	0.921100
H2081	H208	0.467000	0.981500	0.139800
H2091	H209	0.201800	0.282200	0.933100
H2101	H210	0.404600	0.075600	0.674900
H2111	H211	0.272000	0.270800	0.395000
H2121	H212	0.518500	0.033000	0.360200
H2131	H213	0.792000	0.747200	0.808600
H2141	H214	0.993100	0.789000	0.870400
H2151	H215	0.171900	0.434700	0.493700
H2161	H216	0.156200	0.959900	0.622400
H2171	H217	0.739800	0.644300	0.707300
H2181	H218	0.565100	0.302300	0.946300
H2191	H219	0.752800	0.708000	0.691400
H2201	H220	0.692100	0.468500	0.919900
H2211	H221	0.973700	0.143100	0.284600
H2221	H222	0.771700	0.373400	0.796900
H2231	H223	0.670600	0.343000	0.976600
H2241	H224	0.873400	0.271700	0.296900
H2251	H225	0.744600	0.534200	0.938500
H2261	H226	0.006900	0.211000	0.129600
H2271	H227	0.126600	0.728300	0.703100
H2281	H228	0.282200	0.582900	0.933100
H2291	H229	0.034200	0.244600	0.438500
H2301	H230	0.478200	0.428100	0.987700
H2311	H231	0.926500	0.476600	0.680000
H2321	H232	0.567300	0.901100	0.473900
H2331	H233	0.143100	0.598600	0.284600
H2341	H234	0.088300	0.518500	0.360200
H2351	H235	0.344900	0.575600	0.174900
H2361	H236	0.009800	0.670600	0.976600
H2371	H237	0.252800	0.347800	0.191400
H2381	H238	0.682400	0.937400	0.114900
H2391	H239	0.955400	0.752900	0.347000
H2401	H240	0.305100	0.589200	0.096000
H2411	H241	0.479600	0.545500	0.157200
H2421	H242	0.166800	0.268400	0.415700
H2431	H243	0.347500	0.993100	0.870400
H2441	H244	0.782900	0.825700	0.407900
H2451	H245	0.417100	0.798200	0.066900
H2461	H246	0.098900	0.942300	0.526100
H2471	H247	0.234700	0.562600	0.385100
H2481	H248	0.701800	0.082900	0.433100
H2491	H249	0.426500	0.416900	0.180000
H2501	H250	0.932900	0.001600	0.421100
H2511	H251	0.016500	0.217100	0.592100
H2521	H252	0.020400	0.682300	0.342800
H2531	H253	0.329400	0.226500	0.959500
H2541	H254	0.942300	0.432700	0.526100
H2551	H255	0.058000	0.771700	0.796900
H2561	H256	0.534200	0.782700	0.938500
H2571	H257	0.317600	0.062600	0.885100
H2581	H258	0.343800	0.238500	0.877600
H2591	H259	0.729200	0.937800	0.605000
H2601	H260	0.910800	0.194900	0.404000
H2611	H261	0.065300	0.328100	0.006300
H2621	H262	0.442100	0.415200	0.925000
H2631	H263	0.954500	0.020400	0.342800
H2641	H264	0.519200	0.781700	0.813400
H2651	H265	0.144300	0.239800	0.207300
H2661	H266	0.833200	0.731600	0.584300
H2671	H267	0.164000	0.144000	0.458300
H2681	H268	0.627600	0.835500	0.312200
H2691	H269	0.584800	0.782300	0.075000
H2701	H270	0.282700	0.034200	0.438500
H2711	H271	0.717100	0.516500	0.092100
H2721	H272	0.671900	0.399700	0.993700
H2731	H273	0.733700	0.644000	0.958300
H2741	H274	0.455400	0.444700	0.847000
H2751	H275	0.217100	0.174300	0.592100
H2761	H276	0.033000	0.088300	0.360200
H2771	H277	0.170600	0.015400	0.540500
H2781	H278	0.924400	0.155100	0.325100
H2791	H279	0.942000	0.228300	0.203100
H2801	H280	0.336000	0.266300	0.041700
H2811	H281	0.894000	0.521800	0.012300
H2821	H282	0.483500	0.325700	0.907900
H2831	H283	0.428100	0.106000	0.987700
H2841	H284	0.182300	0.520400	0.842800
H2851	H285	0.009700	0.305100	0.096000
H2861	H286	0.722400	0.139100	0.404300
H2871	H287	0.408600	0.144300	0.207300
H2881	H288	0.182400	0.765300	0.614900
H2891	H289	0.252900	0.455400	0.847000
H2901	H290	0.226500	0.484600	0.959500
H2911	H291	0.755400	0.717300	0.561500
H2921	H292	0.967000	0.911700	0.639800
H2931	H293	0.656200	0.761500	0.122400
H2941	H294	0.289000	0.493100	0.370400
H2951	H295	0.775300	0.372400	0.687800
H2961	H296	0.711000	0.506900	0.629600
H2971	H297	0.174300	0.016500	0.592100
H2981	H298	0.372400	0.164500	0.687800
H2991	H299	0.437400	0.182400	0.614900
H3001	H300	0.990200	0.329400	0.023400
H3011	H301	0.325700	0.282900	0.907900
H3021	H302	0.856000	0.766300	0.541700
H3031	H303	0.229200	0.228000	0.105000
H3041	H304	0.555300	0.747100	0.153000
H3051	H305	0.558000	0.873400	0.296900
H3061	H306	0.424400	0.095400	0.825100
H3071	H307	0.164500	0.775300	0.687800
H3081	H308	0.313700	0.197700	0.553700
H3091	H309	0.798200	0.717800	0.066900
H3101	H310	0.869700	0.583200	0.830500
H3111	H311	0.442000	0.126600	0.703100
H3121	H312	0.106000	0.478200	0.987700
H3131	H313	0.782700	0.744600	0.938500
H3141	H314	0.817700	0.479600	0.157200
H3151	H315	0.465800	0.217300	0.061500
H3161	H316	0.984600	0.726500	0.459500
H3171	H317	0.813700	0.434900	0.053700
H3181	H318	0.567100	0.855600	0.078900
H3191	H319	0.600300	0.065300	0.006300
H3201	H320	0.266300	0.356000	0.041700
H3211	H321	0.731600	0.850900	0.584300
H3221	H322	0.747100	0.544600	0.153000
H3231	H323	0.442300	0.598900	0.026100
H3241	H324	0.582900	0.201800	0.933100
H3251	H325	0.516500	0.674300	0.092100
H3261	H326	0.583100	0.023400	0.820000
H3271	H327	0.098600	0.643100	0.784600
H3281	H328	0.021800	0.394000	0.512300
H3291	H329	0.901400	0.356900	0.215400
H3301	H330	0.916900	0.926500	0.680000
H3311	H331	0.216600	0.083200	0.330500
H3321	H332	0.708000	0.847800	0.691400
H3331	H333	0.589200	0.009700	0.096000
H3341	H334	0.071900	0.021800	0.512300
H3351	H335	0.855700	0.760200	0.792700
H3361	H336	0.228000	0.437800	0.105000
H3371	H337	0.459900	0.656200	0.122400
H3381	H338	0.682300	0.954500	0.342800
H3391	H339	0.932700	0.442300	0.026100
H3401	H340	0.595400	0.924400	0.325100
H3411	H341	0.255400	0.465800	0.061500
H3421	H342	0.847800	0.752800	0.691400
H3431	H343	0.847500	0.289000	0.370400
H3441	H344	0.855600	0.498400	0.078900
H3451	H345	0.934900	0.313700	0.553700
H3461	H346	0.928100	0.978200	0.487700
H3471	H347	0.968500	0.192100	0.419900
H3481	H348	0.598900	0.932700	0.026100
H3491	H349	0.835500	0.224700	0.312200
H3501	H350	0.481500	0.967000	0.639800
H3511	H351	0.509700	0.089200	0.596000
H3521	H352	0.023400	0.573500	0.820000
H3531	H353	0.026300	0.856900	0.715400
H3541	H354	0.965800	0.755400	0.561500
H3551	H355	0.231600	0.333200	0.084300
H3561	H356	0.717300	0.965800	0.561500
H3571	H357	0.531500	0.080500	0.080100
H3581	H358	0.805100	0.509700	0.596000
H3591	H359	0.942100	0.717700	0.425000
H3601	H360	0.130300	0.416800	0.169500
H3611	H361	0.095400	0.655100	0.825100
H3621	H362	0.273500	0.170600	0.540500
H3631	H363	0.217300	0.255400	0.061500
H3641	H364	0.726500	0.829400	0.459500
H3651	H365	0.271700	0.558000	0.296900
H3661	H366	0.281700	0.019200	0.313400
H3671	H367	0.329400	0.657000	0.023400
H3681	H368	0.606000	0.928100	0.487700
H3691	H369	0.265800	0.277600	0.595700
H3701	H370	0.476600	0.916900	0.680000
H3711	H371	0.073500	0.523400	0.320000
H3721	H372	0.480800	0.218300	0.186600
H3731	H373	0.335500	0.127600	0.812200
H3741	H374	0.598600	0.973700	0.284600
H3751	H375	0.583200	0.716600	0.830500
H3761	H376	0.347800	0.208000	0.191400
H3771	H377	0.434700	0.899700	0.493700
H3781	H378	0.565300	0.100300	0.506300
H3791	H379	0.540100	0.343800	0.877600
H3801	H380	0.333200	0.350900	0.084300
H3811	H381	0.186300	0.565100	0.946300
H3821	H382	0.211000	0.652500	0.129600
H3831	H383	0.666800	0.649100	0.915700
H3841	H384	0.670600	0.773500	0.040500
C11	C1	0.831080	0.524580	0.026160
C21	C2	0.713860	0.481060	0.667220
C31	C3	0.750340	0.806240	0.821380
C41	C4	0.957310	0.400610	0.528770
C51	C5	0.756980	0.747980	0.933760
C61	C6	0.348190	0.244790	0.323030
C71	C7	0.457840	0.423340	0.908680
C81	C8	0.225290	0.386990	0.097830
C91	C9	0.074570	0.053970	0.614090
C101	C10	0.377740	0.096840	0.520880
C111	C11	0.859010	0.737010	0.579770
C121	C12	0.139500	0.580300	0.323900
C131	C13	0.439870	0.923070	0.957490
C141	C14	0.182880	0.504780	0.440060
C151	C15	0.466510	0.440010	0.861670
C161	C16	0.408480	0.448580	0.179160
C171	C17	0.122260	0.495460	0.979120
C181	C18	0.892120	0.255820	0.595040
C191	C19	0.505180	0.746980	0.056160
C201	C20	0.909550	0.189450	0.421850
C211	C21	0.175820	0.451720	0.197640
C221	C22	0.396370	0.435870	0.225690
C231	C23	0.446810	0.902210	0.475970
C241	C24	0.448580	0.963780	0.179160
C251	C25	0.435870	0.942070	0.225690
C261	C26	0.048510	0.746410	0.389270
C271	C27	0.172350	0.952550	0.545450
C281	C28	0.639020	0.941120	0.185640
C291	C29	0.003890	0.688990	0.359330
C301	C30	0.289860	0.076660	0.591320
C311	C31	0.975420	0.668920	0.473840
C321	C32	0.693760	0.749660	0.678620
C331	C33	0.684960	0.742560	0.945520
C341	C34	0.715910	0.954410	0.687170
C351	C35	0.184190	0.951490	0.610730
C361	C36	0.213860	0.637860	0.167220
C371	C37	0.452550	0.672350	0.045450
C381	C38	0.916010	0.651810	0.676970
C391	C39	0.825180	0.824180	0.802360
C401	C40	0.191680	0.246980	0.556160
C411	C41	0.215780	0.237580	0.576260
C421	C42	0.670350	0.827650	0.454550
C431	C43	0.656120	0.805620	0.037740
C441	C44	0.881820	0.975420	0.473840
C451	C45	0.272980	0.514780	0.907060
C461	C46	0.967200	0.888600	0.701300
C471	C47	0.151810	0.416010	0.176970
C481	C48	0.671810	0.938810	0.132570
C491	C49	0.088730	0.235530	0.451610
C501	C50	0.903160	0.995460	0.479120
C511	C51	0.288490	0.411690	0.888430
C521	C52	0.113010	0.274710	0.402170
C531	C53	0.425430	0.242630	0.885910
C541	C54	0.119900	0.323900	0.031800
C551	C55	0.543700	0.919700	0.176100
C561	C56	0.242560	0.184960	0.445520
C571	C57	0.403160	0.122260	0.979120
C581	C58	0.923340	0.957840	0.408680
C591	C59	0.523100	0.118000	0.677300
C601	C60	0.548510	0.315810	0.889270
C611	C61	0.274530	0.290430	0.310010
C621	C62	0.411690	0.411390	0.888430
C631	C63	0.574570	0.757370	0.114090
C641	C64	0.618180	0.831080	0.026160
C651	C65	0.946810	0.675010	0.975970
C661	C66	0.775870	0.911270	0.548390
C671	C67	0.689450	0.409550	0.921850
C681	C68	0.553190	0.097790	0.524030
C691	C69	0.877960	0.693760	0.678620
C701	C70	0.666910	0.933610	0.406370
C711	C71	0.160030	0.763830	0.676010
C721	C72	0.925430	0.946030	0.385910
C731	C73	0.366960	0.010260	0.293420
C741	C74	0.755210	0.916010	0.676970
C751	C75	0.451720	0.174820	0.197640
C761	C76	0.099390	0.542690	0.971230
C771	C77	0.682880	0.372280	0.940060
C781	C78	0.325180	0.048280	0.302360
C791	C79	0.504540	0.596840	0.020880
C801	C80	0.156120	0.000520	0.537740
C811	C81	0.495220	0.127720	0.559940
C821	C82	0.724240	0.326640	0.848680
C831	C83	0.668920	0.881820	0.473840
C841	C84	0.447790	0.188990	0.859330
C851	C85	0.257440	0.373040	0.054480
C861	C86	0.956300	0.139500	0.323900
C871	C87	0.284090	0.045590	0.312830
C881	C88	0.267100	0.286200	0.022500
C891	C89	0.671890	0.910790	0.699530
C901	C90	0.317120	0.627720	0.059940
C911	C91	0.217790	0.410790	0.199530
C921	C92	0.575800	0.732900	0.977500
C931	C93	0.561280	0.756980	0.933760
C941	C94	0.400130	0.160030	0.676010
C951	C95	0.625030	0.790430	0.810010
C961	C96	0.376140	0.150640	0.540680
C971	C97	0.349360	0.123860	0.959320
C981	C98	0.828110	0.782210	0.800470
C991	C99	0.359010	0.324210	0.079770
C1001	C100	0.999480	0.694380	0.462260
C1011	C101	0.918410	0.366910	0.200370
C1021	C102	0.324490	0.632190	0.034530
C1031	C103	0.400790	0.478590	0.155130
C1041	C104	0.724800	0.480200	0.641300
C1051	C105	0.556360	0.062560	0.068820
C1061	C106	0.077390	0.265990	0.408230
C1071	C107	0.734220	0.441120	0.685640
C1081	C108	0.788490	0.911390	0.388430
C1091	C109	0.576660	0.789860	0.091320
C1101	C110	0.976900	0.818400	0.822700
C1111	C111	0.048280	0.324180	0.302360
C1121	C112	0.123860	0.567460	0.959320
C1131	C113	0.409550	0.979150	0.921850
C1141	C114	0.275200	0.519800	0.358700
C1151	C115	0.014310	0.866910	0.700370
C1161	C116	0.237580	0.970380	0.576260
C1171	C117	0.510260	0.866960	0.793420
C1181	C118	0.768190	0.533490	0.138330
C1191	C119	0.021410	0.099210	0.344870
C1201	C120	0.749660	0.877960	0.678620
C1211	C121	0.323900	0.524400	0.031800
C1221	C122	0.877740	0.504540	0.020880
C1231	C123	0.188990	0.503890	0.859330
C1241	C124	0.388600	0.467200	0.201300
C1251	C125	0.470380	0.737580	0.076260
C1261	C126	0.725470	0.709570	0.689990
C1271	C127	0.088610	0.088310	0.611570
C1281	C128	0.411390	0.288490	0.888430
C1291	C129	0.113310	0.957310	0.528770
C1301	C130	0.227020	0.194820	0.592940
C1311	C131	0.118000	0.681600	0.677300
C1321	C132	0.732900	0.713800	0.977500
C1331	C133	0.000520	0.305620	0.537740
C1341	C134	0.551420	0.036220	0.820840
C1351	C135	0.083990	0.348190	0.323030
C1361	C136	0.599210	0.521410	0.844870
C1371	C137	0.622700	0.475100	0.845500
C1381	C138	0.142510	0.454410	0.187170
C1391	C139	0.996110	0.311010	0.640670
C1401	C140	0.416010	0.255210	0.176970
C1411	C141	0.747980	0.561280	0.933760
C1421	C142	0.052210	0.996110	0.640670
C1431	C143	0.880100	0.676100	0.968200
C1441	C144	0.899560	0.275760	0.151320
C1451	C145	0.033490	0.268190	0.638330
C1461	C146	0.516460	0.445460	0.881320
C1471	C147	0.588610	0.711510	0.111570
C1481	C148	0.529620	0.262420	0.923740
C1491	C149	0.425460	0.769160	0.077520
C1501	C150	0.153700	0.724800	0.641300
C1511	C151	0.275870	0.264470	0.048390
C1521	C152	0.237010	0.359010	0.079770
C1531	C153	0.463780	0.948580	0.679160
C1541	C154	0.366910	0.514310	0.200370
C1551	C155	0.567460	0.349360	0.959320
C1561	C156	0.224130	0.088730	0.451610
C1571	C157	0.824210	0.859010	0.579770
C1581	C158	0.081590	0.633090	0.799630
C1591	C159	0.315040	0.257440	0.054480
C1601	C160	0.441120	0.139020	0.685640
C1611	C161	0.306240	0.250340	0.321380
C1621	C162	0.156760	0.516460	0.881320
C1631	C163	0.111400	0.557100	0.298700
C1641	C164	0.374970	0.209570	0.189990
C1651	C165	0.424200	0.267100	0.022500
C1661	C166	0.242630	0.446030	0.885910
C1671	C167	0.475420	0.381820	0.973840
C1681	C168	0.554540	0.843240	0.118680
C1691	C169	0.478590	0.965490	0.155130
C1701	C170	0.980200	0.224800	0.141300
C1711	C171	0.234010	0.422610	0.091770
C1721	C172	0.746410	0.815810	0.389270
C1731	C173	0.552210	0.811010	0.140670
C1741	C174	0.042690	0.599390	0.471230
C1751	C175	0.253020	0.308320	0.943840
C1761	C176	0.860980	0.265780	0.314360
C1771	C177	0.746980	0.691680	0.056160
C1781	C178	0.727860	0.425460	0.077520
C1791	C179	0.562560	0.056360	0.568820
C1801	C180	0.485690	0.081590	0.799630
C1811	C181	0.623860	0.849360	0.459320
C1821	C182	0.611400	0.532800	0.798700
C1831	C183	0.438810	0.171810	0.632570
C1841	C184	0.373040	0.315040	0.054480
C1851	C185	0.097790	0.824990	0.524030
C1861	C186	0.476900	0.882000	0.322700
C1871	C187	0.911390	0.911690	0.388430
C1881	C188	0.236170	0.599870	0.323990
C1891	C189	0.981060	0.213860	0.167220
C1901	C190	0.175510	0.491210	0.465470
C1911	C191	0.748390	0.765990	0.908230
C1921	C192	0.725290	0.789890	0.597830
C1931	C193	0.194450	0.425950	0.979750
C1941	C194	0.437440	0.943640	0.431180
C1951	C195	0.753020	0.994820	0.443840
C1961	C196	0.843240	0.483540	0.118680
C1971	C197	0.599870	0.839970	0.323990
C1981	C198	0.074540	0.772140	0.422480
C1991	C199	0.076930	0.320430	0.042510
C2001	C200	0.042160	0.289860	0.591320
C2011	C201	0.751610	0.922610	0.591770
C2021	C202	0.902210	0.175010	0.475970
C2031	C203	0.327650	0.170350	0.954550
C2041	C204	0.710110	0.774710	0.902170
C2051	C205	0.399850	0.194450	0.979750
C2061	C206	0.618000	0.023100	0.177300
C2071	C207	0.694380	0.843880	0.462260
C2081	C208	0.211510	0.088610	0.611570
C2091	C209	0.557100	0.032800	0.298700
C2101	C210	0.985690	0.133090	0.299630
C2111	C211	0.255210	0.151810	0.176970
C2121	C212	0.815810	0.048510	0.389270
C2131	C213	0.500520	0.656120	0.037740
C2141	C214	0.872280	0.182880	0.440060
C2151	C215	0.274710	0.210110	0.402170
C2161	C216	0.675820	0.674820	0.697640
C2171	C217	0.324210	0.237010	0.079770
C2181	C218	0.268190	0.059990	0.638330
C2191	C219	0.983540	0.343240	0.618680
C2201	C220	0.954410	0.642510	0.687170
C2211	C221	0.310550	0.590450	0.078150
C2221	C222	0.442070	0.935870	0.725690
C2231	C223	0.282210	0.328110	0.300470
C2241	C224	0.275760	0.673360	0.151320
C2251	C225	0.333090	0.066390	0.593630
C2261	C226	0.423340	0.210140	0.908680
C2271	C227	0.547450	0.327650	0.954550
C2281	C228	0.675010	0.402210	0.975970
C2291	C229	0.024580	0.331080	0.526160
C2301	C230	0.251610	0.234010	0.091770
C2311	C231	0.054540	0.983540	0.618680
C2321	C232	0.329360	0.366960	0.293420
C2331	C233	0.911690	0.788490	0.388430
C2341	C234	0.419700	0.043700	0.676100
C2351	C235	0.184960	0.126960	0.445520
C2361	C236	0.053190	0.324990	0.024030
C2371	C237	0.848190	0.583990	0.823030
C2381	C238	0.824990	0.553190	0.524030
C2391	C239	0.828190	0.243190	0.367430
C2401	C240	0.561190	0.828190	0.367430
C2411	C241	0.377300	0.524900	0.154500
C2421	C242	0.924200	0.786200	0.522500
C2431	C243	0.382000	0.976900	0.822700
C2441	C244	0.672350	0.829650	0.045450
C2451	C245	0.443300	0.024900	0.654500
C2461	C246	0.250340	0.122040	0.321380
C2471	C247	0.360980	0.058880	0.814360
C2481	C248	0.386690	0.099390	0.971230
C2491	C249	0.786140	0.362140	0.832780
C2501	C250	0.815040	0.873040	0.554480
C2511	C251	0.367810	0.991210	0.965470
C2521	C252	0.737010	0.824210	0.579770
C2531	C253	0.224800	0.653700	0.141300
C2541	C254	0.784220	0.762420	0.423740
C2551	C255	0.018940	0.786140	0.832780
C2561	C256	0.979150	0.689450	0.921850
C2571	C257	0.255820	0.257020	0.595040
C2581	C258	0.833090	0.506890	0.093630
C2591	C259	0.769160	0.727860	0.077520
C2601	C260	0.362140	0.018940	0.832780
C2611	C261	0.774530	0.625030	0.810010
C2621	C262	0.742560	0.626960	0.945520
C2631	C263	0.556700	0.975100	0.345500
C2641	C264	0.597790	0.053190	0.024030
C2651	C265	0.857490	0.545590	0.812830
C2661	C266	0.774710	0.613010	0.902170
C2671	C267	0.489740	0.133040	0.206580
C2681	C268	0.249660	0.193760	0.178620
C2691	C269	0.232900	0.075800	0.477500
C2701	C270	0.886690	0.042690	0.471230
C2711	C271	0.034510	0.599210	0.844870
C2721	C272	0.043700	0.860500	0.676100
C2731	C273	0.812260	0.562560	0.568820
C2741	C274	0.548280	0.825180	0.802360
C2751	C275	0.443640	0.937440	0.931180
C2761	C276	0.789860	0.542160	0.091320
C2771	C277	0.305550	0.100150	0.520250
C2781	C278	0.446030	0.425430	0.885910
C2791	C279	0.032800	0.111400	0.298700
C2801	C280	0.133040	0.170640	0.206580
C2811	C281	0.485220	0.694820	0.092940
C2821	C282	0.399560	0.173360	0.651320
C2831	C283	0.193760	0.377960	0.178620
C2841	C284	0.289890	0.225290	0.097830
C2851	C285	0.024400	0.823900	0.531800
C2861	C286	0.820430	0.576930	0.542510
C2871	C287	0.305180	0.272980	0.907060
C2881	C288	0.244180	0.607880	0.904960
C2891	C289	0.257020	0.892120	0.595040
C2901	C290	0.107880	0.744180	0.404960
C2911	C291	0.765780	0.360980	0.814360
C2921	C292	0.372280	0.004780	0.940060
C2931	C293	0.633040	0.989740	0.706580
C2941	C294	0.688990	0.947790	0.359330
C2951	C295	0.613310	0.900610	0.028770
C2961	C296	0.243020	0.252020	0.066240
C2971	C297	0.713800	0.575800	0.977500
C2981	C298	0.253590	0.184190	0.610730
C2991	C299	0.860500	0.419700	0.676100
C3001	C300	0.600150	0.805550	0.020250
C3011	C301	0.029620	0.784220	0.423740
C3021	C302	0.096840	0.004540	0.520880
C3031	C303	0.755820	0.392120	0.095040
C3041	C304	0.247980	0.256980	0.433760
C3051	C305	0.024900	0.877300	0.654500
C3061	C306	0.004780	0.682880	0.940060
C3071	C307	0.896370	0.442070	0.725690
C3081	C308	0.481060	0.137860	0.667220
C3091	C309	0.674820	0.951720	0.697640
C3101	C310	0.246980	0.005180	0.556160
C3111	C311	0.493110	0.433610	0.906370
C3121	C312	0.710140	0.923340	0.408680
C3131	C313	0.590450	0.020850	0.078150
C3141	C314	0.189450	0.479150	0.421850
C3151	C315	0.392120	0.757020	0.095040
C3161	C316	0.006890	0.333090	0.593630
C3171	C317	0.234220	0.639020	0.185640
C3181	C318	0.014780	0.772980	0.407060
C3191	C319	0.877300	0.443300	0.654500
C3201	C320	0.256980	0.061280	0.433760
C3211	C321	0.179570	0.423070	0.457490
C3221	C322	0.343880	0.194380	0.962260
C3231	C323	0.402210	0.946810	0.975970
C3241	C324	0.100440	0.724240	0.848680
C3251	C325	0.637860	0.981060	0.167220
C3261	C326	0.757440	0.815040	0.554480
C3271	C327	0.757370	0.553970	0.114090
C3281	C328	0.524900	0.943300	0.154500
C3291	C329	0.122040	0.306240	0.321380
C3301	C330	0.381820	0.168920	0.973840
C3311	C331	0.843880	0.999480	0.462260
C3321	C332	0.175790	0.140990	0.420230
C3331	C333	0.532800	0.057100	0.798700
C3341	C334	0.948580	0.908480	0.679160
C3351	C335	0.329650	0.172350	0.545450
C3361	C336	0.933610	0.993110	0.406370
C3371	C337	0.676100	0.475600	0.968200
C3381	C338	0.062560	0.312260	0.068820
C3391	C339	0.495460	0.403160	0.979120
C3401	C340	0.004540	0.377740	0.520880
C3411	C341	0.089210	0.282210	0.300470
C3421	C342	0.675510	0.367810	0.965470
C3431	C343	0.518940	0.862140	0.332780
C3441	C344	0.433610	0.166910	0.906370
C3451	C345	0.545590	0.784090	0.812830
C3461	C346	0.312260	0.556360	0.068820
C3471	C347	0.743020	0.938720	0.566240
C3481	C348	0.753590	0.451490	0.110730
C3491	C349	0.818400	0.382000	0.822700
C3501	C350	0.789890	0.886990	0.597830
C3511	C351	0.775200	0.346300	0.858700
C3521	C352	0.262990	0.175790	0.420230
C3531	C353	0.989740	0.670640	0.706580
C3541	C354	0.076660	0.042160	0.591320
C3551	C355	0.589210	0.828110	0.800470
C3561	C356	0.756810	0.438810	0.632570
C3571	C357	0.922610	0.734010	0.591770
C3581	C358	0.242980	0.244180	0.904960
C3591	C359	0.866910	0.418410	0.700370
C3601	C360	0.715780	0.470380	0.076260
C3611	C361	0.171890	0.217790	0.199530
C3621	C362	0.231520	0.594620	0.888640
C3631	C363	0.005180	0.191680	0.556160
C3641	C364	0.125030	0.274530	0.310010
C3651	C365	0.975600	0.176100	0.468200
C3661	C366	0.252020	0.438720	0.066240
C3671	C367	0.817120	0.495220	0.559940
C3681	C368	0.991210	0.675510	0.965470
C3691	C369	0.174820	0.175820	0.197640
C3701	C370	0.284220	0.529620	0.923740
C3711	C371	0.475100	0.056700	0.845500
C3721	C372	0.343240	0.054540	0.618680
C3731	C373	0.622260	0.903160	0.479120
C3741	C374	0.346300	0.019800	0.858700
C3751	C375	0.826640	0.224240	0.348680
C3761	C376	0.010260	0.329360	0.293420
C3771	C377	0.724130	0.735530	0.951610
C3781	C378	0.594620	0.285220	0.888640
C3791	C379	0.694450	0.899850	0.479750
C3801	C380	0.140990	0.262990	0.420230
C3811	C381	0.919700	0.360500	0.176100
C3821	C382	0.603630	0.564130	0.774310
C3831	C383	0.066390	0.006890	0.593630
C3841	C384	0.215910	0.142510	0.187170
C3851	C385	0.805180	0.014780	0.407060
C3861	C386	0.235530	0.224130	0.451610
C3871	C387	0.286200	0.424200	0.022500
C3881	C388	0.418410	0.014310	0.700370
C3891	C389	0.542160	0.576660	0.091320
C3901	C390	0.264470	0.411270	0.048390
C3911	C391	0.862140	0.286140	0.332780
C3921	C392	0.519800	0.846300	0.358700
C3931	C393	0.091520	0.536220	0.320840
C3941	C394	0.827650	0.047450	0.454550
C3951	C395	0.357490	0.284090	0.312830
C3961	C396	0.257370	0.074570	0.614090
C3971	C397	0.583990	0.744790	0.823030
C3981	C398	0.457310	0.613310	0.028770
C3991	C399	0.056700	0.622700	0.845500
C4001	C400	0.810550	0.520850	0.578150
C4011	C401	0.687740	0.443640	0.931180
C4021	C402	0.496110	0.552210	0.140670
C4031	C403	0.099210	0.534510	0.344870
C4041	C404	0.058880	0.765780	0.814360
C4051	C405	0.905380	0.268480	0.611360
C4061	C406	0.080300	0.639500	0.823900
C4071	C407	0.576930	0.060130	0.542510
C4081	C408	0.768480	0.405380	0.111360
C4091	C409	0.581590	0.985690	0.299630
C4101	C410	0.514780	0.305180	0.907060
C4111	C411	0.137860	0.713860	0.667220
C4121	C412	0.910790	0.717790	0.699530
C4131	C413	0.811010	0.496110	0.140670
C4141	C414	0.456300	0.080300	0.823900
C4151	C415	0.246410	0.548510	0.889270
C4161	C416	0.574540	0.230840	0.922480
C4171	C417	0.633090	0.485690	0.799630
C4181	C418	0.016460	0.656760	0.381320
C4191	C419	0.400610	0.113310	0.528770
C4201	C420	0.467200	0.942900	0.201300
C4211	C421	0.170640	0.489740	0.206580
C4221	C422	0.380100	0.975600	0.468200
C4231	C423	0.150640	0.932540	0.540680
C4241	C424	0.067460	0.623860	0.459320
C4251	C425	0.651810	0.755210	0.676970
C4261	C426	0.566390	0.833090	0.093630
C4271	C427	0.786200	0.767100	0.522500
C4281	C428	0.727020	0.485220	0.092940
C4291	C429	0.248390	0.077390	0.408230
C4301	C430	0.056360	0.812260	0.568820
C4311	C431	0.127720	0.817120	0.559940
C4321	C432	0.558880	0.860980	0.314360
C4331	C433	0.790430	0.774530	0.810010
C4341	C434	0.957840	0.710140	0.408680
C4351	C435	0.742980	0.107880	0.404960
C4361	C436	0.876140	0.432540	0.040680
C4371	C437	0.326640	0.100440	0.848680
C4381	C438	0.534510	0.021410	0.344870
C4391	C439	0.681600	0.523100	0.677300
C4401	C440	0.122700	0.556700	0.345500
C4411	C441	0.942070	0.396370	0.225690
C4421	C442	0.020850	0.310550	0.078150
C4431	C443	0.627720	0.995220	0.059940
C4441	C444	0.090450	0.810550	0.578150
C4451	C445	0.994820	0.808320	0.443840
C4461	C446	0.940010	0.966510	0.361670
C4471	C447	0.734010	0.751610	0.591770
C4481	C448	0.772980	0.805180	0.407060
C4491	C449	0.839970	0.236170	0.323990
C4501	C450	0.100150	0.074050	0.520250
C4511	C451	0.214780	0.905380	0.611360
C4521	C452	0.613010	0.710110	0.902170
C4531	C453	0.506890	0.566390	0.093630
C4541	C454	0.118180	0.024580	0.526160
C4551	C455	0.772140	0.730840	0.422480
C4561	C456	0.650640	0.876140	0.040680
C4571	C457	0.763830	0.400130	0.676010
C4581	C458	0.262420	0.284220	0.923740
C4591	C459	0.866960	0.829360	0.793420
C4601	C460	0.639500	0.456300	0.823900
C4611	C461	0.290430	0.125030	0.310010
C4621	C462	0.272140	0.574540	0.922480
C4631	C463	0.946030	0.742630	0.385910
C4641	C464	0.057930	0.603630	0.774310
C4651	C465	0.194820	0.985220	0.592940
C4661	C466	0.061280	0.247980	0.433760
C4671	C467	0.900610	0.457310	0.028770
C4681	C468	0.925950	0.694450	0.479750
C4691	C469	0.679570	0.439870	0.957490
C4701	C470	0.829360	0.510260	0.793420
C4711	C471	0.244790	0.083990	0.323030
C4721	C472	0.074050	0.305550	0.520250
C4731	C473	0.268480	0.214780	0.611360
C4741	C474	0.057100	0.611400	0.798700
C4751	C475	0.051420	0.091520	0.320840
C4761	C476	0.574050	0.600150	0.020250
C4771	C477	0.285220	0.231520	0.888640
C4781	C478	0.318400	0.476900	0.322700
C4791	C479	0.559990	0.768190	0.138330
C4801	C480	0.324990	0.597790	0.024030
C4811	C481	0.923070	0.679570	0.957490
C4821	C482	0.060130	0.820430	0.542510
C4831	C483	0.425950	0.399850	0.979750
C4841	C484	0.951490	0.253590	0.610730
C4851	C485	0.491210	0.867810	0.465470
C4861	C486	0.494820	0.253020	0.943840
C4871	C487	0.263830	0.660030	0.176010
C4881	C488	0.653700	0.980200	0.141300
C4891	C489	0.823900	0.619900	0.531800
C4901	C490	0.360500	0.543700	0.176100
C4911	C491	0.694820	0.727020	0.092940
C4921	C492	0.256810	0.671810	0.132570
C4931	C493	0.873040	0.757440	0.554480
C4941	C494	0.888600	0.442900	0.701300
C4951	C495	0.908480	0.463780	0.679160
C4961	C496	0.445460	0.156760	0.881320
C4971	C497	0.520850	0.090450	0.578150
C4981	C498	0.480200	0.153700	0.641300
C4991	C499	0.932540	0.376140	0.540680
C5001	C500	0.231810	0.466510	0.861670
C5011	C501	0.454410	0.215910	0.187170
C5021	C502	0.938810	0.256810	0.132570
C5031	C503	0.937440	0.687740	0.931180
C5041	C504	0.508790	0.132190	0.534530
C5051	C505	0.975100	0.122700	0.345500
C5061	C506	0.670640	0.633040	0.706580
C5071	C507	0.782210	0.589210	0.800470
C5081	C508	0.970380	0.215780	0.576260
C5091	C509	0.765990	0.577390	0.908230
C5101	C510	0.061190	0.743190	0.867430
C5111	C511	0.846300	0.275200	0.358700
C5121	C512	0.939870	0.179570	0.457490
C5131	C513	0.824180	0.548280	0.802360
C5141	C514	0.900790	0.465490	0.655130
C5151	C515	0.045590	0.357490	0.312830
C5161	C516	0.642510	0.715910	0.687170
C5171	C517	0.560130	0.076930	0.042510
C5181	C518	0.036220	0.591520	0.820840
C5191	C519	0.557930	0.064130	0.274310
C5201	C520	0.785220	0.094620	0.388640
C5211	C521	0.126960	0.242560	0.445520
C5221	C522	0.176100	0.380100	0.468200
C5231	C523	0.168920	0.475420	0.973840
C5241	C524	0.619900	0.024400	0.531800
C5251	C525	0.524580	0.618180	0.026160
C5261	C526	0.132190	0.824490	0.534530
C5271	C527	0.735530	0.588730	0.951610
C5281	C528	0.943300	0.377300	0.154500
C5291	C529	0.577390	0.748390	0.908230
C5301	C530	0.742630	0.925430	0.385910
C5311	C531	0.762990	0.640990	0.920230
C5321	C532	0.094620	0.731520	0.388640
C5331	C533	0.607880	0.242980	0.904960
C5341	C534	0.405380	0.714780	0.111360
C5351	C535	0.952550	0.329650	0.545450
C5361	C536	0.622040	0.750340	0.821380
C5371	C537	0.479150	0.909550	0.421850
C5381	C538	0.963780	0.408480	0.179160
C5391	C539	0.243190	0.561190	0.367430
C5401	C540	0.103630	0.557930	0.274310
C5411	C541	0.533490	0.559990	0.138330
C5421	C542	0.938720	0.752020	0.566240
C5431	C543	0.475600	0.880100	0.968200
C5441	C544	0.711510	0.588310	0.111570
C5451	C545	0.224240	0.600440	0.348680
C5461	C546	0.942900	0.388600	0.201300
C5471	C547	0.673360	0.899560	0.151320
C5481	C548	0.709570	0.874970	0.689990
C5491	C549	0.691680	0.505180	0.056160
C5501	C550	0.503890	0.447790	0.859330
C5511	C551	0.717790	0.671890	0.699530
C5521	C552	0.315810	0.246410	0.889270
C5531	C553	0.925460	0.227860	0.577520
C5541	C554	0.993110	0.666910	0.406370
C5551	C555	0.824490	0.508790	0.534530
C5561	C556	0.966510	0.731810	0.361670
C5571	C557	0.432540	0.650640	0.040680
C5581	C558	0.019800	0.775200	0.858700
C5591	C559	0.064130	0.103630	0.274310
C5601	C560	0.752020	0.743020	0.566240
C5611	C561	0.059990	0.033490	0.638330
C5621	C562	0.775760	0.399560	0.651320
C5631	C563	0.553970	0.574570	0.114090
C5641	C564	0.521410	0.034510	0.844870
C5651	C565	0.524400	0.119900	0.031800
C5661	C566	0.442900	0.967200	0.701300
C5671	C567	0.580300	0.956300	0.323900
C5681	C568	0.640990	0.675790	0.920230
C5691	C569	0.808320	0.753020	0.443840
C5701	C570	0.743190	0.328190	0.867430
C5711	C571	0.173360	0.775760	0.651320
C5721	C572	0.886990	0.725290	0.597830
C5731	C573	0.536220	0.051420	0.320840
C5741	C574	0.757020	0.755820	0.095040
C5751	C575	0.053970	0.257370	0.614090
C5761	C576	0.947790	0.003890	0.359330
C5771	C577	0.075800	0.213800	0.477500
C5781	C578	0.935870	0.896370	0.725690
C5791	C579	0.225470	0.374970	0.189990
C5801	C580	0.451490	0.684190	0.110730
C5811	C581	0.320430	0.560130	0.042510
C5821	C582	0.656760	0.945460	0.381320
C5831	C583	0.978590	0.900790	0.655130
C5841	C584	0.213800	0.232900	0.477500
C5851	C585	0.139020	0.734220	0.685640
C5861	C586	0.714780	0.768480	0.111360
C5871	C587	0.438720	0.243020	0.066240
C5881	C588	0.410790	0.171890	0.199530
C5891	C589	0.166910	0.493110	0.906370
C5901	C590	0.386990	0.289890	0.097830
C5911	C591	0.588730	0.724130	0.951610
C5921	C592	0.995220	0.317120	0.059940
C5931	C593	0.181600	0.618000	0.177300
C5941	C594	0.227860	0.269160	0.577520
C5951	C595	0.265780	0.558880	0.314360
C5961	C596	0.175010	0.446810	0.475970
C5971	C597	0.209570	0.225470	0.189990
C5981	C598	0.440010	0.231810	0.861670
C5991	C599	0.170350	0.547450	0.954550
C6001	C600	0.675790	0.762990	0.920230
C6011	C601	0.311010	0.052210	0.640670
C6021	C602	0.744180	0.742980	0.404960
C6031	C603	0.514310	0.918410	0.200370
C6041	C604	0.736170	0.339970	0.823990
C6051	C605	0.286140	0.518940	0.332780
C6061	C606	0.133090	0.581590	0.299630
C6071	C607	0.874970	0.725470	0.689990
C6081	C608	0.542690	0.386690	0.971230
C6091	C609	0.762420	0.029620	0.423740
C6101	C610	0.591520	0.551420	0.820840
C6111	C611	0.730840	0.074540	0.422480
C6121	C612	0.210140	0.457840	0.908680
C6131	C613	0.829650	0.452550	0.045450
C6141	C614	0.805620	0.500520	0.037740
C6151	C615	0.911270	0.764470	0.548390
C6161	C616	0.483540	0.554540	0.118680
C6171	C617	0.339970	0.099870	0.823990
C6181	C618	0.171810	0.756810	0.632570
C6191	C619	0.423070	0.939870	0.457490
C6201	C620	0.331080	0.118180	0.526160
C6211	C621	0.985220	0.227020	0.592940
C6221	C622	0.951720	0.675820	0.697640
C6231	C623	0.626960	0.684960	0.945520
C6241	C624	0.965490	0.400790	0.155130
C6251	C625	0.308320	0.494820	0.943840
C6261	C626	0.422610	0.251610	0.091770
C6271	C627	0.899850	0.925950	0.479750
C6281	C628	0.995460	0.622260	0.479120
C6291	C629	0.187740	0.437440	0.431180
C6301	C630	0.099870	0.736170	0.823990
C6311	C631	0.588310	0.588610	0.111570
C6321	C632	0.744790	0.848190	0.823030
C6331	C633	0.411270	0.275870	0.048390
C6341	C634	0.564130	0.057930	0.774310
C6351	C635	0.194380	0.499480	0.962260
C6361	C636	0.660030	0.900130	0.176010
C6371	C637	0.900130	0.263830	0.176010
C6381	C638	0.305620	0.156120	0.537740
C6391	C639	0.465490	0.978590	0.655130
C6401	C640	0.945460	0.016460	0.381320
C6411	C641	0.805550	0.574050	0.020250
C6421	C642	0.764470	0.775870	0.548390
C6431	C643	0.230840	0.272140	0.922480
C6441	C644	0.632190	0.008790	0.034530
C6451	C645	0.849360	0.067460	0.459320
C6461	C646	0.328190	0.061190	0.867430
C6471	C647	0.767100	0.924200	0.522500
C6481	C648	0.023100	0.181600	0.177300
C6491	C649	0.806240	0.622040	0.821380
C6501	C650	0.599390	0.886690	0.471230
C6511	C651	0.941120	0.234220	0.185640
C6521	C652	0.088310	0.211510	0.611570
C6531	C653	0.504780	0.872280	0.440060
C6541	C654	0.882000	0.318400	0.322700
C6551	C655	0.731520	0.785220	0.388640
C6561	C656	0.600440	0.826640	0.348680
C6571	C657	0.737580	0.715780	0.076260
C6581	C658	0.943640	0.187740	0.431180
C6591	C659	0.008790	0.324490	0.034530
C6601	C660	0.047450	0.670350	0.454550
C6611	C661	0.265990	0.248390	0.408230
C6621	C662	0.684190	0.753590	0.110730
C6631	C663	0.324180	0.325180	0.302360
C6641	C664	0.328110	0.089210	0.300470
C6651	C665	0.377960	0.249660	0.178620
C6661	C666	0.499480	0.343880	0.962260
C6671	C667	0.784090	0.857490	0.812830
C6681	C668	0.269160	0.925460	0.577520
C6691	C669	0.210110	0.113010	0.402170
C6701	C670	0.731810	0.940010	0.361670
C6711	C671	0.867810	0.175510	0.465470
C6721	C672	0.596840	0.877740	0.020880
N11	N1	0.719080	0.662480	0.861460
N21	N2	0.811350	0.152850	0.405050
N31	N3	0.361570	0.120270	0.634190
N41	N4	0.243020	0.280920	0.138540
N51	N5	0.130750	0.652850	0.905050
N61	N6	0.162480	0.219080	0.361460
N71	N7	0.311350	0.130750	0.905050
N81	N8	0.756980	0.719080	0.861460
N91	N9	0.879730	0.116030	0.365810
N101	N10	0.219080	0.256980	0.361460
N111	N11	0.919230	0.391030	0.088110
N121	N12	0.743020	0.837520	0.638540
N131	N13	0.369250	0.188650	0.594950
N141	N14	0.391030	0.601630	0.088110
N151	N15	0.638430	0.879730	0.365810
N161	N16	0.152850	0.630750	0.405050
N171	N17	0.688650	0.869250	0.094950
N181	N18	0.861570	0.383970	0.134190
N191	N19	0.869250	0.347150	0.094950
N201	N20	0.120270	0.883970	0.634190
N211	N21	0.383970	0.620270	0.134190
N221	N22	0.780920	0.743020	0.638540
N231	N23	0.398370	0.080770	0.911890
N241	N24	0.608970	0.398370	0.911890
N251	N25	0.101630	0.891030	0.588110
N261	N26	0.891030	0.419230	0.588110
N271	N27	0.347150	0.688650	0.094950
N281	N28	0.616030	0.379730	0.865810
N291	N29	0.847150	0.369250	0.594950
N301	N30	0.883970	0.361570	0.634190
N311	N31	0.620270	0.861570	0.134190
N321	N32	0.280920	0.337520	0.138540
N331	N33	0.580770	0.898370	0.411890
N341	N34	0.116030	0.638430	0.365810
N351	N35	0.419230	0.101630	0.588110
N361	N36	0.138430	0.616030	0.865810
N371	N37	0.652850	0.311350	0.905050
N381	N38	0.080770	0.608970	0.911890
N391	N39	0.108970	0.580770	0.411890
N401	N40	0.837520	0.780920	0.638540
N411	N41	0.379730	0.138430	0.865810
N421	N42	0.601630	0.919230	0.088110
N431	N43	0.898370	0.108970	0.411890
N441	N44	0.188650	0.847150	0.594950
N451	N45	0.256980	0.162480	0.361460
N461	N46	0.662480	0.756980	0.861460
N471	N47	0.337520	0.243020	0.138540
N481	N48	0.630750	0.811350	0.405050
O11	O1	0.228960	0.292560	0.015120
O21	O2	0.758850	0.596450	0.026850
O31	O3	0.944520	0.371820	0.130140
O41	O4	0.153030	0.153030	0.540910
O51	O5	0.655350	0.562850	0.660650
O61	O6	0.796220	0.512220	0.781840
O71	O7	0.463360	0.228960	0.015120
O81	O8	0.301390	0.397990	0.912130
O91	O9	0.521040	0.093740	0.703580
O101	O10	0.436190	0.172890	0.992530
O111	O11	0.053090	0.613390	0.379430
O121	O12	0.296220	0.409720	0.281840
O131	O13	0.953460	0.873260	0.748820
O141	O14	0.373260	0.453460	0.248820
O151	O15	0.384770	0.667170	0.048690
O161	O16	0.995220	0.173920	0.541340
O171	O17	0.704020	0.796620	0.370640
O181	O18	0.693550	0.857850	0.142650
O191	O19	0.728960	0.963360	0.515120
O201	O20	0.553090	0.454090	0.879430
O211	O21	0.871820	0.444520	0.630140
O221	O22	0.344650	0.437150	0.339350
O231	O23	0.580700	0.677100	0.130200
O241	O24	0.004780	0.826080	0.458660
O251	O25	0.388000	0.419300	0.869800
O261	O26	0.053520	0.871820	0.630140
O271	O27	0.201010	0.126710	0.376970
O281	O28	0.063810	0.101610	0.507470
O291	O29	0.562850	0.121150	0.660650
O301	O30	0.873290	0.704690	0.623030
O311	O31	0.801390	0.888490	0.412130
O321	O32	0.388490	0.301390	0.912130
O331	O33	0.340780	0.047980	0.928360
O341	O34	0.906260	0.318360	0.296420
O351	O35	0.628180	0.446480	0.869860
O361	O36	0.888490	0.897990	0.412130
O371	O37	0.630770	0.033270	0.703490
O381	O38	0.327110	0.063810	0.507470
O391	O39	0.631170	0.034070	0.504590
O401	O40	0.206100	0.105000	0.494600
O411	O41	0.827110	0.601610	0.007470
O421	O42	0.045910	0.946910	0.620570
O431	O43	0.322560	0.482460	0.046020
O441	O44	0.033270	0.632470	0.703490
O451	O45	0.012220	0.296220	0.281840
O461	O46	0.888000	0.822900	0.369800
O471	O47	0.741150	0.882150	0.473150
O481	O48	0.648960	0.982460	0.546020
O491	O49	0.182880	0.547980	0.428360
O501	O50	0.792560	0.728960	0.515120
O511	O51	0.126710	0.295310	0.376970
O521	O52	0.177440	0.351040	0.453980
O531	O53	0.173920	0.289520	0.541340
O541	O54	0.632470	0.630770	0.703490
O551	O55	0.596450	0.617850	0.026850
O561	O56	0.682690	0.550390	0.051930
O571	O57	0.789520	0.673920	0.041340
O581	O58	0.504780	0.210480	0.958660
O591	O59	0.357850	0.193550	0.642650
O601	O60	0.706100	0.694300	0.994600
O611	O61	0.121150	0.655350	0.660650
O621	O62	0.113390	0.553090	0.879430
O631	O63	0.677440	0.517540	0.953980
O641	O64	0.987780	0.703780	0.718160
O651	O65	0.605000	0.706100	0.994600
O661	O66	0.704320	0.786820	0.668840
O671	O67	0.105000	0.194300	0.494600
O681	O68	0.626740	0.546540	0.751180
O691	O69	0.590280	0.987780	0.718160
O701	O70	0.795310	0.626710	0.876970
O711	O71	0.541130	0.111430	0.273710
O721	O72	0.155350	0.621150	0.160650
O731	O73	0.080700	0.112000	0.630200
O741	O74	0.169830	0.368830	0.495410
O751	O75	0.241150	0.403550	0.973150
O761	O76	0.785010	0.949610	0.448070
O771	O77	0.132470	0.533270	0.203490
O781	O78	0.128720	0.704020	0.370640
O791	O79	0.895000	0.805700	0.505400
O801	O80	0.326080	0.504780	0.958660
O811	O81	0.305700	0.395000	0.005400
O821	O82	0.369230	0.966730	0.296510
O831	O83	0.258850	0.117850	0.526850
O841	O84	0.628720	0.296620	0.870640
O851	O85	0.963360	0.792560	0.515120
O861	O86	0.805700	0.793900	0.505400
O871	O87	0.090280	0.203780	0.218160
O881	O88	0.851040	0.677440	0.953980
O891	O89	0.130770	0.132470	0.203490
O901	O90	0.131170	0.330170	0.004590
O911	O91	0.378850	0.937150	0.839350
O921	O92	0.148960	0.322560	0.046020
O931	O93	0.550390	0.714990	0.051930
O941	O94	0.533270	0.130770	0.203490
O951	O95	0.681640	0.521040	0.703580
O961	O96	0.698610	0.602010	0.087870
O971	O97	0.075540	0.626740	0.751180
O981	O98	0.710480	0.004780	0.458660
O991	O99	0.547980	0.840780	0.428360
O1001	O100	0.426270	0.388570	0.226290
O1011	O101	0.286820	0.204320	0.168840
O1021	O102	0.899370	0.384770	0.048690
O1031	O103	0.903550	0.741150	0.473150
O1041	O104	0.949610	0.817310	0.448070
O1051	O105	0.677100	0.612000	0.130200
O1061	O106	0.642150	0.806450	0.357350
O1071	O107	0.826080	0.710480	0.458660
O1081	O108	0.041130	0.573730	0.773710
O1091	O109	0.036640	0.207440	0.484880
O1101	O110	0.203380	0.871280	0.629360
O1111	O111	0.446910	0.545910	0.120570
O1121	O112	0.878850	0.344650	0.339350
O1131	O113	0.271040	0.036640	0.484880
O1141	O114	0.210480	0.326080	0.958660
O1151	O115	0.694050	0.306450	0.857350
O1161	O116	0.295980	0.203380	0.629360
O1171	O117	0.046540	0.126740	0.251180
O1181	O118	0.181640	0.593740	0.203580
O1191	O119	0.395000	0.293900	0.005400
O1201	O120	0.403550	0.382150	0.973150
O1211	O121	0.575540	0.046540	0.251180
O1221	O122	0.453460	0.924460	0.248820
O1231	O123	0.869230	0.867530	0.796510
O1241	O124	0.611430	0.041130	0.773710
O1251	O125	0.305950	0.693550	0.142650
O1261	O126	0.204320	0.340020	0.168840
O1271	O127	0.142150	0.694050	0.857350
O1281	O128	0.295680	0.213180	0.331160
O1291	O129	0.798990	0.873290	0.623030
O1301	O130	0.397990	0.388490	0.912130
O1311	O131	0.203780	0.487780	0.218160
O1321	O132	0.978960	0.818360	0.796420
O1331	O133	0.694300	0.605000	0.994600
O1341	O134	0.406260	0.978960	0.796420
O1351	O135	0.795980	0.371280	0.129360
O1361	O136	0.822900	0.919300	0.369800
O1371	O137	0.840020	0.704320	0.668840
O1381	O138	0.454090	0.113390	0.879430
O1391	O139	0.382150	0.241150	0.973150
O1401	O140	0.844650	0.378850	0.839350
O1411	O141	0.982460	0.822560	0.546020
O1421	O142	0.292560	0.463360	0.015120
O1431	O143	0.317120	0.659220	0.071640
O1441	O144	0.919300	0.888000	0.369800
O1451	O145	0.102010	0.198610	0.587870
O1461	O146	0.332830	0.100630	0.951310
O1471	O147	0.368830	0.965930	0.495410
O1481	O148	0.786820	0.840020	0.668840
O1491	O149	0.446480	0.055480	0.869860
O1501	O150	0.050390	0.182690	0.551930
O1511	O151	0.371280	0.703380	0.129360
O1521	O152	0.444520	0.053520	0.630140
O1531	O153	0.478960	0.906260	0.296420
O1541	O154	0.701010	0.795310	0.876970
O1551	O155	0.512220	0.909720	0.781840
O1561	O156	0.100630	0.615230	0.951310
O1571	O157	0.534070	0.131170	0.004590
O1581	O158	0.367530	0.369230	0.296510
O1591	O159	0.818360	0.406260	0.796420
O1601	O160	0.952020	0.317120	0.071640
O1611	O161	0.398390	0.436190	0.992530
O1621	O162	0.703380	0.795980	0.129360
O1631	O163	0.419300	0.322900	0.869800
O1641	O164	0.340020	0.286820	0.168840
O1651	O165	0.093740	0.681640	0.703580
O1661	O166	0.563810	0.827110	0.007470
O1671	O167	0.034070	0.830170	0.504590
O1681	O168	0.613390	0.954090	0.379430
O1691	O169	0.126740	0.575540	0.251180
O1701	O170	0.198610	0.111510	0.587870
O1711	O171	0.182690	0.214990	0.551930
O1721	O172	0.047980	0.682880	0.928360
O1731	O173	0.682880	0.340780	0.928360
O1741	O174	0.714990	0.682690	0.051930
O1751	O175	0.318360	0.478960	0.296420
O1761	O176	0.482460	0.148960	0.046020
O1771	O177	0.115230	0.600630	0.451310
O1781	O178	0.669830	0.465930	0.995410
O1791	O179	0.553520	0.944520	0.130140
O1801	O180	0.954090	0.053090	0.379430
O1811	O181	0.289520	0.995220	0.541340
O1821	O182	0.611510	0.698610	0.087870
O1831	O183	0.351040	0.017540	0.453980
O1841	O184	0.017540	0.177440	0.453980
O1851	O185	0.817310	0.785010	0.448070
O1861	O186	0.295310	0.201010	0.376970
O1871	O187	0.371820	0.553520	0.130140
O1881	O188	0.600630	0.832830	0.451310
O1891	O189	0.888570	0.926270	0.726290
O1901	O190	0.317310	0.449610	0.948070
O1911	O191	0.545910	0.886610	0.120570
O1921	O192	0.612000	0.580700	0.130200
O1931	O193	0.330170	0.534070	0.004590
O1941	O194	0.966730	0.367530	0.296510
O1951	O195	0.101610	0.327110	0.507470
O1961	O196	0.458870	0.888570	0.726290
O1971	O197	0.306450	0.142150	0.857350
O1981	O198	0.573730	0.611430	0.773710
O1991	O199	0.659980	0.713180	0.831160
O2001	O200	0.159220	0.817120	0.571640
O2011	O201	0.172890	0.398390	0.992530
O2021	O202	0.536640	0.771040	0.984880
O2031	O203	0.626710	0.701010	0.876970
O2041	O204	0.958870	0.426270	0.226290
O2051	O205	0.601610	0.563810	0.007470
O2061	O206	0.517540	0.851040	0.953980
O2071	O207	0.214990	0.050390	0.551930
O2081	O208	0.112000	0.177100	0.630200
O2091	O209	0.817120	0.452020	0.571640
O2101	O210	0.840780	0.182880	0.428360
O2111	O211	0.867530	0.466730	0.796510
O2121	O212	0.193550	0.805950	0.642650
O2131	O213	0.898390	0.672890	0.492530
O2141	O214	0.204020	0.628720	0.870640
O2151	O215	0.386610	0.045910	0.620570
O2161	O216	0.672890	0.936190	0.492530
O2171	O217	0.846970	0.846970	0.459090
O2181	O218	0.667170	0.899370	0.048690
O2191	O219	0.388570	0.958870	0.226290
O2201	O220	0.832830	0.115230	0.451310
O2211	O221	0.871280	0.295980	0.629360
O2221	O222	0.796620	0.128720	0.370640
O2231	O223	0.621150	0.062850	0.160650
O2241	O224	0.897990	0.801390	0.412130
O2251	O225	0.946480	0.128180	0.369860
O2261	O226	0.615230	0.332830	0.951310
O2271	O227	0.021040	0.181640	0.203580
O2281	O228	0.452020	0.159220	0.571640
O2291	O229	0.926270	0.458870	0.726290
O2301	O230	0.882150	0.903550	0.473150
O2311	O231	0.293900	0.305700	0.005400
O2321	O232	0.659220	0.952020	0.071640
O2331	O233	0.593740	0.021040	0.203580
O2341	O234	0.868830	0.669830	0.995410
O2351	O235	0.936190	0.898390	0.492530
O2361	O236	0.437150	0.878850	0.339350
O2371	O237	0.617850	0.758850	0.026850
O2381	O238	0.424460	0.953460	0.748820
O2391	O239	0.873260	0.424460	0.748820
O2401	O240	0.298990	0.204690	0.123030
O2411	O241	0.793900	0.895000	0.505400
O2421	O242	0.713180	0.795680	0.831160
O2431	O243	0.128180	0.555480	0.369860
O2441	O244	0.111510	0.102010	0.587870
O2451	O245	0.555480	0.946480	0.369860
O2461	O246	0.117850	0.096450	0.526850
O2471	O247	0.830170	0.631170	0.504590
O2481	O248	0.322900	0.388000	0.869800
O2491	O249	0.703780	0.590280	0.718160
O2501	O250	0.466730	0.869230	0.796510
O2511	O251	0.495220	0.789520	0.041340
O2521	O252	0.111430	0.073730	0.273710
O2531	O253	0.937150	0.844650	0.839350
O2541	O254	0.194300	0.206100	0.494600
O2551	O255	0.653030	0.653030	0.040910
O2561	O256	0.285010	0.317310	0.948070
O2571	O257	0.409720	0.012220	0.281840
O2581	O258	0.399370	0.167170	0.548690
O2591	O259	0.073730	0.541130	0.273710
O2601	O260	0.449610	0.285010	0.948070
O2611	O261	0.204690	0.373290	0.123030
O2621	O262	0.771040	0.707440	0.984880
O2631	O263	0.924460	0.373260	0.248820
O2641	O264	0.062850	0.155350	0.160650
O2651	O265	0.346970	0.346970	0.959090
O2661	O266	0.602010	0.611510	0.087870
O2671	O267	0.487780	0.090280	0.218160
O2681	O268	0.795680	0.659980	0.831160
O2691	O269	0.707440	0.536640	0.984880
O2701	O270	0.546540	0.075540	0.751180
O2711	O271	0.213180	0.159980	0.331160
O2721	O272	0.055480	0.628180	0.869860
O2731	O273	0.296620	0.204020	0.870640
O2741	O274	0.167170	0.884770	0.548690
O2751	O275	0.806450	0.194050	0.357350
O2761	O276	0.884770	0.399370	0.548690
O2771	O277	0.373290	0.298990	0.123030
O2781	O278	0.194050	0.642150	0.357350
O2791	O279	0.805950	0.357850	0.642650
O2801	O280	0.704690	0.798990	0.623030
O2811	O281	0.909720	0.796220	0.781840
O2821	O282	0.822560	0.648960	0.546020
O2831	O283	0.159980	0.295680	0.331160
O2841	O284	0.096450	0.258850	0.526850
O2851	O285	0.207440	0.271040	0.484880
O2861	O286	0.673920	0.495220	0.041340
O2871	O287	0.857850	0.305950	0.142650
O2881	O288	0.177100	0.080700	0.630200
O2891	O289	0.886610	0.446910	0.120570
O2901	O290	0.965930	0.169830	0.495410
O2911	O291	0.946910	0.386610	0.620570
O2921	O292	0.465930	0.868830	0.995410
