data_WIVKOD_clean_PM
_symmetry_space_group_name_H-M	'P1'
_cell_length_a	9.461100
_cell_length_b	13.424000
_cell_length_c	13.453000
_cell_angle_alpha	67.360000
_cell_angle_beta	70.649000
_cell_angle_gamma	88.418000
_symmetry_Int_Tables_number 1

loop_
_symmetry_equiv_pos_as_xyz
'x,y,z'

loop_
_atom_site_label
_atom_site_type_symbol
_atom_site_fract_x
_atom_site_fract_y
_atom_site_fract_z
U11	U1	0.977130	0.077860	0.346070
P11	P1	0.266310	0.148450	0.383410
U21	U2	0.291290	0.320840	0.077270
P21	P2	0.525240	0.432470	0.180820
P31	P3	0.721210	0.944580	0.280230
O11	O1	0.135900	0.056200	0.466800
P41	P4	0.999510	0.250950	0.047560
O21	O2	0.215600	0.198000	0.277800
O31	O3	0.048000	0.196700	0.154800
O41	O4	0.765800	0.023100	0.324800
C11	C1	0.430700	0.010000	0.289800
H11	H1	0.364000	0.033500	0.243700
H21	H2	0.385200	0.938300	0.352600
C21	C2	0.677100	0.388700	0.233200
H31	H3	0.693900	0.437400	0.268900
H41	H4	0.643500	0.315100	0.295000
O51	O5	0.485300	0.354200	0.134600
C31	C3	0.829400	0.384800	0.148000
H51	H5	0.903900	0.366500	0.187600
H61	H6	0.864500	0.457800	0.085100
O61	O6	0.129800	0.338300	0.964000
C41	C4	0.585400	0.997600	0.213300
H71	H7	0.629500	0.069900	0.151300
H81	H8	0.569500	0.949700	0.176500
C51	C5	0.824300	0.302100	0.096000
H91	H9	0.789000	0.336400	0.030300
H101	H10	0.748700	0.240000	0.154300
O71	O7	0.562600	0.549700	0.095900
C61	C6	0.438400	0.091900	0.342100
H111	H11	0.518500	0.151800	0.285700
H121	H12	0.467800	0.055500	0.410600
O81	O8	0.966900	0.168100	0.004100
O91	O9	0.854300	0.923400	0.193600
O101	O10	0.389300	0.431300	0.287800
H131	H13	0.363000	0.367400	0.337400
O111	O11	0.639800	0.835500	0.382500
H141	H14	0.670900	0.825000	0.437000
O121	O12	0.288600	0.227300	0.433200
U31	U3	0.022870	0.922140	0.653930
P51	P5	0.733690	0.851550	0.616590
U41	U4	0.708710	0.679150	0.922730
P61	P6	0.474760	0.567530	0.819180
P71	P7	0.278790	0.055420	0.719770
O131	O13	0.864100	0.943800	0.533200
P81	P8	0.000490	0.749050	0.952440
O141	O14	0.784400	0.802000	0.722200
O151	O15	0.952000	0.803300	0.845200
O161	O16	0.234200	0.976900	0.675200
C71	C7	0.569300	0.990000	0.710200
H151	H15	0.636000	0.966500	0.756300
H161	H16	0.614800	0.061700	0.647400
C81	C8	0.322900	0.611300	0.766800
H171	H17	0.306100	0.562600	0.731100
H181	H18	0.356500	0.684900	0.705000
O171	O17	0.514700	0.645800	0.865400
C91	C9	0.170600	0.615200	0.852000
H191	H19	0.096100	0.633500	0.812400
H201	H20	0.135500	0.542200	0.914900
O181	O18	0.870200	0.661700	0.036000
C101	C10	0.414600	0.002400	0.786700
H211	H21	0.370500	0.930100	0.848700
H221	H22	0.430500	0.050300	0.823500
C111	C11	0.175700	0.697900	0.904000
H231	H23	0.211000	0.663600	0.969700
H241	H24	0.251300	0.760000	0.845700
O191	O19	0.437400	0.450300	0.904100
C121	C12	0.561600	0.908100	0.657900
H251	H25	0.481500	0.848200	0.714300
H261	H26	0.532200	0.944500	0.589400
O201	O20	0.033100	0.831900	0.995900
O211	O21	0.145700	0.076600	0.806400
O221	O22	0.610700	0.568700	0.712200
H271	H27	0.637000	0.632600	0.662600
O231	O23	0.360200	0.164500	0.617500
H281	H28	0.329100	0.175000	0.563000
O241	O24	0.711400	0.772700	0.566800
U51	U5	0.000000	0.000000	0.000000
