data_WIVRIE_clean_PM
_symmetry_space_group_name_H-M	'P1'
_cell_length_a	37.322000
_cell_length_b	72.640000
_cell_length_c	7.074000
_cell_angle_alpha	90.000000
_cell_angle_beta	90.000000
_cell_angle_gamma	90.000000
_symmetry_Int_Tables_number 1

loop_
_symmetry_equiv_pos_as_xyz
'x,y,z'

loop_
_atom_site_label
_atom_site_type_symbol
_atom_site_fract_x
_atom_site_fract_y
_atom_site_fract_z
Cd11	Cd1	0.381440	0.069510	0.493060
C11	C1	0.154600	0.061930	0.375000
C21	C2	0.178100	0.063660	0.197600
H11	H1	0.175200	0.053000	0.116200
H21	H2	0.172000	0.074700	0.126800
C31	C3	0.240300	0.066330	0.137500
C41	C4	0.235200	0.069000	0.945000
H31	H3	0.212100	0.069800	0.896700
C51	C5	0.264400	0.070500	0.826000
H41	H4	0.260900	0.072300	0.697000
C61	C6	0.298700	0.069430	0.896800
C71	C7	0.303900	0.066680	0.089700
H51	H5	0.327000	0.065900	0.138300
C81	C8	0.274500	0.065100	0.209700
H61	H6	0.278000	0.063200	0.338500
C91	C9	0.331100	0.067980	0.763800
C101	C10	0.162500	0.041000	0.439000
H71	H7	0.153700	0.032400	0.345400
H81	H8	0.188000	0.039100	0.456700
C111	C11	0.140400	0.020600	0.654000
C121	C12	0.145800	0.005600	0.535000
H91	H9	0.152800	0.007500	0.410100
C131	C13	0.140700	0.987800	0.602000
H101	H10	0.144300	0.977800	0.522500
C141	C14	0.130200	0.985040	0.787000
C151	C15	0.124800	0.000100	0.907000
H111	H11	0.117800	0.998200	0.031500
C161	C16	0.129900	0.017800	0.840000
H121	H12	0.126300	0.027800	0.919500
C171	C17	0.125300	0.967010	0.869000
C181	C18	0.163000	0.073520	0.555000
H131	H13	0.145300	0.071500	0.653800
H141	H14	0.186700	0.070900	0.604100
C191	C19	0.155200	0.104300	0.644000
C201	C20	0.161300	0.101600	0.834000
H151	H15	0.170300	0.090300	0.875600
C211	C21	0.154300	0.115300	0.963000
H161	H16	0.158600	0.113300	0.090600
C221	C22	0.140900	0.132100	0.902000
C231	C23	0.135000	0.134800	0.711000
H171	H17	0.126300	0.146000	0.668700
C241	C24	0.141700	0.121000	0.583000
H181	H18	0.137300	0.123000	0.455500
C251	C25	0.134800	0.148560	0.026000
C261	C26	0.114000	0.064800	0.322000
H191	H19	0.099500	0.057200	0.404400
H201	H20	0.107600	0.077500	0.345500
C271	C27	0.070700	0.061600	0.081000
C281	C28	0.043900	0.069300	0.188000
H211	H21	0.049200	0.074000	0.307100
C291	C29	0.009300	0.069900	0.122000
H221	H22	0.991400	0.075100	0.196000
C301	C30	0.001000	0.062800	0.946000
C311	C31	0.028000	0.055100	0.838000
H231	H23	0.022700	0.050300	0.719300
C321	C32	0.062400	0.054500	0.904000
H241	H24	0.080400	0.049400	0.829500
C331	C33	0.963200	0.063100	0.886000
O11	O1	0.214170	0.064720	0.267200
O21	O2	0.361600	0.067430	0.812600
O31	O3	0.322800	0.069450	0.583300
O41	O4	0.144500	0.039290	0.605000
O51	O5	0.117300	0.965290	0.032900
O61	O6	0.126100	0.953120	0.764500
O71	O7	0.160600	0.091720	0.477800
O81	O8	0.133400	0.146600	0.206000
O91	O9	0.133700	0.164410	0.956200
O101	O10	0.106200	0.060830	0.147400
O111	O11	0.940300	0.067520	0.021100
O121	O12	0.955400	0.061370	0.704500
Cd21	Cd2	0.407440	0.062730	0.034020
Cd31	Cd3	0.381440	0.569510	0.993060
C341	C34	0.154600	0.561930	0.875000
C351	C35	0.178100	0.563660	0.697600
H251	H25	0.175200	0.553000	0.616200
H261	H26	0.172000	0.574700	0.626800
C361	C36	0.240300	0.566330	0.637500
C371	C37	0.235200	0.569000	0.445000
H271	H27	0.212100	0.569800	0.396700
C381	C38	0.264400	0.570500	0.326000
H281	H28	0.260900	0.572300	0.197000
C391	C39	0.298700	0.569430	0.396800
C401	C40	0.303900	0.566680	0.589700
H291	H29	0.327000	0.565900	0.638300
C411	C41	0.274500	0.565100	0.709700
H301	H30	0.278000	0.563200	0.838500
C421	C42	0.331100	0.567980	0.263800
C431	C43	0.162500	0.541000	0.939000
H311	H31	0.153700	0.532400	0.845400
H321	H32	0.188000	0.539100	0.956700
C441	C44	0.140400	0.520600	0.154000
C451	C45	0.145800	0.505600	0.035000
H331	H33	0.152800	0.507500	0.910100
C461	C46	0.140700	0.487800	0.102000
H341	H34	0.144300	0.477800	0.022500
C471	C47	0.130200	0.485040	0.287000
C481	C48	0.124800	0.500100	0.407000
H351	H35	0.117800	0.498200	0.531500
C491	C49	0.129900	0.517800	0.340000
H361	H36	0.126300	0.527800	0.419500
C501	C50	0.125300	0.467010	0.369000
C511	C51	0.163000	0.573520	0.055000
H371	H37	0.145300	0.571500	0.153800
H381	H38	0.186700	0.570900	0.104100
C521	C52	0.155200	0.604300	0.144000
C531	C53	0.161300	0.601600	0.334000
H391	H39	0.170300	0.590300	0.375600
C541	C54	0.154300	0.615300	0.463000
H401	H40	0.158600	0.613300	0.590600
C551	C55	0.140900	0.632100	0.402000
C561	C56	0.135000	0.634800	0.211000
H411	H41	0.126300	0.646000	0.168700
C571	C57	0.141700	0.621000	0.083000
H421	H42	0.137300	0.623000	0.955500
C581	C58	0.134800	0.648560	0.526000
C591	C59	0.114000	0.564800	0.822000
H431	H43	0.099500	0.557200	0.904400
H441	H44	0.107600	0.577500	0.845500
C601	C60	0.070700	0.561600	0.581000
C611	C61	0.043900	0.569300	0.688000
H451	H45	0.049200	0.574000	0.807100
C621	C62	0.009300	0.569900	0.622000
H461	H46	0.991400	0.575100	0.696000
C631	C63	0.001000	0.562800	0.446000
C641	C64	0.028000	0.555100	0.338000
H471	H47	0.022700	0.550300	0.219300
C651	C65	0.062400	0.554500	0.404000
H481	H48	0.080400	0.549400	0.329500
C661	C66	0.963200	0.563100	0.386000
O131	O13	0.214170	0.564720	0.767200
O141	O14	0.361600	0.567430	0.312600
O151	O15	0.322800	0.569450	0.083300
O161	O16	0.144500	0.539290	0.105000
O171	O17	0.117300	0.465290	0.532900
O181	O18	0.126100	0.453120	0.264500
O191	O19	0.160600	0.591720	0.977800
O201	O20	0.133400	0.646600	0.706000
O211	O21	0.133700	0.664410	0.456200
O221	O22	0.106200	0.560830	0.647400
O231	O23	0.940300	0.567520	0.521100
O241	O24	0.955400	0.561370	0.204500
Cd41	Cd4	0.407440	0.562730	0.534020
Cd51	Cd5	0.881440	0.069510	0.993060
C671	C67	0.654600	0.061930	0.875000
C681	C68	0.678100	0.063660	0.697600
H491	H49	0.675200	0.053000	0.616200
H501	H50	0.672000	0.074700	0.626800
C691	C69	0.740300	0.066330	0.637500
C701	C70	0.735200	0.069000	0.445000
H511	H51	0.712100	0.069800	0.396700
C711	C71	0.764400	0.070500	0.326000
H521	H52	0.760900	0.072300	0.197000
C721	C72	0.798700	0.069430	0.396800
C731	C73	0.803900	0.066680	0.589700
H531	H53	0.827000	0.065900	0.638300
C741	C74	0.774500	0.065100	0.709700
H541	H54	0.778000	0.063200	0.838500
C751	C75	0.831100	0.067980	0.263800
C761	C76	0.662500	0.041000	0.939000
H551	H55	0.653700	0.032400	0.845400
H561	H56	0.688000	0.039100	0.956700
C771	C77	0.640400	0.020600	0.154000
C781	C78	0.645800	0.005600	0.035000
H571	H57	0.652800	0.007500	0.910100
C791	C79	0.640700	0.987800	0.102000
H581	H58	0.644300	0.977800	0.022500
C801	C80	0.630200	0.985040	0.287000
C811	C81	0.624800	0.000100	0.407000
H591	H59	0.617800	0.998200	0.531500
C821	C82	0.629900	0.017800	0.340000
H601	H60	0.626300	0.027800	0.419500
C831	C83	0.625300	0.967010	0.369000
C841	C84	0.663000	0.073520	0.055000
H611	H61	0.645300	0.071500	0.153800
H621	H62	0.686700	0.070900	0.104100
C851	C85	0.655200	0.104300	0.144000
C861	C86	0.661300	0.101600	0.334000
H631	H63	0.670300	0.090300	0.375600
C871	C87	0.654300	0.115300	0.463000
H641	H64	0.658600	0.113300	0.590600
C881	C88	0.640900	0.132100	0.402000
C891	C89	0.635000	0.134800	0.211000
H651	H65	0.626300	0.146000	0.168700
C901	C90	0.641700	0.121000	0.083000
H661	H66	0.637300	0.123000	0.955500
C911	C91	0.634800	0.148560	0.526000
C921	C92	0.614000	0.064800	0.822000
H671	H67	0.599500	0.057200	0.904400
H681	H68	0.607600	0.077500	0.845500
C931	C93	0.570700	0.061600	0.581000
C941	C94	0.543900	0.069300	0.688000
H691	H69	0.549200	0.074000	0.807100
C951	C95	0.509300	0.069900	0.622000
H701	H70	0.491400	0.075100	0.696000
C961	C96	0.501000	0.062800	0.446000
C971	C97	0.528000	0.055100	0.338000
H711	H71	0.522700	0.050300	0.219300
C981	C98	0.562400	0.054500	0.404000
H721	H72	0.580400	0.049400	0.329500
C991	C99	0.463200	0.063100	0.386000
O251	O25	0.714170	0.064720	0.767200
O261	O26	0.861600	0.067430	0.312600
O271	O27	0.822800	0.069450	0.083300
O281	O28	0.644500	0.039290	0.105000
O291	O29	0.617300	0.965290	0.532900
O301	O30	0.626100	0.953120	0.264500
O311	O31	0.660600	0.091720	0.977800
O321	O32	0.633400	0.146600	0.706000
O331	O33	0.633700	0.164410	0.456200
O341	O34	0.606200	0.060830	0.647400
O351	O35	0.440300	0.067520	0.521100
O361	O36	0.455400	0.061370	0.204500
Cd61	Cd6	0.907440	0.062730	0.534020
Cd71	Cd7	0.881440	0.569510	0.493060
C1001	C100	0.654600	0.561930	0.375000
C1011	C101	0.678100	0.563660	0.197600
H731	H73	0.675200	0.553000	0.116200
H741	H74	0.672000	0.574700	0.126800
C1021	C102	0.740300	0.566330	0.137500
C1031	C103	0.735200	0.569000	0.945000
H751	H75	0.712100	0.569800	0.896700
C1041	C104	0.764400	0.570500	0.826000
H761	H76	0.760900	0.572300	0.697000
C1051	C105	0.798700	0.569430	0.896800
C1061	C106	0.803900	0.566680	0.089700
H771	H77	0.827000	0.565900	0.138300
C1071	C107	0.774500	0.565100	0.209700
H781	H78	0.778000	0.563200	0.338500
C1081	C108	0.831100	0.567980	0.763800
C1091	C109	0.662500	0.541000	0.439000
H791	H79	0.653700	0.532400	0.345400
H801	H80	0.688000	0.539100	0.456700
C1101	C110	0.640400	0.520600	0.654000
C1111	C111	0.645800	0.505600	0.535000
H811	H81	0.652800	0.507500	0.410100
C1121	C112	0.640700	0.487800	0.602000
H821	H82	0.644300	0.477800	0.522500
C1131	C113	0.630200	0.485040	0.787000
C1141	C114	0.624800	0.500100	0.907000
H831	H83	0.617800	0.498200	0.031500
C1151	C115	0.629900	0.517800	0.840000
H841	H84	0.626300	0.527800	0.919500
C1161	C116	0.625300	0.467010	0.869000
C1171	C117	0.663000	0.573520	0.555000
H851	H85	0.645300	0.571500	0.653800
H861	H86	0.686700	0.570900	0.604100
C1181	C118	0.655200	0.604300	0.644000
C1191	C119	0.661300	0.601600	0.834000
H871	H87	0.670300	0.590300	0.875600
C1201	C120	0.654300	0.615300	0.963000
H881	H88	0.658600	0.613300	0.090600
C1211	C121	0.640900	0.632100	0.902000
C1221	C122	0.635000	0.634800	0.711000
H891	H89	0.626300	0.646000	0.668700
C1231	C123	0.641700	0.621000	0.583000
H901	H90	0.637300	0.623000	0.455500
C1241	C124	0.634800	0.648560	0.026000
C1251	C125	0.614000	0.564800	0.322000
H911	H91	0.599500	0.557200	0.404400
H921	H92	0.607600	0.577500	0.345500
C1261	C126	0.570700	0.561600	0.081000
C1271	C127	0.543900	0.569300	0.188000
H931	H93	0.549200	0.574000	0.307100
C1281	C128	0.509300	0.569900	0.122000
H941	H94	0.491400	0.575100	0.196000
C1291	C129	0.501000	0.562800	0.946000
C1301	C130	0.528000	0.555100	0.838000
H951	H95	0.522700	0.550300	0.719300
C1311	C131	0.562400	0.554500	0.904000
H961	H96	0.580400	0.549400	0.829500
C1321	C132	0.463200	0.563100	0.886000
O371	O37	0.714170	0.564720	0.267200
O381	O38	0.861600	0.567430	0.812600
O391	O39	0.822800	0.569450	0.583300
O401	O40	0.644500	0.539290	0.605000
O411	O41	0.617300	0.465290	0.032900
O421	O42	0.626100	0.453120	0.764500
O431	O43	0.660600	0.591720	0.477800
O441	O44	0.633400	0.646600	0.206000
O451	O45	0.633700	0.664410	0.956200
O461	O46	0.606200	0.560830	0.147400
O471	O47	0.440300	0.567520	0.021100
O481	O48	0.455400	0.561370	0.704500
Cd81	Cd8	0.907440	0.562730	0.034020
Cd91	Cd9	0.618560	0.930490	0.493060
C1331	C133	0.845400	0.938070	0.375000
C1341	C134	0.821900	0.936340	0.197600
H971	H97	0.824800	0.947000	0.116200
H981	H98	0.828000	0.925300	0.126800
C1351	C135	0.759700	0.933670	0.137500
C1361	C136	0.764800	0.931000	0.945000
H991	H99	0.787900	0.930200	0.896700
C1371	C137	0.735600	0.929500	0.826000
H1001	H100	0.739100	0.927700	0.697000
C1381	C138	0.701300	0.930570	0.896800
C1391	C139	0.696100	0.933320	0.089700
H1011	H101	0.673000	0.934100	0.138300
C1401	C140	0.725500	0.934900	0.209700
H1021	H102	0.722000	0.936800	0.338500
C1411	C141	0.668900	0.932020	0.763800
C1421	C142	0.837500	0.959000	0.439000
H1031	H103	0.846300	0.967600	0.345400
H1041	H104	0.812000	0.960900	0.456700
C1431	C143	0.859600	0.979400	0.654000
C1441	C144	0.854200	0.994400	0.535000
H1051	H105	0.847200	0.992500	0.410100
C1451	C145	0.859300	0.012200	0.602000
H1061	H106	0.855700	0.022200	0.522500
C1461	C146	0.869800	0.014960	0.787000
C1471	C147	0.875200	0.999900	0.907000
H1071	H107	0.882200	0.001800	0.031500
C1481	C148	0.870100	0.982200	0.840000
H1081	H108	0.873700	0.972200	0.919500
C1491	C149	0.874700	0.032990	0.869000
C1501	C150	0.837000	0.926480	0.555000
H1091	H109	0.854700	0.928500	0.653800
H1101	H110	0.813300	0.929100	0.604100
C1511	C151	0.844800	0.895700	0.644000
C1521	C152	0.838700	0.898400	0.834000
H1111	H111	0.829700	0.909700	0.875600
C1531	C153	0.845700	0.884700	0.963000
H1121	H112	0.841400	0.886700	0.090600
C1541	C154	0.859100	0.867900	0.902000
C1551	C155	0.865000	0.865200	0.711000
H1131	H113	0.873700	0.854000	0.668700
C1561	C156	0.858300	0.879000	0.583000
H1141	H114	0.862700	0.877000	0.455500
C1571	C157	0.865200	0.851440	0.026000
C1581	C158	0.886000	0.935200	0.322000
H1151	H115	0.900500	0.942800	0.404400
H1161	H116	0.892400	0.922500	0.345500
C1591	C159	0.929300	0.938400	0.081000
C1601	C160	0.956100	0.930700	0.188000
H1171	H117	0.950800	0.926000	0.307100
C1611	C161	0.990700	0.930100	0.122000
H1181	H118	0.008600	0.924900	0.196000
C1621	C162	0.999000	0.937200	0.946000
C1631	C163	0.972000	0.944900	0.838000
H1191	H119	0.977300	0.949700	0.719300
C1641	C164	0.937600	0.945500	0.904000
H1201	H120	0.919600	0.950600	0.829500
C1651	C165	0.036800	0.936900	0.886000
O491	O49	0.785830	0.935280	0.267200
O501	O50	0.638400	0.932570	0.812600
O511	O51	0.677200	0.930550	0.583300
O521	O52	0.855500	0.960710	0.605000
O531	O53	0.882700	0.034710	0.032900
O541	O54	0.873900	0.046880	0.764500
O551	O55	0.839400	0.908280	0.477800
O561	O56	0.866600	0.853400	0.206000
O571	O57	0.866300	0.835590	0.956200
O581	O58	0.893800	0.939170	0.147400
O591	O59	0.059700	0.932480	0.021100
O601	O60	0.044600	0.938630	0.704500
Cd101	Cd10	0.592560	0.937270	0.034020
Cd111	Cd11	0.618560	0.430490	0.993060
C1661	C166	0.845400	0.438070	0.875000
C1671	C167	0.821900	0.436340	0.697600
H1211	H121	0.824800	0.447000	0.616200
H1221	H122	0.828000	0.425300	0.626800
C1681	C168	0.759700	0.433670	0.637500
C1691	C169	0.764800	0.431000	0.445000
H1231	H123	0.787900	0.430200	0.396700
C1701	C170	0.735600	0.429500	0.326000
H1241	H124	0.739100	0.427700	0.197000
C1711	C171	0.701300	0.430570	0.396800
C1721	C172	0.696100	0.433320	0.589700
H1251	H125	0.673000	0.434100	0.638300
C1731	C173	0.725500	0.434900	0.709700
H1261	H126	0.722000	0.436800	0.838500
C1741	C174	0.668900	0.432020	0.263800
C1751	C175	0.837500	0.459000	0.939000
H1271	H127	0.846300	0.467600	0.845400
H1281	H128	0.812000	0.460900	0.956700
C1761	C176	0.859600	0.479400	0.154000
C1771	C177	0.854200	0.494400	0.035000
H1291	H129	0.847200	0.492500	0.910100
C1781	C178	0.859300	0.512200	0.102000
H1301	H130	0.855700	0.522200	0.022500
C1791	C179	0.869800	0.514960	0.287000
C1801	C180	0.875200	0.499900	0.407000
H1311	H131	0.882200	0.501800	0.531500
C1811	C181	0.870100	0.482200	0.340000
H1321	H132	0.873700	0.472200	0.419500
C1821	C182	0.874700	0.532990	0.369000
C1831	C183	0.837000	0.426480	0.055000
H1331	H133	0.854700	0.428500	0.153800
H1341	H134	0.813300	0.429100	0.104100
C1841	C184	0.844800	0.395700	0.144000
C1851	C185	0.838700	0.398400	0.334000
H1351	H135	0.829700	0.409700	0.375600
C1861	C186	0.845700	0.384700	0.463000
H1361	H136	0.841400	0.386700	0.590600
C1871	C187	0.859100	0.367900	0.402000
C1881	C188	0.865000	0.365200	0.211000
H1371	H137	0.873700	0.354000	0.168700
C1891	C189	0.858300	0.379000	0.083000
H1381	H138	0.862700	0.377000	0.955500
C1901	C190	0.865200	0.351440	0.526000
C1911	C191	0.886000	0.435200	0.822000
H1391	H139	0.900500	0.442800	0.904400
H1401	H140	0.892400	0.422500	0.845500
C1921	C192	0.929300	0.438400	0.581000
C1931	C193	0.956100	0.430700	0.688000
H1411	H141	0.950800	0.426000	0.807100
C1941	C194	0.990700	0.430100	0.622000
H1421	H142	0.008600	0.424900	0.696000
C1951	C195	0.999000	0.437200	0.446000
C1961	C196	0.972000	0.444900	0.338000
H1431	H143	0.977300	0.449700	0.219300
C1971	C197	0.937600	0.445500	0.404000
H1441	H144	0.919600	0.450600	0.329500
C1981	C198	0.036800	0.436900	0.386000
O611	O61	0.785830	0.435280	0.767200
O621	O62	0.638400	0.432570	0.312600
O631	O63	0.677200	0.430550	0.083300
O641	O64	0.855500	0.460710	0.105000
O651	O65	0.882700	0.534710	0.532900
O661	O66	0.873900	0.546880	0.264500
O671	O67	0.839400	0.408280	0.977800
O681	O68	0.866600	0.353400	0.706000
O691	O69	0.866300	0.335590	0.456200
O701	O70	0.893800	0.439170	0.647400
O711	O71	0.059700	0.432480	0.521100
O721	O72	0.044600	0.438630	0.204500
Cd121	Cd12	0.592560	0.437270	0.534020
Cd131	Cd13	0.118560	0.930490	0.993060
C1991	C199	0.345400	0.938070	0.875000
C2001	C200	0.321900	0.936340	0.697600
H1451	H145	0.324800	0.947000	0.616200
H1461	H146	0.328000	0.925300	0.626800
C2011	C201	0.259700	0.933670	0.637500
C2021	C202	0.264800	0.931000	0.445000
H1471	H147	0.287900	0.930200	0.396700
C2031	C203	0.235600	0.929500	0.326000
H1481	H148	0.239100	0.927700	0.197000
C2041	C204	0.201300	0.930570	0.396800
C2051	C205	0.196100	0.933320	0.589700
H1491	H149	0.173000	0.934100	0.638300
C2061	C206	0.225500	0.934900	0.709700
H1501	H150	0.222000	0.936800	0.838500
C2071	C207	0.168900	0.932020	0.263800
C2081	C208	0.337500	0.959000	0.939000
H1511	H151	0.346300	0.967600	0.845400
H1521	H152	0.312000	0.960900	0.956700
C2091	C209	0.359600	0.979400	0.154000
C2101	C210	0.354200	0.994400	0.035000
H1531	H153	0.347200	0.992500	0.910100
C2111	C211	0.359300	0.012200	0.102000
H1541	H154	0.355700	0.022200	0.022500
C2121	C212	0.369800	0.014960	0.287000
C2131	C213	0.375200	0.999900	0.407000
H1551	H155	0.382200	0.001800	0.531500
C2141	C214	0.370100	0.982200	0.340000
H1561	H156	0.373700	0.972200	0.419500
C2151	C215	0.374700	0.032990	0.369000
C2161	C216	0.337000	0.926480	0.055000
H1571	H157	0.354700	0.928500	0.153800
H1581	H158	0.313300	0.929100	0.104100
C2171	C217	0.344800	0.895700	0.144000
C2181	C218	0.338700	0.898400	0.334000
H1591	H159	0.329700	0.909700	0.375600
C2191	C219	0.345700	0.884700	0.463000
H1601	H160	0.341400	0.886700	0.590600
C2201	C220	0.359100	0.867900	0.402000
C2211	C221	0.365000	0.865200	0.211000
H1611	H161	0.373700	0.854000	0.168700
C2221	C222	0.358300	0.879000	0.083000
H1621	H162	0.362700	0.877000	0.955500
C2231	C223	0.365200	0.851440	0.526000
C2241	C224	0.386000	0.935200	0.822000
H1631	H163	0.400500	0.942800	0.904400
H1641	H164	0.392400	0.922500	0.845500
C2251	C225	0.429300	0.938400	0.581000
C2261	C226	0.456100	0.930700	0.688000
H1651	H165	0.450800	0.926000	0.807100
C2271	C227	0.490700	0.930100	0.622000
H1661	H166	0.508600	0.924900	0.696000
C2281	C228	0.499000	0.937200	0.446000
C2291	C229	0.472000	0.944900	0.338000
H1671	H167	0.477300	0.949700	0.219300
C2301	C230	0.437600	0.945500	0.404000
H1681	H168	0.419600	0.950600	0.329500
C2311	C231	0.536800	0.936900	0.386000
O731	O73	0.285830	0.935280	0.767200
O741	O74	0.138400	0.932570	0.312600
O751	O75	0.177200	0.930550	0.083300
O761	O76	0.355500	0.960710	0.105000
O771	O77	0.382700	0.034710	0.532900
O781	O78	0.373900	0.046880	0.264500
O791	O79	0.339400	0.908280	0.977800
O801	O80	0.366600	0.853400	0.706000
O811	O81	0.366300	0.835590	0.456200
O821	O82	0.393800	0.939170	0.647400
O831	O83	0.559700	0.932480	0.521100
O841	O84	0.544600	0.938630	0.204500
Cd141	Cd14	0.092560	0.937270	0.534020
Cd151	Cd15	0.118560	0.430490	0.493060
C2321	C232	0.345400	0.438070	0.375000
C2331	C233	0.321900	0.436340	0.197600
H1691	H169	0.324800	0.447000	0.116200
H1701	H170	0.328000	0.425300	0.126800
C2341	C234	0.259700	0.433670	0.137500
C2351	C235	0.264800	0.431000	0.945000
H1711	H171	0.287900	0.430200	0.896700
C2361	C236	0.235600	0.429500	0.826000
H1721	H172	0.239100	0.427700	0.697000
C2371	C237	0.201300	0.430570	0.896800
C2381	C238	0.196100	0.433320	0.089700
H1731	H173	0.173000	0.434100	0.138300
C2391	C239	0.225500	0.434900	0.209700
H1741	H174	0.222000	0.436800	0.338500
C2401	C240	0.168900	0.432020	0.763800
C2411	C241	0.337500	0.459000	0.439000
H1751	H175	0.346300	0.467600	0.345400
H1761	H176	0.312000	0.460900	0.456700
C2421	C242	0.359600	0.479400	0.654000
C2431	C243	0.354200	0.494400	0.535000
H1771	H177	0.347200	0.492500	0.410100
C2441	C244	0.359300	0.512200	0.602000
H1781	H178	0.355700	0.522200	0.522500
C2451	C245	0.369800	0.514960	0.787000
C2461	C246	0.375200	0.499900	0.907000
H1791	H179	0.382200	0.501800	0.031500
C2471	C247	0.370100	0.482200	0.840000
H1801	H180	0.373700	0.472200	0.919500
C2481	C248	0.374700	0.532990	0.869000
C2491	C249	0.337000	0.426480	0.555000
H1811	H181	0.354700	0.428500	0.653800
H1821	H182	0.313300	0.429100	0.604100
C2501	C250	0.344800	0.395700	0.644000
C2511	C251	0.338700	0.398400	0.834000
H1831	H183	0.329700	0.409700	0.875600
C2521	C252	0.345700	0.384700	0.963000
H1841	H184	0.341400	0.386700	0.090600
C2531	C253	0.359100	0.367900	0.902000
C2541	C254	0.365000	0.365200	0.711000
H1851	H185	0.373700	0.354000	0.668700
C2551	C255	0.358300	0.379000	0.583000
H1861	H186	0.362700	0.377000	0.455500
C2561	C256	0.365200	0.351440	0.026000
C2571	C257	0.386000	0.435200	0.322000
H1871	H187	0.400500	0.442800	0.404400
H1881	H188	0.392400	0.422500	0.345500
C2581	C258	0.429300	0.438400	0.081000
C2591	C259	0.456100	0.430700	0.188000
H1891	H189	0.450800	0.426000	0.307100
C2601	C260	0.490700	0.430100	0.122000
H1901	H190	0.508600	0.424900	0.196000
C2611	C261	0.499000	0.437200	0.946000
C2621	C262	0.472000	0.444900	0.838000
H1911	H191	0.477300	0.449700	0.719300
C2631	C263	0.437600	0.445500	0.904000
H1921	H192	0.419600	0.450600	0.829500
C2641	C264	0.536800	0.436900	0.886000
O851	O85	0.285830	0.435280	0.267200
O861	O86	0.138400	0.432570	0.812600
O871	O87	0.177200	0.430550	0.583300
O881	O88	0.355500	0.460710	0.605000
O891	O89	0.382700	0.534710	0.032900
O901	O90	0.373900	0.546880	0.764500
O911	O91	0.339400	0.408280	0.477800
O921	O92	0.366600	0.353400	0.206000
O931	O93	0.366300	0.335590	0.956200
O941	O94	0.393800	0.439170	0.147400
O951	O95	0.559700	0.432480	0.021100
O961	O96	0.544600	0.438630	0.704500
Cd161	Cd16	0.092560	0.437270	0.034020
Cd171	Cd17	0.631440	0.180490	0.743060
C2651	C265	0.404600	0.188070	0.625000
C2661	C266	0.428100	0.186340	0.447600
H1931	H193	0.425200	0.197000	0.366200
H1941	H194	0.422000	0.175300	0.376800
C2671	C267	0.490300	0.183670	0.387500
C2681	C268	0.485200	0.181000	0.195000
H1951	H195	0.462100	0.180200	0.146700
C2691	C269	0.514400	0.179500	0.076000
H1961	H196	0.510900	0.177700	0.947000
C2701	C270	0.548700	0.180570	0.146800
C2711	C271	0.553900	0.183320	0.339700
H1971	H197	0.577000	0.184100	0.388300
C2721	C272	0.524500	0.184900	0.459700
H1981	H198	0.528000	0.186800	0.588500
C2731	C273	0.581100	0.182020	0.013800
C2741	C274	0.412500	0.209000	0.689000
H1991	H199	0.403700	0.217600	0.595400
H2001	H200	0.438000	0.210900	0.706700
C2751	C275	0.390400	0.229400	0.904000
C2761	C276	0.395800	0.244400	0.785000
H2011	H201	0.402800	0.242500	0.660100
C2771	C277	0.390700	0.262200	0.852000
H2021	H202	0.394300	0.272200	0.772500
C2781	C278	0.380200	0.264960	0.037000
C2791	C279	0.374800	0.249900	0.157000
H2031	H203	0.367800	0.251800	0.281500
C2801	C280	0.379900	0.232200	0.090000
H2041	H204	0.376300	0.222200	0.169500
C2811	C281	0.375300	0.282990	0.119000
C2821	C282	0.413000	0.176480	0.805000
H2051	H205	0.395300	0.178500	0.903800
H2061	H206	0.436700	0.179100	0.854100
C2831	C283	0.405200	0.145700	0.894000
C2841	C284	0.411300	0.148400	0.084000
H2071	H207	0.420300	0.159700	0.125600
C2851	C285	0.404300	0.134700	0.213000
H2081	H208	0.408600	0.136700	0.340600
C2861	C286	0.390900	0.117900	0.152000
C2871	C287	0.385000	0.115200	0.961000
H2091	H209	0.376300	0.104000	0.918700
C2881	C288	0.391700	0.129000	0.833000
H2101	H210	0.387300	0.127000	0.705500
C2891	C289	0.384800	0.101440	0.276000
C2901	C290	0.364000	0.185200	0.572000
H2111	H211	0.349500	0.192800	0.654400
H2121	H212	0.357600	0.172500	0.595500
C2911	C291	0.320700	0.188400	0.331000
C2921	C292	0.293900	0.180700	0.438000
H2131	H213	0.299200	0.176000	0.557100
C2931	C293	0.259300	0.180100	0.372000
H2141	H214	0.241400	0.174900	0.446000
C2941	C294	0.251000	0.187200	0.196000
C2951	C295	0.278000	0.194900	0.088000
H2151	H215	0.272700	0.199700	0.969300
C2961	C296	0.312400	0.195500	0.154000
H2161	H216	0.330400	0.200600	0.079500
C2971	C297	0.213200	0.186900	0.136000
O971	O97	0.464170	0.185280	0.517200
O981	O98	0.611600	0.182570	0.062600
O991	O99	0.572800	0.180550	0.833300
O1001	O100	0.394500	0.210710	0.855000
O1011	O101	0.367300	0.284710	0.282900
O1021	O102	0.376100	0.296880	0.014500
O1031	O103	0.410600	0.158280	0.727800
O1041	O104	0.383400	0.103400	0.456000
O1051	O105	0.383700	0.085590	0.206200
O1061	O106	0.356200	0.189170	0.397400
O1071	O107	0.190300	0.182480	0.271100
O1081	O108	0.205400	0.188630	0.954500
Cd181	Cd18	0.657440	0.187270	0.284020
Cd191	Cd19	0.631440	0.680490	0.243060
C2981	C298	0.404600	0.688070	0.125000
C2991	C299	0.428100	0.686340	0.947600
H2171	H217	0.425200	0.697000	0.866200
H2181	H218	0.422000	0.675300	0.876800
C3001	C300	0.490300	0.683670	0.887500
C3011	C301	0.485200	0.681000	0.695000
H2191	H219	0.462100	0.680200	0.646700
C3021	C302	0.514400	0.679500	0.576000
H2201	H220	0.510900	0.677700	0.447000
C3031	C303	0.548700	0.680570	0.646800
C3041	C304	0.553900	0.683320	0.839700
H2211	H221	0.577000	0.684100	0.888300
C3051	C305	0.524500	0.684900	0.959700
H2221	H222	0.528000	0.686800	0.088500
C3061	C306	0.581100	0.682020	0.513800
C3071	C307	0.412500	0.709000	0.189000
H2231	H223	0.403700	0.717600	0.095400
H2241	H224	0.438000	0.710900	0.206700
C3081	C308	0.390400	0.729400	0.404000
C3091	C309	0.395800	0.744400	0.285000
H2251	H225	0.402800	0.742500	0.160100
C3101	C310	0.390700	0.762200	0.352000
H2261	H226	0.394300	0.772200	0.272500
C3111	C311	0.380200	0.764960	0.537000
C3121	C312	0.374800	0.749900	0.657000
H2271	H227	0.367800	0.751800	0.781500
C3131	C313	0.379900	0.732200	0.590000
H2281	H228	0.376300	0.722200	0.669500
C3141	C314	0.375300	0.782990	0.619000
C3151	C315	0.413000	0.676480	0.305000
H2291	H229	0.395300	0.678500	0.403800
H2301	H230	0.436700	0.679100	0.354100
C3161	C316	0.405200	0.645700	0.394000
C3171	C317	0.411300	0.648400	0.584000
H2311	H231	0.420300	0.659700	0.625600
C3181	C318	0.404300	0.634700	0.713000
H2321	H232	0.408600	0.636700	0.840600
C3191	C319	0.390900	0.617900	0.652000
C3201	C320	0.385000	0.615200	0.461000
H2331	H233	0.376300	0.604000	0.418700
C3211	C321	0.391700	0.629000	0.333000
H2341	H234	0.387300	0.627000	0.205500
C3221	C322	0.384800	0.601440	0.776000
C3231	C323	0.364000	0.685200	0.072000
H2351	H235	0.349500	0.692800	0.154400
H2361	H236	0.357600	0.672500	0.095500
C3241	C324	0.320700	0.688400	0.831000
C3251	C325	0.293900	0.680700	0.938000
H2371	H237	0.299200	0.676000	0.057100
C3261	C326	0.259300	0.680100	0.872000
H2381	H238	0.241400	0.674900	0.946000
C3271	C327	0.251000	0.687200	0.696000
C3281	C328	0.278000	0.694900	0.588000
H2391	H239	0.272700	0.699700	0.469300
C3291	C329	0.312400	0.695500	0.654000
H2401	H240	0.330400	0.700600	0.579500
C3301	C330	0.213200	0.686900	0.636000
O1091	O109	0.464170	0.685280	0.017200
O1101	O110	0.611600	0.682570	0.562600
O1111	O111	0.572800	0.680550	0.333300
O1121	O112	0.394500	0.710710	0.355000
O1131	O113	0.367300	0.784710	0.782900
O1141	O114	0.376100	0.796880	0.514500
O1151	O115	0.410600	0.658280	0.227800
O1161	O116	0.383400	0.603400	0.956000
O1171	O117	0.383700	0.585590	0.706200
O1181	O118	0.356200	0.689170	0.897400
O1191	O119	0.190300	0.682480	0.771100
O1201	O120	0.205400	0.688630	0.454500
Cd201	Cd20	0.657440	0.687270	0.784020
Cd211	Cd21	0.131440	0.180490	0.243060
C3311	C331	0.904600	0.188070	0.125000
C3321	C332	0.928100	0.186340	0.947600
H2411	H241	0.925200	0.197000	0.866200
H2421	H242	0.922000	0.175300	0.876800
C3331	C333	0.990300	0.183670	0.887500
C3341	C334	0.985200	0.181000	0.695000
H2431	H243	0.962100	0.180200	0.646700
C3351	C335	0.014400	0.179500	0.576000
H2441	H244	0.010900	0.177700	0.447000
C3361	C336	0.048700	0.180570	0.646800
C3371	C337	0.053900	0.183320	0.839700
H2451	H245	0.077000	0.184100	0.888300
C3381	C338	0.024500	0.184900	0.959700
H2461	H246	0.028000	0.186800	0.088500
C3391	C339	0.081100	0.182020	0.513800
C3401	C340	0.912500	0.209000	0.189000
H2471	H247	0.903700	0.217600	0.095400
H2481	H248	0.938000	0.210900	0.206700
C3411	C341	0.890400	0.229400	0.404000
C3421	C342	0.895800	0.244400	0.285000
H2491	H249	0.902800	0.242500	0.160100
C3431	C343	0.890700	0.262200	0.352000
H2501	H250	0.894300	0.272200	0.272500
C3441	C344	0.880200	0.264960	0.537000
C3451	C345	0.874800	0.249900	0.657000
H2511	H251	0.867800	0.251800	0.781500
C3461	C346	0.879900	0.232200	0.590000
H2521	H252	0.876300	0.222200	0.669500
C3471	C347	0.875300	0.282990	0.619000
C3481	C348	0.913000	0.176480	0.305000
H2531	H253	0.895300	0.178500	0.403800
H2541	H254	0.936700	0.179100	0.354100
C3491	C349	0.905200	0.145700	0.394000
C3501	C350	0.911300	0.148400	0.584000
H2551	H255	0.920300	0.159700	0.625600
C3511	C351	0.904300	0.134700	0.713000
H2561	H256	0.908600	0.136700	0.840600
C3521	C352	0.890900	0.117900	0.652000
C3531	C353	0.885000	0.115200	0.461000
H2571	H257	0.876300	0.104000	0.418700
C3541	C354	0.891700	0.129000	0.333000
H2581	H258	0.887300	0.127000	0.205500
C3551	C355	0.884800	0.101440	0.776000
C3561	C356	0.864000	0.185200	0.072000
H2591	H259	0.849500	0.192800	0.154400
H2601	H260	0.857600	0.172500	0.095500
C3571	C357	0.820700	0.188400	0.831000
C3581	C358	0.793900	0.180700	0.938000
H2611	H261	0.799200	0.176000	0.057100
C3591	C359	0.759300	0.180100	0.872000
H2621	H262	0.741400	0.174900	0.946000
C3601	C360	0.751000	0.187200	0.696000
C3611	C361	0.778000	0.194900	0.588000
H2631	H263	0.772700	0.199700	0.469300
C3621	C362	0.812400	0.195500	0.654000
H2641	H264	0.830400	0.200600	0.579500
C3631	C363	0.713200	0.186900	0.636000
O1211	O121	0.964170	0.185280	0.017200
O1221	O122	0.111600	0.182570	0.562600
O1231	O123	0.072800	0.180550	0.333300
O1241	O124	0.894500	0.210710	0.355000
O1251	O125	0.867300	0.284710	0.782900
O1261	O126	0.876100	0.296880	0.514500
O1271	O127	0.910600	0.158280	0.227800
O1281	O128	0.883400	0.103400	0.956000
O1291	O129	0.883700	0.085590	0.706200
O1301	O130	0.856200	0.189170	0.897400
O1311	O131	0.690300	0.182480	0.771100
O1321	O132	0.705400	0.188630	0.454500
Cd221	Cd22	0.157440	0.187270	0.784020
Cd231	Cd23	0.131440	0.680490	0.743060
C3641	C364	0.904600	0.688070	0.625000
C3651	C365	0.928100	0.686340	0.447600
H2651	H265	0.925200	0.697000	0.366200
H2661	H266	0.922000	0.675300	0.376800
C3661	C366	0.990300	0.683670	0.387500
C3671	C367	0.985200	0.681000	0.195000
H2671	H267	0.962100	0.680200	0.146700
C3681	C368	0.014400	0.679500	0.076000
H2681	H268	0.010900	0.677700	0.947000
C3691	C369	0.048700	0.680570	0.146800
C3701	C370	0.053900	0.683320	0.339700
H2691	H269	0.077000	0.684100	0.388300
C3711	C371	0.024500	0.684900	0.459700
H2701	H270	0.028000	0.686800	0.588500
C3721	C372	0.081100	0.682020	0.013800
C3731	C373	0.912500	0.709000	0.689000
H2711	H271	0.903700	0.717600	0.595400
H2721	H272	0.938000	0.710900	0.706700
C3741	C374	0.890400	0.729400	0.904000
C3751	C375	0.895800	0.744400	0.785000
H2731	H273	0.902800	0.742500	0.660100
C3761	C376	0.890700	0.762200	0.852000
H2741	H274	0.894300	0.772200	0.772500
C3771	C377	0.880200	0.764960	0.037000
C3781	C378	0.874800	0.749900	0.157000
H2751	H275	0.867800	0.751800	0.281500
C3791	C379	0.879900	0.732200	0.090000
H2761	H276	0.876300	0.722200	0.169500
C3801	C380	0.875300	0.782990	0.119000
C3811	C381	0.913000	0.676480	0.805000
H2771	H277	0.895300	0.678500	0.903800
H2781	H278	0.936700	0.679100	0.854100
C3821	C382	0.905200	0.645700	0.894000
C3831	C383	0.911300	0.648400	0.084000
H2791	H279	0.920300	0.659700	0.125600
C3841	C384	0.904300	0.634700	0.213000
H2801	H280	0.908600	0.636700	0.340600
C3851	C385	0.890900	0.617900	0.152000
C3861	C386	0.885000	0.615200	0.961000
H2811	H281	0.876300	0.604000	0.918700
C3871	C387	0.891700	0.629000	0.833000
H2821	H282	0.887300	0.627000	0.705500
C3881	C388	0.884800	0.601440	0.276000
C3891	C389	0.864000	0.685200	0.572000
H2831	H283	0.849500	0.692800	0.654400
H2841	H284	0.857600	0.672500	0.595500
C3901	C390	0.820700	0.688400	0.331000
C3911	C391	0.793900	0.680700	0.438000
H2851	H285	0.799200	0.676000	0.557100
C3921	C392	0.759300	0.680100	0.372000
H2861	H286	0.741400	0.674900	0.446000
C3931	C393	0.751000	0.687200	0.196000
C3941	C394	0.778000	0.694900	0.088000
H2871	H287	0.772700	0.699700	0.969300
C3951	C395	0.812400	0.695500	0.154000
H2881	H288	0.830400	0.700600	0.079500
C3961	C396	0.713200	0.686900	0.136000
O1331	O133	0.964170	0.685280	0.517200
O1341	O134	0.111600	0.682570	0.062600
O1351	O135	0.072800	0.680550	0.833300
O1361	O136	0.894500	0.710710	0.855000
O1371	O137	0.867300	0.784710	0.282900
O1381	O138	0.876100	0.796880	0.014500
O1391	O139	0.910600	0.658280	0.727800
O1401	O140	0.883400	0.603400	0.456000
O1411	O141	0.883700	0.585590	0.206200
O1421	O142	0.856200	0.689170	0.397400
O1431	O143	0.690300	0.682480	0.271100
O1441	O144	0.705400	0.688630	0.954500
Cd241	Cd24	0.157440	0.687270	0.284020
Cd251	Cd25	0.868560	0.319510	0.743060
C3971	C397	0.095400	0.311930	0.625000
C3981	C398	0.071900	0.313660	0.447600
H2891	H289	0.074800	0.303000	0.366200
H2901	H290	0.078000	0.324700	0.376800
C3991	C399	0.009700	0.316330	0.387500
C4001	C400	0.014800	0.319000	0.195000
H2911	H291	0.037900	0.319800	0.146700
C4011	C401	0.985600	0.320500	0.076000
H2921	H292	0.989100	0.322300	0.947000
C4021	C402	0.951300	0.319430	0.146800
C4031	C403	0.946100	0.316680	0.339700
H2931	H293	0.923000	0.315900	0.388300
C4041	C404	0.975500	0.315100	0.459700
H2941	H294	0.972000	0.313200	0.588500
C4051	C405	0.918900	0.317980	0.013800
C4061	C406	0.087500	0.291000	0.689000
H2951	H295	0.096300	0.282400	0.595400
H2961	H296	0.062000	0.289100	0.706700
C4071	C407	0.109600	0.270600	0.904000
C4081	C408	0.104200	0.255600	0.785000
H2971	H297	0.097200	0.257500	0.660100
C4091	C409	0.109300	0.237800	0.852000
H2981	H298	0.105700	0.227800	0.772500
C4101	C410	0.119800	0.235040	0.037000
C4111	C411	0.125200	0.250100	0.157000
H2991	H299	0.132200	0.248200	0.281500
C4121	C412	0.120100	0.267800	0.090000
H3001	H300	0.123700	0.277800	0.169500
C4131	C413	0.124700	0.217010	0.119000
C4141	C414	0.087000	0.323520	0.805000
H3011	H301	0.104700	0.321500	0.903800
H3021	H302	0.063300	0.320900	0.854100
C4151	C415	0.094800	0.354300	0.894000
C4161	C416	0.088700	0.351600	0.084000
H3031	H303	0.079700	0.340300	0.125600
C4171	C417	0.095700	0.365300	0.213000
H3041	H304	0.091400	0.363300	0.340600
C4181	C418	0.109100	0.382100	0.152000
C4191	C419	0.115000	0.384800	0.961000
H3051	H305	0.123700	0.396000	0.918700
C4201	C420	0.108300	0.371000	0.833000
H3061	H306	0.112700	0.373000	0.705500
C4211	C421	0.115200	0.398560	0.276000
C4221	C422	0.136000	0.314800	0.572000
H3071	H307	0.150500	0.307200	0.654400
H3081	H308	0.142400	0.327500	0.595500
C4231	C423	0.179300	0.311600	0.331000
C4241	C424	0.206100	0.319300	0.438000
H3091	H309	0.200800	0.324000	0.557100
C4251	C425	0.240700	0.319900	0.372000
H3101	H310	0.258600	0.325100	0.446000
C4261	C426	0.249000	0.312800	0.196000
C4271	C427	0.222000	0.305100	0.088000
H3111	H311	0.227300	0.300300	0.969300
C4281	C428	0.187600	0.304500	0.154000
H3121	H312	0.169600	0.299400	0.079500
C4291	C429	0.286800	0.313100	0.136000
O1451	O145	0.035830	0.314720	0.517200
O1461	O146	0.888400	0.317430	0.062600
O1471	O147	0.927200	0.319450	0.833300
O1481	O148	0.105500	0.289290	0.855000
O1491	O149	0.132700	0.215290	0.282900
O1501	O150	0.123900	0.203120	0.014500
O1511	O151	0.089400	0.341720	0.727800
O1521	O152	0.116600	0.396600	0.456000
O1531	O153	0.116300	0.414410	0.206200
O1541	O154	0.143800	0.310830	0.397400
O1551	O155	0.309700	0.317520	0.271100
O1561	O156	0.294600	0.311370	0.954500
Cd261	Cd26	0.842560	0.312730	0.284020
Cd271	Cd27	0.868560	0.819510	0.243060
C4301	C430	0.095400	0.811930	0.125000
C4311	C431	0.071900	0.813660	0.947600
H3131	H313	0.074800	0.803000	0.866200
H3141	H314	0.078000	0.824700	0.876800
C4321	C432	0.009700	0.816330	0.887500
C4331	C433	0.014800	0.819000	0.695000
H3151	H315	0.037900	0.819800	0.646700
C4341	C434	0.985600	0.820500	0.576000
H3161	H316	0.989100	0.822300	0.447000
C4351	C435	0.951300	0.819430	0.646800
C4361	C436	0.946100	0.816680	0.839700
H3171	H317	0.923000	0.815900	0.888300
C4371	C437	0.975500	0.815100	0.959700
H3181	H318	0.972000	0.813200	0.088500
C4381	C438	0.918900	0.817980	0.513800
C4391	C439	0.087500	0.791000	0.189000
H3191	H319	0.096300	0.782400	0.095400
H3201	H320	0.062000	0.789100	0.206700
C4401	C440	0.109600	0.770600	0.404000
C4411	C441	0.104200	0.755600	0.285000
H3211	H321	0.097200	0.757500	0.160100
C4421	C442	0.109300	0.737800	0.352000
H3221	H322	0.105700	0.727800	0.272500
C4431	C443	0.119800	0.735040	0.537000
C4441	C444	0.125200	0.750100	0.657000
H3231	H323	0.132200	0.748200	0.781500
C4451	C445	0.120100	0.767800	0.590000
H3241	H324	0.123700	0.777800	0.669500
C4461	C446	0.124700	0.717010	0.619000
C4471	C447	0.087000	0.823520	0.305000
H3251	H325	0.104700	0.821500	0.403800
H3261	H326	0.063300	0.820900	0.354100
C4481	C448	0.094800	0.854300	0.394000
C4491	C449	0.088700	0.851600	0.584000
H3271	H327	0.079700	0.840300	0.625600
C4501	C450	0.095700	0.865300	0.713000
H3281	H328	0.091400	0.863300	0.840600
C4511	C451	0.109100	0.882100	0.652000
C4521	C452	0.115000	0.884800	0.461000
H3291	H329	0.123700	0.896000	0.418700
C4531	C453	0.108300	0.871000	0.333000
H3301	H330	0.112700	0.873000	0.205500
C4541	C454	0.115200	0.898560	0.776000
C4551	C455	0.136000	0.814800	0.072000
H3311	H331	0.150500	0.807200	0.154400
H3321	H332	0.142400	0.827500	0.095500
C4561	C456	0.179300	0.811600	0.831000
C4571	C457	0.206100	0.819300	0.938000
H3331	H333	0.200800	0.824000	0.057100
C4581	C458	0.240700	0.819900	0.872000
H3341	H334	0.258600	0.825100	0.946000
C4591	C459	0.249000	0.812800	0.696000
C4601	C460	0.222000	0.805100	0.588000
H3351	H335	0.227300	0.800300	0.469300
C4611	C461	0.187600	0.804500	0.654000
H3361	H336	0.169600	0.799400	0.579500
C4621	C462	0.286800	0.813100	0.636000
O1571	O157	0.035830	0.814720	0.017200
O1581	O158	0.888400	0.817430	0.562600
O1591	O159	0.927200	0.819450	0.333300
O1601	O160	0.105500	0.789290	0.355000
O1611	O161	0.132700	0.715290	0.782900
O1621	O162	0.123900	0.703120	0.514500
O1631	O163	0.089400	0.841720	0.227800
O1641	O164	0.116600	0.896600	0.956000
O1651	O165	0.116300	0.914410	0.706200
O1661	O166	0.143800	0.810830	0.897400
O1671	O167	0.309700	0.817520	0.771100
O1681	O168	0.294600	0.811370	0.454500
Cd281	Cd28	0.842560	0.812730	0.784020
Cd291	Cd29	0.368560	0.319510	0.243060
C4631	C463	0.595400	0.311930	0.125000
C4641	C464	0.571900	0.313660	0.947600
H3371	H337	0.574800	0.303000	0.866200
H3381	H338	0.578000	0.324700	0.876800
C4651	C465	0.509700	0.316330	0.887500
C4661	C466	0.514800	0.319000	0.695000
H3391	H339	0.537900	0.319800	0.646700
C4671	C467	0.485600	0.320500	0.576000
H3401	H340	0.489100	0.322300	0.447000
C4681	C468	0.451300	0.319430	0.646800
C4691	C469	0.446100	0.316680	0.839700
H3411	H341	0.423000	0.315900	0.888300
C4701	C470	0.475500	0.315100	0.959700
H3421	H342	0.472000	0.313200	0.088500
C4711	C471	0.418900	0.317980	0.513800
C4721	C472	0.587500	0.291000	0.189000
H3431	H343	0.596300	0.282400	0.095400
H3441	H344	0.562000	0.289100	0.206700
C4731	C473	0.609600	0.270600	0.404000
C4741	C474	0.604200	0.255600	0.285000
H3451	H345	0.597200	0.257500	0.160100
C4751	C475	0.609300	0.237800	0.352000
H3461	H346	0.605700	0.227800	0.272500
C4761	C476	0.619800	0.235040	0.537000
C4771	C477	0.625200	0.250100	0.657000
H3471	H347	0.632200	0.248200	0.781500
C4781	C478	0.620100	0.267800	0.590000
H3481	H348	0.623700	0.277800	0.669500
C4791	C479	0.624700	0.217010	0.619000
C4801	C480	0.587000	0.323520	0.305000
H3491	H349	0.604700	0.321500	0.403800
H3501	H350	0.563300	0.320900	0.354100
C4811	C481	0.594800	0.354300	0.394000
C4821	C482	0.588700	0.351600	0.584000
H3511	H351	0.579700	0.340300	0.625600
C4831	C483	0.595700	0.365300	0.713000
H3521	H352	0.591400	0.363300	0.840600
C4841	C484	0.609100	0.382100	0.652000
C4851	C485	0.615000	0.384800	0.461000
H3531	H353	0.623700	0.396000	0.418700
C4861	C486	0.608300	0.371000	0.333000
H3541	H354	0.612700	0.373000	0.205500
C4871	C487	0.615200	0.398560	0.776000
C4881	C488	0.636000	0.314800	0.072000
H3551	H355	0.650500	0.307200	0.154400
H3561	H356	0.642400	0.327500	0.095500
C4891	C489	0.679300	0.311600	0.831000
C4901	C490	0.706100	0.319300	0.938000
H3571	H357	0.700800	0.324000	0.057100
C4911	C491	0.740700	0.319900	0.872000
H3581	H358	0.758600	0.325100	0.946000
C4921	C492	0.749000	0.312800	0.696000
C4931	C493	0.722000	0.305100	0.588000
H3591	H359	0.727300	0.300300	0.469300
C4941	C494	0.687600	0.304500	0.654000
H3601	H360	0.669600	0.299400	0.579500
C4951	C495	0.786800	0.313100	0.636000
O1691	O169	0.535830	0.314720	0.017200
O1701	O170	0.388400	0.317430	0.562600
O1711	O171	0.427200	0.319450	0.333300
O1721	O172	0.605500	0.289290	0.355000
O1731	O173	0.632700	0.215290	0.782900
O1741	O174	0.623900	0.203120	0.514500
O1751	O175	0.589400	0.341720	0.227800
O1761	O176	0.616600	0.396600	0.956000
O1771	O177	0.616300	0.414410	0.706200
O1781	O178	0.643800	0.310830	0.897400
O1791	O179	0.809700	0.317520	0.771100
O1801	O180	0.794600	0.311370	0.454500
Cd301	Cd30	0.342560	0.312730	0.784020
Cd311	Cd31	0.368560	0.819510	0.743060
C4961	C496	0.595400	0.811930	0.625000
C4971	C497	0.571900	0.813660	0.447600
H3611	H361	0.574800	0.803000	0.366200
H3621	H362	0.578000	0.824700	0.376800
C4981	C498	0.509700	0.816330	0.387500
C4991	C499	0.514800	0.819000	0.195000
H3631	H363	0.537900	0.819800	0.146700
C5001	C500	0.485600	0.820500	0.076000
H3641	H364	0.489100	0.822300	0.947000
C5011	C501	0.451300	0.819430	0.146800
C5021	C502	0.446100	0.816680	0.339700
H3651	H365	0.423000	0.815900	0.388300
C5031	C503	0.475500	0.815100	0.459700
H3661	H366	0.472000	0.813200	0.588500
C5041	C504	0.418900	0.817980	0.013800
C5051	C505	0.587500	0.791000	0.689000
H3671	H367	0.596300	0.782400	0.595400
H3681	H368	0.562000	0.789100	0.706700
C5061	C506	0.609600	0.770600	0.904000
C5071	C507	0.604200	0.755600	0.785000
H3691	H369	0.597200	0.757500	0.660100
C5081	C508	0.609300	0.737800	0.852000
H3701	H370	0.605700	0.727800	0.772500
C5091	C509	0.619800	0.735040	0.037000
C5101	C510	0.625200	0.750100	0.157000
H3711	H371	0.632200	0.748200	0.281500
C5111	C511	0.620100	0.767800	0.090000
H3721	H372	0.623700	0.777800	0.169500
C5121	C512	0.624700	0.717010	0.119000
C5131	C513	0.587000	0.823520	0.805000
H3731	H373	0.604700	0.821500	0.903800
H3741	H374	0.563300	0.820900	0.854100
C5141	C514	0.594800	0.854300	0.894000
C5151	C515	0.588700	0.851600	0.084000
H3751	H375	0.579700	0.840300	0.125600
C5161	C516	0.595700	0.865300	0.213000
H3761	H376	0.591400	0.863300	0.340600
C5171	C517	0.609100	0.882100	0.152000
C5181	C518	0.615000	0.884800	0.961000
H3771	H377	0.623700	0.896000	0.918700
C5191	C519	0.608300	0.871000	0.833000
H3781	H378	0.612700	0.873000	0.705500
C5201	C520	0.615200	0.898560	0.276000
C5211	C521	0.636000	0.814800	0.572000
H3791	H379	0.650500	0.807200	0.654400
H3801	H380	0.642400	0.827500	0.595500
C5221	C522	0.679300	0.811600	0.331000
C5231	C523	0.706100	0.819300	0.438000
H3811	H381	0.700800	0.824000	0.557100
C5241	C524	0.740700	0.819900	0.372000
H3821	H382	0.758600	0.825100	0.446000
C5251	C525	0.749000	0.812800	0.196000
C5261	C526	0.722000	0.805100	0.088000
H3831	H383	0.727300	0.800300	0.969300
C5271	C527	0.687600	0.804500	0.154000
H3841	H384	0.669600	0.799400	0.079500
C5281	C528	0.786800	0.813100	0.136000
O1811	O181	0.535830	0.814720	0.517200
O1821	O182	0.388400	0.817430	0.062600
O1831	O183	0.427200	0.819450	0.833300
O1841	O184	0.605500	0.789290	0.855000
O1851	O185	0.632700	0.715290	0.282900
O1861	O186	0.623900	0.703120	0.014500
O1871	O187	0.589400	0.841720	0.727800
O1881	O188	0.616600	0.896600	0.456000
O1891	O189	0.616300	0.914410	0.206200
O1901	O190	0.643800	0.810830	0.397400
O1911	O191	0.809700	0.817520	0.271100
O1921	O192	0.794600	0.811370	0.954500
Cd321	Cd32	0.342560	0.812730	0.284020
