data_WIXRUQ_clean_PM
_symmetry_space_group_name_H-M	'P1'
_cell_length_a	9.131400
_cell_length_b	12.749600
_cell_length_c	14.747900
_cell_angle_alpha	89.480000
_cell_angle_beta	86.249000
_cell_angle_gamma	72.419000
_symmetry_Int_Tables_number 1

loop_
_symmetry_equiv_pos_as_xyz
'x,y,z'

loop_
_atom_site_label
_atom_site_type_symbol
_atom_site_fract_x
_atom_site_fract_y
_atom_site_fract_z
Ga11	Ga1	0.957030	0.133290	0.389840
Ga21	Ga2	0.942810	0.127960	0.139900
Ga31	Ga3	0.314590	0.307230	0.245110
Ga41	Ga4	0.943570	0.644750	0.380060
Ga51	Ga5	0.320040	0.809910	0.234240
Mn11	Mn1	0.819690	0.435320	0.256790
Mn21	Mn2	0.036840	0.299380	0.893130
P11	P1	0.673110	0.264470	0.282710
P21	P2	0.220230	0.074640	0.283120
P31	P3	0.042570	0.369380	0.399160
P41	P4	0.092100	0.326870	0.093040
P51	P5	0.686080	0.692800	0.244890
P61	P6	0.233050	0.575540	0.230190
P71	P7	0.037120	0.865900	0.394810
P81	P8	0.856800	0.120920	0.937230
O11	O1	0.646200	0.382500	0.316600
O21	O2	0.744200	0.179900	0.355300
O31	O3	0.523400	0.247300	0.258900
O41	O4	0.786700	0.251400	0.199000
O51	O5	0.051400	0.106500	0.253800
O61	O6	0.317300	0.964100	0.245200
O71	O7	0.189400	0.076400	0.387600
O81	O8	0.301600	0.157400	0.249900
O91	O9	0.939500	0.478200	0.360200
O101	O10	0.954600	0.616600	0.500100
O111	O11	0.969000	0.283900	0.372000
O121	O12	0.209000	0.345100	0.358900
O131	O13	0.975100	0.408700	0.152800
O141	O14	0.255500	0.310900	0.122900
O151	O15	0.065000	0.215400	0.088100
O161	O16	0.092800	0.369700	0.994500
O171	O17	0.693600	0.582000	0.204900
O181	O18	0.213200	0.253400	0.814500
O191	O19	0.747000	0.677200	0.339700
O201	O20	0.525400	0.772300	0.255800
O211	O21	0.331000	0.456800	0.227200
O221	O22	0.862000	0.402700	0.853300
O231	O23	0.135300	0.597400	0.319500
O241	O24	0.338600	0.648600	0.227700
O251	O25	0.929900	0.794800	0.388500
O261	O26	0.169800	0.828700	0.324200
O271	O27	0.893800	0.145700	0.514100
O281	O28	0.937700	0.983300	0.379100
O291	O29	0.989800	0.164100	0.900000
O301	O30	0.290500	0.821300	0.111300
O311	O31	0.816500	0.148400	0.037100
O321	O32	0.098800	0.001800	0.081200
Ga61	Ga6	0.042970	0.866710	0.610160
Ga71	Ga7	0.057190	0.872040	0.860100
Ga81	Ga8	0.685410	0.692770	0.754890
Ga91	Ga9	0.056430	0.355250	0.619940
Ga101	Ga10	0.679960	0.190090	0.765760
Mn31	Mn3	0.180310	0.564680	0.743210
Mn41	Mn4	0.963160	0.700620	0.106870
P91	P9	0.326890	0.735530	0.717290
P101	P10	0.779770	0.925360	0.716880
P111	P11	0.957430	0.630620	0.600840
P121	P12	0.907900	0.673130	0.906960
P131	P13	0.313920	0.307200	0.755110
P141	P14	0.766950	0.424460	0.769810
P151	P15	0.962880	0.134100	0.605190
P161	P16	0.143200	0.879080	0.062770
O331	O33	0.353800	0.617500	0.683400
O341	O34	0.255800	0.820100	0.644700
O351	O35	0.476600	0.752700	0.741100
O361	O36	0.213300	0.748600	0.801000
O371	O37	0.948600	0.893500	0.746200
O381	O38	0.682700	0.035900	0.754800
O391	O39	0.810600	0.923600	0.612400
O401	O40	0.698400	0.842600	0.750100
O411	O41	0.060500	0.521800	0.639800
O421	O42	0.045400	0.383400	0.499900
O431	O43	0.031000	0.716100	0.628000
O441	O44	0.791000	0.654900	0.641100
O451	O45	0.024900	0.591300	0.847200
O461	O46	0.744500	0.689100	0.877100
O471	O47	0.935000	0.784600	0.911900
O481	O48	0.907200	0.630300	0.005500
O491	O49	0.306400	0.418000	0.795100
O501	O50	0.786800	0.746600	0.185500
O511	O51	0.253000	0.322800	0.660300
O521	O52	0.474600	0.227700	0.744200
O531	O53	0.669000	0.543200	0.772800
O541	O54	0.138000	0.597300	0.146700
O551	O55	0.864700	0.402600	0.680500
O561	O56	0.661400	0.351400	0.772300
O571	O57	0.070100	0.205200	0.611500
O581	O58	0.830200	0.171300	0.675800
O591	O59	0.106200	0.854300	0.485900
O601	O60	0.062300	0.016700	0.620900
O611	O61	0.010200	0.835900	0.100000
O621	O62	0.709500	0.178700	0.888700
O631	O63	0.183500	0.851600	0.962900
O641	O64	0.901200	0.998200	0.918800
