data_WIYFAM_clean_PM
_symmetry_space_group_name_H-M	'P1'
_cell_length_a	11.522800
_cell_length_b	11.522800
_cell_length_c	25.769200
_cell_angle_alpha	90.000000
_cell_angle_beta	90.000000
_cell_angle_gamma	90.000000
_symmetry_Int_Tables_number 1

loop_
_symmetry_equiv_pos_as_xyz
'x,y,z'

loop_
_atom_site_label
_atom_site_type_symbol
_atom_site_fract_x
_atom_site_fract_y
_atom_site_fract_z
Zn11	Zn1	0.598610	0.598610	0.792180
Zn21	Zn2	0.401390	0.401390	0.792180
Zn31	Zn3	0.401390	0.598610	0.292180
Zn41	Zn4	0.598610	0.401390	0.292180
Zn51	Zn5	0.401390	0.598610	0.707820
Zn61	Zn6	0.598610	0.401390	0.707820
Zn71	Zn7	0.598610	0.598610	0.207820
Zn81	Zn8	0.401390	0.401390	0.207820
H11	H1	0.909500	0.715900	0.812800
H21	H2	0.827800	0.645100	0.849800
H31	H3	0.958800	0.610600	0.844400
H41	H4	0.090500	0.284100	0.812800
H51	H5	0.172200	0.354900	0.849800
H61	H6	0.041200	0.389400	0.844400
H71	H7	0.284100	0.909500	0.312800
H81	H8	0.354900	0.827800	0.349800
H91	H9	0.389400	0.958800	0.344400
H101	H10	0.715900	0.090500	0.312800
H111	H11	0.645100	0.172200	0.349800
H121	H12	0.610600	0.041200	0.344400
H131	H13	0.090500	0.715900	0.687200
H141	H14	0.172200	0.645100	0.650200
H151	H15	0.041200	0.610600	0.655600
H161	H16	0.909500	0.284100	0.687200
H171	H17	0.827800	0.354900	0.650200
H181	H18	0.958800	0.389400	0.655600
H191	H19	0.715900	0.909500	0.187200
H201	H20	0.645100	0.827800	0.150200
H211	H21	0.610600	0.958800	0.155600
H221	H22	0.284100	0.090500	0.187200
H231	H23	0.354900	0.172200	0.150200
H241	H24	0.389400	0.041200	0.155600
H251	H25	0.090500	0.284100	0.187200
H261	H26	0.172200	0.354900	0.150200
H271	H27	0.041200	0.389400	0.155600
H281	H28	0.909500	0.715900	0.187200
H291	H29	0.827800	0.645100	0.150200
H301	H30	0.958800	0.610600	0.155600
H311	H31	0.715900	0.090500	0.687200
H321	H32	0.645100	0.172200	0.650200
H331	H33	0.610600	0.041200	0.655600
H341	H34	0.284100	0.909500	0.687200
H351	H35	0.354900	0.827800	0.650200
H361	H36	0.389400	0.958800	0.655600
H371	H37	0.909500	0.284100	0.312800
H381	H38	0.827800	0.354900	0.349800
H391	H39	0.958800	0.389400	0.344400
H401	H40	0.090500	0.715900	0.312800
H411	H41	0.172200	0.645100	0.349800
H421	H42	0.041200	0.610600	0.344400
H431	H43	0.284100	0.090500	0.812800
H441	H44	0.354900	0.172200	0.849800
H451	H45	0.389400	0.041200	0.844400
H461	H46	0.715900	0.909500	0.812800
H471	H47	0.645100	0.827800	0.849800
H481	H48	0.610600	0.958800	0.844400
H491	H49	0.621100	0.621100	0.955600
H501	H50	0.378900	0.378900	0.955600
H511	H51	0.378900	0.621100	0.455600
H521	H52	0.621100	0.378900	0.455600
H531	H53	0.378900	0.621100	0.544400
H541	H54	0.621100	0.378900	0.544400
H551	H55	0.621100	0.621100	0.044400
H561	H56	0.378900	0.378900	0.044400
C11	C1	0.892300	0.640100	0.826300
C21	C2	0.862500	0.561000	0.782780
C31	C3	0.107700	0.359900	0.826300
C41	C4	0.137500	0.439000	0.782780
C51	C5	0.359900	0.892300	0.326300
C61	C6	0.439000	0.862500	0.282780
C71	C7	0.640100	0.107700	0.326300
C81	C8	0.561000	0.137500	0.282780
C91	C9	0.107700	0.640100	0.673700
C101	C10	0.137500	0.561000	0.717220
C111	C11	0.892300	0.359900	0.673700
C121	C12	0.862500	0.439000	0.717220
C131	C13	0.640100	0.892300	0.173700
C141	C14	0.561000	0.862500	0.217220
C151	C15	0.359900	0.107700	0.173700
C161	C16	0.439000	0.137500	0.217220
C171	C17	0.107700	0.359900	0.173700
C181	C18	0.137500	0.439000	0.217220
C191	C19	0.892300	0.640100	0.173700
C201	C20	0.862500	0.561000	0.217220
C211	C21	0.640100	0.107700	0.673700
C221	C22	0.561000	0.137500	0.717220
C231	C23	0.359900	0.892300	0.673700
C241	C24	0.439000	0.862500	0.717220
C251	C25	0.892300	0.359900	0.326300
C261	C26	0.862500	0.439000	0.282780
C271	C27	0.107700	0.640100	0.326300
C281	C28	0.137500	0.561000	0.282780
C291	C29	0.359900	0.107700	0.826300
C301	C30	0.439000	0.137500	0.782780
C311	C31	0.640100	0.892300	0.826300
C321	C32	0.561000	0.862500	0.782780
C331	C33	0.571400	0.571400	0.973300
C341	C34	0.428600	0.428600	0.973300
C351	C35	0.428600	0.571400	0.473300
C361	C36	0.571400	0.428600	0.473300
C371	C37	0.428600	0.571400	0.526700
C381	C38	0.571400	0.428600	0.526700
C391	C39	0.571400	0.571400	0.026700
C401	C40	0.428600	0.428600	0.026700
C411	C41	0.935200	0.500000	0.750000
C421	C42	0.064800	0.500000	0.750000
C431	C43	0.500000	0.935200	0.250000
C441	C44	0.500000	0.064800	0.250000
C451	C45	0.064800	0.500000	0.250000
C461	C46	0.935200	0.500000	0.250000
C471	C47	0.500000	0.064800	0.750000
C481	C48	0.500000	0.935200	0.750000
C491	C49	0.500000	0.500000	0.888100
C501	C50	0.500000	0.500000	0.946000
C511	C51	0.500000	0.500000	0.388100
C521	C52	0.500000	0.500000	0.446000
C531	C53	0.500000	0.500000	0.611900
C541	C54	0.500000	0.500000	0.554000
C551	C55	0.500000	0.500000	0.111900
C561	C56	0.500000	0.500000	0.054000
N11	N1	0.752300	0.538500	0.770580
N21	N2	0.247700	0.461500	0.770580
N31	N3	0.461500	0.752300	0.270580
N41	N4	0.538500	0.247700	0.270580
N51	N5	0.247700	0.538500	0.729420
N61	N6	0.752300	0.461500	0.729420
N71	N7	0.538500	0.752300	0.229420
N81	N8	0.461500	0.247700	0.229420
N91	N9	0.247700	0.461500	0.229420
N101	N10	0.752300	0.538500	0.229420
N111	N11	0.538500	0.247700	0.729420
N121	N12	0.461500	0.752300	0.729420
N131	N13	0.752300	0.461500	0.270580
N141	N14	0.247700	0.538500	0.270580
N151	N15	0.461500	0.247700	0.770580
N161	N16	0.538500	0.752300	0.770580
O11	O1	0.568400	0.568400	0.866190
O21	O2	0.431600	0.431600	0.866190
O31	O3	0.431600	0.568400	0.366190
O41	O4	0.568400	0.431600	0.366190
O51	O5	0.431600	0.568400	0.633810
O61	O6	0.568400	0.431600	0.633810
O71	O7	0.568400	0.568400	0.133810
O81	O8	0.431600	0.431600	0.133810
O91	O9	0.500000	0.500000	0.750000
O101	O10	0.500000	0.500000	0.250000
