data_WIYWUY_clean_PM
_symmetry_space_group_name_H-M	'P1'
_cell_length_a	13.076900
_cell_length_b	26.567300
_cell_length_c	13.157900
_cell_angle_alpha	90.000000
_cell_angle_beta	116.588000
_cell_angle_gamma	90.000000
_symmetry_Int_Tables_number 1

loop_
_symmetry_equiv_pos_as_xyz
'x,y,z'

loop_
_atom_site_label
_atom_site_type_symbol
_atom_site_fract_x
_atom_site_fract_y
_atom_site_fract_z
Dy11	Dy1	0.180230	0.994550	0.080210
O11	O1	0.116500	0.933600	0.934900
O21	O2	0.309300	0.947700	0.219800
O31	O3	0.066700	0.045800	0.126500
O41	O4	0.109400	0.047500	0.929700
O51	O5	0.074900	0.934900	0.126300
O61	O6	0.307000	0.061000	0.167300
C11	C1	0.012400	0.924600	0.883000
C21	C2	0.377900	0.919500	0.297000
C31	C3	0.980100	0.872700	0.828800
C41	C4	0.396000	0.867300	0.263600
O71	O7	0.431500	0.931500	0.397600
C51	C5	0.876700	0.851400	0.816600
C61	C6	0.054100	0.845500	0.801300
C71	C7	0.478500	0.836100	0.343900
C81	C8	0.331600	0.849400	0.152900
Dy21	Dy2	0.546250	0.993020	0.496230
H11	H1	0.827100	0.870100	0.834800
C91	C9	0.849400	0.803100	0.777600
H21	H2	0.122600	0.859800	0.810300
C101	C10	0.026200	0.797100	0.760400
H31	H3	0.522400	0.847800	0.417400
C111	C11	0.495100	0.788300	0.314900
H41	H4	0.277600	0.870400	0.098900
C121	C12	0.346200	0.801900	0.122500
O81	O8	0.686000	0.926500	0.499000
O91	O9	0.610000	0.967900	0.349000
O101	O10	0.426600	0.044500	0.347200
H51	H5	0.781000	0.788900	0.768900
C131	C13	0.924400	0.775400	0.751100
C141	C14	0.090200	0.760600	0.719300
C151	C15	0.429200	0.770800	0.204100
C161	C16	0.581600	0.748500	0.388000
H61	H6	0.302000	0.790200	0.049000
N11	N1	0.689000	0.936800	0.406000
C171	C17	0.921400	0.722700	0.716600
C181	C18	0.090500	0.780100	0.610000
C191	C19	0.212200	0.751300	0.810100
C201	C20	0.018100	0.713200	0.696700
C211	C21	0.462500	0.719200	0.197100
C221	C22	0.704200	0.766800	0.429800
C231	C23	0.559500	0.733000	0.488200
C241	C24	0.553300	0.705500	0.302300
O111	O11	0.737000	0.910400	0.371000
C251	C25	0.844800	0.683900	0.700900
H71	H7	0.121100	0.755000	0.579400
H81	H8	0.011500	0.787000	0.557400
H91	H9	0.135800	0.809900	0.623500
H101	H10	0.246400	0.725300	0.785400
H111	H11	0.256400	0.781400	0.821500
H121	H12	0.212100	0.741700	0.879600
C261	C26	0.037200	0.666100	0.665100
C271	C27	0.422200	0.684700	0.106400
H131	H13	0.715700	0.778000	0.367000
H141	H14	0.718900	0.793700	0.481900
H151	H15	0.756600	0.739800	0.466800
H161	H16	0.606600	0.704700	0.525100
H171	H17	0.579500	0.760300	0.540200
H181	H18	0.479200	0.724800	0.462100
C281	C28	0.602100	0.658400	0.317200
H191	H19	0.782200	0.689500	0.715200
C291	C29	0.860500	0.637500	0.664400
H201	H20	0.102000	0.659800	0.655100
C301	C30	0.958200	0.628400	0.648600
H211	H21	0.364500	0.693900	0.035800
C311	C31	0.467900	0.638100	0.122800
H221	H22	0.661900	0.649500	0.386700
C321	C32	0.561400	0.624400	0.227500
H231	H23	0.806700	0.612200	0.650300
C331	C33	0.976800	0.576200	0.614500
H241	H24	0.437700	0.614600	0.064400
C341	C34	0.615200	0.573400	0.242000
Dy31	Dy3	0.819770	0.494550	0.419790
O121	O12	0.883500	0.433600	0.565100
O131	O13	0.690700	0.447700	0.280200
O141	O14	0.933300	0.545800	0.373500
O151	O15	0.890600	0.547500	0.570300
O161	O16	0.925100	0.434900	0.373700
O171	O17	0.693000	0.561000	0.332700
C351	C35	0.987600	0.424600	0.617000
C361	C36	0.622100	0.419500	0.203000
C371	C37	0.019900	0.372700	0.671200
C381	C38	0.604000	0.367300	0.236400
O181	O18	0.568500	0.431500	0.102400
C391	C39	0.123300	0.351400	0.683400
C401	C40	0.945900	0.345500	0.698700
C411	C41	0.521500	0.336100	0.156100
C421	C42	0.668400	0.349400	0.347100
Dy41	Dy4	0.453750	0.493020	0.003770
H251	H25	0.172900	0.370100	0.665200
C431	C43	0.150600	0.303100	0.722400
H261	H26	0.877400	0.359800	0.689700
C441	C44	0.973800	0.297100	0.739600
H271	H27	0.477600	0.347800	0.082600
C451	C45	0.504900	0.288300	0.185100
H281	H28	0.722400	0.370400	0.401100
C461	C46	0.653800	0.301900	0.377500
O191	O19	0.314000	0.426500	0.001000
O201	O20	0.390000	0.467900	0.151000
O211	O21	0.573400	0.544500	0.152800
H291	H29	0.219000	0.288900	0.731100
C471	C47	0.075600	0.275400	0.748900
C481	C48	0.909800	0.260600	0.780700
C491	C49	0.570800	0.270800	0.295900
C501	C50	0.418400	0.248500	0.112000
H301	H30	0.698000	0.290200	0.451000
N21	N2	0.311000	0.436800	0.094000
C511	C51	0.078600	0.222700	0.783400
C521	C52	0.909500	0.280100	0.890000
C531	C53	0.787800	0.251300	0.689900
C541	C54	0.981900	0.213200	0.803300
C551	C55	0.537500	0.219200	0.302900
C561	C56	0.295800	0.266800	0.070200
C571	C57	0.440500	0.233000	0.011800
C581	C58	0.446700	0.205500	0.197700
O221	O22	0.263000	0.410400	0.129000
C591	C59	0.155200	0.183900	0.799100
H311	H31	0.878900	0.255000	0.920600
H321	H32	0.988500	0.287000	0.942600
H331	H33	0.864200	0.309900	0.876500
H341	H34	0.753600	0.225300	0.714600
H351	H35	0.743600	0.281400	0.678500
H361	H36	0.787900	0.241700	0.620400
C601	C60	0.962800	0.166100	0.834900
C611	C61	0.577800	0.184700	0.393600
H371	H37	0.284300	0.278000	0.133000
H381	H38	0.281100	0.293700	0.018100
H391	H39	0.243400	0.239800	0.033200
H401	H40	0.393400	0.204700	0.974900
H411	H41	0.420500	0.260300	0.959800
H421	H42	0.520800	0.224800	0.037900
C621	C62	0.397900	0.158400	0.182800
H431	H43	0.217800	0.189500	0.784800
C631	C63	0.139500	0.137500	0.835600
H441	H44	0.898000	0.159800	0.844900
C641	C64	0.041800	0.128400	0.851400
H451	H45	0.635500	0.193900	0.464200
C651	C65	0.532100	0.138100	0.377200
H461	H46	0.338100	0.149500	0.113300
C661	C66	0.438600	0.124400	0.272500
H471	H47	0.193300	0.112200	0.849700
C671	C67	0.023200	0.076200	0.885500
H481	H48	0.562300	0.114600	0.435600
C681	C68	0.384800	0.073400	0.258000
Dy51	Dy5	0.819770	0.005450	0.919790
O231	O23	0.883500	0.066400	0.065100
O241	O24	0.690700	0.052300	0.780200
O251	O25	0.933300	0.954200	0.873500
O261	O26	0.890600	0.952500	0.070300
O271	O27	0.925100	0.065100	0.873700
O281	O28	0.693000	0.939000	0.832700
C691	C69	0.987600	0.075400	0.117000
C701	C70	0.622100	0.080500	0.703000
C711	C71	0.019900	0.127300	0.171200
C721	C72	0.604000	0.132700	0.736400
O291	O29	0.568500	0.068500	0.602400
C731	C73	0.123300	0.148600	0.183400
C741	C74	0.945900	0.154500	0.198700
C751	C75	0.521500	0.163900	0.656100
C761	C76	0.668400	0.150600	0.847100
Dy61	Dy6	0.453750	0.006980	0.503770
H491	H49	0.172900	0.129900	0.165200
C771	C77	0.150600	0.196900	0.222400
H501	H50	0.877400	0.140200	0.189700
C781	C78	0.973800	0.202900	0.239600
H511	H51	0.477600	0.152200	0.582600
C791	C79	0.504900	0.211700	0.685100
H521	H52	0.722400	0.129600	0.901100
C801	C80	0.653800	0.198100	0.877500
O301	O30	0.314000	0.073500	0.501000
O311	O31	0.390000	0.032100	0.651000
O321	O32	0.573400	0.955500	0.652800
H531	H53	0.219000	0.211100	0.231100
C811	C81	0.075600	0.224600	0.248900
C821	C82	0.909800	0.239400	0.280700
C831	C83	0.570800	0.229200	0.795900
C841	C84	0.418400	0.251500	0.612000
H541	H54	0.698000	0.209800	0.951000
N31	N3	0.311000	0.063200	0.594000
C851	C85	0.078600	0.277300	0.283400
C861	C86	0.909500	0.219900	0.390000
C871	C87	0.787800	0.248700	0.189900
C881	C88	0.981900	0.286800	0.303300
C891	C89	0.537500	0.280800	0.802900
C901	C90	0.295800	0.233200	0.570200
C911	C91	0.440500	0.267000	0.511800
C921	C92	0.446700	0.294500	0.697700
O331	O33	0.263000	0.089600	0.629000
C931	C93	0.155200	0.316100	0.299100
H551	H55	0.878900	0.245000	0.420600
H561	H56	0.988500	0.213000	0.442600
H571	H57	0.864200	0.190100	0.376500
H581	H58	0.753600	0.274700	0.214600
H591	H59	0.743600	0.218600	0.178500
H601	H60	0.787900	0.258300	0.120400
C941	C94	0.962800	0.333900	0.334900
C951	C95	0.577800	0.315300	0.893600
H611	H61	0.284300	0.222000	0.633000
H621	H62	0.281100	0.206300	0.518100
H631	H63	0.243400	0.260200	0.533200
H641	H64	0.393400	0.295300	0.474900
H651	H65	0.420500	0.239700	0.459800
H661	H66	0.520800	0.275200	0.537900
C961	C96	0.397900	0.341600	0.682800
H671	H67	0.217800	0.310500	0.284800
C971	C97	0.139500	0.362500	0.335600
H681	H68	0.898000	0.340200	0.344900
C981	C98	0.041800	0.371600	0.351400
H691	H69	0.635500	0.306100	0.964200
C991	C99	0.532100	0.361900	0.877200
H701	H70	0.338100	0.350500	0.613300
C1001	C100	0.438600	0.375600	0.772500
H711	H71	0.193300	0.387800	0.349700
C1011	C101	0.023200	0.423800	0.385500
H721	H72	0.562300	0.385400	0.935600
C1021	C102	0.384800	0.426600	0.758000
Dy71	Dy7	0.180230	0.505450	0.580210
O341	O34	0.116500	0.566400	0.434900
O351	O35	0.309300	0.552300	0.719800
O361	O36	0.066700	0.454200	0.626500
O371	O37	0.109400	0.452500	0.429700
O381	O38	0.074900	0.565100	0.626300
O391	O39	0.307000	0.439000	0.667300
C1031	C103	0.012400	0.575400	0.383000
C1041	C104	0.377900	0.580500	0.797000
C1051	C105	0.980100	0.627300	0.328800
C1061	C106	0.396000	0.632700	0.763600
O401	O40	0.431500	0.568500	0.897600
C1071	C107	0.876700	0.648600	0.316600
C1081	C108	0.054100	0.654500	0.301300
C1091	C109	0.478500	0.663900	0.843900
C1101	C110	0.331600	0.650600	0.652900
Dy81	Dy8	0.546250	0.506980	0.996230
H731	H73	0.827100	0.629900	0.334800
C1111	C111	0.849400	0.696900	0.277600
H741	H74	0.122600	0.640200	0.310300
C1121	C112	0.026200	0.702900	0.260400
H751	H75	0.522400	0.652200	0.917400
C1131	C113	0.495100	0.711700	0.814900
H761	H76	0.277600	0.629600	0.598900
C1141	C114	0.346200	0.698100	0.622500
O411	O41	0.686000	0.573500	0.999000
O421	O42	0.610000	0.532100	0.849000
O431	O43	0.426600	0.455500	0.847200
H771	H77	0.781000	0.711100	0.268900
C1151	C115	0.924400	0.724600	0.251100
C1161	C116	0.090200	0.739400	0.219300
C1171	C117	0.429200	0.729200	0.704100
C1181	C118	0.581600	0.751500	0.888000
H781	H78	0.302000	0.709800	0.549000
N41	N4	0.689000	0.563200	0.906000
C1191	C119	0.921400	0.777300	0.216600
C1201	C120	0.090500	0.719900	0.110000
C1211	C121	0.212200	0.748700	0.310100
C1221	C122	0.018100	0.786800	0.196700
C1231	C123	0.462500	0.780800	0.697100
C1241	C124	0.704200	0.733200	0.929800
C1251	C125	0.559500	0.767000	0.988200
C1261	C126	0.553300	0.794500	0.802300
O441	O44	0.737000	0.589600	0.871000
C1271	C127	0.844800	0.816100	0.200900
H791	H79	0.121100	0.745000	0.079400
H801	H80	0.011500	0.713000	0.057400
H811	H81	0.135800	0.690100	0.123500
H821	H82	0.246400	0.774700	0.285400
H831	H83	0.256400	0.718600	0.321500
H841	H84	0.212100	0.758300	0.379600
C1281	C128	0.037200	0.833900	0.165100
C1291	C129	0.422200	0.815300	0.606400
H851	H85	0.715700	0.722000	0.867000
H861	H86	0.718900	0.706300	0.981900
H871	H87	0.756600	0.760200	0.966800
H881	H88	0.606600	0.795300	0.025100
H891	H89	0.579500	0.739700	0.040200
H901	H90	0.479200	0.775200	0.962100
C1301	C130	0.602100	0.841600	0.817200
H911	H91	0.782200	0.810500	0.215200
C1311	C131	0.860500	0.862500	0.164400
H921	H92	0.102000	0.840200	0.155100
C1321	C132	0.958200	0.871600	0.148600
H931	H93	0.364500	0.806100	0.535800
C1331	C133	0.467900	0.861900	0.622800
H941	H94	0.661900	0.850500	0.886700
C1341	C134	0.561400	0.875600	0.727500
H951	H95	0.806700	0.887800	0.150300
C1351	C135	0.976800	0.923800	0.114500
H961	H96	0.437700	0.885400	0.564400
C1361	C136	0.615200	0.926600	0.742000
