data_WIYZOU_clean_PM
_symmetry_space_group_name_H-M	'P1'
_cell_length_a	11.376800
_cell_length_b	12.616200
_cell_length_c	15.340100
_cell_angle_alpha	91.539000
_cell_angle_beta	90.000000
_cell_angle_gamma	90.000000
_symmetry_Int_Tables_number 1

loop_
_symmetry_equiv_pos_as_xyz
'x,y,z'

loop_
_atom_site_label
_atom_site_type_symbol
_atom_site_fract_x
_atom_site_fract_y
_atom_site_fract_z
Co11	Co1	0.900040	0.287660	0.771220
Co21	Co2	0.998030	0.505990	0.707580
Co31	Co3	0.400040	0.712340	0.728780
Co41	Co4	0.498030	0.494010	0.792420
Co51	Co5	0.099960	0.712340	0.228780
Co61	Co6	0.001970	0.494010	0.292420
Co71	Co7	0.599960	0.287660	0.271220
Co81	Co8	0.501970	0.505990	0.207580
Co91	Co9	0.000000	0.000000	0.000000
Co101	Co10	0.500000	0.000000	0.500000
H11	H1	0.074000	0.320000	0.064000
H21	H2	0.574000	0.680000	0.436000
H31	H3	0.926000	0.680000	0.936000
H41	H4	0.426000	0.320000	0.564000
C11	C1	0.111900	0.317900	0.929480
C21	C2	0.152800	0.378900	0.861090
C31	C3	0.193600	0.482500	0.878210
C41	C4	0.189000	0.527400	0.962260
C51	C5	0.140500	0.467400	0.029330
C61	C6	0.107200	0.363200	0.012990
C71	C7	0.063100	0.208300	0.915620
C81	C8	0.152100	0.334600	0.768730
C91	C9	0.233800	0.549200	0.804200
C101	C10	0.233300	0.640000	0.977500
C111	C11	0.108800	0.516700	0.115860
C121	C12	0.611900	0.682100	0.570520
C131	C13	0.652800	0.621100	0.638910
C141	C14	0.693600	0.517500	0.621790
C151	C15	0.689000	0.472600	0.537740
C161	C16	0.640500	0.532600	0.470670
C171	C17	0.607200	0.636800	0.487010
C181	C18	0.563100	0.791700	0.584380
C191	C19	0.652100	0.665400	0.731270
C201	C20	0.733800	0.450800	0.695800
C211	C21	0.733300	0.360000	0.522500
C221	C22	0.608800	0.483300	0.384140
C231	C23	0.888100	0.682100	0.070520
C241	C24	0.847200	0.621100	0.138910
C251	C25	0.806400	0.517500	0.121790
C261	C26	0.811000	0.472600	0.037740
C271	C27	0.859500	0.532600	0.970670
C281	C28	0.892800	0.636800	0.987010
C291	C29	0.936900	0.791700	0.084380
C301	C30	0.847900	0.665400	0.231270
C311	C31	0.766200	0.450800	0.195800
C321	C32	0.766700	0.360000	0.022500
C331	C33	0.891200	0.483300	0.884140
C341	C34	0.388100	0.317900	0.429480
C351	C35	0.347200	0.378900	0.361090
C361	C36	0.306400	0.482500	0.378210
C371	C37	0.311000	0.527400	0.462260
C381	C38	0.359500	0.467400	0.529330
C391	C39	0.392800	0.363200	0.512990
C401	C40	0.436900	0.208300	0.415620
C411	C41	0.347900	0.334600	0.268730
C421	C42	0.266200	0.549200	0.304200
C431	C43	0.266700	0.640000	0.477500
C441	C44	0.391200	0.516700	0.615860
O11	O1	0.078810	0.145650	0.976670
O21	O2	0.008110	0.185200	0.845680
O31	O3	0.057580	0.348490	0.724480
O41	O4	0.240480	0.289100	0.740030
O51	O5	0.165900	0.564970	0.742400
O61	O6	0.336910	0.588930	0.810840
O71	O7	0.181430	0.712780	0.938250
O81	O8	0.322750	0.653480	0.024590
O91	O9	0.070450	0.456530	0.173730
O101	O10	0.115960	0.616120	0.122300
O111	O11	0.578810	0.854350	0.523330
O121	O12	0.508110	0.814800	0.654320
O131	O13	0.557580	0.651510	0.775520
O141	O14	0.740480	0.710900	0.759970
O151	O15	0.665900	0.435030	0.757600
O161	O16	0.836910	0.411070	0.689160
O171	O17	0.681430	0.287220	0.561750
O181	O18	0.822750	0.346520	0.475410
O191	O19	0.570450	0.543470	0.326270
O201	O20	0.615960	0.383880	0.377700
O211	O21	0.921190	0.854350	0.023330
O221	O22	0.991890	0.814800	0.154320
O231	O23	0.942420	0.651510	0.275520
O241	O24	0.759520	0.710900	0.259970
O251	O25	0.834100	0.435030	0.257600
O261	O26	0.663090	0.411070	0.189160
O271	O27	0.818570	0.287220	0.061750
O281	O28	0.677250	0.346520	0.975410
O291	O29	0.929550	0.543470	0.826270
O301	O30	0.884040	0.383880	0.877700
O311	O31	0.421190	0.145650	0.476670
O321	O32	0.491890	0.185200	0.345680
O331	O33	0.442420	0.348490	0.224480
O341	O34	0.259520	0.289100	0.240030
O351	O35	0.334100	0.564970	0.242400
O361	O36	0.163090	0.588930	0.310840
O371	O37	0.318570	0.712780	0.438250
O381	O38	0.177250	0.653480	0.524590
O391	O39	0.429550	0.456530	0.673730
O401	O40	0.384040	0.616120	0.622300
