data_WOBCAT_clean_PM
_symmetry_space_group_name_H-M	'P1'
_cell_length_a	7.649700
_cell_length_b	8.736400
_cell_length_c	10.006400
_cell_angle_alpha	86.498000
_cell_angle_beta	89.456000
_cell_angle_gamma	85.135000
_symmetry_Int_Tables_number 1

loop_
_symmetry_equiv_pos_as_xyz
'x,y,z'

loop_
_atom_site_label
_atom_site_type_symbol
_atom_site_fract_x
_atom_site_fract_y
_atom_site_fract_z
La11	La1	0.430490	0.115320	0.169020
O11	O1	0.125500	0.242570	0.136910
O21	O2	0.425700	0.361080	0.279720
O31	O3	0.598800	0.724300	0.045950
O41	O4	0.698200	0.033980	0.006630
O51	O5	0.497500	0.831800	0.231940
N11	N1	0.568700	0.543000	0.372900
N21	N2	0.971000	0.352900	0.962500
O61	O6	0.714300	0.246000	0.113000
C11	C1	0.913600	0.205100	0.931100
H11	H1	0.013600	0.125400	0.940100
H21	H2	0.872400	0.210600	0.837300
C21	C2	0.463900	0.429600	0.379900
C31	C3	0.612400	0.624300	0.489600
H31	H3	0.573500	0.734700	0.472400
H41	H4	0.741700	0.616100	0.498500
C41	C4	0.119100	0.511600	0.109200
H51	H5	0.095800	0.518800	0.206200
H61	H6	0.247100	0.515200	0.095300
C51	C5	0.766000	0.160300	0.024600
C61	C6	0.069100	0.359500	0.069600
C71	C7	0.658500	0.582600	0.248700
H71	H7	0.661200	0.494000	0.191300
H81	H8	0.781400	0.599500	0.269500
C81	C8	0.575600	0.725500	0.169600
La21	La2	0.569510	0.884680	0.830980
O71	O7	0.874500	0.757430	0.863090
O81	O8	0.574300	0.638920	0.720280
O91	O9	0.401200	0.275700	0.954050
O101	O10	0.301800	0.966020	0.993370
O111	O11	0.502500	0.168200	0.768060
N31	N3	0.431300	0.457000	0.627100
N41	N4	0.029000	0.647100	0.037500
O121	O12	0.285700	0.754000	0.887000
C91	C9	0.086400	0.794900	0.068900
H91	H9	0.986400	0.874600	0.059900
H101	H10	0.127600	0.789400	0.162700
C101	C10	0.536100	0.570400	0.620100
C111	C11	0.387600	0.375700	0.510400
H111	H11	0.426500	0.265300	0.527600
H121	H12	0.258300	0.383900	0.501500
C121	C12	0.880900	0.488400	0.890800
H131	H13	0.904200	0.481200	0.793800
H141	H14	0.752900	0.484800	0.904700
C131	C13	0.234000	0.839700	0.975400
C141	C14	0.930900	0.640500	0.930400
C151	C15	0.341500	0.417400	0.751300
H151	H15	0.338800	0.506000	0.808700
H161	H16	0.218600	0.400500	0.730500
C161	C16	0.424400	0.274500	0.830400
