data_WOBFOK_clean_PM
_symmetry_space_group_name_H-M	'P1'
_cell_length_a	13.206300
_cell_length_b	11.278400
_cell_length_c	15.333400
_cell_angle_alpha	90.000000
_cell_angle_beta	103.854000
_cell_angle_gamma	90.000000
_symmetry_Int_Tables_number 1

loop_
_symmetry_equiv_pos_as_xyz
'x,y,z'

loop_
_atom_site_label
_atom_site_type_symbol
_atom_site_fract_x
_atom_site_fract_y
_atom_site_fract_z
Cd11	Cd1	0.195190	0.820760	0.179100
O11	O1	0.309900	0.700200	0.291900
O21	O2	0.137600	0.624200	0.170990
O31	O3	0.321400	0.525100	0.360370
O41	O4	0.161300	0.444600	0.234160
O51	O5	0.009600	0.844000	0.138940
O61	O6	0.868600	0.856700	0.193560
O71	O7	0.129600	0.795900	0.014020
O81	O8	0.171000	0.713300	0.895710
C11	C1	0.281300	0.596000	0.299100
C21	C2	0.184600	0.551000	0.228100
C31	C3	0.965000	0.849100	0.201400
C41	C4	0.191600	0.752400	0.973900
Cd21	Cd2	0.695190	0.320760	0.179100
O91	O9	0.809900	0.200200	0.291900
O101	O10	0.637600	0.124200	0.170990
O111	O11	0.821400	0.025100	0.360370
O121	O12	0.661300	0.944600	0.234160
O131	O13	0.509600	0.344000	0.138940
O141	O14	0.368600	0.356700	0.193560
O151	O15	0.629600	0.295900	0.014020
O161	O16	0.671000	0.213300	0.895710
C51	C5	0.781300	0.096000	0.299100
C61	C6	0.684600	0.051000	0.228100
C71	C7	0.465000	0.349100	0.201400
C81	C8	0.691600	0.252400	0.973900
Cd31	Cd3	0.804810	0.820760	0.320900
O171	O17	0.690100	0.700200	0.208100
O181	O18	0.862400	0.624200	0.329010
O191	O19	0.678600	0.525100	0.139630
O201	O20	0.838700	0.444600	0.265840
O211	O21	0.990400	0.844000	0.361060
O221	O22	0.131400	0.856700	0.306440
O231	O23	0.870400	0.795900	0.485980
O241	O24	0.829000	0.713300	0.604290
C91	C9	0.718700	0.596000	0.200900
C101	C10	0.815400	0.551000	0.271900
C111	C11	0.035000	0.849100	0.298600
C121	C12	0.808400	0.752400	0.526100
Cd41	Cd4	0.304810	0.320760	0.320900
O251	O25	0.190100	0.200200	0.208100
O261	O26	0.362400	0.124200	0.329010
O271	O27	0.178600	0.025100	0.139630
O281	O28	0.338700	0.944600	0.265840
O291	O29	0.490400	0.344000	0.361060
O301	O30	0.631400	0.356700	0.306440
O311	O31	0.370400	0.295900	0.485980
O321	O32	0.329000	0.213300	0.604290
C131	C13	0.218700	0.096000	0.200900
C141	C14	0.315400	0.051000	0.271900
C151	C15	0.535000	0.349100	0.298600
C161	C16	0.308400	0.252400	0.526100
Cd51	Cd5	0.804810	0.179240	0.820900
O331	O33	0.690100	0.299800	0.708100
O341	O34	0.862400	0.375800	0.829010
O351	O35	0.678600	0.474900	0.639630
O361	O36	0.838700	0.555400	0.765840
O371	O37	0.990400	0.156000	0.861060
O381	O38	0.131400	0.143300	0.806440
O391	O39	0.870400	0.204100	0.985980
O401	O40	0.829000	0.286700	0.104290
C171	C17	0.718700	0.404000	0.700900
C181	C18	0.815400	0.449000	0.771900
C191	C19	0.035000	0.150900	0.798600
C201	C20	0.808400	0.247600	0.026100
Cd61	Cd6	0.304810	0.679240	0.820900
O411	O41	0.190100	0.799800	0.708100
O421	O42	0.362400	0.875800	0.829010
O431	O43	0.178600	0.974900	0.639630
O441	O44	0.338700	0.055400	0.765840
O451	O45	0.490400	0.656000	0.861060
O461	O46	0.631400	0.643300	0.806440
O471	O47	0.370400	0.704100	0.985980
O481	O48	0.329000	0.786700	0.104290
C211	C21	0.218700	0.904000	0.700900
C221	C22	0.315400	0.949000	0.771900
C231	C23	0.535000	0.650900	0.798600
C241	C24	0.308400	0.747600	0.026100
Cd71	Cd7	0.195190	0.179240	0.679100
O491	O49	0.309900	0.299800	0.791900
O501	O50	0.137600	0.375800	0.670990
O511	O51	0.321400	0.474900	0.860370
O521	O52	0.161300	0.555400	0.734160
O531	O53	0.009600	0.156000	0.638940
O541	O54	0.868600	0.143300	0.693560
O551	O55	0.129600	0.204100	0.514020
O561	O56	0.171000	0.286700	0.395710
C251	C25	0.281300	0.404000	0.799100
C261	C26	0.184600	0.449000	0.728100
C271	C27	0.965000	0.150900	0.701400
C281	C28	0.191600	0.247600	0.473900
Cd81	Cd8	0.695190	0.679240	0.679100
O571	O57	0.809900	0.799800	0.791900
O581	O58	0.637600	0.875800	0.670990
O591	O59	0.821400	0.974900	0.860370
O601	O60	0.661300	0.055400	0.734160
O611	O61	0.509600	0.656000	0.638940
O621	O62	0.368600	0.643300	0.693560
O631	O63	0.629600	0.704100	0.514020
O641	O64	0.671000	0.786700	0.395710
C291	C29	0.781300	0.904000	0.799100
C301	C30	0.684600	0.949000	0.728100
C311	C31	0.465000	0.650900	0.701400
C321	C32	0.691600	0.747600	0.473900
