data_WOBHEB01_clean_PM
_symmetry_space_group_name_H-M	'P1'
_cell_length_a	6.646700
_cell_length_b	15.292000
_cell_length_c	15.292000
_cell_angle_alpha	62.062200
_cell_angle_beta	81.669400
_cell_angle_gamma	98.330600
_symmetry_Int_Tables_number 1

loop_
_symmetry_equiv_pos_as_xyz
'x,y,z'

loop_
_atom_site_label
_atom_site_type_symbol
_atom_site_fract_x
_atom_site_fract_y
_atom_site_fract_z
Zn11	Zn1	0.615900	0.313740	0.425010
Zn21	Zn2	0.040910	0.425010	0.261250
Zn31	Zn3	0.302160	0.261250	0.313740
Zn41	Zn4	0.384100	0.686260	0.574990
Zn51	Zn5	0.959090	0.574990	0.738750
Zn61	Zn6	0.697840	0.738750	0.686260
H11	H1	0.282530	0.445680	0.574260
H21	H2	0.856790	0.574260	0.980060
H31	H3	0.836850	0.980060	0.445680
H41	H4	0.717470	0.554320	0.425740
H51	H5	0.143210	0.425740	0.019940
H61	H6	0.163150	0.019940	0.554320
C11	C1	0.236740	0.392970	0.434850
C21	C2	0.115950	0.445590	0.467340
C31	C3	0.941310	0.473040	0.427890
C41	C4	0.167780	0.468360	0.544380
C51	C5	0.671590	0.434850	0.172180
C61	C6	0.583290	0.467340	0.087070
C71	C7	0.369200	0.427890	0.099070
C81	C8	0.712160	0.544380	0.987260
C91	C9	0.843770	0.172180	0.392970
C101	C10	0.670360	0.087070	0.445590
C111	C11	0.468270	0.099070	0.473040
C121	C12	0.699420	0.987260	0.468360
C131	C13	0.763260	0.607030	0.565150
C141	C14	0.884050	0.554410	0.532660
C151	C15	0.058690	0.526960	0.572110
C161	C16	0.832220	0.531640	0.455620
C171	C17	0.328410	0.565150	0.827820
C181	C18	0.416710	0.532660	0.912930
C191	C19	0.630800	0.572110	0.900930
C201	C20	0.287840	0.455620	0.012740
C211	C21	0.156230	0.827820	0.607030
C221	C22	0.329640	0.912930	0.554410
C231	C23	0.531730	0.900930	0.526960
C241	C24	0.300580	0.012740	0.531640
O11	O1	0.378180	0.359350	0.479170
O21	O2	0.175410	0.360470	0.378380
O31	O3	0.870410	0.437680	0.366490
O41	O4	0.857350	0.479170	0.161480
O51	O5	0.553790	0.378380	0.261150
O61	O6	0.236900	0.366490	0.195830
O71	O7	0.018830	0.161480	0.359350
O81	O8	0.814940	0.261150	0.360470
O91	O9	0.432730	0.195830	0.437680
O101	O10	0.621820	0.640650	0.520830
O111	O11	0.824590	0.639530	0.621620
O121	O12	0.129590	0.562320	0.633510
O131	O13	0.142650	0.520830	0.838520
O141	O14	0.446210	0.621620	0.738850
O151	O15	0.763100	0.633510	0.804170
O161	O16	0.981170	0.838520	0.640650
O171	O17	0.185060	0.738850	0.639530
O181	O18	0.567270	0.804170	0.562320
