data_WOBQEL_clean_PM
_symmetry_space_group_name_H-M	'P1'
_cell_length_a	6.997000
_cell_length_b	25.483100
_cell_length_c	28.264200
_cell_angle_alpha	90.000000
_cell_angle_beta	92.712000
_cell_angle_gamma	90.000000
_symmetry_Int_Tables_number 1

loop_
_symmetry_equiv_pos_as_xyz
'x,y,z'

loop_
_atom_site_label
_atom_site_type_symbol
_atom_site_fract_x
_atom_site_fract_y
_atom_site_fract_z
Mn11	Mn1	0.200600	0.930680	0.248340
Mn21	Mn2	0.653690	0.533320	0.735330
O11	O1	0.878100	0.584100	0.768250
O21	O2	0.467700	0.898280	0.222330
O31	O3	0.539200	0.472570	0.206300
O41	O4	0.124300	0.621500	0.804060
O51	O5	0.208300	0.864400	0.188670
O61	O6	0.833300	0.014990	0.808370
C11	C1	0.990700	0.759300	0.041600
C21	C2	0.062600	0.786200	0.958700
O71	O7	0.542700	0.979500	0.801400
C31	C3	0.355400	0.712600	0.958200
O81	O8	0.828400	0.502600	0.203080
C41	C4	0.284100	0.686800	0.042200
C51	C5	0.096300	0.753600	0.000500
C61	C6	0.384200	0.868200	0.190800
C71	C7	0.246000	0.717600	0.999000
C81	C8	0.713900	0.979600	0.816600
C91	C9	0.508000	0.674900	0.961000
C101	C10	0.948700	0.612100	0.801200
C111	C11	0.831200	0.632800	0.839600
C121	C12	0.020000	0.727200	0.082300
H11	H1	0.940200	0.729700	0.107600
C131	C13	0.327600	0.743700	0.916400
H21	H2	0.403600	0.739900	0.890500
C141	C14	0.443000	0.650800	0.038200
C151	C15	0.182500	0.689400	0.083200
H31	H3	0.214000	0.668800	0.109600
C161	C16	0.804500	0.824800	0.124300
H41	H4	0.937400	0.825700	0.127500
C171	C17	0.861600	0.860900	0.920400
C181	C18	0.622000	0.663500	0.917500
C191	C19	0.591300	0.542800	0.153600
C201	C20	0.910300	0.822200	0.961700
C211	C21	0.494700	0.613400	0.080800
C221	C22	0.952900	0.931100	0.867700
H51	H5	0.048200	0.952400	0.856300
C231	C23	0.166300	0.783100	0.917100
H61	H6	0.136500	0.804500	0.891100
C241	C24	0.772800	0.937300	0.851200
C251	C25	0.697400	0.839500	0.163400
H71	H7	0.757500	0.847600	0.192500
C261	C26	0.718900	0.809200	0.081800
C271	C27	0.551500	0.646700	0.000300
H81	H8	0.656600	0.624300	0.001200
C281	C28	0.504200	0.841300	0.157000
C291	C29	0.653800	0.504800	0.190400
C301	C30	0.797900	0.826200	0.999200
H91	H9	0.693500	0.848800	0.997900
C311	C31	0.531700	0.647600	0.872800
H101	H10	0.398900	0.647500	0.869300
C321	C32	0.636900	0.632900	0.835700
H111	H11	0.575000	0.622800	0.807300
C331	C33	0.922400	0.648200	0.882300
H121	H12	0.055400	0.648200	0.885100
C341	C34	0.631700	0.904700	0.869600
H131	H13	0.505600	0.908300	0.858200
C351	C35	0.419900	0.821900	0.114300
H141	H14	0.287400	0.818500	0.111900
C361	C36	0.838200	0.796700	0.039300
C371	C37	0.678200	0.611200	0.098700
H151	H15	0.768400	0.634200	0.087300
C381	C38	0.001000	0.893000	0.901700
H161	H16	0.128200	0.889000	0.912100
C391	C39	0.356900	0.579900	0.099700
H171	H17	0.230700	0.581700	0.087900
C401	C40	0.519200	0.808100	0.077000
H181	H18	0.457100	0.797900	0.048700
C411	C41	0.820100	0.663500	0.920300
H191	H19	0.884800	0.673900	0.948200
C421	C42	0.406500	0.544000	0.136000
H201	H20	0.315300	0.521600	0.147700
C431	C43	0.673300	0.868600	0.903100
H211	H21	0.575500	0.848500	0.915000
C441	C44	0.733200	0.575700	0.133400
H221	H22	0.861100	0.573000	0.143700
Mn31	Mn3	0.799400	0.430680	0.251660
Mn41	Mn4	0.346310	0.033320	0.764670
O91	O9	0.121900	0.084100	0.731750
O101	O10	0.532300	0.398280	0.277670
O111	O11	0.460800	0.972570	0.293700
O121	O12	0.875700	0.121500	0.695940
O131	O13	0.791700	0.364400	0.311330
O141	O14	0.166700	0.514990	0.691630
C451	C45	0.009300	0.259300	0.458400
C461	C46	0.937400	0.286200	0.541300
O151	O15	0.457300	0.479500	0.698600
C471	C47	0.644600	0.212600	0.541800
O161	O16	0.171600	0.002600	0.296920
C481	C48	0.715900	0.186800	0.457800
C491	C49	0.903700	0.253600	0.499500
C501	C50	0.615800	0.368200	0.309200
C511	C51	0.754000	0.217600	0.501000
C521	C52	0.286100	0.479600	0.683400
C531	C53	0.492000	0.174900	0.539000
C541	C54	0.051300	0.112100	0.698800
C551	C55	0.168800	0.132800	0.660400
C561	C56	0.980000	0.227200	0.417700
H231	H23	0.059800	0.229700	0.392400
C571	C57	0.672400	0.243700	0.583600
H241	H24	0.596400	0.239900	0.609500
C581	C58	0.557000	0.150800	0.461800
C591	C59	0.817500	0.189400	0.416800
H251	H25	0.786000	0.168800	0.390400
C601	C60	0.195500	0.324800	0.375700
H261	H26	0.062600	0.325700	0.372500
C611	C61	0.138400	0.360900	0.579600
C621	C62	0.378000	0.163500	0.582500
C631	C63	0.408700	0.042800	0.346400
C641	C64	0.089700	0.322200	0.538300
C651	C65	0.505300	0.113400	0.419200
C661	C66	0.047100	0.431100	0.632300
H271	H27	0.951800	0.452400	0.643700
C671	C67	0.833700	0.283100	0.582900
H281	H28	0.863500	0.304500	0.608900
C681	C68	0.227200	0.437300	0.648800
C691	C69	0.302600	0.339500	0.336600
H291	H29	0.242500	0.347600	0.307500
C701	C70	0.281100	0.309200	0.418200
C711	C71	0.448500	0.146700	0.499700
H301	H30	0.343400	0.124300	0.498800
C721	C72	0.495800	0.341300	0.343000
C731	C73	0.346200	0.004800	0.309600
C741	C74	0.202100	0.326200	0.500800
H311	H31	0.306500	0.348800	0.502100
C751	C75	0.468300	0.147600	0.627200
H321	H32	0.601100	0.147500	0.630700
C761	C76	0.363100	0.132900	0.664300
H331	H33	0.425000	0.122800	0.692700
C771	C77	0.077600	0.148200	0.617700
H341	H34	0.944600	0.148200	0.614900
C781	C78	0.368300	0.404700	0.630400
H351	H35	0.494400	0.408300	0.641800
C791	C79	0.580100	0.321900	0.385700
H361	H36	0.712600	0.318500	0.388100
C801	C80	0.161800	0.296700	0.460700
C811	C81	0.321800	0.111200	0.401300
H371	H37	0.231600	0.134200	0.412700
C821	C82	0.999000	0.393000	0.598300
H381	H38	0.871800	0.389000	0.587900
C831	C83	0.643100	0.079900	0.400300
H391	H39	0.769300	0.081700	0.412100
C841	C84	0.480800	0.308100	0.423000
H401	H40	0.542900	0.297900	0.451300
C851	C85	0.179900	0.163500	0.579700
H411	H41	0.115200	0.173900	0.551800
C861	C86	0.593500	0.044000	0.364000
H421	H42	0.684700	0.021600	0.352300
C871	C87	0.326700	0.368600	0.596900
H431	H43	0.424500	0.348500	0.585000
C881	C88	0.266800	0.075700	0.366600
H441	H44	0.138900	0.073000	0.356300
Mn51	Mn5	0.799400	0.069320	0.751660
Mn61	Mn6	0.346310	0.466680	0.264670
O171	O17	0.121900	0.415900	0.231750
O181	O18	0.532300	0.101720	0.777670
O191	O19	0.460800	0.527430	0.793700
O201	O20	0.875700	0.378500	0.195940
O211	O21	0.791700	0.135600	0.811330
O221	O22	0.166700	0.985010	0.191630
C891	C89	0.009300	0.240700	0.958400
C901	C90	0.937400	0.213800	0.041300
O231	O23	0.457300	0.020500	0.198600
C911	C91	0.644600	0.287400	0.041800
O241	O24	0.171600	0.497400	0.796920
C921	C92	0.715900	0.313200	0.957800
C931	C93	0.903700	0.246400	0.999500
C941	C94	0.615800	0.131800	0.809200
C951	C95	0.754000	0.282400	0.001000
C961	C96	0.286100	0.020400	0.183400
C971	C97	0.492000	0.325100	0.039000
C981	C98	0.051300	0.387900	0.198800
C991	C99	0.168800	0.367200	0.160400
C1001	C100	0.980000	0.272800	0.917700
H451	H45	0.059800	0.270300	0.892400
C1011	C101	0.672400	0.256300	0.083600
H461	H46	0.596400	0.260100	0.109500
C1021	C102	0.557000	0.349200	0.961800
C1031	C103	0.817500	0.310600	0.916800
H471	H47	0.786000	0.331200	0.890400
C1041	C104	0.195500	0.175200	0.875700
H481	H48	0.062600	0.174300	0.872500
C1051	C105	0.138400	0.139100	0.079600
C1061	C106	0.378000	0.336500	0.082500
C1071	C107	0.408700	0.457200	0.846400
C1081	C108	0.089700	0.177800	0.038300
C1091	C109	0.505300	0.386600	0.919200
C1101	C110	0.047100	0.068900	0.132300
H491	H49	0.951800	0.047600	0.143700
C1111	C111	0.833700	0.216900	0.082900
H501	H50	0.863500	0.195500	0.108900
C1121	C112	0.227200	0.062700	0.148800
C1131	C113	0.302600	0.160500	0.836600
H511	H51	0.242500	0.152400	0.807500
C1141	C114	0.281100	0.190800	0.918200
C1151	C115	0.448500	0.353300	0.999700
H521	H52	0.343400	0.375700	0.998800
C1161	C116	0.495800	0.158700	0.843000
C1171	C117	0.346200	0.495200	0.809600
C1181	C118	0.202100	0.173800	0.000800
H531	H53	0.306500	0.151200	0.002100
C1191	C119	0.468300	0.352400	0.127200
H541	H54	0.601100	0.352500	0.130700
C1201	C120	0.363100	0.367100	0.164300
H551	H55	0.425000	0.377200	0.192700
C1211	C121	0.077600	0.351800	0.117700
H561	H56	0.944600	0.351800	0.114900
C1221	C122	0.368300	0.095300	0.130400
H571	H57	0.494400	0.091700	0.141800
C1231	C123	0.580100	0.178100	0.885700
H581	H58	0.712600	0.181500	0.888100
C1241	C124	0.161800	0.203300	0.960700
C1251	C125	0.321800	0.388800	0.901300
H591	H59	0.231600	0.365800	0.912700
C1261	C126	0.999000	0.107000	0.098300
H601	H60	0.871800	0.111000	0.087900
C1271	C127	0.643100	0.420100	0.900300
H611	H61	0.769300	0.418300	0.912100
C1281	C128	0.480800	0.191900	0.923000
H621	H62	0.542900	0.202100	0.951300
C1291	C129	0.179900	0.336500	0.079700
H631	H63	0.115200	0.326100	0.051800
C1301	C130	0.593500	0.456000	0.864000
H641	H64	0.684700	0.478400	0.852300
C1311	C131	0.326700	0.131400	0.096900
H651	H65	0.424500	0.151500	0.085000
C1321	C132	0.266800	0.424300	0.866600
H661	H66	0.138900	0.427000	0.856300
Mn71	Mn7	0.200600	0.569320	0.748340
Mn81	Mn8	0.653690	0.966680	0.235330
O251	O25	0.878100	0.915900	0.268250
O261	O26	0.467700	0.601720	0.722330
O271	O27	0.539200	0.027430	0.706300
O281	O28	0.124300	0.878500	0.304060
O291	O29	0.208300	0.635600	0.688670
O301	O30	0.833300	0.485010	0.308370
C1331	C133	0.990700	0.740700	0.541600
C1341	C134	0.062600	0.713800	0.458700
O311	O31	0.542700	0.520500	0.301400
C1351	C135	0.355400	0.787400	0.458200
O321	O32	0.828400	0.997400	0.703080
C1361	C136	0.284100	0.813200	0.542200
C1371	C137	0.096300	0.746400	0.500500
C1381	C138	0.384200	0.631800	0.690800
C1391	C139	0.246000	0.782400	0.499000
C1401	C140	0.713900	0.520400	0.316600
C1411	C141	0.508000	0.825100	0.461000
C1421	C142	0.948700	0.887900	0.301200
C1431	C143	0.831200	0.867200	0.339600
C1441	C144	0.020000	0.772800	0.582300
H671	H67	0.940200	0.770300	0.607600
C1451	C145	0.327600	0.756300	0.416400
H681	H68	0.403600	0.760100	0.390500
C1461	C146	0.443000	0.849200	0.538200
C1471	C147	0.182500	0.810600	0.583200
H691	H69	0.214000	0.831200	0.609600
C1481	C148	0.804500	0.675200	0.624300
H701	H70	0.937400	0.674300	0.627500
C1491	C149	0.861600	0.639100	0.420400
C1501	C150	0.622000	0.836500	0.417500
C1511	C151	0.591300	0.957200	0.653600
C1521	C152	0.910300	0.677800	0.461700
C1531	C153	0.494700	0.886600	0.580800
C1541	C154	0.952900	0.568900	0.367700
H711	H71	0.048200	0.547600	0.356300
C1551	C155	0.166300	0.716900	0.417100
H721	H72	0.136500	0.695500	0.391100
C1561	C156	0.772800	0.562700	0.351200
C1571	C157	0.697400	0.660500	0.663400
H731	H73	0.757500	0.652400	0.692500
C1581	C158	0.718900	0.690800	0.581800
C1591	C159	0.551500	0.853300	0.500300
H741	H74	0.656600	0.875700	0.501200
C1601	C160	0.504200	0.658700	0.657000
C1611	C161	0.653800	0.995200	0.690400
C1621	C162	0.797900	0.673800	0.499200
H751	H75	0.693500	0.651200	0.497900
C1631	C163	0.531700	0.852400	0.372800
H761	H76	0.398900	0.852500	0.369300
C1641	C164	0.636900	0.867100	0.335700
H771	H77	0.575000	0.877200	0.307300
C1651	C165	0.922400	0.851800	0.382300
H781	H78	0.055400	0.851800	0.385100
C1661	C166	0.631700	0.595300	0.369600
H791	H79	0.505600	0.591700	0.358200
C1671	C167	0.419900	0.678100	0.614300
H801	H80	0.287400	0.681500	0.611900
C1681	C168	0.838200	0.703300	0.539300
C1691	C169	0.678200	0.888800	0.598700
H811	H81	0.768400	0.865800	0.587300
C1701	C170	0.001000	0.607000	0.401700
H821	H82	0.128200	0.611000	0.412100
C1711	C171	0.356900	0.920100	0.599700
H831	H83	0.230700	0.918300	0.587900
C1721	C172	0.519200	0.691900	0.577000
H841	H84	0.457100	0.702100	0.548700
C1731	C173	0.820100	0.836500	0.420300
H851	H85	0.884800	0.826100	0.448200
C1741	C174	0.406500	0.956000	0.636000
H861	H86	0.315300	0.978400	0.647700
C1751	C175	0.673300	0.631400	0.403100
H871	H87	0.575500	0.651500	0.415000
C1761	C176	0.733200	0.924300	0.633400
H881	H88	0.861100	0.927000	0.643700
