data_WOCGIG_clean_PM
_symmetry_space_group_name_H-M	'P1'
_cell_length_a	9.359100
_cell_length_b	9.312800
_cell_length_c	15.165500
_cell_angle_alpha	90.000000
_cell_angle_beta	92.505000
_cell_angle_gamma	90.000000
_symmetry_Int_Tables_number 1

loop_
_symmetry_equiv_pos_as_xyz
'x,y,z'

loop_
_atom_site_label
_atom_site_type_symbol
_atom_site_fract_x
_atom_site_fract_y
_atom_site_fract_z
Be11	Be1	0.916400	0.905600	0.617000
Be21	Be2	0.332800	0.997300	0.679400
P11	P1	0.636970	0.025480	0.638340
P21	P2	0.108890	0.139040	0.576060
P31	P3	0.348470	0.239260	0.814250
O11	O1	0.754200	0.916300	0.648810
O21	O2	0.637600	0.095100	0.544750
H11	H1	0.672900	0.038900	0.510200
O31	O3	0.669600	0.157100	0.699310
H21	H2	0.598600	0.176400	0.726900
O41	O4	0.495000	0.961100	0.655360
O51	O5	0.251700	0.059200	0.588650
O61	O6	0.075500	0.169800	0.478940
O71	O7	0.990000	0.061100	0.619640
O81	O8	0.124500	0.293400	0.616990
H31	H3	0.160900	0.287600	0.667000
O91	O9	0.327500	0.107900	0.758950
O101	O10	0.238100	0.350000	0.785470
O111	O11	0.321000	0.197600	0.912810
H41	H4	0.386700	0.228000	0.945200
O121	O12	0.501600	0.294500	0.811940
Be31	Be3	0.583600	0.405600	0.883000
Be41	Be4	0.167200	0.497300	0.820600
P41	P4	0.863030	0.525480	0.861660
P51	P5	0.391110	0.639040	0.923940
P61	P6	0.151530	0.739260	0.685750
O131	O13	0.745800	0.416300	0.851190
O141	O14	0.862400	0.595100	0.955250
H51	H5	0.827100	0.538900	0.989800
O151	O15	0.830400	0.657100	0.800690
H61	H6	0.901400	0.676400	0.773100
O161	O16	0.005000	0.461100	0.844640
O171	O17	0.248300	0.559200	0.911350
O181	O18	0.424500	0.669800	0.021060
O191	O19	0.510000	0.561100	0.880360
O201	O20	0.375500	0.793400	0.883010
H71	H7	0.339100	0.787600	0.833000
O211	O21	0.172500	0.607900	0.741050
O221	O22	0.261900	0.850000	0.714530
O231	O23	0.179000	0.697600	0.587190
H81	H8	0.113300	0.728000	0.554800
O241	O24	0.998400	0.794500	0.688060
Be51	Be5	0.083600	0.094400	0.383000
Be61	Be6	0.667200	0.002700	0.320600
P71	P7	0.363030	0.974520	0.361660
P81	P8	0.891110	0.860960	0.423940
P91	P9	0.651530	0.760740	0.185750
O251	O25	0.245800	0.083700	0.351190
O261	O26	0.362400	0.904900	0.455250
H91	H9	0.327100	0.961100	0.489800
O271	O27	0.330400	0.842900	0.300690
H101	H10	0.401400	0.823600	0.273100
O281	O28	0.505000	0.038900	0.344640
O291	O29	0.748300	0.940800	0.411350
O301	O30	0.924500	0.830200	0.521060
O311	O31	0.010000	0.938900	0.380360
O321	O32	0.875500	0.706600	0.383010
H111	H11	0.839100	0.712400	0.333000
O331	O33	0.672500	0.892100	0.241050
O341	O34	0.761900	0.650000	0.214530
O351	O35	0.679000	0.802400	0.087190
H121	H12	0.613300	0.772000	0.054800
O361	O36	0.498400	0.705500	0.188060
Be71	Be7	0.416400	0.594400	0.117000
Be81	Be8	0.832800	0.502700	0.179400
P101	P10	0.136970	0.474520	0.138340
P111	P11	0.608890	0.360960	0.076060
P121	P12	0.848470	0.260740	0.314250
O371	O37	0.254200	0.583700	0.148810
O381	O38	0.137600	0.404900	0.044750
H131	H13	0.172900	0.461100	0.010200
O391	O39	0.169600	0.342900	0.199310
H141	H14	0.098600	0.323600	0.226900
O401	O40	0.995000	0.538900	0.155360
O411	O41	0.751700	0.440800	0.088650
O421	O42	0.575500	0.330200	0.978940
O431	O43	0.490000	0.438900	0.119640
O441	O44	0.624500	0.206600	0.116990
H151	H15	0.660900	0.212400	0.167000
O451	O45	0.827500	0.392100	0.258950
O461	O46	0.738100	0.150000	0.285470
O471	O47	0.821000	0.302400	0.412810
H161	H16	0.886700	0.272000	0.445200
O481	O48	0.001600	0.205500	0.311940
