data_WODFOL_clean_PM
_symmetry_space_group_name_H-M	'P1'
_cell_length_a	6.914900
_cell_length_b	22.113000
_cell_length_c	7.720900
_cell_angle_alpha	90.000000
_cell_angle_beta	90.000000
_cell_angle_gamma	90.000000
_symmetry_Int_Tables_number 1

loop_
_symmetry_equiv_pos_as_xyz
'x,y,z'

loop_
_atom_site_label
_atom_site_type_symbol
_atom_site_fract_x
_atom_site_fract_y
_atom_site_fract_z
Co11	Co1	0.541700	0.287480	0.757750
Co21	Co2	0.458300	0.712520	0.757750
Co31	Co3	0.041700	0.212520	0.242250
Co41	Co4	0.958300	0.787480	0.242250
H11	H1	0.337100	0.196400	0.860800
H21	H2	0.388500	0.184700	0.675400
H31	H3	0.557400	0.125400	0.898100
H41	H4	0.647900	0.112300	0.618600
H51	H5	0.841200	0.123500	0.726400
H61	H6	0.492000	0.424200	0.662300
H71	H7	0.680600	0.511600	0.636900
H81	H8	0.156800	0.416000	0.773400
H91	H9	0.968200	0.328600	0.798800
H101	H10	0.662900	0.803600	0.860800
H111	H11	0.611500	0.815300	0.675400
H121	H12	0.442600	0.874600	0.898100
H131	H13	0.352100	0.887700	0.618600
H141	H14	0.158800	0.876500	0.726400
H151	H15	0.508000	0.575800	0.662300
H161	H16	0.319400	0.488400	0.636900
H171	H17	0.843200	0.584000	0.773400
H181	H18	0.031800	0.671400	0.798800
H191	H19	0.837100	0.303600	0.139200
H201	H20	0.888500	0.315300	0.324600
H211	H21	0.057400	0.374600	0.101900
H221	H22	0.147900	0.387700	0.381400
H231	H23	0.341200	0.376500	0.273600
H241	H24	0.992000	0.075800	0.337700
H251	H25	0.180600	0.988400	0.363100
H261	H26	0.656800	0.084000	0.226600
H271	H27	0.468200	0.171400	0.201200
H281	H28	0.162900	0.696400	0.139200
H291	H29	0.111500	0.684700	0.324600
H301	H30	0.942600	0.625400	0.101900
H311	H31	0.852100	0.612300	0.381400
H321	H32	0.658800	0.623500	0.273600
H331	H33	0.008000	0.924200	0.337700
H341	H34	0.819400	0.011600	0.363100
H351	H35	0.343200	0.916000	0.226600
H361	H36	0.531800	0.828600	0.201200
C11	C1	0.731300	0.198700	0.959200
C21	C2	0.604200	0.162400	0.836400
C31	C3	0.722200	0.143300	0.683000
C41	C4	0.784000	0.194500	0.550400
C51	C5	0.627000	0.422600	0.684900
C61	C6	0.739000	0.474500	0.669700
C71	C7	0.936500	0.472000	0.702700
C81	C8	0.021900	0.417700	0.750800
C91	C9	0.910000	0.365800	0.766000
C101	C10	0.268700	0.801300	0.959200
C111	C11	0.395800	0.837600	0.836400
C121	C12	0.277800	0.856700	0.683000
C131	C13	0.216000	0.805500	0.550400
C141	C14	0.373000	0.577400	0.684900
C151	C15	0.261000	0.525500	0.669700
C161	C16	0.063500	0.528000	0.702700
C171	C17	0.978100	0.582300	0.750800
C181	C18	0.090000	0.634200	0.766000
C191	C19	0.231300	0.301300	0.040800
C201	C20	0.104200	0.337600	0.163600
C211	C21	0.222200	0.356700	0.317000
C221	C22	0.284000	0.305500	0.449600
C231	C23	0.127000	0.077400	0.315100
C241	C24	0.239000	0.025500	0.330300
C251	C25	0.436500	0.028000	0.297300
C261	C26	0.521900	0.082300	0.249200
C271	C27	0.410000	0.134200	0.234000
C281	C28	0.768700	0.698700	0.040800
C291	C29	0.895800	0.662400	0.163600
C301	C30	0.777800	0.643300	0.317000
C311	C31	0.716000	0.694500	0.449600
C321	C32	0.873000	0.922600	0.315100
C331	C33	0.761000	0.974500	0.330300
C341	C34	0.563500	0.972000	0.297300
C351	C35	0.478100	0.917700	0.249200
C361	C36	0.590000	0.865800	0.234000
N11	N1	0.434700	0.198300	0.780100
N21	N2	0.712000	0.368200	0.733000
N31	N3	0.565300	0.801700	0.780100
N41	N4	0.288000	0.631800	0.733000
N51	N5	0.934700	0.301700	0.219900
N61	N6	0.212000	0.131800	0.267000
N71	N7	0.065300	0.698300	0.219900
N81	N8	0.788000	0.868200	0.267000
O11	O1	0.843700	0.170800	0.061500
O21	O2	0.704000	0.255100	0.963300
O31	O3	0.746400	0.247000	0.581400
O41	O4	0.885600	0.172900	0.433200
O51	O5	0.156300	0.829200	0.061500
O61	O6	0.296000	0.744900	0.963300
O71	O7	0.253600	0.753000	0.581400
O81	O8	0.114400	0.827100	0.433200
O91	O9	0.343700	0.329200	0.938500
O101	O10	0.204000	0.244900	0.036700
O111	O11	0.246400	0.253000	0.418600
O121	O12	0.385600	0.327100	0.566800
O131	O13	0.656300	0.670800	0.938500
O141	O14	0.796000	0.755100	0.036700
O151	O15	0.753600	0.747000	0.418600
O161	O16	0.614400	0.672900	0.566800
