data_WODQUD_clean_PM
_symmetry_space_group_name_H-M	'P1'
_cell_length_a	8.332800
_cell_length_b	17.508900
_cell_length_c	7.938400
_cell_angle_alpha	90.000000
_cell_angle_beta	109.247000
_cell_angle_gamma	90.000000
_symmetry_Int_Tables_number 1

loop_
_symmetry_equiv_pos_as_xyz
'x,y,z'

loop_
_atom_site_label
_atom_site_type_symbol
_atom_site_fract_x
_atom_site_fract_y
_atom_site_fract_z
Sm11	Sm1	0.280880	0.522180	0.256800
N11	N1	0.968000	0.765100	0.110000
N21	N2	0.876300	0.829100	0.077900
H11	H1	0.909300	0.872600	0.127800
O11	O1	0.085200	0.618600	0.124800
O21	O2	0.848200	0.581100	0.922900
O31	O3	0.615000	0.935900	0.997800
O41	O4	0.469200	0.868200	0.763400
O51	O5	0.521300	0.458000	0.204600
O61	O6	0.700100	0.457100	0.047100
C11	C1	0.938900	0.629700	0.017600
C21	C2	0.872900	0.708500	0.009800
C31	C3	0.715200	0.739000	0.909900
H21	H2	0.624200	0.713100	0.830100
C41	C4	0.722700	0.814800	0.954100
C51	C5	0.593700	0.876500	0.902200
C61	C6	0.565200	0.474900	0.072000
Sm21	Sm2	0.719120	0.022180	0.243200
N31	N3	0.032000	0.265100	0.390000
N41	N4	0.123700	0.329100	0.422100
H31	H3	0.090700	0.372600	0.372200
O71	O7	0.914800	0.118600	0.375200
O81	O8	0.151800	0.081100	0.577100
O91	O9	0.385000	0.435900	0.502200
O101	O10	0.530800	0.368200	0.736600
O111	O11	0.478700	0.958000	0.295400
O121	O12	0.299900	0.957100	0.452900
C71	C7	0.061100	0.129700	0.482400
C81	C8	0.127100	0.208500	0.490200
C91	C9	0.284800	0.239000	0.590100
H41	H4	0.375800	0.213100	0.669900
C101	C10	0.277300	0.314800	0.545900
C111	C11	0.406300	0.376500	0.597800
C121	C12	0.434800	0.974900	0.428000
Sm31	Sm3	0.719120	0.477820	0.743200
N51	N5	0.032000	0.234900	0.890000
N61	N6	0.123700	0.170900	0.922100
H51	H5	0.090700	0.127400	0.872200
O131	O13	0.914800	0.381400	0.875200
O141	O14	0.151800	0.418900	0.077100
O151	O15	0.385000	0.064100	0.002200
O161	O16	0.530800	0.131800	0.236600
O171	O17	0.478700	0.542000	0.795400
O181	O18	0.299900	0.542900	0.952900
C131	C13	0.061100	0.370300	0.982400
C141	C14	0.127100	0.291500	0.990200
C151	C15	0.284800	0.261000	0.090100
H61	H6	0.375800	0.286900	0.169900
C161	C16	0.277300	0.185200	0.045900
C171	C17	0.406300	0.123500	0.097800
C181	C18	0.434800	0.525100	0.928000
Sm41	Sm4	0.280880	0.977820	0.756800
N71	N7	0.968000	0.734900	0.610000
N81	N8	0.876300	0.670900	0.577900
H71	H7	0.909300	0.627400	0.627800
O191	O19	0.085200	0.881400	0.624800
O201	O20	0.848200	0.918900	0.422900
O211	O21	0.615000	0.564100	0.497800
O221	O22	0.469200	0.631800	0.263400
O231	O23	0.521300	0.042000	0.704600
O241	O24	0.700100	0.042900	0.547100
C191	C19	0.938900	0.870300	0.517600
C201	C20	0.872900	0.791500	0.509800
C211	C21	0.715200	0.761000	0.409900
H81	H8	0.624200	0.786900	0.330100
C221	C22	0.722700	0.685200	0.454100
C231	C23	0.593700	0.623500	0.402200
C241	C24	0.565200	0.025100	0.572000
