data_WODRAK_clean_PM
_symmetry_space_group_name_H-M	'P1'
_cell_length_a	8.298300
_cell_length_b	17.365200
_cell_length_c	7.834700
_cell_angle_alpha	90.000000
_cell_angle_beta	108.510000
_cell_angle_gamma	90.000000
_symmetry_Int_Tables_number 1

loop_
_symmetry_equiv_pos_as_xyz
'x,y,z'

loop_
_atom_site_label
_atom_site_type_symbol
_atom_site_fract_x
_atom_site_fract_y
_atom_site_fract_z
Dy11	Dy1	0.222840	0.477590	0.248400
N11	N1	0.529400	0.234800	0.391000
H11	H1	0.426800	0.239700	0.320200
N21	N2	0.618300	0.169800	0.421800
O11	O1	0.411500	0.382200	0.378000
O21	O2	0.654100	0.420900	0.572700
O31	O3	0.026500	0.127200	0.727500
O41	O4	0.872300	0.061700	0.491800
O51	O5	0.983100	0.541800	0.293700
O61	O6	0.803000	0.545800	0.453900
C11	C1	0.561600	0.371600	0.482200
C21	C2	0.625600	0.291500	0.488200
C31	C3	0.781800	0.261300	0.586500
H21	H2	0.873000	0.287700	0.664900
C41	C4	0.774300	0.183800	0.544300
C51	C5	0.899000	0.121200	0.590000
C61	C6	0.938200	0.525900	0.428100
Dy21	Dy2	0.777160	0.977590	0.251600
N31	N3	0.470600	0.734800	0.109000
H31	H3	0.573200	0.739700	0.179800
N41	N4	0.381700	0.669800	0.078200
O71	O7	0.588500	0.882200	0.122000
O81	O8	0.345900	0.920900	0.927300
O91	O9	0.973500	0.627200	0.772500
O101	O10	0.127700	0.561700	0.008200
O111	O11	0.016900	0.041800	0.206300
O121	O12	0.197000	0.045800	0.046100
C71	C7	0.438400	0.871600	0.017800
C81	C8	0.374400	0.791500	0.011800
C91	C9	0.218200	0.761300	0.913500
H41	H4	0.127000	0.787700	0.835100
C101	C10	0.225700	0.683800	0.955700
C111	C11	0.101000	0.621200	0.910000
C121	C12	0.061800	0.025900	0.071900
Dy31	Dy3	0.777160	0.522410	0.751600
N51	N5	0.470600	0.765200	0.609000
H51	H5	0.573200	0.760300	0.679800
N61	N6	0.381700	0.830200	0.578200
O131	O13	0.588500	0.617800	0.622000
O141	O14	0.345900	0.579100	0.427300
O151	O15	0.973500	0.872800	0.272500
O161	O16	0.127700	0.938300	0.508200
O171	O17	0.016900	0.458200	0.706300
O181	O18	0.197000	0.454200	0.546100
C131	C13	0.438400	0.628400	0.517800
C141	C14	0.374400	0.708500	0.511800
C151	C15	0.218200	0.738700	0.413500
H61	H6	0.127000	0.712300	0.335100
C161	C16	0.225700	0.816200	0.455700
C171	C17	0.101000	0.878800	0.410000
C181	C18	0.061800	0.474100	0.571900
Dy41	Dy4	0.222840	0.022410	0.748400
N71	N7	0.529400	0.265200	0.891000
H71	H7	0.426800	0.260300	0.820200
N81	N8	0.618300	0.330200	0.921800
O191	O19	0.411500	0.117800	0.878000
O201	O20	0.654100	0.079100	0.072700
O211	O21	0.026500	0.372800	0.227500
O221	O22	0.872300	0.438300	0.991800
O231	O23	0.983100	0.958200	0.793700
O241	O24	0.803000	0.954200	0.953900
C191	C19	0.561600	0.128400	0.982200
C201	C20	0.625600	0.208500	0.988200
C211	C21	0.781800	0.238700	0.086500
H81	H8	0.873000	0.212300	0.164900
C221	C22	0.774300	0.316200	0.044300
C231	C23	0.899000	0.378800	0.090000
C241	C24	0.938200	0.974100	0.928100
