data_WOGLAF_clean_PM
_symmetry_space_group_name_H-M	'P1'
_cell_length_a	7.656900
_cell_length_b	15.241000
_cell_length_c	7.658900
_cell_angle_alpha	90.000000
_cell_angle_beta	92.740000
_cell_angle_gamma	90.000000
_symmetry_Int_Tables_number 1

loop_
_symmetry_equiv_pos_as_xyz
'x,y,z'

loop_
_atom_site_label
_atom_site_type_symbol
_atom_site_fract_x
_atom_site_fract_y
_atom_site_fract_z
Zn11	Zn1	0.193400	0.300000	0.906600
Zn21	Zn2	0.918500	0.295400	0.210000
Zn31	Zn3	0.193200	0.456000	0.192000
Zn41	Zn4	0.879300	0.435700	0.903100
P11	P1	0.077600	0.382600	0.556600
P21	P2	0.998400	0.125600	0.988400
P31	P3	0.544800	0.362000	0.082800
O11	O1	0.048000	0.371500	0.055000
O21	O2	0.422000	0.285000	0.033000
O31	O3	0.231000	0.357200	0.686000
O41	O4	0.072000	0.189600	0.859000
O51	O5	0.023000	0.301600	0.447000
O61	O6	0.674000	0.328900	0.232000
O71	O7	0.931000	0.173000	0.148000
O81	O8	0.133000	0.456700	0.435000
O91	O9	0.845000	0.075100	0.894000
O101	O10	0.441000	0.441100	0.156000
O111	O11	0.643000	0.389200	0.923000
O121	O12	0.920000	0.415600	0.654000
O131	O13	0.143000	0.060300	0.047000
Zn51	Zn5	0.806600	0.800000	0.093400
Zn61	Zn6	0.081500	0.795400	0.790000
Zn71	Zn7	0.806800	0.956000	0.808000
Zn81	Zn8	0.120700	0.935700	0.096900
P41	P4	0.922400	0.882600	0.443400
P51	P5	0.001600	0.625600	0.011600
P61	P6	0.455200	0.862000	0.917200
O141	O14	0.952000	0.871500	0.945000
O151	O15	0.578000	0.785000	0.967000
O161	O16	0.769000	0.857200	0.314000
O171	O17	0.928000	0.689600	0.141000
O181	O18	0.977000	0.801600	0.553000
O191	O19	0.326000	0.828900	0.768000
O201	O20	0.069000	0.673000	0.852000
O211	O21	0.867000	0.956700	0.565000
O221	O22	0.155000	0.575100	0.106000
O231	O23	0.559000	0.941100	0.844000
O241	O24	0.357000	0.889200	0.077000
O251	O25	0.080000	0.915600	0.346000
O261	O26	0.857000	0.560300	0.953000
