data_WOHDON_clean_PM
_symmetry_space_group_name_H-M	'P1'
_cell_length_a	8.408500
_cell_length_b	9.807000
_cell_length_c	21.019000
_cell_angle_alpha	90.000000
_cell_angle_beta	90.000000
_cell_angle_gamma	90.000000
_symmetry_Int_Tables_number 1

loop_
_symmetry_equiv_pos_as_xyz
'x,y,z'

loop_
_atom_site_label
_atom_site_type_symbol
_atom_site_fract_x
_atom_site_fract_y
_atom_site_fract_z
Cd11	Cd1	0.004360	0.392500	0.716940
Cd21	Cd2	0.193930	0.837490	0.522630
Cd31	Cd3	0.495640	0.607500	0.216940
Cd41	Cd4	0.306070	0.162510	0.022630
Cd51	Cd5	0.995640	0.892500	0.783060
Cd61	Cd6	0.806070	0.337490	0.977370
Cd71	Cd7	0.504360	0.107500	0.283060
Cd81	Cd8	0.693930	0.662510	0.477370
H11	H1	0.815000	0.818000	0.686500
H21	H2	0.066000	0.094000	0.579000
H31	H3	0.717000	0.996500	0.653700
H41	H4	0.835600	0.084900	0.562300
H51	H5	0.685000	0.182000	0.186500
H61	H6	0.434000	0.906000	0.079000
H71	H7	0.783000	0.003500	0.153700
H81	H8	0.664400	0.915100	0.062300
H91	H9	0.185000	0.318000	0.813500
H101	H10	0.934000	0.594000	0.921000
H111	H11	0.283000	0.496500	0.846300
H121	H12	0.164400	0.584900	0.937700
H131	H13	0.315000	0.682000	0.313500
H141	H14	0.566000	0.406000	0.421000
H151	H15	0.217000	0.503500	0.346300
H161	H16	0.335600	0.415100	0.437700
C11	C1	0.901100	0.117000	0.687080
C21	C2	0.833400	0.993700	0.651180
C31	C3	0.883100	0.003000	0.581130
C41	C4	0.825700	0.879100	0.544940
C51	C5	0.598900	0.883000	0.187080
C61	C6	0.666600	0.006300	0.151180
C71	C7	0.616900	0.997000	0.081130
C81	C8	0.674300	0.120900	0.044940
C91	C9	0.098900	0.617000	0.812920
C101	C10	0.166600	0.493700	0.848820
C111	C11	0.116900	0.503000	0.918870
C121	C12	0.174300	0.379100	0.955060
C131	C13	0.401100	0.383000	0.312920
C141	C14	0.333400	0.506300	0.348820
C151	C15	0.383100	0.497000	0.418870
C161	C16	0.325700	0.620900	0.455060
O11	O1	0.954000	0.103700	0.742250
O21	O2	0.898300	0.227500	0.657610
O31	O3	0.887200	0.869710	0.678040
O41	O4	0.051000	0.012200	0.576270
O51	O5	0.921300	0.801600	0.517080
O61	O6	0.678400	0.857200	0.543510
O71	O7	0.546000	0.896300	0.242250
O81	O8	0.601700	0.772500	0.157610
O91	O9	0.612800	0.130290	0.178040
O101	O10	0.449000	0.987800	0.076270
O111	O11	0.578700	0.198400	0.017080
O121	O12	0.821600	0.142800	0.043510
O131	O13	0.046000	0.603700	0.757750
O141	O14	0.101700	0.727500	0.842390
O151	O15	0.112800	0.369710	0.821960
O161	O16	0.949000	0.512200	0.923730
O171	O17	0.078700	0.301600	0.982920
O181	O18	0.321600	0.357200	0.956490
O191	O19	0.454000	0.396300	0.257750
O201	O20	0.398300	0.272500	0.342390
O211	O21	0.387200	0.630290	0.321960
O221	O22	0.551000	0.487800	0.423730
O231	O23	0.421300	0.698400	0.482920
O241	O24	0.178400	0.642800	0.456490
