data_WOHQAN_clean_PM
_symmetry_space_group_name_H-M	'P1'
_cell_length_a	12.348400
_cell_length_b	12.466000
_cell_length_c	14.098000
_cell_angle_alpha	97.148000
_cell_angle_beta	108.384000
_cell_angle_gamma	119.315000
_symmetry_Int_Tables_number 1

loop_
_symmetry_equiv_pos_as_xyz
'x,y,z'

loop_
_atom_site_label
_atom_site_type_symbol
_atom_site_fract_x
_atom_site_fract_y
_atom_site_fract_z
Cu11	Cu1	0.093160	0.427910	0.585100
Cu21	Cu2	0.839130	0.314780	0.411090
Cu31	Cu3	0.101480	0.506960	0.408350
Mn11	Mn1	0.110580	0.011120	0.106980
Mn21	Mn2	0.253580	0.318320	0.059710
S11	S1	0.960850	0.289920	0.332290
S21	S2	0.949510	0.363720	0.663470
S31	S3	0.299380	0.621580	0.659590
O11	O1	0.075800	0.126900	0.206930
O21	O2	0.862500	0.984200	0.186590
O31	O3	0.897000	0.104100	0.781200
O41	O4	0.780100	0.189500	0.799900
O51	O5	0.619800	0.656200	0.784200
O61	O6	0.668300	0.853500	0.783340
O71	O7	0.113100	0.112600	0.994590
N11	N1	0.096700	0.276900	0.516900
N21	N2	0.756200	0.175200	0.476100
N31	N3	0.304800	0.576000	0.470700
C11	C1	0.038700	0.224400	0.410200
C21	C2	0.040600	0.121500	0.360900
C31	C3	0.101700	0.071400	0.423200
H11	H1	0.102700	0.001900	0.392000
C41	C4	0.161600	0.126200	0.533200
H21	H2	0.204000	0.094600	0.576700
C51	C5	0.156700	0.228400	0.576400
H31	H3	0.196900	0.265100	0.649900
C61	C6	0.986500	0.072800	0.242200
C71	C7	0.650100	0.053600	0.412500
H41	H4	0.615500	0.035400	0.339400
C81	C8	0.590400	0.954500	0.451000
H51	H5	0.516300	0.871100	0.405100
C91	C9	0.643000	0.982000	0.559800
H61	H6	0.604700	0.916600	0.587800
C101	C10	0.752400	0.106500	0.626600
C111	C11	0.807700	0.203100	0.581500
C121	C12	0.813800	0.136700	0.745300
C131	C13	0.382000	0.624500	0.576500
C141	C14	0.522800	0.675800	0.620700
C151	C15	0.582800	0.674200	0.553100
H71	H7	0.676300	0.707200	0.580800
C161	C16	0.503700	0.623400	0.444000
H81	H8	0.542700	0.621400	0.397600
C171	C17	0.366100	0.576000	0.406600
H91	H9	0.312600	0.542200	0.333600
C181	C18	0.610600	0.733400	0.739700
H101	H10	0.133000	0.098000	0.956000
Cu41	Cu4	0.906840	0.572090	0.414900
Cu51	Cu5	0.160870	0.685220	0.588910
Cu61	Cu6	0.898520	0.493040	0.591650
Mn31	Mn3	0.889420	0.988880	0.893020
Mn41	Mn4	0.746420	0.681680	0.940290
S41	S4	0.039150	0.710080	0.667710
S51	S5	0.050490	0.636280	0.336530
S61	S6	0.700620	0.378420	0.340410
O81	O8	0.924200	0.873100	0.793070
O91	O9	0.137500	0.015800	0.813410
O101	O10	0.103000	0.895900	0.218800
O111	O11	0.219900	0.810500	0.200100
O121	O12	0.380200	0.343800	0.215800
O131	O13	0.331700	0.146500	0.216660
O141	O14	0.886900	0.887400	0.005410
N41	N4	0.903300	0.723100	0.483100
N51	N5	0.243800	0.824800	0.523900
N61	N6	0.695200	0.424000	0.529300
C191	C19	0.961300	0.775600	0.589800
C201	C20	0.959400	0.878500	0.639100
C211	C21	0.898300	0.928600	0.576800
H111	H11	0.897300	0.998100	0.608000
C221	C22	0.838400	0.873800	0.466800
H121	H12	0.796000	0.905400	0.423300
C231	C23	0.843300	0.771600	0.423600
H131	H13	0.803100	0.734900	0.350100
C241	C24	0.013500	0.927200	0.757800
C251	C25	0.349900	0.946400	0.587500
H141	H14	0.384500	0.964600	0.660600
C261	C26	0.409600	0.045500	0.549000
H151	H15	0.483700	0.128900	0.594900
C271	C27	0.357000	0.018000	0.440200
H161	H16	0.395300	0.083400	0.412200
C281	C28	0.247600	0.893500	0.373400
C291	C29	0.192300	0.796900	0.418500
C301	C30	0.186200	0.863300	0.254700
C311	C31	0.618000	0.375500	0.423500
C321	C32	0.477200	0.324200	0.379300
C331	C33	0.417200	0.325800	0.446900
H171	H17	0.323700	0.292800	0.419200
C341	C34	0.496300	0.376600	0.556000
H181	H18	0.457300	0.378600	0.602400
C351	C35	0.633900	0.424000	0.593400
H191	H19	0.687400	0.457800	0.666400
C361	C36	0.389400	0.266600	0.260300
H201	H20	0.867000	0.902000	0.044000
