data_WOHZAU01_clean_h_PM
_symmetry_space_group_name_H-M	'P1'
_cell_length_a	9.075700
_cell_length_b	9.075700
_cell_length_c	15.922000
_cell_angle_alpha	88.458600
_cell_angle_beta	88.458600
_cell_angle_gamma	84.890100
_symmetry_Int_Tables_number 1

loop_
_symmetry_equiv_pos_as_xyz
'x,y,z'

loop_
_atom_site_label
_atom_site_type_symbol
_atom_site_fract_x
_atom_site_fract_y
_atom_site_fract_z
Er11	Er1	0.222020	0.022400	0.489210
Er21	Er2	0.977600	0.777980	0.010790
Er31	Er3	0.777980	0.977600	0.510790
Er41	Er4	0.022400	0.222020	0.989210
C11	C1	0.472500	0.909900	0.629600
C21	C2	0.227500	0.003900	0.908600
C31	C3	0.742600	0.774200	0.902400
C41	C4	0.467000	0.854600	0.721500
C51	C5	0.350100	0.954900	0.770000
C61	C6	0.333600	0.901000	0.861100
C71	C7	0.484400	0.883800	0.906500
C81	C8	0.598400	0.785600	0.855600
C91	C9	0.616800	0.846000	0.764500
C101	C10	0.090100	0.527500	0.870400
C111	C11	0.996100	0.772500	0.591400
C121	C12	0.225800	0.257400	0.597600
C131	C13	0.145400	0.533000	0.778500
C141	C14	0.045100	0.649900	0.730000
C151	C15	0.099000	0.666400	0.638900
C161	C16	0.116200	0.515600	0.593500
C171	C17	0.214400	0.401600	0.644400
C181	C18	0.154000	0.383200	0.735500
C191	C19	0.527500	0.090100	0.370400
C201	C20	0.772500	0.996100	0.091400
C211	C21	0.257400	0.225800	0.097600
C221	C22	0.533000	0.145400	0.278500
C231	C23	0.649900	0.045100	0.230000
C241	C24	0.666400	0.099000	0.138900
C251	C25	0.515600	0.116200	0.093500
C261	C26	0.401600	0.214400	0.144400
C271	C27	0.383200	0.154000	0.235500
C281	C28	0.909900	0.472500	0.129600
C291	C29	0.003900	0.227500	0.408600
C301	C30	0.774200	0.742600	0.402400
C311	C31	0.854600	0.467000	0.221500
C321	C32	0.954900	0.350100	0.270000
C331	C33	0.901000	0.333600	0.361100
C341	C34	0.883800	0.484400	0.406500
C351	C35	0.785600	0.598400	0.355600
C361	C36	0.846000	0.616800	0.264500
O11	O1	0.360700	0.905700	0.587900
O21	O2	0.589700	0.958900	0.600300
O31	O3	0.243200	0.141000	0.911700
O41	O4	0.115700	0.956100	0.950000
O51	O5	0.824500	0.876300	0.899200
O61	O6	0.775500	0.662700	0.951200
O71	O7	0.094300	0.639300	0.912100
O81	O8	0.041100	0.410300	0.899700
O91	O9	0.859000	0.756800	0.588300
O101	O10	0.043900	0.884300	0.550000
O111	O11	0.123700	0.175500	0.600800
O121	O12	0.337300	0.224500	0.548800
O131	O13	0.639300	0.094300	0.412100
O141	O14	0.410300	0.041100	0.399700
O151	O15	0.756800	0.859000	0.088300
O161	O16	0.884300	0.043900	0.050000
O171	O17	0.175500	0.123700	0.100800
O181	O18	0.224500	0.337300	0.048800
O191	O19	0.905700	0.360700	0.087900
O201	O20	0.958900	0.589700	0.100300
O211	O21	0.141000	0.243200	0.411700
O221	O22	0.956100	0.115700	0.450000
O231	O23	0.876300	0.824500	0.399200
O241	O24	0.662700	0.775500	0.451200
H11	H1	0.289270	0.054300	0.736790
H21	H2	0.496390	0.940860	0.968550
H31	H3	0.718520	0.881700	0.728560
H41	H4	0.945700	0.710730	0.763210
H51	H5	0.059140	0.503610	0.531450
H61	H6	0.118300	0.281480	0.771440
H71	H7	0.710730	0.945700	0.263210
H81	H8	0.503610	0.059140	0.031450
H91	H9	0.281480	0.118300	0.271440
H101	H10	0.054300	0.289270	0.236790
H111	H11	0.940860	0.496390	0.468550
H121	H12	0.881700	0.718520	0.228560
