data_WOJZAY_clean_PM
_symmetry_space_group_name_H-M	'P1'
_cell_length_a	24.844300
_cell_length_b	12.883600
_cell_length_c	15.053800
_cell_angle_alpha	90.000000
_cell_angle_beta	96.709000
_cell_angle_gamma	90.000000
_symmetry_Int_Tables_number 1

loop_
_symmetry_equiv_pos_as_xyz
'x,y,z'

loop_
_atom_site_label
_atom_site_type_symbol
_atom_site_fract_x
_atom_site_fract_y
_atom_site_fract_z
Ce11	Ce1	0.328810	0.796960	0.033830
O11	O1	0.306290	0.741100	0.878500
O21	O2	0.228170	0.655700	0.848400
O31	O3	0.202030	0.452700	0.560600
O41	O4	0.273450	0.360600	0.536700
O51	O5	0.598500	0.667900	0.501600
O61	O6	0.584810	0.829300	0.540300
C11	C1	0.275500	0.678500	0.834100
C21	C2	0.297160	0.627800	0.754900
C31	C3	0.265970	0.560100	0.700400
H11	H1	0.230200	0.548000	0.710300
C41	C4	0.287000	0.509700	0.631100
C51	C5	0.252160	0.436100	0.573000
C61	C6	0.339890	0.530600	0.614400
H21	H2	0.354400	0.495300	0.568800
C71	C7	0.371350	0.603600	0.664900
C81	C8	0.349650	0.650500	0.736500
H31	H3	0.370500	0.697600	0.772500
C91	C9	0.425320	0.636000	0.640700
C101	C10	0.459780	0.565300	0.607200
H41	H4	0.450500	0.495300	0.604400
C111	C11	0.507950	0.597200	0.577800
H51	H5	0.530800	0.548500	0.556300
C121	C12	0.522200	0.700700	0.580000
C131	C13	0.571760	0.734600	0.538300
C141	C14	0.489700	0.769700	0.616200
H61	H6	0.499900	0.839100	0.620800
C151	C15	0.441500	0.738800	0.646400
H71	H7	0.419800	0.787600	0.670800
Ce21	Ce2	0.828810	0.296960	0.033830
O71	O7	0.806290	0.241100	0.878500
O81	O8	0.728170	0.155700	0.848400
O91	O9	0.702030	0.952700	0.560600
O101	O10	0.773450	0.860600	0.536700
O111	O11	0.098500	0.167900	0.501600
O121	O12	0.084810	0.329300	0.540300
C161	C16	0.775500	0.178500	0.834100
C171	C17	0.797160	0.127800	0.754900
C181	C18	0.765970	0.060100	0.700400
H81	H8	0.730200	0.048000	0.710300
C191	C19	0.787000	0.009700	0.631100
C201	C20	0.752160	0.936100	0.573000
C211	C21	0.839890	0.030600	0.614400
H91	H9	0.854400	0.995300	0.568800
C221	C22	0.871350	0.103600	0.664900
C231	C23	0.849650	0.150500	0.736500
H101	H10	0.870500	0.197600	0.772500
C241	C24	0.925320	0.136000	0.640700
C251	C25	0.959780	0.065300	0.607200
H111	H11	0.950500	0.995300	0.604400
C261	C26	0.007950	0.097200	0.577800
H121	H12	0.030800	0.048500	0.556300
C271	C27	0.022200	0.200700	0.580000
C281	C28	0.071760	0.234600	0.538300
C291	C29	0.989700	0.269700	0.616200
H131	H13	0.999900	0.339100	0.620800
C301	C30	0.941500	0.238800	0.646400
H141	H14	0.919800	0.287600	0.670800
Ce31	Ce3	0.671190	0.796960	0.466170
O131	O13	0.693710	0.741100	0.621500
O141	O14	0.771830	0.655700	0.651600
O151	O15	0.797970	0.452700	0.939400
O161	O16	0.726550	0.360600	0.963300
O171	O17	0.401500	0.667900	0.998400
O181	O18	0.415190	0.829300	0.959700
C311	C31	0.724500	0.678500	0.665900
C321	C32	0.702840	0.627800	0.745100
C331	C33	0.734030	0.560100	0.799600
H151	H15	0.769800	0.548000	0.789700
C341	C34	0.713000	0.509700	0.868900
C351	C35	0.747840	0.436100	0.927000
C361	C36	0.660110	0.530600	0.885600
H161	H16	0.645600	0.495300	0.931200
C371	C37	0.628650	0.603600	0.835100
C381	C38	0.650350	0.650500	0.763500
H171	H17	0.629500	0.697600	0.727500
C391	C39	0.574680	0.636000	0.859300
C401	C40	0.540220	0.565300	0.892800
H181	H18	0.549500	0.495300	0.895600
C411	C41	0.492050	0.597200	0.922200
H191	H19	0.469200	0.548500	0.943700
C421	C42	0.477800	0.700700	0.920000
C431	C43	0.428240	0.734600	0.961700
C441	C44	0.510300	0.769700	0.883800
H201	H20	0.500100	0.839100	0.879200
C451	C45	0.558500	0.738800	0.853600
H211	H21	0.580200	0.787600	0.829200
Ce41	Ce4	0.171190	0.296960	0.466170
O191	O19	0.193710	0.241100	0.621500
O201	O20	0.271830	0.155700	0.651600
O211	O21	0.297970	0.952700	0.939400
O221	O22	0.226550	0.860600	0.963300
O231	O23	0.901500	0.167900	0.998400
O241	O24	0.915190	0.329300	0.959700
C461	C46	0.224500	0.178500	0.665900
C471	C47	0.202840	0.127800	0.745100
C481	C48	0.234030	0.060100	0.799600
H221	H22	0.269800	0.048000	0.789700
C491	C49	0.213000	0.009700	0.868900
C501	C50	0.247840	0.936100	0.927000
C511	C51	0.160110	0.030600	0.885600
H231	H23	0.145600	0.995300	0.931200
C521	C52	0.128650	0.103600	0.835100
C531	C53	0.150350	0.150500	0.763500
H241	H24	0.129500	0.197600	0.727500
C541	C54	0.074680	0.136000	0.859300
C551	C55	0.040220	0.065300	0.892800
H251	H25	0.049500	0.995300	0.895600
C561	C56	0.992050	0.097200	0.922200
H261	H26	0.969200	0.048500	0.943700
C571	C57	0.977800	0.200700	0.920000
C581	C58	0.928240	0.234600	0.961700
C591	C59	0.010300	0.269700	0.883800
H271	H27	0.000100	0.339100	0.879200
C601	C60	0.058500	0.238800	0.853600
H281	H28	0.080200	0.287600	0.829200
Ce51	Ce5	0.671190	0.203040	0.966170
O251	O25	0.693710	0.258900	0.121500
O261	O26	0.771830	0.344300	0.151600
O271	O27	0.797970	0.547300	0.439400
O281	O28	0.726550	0.639400	0.463300
O291	O29	0.401500	0.332100	0.498400
O301	O30	0.415190	0.170700	0.459700
C611	C61	0.724500	0.321500	0.165900
C621	C62	0.702840	0.372200	0.245100
C631	C63	0.734030	0.439900	0.299600
H291	H29	0.769800	0.452000	0.289700
C641	C64	0.713000	0.490300	0.368900
C651	C65	0.747840	0.563900	0.427000
C661	C66	0.660110	0.469400	0.385600
H301	H30	0.645600	0.504700	0.431200
C671	C67	0.628650	0.396400	0.335100
C681	C68	0.650350	0.349500	0.263500
H311	H31	0.629500	0.302400	0.227500
C691	C69	0.574680	0.364000	0.359300
C701	C70	0.540220	0.434700	0.392800
H321	H32	0.549500	0.504700	0.395600
C711	C71	0.492050	0.402800	0.422200
H331	H33	0.469200	0.451500	0.443700
C721	C72	0.477800	0.299300	0.420000
C731	C73	0.428240	0.265400	0.461700
C741	C74	0.510300	0.230300	0.383800
H341	H34	0.500100	0.160900	0.379200
C751	C75	0.558500	0.261200	0.353600
H351	H35	0.580200	0.212400	0.329200
Ce61	Ce6	0.171190	0.703040	0.966170
O311	O31	0.193710	0.758900	0.121500
O321	O32	0.271830	0.844300	0.151600
O331	O33	0.297970	0.047300	0.439400
O341	O34	0.226550	0.139400	0.463300
O351	O35	0.901500	0.832100	0.498400
O361	O36	0.915190	0.670700	0.459700
C761	C76	0.224500	0.821500	0.165900
C771	C77	0.202840	0.872200	0.245100
C781	C78	0.234030	0.939900	0.299600
H361	H36	0.269800	0.952000	0.289700
C791	C79	0.213000	0.990300	0.368900
C801	C80	0.247840	0.063900	0.427000
C811	C81	0.160110	0.969400	0.385600
H371	H37	0.145600	0.004700	0.431200
C821	C82	0.128650	0.896400	0.335100
C831	C83	0.150350	0.849500	0.263500
H381	H38	0.129500	0.802400	0.227500
C841	C84	0.074680	0.864000	0.359300
C851	C85	0.040220	0.934700	0.392800
H391	H39	0.049500	0.004700	0.395600
C861	C86	0.992050	0.902800	0.422200
H401	H40	0.969200	0.951500	0.443700
C871	C87	0.977800	0.799300	0.420000
C881	C88	0.928240	0.765400	0.461700
C891	C89	0.010300	0.730300	0.383800
H411	H41	0.000100	0.660900	0.379200
C901	C90	0.058500	0.761200	0.353600
H421	H42	0.080200	0.712400	0.329200
Ce71	Ce7	0.328810	0.203040	0.533830
O371	O37	0.306290	0.258900	0.378500
O381	O38	0.228170	0.344300	0.348400
O391	O39	0.202030	0.547300	0.060600
O401	O40	0.273450	0.639400	0.036700
O411	O41	0.598500	0.332100	0.001600
O421	O42	0.584810	0.170700	0.040300
C911	C91	0.275500	0.321500	0.334100
C921	C92	0.297160	0.372200	0.254900
C931	C93	0.265970	0.439900	0.200400
H431	H43	0.230200	0.452000	0.210300
C941	C94	0.287000	0.490300	0.131100
C951	C95	0.252160	0.563900	0.073000
C961	C96	0.339890	0.469400	0.114400
H441	H44	0.354400	0.504700	0.068800
C971	C97	0.371350	0.396400	0.164900
C981	C98	0.349650	0.349500	0.236500
H451	H45	0.370500	0.302400	0.272500
C991	C99	0.425320	0.364000	0.140700
C1001	C100	0.459780	0.434700	0.107200
H461	H46	0.450500	0.504700	0.104400
C1011	C101	0.507950	0.402800	0.077800
H471	H47	0.530800	0.451500	0.056300
C1021	C102	0.522200	0.299300	0.080000
C1031	C103	0.571760	0.265400	0.038300
C1041	C104	0.489700	0.230300	0.116200
H481	H48	0.499900	0.160900	0.120800
C1051	C105	0.441500	0.261200	0.146400
H491	H49	0.419800	0.212400	0.170800
Ce81	Ce8	0.828810	0.703040	0.533830
O431	O43	0.806290	0.758900	0.378500
O441	O44	0.728170	0.844300	0.348400
O451	O45	0.702030	0.047300	0.060600
O461	O46	0.773450	0.139400	0.036700
O471	O47	0.098500	0.832100	0.001600
O481	O48	0.084810	0.670700	0.040300
C1061	C106	0.775500	0.821500	0.334100
C1071	C107	0.797160	0.872200	0.254900
C1081	C108	0.765970	0.939900	0.200400
H501	H50	0.730200	0.952000	0.210300
C1091	C109	0.787000	0.990300	0.131100
C1101	C110	0.752160	0.063900	0.073000
C1111	C111	0.839890	0.969400	0.114400
H511	H51	0.854400	0.004700	0.068800
C1121	C112	0.871350	0.896400	0.164900
C1131	C113	0.849650	0.849500	0.236500
H521	H52	0.870500	0.802400	0.272500
C1141	C114	0.925320	0.864000	0.140700
C1151	C115	0.959780	0.934700	0.107200
H531	H53	0.950500	0.004700	0.104400
C1161	C116	0.007950	0.902800	0.077800
H541	H54	0.030800	0.951500	0.056300
C1171	C117	0.022200	0.799300	0.080000
C1181	C118	0.071760	0.765400	0.038300
C1191	C119	0.989700	0.730300	0.116200
H551	H55	0.999900	0.660900	0.120800
C1201	C120	0.941500	0.761200	0.146400
H561	H56	0.919800	0.712400	0.170800
