data_WOJZEC_clean_PM
_symmetry_space_group_name_H-M	'P1'
_cell_length_a	24.716800
_cell_length_b	13.012100
_cell_length_c	14.977800
_cell_angle_alpha	90.000000
_cell_angle_beta	96.682000
_cell_angle_gamma	90.000000
_symmetry_Int_Tables_number 1

loop_
_symmetry_equiv_pos_as_xyz
'x,y,z'

loop_
_atom_site_label
_atom_site_type_symbol
_atom_site_fract_x
_atom_site_fract_y
_atom_site_fract_z
Pr11	Pr1	0.328810	0.795440	0.032670
O11	O1	0.305310	0.738400	0.878400
O21	O2	0.227210	0.653100	0.849600
O31	O3	0.201460	0.449100	0.561100
O41	O4	0.273730	0.358200	0.538200
O51	O5	0.599040	0.667100	0.501800
O61	O6	0.585320	0.826500	0.541300
C11	C1	0.274770	0.676200	0.834700
C21	C2	0.296520	0.625800	0.755000
C31	C3	0.265240	0.557700	0.701000
H11	H1	0.229500	0.545100	0.711400
C41	C4	0.286440	0.507800	0.631500
C51	C5	0.251790	0.433800	0.574300
C61	C6	0.339630	0.528700	0.614300
H21	H2	0.354400	0.493400	0.568900
C71	C7	0.370550	0.601700	0.664400
C81	C8	0.348440	0.649200	0.736400
H31	H3	0.369100	0.696900	0.771900
C91	C9	0.424810	0.634100	0.640200
C101	C10	0.459600	0.564400	0.607000
H41	H4	0.450400	0.495100	0.604200
C111	C11	0.508100	0.596200	0.578000
H51	H5	0.531200	0.548000	0.556700
C121	C12	0.522400	0.698500	0.580300
C131	C13	0.572240	0.732900	0.539400
C141	C14	0.489000	0.767800	0.615800
H61	H6	0.499000	0.836700	0.620000
C151	C15	0.440600	0.736500	0.645500
H71	H7	0.418400	0.784600	0.669100
Pr21	Pr2	0.828810	0.295440	0.032670
O71	O7	0.805310	0.238400	0.878400
O81	O8	0.727210	0.153100	0.849600
O91	O9	0.701460	0.949100	0.561100
O101	O10	0.773730	0.858200	0.538200
O111	O11	0.099040	0.167100	0.501800
O121	O12	0.085320	0.326500	0.541300
C161	C16	0.774770	0.176200	0.834700
C171	C17	0.796520	0.125800	0.755000
C181	C18	0.765240	0.057700	0.701000
H81	H8	0.729500	0.045100	0.711400
C191	C19	0.786440	0.007800	0.631500
C201	C20	0.751790	0.933800	0.574300
C211	C21	0.839630	0.028700	0.614300
H91	H9	0.854400	0.993400	0.568900
C221	C22	0.870550	0.101700	0.664400
C231	C23	0.848440	0.149200	0.736400
H101	H10	0.869100	0.196900	0.771900
C241	C24	0.924810	0.134100	0.640200
C251	C25	0.959600	0.064400	0.607000
H111	H11	0.950400	0.995100	0.604200
C261	C26	0.008100	0.096200	0.578000
H121	H12	0.031200	0.048000	0.556700
C271	C27	0.022400	0.198500	0.580300
C281	C28	0.072240	0.232900	0.539400
C291	C29	0.989000	0.267800	0.615800
H131	H13	0.999000	0.336700	0.620000
C301	C30	0.940600	0.236500	0.645500
H141	H14	0.918400	0.284600	0.669100
Pr31	Pr3	0.671190	0.795440	0.467330
O131	O13	0.694690	0.738400	0.621600
O141	O14	0.772790	0.653100	0.650400
O151	O15	0.798540	0.449100	0.938900
O161	O16	0.726270	0.358200	0.961800
O171	O17	0.400960	0.667100	0.998200
O181	O18	0.414680	0.826500	0.958700
C311	C31	0.725230	0.676200	0.665300
C321	C32	0.703480	0.625800	0.745000
C331	C33	0.734760	0.557700	0.799000
H151	H15	0.770500	0.545100	0.788600
C341	C34	0.713560	0.507800	0.868500
C351	C35	0.748210	0.433800	0.925700
C361	C36	0.660370	0.528700	0.885700
H161	H16	0.645600	0.493400	0.931100
C371	C37	0.629450	0.601700	0.835600
C381	C38	0.651560	0.649200	0.763600
H171	H17	0.630900	0.696900	0.728100
C391	C39	0.575190	0.634100	0.859800
C401	C40	0.540400	0.564400	0.893000
H181	H18	0.549600	0.495100	0.895800
C411	C41	0.491900	0.596200	0.922000
H191	H19	0.468800	0.548000	0.943300
C421	C42	0.477600	0.698500	0.919700
C431	C43	0.427760	0.732900	0.960600
C441	C44	0.511000	0.767800	0.884200
H201	H20	0.501000	0.836700	0.880000
C451	C45	0.559400	0.736500	0.854500
H211	H21	0.581600	0.784600	0.830900
Pr41	Pr4	0.171190	0.295440	0.467330
O191	O19	0.194690	0.238400	0.621600
O201	O20	0.272790	0.153100	0.650400
O211	O21	0.298540	0.949100	0.938900
O221	O22	0.226270	0.858200	0.961800
O231	O23	0.900960	0.167100	0.998200
O241	O24	0.914680	0.326500	0.958700
C461	C46	0.225230	0.176200	0.665300
C471	C47	0.203480	0.125800	0.745000
C481	C48	0.234760	0.057700	0.799000
H221	H22	0.270500	0.045100	0.788600
C491	C49	0.213560	0.007800	0.868500
C501	C50	0.248210	0.933800	0.925700
C511	C51	0.160370	0.028700	0.885700
H231	H23	0.145600	0.993400	0.931100
C521	C52	0.129450	0.101700	0.835600
C531	C53	0.151560	0.149200	0.763600
H241	H24	0.130900	0.196900	0.728100
C541	C54	0.075190	0.134100	0.859800
C551	C55	0.040400	0.064400	0.893000
H251	H25	0.049600	0.995100	0.895800
C561	C56	0.991900	0.096200	0.922000
H261	H26	0.968800	0.048000	0.943300
C571	C57	0.977600	0.198500	0.919700
C581	C58	0.927760	0.232900	0.960600
C591	C59	0.011000	0.267800	0.884200
H271	H27	0.001000	0.336700	0.880000
C601	C60	0.059400	0.236500	0.854500
H281	H28	0.081600	0.284600	0.830900
Pr51	Pr5	0.671190	0.204560	0.967330
O251	O25	0.694690	0.261600	0.121600
O261	O26	0.772790	0.346900	0.150400
O271	O27	0.798540	0.550900	0.438900
O281	O28	0.726270	0.641800	0.461800
O291	O29	0.400960	0.332900	0.498200
O301	O30	0.414680	0.173500	0.458700
C611	C61	0.725230	0.323800	0.165300
C621	C62	0.703480	0.374200	0.245000
C631	C63	0.734760	0.442300	0.299000
H291	H29	0.770500	0.454900	0.288600
C641	C64	0.713560	0.492200	0.368500
C651	C65	0.748210	0.566200	0.425700
C661	C66	0.660370	0.471300	0.385700
H301	H30	0.645600	0.506600	0.431100
C671	C67	0.629450	0.398300	0.335600
C681	C68	0.651560	0.350800	0.263600
H311	H31	0.630900	0.303100	0.228100
C691	C69	0.575190	0.365900	0.359800
C701	C70	0.540400	0.435600	0.393000
H321	H32	0.549600	0.504900	0.395800
C711	C71	0.491900	0.403800	0.422000
H331	H33	0.468800	0.452000	0.443300
C721	C72	0.477600	0.301500	0.419700
C731	C73	0.427760	0.267100	0.460600
C741	C74	0.511000	0.232200	0.384200
H341	H34	0.501000	0.163300	0.380000
C751	C75	0.559400	0.263500	0.354500
H351	H35	0.581600	0.215400	0.330900
Pr61	Pr6	0.171190	0.704560	0.967330
O311	O31	0.194690	0.761600	0.121600
O321	O32	0.272790	0.846900	0.150400
O331	O33	0.298540	0.050900	0.438900
O341	O34	0.226270	0.141800	0.461800
O351	O35	0.900960	0.832900	0.498200
O361	O36	0.914680	0.673500	0.458700
C761	C76	0.225230	0.823800	0.165300
C771	C77	0.203480	0.874200	0.245000
C781	C78	0.234760	0.942300	0.299000
H361	H36	0.270500	0.954900	0.288600
C791	C79	0.213560	0.992200	0.368500
C801	C80	0.248210	0.066200	0.425700
C811	C81	0.160370	0.971300	0.385700
H371	H37	0.145600	0.006600	0.431100
C821	C82	0.129450	0.898300	0.335600
C831	C83	0.151560	0.850800	0.263600
H381	H38	0.130900	0.803100	0.228100
C841	C84	0.075190	0.865900	0.359800
C851	C85	0.040400	0.935600	0.393000
H391	H39	0.049600	0.004900	0.395800
C861	C86	0.991900	0.903800	0.422000
H401	H40	0.968800	0.952000	0.443300
C871	C87	0.977600	0.801500	0.419700
C881	C88	0.927760	0.767100	0.460600
C891	C89	0.011000	0.732200	0.384200
H411	H41	0.001000	0.663300	0.380000
C901	C90	0.059400	0.763500	0.354500
H421	H42	0.081600	0.715400	0.330900
Pr71	Pr7	0.328810	0.204560	0.532670
O371	O37	0.305310	0.261600	0.378400
O381	O38	0.227210	0.346900	0.349600
O391	O39	0.201460	0.550900	0.061100
O401	O40	0.273730	0.641800	0.038200
O411	O41	0.599040	0.332900	0.001800
O421	O42	0.585320	0.173500	0.041300
C911	C91	0.274770	0.323800	0.334700
C921	C92	0.296520	0.374200	0.255000
C931	C93	0.265240	0.442300	0.201000
H431	H43	0.229500	0.454900	0.211400
C941	C94	0.286440	0.492200	0.131500
C951	C95	0.251790	0.566200	0.074300
C961	C96	0.339630	0.471300	0.114300
H441	H44	0.354400	0.506600	0.068900
C971	C97	0.370550	0.398300	0.164400
C981	C98	0.348440	0.350800	0.236400
H451	H45	0.369100	0.303100	0.271900
C991	C99	0.424810	0.365900	0.140200
C1001	C100	0.459600	0.435600	0.107000
H461	H46	0.450400	0.504900	0.104200
C1011	C101	0.508100	0.403800	0.078000
H471	H47	0.531200	0.452000	0.056700
C1021	C102	0.522400	0.301500	0.080300
C1031	C103	0.572240	0.267100	0.039400
C1041	C104	0.489000	0.232200	0.115800
H481	H48	0.499000	0.163300	0.120000
C1051	C105	0.440600	0.263500	0.145500
H491	H49	0.418400	0.215400	0.169100
Pr81	Pr8	0.828810	0.704560	0.532670
O431	O43	0.805310	0.761600	0.378400
O441	O44	0.727210	0.846900	0.349600
O451	O45	0.701460	0.050900	0.061100
O461	O46	0.773730	0.141800	0.038200
O471	O47	0.099040	0.832900	0.001800
O481	O48	0.085320	0.673500	0.041300
C1061	C106	0.774770	0.823800	0.334700
C1071	C107	0.796520	0.874200	0.255000
C1081	C108	0.765240	0.942300	0.201000
H501	H50	0.729500	0.954900	0.211400
C1091	C109	0.786440	0.992200	0.131500
C1101	C110	0.751790	0.066200	0.074300
C1111	C111	0.839630	0.971300	0.114300
H511	H51	0.854400	0.006600	0.068900
C1121	C112	0.870550	0.898300	0.164400
C1131	C113	0.848440	0.850800	0.236400
H521	H52	0.869100	0.803100	0.271900
C1141	C114	0.924810	0.865900	0.140200
C1151	C115	0.959600	0.935600	0.107000
H531	H53	0.950400	0.004900	0.104200
C1161	C116	0.008100	0.903800	0.078000
H541	H54	0.031200	0.952000	0.056700
C1171	C117	0.022400	0.801500	0.080300
C1181	C118	0.072240	0.767100	0.039400
C1191	C119	0.989000	0.732200	0.115800
H551	H55	0.999000	0.663300	0.120000
C1201	C120	0.940600	0.763500	0.145500
H561	H56	0.918400	0.715400	0.169100
