data_WOLFAG_clean_PM
_symmetry_space_group_name_H-M	'P1'
_cell_length_a	30.275000
_cell_length_b	15.289000
_cell_length_c	22.421000
_cell_angle_alpha	90.000000
_cell_angle_beta	90.000000
_cell_angle_gamma	90.000000
_symmetry_Int_Tables_number 1

loop_
_symmetry_equiv_pos_as_xyz
'x,y,z'

loop_
_atom_site_label
_atom_site_type_symbol
_atom_site_fract_x
_atom_site_fract_y
_atom_site_fract_z
Cu11	Cu1	0.119680	0.700380	0.832430
N11	N1	0.110650	0.689800	0.927650
O11	O1	0.073170	0.614100	0.811800
C11	C1	0.059720	0.597100	0.759900
Cu21	Cu2	0.130100	0.696070	0.714610
O21	O2	0.075340	0.627500	0.711850
C21	C2	0.021850	0.533800	0.754300
N21	N2	0.184690	0.843900	0.050090
H11	H1	0.195800	0.830800	0.016000
O31	O3	0.170170	0.782890	0.828810
N31	N3	0.174230	0.017600	0.009500
H21	H2	0.148700	0.008700	0.025300
C31	C3	0.982990	0.540500	0.790070
O41	O4	0.184100	0.762200	0.731470
N41	N4	0.058990	0.029800	0.901820
C41	C4	0.976430	0.610400	0.830400
H31	H3	0.998300	0.652700	0.834600
O51	O5	0.336540	0.103090	0.831020
C51	C5	0.938600	0.616700	0.863300
H41	H4	0.935300	0.662200	0.890500
O61	O6	0.337820	0.087040	0.731260
C61	C6	0.904670	0.554700	0.856300
H51	H5	0.878900	0.559700	0.878500
O71	O7	0.904440	0.304560	0.782470
C71	C7	0.909430	0.487500	0.817200
H61	H6	0.886500	0.447700	0.812500
O81	O8	0.920680	0.296600	0.685130
C81	C8	0.948780	0.476900	0.783420
C91	C9	0.955430	0.406600	0.742450
O91	O9	0.133750	0.807200	0.119510
C101	C10	0.923820	0.330100	0.736000
O101	O10	0.212200	0.073300	0.931660
C111	C11	0.993070	0.403200	0.708140
H71	H7	0.996800	0.357700	0.681100
C121	C12	0.026010	0.467400	0.713470
H81	H8	0.050800	0.465000	0.689100
C131	C13	0.192000	0.795400	0.781600
C141	C14	0.229710	0.858900	0.785780
C151	C15	0.221490	0.938400	0.810800
H91	H9	0.193900	0.949300	0.827500
C161	C16	0.253690	0.004300	0.811900
H101	H10	0.247400	0.057900	0.829600
C171	C17	0.294420	0.989700	0.787000
C181	C18	0.305370	0.906400	0.763100
C191	C19	0.348310	0.887100	0.740800
H111	H11	0.369800	0.930600	0.740300
C201	C20	0.358180	0.806000	0.720200
H121	H12	0.386400	0.794500	0.705800
C211	C21	0.326650	0.740100	0.720600
H131	H13	0.334200	0.684700	0.707000
C221	C22	0.284670	0.755500	0.740700
H141	H14	0.263800	0.710800	0.740100
C231	C23	0.272890	0.839200	0.762310
C241	C24	0.325880	0.065300	0.783100
C251	C25	0.087230	0.605200	0.011500
H151	H15	0.072300	0.556600	0.026200
C261	C26	0.107330	0.662600	0.050000
H161	H16	0.105700	0.653800	0.091000
C271	C27	0.129950	0.733500	0.027020
C281	C28	0.129890	0.745000	0.965700
H171	H17	0.144100	0.793900	0.950200
C291	C29	0.150350	0.797700	0.069350
C301	C30	0.204700	0.916400	0.083850
H181	H18	0.183800	0.935200	0.114700
C311	C31	0.247510	0.887200	0.114400
H191	H19	0.241300	0.839200	0.141400
H201	H20	0.268300	0.866800	0.084600
C321	C32	0.267770	0.963500	0.149200
H211	H21	0.248300	0.979100	0.181800
H221	H22	0.295800	0.945100	0.166100
C331	C33	0.275220	0.043200	0.110000
H231	H23	0.285700	0.091400	0.134400
H241	H24	0.297700	0.030100	0.080500
C341	C34	0.232880	0.070000	0.078700
H251	H25	0.238800	0.118700	0.052100
H261	H26	0.211400	0.089100	0.108000
C351	C35	0.213980	0.993500	0.043000
H271	H27	0.236500	0.975100	0.014100
C361	C36	0.176590	0.053200	0.954900
C371	C37	0.134590	0.066100	0.921400
C381	C38	0.096340	0.019500	0.932500
H281	H28	0.096700	0.978600	0.963200
C391	C39	0.058840	0.088900	0.858400
H291	H29	0.032800	0.097700	0.837300
C401	C40	0.095230	0.137800	0.843200
H301	H30	0.093900	0.177600	0.811800
C411	C41	0.133840	0.126700	0.875300
H311	H31	0.158900	0.159300	0.866200
C421	C42	0.089410	0.620300	0.951100
H321	H32	0.075700	0.581000	0.925400
Cu31	Cu3	0.380320	0.299620	0.332430
N51	N5	0.389350	0.310200	0.427650
O111	O11	0.426830	0.385900	0.311800
C431	C43	0.440280	0.402900	0.259900
Cu41	Cu4	0.369900	0.303930	0.214610
O121	O12	0.424660	0.372500	0.211850
C441	C44	0.478150	0.466200	0.254300
N61	N6	0.315310	0.156100	0.550090
H331	H33	0.304200	0.169200	0.516000
O131	O13	0.329830	0.217110	0.328810
N71	N7	0.325770	0.982400	0.509500
H341	H34	0.351300	0.991300	0.525300
C451	C45	0.517010	0.459500	0.290070
O141	O14	0.315900	0.237800	0.231470
N81	N8	0.441010	0.970200	0.401820
C461	C46	0.523570	0.389600	0.330400
H351	H35	0.501700	0.347300	0.334600
O151	O15	0.163460	0.896910	0.331020
C471	C47	0.561400	0.383300	0.363300
H361	H36	0.564700	0.337800	0.390500
O161	O16	0.162180	0.912960	0.231260
C481	C48	0.595330	0.445300	0.356300
H371	H37	0.621100	0.440300	0.378500
O171	O17	0.595560	0.695440	0.282470
C491	C49	0.590570	0.512500	0.317200
H381	H38	0.613500	0.552300	0.312500
O181	O18	0.579320	0.703400	0.185130
C501	C50	0.551220	0.523100	0.283420
C511	C51	0.544570	0.593400	0.242450
O191	O19	0.366250	0.192800	0.619510
C521	C52	0.576180	0.669900	0.236000
O201	O20	0.287800	0.926700	0.431660
C531	C53	0.506930	0.596800	0.208140
H391	H39	0.503200	0.642300	0.181100
C541	C54	0.473990	0.532600	0.213470
H401	H40	0.449200	0.535000	0.189100
C551	C55	0.308000	0.204600	0.281600
C561	C56	0.270290	0.141100	0.285780
C571	C57	0.278510	0.061600	0.310800
H411	H41	0.306100	0.050700	0.327500
C581	C58	0.246310	0.995700	0.311900
H421	H42	0.252600	0.942100	0.329600
C591	C59	0.205580	0.010300	0.287000
C601	C60	0.194630	0.093600	0.263100
C611	C61	0.151690	0.112900	0.240800
H431	H43	0.130200	0.069400	0.240300
C621	C62	0.141820	0.194000	0.220200
H441	H44	0.113600	0.205500	0.205800
C631	C63	0.173350	0.259900	0.220600
H451	H45	0.165800	0.315300	0.207000
C641	C64	0.215330	0.244500	0.240700
H461	H46	0.236200	0.289200	0.240100
C651	C65	0.227110	0.160800	0.262310
C661	C66	0.174120	0.934700	0.283100
C671	C67	0.412770	0.394800	0.511500
H471	H47	0.427700	0.443400	0.526200
C681	C68	0.392670	0.337400	0.550000
H481	H48	0.394300	0.346200	0.591000
C691	C69	0.370050	0.266500	0.527020
C701	C70	0.370110	0.255000	0.465700
H491	H49	0.355900	0.206100	0.450200
C711	C71	0.349650	0.202300	0.569350
C721	C72	0.295300	0.083600	0.583850
H501	H50	0.316200	0.064800	0.614700
C731	C73	0.252490	0.112800	0.614400
H511	H51	0.258700	0.160800	0.641400
H521	H52	0.231700	0.133200	0.584600
C741	C74	0.232230	0.036500	0.649200
H531	H53	0.251700	0.020900	0.681800
H541	H54	0.204200	0.054900	0.666100
C751	C75	0.224780	0.956800	0.610000
H551	H55	0.214300	0.908600	0.634400
H561	H56	0.202300	0.969900	0.580500
C761	C76	0.267120	0.930000	0.578700
H571	H57	0.261200	0.881300	0.552100
H581	H58	0.288600	0.910900	0.608000
C771	C77	0.286020	0.006500	0.543000
H591	H59	0.263500	0.024900	0.514100
C781	C78	0.323410	0.946800	0.454900
C791	C79	0.365410	0.933900	0.421400
C801	C80	0.403660	0.980500	0.432500
H601	H60	0.403300	0.021400	0.463200
C811	C81	0.441160	0.911100	0.358400
H611	H61	0.467200	0.902300	0.337300
C821	C82	0.404770	0.862200	0.343200
H621	H62	0.406100	0.822400	0.311800
C831	C83	0.366160	0.873300	0.375300
H631	H63	0.341100	0.840700	0.366200
C841	C84	0.410590	0.379700	0.451100
H641	H64	0.424300	0.419000	0.425400
Cu51	Cu5	0.880320	0.200380	0.667570
N91	N9	0.889350	0.189800	0.572350
O211	O21	0.926830	0.114100	0.688200
C851	C85	0.940280	0.097100	0.740100
Cu61	Cu6	0.869900	0.196070	0.785390
O221	O22	0.924660	0.127500	0.788150
C861	C86	0.978150	0.033800	0.745700
N101	N10	0.815310	0.343900	0.449910
H651	H65	0.804200	0.330800	0.484000
O231	O23	0.829830	0.282890	0.671190
N111	N11	0.825770	0.517600	0.490500
H661	H66	0.851300	0.508700	0.474700
C871	C87	0.017010	0.040500	0.709930
O241	O24	0.815900	0.262200	0.768530
N121	N12	0.941010	0.529800	0.598180
C881	C88	0.023570	0.110400	0.669600
H671	H67	0.001700	0.152700	0.665400
O251	O25	0.663460	0.603090	0.668980
C891	C89	0.061400	0.116700	0.636700
H681	H68	0.064700	0.162200	0.609500
O261	O26	0.662180	0.587040	0.768740
C901	C90	0.095330	0.054700	0.643700
H691	H69	0.121100	0.059700	0.621500
O271	O27	0.095560	0.804560	0.717530
C911	C91	0.090570	0.987500	0.682800
H701	H70	0.113500	0.947700	0.687500
O281	O28	0.079320	0.796600	0.814870
C921	C92	0.051220	0.976900	0.716580
C931	C93	0.044570	0.906600	0.757550
O291	O29	0.866250	0.307200	0.380490
C941	C94	0.076180	0.830100	0.764000
O301	O30	0.787800	0.573300	0.568340
C951	C95	0.006930	0.903200	0.791860
H711	H71	0.003200	0.857700	0.818900
C961	C96	0.973990	0.967400	0.786530
H721	H72	0.949200	0.965000	0.810900
C971	C97	0.808000	0.295400	0.718400
C981	C98	0.770290	0.358900	0.714220
C991	C99	0.778510	0.438400	0.689200
H731	H73	0.806100	0.449300	0.672500
C1001	C100	0.746310	0.504300	0.688100
H741	H74	0.752600	0.557900	0.670400
C1011	C101	0.705580	0.489700	0.713000
C1021	C102	0.694630	0.406400	0.736900
C1031	C103	0.651690	0.387100	0.759200
H751	H75	0.630200	0.430600	0.759700
C1041	C104	0.641820	0.306000	0.779800
H761	H76	0.613600	0.294500	0.794200
C1051	C105	0.673350	0.240100	0.779400
H771	H77	0.665800	0.184700	0.793000
C1061	C106	0.715330	0.255500	0.759300
H781	H78	0.736200	0.210800	0.759900
C1071	C107	0.727110	0.339200	0.737690
C1081	C108	0.674120	0.565300	0.716900
C1091	C109	0.912770	0.105200	0.488500
H791	H79	0.927700	0.056600	0.473800
C1101	C110	0.892670	0.162600	0.450000
H801	H80	0.894300	0.153800	0.409000
C1111	C111	0.870050	0.233500	0.472980
C1121	C112	0.870110	0.245000	0.534300
H811	H81	0.855900	0.293900	0.549800
C1131	C113	0.849650	0.297700	0.430650
C1141	C114	0.795300	0.416400	0.416150
H821	H82	0.816200	0.435200	0.385300
C1151	C115	0.752490	0.387200	0.385600
H831	H83	0.758700	0.339200	0.358600
H841	H84	0.731700	0.366800	0.415400
C1161	C116	0.732230	0.463500	0.350800
H851	H85	0.751700	0.479100	0.318200
H861	H86	0.704200	0.445100	0.333900
C1171	C117	0.724780	0.543200	0.390000
H871	H87	0.714300	0.591400	0.365600
H881	H88	0.702300	0.530100	0.419500
C1181	C118	0.767120	0.570000	0.421300
H891	H89	0.761200	0.618700	0.447900
H901	H90	0.788600	0.589100	0.392000
C1191	C119	0.786020	0.493500	0.457000
H911	H91	0.763500	0.475100	0.485900
C1201	C120	0.823410	0.553200	0.545100
C1211	C121	0.865410	0.566100	0.578600
C1221	C122	0.903660	0.519500	0.567500
H921	H92	0.903300	0.478600	0.536800
C1231	C123	0.941160	0.588900	0.641600
H931	H93	0.967200	0.597700	0.662700
C1241	C124	0.904770	0.637800	0.656800
H941	H94	0.906100	0.677600	0.688200
C1251	C125	0.866160	0.626700	0.624700
H951	H95	0.841100	0.659300	0.633800
C1261	C126	0.910590	0.120300	0.548900
H961	H96	0.924300	0.081000	0.574600
Cu71	Cu7	0.619680	0.799620	0.167570
N131	N13	0.610650	0.810200	0.072350
O311	O31	0.573170	0.885900	0.188200
C1271	C127	0.559720	0.902900	0.240100
Cu81	Cu8	0.630100	0.803930	0.285390
O321	O32	0.575340	0.872500	0.288150
C1281	C128	0.521850	0.966200	0.245700
N141	N14	0.684690	0.656100	0.949910
H971	H97	0.695800	0.669200	0.984000
O331	O33	0.670170	0.717110	0.171190
N151	N15	0.674230	0.482400	0.990500
H981	H98	0.648700	0.491300	0.974700
C1291	C129	0.482990	0.959500	0.209930
O341	O34	0.684100	0.737800	0.268530
N161	N16	0.558990	0.470200	0.098180
C1301	C130	0.476430	0.889600	0.169600
H991	H99	0.498300	0.847300	0.165400
O351	O35	0.836540	0.396910	0.168980
C1311	C131	0.438600	0.883300	0.136700
H1001	H100	0.435300	0.837800	0.109500
O361	O36	0.837820	0.412960	0.268740
C1321	C132	0.404670	0.945300	0.143700
H1011	H101	0.378900	0.940300	0.121500
O371	O37	0.404440	0.195440	0.217530
C1331	C133	0.409430	0.012500	0.182800
H1021	H102	0.386500	0.052300	0.187500
O381	O38	0.420680	0.203400	0.314870
C1341	C134	0.448780	0.023100	0.216580
C1351	C135	0.455430	0.093400	0.257550
O391	O39	0.633750	0.692800	0.880490
C1361	C136	0.423820	0.169900	0.264000
O401	O40	0.712200	0.426700	0.068340
C1371	C137	0.493070	0.096800	0.291860
H1031	H103	0.496800	0.142300	0.318900
C1381	C138	0.526010	0.032600	0.286530
H1041	H104	0.550800	0.035000	0.310900
C1391	C139	0.692000	0.704600	0.218400
C1401	C140	0.729710	0.641100	0.214220
C1411	C141	0.721490	0.561600	0.189200
H1051	H105	0.693900	0.550700	0.172500
C1421	C142	0.753690	0.495700	0.188100
H1061	H106	0.747400	0.442100	0.170400
C1431	C143	0.794420	0.510300	0.213000
C1441	C144	0.805370	0.593600	0.236900
C1451	C145	0.848310	0.612900	0.259200
H1071	H107	0.869800	0.569400	0.259700
C1461	C146	0.858180	0.694000	0.279800
H1081	H108	0.886400	0.705500	0.294200
C1471	C147	0.826650	0.759900	0.279400
H1091	H109	0.834200	0.815300	0.293000
C1481	C148	0.784670	0.744500	0.259300
H1101	H110	0.763800	0.789200	0.259900
C1491	C149	0.772890	0.660800	0.237690
C1501	C150	0.825880	0.434700	0.216900
C1511	C151	0.587230	0.894800	0.988500
H1111	H111	0.572300	0.943400	0.973800
C1521	C152	0.607330	0.837400	0.950000
H1121	H112	0.605700	0.846200	0.909000
C1531	C153	0.629950	0.766500	0.972980
C1541	C154	0.629890	0.755000	0.034300
H1131	H113	0.644100	0.706100	0.049800
C1551	C155	0.650350	0.702300	0.930650
C1561	C156	0.704700	0.583600	0.916150
H1141	H114	0.683800	0.564800	0.885300
C1571	C157	0.747510	0.612800	0.885600
H1151	H115	0.741300	0.660800	0.858600
H1161	H116	0.768300	0.633200	0.915400
C1581	C158	0.767770	0.536500	0.850800
H1171	H117	0.748300	0.520900	0.818200
H1181	H118	0.795800	0.554900	0.833900
C1591	C159	0.775220	0.456800	0.890000
H1191	H119	0.785700	0.408600	0.865600
H1201	H120	0.797700	0.469900	0.919500
C1601	C160	0.732880	0.430000	0.921300
H1211	H121	0.738800	0.381300	0.947900
H1221	H122	0.711400	0.410900	0.892000
C1611	C161	0.713980	0.506500	0.957000
H1231	H123	0.736500	0.524900	0.985900
C1621	C162	0.676590	0.446800	0.045100
C1631	C163	0.634590	0.433900	0.078600
C1641	C164	0.596340	0.480500	0.067500
H1241	H124	0.596700	0.521400	0.036800
C1651	C165	0.558840	0.411100	0.141600
H1251	H125	0.532800	0.402300	0.162700
C1661	C166	0.595230	0.362200	0.156800
H1261	H126	0.593900	0.322400	0.188200
C1671	C167	0.633840	0.373300	0.124700
H1271	H127	0.658900	0.340700	0.133800
C1681	C168	0.589410	0.879700	0.048900
H1281	H128	0.575700	0.919000	0.074600
Cu91	Cu9	0.880320	0.299620	0.167570
N171	N17	0.889350	0.310200	0.072350
O411	O41	0.926830	0.385900	0.188200
C1691	C169	0.940280	0.402900	0.240100
Cu101	Cu10	0.869900	0.303930	0.285390
O421	O42	0.924660	0.372500	0.288150
C1701	C170	0.978150	0.466200	0.245700
N181	N18	0.815310	0.156100	0.949910
H1291	H129	0.804200	0.169200	0.984000
O431	O43	0.829830	0.217110	0.171190
N191	N19	0.825770	0.982400	0.990500
H1301	H130	0.851300	0.991300	0.974700
C1711	C171	0.017010	0.459500	0.209930
O441	O44	0.815900	0.237800	0.268530
N201	N20	0.941010	0.970200	0.098180
C1721	C172	0.023570	0.389600	0.169600
H1311	H131	0.001700	0.347300	0.165400
O451	O45	0.663460	0.896910	0.168980
C1731	C173	0.061400	0.383300	0.136700
H1321	H132	0.064700	0.337800	0.109500
O461	O46	0.662180	0.912960	0.268740
C1741	C174	0.095330	0.445300	0.143700
H1331	H133	0.121100	0.440300	0.121500
O471	O47	0.095560	0.695440	0.217530
C1751	C175	0.090570	0.512500	0.182800
H1341	H134	0.113500	0.552300	0.187500
O481	O48	0.079320	0.703400	0.314870
C1761	C176	0.051220	0.523100	0.216580
C1771	C177	0.044570	0.593400	0.257550
O491	O49	0.866250	0.192800	0.880490
C1781	C178	0.076180	0.669900	0.264000
O501	O50	0.787800	0.926700	0.068340
C1791	C179	0.006930	0.596800	0.291860
H1351	H135	0.003200	0.642300	0.318900
C1801	C180	0.973990	0.532600	0.286530
H1361	H136	0.949200	0.535000	0.310900
C1811	C181	0.808000	0.204600	0.218400
C1821	C182	0.770290	0.141100	0.214220
C1831	C183	0.778510	0.061600	0.189200
H1371	H137	0.806100	0.050700	0.172500
C1841	C184	0.746310	0.995700	0.188100
H1381	H138	0.752600	0.942100	0.170400
C1851	C185	0.705580	0.010300	0.213000
C1861	C186	0.694630	0.093600	0.236900
C1871	C187	0.651690	0.112900	0.259200
H1391	H139	0.630200	0.069400	0.259700
C1881	C188	0.641820	0.194000	0.279800
H1401	H140	0.613600	0.205500	0.294200
C1891	C189	0.673350	0.259900	0.279400
H1411	H141	0.665800	0.315300	0.293000
C1901	C190	0.715330	0.244500	0.259300
H1421	H142	0.736200	0.289200	0.259900
C1911	C191	0.727110	0.160800	0.237690
C1921	C192	0.674120	0.934700	0.216900
C1931	C193	0.912770	0.394800	0.988500
H1431	H143	0.927700	0.443400	0.973800
C1941	C194	0.892670	0.337400	0.950000
H1441	H144	0.894300	0.346200	0.909000
C1951	C195	0.870050	0.266500	0.972980
C1961	C196	0.870110	0.255000	0.034300
H1451	H145	0.855900	0.206100	0.049800
C1971	C197	0.849650	0.202300	0.930650
C1981	C198	0.795300	0.083600	0.916150
H1461	H146	0.816200	0.064800	0.885300
C1991	C199	0.752490	0.112800	0.885600
H1471	H147	0.758700	0.160800	0.858600
H1481	H148	0.731700	0.133200	0.915400
C2001	C200	0.732230	0.036500	0.850800
H1491	H149	0.751700	0.020900	0.818200
H1501	H150	0.704200	0.054900	0.833900
C2011	C201	0.724780	0.956800	0.890000
H1511	H151	0.714300	0.908600	0.865600
H1521	H152	0.702300	0.969900	0.919500
C2021	C202	0.767120	0.930000	0.921300
H1531	H153	0.761200	0.881300	0.947900
H1541	H154	0.788600	0.910900	0.892000
C2031	C203	0.786020	0.006500	0.957000
H1551	H155	0.763500	0.024900	0.985900
C2041	C204	0.823410	0.946800	0.045100
C2051	C205	0.865410	0.933900	0.078600
C2061	C206	0.903660	0.980500	0.067500
H1561	H156	0.903300	0.021400	0.036800
C2071	C207	0.941160	0.911100	0.141600
H1571	H157	0.967200	0.902300	0.162700
C2081	C208	0.904770	0.862200	0.156800
H1581	H158	0.906100	0.822400	0.188200
C2091	C209	0.866160	0.873300	0.124700
H1591	H159	0.841100	0.840700	0.133800
C2101	C210	0.910590	0.379700	0.048900
H1601	H160	0.924300	0.419000	0.074600
Cu111	Cu11	0.619680	0.700380	0.667570
N211	N21	0.610650	0.689800	0.572350
O511	O51	0.573170	0.614100	0.688200
C2111	C211	0.559720	0.597100	0.740100
Cu121	Cu12	0.630100	0.696070	0.785390
O521	O52	0.575340	0.627500	0.788150
C2121	C212	0.521850	0.533800	0.745700
N221	N22	0.684690	0.843900	0.449910
H1611	H161	0.695800	0.830800	0.484000
O531	O53	0.670170	0.782890	0.671190
N231	N23	0.674230	0.017600	0.490500
H1621	H162	0.648700	0.008700	0.474700
C2131	C213	0.482990	0.540500	0.709930
O541	O54	0.684100	0.762200	0.768530
N241	N24	0.558990	0.029800	0.598180
C2141	C214	0.476430	0.610400	0.669600
H1631	H163	0.498300	0.652700	0.665400
O551	O55	0.836540	0.103090	0.668980
C2151	C215	0.438600	0.616700	0.636700
H1641	H164	0.435300	0.662200	0.609500
O561	O56	0.837820	0.087040	0.768740
C2161	C216	0.404670	0.554700	0.643700
H1651	H165	0.378900	0.559700	0.621500
O571	O57	0.404440	0.304560	0.717530
C2171	C217	0.409430	0.487500	0.682800
H1661	H166	0.386500	0.447700	0.687500
O581	O58	0.420680	0.296600	0.814870
C2181	C218	0.448780	0.476900	0.716580
C2191	C219	0.455430	0.406600	0.757550
O591	O59	0.633750	0.807200	0.380490
C2201	C220	0.423820	0.330100	0.764000
O601	O60	0.712200	0.073300	0.568340
C2211	C221	0.493070	0.403200	0.791860
H1671	H167	0.496800	0.357700	0.818900
C2221	C222	0.526010	0.467400	0.786530
H1681	H168	0.550800	0.465000	0.810900
C2231	C223	0.692000	0.795400	0.718400
C2241	C224	0.729710	0.858900	0.714220
C2251	C225	0.721490	0.938400	0.689200
H1691	H169	0.693900	0.949300	0.672500
C2261	C226	0.753690	0.004300	0.688100
H1701	H170	0.747400	0.057900	0.670400
C2271	C227	0.794420	0.989700	0.713000
C2281	C228	0.805370	0.906400	0.736900
C2291	C229	0.848310	0.887100	0.759200
H1711	H171	0.869800	0.930600	0.759700
C2301	C230	0.858180	0.806000	0.779800
H1721	H172	0.886400	0.794500	0.794200
C2311	C231	0.826650	0.740100	0.779400
H1731	H173	0.834200	0.684700	0.793000
C2321	C232	0.784670	0.755500	0.759300
H1741	H174	0.763800	0.710800	0.759900
C2331	C233	0.772890	0.839200	0.737690
C2341	C234	0.825880	0.065300	0.716900
C2351	C235	0.587230	0.605200	0.488500
H1751	H175	0.572300	0.556600	0.473800
C2361	C236	0.607330	0.662600	0.450000
H1761	H176	0.605700	0.653800	0.409000
C2371	C237	0.629950	0.733500	0.472980
C2381	C238	0.629890	0.745000	0.534300
H1771	H177	0.644100	0.793900	0.549800
C2391	C239	0.650350	0.797700	0.430650
C2401	C240	0.704700	0.916400	0.416150
H1781	H178	0.683800	0.935200	0.385300
C2411	C241	0.747510	0.887200	0.385600
H1791	H179	0.741300	0.839200	0.358600
H1801	H180	0.768300	0.866800	0.415400
C2421	C242	0.767770	0.963500	0.350800
H1811	H181	0.748300	0.979100	0.318200
H1821	H182	0.795800	0.945100	0.333900
C2431	C243	0.775220	0.043200	0.390000
H1831	H183	0.785700	0.091400	0.365600
H1841	H184	0.797700	0.030100	0.419500
C2441	C244	0.732880	0.070000	0.421300
H1851	H185	0.738800	0.118700	0.447900
H1861	H186	0.711400	0.089100	0.392000
C2451	C245	0.713980	0.993500	0.457000
H1871	H187	0.736500	0.975100	0.485900
C2461	C246	0.676590	0.053200	0.545100
C2471	C247	0.634590	0.066100	0.578600
C2481	C248	0.596340	0.019500	0.567500
H1881	H188	0.596700	0.978600	0.536800
C2491	C249	0.558840	0.088900	0.641600
H1891	H189	0.532800	0.097700	0.662700
C2501	C250	0.595230	0.137800	0.656800
H1901	H190	0.593900	0.177600	0.688200
C2511	C251	0.633840	0.126700	0.624700
H1911	H191	0.658900	0.159300	0.633800
C2521	C252	0.589410	0.620300	0.548900
H1921	H192	0.575700	0.581000	0.574600
Cu131	Cu13	0.119680	0.799620	0.332430
N251	N25	0.110650	0.810200	0.427650
O611	O61	0.073170	0.885900	0.311800
C2531	C253	0.059720	0.902900	0.259900
Cu141	Cu14	0.130100	0.803930	0.214610
O621	O62	0.075340	0.872500	0.211850
C2541	C254	0.021850	0.966200	0.254300
N261	N26	0.184690	0.656100	0.550090
H1931	H193	0.195800	0.669200	0.516000
O631	O63	0.170170	0.717110	0.328810
N271	N27	0.174230	0.482400	0.509500
H1941	H194	0.148700	0.491300	0.525300
C2551	C255	0.982990	0.959500	0.290070
O641	O64	0.184100	0.737800	0.231470
N281	N28	0.058990	0.470200	0.401820
C2561	C256	0.976430	0.889600	0.330400
H1951	H195	0.998300	0.847300	0.334600
O651	O65	0.336540	0.396910	0.331020
C2571	C257	0.938600	0.883300	0.363300
H1961	H196	0.935300	0.837800	0.390500
O661	O66	0.337820	0.412960	0.231260
C2581	C258	0.904670	0.945300	0.356300
H1971	H197	0.878900	0.940300	0.378500
O671	O67	0.904440	0.195440	0.282470
C2591	C259	0.909430	0.012500	0.317200
H1981	H198	0.886500	0.052300	0.312500
O681	O68	0.920680	0.203400	0.185130
C2601	C260	0.948780	0.023100	0.283420
C2611	C261	0.955430	0.093400	0.242450
O691	O69	0.133750	0.692800	0.619510
C2621	C262	0.923820	0.169900	0.236000
O701	O70	0.212200	0.426700	0.431660
C2631	C263	0.993070	0.096800	0.208140
H1991	H199	0.996800	0.142300	0.181100
C2641	C264	0.026010	0.032600	0.213470
H2001	H200	0.050800	0.035000	0.189100
C2651	C265	0.192000	0.704600	0.281600
C2661	C266	0.229710	0.641100	0.285780
C2671	C267	0.221490	0.561600	0.310800
H2011	H201	0.193900	0.550700	0.327500
C2681	C268	0.253690	0.495700	0.311900
H2021	H202	0.247400	0.442100	0.329600
C2691	C269	0.294420	0.510300	0.287000
C2701	C270	0.305370	0.593600	0.263100
C2711	C271	0.348310	0.612900	0.240800
H2031	H203	0.369800	0.569400	0.240300
C2721	C272	0.358180	0.694000	0.220200
H2041	H204	0.386400	0.705500	0.205800
C2731	C273	0.326650	0.759900	0.220600
H2051	H205	0.334200	0.815300	0.207000
C2741	C274	0.284670	0.744500	0.240700
H2061	H206	0.263800	0.789200	0.240100
C2751	C275	0.272890	0.660800	0.262310
C2761	C276	0.325880	0.434700	0.283100
C2771	C277	0.087230	0.894800	0.511500
H2071	H207	0.072300	0.943400	0.526200
C2781	C278	0.107330	0.837400	0.550000
H2081	H208	0.105700	0.846200	0.591000
C2791	C279	0.129950	0.766500	0.527020
C2801	C280	0.129890	0.755000	0.465700
H2091	H209	0.144100	0.706100	0.450200
C2811	C281	0.150350	0.702300	0.569350
C2821	C282	0.204700	0.583600	0.583850
H2101	H210	0.183800	0.564800	0.614700
C2831	C283	0.247510	0.612800	0.614400
H2111	H211	0.241300	0.660800	0.641400
H2121	H212	0.268300	0.633200	0.584600
C2841	C284	0.267770	0.536500	0.649200
H2131	H213	0.248300	0.520900	0.681800
H2141	H214	0.295800	0.554900	0.666100
C2851	C285	0.275220	0.456800	0.610000
H2151	H215	0.285700	0.408600	0.634400
H2161	H216	0.297700	0.469900	0.580500
C2861	C286	0.232880	0.430000	0.578700
H2171	H217	0.238800	0.381300	0.552100
H2181	H218	0.211400	0.410900	0.608000
C2871	C287	0.213980	0.506500	0.543000
H2191	H219	0.236500	0.524900	0.514100
C2881	C288	0.176590	0.446800	0.454900
C2891	C289	0.134590	0.433900	0.421400
C2901	C290	0.096340	0.480500	0.432500
H2201	H220	0.096700	0.521400	0.463200
C2911	C291	0.058840	0.411100	0.358400
H2211	H221	0.032800	0.402300	0.337300
C2921	C292	0.095230	0.362200	0.343200
H2221	H222	0.093900	0.322400	0.311800
C2931	C293	0.133840	0.373300	0.375300
H2231	H223	0.158900	0.340700	0.366200
C2941	C294	0.089410	0.879700	0.451100
H2241	H224	0.075700	0.919000	0.425400
Cu151	Cu15	0.380320	0.200380	0.832430
N291	N29	0.389350	0.189800	0.927650
O711	O71	0.426830	0.114100	0.811800
C2951	C295	0.440280	0.097100	0.759900
Cu161	Cu16	0.369900	0.196070	0.714610
O721	O72	0.424660	0.127500	0.711850
C2961	C296	0.478150	0.033800	0.754300
N301	N30	0.315310	0.343900	0.050090
H2251	H225	0.304200	0.330800	0.016000
O731	O73	0.329830	0.282890	0.828810
N311	N31	0.325770	0.517600	0.009500
H2261	H226	0.351300	0.508700	0.025300
C2971	C297	0.517010	0.040500	0.790070
O741	O74	0.315900	0.262200	0.731470
N321	N32	0.441010	0.529800	0.901820
C2981	C298	0.523570	0.110400	0.830400
H2271	H227	0.501700	0.152700	0.834600
O751	O75	0.163460	0.603090	0.831020
C2991	C299	0.561400	0.116700	0.863300
H2281	H228	0.564700	0.162200	0.890500
O761	O76	0.162180	0.587040	0.731260
C3001	C300	0.595330	0.054700	0.856300
H2291	H229	0.621100	0.059700	0.878500
O771	O77	0.595560	0.804560	0.782470
C3011	C301	0.590570	0.987500	0.817200
H2301	H230	0.613500	0.947700	0.812500
O781	O78	0.579320	0.796600	0.685130
C3021	C302	0.551220	0.976900	0.783420
C3031	C303	0.544570	0.906600	0.742450
O791	O79	0.366250	0.307200	0.119510
C3041	C304	0.576180	0.830100	0.736000
O801	O80	0.287800	0.573300	0.931660
C3051	C305	0.506930	0.903200	0.708140
H2311	H231	0.503200	0.857700	0.681100
C3061	C306	0.473990	0.967400	0.713470
H2321	H232	0.449200	0.965000	0.689100
C3071	C307	0.308000	0.295400	0.781600
C3081	C308	0.270290	0.358900	0.785780
C3091	C309	0.278510	0.438400	0.810800
H2331	H233	0.306100	0.449300	0.827500
C3101	C310	0.246310	0.504300	0.811900
H2341	H234	0.252600	0.557900	0.829600
C3111	C311	0.205580	0.489700	0.787000
C3121	C312	0.194630	0.406400	0.763100
C3131	C313	0.151690	0.387100	0.740800
H2351	H235	0.130200	0.430600	0.740300
C3141	C314	0.141820	0.306000	0.720200
H2361	H236	0.113600	0.294500	0.705800
C3151	C315	0.173350	0.240100	0.720600
H2371	H237	0.165800	0.184700	0.707000
C3161	C316	0.215330	0.255500	0.740700
H2381	H238	0.236200	0.210800	0.740100
C3171	C317	0.227110	0.339200	0.762310
C3181	C318	0.174120	0.565300	0.783100
C3191	C319	0.412770	0.105200	0.011500
H2391	H239	0.427700	0.056600	0.026200
C3201	C320	0.392670	0.162600	0.050000
H2401	H240	0.394300	0.153800	0.091000
C3211	C321	0.370050	0.233500	0.027020
C3221	C322	0.370110	0.245000	0.965700
H2411	H241	0.355900	0.293900	0.950200
C3231	C323	0.349650	0.297700	0.069350
C3241	C324	0.295300	0.416400	0.083850
H2421	H242	0.316200	0.435200	0.114700
C3251	C325	0.252490	0.387200	0.114400
H2431	H243	0.258700	0.339200	0.141400
H2441	H244	0.231700	0.366800	0.084600
C3261	C326	0.232230	0.463500	0.149200
H2451	H245	0.251700	0.479100	0.181800
H2461	H246	0.204200	0.445100	0.166100
C3271	C327	0.224780	0.543200	0.110000
H2471	H247	0.214300	0.591400	0.134400
H2481	H248	0.202300	0.530100	0.080500
C3281	C328	0.267120	0.570000	0.078700
H2491	H249	0.261200	0.618700	0.052100
H2501	H250	0.288600	0.589100	0.108000
C3291	C329	0.286020	0.493500	0.043000
H2511	H251	0.263500	0.475100	0.014100
C3301	C330	0.323410	0.553200	0.954900
C3311	C331	0.365410	0.566100	0.921400
C3321	C332	0.403660	0.519500	0.932500
H2521	H252	0.403300	0.478600	0.963200
C3331	C333	0.441160	0.588900	0.858400
H2531	H253	0.467200	0.597700	0.837300
C3341	C334	0.404770	0.637800	0.843200
H2541	H254	0.406100	0.677600	0.811800
C3351	C335	0.366160	0.626700	0.875300
H2551	H255	0.341100	0.659300	0.866200
C3361	C336	0.410590	0.120300	0.951100
H2561	H256	0.424300	0.081000	0.925400
