data_WONRUM01_clean_PM
_symmetry_space_group_name_H-M	'P1'
_cell_length_a	5.079800
_cell_length_b	15.203000
_cell_length_c	16.353500
_cell_angle_alpha	90.000000
_cell_angle_beta	95.690000
_cell_angle_gamma	90.000000
_symmetry_Int_Tables_number 1

loop_
_symmetry_equiv_pos_as_xyz
'x,y,z'

loop_
_atom_site_label
_atom_site_type_symbol
_atom_site_fract_x
_atom_site_fract_y
_atom_site_fract_z
Co11	Co1	0.965500	0.677120	0.216390
Co21	Co2	0.345700	0.803120	0.081540
Co31	Co3	0.008500	0.928970	0.819840
P11	P1	0.415400	0.600780	0.130080
P21	P2	0.924600	0.869450	0.162190
P31	P3	0.474800	0.886040	0.911840
O11	O1	0.289800	0.959800	0.933700
O21	O2	0.029800	0.885200	0.077300
O31	O3	0.754300	0.921400	0.905000
O41	O4	0.100000	0.794200	0.201200
O51	O5	0.716400	0.610500	0.142800
O61	O6	0.805900	0.885900	0.715900
O71	O7	0.346800	0.854900	0.825400
O81	O8	0.637000	0.841200	0.158100
O91	O9	0.294300	0.674200	0.073800
O101	O10	0.477100	0.808800	0.971200
O111	O11	0.032600	0.049300	0.782900
O121	O12	0.333000	0.512100	0.096500
Co41	Co4	0.534500	0.177120	0.283610
Co51	Co5	0.154300	0.303120	0.418460
Co61	Co6	0.491500	0.428970	0.680160
P41	P4	0.084600	0.100780	0.369920
P51	P5	0.575400	0.369450	0.337810
P61	P6	0.025200	0.386040	0.588160
O131	O13	0.210200	0.459800	0.566300
O141	O14	0.470200	0.385200	0.422700
O151	O15	0.745700	0.421400	0.595000
O161	O16	0.400000	0.294200	0.298800
O171	O17	0.783600	0.110500	0.357200
O181	O18	0.694100	0.385900	0.784100
O191	O19	0.153200	0.354900	0.674600
O201	O20	0.863000	0.341200	0.341900
O211	O21	0.205700	0.174200	0.426200
O221	O22	0.022900	0.308800	0.528800
O231	O23	0.467400	0.549300	0.717100
O241	O24	0.167000	0.012100	0.403500
Co71	Co7	0.034500	0.322880	0.783610
Co81	Co8	0.654300	0.196880	0.918460
Co91	Co9	0.991500	0.071030	0.180160
P71	P7	0.584600	0.399220	0.869920
P81	P8	0.075400	0.130550	0.837810
P91	P9	0.525200	0.113960	0.088160
O251	O25	0.710200	0.040200	0.066300
O261	O26	0.970200	0.114800	0.922700
O271	O27	0.245700	0.078600	0.095000
O281	O28	0.900000	0.205800	0.798800
O291	O29	0.283600	0.389500	0.857200
O301	O30	0.194100	0.114100	0.284100
O311	O31	0.653200	0.145100	0.174600
O321	O32	0.363000	0.158800	0.841900
O331	O33	0.705700	0.325800	0.926200
O341	O34	0.522900	0.191200	0.028800
O351	O35	0.967400	0.950700	0.217100
O361	O36	0.667000	0.487900	0.903500
Co101	Co10	0.465500	0.822880	0.716390
Co111	Co11	0.845700	0.696880	0.581540
Co121	Co12	0.508500	0.571030	0.319840
P101	P10	0.915400	0.899220	0.630080
P111	P11	0.424600	0.630550	0.662190
P121	P12	0.974800	0.613960	0.411840
O371	O37	0.789800	0.540200	0.433700
O381	O38	0.529800	0.614800	0.577300
O391	O39	0.254300	0.578600	0.405000
O401	O40	0.600000	0.705800	0.701200
O411	O41	0.216400	0.889500	0.642800
O421	O42	0.305900	0.614100	0.215900
O431	O43	0.846800	0.645100	0.325400
O441	O44	0.137000	0.658800	0.658100
O451	O45	0.794300	0.825800	0.573800
O461	O46	0.977100	0.691200	0.471200
O471	O47	0.532600	0.450700	0.282900
O481	O48	0.833000	0.987900	0.596500
Co131	Co13	0.000000	0.000000	0.000000
Co141	Co14	0.500000	0.500000	0.500000
