data_WONRUM_clean_PM
_symmetry_space_group_name_H-M	'P1'
_cell_length_a	5.097900
_cell_length_b	15.233800
_cell_length_c	16.424700
_cell_angle_alpha	90.000000
_cell_angle_beta	95.668000
_cell_angle_gamma	90.000000
_symmetry_Int_Tables_number 1

loop_
_symmetry_equiv_pos_as_xyz
'x,y,z'

loop_
_atom_site_label
_atom_site_type_symbol
_atom_site_fract_x
_atom_site_fract_y
_atom_site_fract_z
Co11	Co1	0.965400	0.677110	0.216500
Co21	Co2	0.343300	0.802620	0.082220
Co31	Co3	0.010400	0.928490	0.820410
P11	P1	0.415100	0.599910	0.130490
P21	P2	0.924400	0.869460	0.162200
P31	P3	0.476100	0.885910	0.912480
O11	O1	0.290500	0.959700	0.933200
O21	O2	0.029400	0.885200	0.077100
O31	O3	0.757200	0.920600	0.906000
O41	O4	0.104200	0.794900	0.201100
O51	O5	0.717800	0.609500	0.142800
O61	O6	0.806500	0.885900	0.716300
O71	O7	0.348300	0.853900	0.825600
O81	O8	0.637200	0.839700	0.158500
O91	O9	0.292900	0.672700	0.073500
O101	O10	0.479000	0.808900	0.971700
O111	O11	0.034200	0.048900	0.782400
O121	O12	0.334100	0.510000	0.097400
Co41	Co4	0.534600	0.177110	0.283500
Co51	Co5	0.156700	0.302620	0.417780
Co61	Co6	0.489600	0.428490	0.679590
P41	P4	0.084900	0.099910	0.369510
P51	P5	0.575600	0.369460	0.337800
P61	P6	0.023900	0.385910	0.587520
O131	O13	0.209500	0.459700	0.566800
O141	O14	0.470600	0.385200	0.422900
O151	O15	0.742800	0.420600	0.594000
O161	O16	0.395800	0.294900	0.298900
O171	O17	0.782200	0.109500	0.357200
O181	O18	0.693500	0.385900	0.783700
O191	O19	0.151700	0.353900	0.674400
O201	O20	0.862800	0.339700	0.341500
O211	O21	0.207100	0.172700	0.426500
O221	O22	0.021000	0.308900	0.528300
O231	O23	0.465800	0.548900	0.717600
O241	O24	0.165900	0.010000	0.402600
Co71	Co7	0.034600	0.322890	0.783500
Co81	Co8	0.656700	0.197380	0.917780
Co91	Co9	0.989600	0.071510	0.179590
P71	P7	0.584900	0.400090	0.869510
P81	P8	0.075600	0.130540	0.837800
P91	P9	0.523900	0.114090	0.087520
O251	O25	0.709500	0.040300	0.066800
O261	O26	0.970600	0.114800	0.922900
O271	O27	0.242800	0.079400	0.094000
O281	O28	0.895800	0.205100	0.798900
O291	O29	0.282200	0.390500	0.857200
O301	O30	0.193500	0.114100	0.283700
O311	O31	0.651700	0.146100	0.174400
O321	O32	0.362800	0.160300	0.841500
O331	O33	0.707100	0.327300	0.926500
O341	O34	0.521000	0.191100	0.028300
O351	O35	0.965800	0.951100	0.217600
O361	O36	0.665900	0.490000	0.902600
Co101	Co10	0.465400	0.822890	0.716500
Co111	Co11	0.843300	0.697380	0.582220
Co121	Co12	0.510400	0.571510	0.320410
P101	P10	0.915100	0.900090	0.630490
P111	P11	0.424400	0.630540	0.662200
P121	P12	0.976100	0.614090	0.412480
O371	O37	0.790500	0.540300	0.433200
O381	O38	0.529400	0.614800	0.577100
O391	O39	0.257200	0.579400	0.406000
O401	O40	0.604200	0.705100	0.701100
O411	O41	0.217800	0.890500	0.642800
O421	O42	0.306500	0.614100	0.216300
O431	O43	0.848300	0.646100	0.325600
O441	O44	0.137200	0.660300	0.658500
O451	O45	0.792900	0.827300	0.573500
O461	O46	0.979000	0.691100	0.471700
O471	O47	0.534200	0.451100	0.282400
O481	O48	0.834100	0.990000	0.597400
Co131	Co13	0.000000	0.000000	0.000000
Co141	Co14	0.500000	0.500000	0.500000
