data_WOPDEL_clean_PM
_symmetry_space_group_name_H-M	'P1'
_cell_length_a	13.558300
_cell_length_b	13.909400
_cell_length_c	16.280000
_cell_angle_alpha	107.802000
_cell_angle_beta	90.000000
_cell_angle_gamma	119.169000
_symmetry_Int_Tables_number 1

loop_
_symmetry_equiv_pos_as_xyz
'x,y,z'

loop_
_atom_site_label
_atom_site_type_symbol
_atom_site_fract_x
_atom_site_fract_y
_atom_site_fract_z
Mn11	Mn1	0.970220	0.410820	0.864240
Mn21	Mn2	0.559400	0.589180	0.635760
Mn31	Mn3	0.029780	0.589180	0.135760
Mn41	Mn4	0.440600	0.410820	0.364240
H11	H1	0.013700	0.371400	0.311700
H21	H2	0.010400	0.252200	0.292500
H31	H3	0.908100	0.253800	0.249400
H41	H4	0.792200	0.320000	0.435800
H51	H5	0.900600	0.426200	0.423000
H61	H6	0.803200	0.330000	0.342500
H71	H7	0.761000	0.119200	0.306900
H81	H8	0.851200	0.097600	0.345700
H91	H9	0.777500	0.135800	0.406600
H101	H10	0.194900	0.405000	0.661700
H111	H11	0.133200	0.344000	0.405500
H121	H12	0.880200	0.289400	0.543500
H131	H13	0.230000	0.515200	0.842000
H141	H14	0.393600	0.679400	0.846300
H151	H15	0.231800	0.858000	0.919000
H161	H16	0.075200	0.691200	0.911700
H171	H17	0.424100	0.962600	0.899200
H181	H18	0.545000	0.849200	0.851700
H191	H19	0.702900	0.284200	0.868100
H201	H20	0.551400	0.120000	0.870200
H211	H21	0.751200	0.981200	0.862200
H221	H22	0.900100	0.155000	0.862700
H231	H23	0.642300	0.628600	0.188300
H241	H24	0.758200	0.747800	0.207500
H251	H25	0.654300	0.746200	0.250600
H261	H26	0.472200	0.680000	0.064200
H271	H27	0.474400	0.573800	0.077000
H281	H28	0.473200	0.670000	0.157500
H291	H29	0.641800	0.880800	0.193100
H301	H30	0.753600	0.902400	0.154300
H311	H31	0.641700	0.864200	0.093400
H321	H32	0.789900	0.595000	0.838300
H331	H33	0.789200	0.656000	0.094500
H341	H34	0.590800	0.710600	0.956500
H351	H35	0.714800	0.484800	0.658000
H361	H36	0.714200	0.320600	0.653700
H371	H37	0.373800	0.142000	0.581000
H381	H38	0.384000	0.308800	0.588300
H391	H39	0.461500	0.037400	0.600800
H401	H40	0.695800	0.150800	0.648300
H411	H41	0.418700	0.715800	0.631900
H421	H42	0.431400	0.880000	0.629800
H431	H43	0.770000	0.018800	0.637800
H441	H44	0.745100	0.845000	0.637300
H451	H45	0.986300	0.628600	0.688300
H461	H46	0.989600	0.747800	0.707500
H471	H47	0.091900	0.746200	0.750600
H481	H48	0.207800	0.680000	0.564200
H491	H49	0.099400	0.573800	0.577000
H501	H50	0.196800	0.670000	0.657500
H511	H51	0.239000	0.880800	0.693100
H521	H52	0.148800	0.902400	0.654300
H531	H53	0.222500	0.864200	0.593400
H541	H54	0.805100	0.595000	0.338300
H551	H55	0.866800	0.656000	0.594500
H561	H56	0.119800	0.710600	0.456500
H571	H57	0.770000	0.484800	0.158000
H581	H58	0.606400	0.320600	0.153700
H591	H59	0.768200	0.142000	0.081000
H601	H60	0.924800	0.308800	0.088300
H611	H61	0.575900	0.037400	0.100800
H621	H62	0.455000	0.150800	0.148300
H631	H63	0.297100	0.715800	0.131900
H641	H64	0.448600	0.880000	0.129800
H651	H65	0.248800	0.018800	0.137800
H661	H66	0.099900	0.845000	0.137300
H671	H67	0.357700	0.371400	0.811700
H681	H68	0.241800	0.252200	0.792500
H691	H69	0.345700	0.253800	0.749400
H701	H70	0.527800	0.320000	0.935800
H711	H71	0.525600	0.426200	0.923000
H721	H72	0.526800	0.330000	0.842500
H731	H73	0.358200	0.119200	0.806900
H741	H74	0.246400	0.097600	0.845700
H751	H75	0.358300	0.135800	0.906600
H761	H76	0.210100	0.405000	0.161700
H771	H77	0.210800	0.344000	0.905500
H781	H78	0.409200	0.289400	0.043500
H791	H79	0.285200	0.515200	0.342000
H801	H80	0.285800	0.679400	0.346300
H811	H81	0.626200	0.858000	0.419000
H821	H82	0.616000	0.691200	0.411700
H831	H83	0.538500	0.962600	0.399200
H841	H84	0.304200	0.849200	0.351700
H851	H85	0.581300	0.284200	0.368100
H861	H86	0.568600	0.120000	0.370200
H871	H87	0.230000	0.981200	0.362200
H881	H88	0.254900	0.155000	0.362700
C11	C1	0.965000	0.289000	0.301000
C21	C2	0.844700	0.344000	0.396700
C31	C3	0.815800	0.144600	0.357500
C41	C4	0.031900	0.347400	0.615300
C51	C5	0.144800	0.383800	0.611900
C61	C6	0.184200	0.389000	0.534800
C71	C7	0.107400	0.348600	0.458700
C81	C8	0.994300	0.315800	0.460600
C91	C9	0.956800	0.313800	0.540500
C101	C10	0.988900	0.343600	0.700400
C111	C11	0.310100	0.436000	0.531700
C121	C12	0.906600	0.272200	0.378400
C131	C13	0.230300	0.585600	0.857600
C141	C14	0.329000	0.684000	0.859700
C151	C15	0.334200	0.789000	0.881200
C161	C16	0.233500	0.788800	0.902300
C171	C17	0.140700	0.688600	0.898300
C181	C18	0.432100	0.897000	0.883600
C191	C19	0.534100	0.913000	0.865700
C201	C20	0.713900	0.223200	0.868000
C211	C21	0.622000	0.124400	0.868700
C221	C22	0.630700	0.027600	0.867300
C231	C23	0.739000	0.042000	0.864300
C241	C24	0.828300	0.147800	0.864600
C251	C25	0.676000	0.711000	0.199000
C261	C26	0.500700	0.656000	0.103300
C271	C27	0.671200	0.855400	0.142500
C281	C28	0.684500	0.652600	0.884700
C291	C29	0.761000	0.616200	0.888100
C301	C30	0.795200	0.611000	0.965200
C311	C31	0.758800	0.651400	0.041300
C321	C32	0.678500	0.684200	0.039400
C331	C33	0.643000	0.686200	0.959500
C341	C34	0.645300	0.656400	0.799600
C351	C35	0.874100	0.564000	0.968300
C361	C36	0.634400	0.727800	0.121600
C371	C37	0.644700	0.414400	0.642400
C381	C38	0.645000	0.316000	0.640300
C391	C39	0.545200	0.211000	0.618800
C401	C40	0.444700	0.211200	0.597700
C411	C41	0.452100	0.311400	0.601700
C421	C42	0.535100	0.103000	0.616400
C431	C43	0.621100	0.087000	0.634300
C441	C44	0.490700	0.776800	0.632000
C451	C45	0.497600	0.875600	0.631300
C461	C46	0.603100	0.972400	0.632700
C471	C47	0.697000	0.958000	0.635700
C481	C48	0.680500	0.852200	0.635400
C491	C49	0.035000	0.711000	0.699000
C501	C50	0.155300	0.656000	0.603300
C511	C51	0.184200	0.855400	0.642500
C521	C52	0.968100	0.652600	0.384700
C531	C53	0.855200	0.616200	0.388100
C541	C54	0.815800	0.611000	0.465200
C551	C55	0.892600	0.651400	0.541300
C561	C56	0.005700	0.684200	0.539400
C571	C57	0.043200	0.686200	0.459500
C581	C58	0.011100	0.656400	0.299600
C591	C59	0.689900	0.564000	0.468300
C601	C60	0.093400	0.727800	0.621600
C611	C61	0.769700	0.414400	0.142400
C621	C62	0.671000	0.316000	0.140300
C631	C63	0.665800	0.211000	0.118800
C641	C64	0.766500	0.211200	0.097700
C651	C65	0.859300	0.311400	0.101700
C661	C66	0.567900	0.103000	0.116400
C671	C67	0.465900	0.087000	0.134300
C681	C68	0.286100	0.776800	0.132000
C691	C69	0.378000	0.875600	0.131300
C701	C70	0.369300	0.972400	0.132700
C711	C71	0.261000	0.958000	0.135700
C721	C72	0.171700	0.852200	0.135400
C731	C73	0.324000	0.289000	0.801000
C741	C74	0.499300	0.344000	0.896700
C751	C75	0.328800	0.144600	0.857500
C761	C76	0.315500	0.347400	0.115300
C771	C77	0.239000	0.383800	0.111900
C781	C78	0.204800	0.389000	0.034800
C791	C79	0.241200	0.348600	0.958700
C801	C80	0.321500	0.315800	0.960600
C811	C81	0.357000	0.313800	0.040500
C821	C82	0.354700	0.343600	0.200400
C831	C83	0.125900	0.436000	0.031700
C841	C84	0.365600	0.272200	0.878400
C851	C85	0.355300	0.585600	0.357600
C861	C86	0.355000	0.684000	0.359700
C871	C87	0.454800	0.789000	0.381200
C881	C88	0.555300	0.788800	0.402300
C891	C89	0.547900	0.688600	0.398300
C901	C90	0.464900	0.897000	0.383600
C911	C91	0.378900	0.913000	0.365700
C921	C92	0.509300	0.223200	0.368000
C931	C93	0.502400	0.124400	0.368700
C941	C94	0.396900	0.027600	0.367300
C951	C95	0.303000	0.042000	0.364300
C961	C96	0.319500	0.147800	0.364600
N11	N1	0.133700	0.584000	0.876500
N21	N2	0.821000	0.242000	0.867200
N31	N3	0.549700	0.416000	0.623500
N41	N4	0.579000	0.758000	0.632800
N51	N5	0.866300	0.416000	0.123500
N61	N6	0.179000	0.758000	0.132800
N71	N7	0.450300	0.584000	0.376500
N81	N8	0.421000	0.242000	0.367200
O11	O1	0.041000	0.330000	0.756700
O21	O2	0.908000	0.360800	0.716400
O31	O3	0.335100	0.400000	0.457800
O41	O4	0.380600	0.504200	0.602500
O51	O5	0.711000	0.670000	0.743300
O61	O6	0.547200	0.639200	0.783600
O71	O7	0.935100	0.600000	0.042200
O81	O8	0.876400	0.495800	0.897500
O91	O9	0.959000	0.670000	0.243300
O101	O10	0.092000	0.639200	0.283600
O111	O11	0.664900	0.600000	0.542200
O121	O12	0.619400	0.495800	0.397500
O131	O13	0.289000	0.330000	0.256700
O141	O14	0.452800	0.360800	0.216400
O151	O15	0.064900	0.400000	0.957800
O161	O16	0.123600	0.504200	0.102500
