data_WOPHIU01_clean_PM
_symmetry_space_group_name_H-M	'P1'
_cell_length_a	38.030000
_cell_length_b	10.009800
_cell_length_c	26.423000
_cell_angle_alpha	90.000000
_cell_angle_beta	125.589000
_cell_angle_gamma	90.000000
_symmetry_Int_Tables_number 1

loop_
_symmetry_equiv_pos_as_xyz
'x,y,z'

loop_
_atom_site_label
_atom_site_type_symbol
_atom_site_fract_x
_atom_site_fract_y
_atom_site_fract_z
Zn11	Zn1	0.837340	0.667790	0.291600
Zn21	Zn2	0.886090	0.964370	0.415580
C11	C1	0.070790	0.720500	0.084200
C21	C2	0.027740	0.661100	0.061200
C31	C3	0.025650	0.536800	0.082500
H11	H1	0.050700	0.488500	0.109900
C41	C4	0.985300	0.485300	0.062100
C51	C5	0.947750	0.558400	0.021800
H21	H2	0.921000	0.525100	0.009200
C61	C6	0.950930	0.683300	0.000500
C71	C7	0.990840	0.732900	0.020300
H31	H3	0.992800	0.815300	0.005800
C81	C8	0.911700	0.767400	0.959800
C91	C9	0.014600	0.285900	0.122600
H41	H4	0.031800	0.333900	0.161800
H51	H5	0.032300	0.268700	0.107900
C101	C10	0.998500	0.156700	0.131200
C111	C11	0.972700	0.155100	0.153200
H61	H6	0.965400	0.235400	0.162500
C121	C12	0.957900	0.037300	0.161100
C131	C13	0.971000	0.920900	0.149800
H71	H7	0.961500	0.840300	0.155300
C141	C14	0.997000	0.918500	0.131000
H81	H8	0.005400	0.836900	0.124300
C151	C15	0.012000	0.038800	0.121300
H91	H9	0.030300	0.037800	0.108700
C161	C16	0.929500	0.029800	0.182500
H101	H10	0.904700	0.974000	0.154100
H111	H11	0.945300	0.988200	0.223300
C171	C17	0.894300	0.161700	0.215300
C181	C18	0.885500	0.289100	0.225900
H121	H12	0.892700	0.363400	0.212600
C191	C19	0.866100	0.305800	0.256400
C201	C20	0.856500	0.193400	0.277200
H131	H13	0.844100	0.203700	0.298700
C211	C21	0.864910	0.069300	0.266600
C221	C22	0.884000	0.050400	0.234400
H141	H14	0.889300	0.965100	0.226400
C231	C23	0.855200	0.442200	0.268200
C241	C24	0.854410	0.946500	0.288600
C251	C25	0.773370	0.791500	0.312000
H151	H15	0.770300	0.854800	0.284000
C261	C26	0.749730	0.806800	0.335400
H161	H16	0.732400	0.882000	0.324800
C271	C27	0.751200	0.712500	0.374300
C281	C28	0.779600	0.602600	0.390600
H171	H17	0.782100	0.534700	0.416500
C291	C29	0.803600	0.601200	0.365900
H181	H18	0.823200	0.531900	0.377700
C301	C30	0.726500	0.731900	0.400300
C311	C31	0.690800	0.708200	0.439700
C321	C32	0.670800	0.653700	0.469800
C331	C33	0.641900	0.738300	0.471300
H191	H19	0.634200	0.820900	0.451400
C341	C34	0.625300	0.695500	0.502900
H201	H20	0.605100	0.749200	0.502400
C351	C35	0.662900	0.500400	0.529800
H211	H21	0.669900	0.417300	0.549200
C361	C36	0.679700	0.535200	0.497900
H221	H22	0.697600	0.475700	0.495800
N11	N1	0.800310	0.691400	0.327200
N21	N2	0.710530	0.640400	0.418100
N31	N3	0.717650	0.849800	0.409900
N41	N4	0.694900	0.835100	0.434800
N51	N5	0.709000	0.499200	0.411000
H231	H23	0.719400	0.462700	0.392900
H241	H24	0.697600	0.450400	0.424700
N61	N6	0.636720	0.580500	0.534400
O11	O1	0.069620	0.838800	0.065500
O21	O2	0.104150	0.653300	0.117200
O31	O3	0.876550	0.733800	0.950700
O41	O4	0.916950	0.869100	0.937600
O51	O5	0.977800	0.361800	0.078300
O61	O6	0.915150	0.156100	0.185900
O71	O7	0.856800	0.834300	0.270700
O81	O8	0.843540	0.965600	0.325200
O91	O9	0.834540	0.452000	0.290600
O101	O10	0.867600	0.542300	0.255700
Zn31	Zn3	0.337340	0.167790	0.291600
Zn41	Zn4	0.386090	0.464370	0.415580
C371	C37	0.570790	0.220500	0.084200
C381	C38	0.527740	0.161100	0.061200
C391	C39	0.525650	0.036800	0.082500
H251	H25	0.550700	0.988500	0.109900
C401	C40	0.485300	0.985300	0.062100
C411	C41	0.447750	0.058400	0.021800
H261	H26	0.421000	0.025100	0.009200
C421	C42	0.450930	0.183300	0.000500
C431	C43	0.490840	0.232900	0.020300
H271	H27	0.492800	0.315300	0.005800
C441	C44	0.411700	0.267400	0.959800
C451	C45	0.514600	0.785900	0.122600
H281	H28	0.531800	0.833900	0.161800
H291	H29	0.532300	0.768700	0.107900
C461	C46	0.498500	0.656700	0.131200
C471	C47	0.472700	0.655100	0.153200
H301	H30	0.465400	0.735400	0.162500
C481	C48	0.457900	0.537300	0.161100
C491	C49	0.471000	0.420900	0.149800
H311	H31	0.461500	0.340300	0.155300
C501	C50	0.497000	0.418500	0.131000
H321	H32	0.505400	0.336900	0.124300
C511	C51	0.512000	0.538800	0.121300
H331	H33	0.530300	0.537800	0.108700
C521	C52	0.429500	0.529800	0.182500
H341	H34	0.404700	0.474000	0.154100
H351	H35	0.445300	0.488200	0.223300
C531	C53	0.394300	0.661700	0.215300
C541	C54	0.385500	0.789100	0.225900
H361	H36	0.392700	0.863400	0.212600
C551	C55	0.366100	0.805800	0.256400
C561	C56	0.356500	0.693400	0.277200
H371	H37	0.344100	0.703700	0.298700
C571	C57	0.364910	0.569300	0.266600
C581	C58	0.384000	0.550400	0.234400
H381	H38	0.389300	0.465100	0.226400
C591	C59	0.355200	0.942200	0.268200
C601	C60	0.354410	0.446500	0.288600
C611	C61	0.273370	0.291500	0.312000
H391	H39	0.270300	0.354800	0.284000
C621	C62	0.249730	0.306800	0.335400
H401	H40	0.232400	0.382000	0.324800
C631	C63	0.251200	0.212500	0.374300
C641	C64	0.279600	0.102600	0.390600
H411	H41	0.282100	0.034700	0.416500
C651	C65	0.303600	0.101200	0.365900
H421	H42	0.323200	0.031900	0.377700
C661	C66	0.226500	0.231900	0.400300
C671	C67	0.190800	0.208200	0.439700
C681	C68	0.170800	0.153700	0.469800
C691	C69	0.141900	0.238300	0.471300
H431	H43	0.134200	0.320900	0.451400
C701	C70	0.125300	0.195500	0.502900
H441	H44	0.105100	0.249200	0.502400
C711	C71	0.162900	0.000400	0.529800
H451	H45	0.169900	0.917300	0.549200
C721	C72	0.179700	0.035200	0.497900
H461	H46	0.197600	0.975700	0.495800
N71	N7	0.300310	0.191400	0.327200
N81	N8	0.210530	0.140400	0.418100
N91	N9	0.217650	0.349800	0.409900
N101	N10	0.194900	0.335100	0.434800
N111	N11	0.209000	0.999200	0.411000
H471	H47	0.219400	0.962700	0.392900
H481	H48	0.197600	0.950400	0.424700
N121	N12	0.136720	0.080500	0.534400
O111	O11	0.569620	0.338800	0.065500
O121	O12	0.604150	0.153300	0.117200
O131	O13	0.376550	0.233800	0.950700
O141	O14	0.416950	0.369100	0.937600
O151	O15	0.477800	0.861800	0.078300
O161	O16	0.415150	0.656100	0.185900
O171	O17	0.356800	0.334300	0.270700
O181	O18	0.343540	0.465600	0.325200
O191	O19	0.334540	0.952000	0.290600
O201	O20	0.367600	0.042300	0.255700
Zn51	Zn5	0.162660	0.667790	0.208400
Zn61	Zn6	0.113910	0.964370	0.084420
C731	C73	0.929210	0.720500	0.415800
C741	C74	0.972260	0.661100	0.438800
C751	C75	0.974350	0.536800	0.417500
H491	H49	0.949300	0.488500	0.390100
C761	C76	0.014700	0.485300	0.437900
C771	C77	0.052250	0.558400	0.478200
H501	H50	0.079000	0.525100	0.490800
C781	C78	0.049070	0.683300	0.499500
C791	C79	0.009160	0.732900	0.479700
H511	H51	0.007200	0.815300	0.494200
C801	C80	0.088300	0.767400	0.540200
C811	C81	0.985400	0.285900	0.377400
H521	H52	0.968200	0.333900	0.338200
H531	H53	0.967700	0.268700	0.392100
C821	C82	0.001500	0.156700	0.368800
C831	C83	0.027300	0.155100	0.346800
H541	H54	0.034600	0.235400	0.337500
C841	C84	0.042100	0.037300	0.338900
C851	C85	0.029000	0.920900	0.350200
H551	H55	0.038500	0.840300	0.344700
C861	C86	0.003000	0.918500	0.369000
H561	H56	0.994600	0.836900	0.375700
C871	C87	0.988000	0.038800	0.378700
H571	H57	0.969700	0.037800	0.391300
C881	C88	0.070500	0.029800	0.317500
H581	H58	0.095300	0.974000	0.345900
H591	H59	0.054700	0.988200	0.276700
C891	C89	0.105700	0.161700	0.284700
C901	C90	0.114500	0.289100	0.274100
H601	H60	0.107300	0.363400	0.287400
C911	C91	0.133900	0.305800	0.243600
C921	C92	0.143500	0.193400	0.222800
H611	H61	0.155900	0.203700	0.201300
C931	C93	0.135090	0.069300	0.233400
C941	C94	0.116000	0.050400	0.265600
H621	H62	0.110700	0.965100	0.273600
C951	C95	0.144800	0.442200	0.231800
C961	C96	0.145590	0.946500	0.211400
C971	C97	0.226630	0.791500	0.188000
H631	H63	0.229700	0.854800	0.216000
C981	C98	0.250270	0.806800	0.164600
H641	H64	0.267600	0.882000	0.175200
C991	C99	0.248800	0.712500	0.125700
C1001	C100	0.220400	0.602600	0.109400
H651	H65	0.217900	0.534700	0.083500
C1011	C101	0.196400	0.601200	0.134100
H661	H66	0.176800	0.531900	0.122300
C1021	C102	0.273500	0.731900	0.099700
C1031	C103	0.309200	0.708200	0.060300
C1041	C104	0.329200	0.653700	0.030200
C1051	C105	0.358100	0.738300	0.028700
H671	H67	0.365800	0.820900	0.048600
C1061	C106	0.374700	0.695500	0.997100
H681	H68	0.394900	0.749200	0.997600
C1071	C107	0.337100	0.500400	0.970200
H691	H69	0.330100	0.417300	0.950800
C1081	C108	0.320300	0.535200	0.002100
H701	H70	0.302400	0.475700	0.004200
N131	N13	0.199690	0.691400	0.172800
N141	N14	0.289470	0.640400	0.081900
N151	N15	0.282350	0.849800	0.090100
N161	N16	0.305100	0.835100	0.065200
N171	N17	0.291000	0.499200	0.089000
H711	H71	0.280600	0.462700	0.107100
H721	H72	0.302400	0.450400	0.075300
N181	N18	0.363280	0.580500	0.965600
O211	O21	0.930380	0.838800	0.434500
O221	O22	0.895850	0.653300	0.382800
O231	O23	0.123450	0.733800	0.549300
O241	O24	0.083050	0.869100	0.562400
O251	O25	0.022200	0.361800	0.421700
O261	O26	0.084850	0.156100	0.314100
O271	O27	0.143200	0.834300	0.229300
O281	O28	0.156460	0.965600	0.174800
O291	O29	0.165460	0.452000	0.209400
O301	O30	0.132400	0.542300	0.244300
Zn71	Zn7	0.662660	0.167790	0.208400
Zn81	Zn8	0.613910	0.464370	0.084420
C1091	C109	0.429210	0.220500	0.415800
C1101	C110	0.472260	0.161100	0.438800
C1111	C111	0.474350	0.036800	0.417500
H731	H73	0.449300	0.988500	0.390100
C1121	C112	0.514700	0.985300	0.437900
C1131	C113	0.552250	0.058400	0.478200
H741	H74	0.579000	0.025100	0.490800
C1141	C114	0.549070	0.183300	0.499500
C1151	C115	0.509160	0.232900	0.479700
H751	H75	0.507200	0.315300	0.494200
C1161	C116	0.588300	0.267400	0.540200
C1171	C117	0.485400	0.785900	0.377400
H761	H76	0.468200	0.833900	0.338200
H771	H77	0.467700	0.768700	0.392100
C1181	C118	0.501500	0.656700	0.368800
C1191	C119	0.527300	0.655100	0.346800
H781	H78	0.534600	0.735400	0.337500
C1201	C120	0.542100	0.537300	0.338900
C1211	C121	0.529000	0.420900	0.350200
H791	H79	0.538500	0.340300	0.344700
C1221	C122	0.503000	0.418500	0.369000
H801	H80	0.494600	0.336900	0.375700
C1231	C123	0.488000	0.538800	0.378700
H811	H81	0.469700	0.537800	0.391300
C1241	C124	0.570500	0.529800	0.317500
H821	H82	0.595300	0.474000	0.345900
H831	H83	0.554700	0.488200	0.276700
C1251	C125	0.605700	0.661700	0.284700
C1261	C126	0.614500	0.789100	0.274100
H841	H84	0.607300	0.863400	0.287400
C1271	C127	0.633900	0.805800	0.243600
C1281	C128	0.643500	0.693400	0.222800
H851	H85	0.655900	0.703700	0.201300
C1291	C129	0.635090	0.569300	0.233400
C1301	C130	0.616000	0.550400	0.265600
H861	H86	0.610700	0.465100	0.273600
C1311	C131	0.644800	0.942200	0.231800
C1321	C132	0.645590	0.446500	0.211400
C1331	C133	0.726630	0.291500	0.188000
H871	H87	0.729700	0.354800	0.216000
C1341	C134	0.750270	0.306800	0.164600
H881	H88	0.767600	0.382000	0.175200
C1351	C135	0.748800	0.212500	0.125700
C1361	C136	0.720400	0.102600	0.109400
H891	H89	0.717900	0.034700	0.083500
C1371	C137	0.696400	0.101200	0.134100
H901	H90	0.676800	0.031900	0.122300
C1381	C138	0.773500	0.231900	0.099700
C1391	C139	0.809200	0.208200	0.060300
C1401	C140	0.829200	0.153700	0.030200
C1411	C141	0.858100	0.238300	0.028700
H911	H91	0.865800	0.320900	0.048600
C1421	C142	0.874700	0.195500	0.997100
H921	H92	0.894900	0.249200	0.997600
C1431	C143	0.837100	0.000400	0.970200
H931	H93	0.830100	0.917300	0.950800
C1441	C144	0.820300	0.035200	0.002100
H941	H94	0.802400	0.975700	0.004200
N191	N19	0.699690	0.191400	0.172800
N201	N20	0.789470	0.140400	0.081900
N211	N21	0.782350	0.349800	0.090100
N221	N22	0.805100	0.335100	0.065200
N231	N23	0.791000	0.999200	0.089000
H951	H95	0.780600	0.962700	0.107100
H961	H96	0.802400	0.950400	0.075300
N241	N24	0.863280	0.080500	0.965600
O311	O31	0.430380	0.338800	0.434500
O321	O32	0.395850	0.153300	0.382800
O331	O33	0.623450	0.233800	0.549300
O341	O34	0.583050	0.369100	0.562400
O351	O35	0.522200	0.861800	0.421700
O361	O36	0.584850	0.656100	0.314100
O371	O37	0.643200	0.334300	0.229300
O381	O38	0.656460	0.465600	0.174800
O391	O39	0.665460	0.952000	0.209400
O401	O40	0.632400	0.042300	0.244300
Zn91	Zn9	0.162660	0.332210	0.708400
Zn101	Zn10	0.113910	0.035630	0.584420
C1451	C145	0.929210	0.279500	0.915800
C1461	C146	0.972260	0.338900	0.938800
C1471	C147	0.974350	0.463200	0.917500
H971	H97	0.949300	0.511500	0.890100
C1481	C148	0.014700	0.514700	0.937900
C1491	C149	0.052250	0.441600	0.978200
H981	H98	0.079000	0.474900	0.990800
C1501	C150	0.049070	0.316700	0.999500
C1511	C151	0.009160	0.267100	0.979700
H991	H99	0.007200	0.184700	0.994200
C1521	C152	0.088300	0.232600	0.040200
C1531	C153	0.985400	0.714100	0.877400
H1001	H100	0.968200	0.666100	0.838200
H1011	H101	0.967700	0.731300	0.892100
C1541	C154	0.001500	0.843300	0.868800
C1551	C155	0.027300	0.844900	0.846800
H1021	H102	0.034600	0.764600	0.837500
C1561	C156	0.042100	0.962700	0.838900
C1571	C157	0.029000	0.079100	0.850200
H1031	H103	0.038500	0.159700	0.844700
C1581	C158	0.003000	0.081500	0.869000
H1041	H104	0.994600	0.163100	0.875700
C1591	C159	0.988000	0.961200	0.878700
H1051	H105	0.969700	0.962200	0.891300
C1601	C160	0.070500	0.970200	0.817500
H1061	H106	0.095300	0.026000	0.845900
H1071	H107	0.054700	0.011800	0.776700
C1611	C161	0.105700	0.838300	0.784700
C1621	C162	0.114500	0.710900	0.774100
H1081	H108	0.107300	0.636600	0.787400
C1631	C163	0.133900	0.694200	0.743600
C1641	C164	0.143500	0.806600	0.722800
H1091	H109	0.155900	0.796300	0.701300
C1651	C165	0.135090	0.930700	0.733400
C1661	C166	0.116000	0.949600	0.765600
H1101	H110	0.110700	0.034900	0.773600
C1671	C167	0.144800	0.557800	0.731800
C1681	C168	0.145590	0.053500	0.711400
C1691	C169	0.226630	0.208500	0.688000
H1111	H111	0.229700	0.145200	0.716000
C1701	C170	0.250270	0.193200	0.664600
H1121	H112	0.267600	0.118000	0.675200
C1711	C171	0.248800	0.287500	0.625700
C1721	C172	0.220400	0.397400	0.609400
H1131	H113	0.217900	0.465300	0.583500
C1731	C173	0.196400	0.398800	0.634100
H1141	H114	0.176800	0.468100	0.622300
C1741	C174	0.273500	0.268100	0.599700
C1751	C175	0.309200	0.291800	0.560300
C1761	C176	0.329200	0.346300	0.530200
C1771	C177	0.358100	0.261700	0.528700
H1151	H115	0.365800	0.179100	0.548600
C1781	C178	0.374700	0.304500	0.497100
H1161	H116	0.394900	0.250800	0.497600
C1791	C179	0.337100	0.499600	0.470200
H1171	H117	0.330100	0.582700	0.450800
C1801	C180	0.320300	0.464800	0.502100
H1181	H118	0.302400	0.524300	0.504200
N251	N25	0.199690	0.308600	0.672800
N261	N26	0.289470	0.359600	0.581900
N271	N27	0.282350	0.150200	0.590100
N281	N28	0.305100	0.164900	0.565200
N291	N29	0.291000	0.500800	0.589000
H1191	H119	0.280600	0.537300	0.607100
H1201	H120	0.302400	0.549600	0.575300
N301	N30	0.363280	0.419500	0.465600
O411	O41	0.930380	0.161200	0.934500
O421	O42	0.895850	0.346700	0.882800
O431	O43	0.123450	0.266200	0.049300
O441	O44	0.083050	0.130900	0.062400
O451	O45	0.022200	0.638200	0.921700
O461	O46	0.084850	0.843900	0.814100
O471	O47	0.143200	0.165700	0.729300
O481	O48	0.156460	0.034400	0.674800
O491	O49	0.165460	0.548000	0.709400
O501	O50	0.132400	0.457700	0.744300
Zn111	Zn11	0.662660	0.832210	0.708400
Zn121	Zn12	0.613910	0.535630	0.584420
C1811	C181	0.429210	0.779500	0.915800
C1821	C182	0.472260	0.838900	0.938800
C1831	C183	0.474350	0.963200	0.917500
H1211	H121	0.449300	0.011500	0.890100
C1841	C184	0.514700	0.014700	0.937900
C1851	C185	0.552250	0.941600	0.978200
H1221	H122	0.579000	0.974900	0.990800
C1861	C186	0.549070	0.816700	0.999500
C1871	C187	0.509160	0.767100	0.979700
H1231	H123	0.507200	0.684700	0.994200
C1881	C188	0.588300	0.732600	0.040200
C1891	C189	0.485400	0.214100	0.877400
H1241	H124	0.468200	0.166100	0.838200
H1251	H125	0.467700	0.231300	0.892100
C1901	C190	0.501500	0.343300	0.868800
C1911	C191	0.527300	0.344900	0.846800
H1261	H126	0.534600	0.264600	0.837500
C1921	C192	0.542100	0.462700	0.838900
C1931	C193	0.529000	0.579100	0.850200
H1271	H127	0.538500	0.659700	0.844700
C1941	C194	0.503000	0.581500	0.869000
H1281	H128	0.494600	0.663100	0.875700
C1951	C195	0.488000	0.461200	0.878700
H1291	H129	0.469700	0.462200	0.891300
C1961	C196	0.570500	0.470200	0.817500
H1301	H130	0.595300	0.526000	0.845900
H1311	H131	0.554700	0.511800	0.776700
C1971	C197	0.605700	0.338300	0.784700
C1981	C198	0.614500	0.210900	0.774100
H1321	H132	0.607300	0.136600	0.787400
C1991	C199	0.633900	0.194200	0.743600
C2001	C200	0.643500	0.306600	0.722800
H1331	H133	0.655900	0.296300	0.701300
C2011	C201	0.635090	0.430700	0.733400
C2021	C202	0.616000	0.449600	0.765600
H1341	H134	0.610700	0.534900	0.773600
C2031	C203	0.644800	0.057800	0.731800
C2041	C204	0.645590	0.553500	0.711400
C2051	C205	0.726630	0.708500	0.688000
H1351	H135	0.729700	0.645200	0.716000
C2061	C206	0.750270	0.693200	0.664600
H1361	H136	0.767600	0.618000	0.675200
C2071	C207	0.748800	0.787500	0.625700
C2081	C208	0.720400	0.897400	0.609400
H1371	H137	0.717900	0.965300	0.583500
C2091	C209	0.696400	0.898800	0.634100
H1381	H138	0.676800	0.968100	0.622300
C2101	C210	0.773500	0.768100	0.599700
C2111	C211	0.809200	0.791800	0.560300
C2121	C212	0.829200	0.846300	0.530200
C2131	C213	0.858100	0.761700	0.528700
H1391	H139	0.865800	0.679100	0.548600
C2141	C214	0.874700	0.804500	0.497100
H1401	H140	0.894900	0.750800	0.497600
C2151	C215	0.837100	0.999600	0.470200
H1411	H141	0.830100	0.082700	0.450800
C2161	C216	0.820300	0.964800	0.502100
H1421	H142	0.802400	0.024300	0.504200
N311	N31	0.699690	0.808600	0.672800
N321	N32	0.789470	0.859600	0.581900
N331	N33	0.782350	0.650200	0.590100
N341	N34	0.805100	0.664900	0.565200
N351	N35	0.791000	0.000800	0.589000
H1431	H143	0.780600	0.037300	0.607100
H1441	H144	0.802400	0.049600	0.575300
N361	N36	0.863280	0.919500	0.465600
O511	O51	0.430380	0.661200	0.934500
O521	O52	0.395850	0.846700	0.882800
O531	O53	0.623450	0.766200	0.049300
O541	O54	0.583050	0.630900	0.062400
O551	O55	0.522200	0.138200	0.921700
O561	O56	0.584850	0.343900	0.814100
O571	O57	0.643200	0.665700	0.729300
O581	O58	0.656460	0.534400	0.674800
O591	O59	0.665460	0.048000	0.709400
O601	O60	0.632400	0.957700	0.744300
Zn131	Zn13	0.837340	0.332210	0.791600
Zn141	Zn14	0.886090	0.035630	0.915580
C2171	C217	0.070790	0.279500	0.584200
C2181	C218	0.027740	0.338900	0.561200
C2191	C219	0.025650	0.463200	0.582500
H1451	H145	0.050700	0.511500	0.609900
C2201	C220	0.985300	0.514700	0.562100
C2211	C221	0.947750	0.441600	0.521800
H1461	H146	0.921000	0.474900	0.509200
C2221	C222	0.950930	0.316700	0.500500
C2231	C223	0.990840	0.267100	0.520300
H1471	H147	0.992800	0.184700	0.505800
C2241	C224	0.911700	0.232600	0.459800
C2251	C225	0.014600	0.714100	0.622600
H1481	H148	0.031800	0.666100	0.661800
H1491	H149	0.032300	0.731300	0.607900
C2261	C226	0.998500	0.843300	0.631200
C2271	C227	0.972700	0.844900	0.653200
H1501	H150	0.965400	0.764600	0.662500
C2281	C228	0.957900	0.962700	0.661100
C2291	C229	0.971000	0.079100	0.649800
H1511	H151	0.961500	0.159700	0.655300
C2301	C230	0.997000	0.081500	0.631000
H1521	H152	0.005400	0.163100	0.624300
C2311	C231	0.012000	0.961200	0.621300
H1531	H153	0.030300	0.962200	0.608700
C2321	C232	0.929500	0.970200	0.682500
H1541	H154	0.904700	0.026000	0.654100
H1551	H155	0.945300	0.011800	0.723300
C2331	C233	0.894300	0.838300	0.715300
C2341	C234	0.885500	0.710900	0.725900
H1561	H156	0.892700	0.636600	0.712600
C2351	C235	0.866100	0.694200	0.756400
C2361	C236	0.856500	0.806600	0.777200
H1571	H157	0.844100	0.796300	0.798700
C2371	C237	0.864910	0.930700	0.766600
C2381	C238	0.884000	0.949600	0.734400
H1581	H158	0.889300	0.034900	0.726400
C2391	C239	0.855200	0.557800	0.768200
C2401	C240	0.854410	0.053500	0.788600
C2411	C241	0.773370	0.208500	0.812000
H1591	H159	0.770300	0.145200	0.784000
C2421	C242	0.749730	0.193200	0.835400
H1601	H160	0.732400	0.118000	0.824800
C2431	C243	0.751200	0.287500	0.874300
C2441	C244	0.779600	0.397400	0.890600
H1611	H161	0.782100	0.465300	0.916500
C2451	C245	0.803600	0.398800	0.865900
H1621	H162	0.823200	0.468100	0.877700
C2461	C246	0.726500	0.268100	0.900300
C2471	C247	0.690800	0.291800	0.939700
C2481	C248	0.670800	0.346300	0.969800
C2491	C249	0.641900	0.261700	0.971300
H1631	H163	0.634200	0.179100	0.951400
C2501	C250	0.625300	0.304500	0.002900
H1641	H164	0.605100	0.250800	0.002400
C2511	C251	0.662900	0.499600	0.029800
H1651	H165	0.669900	0.582700	0.049200
C2521	C252	0.679700	0.464800	0.997900
H1661	H166	0.697600	0.524300	0.995800
N371	N37	0.800310	0.308600	0.827200
N381	N38	0.710530	0.359600	0.918100
N391	N39	0.717650	0.150200	0.909900
N401	N40	0.694900	0.164900	0.934800
N411	N41	0.709000	0.500800	0.911000
H1671	H167	0.719400	0.537300	0.892900
H1681	H168	0.697600	0.549600	0.924700
N421	N42	0.636720	0.419500	0.034400
O611	O61	0.069620	0.161200	0.565500
O621	O62	0.104150	0.346700	0.617200
O631	O63	0.876550	0.266200	0.450700
O641	O64	0.916950	0.130900	0.437600
O651	O65	0.977800	0.638200	0.578300
O661	O66	0.915150	0.843900	0.685900
O671	O67	0.856800	0.165700	0.770700
O681	O68	0.843540	0.034400	0.825200
O691	O69	0.834540	0.548000	0.790600
O701	O70	0.867600	0.457700	0.755700
Zn151	Zn15	0.337340	0.832210	0.791600
Zn161	Zn16	0.386090	0.535630	0.915580
C2531	C253	0.570790	0.779500	0.584200
C2541	C254	0.527740	0.838900	0.561200
C2551	C255	0.525650	0.963200	0.582500
H1691	H169	0.550700	0.011500	0.609900
C2561	C256	0.485300	0.014700	0.562100
C2571	C257	0.447750	0.941600	0.521800
H1701	H170	0.421000	0.974900	0.509200
C2581	C258	0.450930	0.816700	0.500500
C2591	C259	0.490840	0.767100	0.520300
H1711	H171	0.492800	0.684700	0.505800
C2601	C260	0.411700	0.732600	0.459800
C2611	C261	0.514600	0.214100	0.622600
H1721	H172	0.531800	0.166100	0.661800
H1731	H173	0.532300	0.231300	0.607900
C2621	C262	0.498500	0.343300	0.631200
C2631	C263	0.472700	0.344900	0.653200
H1741	H174	0.465400	0.264600	0.662500
C2641	C264	0.457900	0.462700	0.661100
C2651	C265	0.471000	0.579100	0.649800
H1751	H175	0.461500	0.659700	0.655300
C2661	C266	0.497000	0.581500	0.631000
H1761	H176	0.505400	0.663100	0.624300
C2671	C267	0.512000	0.461200	0.621300
H1771	H177	0.530300	0.462200	0.608700
C2681	C268	0.429500	0.470200	0.682500
H1781	H178	0.404700	0.526000	0.654100
H1791	H179	0.445300	0.511800	0.723300
C2691	C269	0.394300	0.338300	0.715300
C2701	C270	0.385500	0.210900	0.725900
H1801	H180	0.392700	0.136600	0.712600
C2711	C271	0.366100	0.194200	0.756400
C2721	C272	0.356500	0.306600	0.777200
H1811	H181	0.344100	0.296300	0.798700
C2731	C273	0.364910	0.430700	0.766600
C2741	C274	0.384000	0.449600	0.734400
H1821	H182	0.389300	0.534900	0.726400
C2751	C275	0.355200	0.057800	0.768200
C2761	C276	0.354410	0.553500	0.788600
C2771	C277	0.273370	0.708500	0.812000
H1831	H183	0.270300	0.645200	0.784000
C2781	C278	0.249730	0.693200	0.835400
H1841	H184	0.232400	0.618000	0.824800
C2791	C279	0.251200	0.787500	0.874300
C2801	C280	0.279600	0.897400	0.890600
H1851	H185	0.282100	0.965300	0.916500
C2811	C281	0.303600	0.898800	0.865900
H1861	H186	0.323200	0.968100	0.877700
C2821	C282	0.226500	0.768100	0.900300
C2831	C283	0.190800	0.791800	0.939700
C2841	C284	0.170800	0.846300	0.969800
C2851	C285	0.141900	0.761700	0.971300
H1871	H187	0.134200	0.679100	0.951400
C2861	C286	0.125300	0.804500	0.002900
H1881	H188	0.105100	0.750800	0.002400
C2871	C287	0.162900	0.999600	0.029800
H1891	H189	0.169900	0.082700	0.049200
C2881	C288	0.179700	0.964800	0.997900
H1901	H190	0.197600	0.024300	0.995800
N431	N43	0.300310	0.808600	0.827200
N441	N44	0.210530	0.859600	0.918100
N451	N45	0.217650	0.650200	0.909900
N461	N46	0.194900	0.664900	0.934800
N471	N47	0.209000	0.000800	0.911000
H1911	H191	0.219400	0.037300	0.892900
H1921	H192	0.197600	0.049600	0.924700
N481	N48	0.136720	0.919500	0.034400
O711	O71	0.569620	0.661200	0.565500
O721	O72	0.604150	0.846700	0.617200
O731	O73	0.376550	0.766200	0.450700
O741	O74	0.416950	0.630900	0.437600
O751	O75	0.477800	0.138200	0.578300
O761	O76	0.415150	0.343900	0.685900
O771	O77	0.356800	0.665700	0.770700
O781	O78	0.343540	0.534400	0.825200
O791	O79	0.334540	0.048000	0.790600
O801	O80	0.367600	0.957700	0.755700
