data_WOPROK_clean_PM
_symmetry_space_group_name_H-M	'P1'
_cell_length_a	12.643000
_cell_length_b	13.944000
_cell_length_c	15.443000
_cell_angle_alpha	59.647000
_cell_angle_beta	83.262000
_cell_angle_gamma	86.876000
_symmetry_Int_Tables_number 1

loop_
_symmetry_equiv_pos_as_xyz
'x,y,z'

loop_
_atom_site_label
_atom_site_type_symbol
_atom_site_fract_x
_atom_site_fract_y
_atom_site_fract_z
La11	La1	0.068310	0.093280	0.251080
La21	La2	0.067660	0.846340	0.533370
Cu11	Cu1	0.452250	0.587240	0.225450
O11	O1	0.191000	0.955800	0.211500
O21	O2	0.188200	0.918500	0.368000
O31	O3	0.859900	0.322000	0.486300
O41	O4	0.835800	0.329500	0.344500
O51	O5	0.805600	0.783300	0.911500
O61	O6	0.731200	0.849900	0.769900
O71	O7	0.080000	0.301400	0.378900
O81	O8	0.058800	0.271600	0.254100
O91	O9	0.082100	0.057000	0.425400
O101	O10	0.966600	0.896600	0.388900
O111	O11	0.943500	0.967300	0.229600
O121	O12	0.251300	0.899300	0.565800
O131	O13	0.114600	0.881100	0.674700
N11	N1	0.410500	0.682200	0.291000
N21	N2	0.564700	0.533200	0.324900
N31	N3	0.501400	0.652500	0.074800
N41	N4	0.346600	0.507800	0.192600
C11	C1	0.327700	0.752100	0.271800
C21	C2	0.311200	0.817600	0.317100
C31	C3	0.379500	0.804600	0.385700
C41	C4	0.464300	0.732700	0.405200
C51	C5	0.478700	0.673000	0.355000
C61	C6	0.567700	0.594500	0.370100
C71	C7	0.650100	0.583900	0.426800
C81	C8	0.729300	0.507100	0.437800
C91	C9	0.726700	0.444100	0.391500
C101	C10	0.641800	0.458000	0.335400
C111	C11	0.253000	0.748400	0.206200
C121	C12	0.224400	0.901600	0.296600
C131	C13	0.626600	0.392500	0.285600
C141	C14	0.813400	0.360500	0.408300
C151	C15	0.591800	0.711100	0.023700
C161	C16	0.622600	0.737800	0.923200
C171	C17	0.553400	0.710500	0.874600
C181	C18	0.460800	0.652600	0.926100
C191	C19	0.438000	0.622600	0.028100
C201	C20	0.345600	0.551700	0.091700
C211	C21	0.263900	0.527600	0.052700
C221	C22	0.185300	0.453300	0.119000
C231	C23	0.187900	0.404000	0.223000
C241	C24	0.270800	0.434600	0.258000
C251	C25	0.653400	0.743400	0.083000
C261	C26	0.725900	0.794600	0.865100
C271	C27	0.282700	0.388200	0.366600
C281	C28	0.103500	0.320200	0.290900
C291	C29	0.848800	0.799900	0.350000
C301	C30	0.924400	0.892100	0.320300
C311	C31	0.214000	0.895000	0.646500
C321	C32	0.285300	0.901500	0.714500
H11	H1	0.368000	0.845600	0.419800
H21	H2	0.511900	0.724100	0.451900
H31	H3	0.651900	0.628300	0.457200
H41	H4	0.785600	0.497500	0.477100
H51	H5	0.276300	0.801600	0.135400
H61	H6	0.181200	0.767800	0.223900
H71	H7	0.252000	0.673400	0.215800
H81	H8	0.585100	0.325300	0.333100
H91	H9	0.696200	0.371600	0.265100
H101	H10	0.588500	0.437600	0.226100
H111	H11	0.570500	0.732100	0.805500
H121	H12	0.413500	0.633400	0.893800
H131	H13	0.262200	0.561400	0.981800
H141	H14	0.129100	0.435700	0.093600
H151	H15	0.628800	0.815800	0.073100
H161	H16	0.729400	0.748000	0.059600
H171	H17	0.642100	0.687300	0.154800
H181	H18	0.325500	0.320400	0.391000
H191	H19	0.212200	0.370500	0.405200
H201	H20	0.318200	0.443000	0.375400
H211	H21	0.888100	0.736500	0.351800
H221	H22	0.796500	0.825100	0.300900
H231	H23	0.812000	0.777500	0.417000
H241	H24	0.307400	0.826500	0.763300
H251	H25	0.246700	0.935900	0.750700
H261	H26	0.348400	0.946400	0.674100
La31	La3	0.931690	0.906720	0.748920
La41	La4	0.932340	0.153660	0.466630
Cu21	Cu2	0.547750	0.412760	0.774550
O141	O14	0.809000	0.044200	0.788500
O151	O15	0.811800	0.081500	0.632000
O161	O16	0.140100	0.678000	0.513700
O171	O17	0.164200	0.670500	0.655500
O181	O18	0.194400	0.216700	0.088500
O191	O19	0.268800	0.150100	0.230100
O201	O20	0.920000	0.698600	0.621100
O211	O21	0.941200	0.728400	0.745900
O221	O22	0.917900	0.943000	0.574600
O231	O23	0.033400	0.103400	0.611100
O241	O24	0.056500	0.032700	0.770400
O251	O25	0.748700	0.100700	0.434200
O261	O26	0.885400	0.118900	0.325300
N51	N5	0.589500	0.317800	0.709000
N61	N6	0.435300	0.466800	0.675100
N71	N7	0.498600	0.347500	0.925200
N81	N8	0.653400	0.492200	0.807400
C331	C33	0.672300	0.247900	0.728200
C341	C34	0.688800	0.182400	0.682900
C351	C35	0.620500	0.195400	0.614300
C361	C36	0.535700	0.267300	0.594800
C371	C37	0.521300	0.327000	0.645000
C381	C38	0.432300	0.405500	0.629900
C391	C39	0.349900	0.416100	0.573200
C401	C40	0.270700	0.492900	0.562200
C411	C41	0.273300	0.555900	0.608500
C421	C42	0.358200	0.542000	0.664600
C431	C43	0.747000	0.251600	0.793800
C441	C44	0.775600	0.098400	0.703400
C451	C45	0.373400	0.607500	0.714400
C461	C46	0.186600	0.639500	0.591700
C471	C47	0.408200	0.288900	0.976300
C481	C48	0.377400	0.262200	0.076800
C491	C49	0.446600	0.289500	0.125400
C501	C50	0.539200	0.347400	0.073900
C511	C51	0.562000	0.377400	0.971900
C521	C52	0.654400	0.448300	0.908300
C531	C53	0.736100	0.472400	0.947300
C541	C54	0.814700	0.546700	0.881000
C551	C55	0.812100	0.596000	0.777000
C561	C56	0.729200	0.565400	0.742000
C571	C57	0.346600	0.256600	0.917000
C581	C58	0.274100	0.205400	0.134900
C591	C59	0.717300	0.611800	0.633400
C601	C60	0.896500	0.679800	0.709100
C611	C61	0.151200	0.200100	0.650000
C621	C62	0.075600	0.107900	0.679700
C631	C63	0.786000	0.105000	0.353500
C641	C64	0.714700	0.098500	0.285500
H271	H27	0.632000	0.154400	0.580200
H281	H28	0.488100	0.275900	0.548100
H291	H29	0.348100	0.371700	0.542800
H301	H30	0.214400	0.502500	0.522900
H311	H31	0.723700	0.198400	0.864600
H321	H32	0.818800	0.232200	0.776100
H331	H33	0.748000	0.326600	0.784200
H341	H34	0.414900	0.674700	0.666900
H351	H35	0.303800	0.628400	0.734900
H361	H36	0.411500	0.562400	0.773900
H371	H37	0.429500	0.267900	0.194500
H381	H38	0.586500	0.366600	0.106200
H391	H39	0.737800	0.438600	0.018200
H401	H40	0.870900	0.564300	0.906400
H411	H41	0.371200	0.184200	0.926900
H421	H42	0.270600	0.252000	0.940400
H431	H43	0.357900	0.312700	0.845200
H441	H44	0.674500	0.679600	0.609000
H451	H45	0.787800	0.629500	0.594800
H461	H46	0.681800	0.557000	0.624600
H471	H47	0.111900	0.263500	0.648200
H481	H48	0.203500	0.174900	0.699100
H491	H49	0.188000	0.222500	0.583000
H501	H50	0.692600	0.173500	0.236700
H511	H51	0.753300	0.064100	0.249300
H521	H52	0.651600	0.053600	0.325900
