data_WOPSOL01_clean_PM
_symmetry_space_group_name_H-M	'P1'
_cell_length_a	25.619100
_cell_length_b	25.619100
_cell_length_c	6.804200
_cell_angle_alpha	90.000000
_cell_angle_beta	90.000000
_cell_angle_gamma	120.000000
_symmetry_Int_Tables_number 1

loop_
_symmetry_equiv_pos_as_xyz
'x,y,z'

loop_
_atom_site_label
_atom_site_type_symbol
_atom_site_fract_x
_atom_site_fract_y
_atom_site_fract_z
Fe11	Fe1	0.389680	0.351160	0.154000
O11	O1	0.322220	0.296700	0.357700
O21	O2	0.300500	0.229500	0.595800
O31	O3	0.355340	0.273600	0.996200
C11	C1	0.316700	0.247300	0.415600
C21	C2	0.326500	0.205100	0.293500
C31	C3	0.343100	0.221900	0.101100
C41	C4	0.348800	0.181500	0.961500
H11	H1	0.361700	0.190700	0.834000
Fe21	Fe2	0.056350	0.684490	0.487330
O41	O4	0.988890	0.630030	0.691030
O51	O5	0.967170	0.562830	0.929130
O61	O6	0.022010	0.606930	0.329530
C51	C5	0.983370	0.580630	0.748930
C61	C6	0.993170	0.538430	0.626830
C71	C7	0.009770	0.555230	0.434430
C81	C8	0.015470	0.514830	0.294830
H21	H2	0.028370	0.524030	0.167330
Fe31	Fe3	0.723010	0.017830	0.820670
O71	O7	0.655550	0.963370	0.024370
O81	O8	0.633830	0.896170	0.262470
O91	O9	0.688670	0.940270	0.662870
C91	C9	0.650030	0.913970	0.082270
C101	C10	0.659830	0.871770	0.960170
C111	C11	0.676430	0.888570	0.767770
C121	C12	0.682130	0.848170	0.628170
H31	H3	0.695030	0.857370	0.500670
Fe41	Fe4	0.648840	0.038520	0.154000
O101	O10	0.703300	0.025520	0.357700
O111	O11	0.770500	0.071000	0.595800
O121	O12	0.726400	0.081740	0.996200
C131	C13	0.752700	0.069400	0.415600
C141	C14	0.794900	0.121400	0.293500
C151	C15	0.778100	0.121200	0.101100
C161	C16	0.818500	0.167300	0.961500
H41	H4	0.809300	0.171000	0.834000
Fe51	Fe5	0.315510	0.371850	0.487330
O131	O13	0.369970	0.358850	0.691030
O141	O14	0.437170	0.404330	0.929130
O151	O15	0.393070	0.415070	0.329530
C171	C17	0.419370	0.402730	0.748930
C181	C18	0.461570	0.454730	0.626830
C191	C19	0.444770	0.454530	0.434430
C201	C20	0.485170	0.500630	0.294830
H51	H5	0.475970	0.504330	0.167330
Fe61	Fe6	0.982170	0.705190	0.820670
O161	O16	0.036630	0.692190	0.024370
O171	O17	0.103830	0.737670	0.262470
O181	O18	0.059730	0.748410	0.662870
C211	C21	0.086030	0.736070	0.082270
C221	C22	0.128230	0.788070	0.960170
C231	C23	0.111430	0.787870	0.767770
C241	C24	0.151830	0.833970	0.628170
H61	H6	0.142630	0.837670	0.500670
Fe71	Fe7	0.961480	0.610320	0.154000
O191	O19	0.974480	0.677780	0.357700
O201	O20	0.929000	0.699500	0.595800
O211	O21	0.918260	0.644660	0.996200
C251	C25	0.930600	0.683300	0.415600
C261	C26	0.878600	0.673500	0.293500
C271	C27	0.878800	0.656900	0.101100
C281	C28	0.832700	0.651200	0.961500
H71	H7	0.829000	0.638300	0.834000
Fe81	Fe8	0.628150	0.943650	0.487330
O221	O22	0.641150	0.011110	0.691030
O231	O23	0.595670	0.032830	0.929130
O241	O24	0.584930	0.977990	0.329530
C291	C29	0.597270	0.016630	0.748930
C301	C30	0.545270	0.006830	0.626830
C311	C31	0.545470	0.990230	0.434430
C321	C32	0.499370	0.984530	0.294830
H81	H8	0.495670	0.971630	0.167330
Fe91	Fe9	0.294810	0.276990	0.820670
O251	O25	0.307810	0.344450	0.024370
O261	O26	0.262330	0.366170	0.262470
O271	O27	0.251590	0.311330	0.662870
C331	C33	0.263930	0.349970	0.082270
C341	C34	0.211930	0.340170	0.960170
C351	C35	0.212130	0.323570	0.767770
C361	C36	0.166030	0.317870	0.628170
H91	H9	0.162330	0.304970	0.500670
Fe101	Fe10	0.610320	0.648840	0.846000
O281	O28	0.677780	0.703300	0.642300
O291	O29	0.699500	0.770500	0.404200
O301	O30	0.644660	0.726400	0.003800
C371	C37	0.683300	0.752700	0.584400
C381	C38	0.673500	0.794900	0.706500
C391	C39	0.656900	0.778100	0.898900
C401	C40	0.651200	0.818500	0.038500
H101	H10	0.638300	0.809300	0.166000
Fe111	Fe11	0.276990	0.982170	0.179330
O311	O31	0.344450	0.036630	0.975630
O321	O32	0.366170	0.103830	0.737530
O331	O33	0.311330	0.059730	0.337130
C411	C41	0.349970	0.086030	0.917730
C421	C42	0.340170	0.128230	0.039830
C431	C43	0.323570	0.111430	0.232230
C441	C44	0.317870	0.151830	0.371830
H111	H11	0.304970	0.142630	0.499330
Fe121	Fe12	0.943650	0.315510	0.512670
O341	O34	0.011110	0.369970	0.308970
O351	O35	0.032830	0.437170	0.070870
O361	O36	0.977990	0.393070	0.670470
C451	C45	0.016630	0.419370	0.251070
C461	C46	0.006830	0.461570	0.373170
C471	C47	0.990230	0.444770	0.565570
C481	C48	0.984530	0.485170	0.705170
H121	H12	0.971630	0.475970	0.832670
Fe131	Fe13	0.351160	0.961480	0.846000
O371	O37	0.296700	0.974480	0.642300
O381	O38	0.229500	0.929000	0.404200
O391	O39	0.273600	0.918260	0.003800
C491	C49	0.247300	0.930600	0.584400
C501	C50	0.205100	0.878600	0.706500
C511	C51	0.221900	0.878800	0.898900
C521	C52	0.181500	0.832700	0.038500
H131	H13	0.190700	0.829000	0.166000
Fe141	Fe14	0.017830	0.294810	0.179330
O401	O40	0.963370	0.307810	0.975630
O411	O41	0.896170	0.262330	0.737530
O421	O42	0.940270	0.251590	0.337130
C531	C53	0.913970	0.263930	0.917730
C541	C54	0.871770	0.211930	0.039830
C551	C55	0.888570	0.212130	0.232230
C561	C56	0.848170	0.166030	0.371830
H141	H14	0.857370	0.162330	0.499330
Fe151	Fe15	0.684490	0.628150	0.512670
O431	O43	0.630030	0.641150	0.308970
O441	O44	0.562830	0.595670	0.070870
O451	O45	0.606930	0.584930	0.670470
C571	C57	0.580630	0.597270	0.251070
C581	C58	0.538430	0.545270	0.373170
C591	C59	0.555230	0.545470	0.565570
C601	C60	0.514830	0.499370	0.705170
H151	H15	0.524030	0.495670	0.832670
Fe161	Fe16	0.038520	0.389680	0.846000
O461	O46	0.025520	0.322220	0.642300
O471	O47	0.071000	0.300500	0.404200
O481	O48	0.081740	0.355340	0.003800
C611	C61	0.069400	0.316700	0.584400
C621	C62	0.121400	0.326500	0.706500
C631	C63	0.121200	0.343100	0.898900
C641	C64	0.167300	0.348800	0.038500
H161	H16	0.171000	0.361700	0.166000
Fe171	Fe17	0.705190	0.723010	0.179330
O491	O49	0.692190	0.655550	0.975630
O501	O50	0.737670	0.633830	0.737530
O511	O51	0.748410	0.688670	0.337130
C651	C65	0.736070	0.650030	0.917730
C661	C66	0.788070	0.659830	0.039830
C671	C67	0.787870	0.676430	0.232230
C681	C68	0.833970	0.682130	0.371830
H171	H17	0.837670	0.695030	0.499330
Fe181	Fe18	0.371850	0.056350	0.512670
O521	O52	0.358850	0.988890	0.308970
O531	O53	0.404330	0.967170	0.070870
O541	O54	0.415070	0.022010	0.670470
C691	C69	0.402730	0.983370	0.251070
C701	C70	0.454730	0.993170	0.373170
C711	C71	0.454530	0.009770	0.565570
C721	C72	0.500630	0.015470	0.705170
H181	H18	0.504330	0.028370	0.832670
