data_WOQDUB_charged_PM
_symmetry_space_group_name_H-M	'P1'
_cell_length_a	14.011000
_cell_length_b	18.822000
_cell_length_c	23.421000
_cell_angle_alpha	90.000000
_cell_angle_beta	90.000000
_cell_angle_gamma	90.000000
_symmetry_Int_Tables_number 1

loop_
_symmetry_equiv_pos_as_xyz
'x,y,z'

loop_
_atom_site_label
_atom_site_type_symbol
_atom_site_fract_x
_atom_site_fract_y
_atom_site_fract_z
Dy11	Dy1	0.258970	0.891560	0.919480
Dy21	Dy2	0.255460	0.089960	0.896340
Dy31	Dy3	0.402800	0.014980	0.013990
Dy41	Dy4	0.128510	0.006390	0.023240
Dy51	Dy5	0.241030	0.108440	0.419480
Dy61	Dy6	0.244540	0.910040	0.396340
Dy71	Dy7	0.097200	0.985020	0.513990
Dy81	Dy8	0.371490	0.993610	0.523240
Dy91	Dy9	0.741030	0.391560	0.580520
Dy101	Dy10	0.744540	0.589960	0.603660
Dy111	Dy11	0.597200	0.514980	0.486010
Dy121	Dy12	0.871490	0.506390	0.476760
Dy131	Dy13	0.758970	0.608440	0.080520
Dy141	Dy14	0.755460	0.410040	0.103660
Dy151	Dy15	0.902800	0.485020	0.986010
Dy161	Dy16	0.628510	0.493610	0.976760
H11	H1	0.001100	0.311400	0.927000
H21	H2	0.100000	0.285100	0.917300
H31	H3	0.467000	0.669500	0.921000
H41	H4	0.439200	0.744900	0.911500
H51	H5	0.094100	0.008100	0.742900
H61	H6	0.094100	0.064200	0.698000
H71	H7	0.087100	0.263300	0.010400
H81	H8	0.905100	0.216800	0.995500
H91	H9	0.964800	0.215700	0.051900
H101	H10	0.594400	0.766900	0.946700
H111	H11	0.556100	0.791000	0.043700
H121	H12	0.460700	0.748200	0.037400
H131	H13	0.259600	0.049100	0.704000
H141	H14	0.226400	0.904200	0.722900
H151	H15	0.327100	0.939300	0.715900
H161	H16	0.498900	0.688600	0.427000
H171	H17	0.400000	0.714900	0.417300
H181	H18	0.033000	0.330500	0.421000
H191	H19	0.060800	0.255100	0.411500
H201	H20	0.405900	0.991900	0.242900
H211	H21	0.405900	0.935800	0.198000
H221	H22	0.412900	0.736700	0.510400
H231	H23	0.594900	0.783200	0.495500
H241	H24	0.535200	0.784300	0.551900
H251	H25	0.905600	0.233100	0.446700
H261	H26	0.943900	0.209000	0.543700
H271	H27	0.039300	0.251800	0.537400
H281	H28	0.240400	0.950900	0.204000
H291	H29	0.273600	0.095800	0.222900
H301	H30	0.172900	0.060700	0.215900
H311	H31	0.998900	0.811400	0.573000
H321	H32	0.900000	0.785100	0.582700
H331	H33	0.533000	0.169500	0.579000
H341	H34	0.560800	0.244900	0.588500
H351	H35	0.905900	0.508100	0.757100
H361	H36	0.905900	0.564200	0.802000
H371	H37	0.912900	0.763300	0.489600
H381	H38	0.094900	0.716800	0.504500
H391	H39	0.035200	0.715700	0.448100
H401	H40	0.405600	0.266900	0.553300
H411	H41	0.443900	0.291000	0.456300
H421	H42	0.539300	0.248200	0.462600
H431	H43	0.740400	0.549100	0.796000
H441	H44	0.773600	0.404200	0.777100
H451	H45	0.672900	0.439300	0.784100
H461	H46	0.501100	0.188600	0.073000
H471	H47	0.600000	0.214900	0.082700
H481	H48	0.967000	0.830500	0.079000
H491	H49	0.939200	0.755100	0.088500
H501	H50	0.594100	0.491900	0.257100
H511	H51	0.594100	0.435800	0.302000
H521	H52	0.587100	0.236700	0.989600
H531	H53	0.405100	0.283200	0.004500
H541	H54	0.464800	0.284300	0.948100
H551	H55	0.094400	0.733100	0.053300
H561	H56	0.056100	0.709000	0.956300
H571	H57	0.960700	0.751800	0.962600
H581	H58	0.759600	0.450900	0.296000
H591	H59	0.726400	0.595800	0.277100
H601	H60	0.827100	0.560700	0.284100
C11	C1	0.082300	0.168500	0.972400
C21	C2	0.040700	0.242400	0.983900
C31	C3	0.953400	0.242200	0.017000
C41	C4	0.913700	0.314300	0.032900
C51	C5	0.600400	0.670700	0.989300
C61	C6	0.548800	0.736600	0.967000
C71	C7	0.505600	0.778400	0.017300
C81	C8	0.454500	0.845900	0.998400
C91	C9	0.223000	0.992400	0.634400
C101	C10	0.218300	0.007900	0.697600
C111	C11	0.262900	0.947000	0.730000
C121	C12	0.267200	0.960500	0.795830
C131	C13	0.417700	0.831500	0.472400
C141	C14	0.459300	0.757600	0.483900
C151	C15	0.546600	0.757800	0.517000
C161	C16	0.586300	0.685700	0.532900
C171	C17	0.899600	0.329300	0.489300
C181	C18	0.951200	0.263400	0.467000
C191	C19	0.994400	0.221600	0.517300
C201	C20	0.045500	0.154100	0.498400
C211	C21	0.277000	0.007600	0.134400
C221	C22	0.281700	0.992100	0.197600
C231	C23	0.237100	0.053000	0.230000
C241	C24	0.232800	0.039500	0.295830
C251	C25	0.917700	0.668500	0.527600
C261	C26	0.959300	0.742400	0.516100
C271	C27	0.046600	0.742200	0.483000
C281	C28	0.086300	0.814300	0.467100
C291	C29	0.399600	0.170700	0.510700
C301	C30	0.451200	0.236600	0.533000
C311	C31	0.494400	0.278400	0.482700
C321	C32	0.545500	0.345900	0.501600
C331	C33	0.777000	0.492400	0.865600
C341	C34	0.781700	0.507900	0.802400
C351	C35	0.737100	0.447000	0.770000
C361	C36	0.732800	0.460500	0.704170
C371	C37	0.582300	0.331500	0.027600
C381	C38	0.540700	0.257600	0.016100
C391	C39	0.453400	0.257800	0.983000
C401	C40	0.413700	0.185700	0.967100
C411	C41	0.100400	0.829300	0.010700
C421	C42	0.048800	0.763400	0.033000
C431	C43	0.005600	0.721600	0.982700
C441	C44	0.954500	0.654100	0.001600
C451	C45	0.723000	0.507600	0.365600
C461	C46	0.718300	0.492100	0.302400
C471	C47	0.762900	0.553000	0.270000
C481	C48	0.767200	0.539500	0.204170
N11	N1	0.048200	0.284900	0.937000
N21	N2	0.475000	0.713900	0.927900
N31	N3	0.122300	0.029700	0.715300
N41	N4	0.451800	0.715100	0.437000
N51	N5	0.025000	0.286100	0.427900
N61	N6	0.377700	0.970300	0.215300
N71	N7	0.951800	0.784900	0.563000
N81	N8	0.525000	0.213900	0.572100
N91	N9	0.877700	0.529700	0.784700
N101	N10	0.548200	0.215100	0.063000
N111	N11	0.975000	0.786100	0.072100
N121	N12	0.622300	0.470300	0.284700
O11	O1	0.269930	0.938520	0.011640
O21	O2	0.160260	0.990870	0.925740
O31	O3	0.261700	0.076440	0.999090
O41	O4	0.357020	0.996350	0.920160
O51	O5	0.069600	0.121500	0.011300
O61	O6	0.132500	0.162100	0.930100
O71	O7	0.843700	0.313110	0.068630
O81	O8	0.947600	0.366480	0.010970
O91	O9	0.667400	0.684120	0.023670
O101	O10	0.575700	0.612670	0.972230
O111	O11	0.463300	0.901150	0.028170
O121	O12	0.401600	0.843490	0.954620
O131	O13	0.146600	0.987500	0.608210
O141	O14	0.304300	0.988600	0.614540
O151	O15	0.242800	0.018490	0.813680
O161	O16	0.297900	0.908300	0.824660
O171	O17	0.112700	0.869800	0.863300
O181	O18	0.277300	0.773620	0.877740
O191	O19	0.393800	0.110600	0.834800
O201	O20	0.214300	0.173700	0.823440
O211	O21	0.553200	0.008300	0.962010
O221	O22	0.533900	0.048400	0.076810
O231	O23	0.004400	0.017200	0.095580
O241	O24	0.971900	0.997200	0.975800
O251	O25	0.230070	0.061480	0.511640
O261	O26	0.339740	0.009130	0.425740
O271	O27	0.238300	0.923560	0.499090
O281	O28	0.142980	0.003650	0.420160
O291	O29	0.430400	0.878500	0.511300
O301	O30	0.367500	0.837900	0.430100
O311	O31	0.656300	0.686890	0.568630
O321	O32	0.552400	0.633520	0.510970
O331	O33	0.832600	0.315880	0.523670
O341	O34	0.924300	0.387330	0.472230
O351	O35	0.036700	0.098850	0.528170
O361	O36	0.098400	0.156510	0.454620
O371	O37	0.353400	0.012500	0.108210
O381	O38	0.195700	0.011400	0.114540
O391	O39	0.257200	0.981510	0.313680
O401	O40	0.202100	0.091700	0.324660
O411	O41	0.387300	0.130200	0.363300
O421	O42	0.222700	0.226380	0.377740
O431	O43	0.106200	0.889400	0.334800
O441	O44	0.285700	0.826300	0.323440
O451	O45	0.946800	0.991700	0.462010
O461	O46	0.966100	0.951600	0.576810
O471	O47	0.495600	0.982800	0.595580
O481	O48	0.528100	0.002800	0.475800
O491	O49	0.730070	0.438520	0.488360
O501	O50	0.839740	0.490870	0.574260
O511	O51	0.738300	0.576440	0.500910
O521	O52	0.642980	0.496350	0.579840
O531	O53	0.930400	0.621500	0.488700
O541	O54	0.867500	0.662100	0.569900
O551	O55	0.156300	0.813110	0.431370
O561	O56	0.052400	0.866480	0.489030
O571	O57	0.332600	0.184120	0.476330
O581	O58	0.424300	0.112670	0.527770
O591	O59	0.536700	0.401150	0.471830
O601	O60	0.598400	0.343490	0.545380
O611	O61	0.853400	0.487500	0.891790
O621	O62	0.695700	0.488600	0.885460
O631	O63	0.757200	0.518490	0.686320
O641	O64	0.702100	0.408300	0.675340
O651	O65	0.887300	0.369800	0.636700
O661	O66	0.722700	0.273620	0.622260
O671	O67	0.606200	0.610600	0.665200
O681	O68	0.785700	0.673700	0.676560
O691	O69	0.446800	0.508300	0.537990
O701	O70	0.466100	0.548400	0.423190
O711	O71	0.995600	0.517200	0.404420
O721	O72	0.028100	0.497200	0.524200
O731	O73	0.769930	0.561480	0.988360
O741	O74	0.660260	0.509130	0.074260
O751	O75	0.761700	0.423560	0.000910
O761	O76	0.857020	0.503650	0.079840
O771	O77	0.569600	0.378500	0.988700
O781	O78	0.632500	0.337900	0.069900
O791	O79	0.343700	0.186890	0.931370
O801	O80	0.447600	0.133520	0.989030
O811	O81	0.167400	0.815880	0.976330
O821	O82	0.075700	0.887330	0.027770
O831	O83	0.963300	0.598850	0.971830
O841	O84	0.901600	0.656510	0.045380
O851	O85	0.646600	0.512500	0.391790
O861	O86	0.804300	0.511400	0.385460
O871	O87	0.742800	0.481510	0.186320
O881	O88	0.797900	0.591700	0.175340
O891	O89	0.612700	0.630200	0.136700
O901	O90	0.777300	0.726380	0.122260
O911	O91	0.893800	0.389400	0.165200
O921	O92	0.714300	0.326300	0.176560
O931	O93	0.053200	0.491700	0.037990
O941	O94	0.033900	0.451600	0.923190
O951	O95	0.504400	0.482800	0.904420
O961	O96	0.471900	0.502800	0.024200
Cl11	Cl1	0.257350	0.221280	0.114170
O971	O97	0.244100	0.292000	0.133900
O981	O98	0.346300	0.189100	0.133800
O991	O99	0.176100	0.175100	0.130100
O1001	O100	0.258100	0.221800	0.050800
Cl21	Cl2	0.272900	0.791830	0.147350
O1011	O101	0.166700	0.796400	0.152900
O1021	O102	0.308800	0.721200	0.147500
O1031	O103	0.302600	0.837400	0.102000
O1041	O104	0.303700	0.828300	0.203100
Cl31	Cl3	0.242650	0.778720	0.614170
O1051	O105	0.255900	0.708000	0.633900
O1061	O106	0.153700	0.810900	0.633800
O1071	O107	0.323900	0.824900	0.630100
O1081	O108	0.241900	0.778200	0.550800
Cl41	Cl4	0.227100	0.208170	0.647350
O1091	O109	0.333300	0.203600	0.652900
O1101	O110	0.191200	0.278800	0.647500
O1111	O111	0.197400	0.162600	0.602000
O1121	O112	0.196300	0.171700	0.703100
Cl51	Cl5	0.742650	0.721280	0.385830
O1131	O113	0.755900	0.792000	0.366100
O1141	O114	0.653700	0.689100	0.366200
O1151	O115	0.823900	0.675100	0.369900
O1161	O116	0.741900	0.721800	0.449200
Cl61	Cl6	0.727100	0.291830	0.352650
O1171	O117	0.833300	0.296400	0.347100
O1181	O118	0.691200	0.221200	0.352500
O1191	O119	0.697400	0.337400	0.398000
O1201	O120	0.696300	0.328300	0.296900
Cl71	Cl7	0.757350	0.278720	0.885830
O1211	O121	0.744100	0.208000	0.866100
O1221	O122	0.846300	0.310900	0.866200
O1231	O123	0.676100	0.324900	0.869900
O1241	O124	0.758100	0.278200	0.949200
Cl81	Cl8	0.772900	0.708170	0.852650
O1251	O125	0.666700	0.703600	0.847100
O1261	O126	0.808800	0.778800	0.852500
O1271	O127	0.802600	0.662600	0.898000
O1281	O128	0.803700	0.671700	0.796900
