data_WORSUT_clean_PM
_symmetry_space_group_name_H-M	'P1'
_cell_length_a	14.823000
_cell_length_b	14.823000
_cell_length_c	16.028600
_cell_angle_alpha	83.254700
_cell_angle_beta	83.254700
_cell_angle_gamma	86.875800
_symmetry_Int_Tables_number 1

loop_
_symmetry_equiv_pos_as_xyz
'x,y,z'

loop_
_atom_site_label
_atom_site_type_symbol
_atom_site_fract_x
_atom_site_fract_y
_atom_site_fract_z
Zn11	Zn1	0.123280	0.896040	0.155970
Zn21	Zn2	0.103960	0.876720	0.344030
B11	B1	0.080900	0.405100	0.141900
B21	B2	0.594900	0.919100	0.358100
H11	H1	0.126600	0.620600	0.057200
H21	H2	0.131000	0.146000	0.417400
H31	H3	0.432200	0.963600	0.429300
H41	H4	0.451100	0.797700	0.089700
H51	H5	0.224100	0.693100	0.583500
H61	H6	0.202300	0.548900	0.410300
H71	H7	0.106000	0.772000	0.770000
H81	H8	0.209800	0.751800	0.447100
H91	H9	0.206300	0.096500	0.359900
H101	H10	0.286400	0.742800	0.702000
H111	H11	0.036400	0.567800	0.070700
H121	H12	0.903500	0.793700	0.140100
H131	H13	0.809000	0.775600	0.111800
H141	H14	0.228900	0.295700	0.621800
H151	H15	0.071900	0.976100	0.976300
H161	H16	0.038200	0.321000	0.462700
H171	H17	0.854000	0.869000	0.082600
H181	H18	0.120900	0.621100	0.413100
H191	H19	0.655700	0.663100	0.988500
H201	H20	0.322200	0.861600	0.761000
H211	H21	0.336900	0.344300	0.511500
H221	H22	0.619300	0.703900	0.124000
H231	H23	0.228000	0.894000	0.730000
H241	H24	0.379400	0.873400	0.442800
H251	H25	0.068600	0.160400	0.068300
H261	H26	0.995800	0.239400	0.083100
H271	H27	0.023900	0.928100	0.523700
H281	H28	0.103700	0.518300	0.443400
H291	H29	0.120300	0.959300	0.837300
H301	H30	0.257200	0.713600	0.798000
H311	H31	0.248200	0.790200	0.052900
H321	H32	0.093200	0.261400	0.038300
H331	H33	0.138400	0.677800	0.739000
H341	H34	0.296100	0.380700	0.376000
H351	H35	0.334600	0.963000	0.401000
H361	H36	0.224400	0.191000	0.388200
H371	H37	0.481700	0.896300	0.056600
H381	H38	0.679000	0.961800	0.037300
H391	H39	0.738600	0.906800	0.461700
H401	H40	0.760600	0.004200	0.416900
H411	H41	0.704300	0.771100	0.878200
H421	H42	0.709800	0.921400	0.901900
H431	H43	0.037000	0.665400	0.099000
H441	H44	0.378900	0.879100	0.086900
H451	H45	0.040700	0.879700	0.662700
H461	H46	0.078600	0.290200	0.598100
H471	H47	0.839600	0.931400	0.431700
H481	H48	0.306900	0.775900	0.916500
C11	C1	0.688600	0.788000	0.932300
C21	C2	0.770200	0.909000	0.335300
C31	C3	0.647100	0.836900	0.094800
C41	C4	0.539600	0.879400	0.217600
C51	C5	0.173600	0.776800	0.490700
C61	C6	0.134400	0.780400	0.639600
C71	C7	0.108600	0.612000	0.249700
C81	C8	0.798300	0.858300	0.205000
C91	C9	0.390700	0.928500	0.406100
C101	C10	0.129300	0.296700	0.272200
C111	C11	0.693400	0.877400	0.946700
C121	C12	0.179200	0.154600	0.372100
C131	C13	0.257700	0.816100	0.927200
C141	C14	0.845400	0.820800	0.127900
C151	C15	0.112120	0.712120	0.249600
C161	C16	0.388000	0.891400	0.250300
C171	C17	0.639000	0.747400	0.079800
C181	C18	0.440400	0.861000	0.096500
C191	C19	0.212000	0.311400	0.567700
C201	C20	0.111300	0.060900	0.224700
C211	C21	0.703300	0.870700	0.227800
C221	C22	0.074900	0.851300	0.620000
C231	C23	0.098200	0.326000	0.472400
C241	C24	0.065900	0.880700	0.535600
C251	C25	0.091000	0.229800	0.164700
C261	C26	0.148700	0.925100	0.880000
C271	C27	0.839500	0.884300	0.272700
C281	C28	0.183900	0.742300	0.572800
C291	C29	0.660300	0.723100	0.998600
C301	C30	0.122600	0.306600	0.553300
C311	C31	0.219600	0.865600	0.860400
C321	C32	0.141700	0.201700	0.295000
C331	C33	0.939100	0.888700	0.275300
C341	C34	0.071500	0.609300	0.093900
C351	C35	0.163100	0.352900	0.405200
C361	C36	0.149500	0.742300	0.730800
C371	C37	0.059400	0.222000	0.081200
C381	C38	0.276900	0.339700	0.501400
C391	C39	0.252600	0.361000	0.420200
C401	C40	0.119300	0.934100	0.964400
C411	C41	0.257700	0.850500	0.769200
C421	C42	0.778000	0.940600	0.418800
C431	C43	0.137400	0.371600	0.317800
C441	C44	0.674000	0.901800	0.027600
C451	C45	0.123600	0.544800	0.315900
C461	C46	0.243700	0.756300	0.750000
C471	C47	0.120600	0.460400	0.282400
C481	C48	0.115700	0.160500	0.227300
C491	C49	0.628400	0.862600	0.182200
C501	C50	0.093900	0.569100	0.178500
C511	C51	0.455200	0.876400	0.184100
C521	C52	0.287880	0.887880	0.250400
C531	C53	0.223200	0.826400	0.009300
C541	C54	0.139000	0.559600	0.403500
C551	C55	0.430900	0.906100	0.321500
N11	N1	0.154620	0.886520	0.029000
N21	N2	0.113480	0.845380	0.471000
N31	N3	0.688660	0.901100	0.308200
N41	N4	0.100210	0.477950	0.199300
N51	N5	0.098900	0.311340	0.191800
N61	N6	0.522050	0.899790	0.300700
O11	O1	0.096590	0.744690	0.319900
O21	O2	0.988700	0.890060	0.205700
O31	O3	0.109940	0.011300	0.294300
O41	O4	0.967340	0.891040	0.346900
O51	O5	0.130060	0.758280	0.178800
O61	O6	0.241720	0.869940	0.321200
O71	O7	0.108960	0.032660	0.153100
O81	O8	0.255310	0.903410	0.180100
F11	F1	0.990860	0.413540	0.125700
F21	F2	0.138150	0.414510	0.067000
F31	F3	0.585490	0.861850	0.433000
F41	F4	0.586460	0.009140	0.374300
Zn31	Zn3	0.876720	0.103960	0.844030
Zn41	Zn4	0.896040	0.123280	0.655970
B31	B3	0.919100	0.594900	0.858100
B41	B4	0.405100	0.080900	0.641900
H491	H49	0.239400	0.995800	0.583100
H501	H50	0.004200	0.760600	0.916900
H511	H51	0.663100	0.655700	0.488500
H521	H52	0.976100	0.071900	0.476300
H531	H53	0.896300	0.481700	0.556600
H541	H54	0.146000	0.131000	0.917400
H551	H55	0.380700	0.296100	0.876000
H561	H56	0.096500	0.206300	0.859900
H571	H57	0.518300	0.103700	0.943400
H581	H58	0.931400	0.839600	0.931700
H591	H59	0.963000	0.334600	0.901000
H601	H60	0.961800	0.679000	0.537300
H611	H61	0.751800	0.209800	0.947100
H621	H62	0.959300	0.120300	0.337300
H631	H63	0.797700	0.451100	0.589700
H641	H64	0.261400	0.093200	0.538300
H651	H65	0.771100	0.704300	0.378200
H661	H66	0.321000	0.038200	0.962700
H671	H67	0.775900	0.306900	0.416500
H681	H68	0.677800	0.138400	0.239000
H691	H69	0.703900	0.619300	0.624000
H701	H70	0.894000	0.228000	0.230000
H711	H71	0.665400	0.037000	0.599000
H721	H72	0.290200	0.078600	0.098100
H731	H73	0.620600	0.126600	0.557200
H741	H74	0.191000	0.224400	0.888200
H751	H75	0.921400	0.709800	0.401900
H761	H76	0.793700	0.903500	0.640100
H771	H77	0.295700	0.228900	0.121800
H781	H78	0.873400	0.379400	0.942800
H791	H79	0.567800	0.036400	0.570700
H801	H80	0.879700	0.040700	0.162700
H811	H81	0.160400	0.068600	0.568300
H821	H82	0.790200	0.248200	0.552900
H831	H83	0.775600	0.809000	0.611800
H841	H84	0.344300	0.336900	0.011500
H851	H85	0.742800	0.286400	0.202000
H861	H86	0.928100	0.023900	0.023700
H871	H87	0.906800	0.738600	0.961700
H881	H88	0.772000	0.106000	0.270000
H891	H89	0.693100	0.224100	0.083500
H901	H90	0.869000	0.854000	0.582600
H911	H91	0.713600	0.257200	0.298000
H921	H92	0.879100	0.378900	0.586900
H931	H93	0.621100	0.120900	0.913100
H941	H94	0.861600	0.322200	0.261000
H951	H95	0.963600	0.432200	0.929300
H961	H96	0.548900	0.202300	0.910300
C561	C56	0.060900	0.111300	0.724700
C571	C57	0.154600	0.179200	0.872100
C581	C58	0.901800	0.674000	0.527600
C591	C59	0.861000	0.440400	0.596500
C601	C60	0.712120	0.112120	0.749600
C611	C61	0.906100	0.430900	0.821500
C621	C62	0.776800	0.173600	0.990700
C631	C63	0.723100	0.660300	0.498600
C641	C64	0.865600	0.219600	0.360400
C651	C65	0.836900	0.647100	0.594800
C661	C66	0.877400	0.693400	0.446700
C671	C67	0.870700	0.703300	0.727800
C681	C68	0.940600	0.778000	0.918800
C691	C69	0.559600	0.139000	0.903500
C701	C70	0.311400	0.212000	0.067700
C711	C71	0.934100	0.119300	0.464400
C721	C72	0.888700	0.939100	0.775300
C731	C73	0.544800	0.123600	0.815900
C741	C74	0.887880	0.287880	0.750400
C751	C75	0.816100	0.257700	0.427200
C761	C76	0.747400	0.639000	0.579800
C771	C77	0.229800	0.091000	0.664700
C781	C78	0.742300	0.183900	0.072800
C791	C79	0.876400	0.455200	0.684100
C801	C80	0.780400	0.134400	0.139600
C811	C81	0.361000	0.252600	0.920200
C821	C82	0.862600	0.628400	0.682200
C831	C83	0.339700	0.276900	0.001400
C841	C84	0.884300	0.839500	0.772700
C851	C85	0.609300	0.071500	0.593900
C861	C86	0.826400	0.223200	0.509300
C871	C87	0.858300	0.798300	0.705000
C881	C88	0.201700	0.141700	0.795000
C891	C89	0.352900	0.163100	0.905200
C901	C90	0.460400	0.120600	0.782400
C911	C91	0.879400	0.539600	0.717600
C921	C92	0.851300	0.074900	0.120000
C931	C93	0.880700	0.065900	0.035600
C941	C94	0.788000	0.688600	0.432300
C951	C95	0.925100	0.148700	0.380000
C961	C96	0.909000	0.770200	0.835300
C971	C97	0.296700	0.129300	0.772200
C981	C98	0.306600	0.122600	0.053300
C991	C99	0.612000	0.108600	0.749700
C1001	C100	0.222000	0.059400	0.581200
C1011	C101	0.371600	0.137400	0.817800
C1021	C102	0.742300	0.149500	0.230800
C1031	C103	0.928500	0.390700	0.906100
C1041	C104	0.326000	0.098200	0.972400
C1051	C105	0.756300	0.243700	0.250000
C1061	C106	0.820800	0.845400	0.627900
C1071	C107	0.569100	0.093900	0.678500
C1081	C108	0.891400	0.388000	0.750300
C1091	C109	0.160500	0.115700	0.727300
C1101	C110	0.850500	0.257700	0.269200
N71	N7	0.901100	0.688660	0.808200
N81	N8	0.311340	0.098900	0.691800
N91	N9	0.477950	0.100210	0.699300
N101	N10	0.886520	0.154620	0.529000
N111	N11	0.845380	0.113480	0.971000
N121	N12	0.899790	0.522050	0.800700
O91	O9	0.744690	0.096590	0.819900
O101	O10	0.032660	0.108960	0.653100
O111	O11	0.869940	0.241720	0.821200
O121	O12	0.758280	0.130060	0.678800
O131	O13	0.903410	0.255310	0.680100
O141	O14	0.011300	0.109940	0.794300
O151	O15	0.891040	0.967340	0.846900
O161	O16	0.890060	0.988700	0.705700
F51	F5	0.413540	0.990860	0.625700
F61	F6	0.009140	0.586460	0.874300
F71	F7	0.414510	0.138150	0.567000
F81	F8	0.861850	0.585490	0.933000
