data_WOSHET_clean_PM
_symmetry_space_group_name_H-M	'P1'
_cell_length_a	11.446000
_cell_length_b	13.434000
_cell_length_c	15.352000
_cell_angle_alpha	79.590000
_cell_angle_beta	76.450000
_cell_angle_gamma	79.820000
_symmetry_Int_Tables_number 1

loop_
_symmetry_equiv_pos_as_xyz
'x,y,z'

loop_
_atom_site_label
_atom_site_type_symbol
_atom_site_fract_x
_atom_site_fract_y
_atom_site_fract_z
Cu11	Cu1	0.200210	0.637810	0.479230
Cu21	Cu2	0.427460	0.334480	0.893800
Cu31	Cu3	0.327640	0.628980	0.269460
Cu41	Cu4	0.192010	0.514280	0.217430
Cu51	Cu5	0.698590	0.029490	0.684970
N11	N1	0.931000	0.503400	0.673000
N21	N2	0.573900	0.232600	0.892700
N31	N3	0.896900	0.299700	0.737700
N41	N4	0.671700	0.258500	0.825700
N51	N5	0.741700	0.123100	0.917200
C11	C1	0.620300	0.151200	0.946500
C21	C2	0.978000	0.587800	0.620500
C31	C3	0.000600	0.317000	0.679100
C41	C4	0.546800	0.104900	0.028800
C51	C5	0.766100	0.194300	0.841000
C61	C6	0.885900	0.203200	0.781700
C71	C7	0.011600	0.425000	0.638800
N61	N6	0.341400	0.520100	0.446600
N71	N7	0.079700	0.558000	0.562700
N81	N8	0.100800	0.455700	0.573100
N91	N9	0.364500	0.515400	0.356200
N101	N10	0.451100	0.366600	0.420800
N111	N11	0.389800	0.431600	0.196100
C81	C8	0.394200	0.429800	0.483200
C91	C9	0.420400	0.409900	0.110000
C101	C10	0.575300	0.332800	0.225700
H11	H1	0.627300	0.308400	0.265600
C111	C11	0.428200	0.425500	0.343400
C121	C12	0.465500	0.393000	0.253000
N121	N12	0.387100	0.348300	0.769300
N131	N13	0.237300	0.493600	0.942300
N141	N14	0.337600	0.436100	0.969200
N151	N15	0.232400	0.515900	0.086600
C131	C13	0.390200	0.399900	0.582400
C141	C14	0.329400	0.438700	0.734900
H21	H2	0.285400	0.482800	0.775000
C151	C15	0.332200	0.469300	0.643100
H31	H3	0.296600	0.534300	0.622100
C161	C16	0.445500	0.308300	0.615600
H41	H4	0.484000	0.260600	0.577300
C171	C17	0.444200	0.286500	0.707700
H51	H5	0.486100	0.224200	0.728500
C181	C18	0.333000	0.452500	0.054400
C191	C19	0.531200	0.348200	0.080800
H61	H6	0.552400	0.334000	0.021600
C201	C20	0.606500	0.309800	0.137800
H71	H7	0.678700	0.268200	0.118600
C211	C21	0.920600	0.691800	0.629700
C221	C22	0.177000	0.541700	0.011800
C231	C23	0.357200	0.082400	0.130100
H81	H8	0.273000	0.096900	0.141000
C241	C24	0.600400	0.036700	0.094900
H91	H9	0.684200	0.018300	0.084000
C251	C25	0.530100	0.997200	0.175000
H101	H10	0.568800	0.953500	0.217100
C261	C26	0.994100	0.653700	0.083500
H111	H11	0.017000	0.637900	0.139200
C271	C27	0.065500	0.611200	0.009000
C281	C28	0.421400	0.127300	0.048800
H121	H12	0.380900	0.171900	0.008200
C291	C29	0.085900	0.142800	0.702800
H131	H13	0.148700	0.089600	0.690800
C301	C30	0.797200	0.714600	0.642200
H141	H14	0.751000	0.663200	0.645400
C311	C31	0.099100	0.240000	0.658700
H151	H15	0.169900	0.254300	0.617400
C321	C32	0.977000	0.122100	0.766600
C331	C33	0.979000	0.770600	0.630500
H161	H16	0.062700	0.759500	0.625600
N161	N16	0.407900	0.018400	0.195700
C341	C34	0.021600	0.639100	0.927400
H171	H17	0.065600	0.613600	0.875100
N171	N17	0.846900	0.744700	0.998900
C351	C35	0.890000	0.719000	0.074300
H181	H18	0.845900	0.747800	0.124900
C361	C36	0.914700	0.703500	0.925400
H191	H19	0.887400	0.719600	0.871300
C371	C37	0.915900	0.868300	0.638800
H201	H20	0.960500	0.921000	0.634900
C381	C38	0.740600	0.812300	0.650300
H211	H21	0.656900	0.824800	0.655100
N181	N18	0.796800	0.890600	0.651600
N191	N19	0.231400	0.768400	0.421800
C391	C39	0.256700	0.847400	0.381900
Cu61	Cu6	0.799790	0.362190	0.520770
Cu71	Cu7	0.572540	0.665520	0.106200
Cu81	Cu8	0.672360	0.371020	0.730540
Cu91	Cu9	0.807990	0.485720	0.782570
Cu101	Cu10	0.301410	0.970510	0.315030
N201	N20	0.069000	0.496600	0.327000
N211	N21	0.426100	0.767400	0.107300
N221	N22	0.103100	0.700300	0.262300
N231	N23	0.328300	0.741500	0.174300
N241	N24	0.258300	0.876900	0.082800
C401	C40	0.379700	0.848800	0.053500
C411	C41	0.022000	0.412200	0.379500
C421	C42	0.999400	0.683000	0.320900
C431	C43	0.453200	0.895100	0.971200
C441	C44	0.233900	0.805700	0.159000
C451	C45	0.114100	0.796800	0.218300
C461	C46	0.988400	0.575000	0.361200
N251	N25	0.658600	0.479900	0.553400
N261	N26	0.920300	0.442000	0.437300
N271	N27	0.899200	0.544300	0.426900
N281	N28	0.635500	0.484600	0.643800
N291	N29	0.548900	0.633400	0.579200
N301	N30	0.610200	0.568400	0.803900
C471	C47	0.605800	0.570200	0.516800
C481	C48	0.579600	0.590100	0.890000
C491	C49	0.424700	0.667200	0.774300
H221	H22	0.372700	0.691600	0.734400
C501	C50	0.571800	0.574500	0.656600
C511	C51	0.534500	0.607000	0.747000
N311	N31	0.612900	0.651700	0.230700
N321	N32	0.762700	0.506400	0.057700
N331	N33	0.662400	0.563900	0.030800
N341	N34	0.767600	0.484100	0.913400
C521	C52	0.609800	0.600100	0.417600
C531	C53	0.670600	0.561300	0.265100
H231	H23	0.714600	0.517200	0.225000
C541	C54	0.667800	0.530700	0.356900
H241	H24	0.703400	0.465700	0.377900
C551	C55	0.554500	0.691700	0.384400
H251	H25	0.516000	0.739400	0.422700
C561	C56	0.555800	0.713500	0.292300
H261	H26	0.513900	0.775800	0.271500
C571	C57	0.667000	0.547500	0.945600
C581	C58	0.468800	0.651800	0.919200
H271	H27	0.447600	0.666000	0.978400
C591	C59	0.393500	0.690200	0.862200
H281	H28	0.321300	0.731800	0.881400
C601	C60	0.079400	0.308200	0.370300
C611	C61	0.823000	0.458300	0.988200
C621	C62	0.642800	0.917600	0.869900
H291	H29	0.727000	0.903100	0.859000
C631	C63	0.399600	0.963300	0.905100
H301	H30	0.315800	0.981700	0.916000
C641	C64	0.469900	0.002800	0.825000
H311	H31	0.431200	0.046500	0.782900
C651	C65	0.005900	0.346300	0.916500
H321	H32	0.983000	0.362100	0.860800
C661	C66	0.934500	0.388800	0.991000
C671	C67	0.578600	0.872700	0.951200
H331	H33	0.619100	0.828100	0.991800
C681	C68	0.914100	0.857200	0.297200
H341	H34	0.851300	0.910400	0.309200
C691	C69	0.202800	0.285400	0.357800
H351	H35	0.249000	0.336800	0.354600
C701	C70	0.900900	0.760000	0.341300
H361	H36	0.830100	0.745700	0.382600
C711	C71	0.023000	0.877900	0.233400
C721	C72	0.021000	0.229400	0.369500
H371	H37	0.937300	0.240500	0.374400
N351	N35	0.592100	0.981600	0.804300
C731	C73	0.978400	0.360900	0.072600
H381	H38	0.934400	0.386400	0.124900
N361	N36	0.153100	0.255300	0.001100
C741	C74	0.110000	0.281000	0.925700
H391	H39	0.154100	0.252200	0.875100
C751	C75	0.085300	0.296500	0.074600
H401	H40	0.112600	0.280400	0.128700
C761	C76	0.084100	0.131700	0.361200
H411	H41	0.039500	0.079000	0.365100
C771	C77	0.259400	0.187700	0.349700
H421	H42	0.343100	0.175200	0.344900
N371	N37	0.203200	0.109400	0.348400
N381	N38	0.768600	0.231600	0.578200
C781	C78	0.743300	0.152600	0.618100
