data_WOSZEL_charged_PM
_symmetry_space_group_name_H-M	'P1'
_cell_length_a	9.026900
_cell_length_b	14.079700
_cell_length_c	27.431900
_cell_angle_alpha	91.187000
_cell_angle_beta	90.000000
_cell_angle_gamma	90.000000
_symmetry_Int_Tables_number 1

loop_
_symmetry_equiv_pos_as_xyz
'x,y,z'

loop_
_atom_site_label
_atom_site_type_symbol
_atom_site_fract_x
_atom_site_fract_y
_atom_site_fract_z
Zn11	Zn1	0.778910	0.080550	0.838100
Zn21	Zn2	0.721090	0.580550	0.338100
H11	H1	0.669800	0.104700	0.691800
H21	H2	0.566000	0.292100	0.370300
H31	H3	0.225600	0.409500	0.055800
H41	H4	0.067200	0.674500	0.058300
H51	H5	0.285100	0.789000	0.493300
H61	H6	0.197300	0.243600	0.724300
H71	H7	0.891000	0.857000	0.392400
H81	H8	0.093200	0.659100	0.294600
H91	H9	0.432800	0.174500	0.558300
H101	H10	0.830200	0.604700	0.191800
H111	H11	0.231800	0.432800	0.138200
H121	H12	0.142900	0.765500	0.299900
H131	H13	0.019100	0.978100	0.430500
H141	H14	0.081500	0.952800	0.981400
H151	H15	0.214900	0.289000	0.993300
H161	H16	0.336000	0.318400	0.520200
H171	H17	0.422600	0.663100	0.224800
H181	H18	0.343800	0.167700	0.954500
H191	H19	0.245600	0.136800	0.720000
H201	H20	0.254200	0.567800	0.936300
H211	H21	0.418500	0.452800	0.481400
H221	H22	0.091500	0.154900	0.848900
H231	H23	0.144800	0.415100	0.216500
H241	H24	0.934000	0.792100	0.870300
H251	H25	0.406800	0.159100	0.794600
H261	H26	0.274400	0.909500	0.555800
H271	H27	0.164000	0.818400	0.020200
H281	H28	0.156200	0.667700	0.454500
H291	H29	0.077400	0.163100	0.724800
H301	H30	0.328800	0.195300	0.842500
H311	H31	0.909800	0.619800	0.112700
H321	H32	0.268200	0.932800	0.638200
H331	H33	0.357100	0.265500	0.799900
H341	H34	0.245800	0.067800	0.436300
H351	H35	0.590200	0.119800	0.612700
H361	H36	0.408500	0.654900	0.348900
H371	H37	0.302700	0.743600	0.224300
H381	H38	0.254400	0.636800	0.220000
H391	H39	0.034300	0.658900	0.905500
H401	H40	0.609000	0.357000	0.892400
H411	H41	0.465700	0.158900	0.405500
H421	H42	0.355200	0.915100	0.716500
H431	H43	0.171200	0.695300	0.342500
H441	H44	0.480900	0.478100	0.930500
C11	C1	0.379900	0.312600	0.489590
C21	C2	0.150400	0.468200	0.148700
C31	C3	0.120100	0.812600	0.989590
C41	C4	0.401800	0.957400	0.695880
C51	C5	0.004400	0.749100	0.421170
C61	C6	0.373400	0.230300	0.950340
C71	C7	0.388100	0.124100	0.541430
C81	C8	0.581500	0.168500	0.897760
C91	C9	0.208300	0.466500	0.040210
C101	C10	0.588800	0.069300	0.681020
C111	C11	0.911200	0.569300	0.181020
C121	C12	0.564000	0.473500	0.399150
C131	C13	0.495600	0.249100	0.921170
C141	C14	0.254200	0.476400	0.992260
C151	C15	0.453300	0.415500	0.935910
C161	C16	0.415700	0.030300	0.616820
C171	C17	0.968700	0.842700	0.413280
C181	C18	0.920600	0.499800	0.264390
C191	C19	0.098200	0.457400	0.195880
C201	C20	0.977900	0.509000	0.212350
C211	C21	0.137200	0.539800	0.065480
C221	C22	0.205200	0.803300	0.473310
C231	C23	0.362800	0.039800	0.565480
C241	C24	0.539800	0.079600	0.633510
C251	C25	0.165300	0.897500	0.466580
C261	C26	0.332700	0.201200	0.807800
C271	C27	0.348900	0.135400	0.493030
C281	C28	0.918500	0.668500	0.397760
C291	C29	0.522100	0.009000	0.712350
C301	C30	0.075600	0.154300	0.815400
C311	C31	0.084300	0.530300	0.116820
C321	C32	0.176100	0.180300	0.734600
C331	C33	0.067600	0.893200	0.966810
C341	C34	0.126600	0.730300	0.450340
C351	C35	0.291700	0.966500	0.540210
C361	C36	0.167300	0.701200	0.307800
C371	C37	0.517900	0.297800	0.400210
C381	C38	0.334700	0.397500	0.966580
C391	C39	0.040400	0.717500	0.921730
C401	C40	0.392100	0.223800	0.467390
C411	C41	0.531300	0.342700	0.913280
C421	C42	0.960200	0.579600	0.133510
C431	C43	0.349600	0.968200	0.648700
C441	C44	0.459600	0.217500	0.421730
C451	C45	0.245800	0.976400	0.492260
C461	C46	0.994600	0.885300	0.922460
C471	C47	0.323900	0.680300	0.234600
C481	C48	0.432400	0.393200	0.466810
C491	C49	0.275200	0.060800	0.468540
C501	C50	0.424400	0.654300	0.315400
C511	C51	0.579400	0.999800	0.764390
C521	C52	0.294800	0.303300	0.973310
C531	C53	0.505400	0.385300	0.422460
C541	C54	0.107900	0.723800	0.967390
C551	C55	0.224800	0.560800	0.968540
C561	C56	0.936000	0.973500	0.899150
C571	C57	0.151100	0.635400	0.993030
C581	C58	0.111900	0.624100	0.041430
C591	C59	0.046700	0.915500	0.435910
C601	C60	0.982100	0.797800	0.900210
N11	N1	0.312400	0.676400	0.286680
N21	N2	0.187600	0.176400	0.786680
O11	O1	0.546500	0.086500	0.905470
O21	O2	0.953500	0.586500	0.405470
O31	O3	0.982800	0.052900	0.910970
O41	O4	0.672500	0.061600	0.776960
O51	O5	0.517200	0.552900	0.410970
O61	O6	0.546700	0.633300	0.300430
O71	O7	0.827500	0.561600	0.276960
O81	O8	0.811600	0.691400	0.370630
O91	O9	0.688400	0.191400	0.870630
O101	O10	0.532900	0.935400	0.789100
O111	O11	0.837000	0.959500	0.865980
O121	O12	0.967100	0.435400	0.289100
O131	O13	0.663000	0.459500	0.365980
O141	O14	0.953300	0.133300	0.800430
Zn31	Zn3	0.278910	0.419450	0.661900
Zn41	Zn4	0.221090	0.919450	0.161900
H451	H45	0.593200	0.840900	0.205400
H461	H46	0.577400	0.336900	0.775200
H471	H47	0.857100	0.234500	0.700100
H481	H48	0.090200	0.380200	0.887300
H491	H49	0.980900	0.021900	0.569500
H501	H50	0.754400	0.863200	0.280000
H511	H51	0.828800	0.304700	0.657500
H521	H52	0.644800	0.084900	0.283500
H531	H53	0.391000	0.643000	0.107600
H541	H54	0.330200	0.895300	0.308200
H551	H55	0.836000	0.181600	0.979800
H561	H56	0.519100	0.521900	0.069500
H571	H57	0.714900	0.211000	0.506700
H581	H58	0.066000	0.207900	0.129700
H591	H59	0.922600	0.836900	0.275200
H601	H60	0.768200	0.567200	0.861800
H611	H61	0.725600	0.090500	0.444200
H621	H62	0.409800	0.880200	0.387300
H631	H63	0.908500	0.845100	0.151100
H641	H64	0.591500	0.345100	0.651100
H651	H65	0.109000	0.143000	0.607600
H661	H66	0.656200	0.832300	0.045500
H671	H67	0.802700	0.756400	0.275700
H681	H68	0.434000	0.707900	0.629700
H691	H69	0.906800	0.340900	0.705400
H701	H70	0.642900	0.734500	0.200100
H711	H71	0.697300	0.256400	0.775700
H721	H72	0.567200	0.825500	0.441700
H731	H73	0.671200	0.804700	0.157500
H741	H74	0.843800	0.332300	0.545500
H751	H75	0.169800	0.395300	0.808200
H761	H76	0.785100	0.711000	0.006700
H771	H77	0.534300	0.841100	0.594500
H781	H78	0.745800	0.432200	0.063700
H791	H79	0.745600	0.363200	0.780000
H801	H80	0.731800	0.067200	0.361800
H811	H81	0.932800	0.325500	0.941700
H821	H82	0.855200	0.584900	0.783500
H831	H83	0.581500	0.547200	0.518600
H841	H84	0.774400	0.590500	0.944200
H851	H85	0.965700	0.341100	0.094500
H861	H86	0.918500	0.047200	0.018600
H871	H87	0.664000	0.681600	0.479800
H881	H88	0.754200	0.932200	0.563700
C611	C61	0.420600	0.000200	0.235610
C621	C62	0.039800	0.420400	0.866490
C631	C63	0.892100	0.276200	0.032610
C641	C64	0.081500	0.331500	0.602240
C651	C65	0.932400	0.106800	0.033190
C661	C66	0.823900	0.819700	0.265400
C671	C67	0.064000	0.026500	0.100850
C681	C68	0.959600	0.282500	0.078270
C691	C69	0.468700	0.657300	0.086720
C701	C70	0.031300	0.157300	0.586720
C711	C71	0.924400	0.845700	0.184600
C721	C72	0.017900	0.202200	0.099790
C731	C73	0.834700	0.102500	0.533420
C741	C74	0.849600	0.531800	0.851300
C751	C75	0.482100	0.702200	0.599790
C761	C76	0.667300	0.798800	0.192200
C771	C77	0.676100	0.319700	0.765400
C781	C78	0.598200	0.042600	0.304120
C791	C79	0.607900	0.776200	0.532610
C801	C80	0.575600	0.345700	0.684600
C811	C81	0.888100	0.375900	0.958570
C821	C82	0.460200	0.920400	0.366490
C831	C83	0.637200	0.960200	0.434520
C841	C84	0.477900	0.991000	0.287650
C851	C85	0.901800	0.542600	0.804120
C861	C86	0.022100	0.491000	0.787650
C871	C87	0.708300	0.033500	0.459790
C881	C88	0.794800	0.196700	0.526690
C891	C89	0.411200	0.930700	0.318980
C901	C90	0.651100	0.864600	0.506970
C911	C91	0.879900	0.187400	0.010410
C921	C92	0.724800	0.939200	0.531460
C931	C93	0.088800	0.430700	0.818980
C941	C94	0.848900	0.364600	0.006970
C951	C95	0.791700	0.533500	0.959790
C961	C96	0.584300	0.969700	0.383180
C971	C97	0.494600	0.614700	0.577540
C981	C98	0.567600	0.606800	0.533190
C991	C99	0.626600	0.769700	0.049660
C1001	C100	0.915700	0.469700	0.883180
C1011	C101	0.705200	0.696700	0.026690
C1021	C102	0.546700	0.584500	0.064090
C1031	C103	0.504400	0.750900	0.078830
C1041	C104	0.005400	0.114700	0.077540
C1051	C105	0.620100	0.687400	0.510410
C1061	C106	0.995600	0.250900	0.578830
C1071	C107	0.862800	0.460200	0.934520
C1081	C108	0.665300	0.602500	0.033420
C1091	C109	0.611900	0.875900	0.458570
C1101	C110	0.832700	0.298800	0.692200
C1111	C111	0.873400	0.269700	0.549660
C1121	C112	0.650400	0.031800	0.351300
C1131	C113	0.079400	0.500200	0.735610
C1141	C114	0.754200	0.023600	0.507740
C1151	C115	0.775200	0.439200	0.031460
C1161	C116	0.418500	0.831500	0.102240
C1171	C117	0.436000	0.526500	0.600850
C1181	C118	0.745800	0.523600	0.007740
C1191	C119	0.540400	0.782500	0.578270
C1201	C120	0.953300	0.084500	0.564090
N31	N3	0.812400	0.823600	0.213320
N41	N4	0.687600	0.323600	0.713320
O151	O15	0.032900	0.564600	0.710900
O161	O16	0.172500	0.438400	0.723040
O171	O17	0.327500	0.938400	0.223040
O181	O18	0.311600	0.808600	0.129370
O191	O19	0.188400	0.308600	0.629370
O201	O20	0.163000	0.040500	0.134020
O211	O21	0.046500	0.413500	0.594530
O221	O22	0.467100	0.064600	0.210900
O231	O23	0.453300	0.366700	0.699570
O241	O24	0.453500	0.913500	0.094530
O251	O25	0.337000	0.540500	0.634020
O261	O26	0.482800	0.447100	0.589030
O271	O27	0.017200	0.947100	0.089030
O281	O28	0.046700	0.866700	0.199570
H891	H89	0.664200	0.866700	0.942400
H901	H90	0.550700	0.954800	0.887200
H911	H91	0.338100	0.917200	0.850300
H921	H92	0.515600	0.907100	0.963800
H931	H93	0.310200	0.939400	0.905700
H941	H94	0.318100	0.833800	0.886700
H951	H95	0.523400	0.801700	0.944400
H961	H96	0.558200	0.857200	0.869200
C1211	C121	0.558200	0.865300	0.939600
C1221	C122	0.357100	0.896600	0.882800
N51	N5	0.515300	0.895800	0.891560
H971	H97	0.189800	0.439400	0.405700
H981	H98	0.941800	0.357200	0.369200
H991	H99	0.976600	0.301700	0.444400
H1001	H100	0.984400	0.407100	0.463800
H1011	H101	0.161900	0.417200	0.350300
H1021	H102	0.181900	0.333800	0.386700
H1031	H103	0.949300	0.454800	0.387200
H1041	H104	0.835800	0.366700	0.442400
C1231	C123	0.142900	0.396600	0.382800
C1241	C124	0.941800	0.365300	0.439600
N61	N6	0.984700	0.395800	0.391560
H1051	H105	0.441800	0.142800	0.130800
H1061	H106	0.476600	0.198300	0.055600
H1071	H107	0.689800	0.060600	0.094300
H1081	H108	0.681900	0.166200	0.113300
H1091	H109	0.484400	0.092900	0.036200
H1101	H110	0.335800	0.133300	0.057600
H1111	H111	0.449300	0.045200	0.112800
H1121	H112	0.661900	0.082800	0.149700
C1251	C125	0.441800	0.134700	0.060400
C1261	C126	0.642900	0.103400	0.117200
N71	N7	0.484700	0.104200	0.108440
H1131	H113	0.164200	0.633300	0.557600
H1141	H114	0.810200	0.560600	0.594300
H1151	H115	0.058200	0.642800	0.630800
H1161	H116	0.015600	0.592900	0.536200
H1171	H117	0.818100	0.666200	0.613300
H1181	H118	0.838100	0.582800	0.649700
H1191	H119	0.050700	0.545200	0.612800
H1201	H120	0.023400	0.698300	0.555600
C1271	C127	0.857100	0.603400	0.617200
C1281	C128	0.058200	0.634700	0.560400
N81	N8	0.015300	0.604200	0.608440
