data_WOVDES_clean_PM
_symmetry_space_group_name_H-M	'P1'
_cell_length_a	10.042000
_cell_length_b	15.902900
_cell_length_c	24.753000
_cell_angle_alpha	72.885800
_cell_angle_beta	78.296700
_cell_angle_gamma	71.595200
_symmetry_Int_Tables_number 1

loop_
_symmetry_equiv_pos_as_xyz
'x,y,z'

loop_
_atom_site_label
_atom_site_type_symbol
_atom_site_fract_x
_atom_site_fract_y
_atom_site_fract_z
Ni11	Ni1	0.972810	0.147570	0.728770
Ni21	Ni2	0.150850	0.647570	0.228770
Ni31	Ni3	0.849150	0.352430	0.771230
Ni41	Ni4	0.027190	0.852430	0.271230
H11	H1	0.537100	0.305100	0.638300
H21	H2	0.992000	0.327900	0.436100
H31	H3	0.755100	0.470200	0.546600
H41	H4	0.731000	0.279100	0.901900
H51	H5	0.500500	0.450200	0.787800
H61	H6	0.983800	0.360300	0.057100
H71	H7	0.540200	0.286200	0.991600
H81	H8	0.945500	0.433500	0.594900
H91	H9	0.944600	0.624100	0.037300
H101	H10	0.912500	0.617000	0.170400
H111	H11	0.480500	0.194900	0.861700
H121	H12	0.700300	0.162400	0.521800
H131	H13	0.519400	0.240500	0.350300
H141	H14	0.462800	0.977100	0.373700
H151	H15	0.699900	0.883000	0.329600
H161	H16	0.103600	0.581300	0.861100
H171	H17	0.016200	0.639700	0.942900
H181	H18	0.954100	0.213100	0.013100
H191	H19	0.771900	0.029800	0.953400
H201	H20	0.324200	0.310200	0.695000
H211	H21	0.480600	0.759500	0.649700
H221	H22	0.587300	0.820700	0.042100
H231	H23	0.813600	0.522900	0.126300
H241	H24	0.519500	0.805100	0.138300
H251	H25	0.271600	0.447000	0.200200
H261	H26	0.422000	0.995500	0.110500
H271	H27	0.088000	0.779100	0.401900
H281	H28	0.643100	0.021600	0.084000
H291	H29	0.675100	0.232900	0.408100
H301	H30	0.912000	0.220900	0.598100
H311	H31	0.615500	0.662400	0.021800
H321	H32	0.394000	0.124100	0.537300
H331	H33	0.675800	0.689800	0.305000
H341	H34	0.499500	0.549800	0.212200
H351	H35	0.186400	0.477100	0.873700
H361	H36	0.454000	0.081300	0.361100
H371	H37	0.918800	0.053000	0.299800
H381	H38	0.546000	0.918700	0.638900
H391	H39	0.818000	0.213800	0.508400
H401	H40	0.366800	0.376000	0.311800
H411	H41	0.244000	0.827900	0.936100
H421	H42	0.087500	0.383000	0.829600
H431	H43	0.644500	0.464300	0.472500
H441	H44	0.230300	0.963800	0.517200
H451	H45	0.578000	0.004500	0.889500
H461	H46	0.598800	0.860300	0.557100
H471	H47	0.026100	0.933500	0.094900
H481	H48	0.196800	0.153600	0.998200
H491	H49	0.528000	0.504500	0.389500
H501	H50	0.651400	0.653600	0.498200
H511	H51	0.472000	0.495500	0.610500
H521	H52	0.699200	0.408600	0.960600
H531	H53	0.401200	0.139700	0.442900
H541	H54	0.803200	0.846400	0.001800
H551	H55	0.896400	0.418700	0.138900
H561	H56	0.537200	0.022900	0.626300
H571	H57	0.228100	0.970200	0.046600
H581	H58	0.889800	0.740500	0.850300
H591	H59	0.462900	0.694900	0.361700
H601	H60	0.772400	0.200200	0.771000
H611	H61	0.418700	0.964300	0.972500
H621	H62	0.300800	0.591400	0.039400
H631	H63	0.743600	0.299800	0.729000
H641	H64	0.670600	0.810200	0.195000
H651	H65	0.973900	0.066500	0.905100
H661	H66	0.244900	0.529800	0.453400
H671	H67	0.711300	0.536200	0.982800
H681	H68	0.180300	0.286900	0.486900
H691	H69	0.769700	0.036200	0.482800
H701	H70	0.728400	0.553000	0.799800
H711	H71	0.945400	0.876000	0.811800
H721	H72	0.068400	0.091400	0.539400
H731	H73	0.081200	0.947000	0.700200
H741	H74	0.054600	0.124000	0.188200
H751	H75	0.300100	0.117000	0.670400
H761	H76	0.738500	0.049800	0.712200
H771	H77	0.182000	0.786200	0.491600
H781	H78	0.348600	0.346400	0.501800
H791	H79	0.683900	0.732900	0.908100
H801	H80	0.356900	0.978400	0.916000
H811	H81	0.412700	0.179300	0.957900
H821	H82	0.549900	0.320700	0.542100
H831	H83	0.931600	0.908600	0.460600
H841	H84	0.633200	0.624000	0.688200
H851	H85	0.748700	0.478400	0.416000
H861	H86	0.355500	0.535700	0.527500
H871	H87	0.384500	0.337600	0.978200
H881	H88	0.054500	0.566500	0.405100
H891	H89	0.269000	0.720900	0.098100
H901	H90	0.251300	0.521600	0.584000
H911	H91	0.819700	0.713100	0.513100
H921	H92	0.299700	0.837600	0.478200
H931	H93	0.256400	0.700200	0.271000
H941	H94	0.261500	0.950200	0.287800
H951	H95	0.227600	0.799800	0.229000
H961	H96	0.581300	0.035700	0.027500
H971	H97	0.756000	0.172100	0.063900
H981	H98	0.045900	0.786900	0.986900
H991	H99	0.110200	0.259500	0.149700
H1001	H100	0.459800	0.713800	0.008400
H1011	H101	0.450100	0.679300	0.457900
H1021	H102	0.316100	0.267100	0.091900
H1031	H103	0.606000	0.875900	0.462700
H1041	H104	0.288700	0.463800	0.017200
H1051	H105	0.055400	0.375900	0.962700
H1061	H106	0.324900	0.767100	0.591900
H1071	H107	0.008000	0.672100	0.563900
H1081	H108	0.329400	0.189800	0.805000
C11	C1	0.344100	0.679100	0.116500
C21	C2	0.032600	0.426700	0.977700
C31	C3	0.904800	0.674200	0.501600
C41	C4	0.388900	0.131300	0.095300
C51	C5	0.799700	0.150600	0.031800
C61	C6	0.543700	0.686800	0.377600
C71	C7	0.490600	0.423200	0.986000
C81	C8	0.608100	0.813200	0.122400
C91	C9	0.295100	0.211300	0.107300
C101	C10	0.860600	0.874500	0.835100
C111	C11	0.899800	0.076800	0.514000
C121	C12	0.358600	0.048600	0.118400
C131	C13	0.648100	0.823400	0.065000
C141	C14	0.190400	0.934500	0.033500
C151	C15	0.165940	0.174720	0.867000
C161	C16	0.494600	0.989900	0.558500
C171	C17	0.456300	0.313200	0.622400
C181	C18	0.919400	0.174200	0.001600
C191	C19	0.792600	0.158300	0.530300
C201	C20	0.990800	0.566500	0.172100
C211	C21	0.536500	0.676600	0.435000
C221	C22	0.081810	0.307380	0.674800
C231	C23	0.655900	0.320900	0.883500
C241	C24	0.615500	0.368700	0.404700
C251	C25	0.641400	0.951400	0.881600
C261	C26	0.183100	0.474000	0.187600
C271	C27	0.069400	0.912100	0.062700
C281	C28	0.270600	0.066500	0.672100
C291	C29	0.797600	0.046000	0.817600
C301	C30	0.918190	0.692620	0.325200
C311	C31	0.618000	0.445600	0.976400
C321	C32	0.765700	0.086400	0.677400
C331	C33	0.563000	0.926700	0.477700
C341	C34	0.816900	0.526000	0.812400
C351	C35	0.914630	0.641940	0.454800
C361	C36	0.874070	0.838360	0.074300
C371	C37	0.507700	0.020000	0.378400
C381	C38	0.786730	0.661640	0.425700
C391	C39	0.382900	0.935100	0.951500
C401	C40	0.906100	0.480000	0.121600
C411	C41	0.827000	0.793700	0.858300
C421	C42	0.374600	0.478100	0.009900
C431	C43	0.844700	0.026000	0.312400
C441	C44	0.730500	0.435100	0.451500
C451	C45	0.479000	0.706300	0.641700
C461	C46	0.955800	0.412100	0.562700
C471	C47	0.386300	0.711300	0.607300
C481	C48	0.862600	0.021900	0.490100
C491	C49	0.699000	0.815300	0.156300
C501	C50	0.139400	0.125500	0.164900
C511	C51	0.625400	0.521900	0.990100
C521	C52	0.967400	0.573300	0.022300
C531	C53	0.213270	0.338360	0.574300
C541	C54	0.011370	0.858060	0.045200
C551	C55	0.095200	0.325800	0.498400
C561	C56	0.809600	0.065500	0.966500
C571	C57	0.431200	0.454900	0.346500
C581	C58	0.518800	0.658300	0.030300
C591	C59	0.391900	0.186800	0.877600
C601	C60	0.474400	0.548600	0.618400
C611	C61	0.147300	0.594400	0.514000
C621	C62	0.329400	0.315300	0.656300
C631	C63	0.936010	0.807380	0.174800
C641	C64	0.382000	0.554400	0.023600
C651	C65	0.009200	0.433500	0.827900
C661	C66	0.960000	0.945600	0.476400
C671	C67	0.988630	0.141940	0.954800
C681	C68	0.207660	0.325280	0.633000
C691	C69	0.613700	0.288700	0.392700
C701	C70	0.525600	0.451400	0.381600
C711	C71	0.990400	0.417100	0.034300
C721	C72	0.670600	0.684700	0.343700
C731	C73	0.158400	0.565500	0.466500
C741	C74	0.269500	0.564900	0.548500
C751	C75	0.509400	0.576800	0.014000
C761	C76	0.301000	0.184700	0.843700
C771	C77	0.017900	0.650600	0.531800
C781	C78	0.492300	0.980000	0.621600
C791	C79	0.139700	0.820900	0.383500
C801	C80	0.342900	0.337400	0.541000
C811	C81	0.044200	0.587900	0.437300
C821	C82	0.767400	0.954900	0.846500
C831	C83	0.063990	0.192620	0.825200
C841	C84	0.255700	0.905600	0.986000
C851	C85	0.505400	0.010100	0.441500
C861	C86	0.429800	0.374500	0.335100
C871	C87	0.617100	0.064900	0.048500
C881	C88	0.207400	0.841700	0.469700
C891	C89	0.521000	0.293700	0.358300
C901	C90	0.834060	0.825280	0.133000
C911	C91	0.841600	0.434500	0.533500
C921	C92	0.792340	0.674720	0.367000
C931	C93	0.155300	0.974000	0.687600
C941	C94	0.957000	0.489900	0.058500
C951	C95	0.704900	0.788700	0.892700
C961	C96	0.657100	0.662600	0.459000
C971	C97	0.470500	0.586400	0.177400
C981	C98	0.137400	0.978100	0.509900
C991	C99	0.437000	0.073300	0.522300
C1001	C100	0.611100	0.868700	0.904700
C1011	C101	0.043000	0.510100	0.941500
C1021	C102	0.234300	0.913600	0.322600
C1031	C103	0.860300	0.179100	0.616500
C1041	C104	0.200300	0.849400	0.968200
C1051	C105	0.338800	0.546000	0.317600
C1061	C106	0.529500	0.413600	0.822600
C1071	C107	0.558200	0.917100	0.534300
C1081	C108	0.463500	0.323400	0.565000
C1091	C109	0.982100	0.349400	0.468200
C1101	C110	0.729400	0.933500	0.327900
C1111	C111	0.441800	0.082900	0.465700
C1121	C112	0.570200	0.625500	0.664900
C1131	C113	0.568800	0.545100	0.653500
C1141	C114	0.202400	0.954000	0.182400
C1151	C115	0.778700	0.837400	0.041000
C1161	C116	0.661200	0.454000	0.682400
C1171	C117	0.100200	0.923200	0.486000
C1181	C118	0.384500	0.631300	0.595300
C1191	C119	0.080600	0.825800	0.998400
C1201	C120	0.125930	0.161640	0.925700
C1211	C121	0.351900	0.176600	0.935000
C1221	C122	0.085370	0.358060	0.545200
C1231	C123	0.009600	0.582900	0.965700
C1241	C124	0.093900	0.520000	0.878400
C1251	C125	0.930600	0.087900	0.937300
C1261	C126	0.173000	0.206300	0.141700
C1271	C127	0.232600	0.045100	0.153500
C1281	C128	0.040000	0.054400	0.523600
C1291	C129	0.221300	0.162600	0.959000
C1301	C130	0.852700	0.405600	0.486000
C1311	C131	0.481200	0.341700	0.969700
C1321	C132	0.744300	0.094400	0.014000
N11	N1	0.897870	0.445530	0.803730
N21	N2	0.786580	0.150040	0.591600
N31	N3	0.652890	0.002520	0.349100
N41	N4	0.147130	0.054470	0.696270
N51	N5	0.347110	0.997480	0.650900
N61	N6	0.852870	0.945530	0.303730
N71	N7	0.149340	0.859790	0.327930
N81	N8	0.337060	0.640210	0.172070
N91	N9	0.868680	0.564040	0.839600
N101	N10	0.274810	0.910380	0.370200
N111	N11	0.102130	0.554470	0.196270
N121	N12	0.004510	0.497480	0.150900
N131	N13	0.471780	0.650040	0.091600
N141	N14	0.850660	0.140210	0.672070
N151	N15	0.995490	0.502520	0.849100
N161	N16	0.213420	0.849960	0.408400
N171	N17	0.727680	0.064040	0.339600
N181	N18	0.725190	0.089620	0.629800
N191	N19	0.528220	0.349960	0.908400
N201	N20	0.131320	0.435960	0.160400
N211	N21	0.444610	0.410380	0.870200
N221	N22	0.272320	0.935960	0.660400
N231	N23	0.555390	0.589620	0.129800
N241	N24	0.662940	0.359790	0.827930
O11	O1	0.902070	0.849680	0.213180
O21	O2	0.964930	0.650320	0.286820
O31	O3	0.036820	0.246840	0.667520
O41	O4	0.951180	0.253160	0.832480
O51	O5	0.204900	0.750000	0.250000
O61	O6	0.915340	0.042280	0.787240
O71	O7	0.795100	0.250000	0.750000
O81	O8	0.709480	0.117040	0.823800
O91	O9	0.650320	0.382960	0.676200
O101	O10	0.488450	0.855880	0.940420
O111	O11	0.048820	0.746840	0.167520
O121	O12	0.284750	0.644120	0.559580
O131	O13	0.097930	0.150320	0.786820
O141	O14	0.963180	0.753160	0.332480
O151	O15	0.035070	0.349680	0.713180
O161	O16	0.715250	0.355880	0.440420
O171	O17	0.290520	0.882960	0.176200
O181	O18	0.349680	0.617040	0.323800
O191	O19	0.255140	0.542280	0.287240
O201	O20	0.744860	0.457720	0.712760
O211	O21	0.511550	0.144120	0.059580
O221	O22	0.084660	0.957720	0.212760
