data_WOWBIV_clean_PM
_symmetry_space_group_name_H-M	'P1'
_cell_length_a	14.416000
_cell_length_b	14.724900
_cell_length_c	14.724900
_cell_angle_alpha	76.135800
_cell_angle_beta	60.691500
_cell_angle_gamma	60.691600
_symmetry_Int_Tables_number 1

loop_
_symmetry_equiv_pos_as_xyz
'x,y,z'

loop_
_atom_site_label
_atom_site_type_symbol
_atom_site_fract_x
_atom_site_fract_y
_atom_site_fract_z
Cd11	Cd1	0.967480	0.780290	0.189390
Cd21	Cd2	0.562840	0.280290	0.689390
Cd31	Cd3	0.747770	0.689390	0.219710
Cd41	Cd4	0.843130	0.189390	0.719710
Cd51	Cd5	0.156870	0.810610	0.280290
Cd61	Cd6	0.032520	0.219710	0.810610
Cd71	Cd7	0.252230	0.310610	0.780290
Cd81	Cd8	0.437160	0.719710	0.310610
H11	H1	0.345400	0.920900	0.412300
H21	H2	0.729900	0.193300	0.151500
H31	H3	0.500000	0.367900	0.227300
H41	H4	0.881400	0.848500	0.693300
H51	H5	0.461900	0.858500	0.075100
H61	H6	0.104500	0.358500	0.575100
H71	H7	0.296900	0.438900	0.281500
H81	H8	0.500000	0.632100	0.772700
H91	H9	0.320400	0.575100	0.141500
H101	H10	0.425300	0.693300	0.651500
H111	H11	0.270100	0.806700	0.848500
H121	H12	0.118600	0.151500	0.306700
H131	H13	0.482700	0.938900	0.781500
H141	H14	0.654600	0.079100	0.587700
H151	H15	0.703100	0.561100	0.718500
H161	H16	0.595200	0.132100	0.272700
H171	H17	0.272700	0.227300	0.132100
H181	H18	0.735800	0.781500	0.561100
H191	H19	0.727300	0.772700	0.867900
H201	H20	0.264200	0.218500	0.438900
H211	H21	0.679600	0.424900	0.858500
H221	H22	0.578400	0.718500	0.938900
H231	H23	0.895500	0.641500	0.424900
H241	H24	0.266300	0.912300	0.079100
H251	H25	0.404800	0.867900	0.727300
H261	H26	0.421600	0.281500	0.061100
H271	H27	0.537000	0.924900	0.358500
H281	H28	0.574700	0.306700	0.348500
H291	H29	0.538100	0.141500	0.924900
H301	H30	0.242300	0.412300	0.579100
H311	H31	0.178600	0.579100	0.087700
H321	H32	0.132100	0.272700	0.367900
H331	H33	0.517300	0.061100	0.218500
H341	H34	0.821400	0.420900	0.912300
H351	H35	0.867900	0.727300	0.632100
H361	H36	0.923200	0.651500	0.806700
H371	H37	0.463000	0.075100	0.641500
H381	H38	0.076800	0.348500	0.193300
H391	H39	0.757700	0.587700	0.420900
H401	H40	0.733700	0.087700	0.920900
C11	C1	0.393200	0.544300	0.084500
C21	C2	0.682900	0.934400	0.568200
C31	C3	0.822700	0.798100	0.625900
C41	C4	0.863600	0.629600	0.839400
C51	C5	0.535800	0.679600	0.445000
C61	C6	0.620800	0.125900	0.201900
C71	C7	0.107500	0.476200	0.146800
C81	C8	0.405100	0.138300	0.857700
C91	C9	0.594900	0.861700	0.142300
C101	C10	0.167400	0.129600	0.339400
C111	C11	0.832600	0.870400	0.660600
C121	C12	0.506800	0.660600	0.629600
C131	C13	0.980800	0.555000	0.179600
C141	C14	0.657100	0.669600	0.918400
C151	C15	0.617300	0.068200	0.065600
C161	C16	0.937500	0.584500	0.455700
C171	C17	0.098900	0.638300	0.357700
C181	C18	0.407100	0.029600	0.473000
C191	C19	0.704000	0.098900	0.991300
C201	C20	0.416300	0.353200	0.476200
C211	C21	0.745700	0.146800	0.023800
C221	C22	0.251100	0.431800	0.434400
C231	C23	0.055100	0.560100	0.425900
C241	C24	0.543400	0.357700	0.861700
C251	C25	0.481000	0.574100	0.060100
C261	C26	0.464200	0.320400	0.555000
C271	C27	0.119900	0.473000	0.470400
C281	C28	0.748900	0.568200	0.565600
C291	C29	0.215400	0.945000	0.320400
C301	C30	0.262800	0.142300	0.638300
C311	C31	0.892500	0.523800	0.853200
C321	C32	0.563300	0.027000	0.029600
C331	C33	0.901100	0.361700	0.642300
C341	C34	0.615200	0.925900	0.439900
C351	C35	0.606800	0.455700	0.915500
C361	C36	0.745100	0.830400	0.581600
C371	C37	0.575500	0.081600	0.169600
C381	C38	0.769500	0.976200	0.646800
C391	C39	0.384800	0.074100	0.560100
C401	C40	0.382700	0.931800	0.934400
C411	C41	0.551400	0.625900	0.701900
C421	C42	0.136400	0.370400	0.160600
C431	C43	0.254900	0.169600	0.418400
C441	C44	0.522000	0.955700	0.415500
C451	C45	0.493200	0.339400	0.370400
C461	C46	0.705800	0.598900	0.491300
C471	C47	0.784600	0.055000	0.679600
C481	C48	0.342900	0.330400	0.081600
C491	C49	0.062500	0.415500	0.544300
C501	C50	0.522300	0.084500	0.955700
C511	C51	0.297000	0.839400	0.870400
C521	C52	0.379200	0.874100	0.798100
C531	C53	0.409700	0.470400	0.027000
C541	C54	0.695300	0.008700	0.598900
C551	C55	0.583700	0.646800	0.523800
C561	C56	0.197100	0.508700	0.098900
C571	C57	0.314500	0.434400	0.068200
C581	C58	0.424500	0.918400	0.830400
C591	C59	0.458900	0.060100	0.925900
C601	C60	0.230500	0.023800	0.353200
C611	C61	0.590300	0.529600	0.973000
C621	C62	0.673300	0.581600	0.669600
C631	C63	0.019200	0.445000	0.820400
C641	C64	0.254300	0.853200	0.976200
C651	C65	0.880100	0.527000	0.529600
C661	C66	0.448600	0.374100	0.298100
C671	C67	0.456600	0.642300	0.138300
C681	C68	0.703000	0.160600	0.129600
C691	C69	0.177300	0.201900	0.374100
C701	C70	0.317100	0.065600	0.431800
C711	C71	0.839600	0.179600	0.945000
C721	C72	0.802900	0.491300	0.901100
C731	C73	0.944900	0.439900	0.574100
C741	C74	0.160400	0.820400	0.055000
C751	C75	0.478000	0.044300	0.584500
C761	C76	0.436700	0.973000	0.970400
C771	C77	0.326700	0.418400	0.330400
C781	C78	0.541100	0.939900	0.074100
C791	C79	0.296000	0.901100	0.008700
C801	C80	0.294200	0.401100	0.508700
C811	C81	0.746700	0.701900	0.874100
C821	C82	0.253300	0.298100	0.125900
C831	C83	0.592900	0.970400	0.527000
C841	C84	0.519000	0.425900	0.939900
C851	C85	0.685500	0.565600	0.931800
C861	C86	0.477700	0.915500	0.044300
C871	C87	0.304700	0.991300	0.401100
C881	C88	0.737200	0.857700	0.361700
O11	O1	0.842800	0.336020	0.621580
O21	O2	0.355120	0.715580	0.179180
O31	O3	0.833290	0.029870	0.738150
O41	O4	0.300400	0.163980	0.878420
O51	O5	0.101190	0.856580	0.147840
O61	O6	0.394390	0.356580	0.647840
O71	O7	0.042230	0.352160	0.856580
O81	O8	0.929300	0.320820	0.715580
O91	O9	0.157200	0.663980	0.378420
O101	O10	0.101310	0.470130	0.761850
O111	O11	0.644880	0.284420	0.820820
O121	O12	0.250120	0.215580	0.679180
O131	O13	0.750970	0.147840	0.643420
O141	O14	0.136840	0.761850	0.029870
O151	O15	0.070700	0.679180	0.284420
O161	O16	0.898810	0.143420	0.852160
O171	O17	0.465700	0.179180	0.784420
O181	O18	0.178820	0.121580	0.663980
O191	O19	0.957770	0.647840	0.143420
O201	O20	0.535620	0.621580	0.163980
O211	O21	0.166710	0.970130	0.261850
O221	O22	0.863160	0.238150	0.970130
O231	O23	0.464380	0.378420	0.836020
O241	O24	0.749880	0.784420	0.320820
O251	O25	0.534300	0.820820	0.215580
O261	O26	0.821180	0.878420	0.336020
O271	O27	0.249030	0.852160	0.356580
O281	O28	0.605610	0.643420	0.352160
O291	O29	0.428560	0.738150	0.470130
O301	O30	0.571440	0.261850	0.529870
O311	O31	0.898690	0.529870	0.238150
O321	O32	0.699600	0.836020	0.121580
