data_WOWGEU02_clean_PM
_symmetry_space_group_name_H-M	'P1'
_cell_length_a	4.975500
_cell_length_b	11.989700
_cell_length_c	8.180500
_cell_angle_alpha	90.000000
_cell_angle_beta	92.416000
_cell_angle_gamma	90.000000
_symmetry_Int_Tables_number 1

loop_
_symmetry_equiv_pos_as_xyz
'x,y,z'

loop_
_atom_site_label
_atom_site_type_symbol
_atom_site_fract_x
_atom_site_fract_y
_atom_site_fract_z
P11	P1	0.008800	0.485000	0.233000
O11	O1	0.720600	0.520600	0.191300
O21	O2	0.041000	0.356600	0.233700
O31	O3	0.206500	0.545100	0.122200
C11	C1	0.089000	0.533200	0.442800
F11	F1	0.546000	0.851600	0.951300
P21	P2	0.991200	0.985000	0.767000
O41	O4	0.279400	0.020600	0.808700
O51	O5	0.959000	0.856600	0.766300
O61	O6	0.793500	0.045100	0.877800
C21	C2	0.911000	0.033200	0.557200
F21	F2	0.454000	0.351600	0.048700
P31	P3	0.991200	0.515000	0.767000
O71	O7	0.279400	0.479400	0.808700
O81	O8	0.959000	0.643400	0.766300
O91	O9	0.793500	0.454900	0.877800
C31	C3	0.911000	0.466800	0.557200
F31	F3	0.454000	0.148400	0.048700
P41	P4	0.008800	0.015000	0.233000
O101	O10	0.720600	0.979400	0.191300
O111	O11	0.041000	0.143400	0.233700
O121	O12	0.206500	0.954900	0.122200
C41	C4	0.089000	0.966800	0.442800
F41	F4	0.546000	0.648400	0.951300
Al11	Al1	0.753200	0.750000	0.856200
Al21	Al2	0.246800	0.250000	0.143800
Al31	Al3	0.500000	0.500000	0.000000
Al41	Al4	0.500000	0.000000	0.000000
