data_WOWHAR_clean_PM
_symmetry_space_group_name_H-M	'P1'
_cell_length_a	12.461600
_cell_length_b	13.970300
_cell_length_c	13.970300
_cell_angle_alpha	78.526200
_cell_angle_beta	63.512400
_cell_angle_gamma	63.512400
_symmetry_Int_Tables_number 1

loop_
_symmetry_equiv_pos_as_xyz
'x,y,z'

loop_
_atom_site_label
_atom_site_type_symbol
_atom_site_fract_x
_atom_site_fract_y
_atom_site_fract_z
V11	V1	0.247760	0.502310	0.791790
V21	V2	0.026430	0.796520	0.498860
V31	V3	0.378590	0.376450	0.566250
V41	V4	0.541860	0.497690	0.208210
V51	V5	0.321810	0.203480	0.501140
V61	V6	0.321290	0.623550	0.433750
V71	V7	0.039550	0.208210	0.502310
V81	V8	0.525290	0.501140	0.796520
V91	V9	0.944840	0.433750	0.376450
V101	V10	0.750070	0.791790	0.497690
V111	V11	0.822950	0.498860	0.203480
V121	V12	0.755040	0.566250	0.623550
Co11	Co1	0.021400	0.770180	0.767300
Co21	Co2	0.460330	0.998760	0.667400
Co31	Co3	0.558880	0.229820	0.232700
Co41	Co4	0.126490	0.001240	0.332600
Co51	Co5	0.788700	0.232700	0.770180
Co61	Co6	0.127730	0.332600	0.998760
Co71	Co7	0.791580	0.767300	0.229820
Co81	Co8	0.459090	0.667400	0.001240
H11	H1	0.340900	0.693300	0.676500
H21	H2	0.481400	0.784400	0.645600
H31	H3	0.177200	0.065100	0.713100
H41	H4	0.732800	0.556900	0.012300
H51	H5	0.931100	0.599800	0.916400
H61	H6	0.746700	0.834800	0.774000
H71	H7	0.710700	0.306700	0.323500
H81	H8	0.911400	0.215600	0.354400
H91	H9	0.955400	0.934900	0.286900
H101	H10	0.302000	0.443100	0.987700
H111	H11	0.447300	0.400200	0.083600
H121	H12	0.355500	0.165200	0.226000
H131	H13	0.017400	0.323500	0.693300
H141	H14	0.127000	0.354400	0.784400
H151	H15	0.890300	0.286900	0.065100
H161	H16	0.745100	0.987700	0.556900
H171	H17	0.847500	0.083600	0.599800
H181	H18	0.520700	0.226000	0.834800
H191	H19	0.034200	0.676500	0.306700
H201	H20	0.265800	0.645600	0.215600
H211	H21	0.242300	0.713100	0.934900
H221	H22	0.289700	0.012300	0.443100
H231	H23	0.530900	0.916400	0.400200
H241	H24	0.581500	0.774000	0.165200
C11	C1	0.305700	0.767700	0.685100
C21	C2	0.386400	0.817000	0.670200
C31	C3	0.209500	0.979900	0.706500
C41	C4	0.129300	0.929800	0.722800
C51	C5	0.982800	0.990300	0.756700
C61	C6	0.753200	0.612900	0.944700
C71	C7	0.861500	0.639000	0.899400
C81	C8	0.754600	0.780500	0.813700
C91	C9	0.648100	0.754700	0.858900
C101	C10	0.524200	0.817600	0.837800
C111	C11	0.758500	0.232300	0.314900
C121	C12	0.873600	0.183000	0.329800
C131	C13	0.895900	0.020100	0.293500
C141	C14	0.781900	0.070200	0.277200
C151	C15	0.729800	0.009700	0.243300
C161	C16	0.310800	0.387100	0.055300
C171	C17	0.399900	0.361000	0.100600
C181	C18	0.348800	0.219500	0.186300
C191	C19	0.261700	0.245300	0.141100
C201	C20	0.179600	0.182400	0.162200
C211	C21	0.990800	0.314900	0.767700
C221	C22	0.056600	0.329800	0.817000
C231	C23	0.916000	0.293500	0.979900
C241	C24	0.852100	0.277200	0.929800
C251	C25	0.739500	0.243300	0.990300
C261	C26	0.697900	0.055300	0.612900
C271	C27	0.760900	0.100600	0.639000
C281	C28	0.568300	0.186300	0.780500
C291	C29	0.507000	0.141100	0.754700
C301	C30	0.362000	0.162200	0.817600
C311	C31	0.073400	0.685100	0.232300
C321	C32	0.203400	0.670200	0.183000
C331	C33	0.189400	0.706500	0.020100
C341	C34	0.059100	0.722800	0.070200
C351	C35	0.973100	0.756700	0.009700
C361	C36	0.366100	0.944700	0.387100
C371	C37	0.500500	0.899400	0.361000
C381	C38	0.535100	0.813700	0.219500
C391	C39	0.402800	0.858900	0.245300
C401	C40	0.341800	0.837800	0.182400
N11	N1	0.177000	0.822300	0.711900
N21	N2	0.339100	0.923600	0.681000
N31	N3	0.646800	0.670900	0.925100
N41	N4	0.861700	0.724500	0.833700
N51	N5	0.711200	0.177700	0.288100
N61	N6	0.943700	0.076400	0.319000
N71	N7	0.242800	0.329100	0.074900
N81	N8	0.419900	0.275500	0.166300
N91	N9	0.888900	0.288100	0.822300
N101	N10	0.020100	0.319000	0.923600
N111	N11	0.571900	0.074900	0.670900
N121	N12	0.695400	0.166300	0.724500
N131	N13	0.999300	0.711900	0.177700
N141	N14	0.262700	0.681000	0.076400
N151	N15	0.317700	0.925100	0.329100
N161	N16	0.586200	0.833700	0.275500
O11	O1	0.916000	0.936300	0.781900
O21	O2	0.944500	0.089500	0.755300
O31	O3	0.431500	0.789700	0.888300
O41	O4	0.531400	0.890000	0.770000
O51	O5	0.159000	0.609100	0.742700
O61	O6	0.616400	0.902400	0.536000
O71	O7	0.340200	0.392600	0.700000
O81	O8	0.363900	0.526700	0.813500
O91	O9	0.407400	0.102100	0.554500
O101	O10	0.998400	0.787200	0.626200
O111	O11	0.165000	0.674000	0.434200
O121	O12	0.634200	0.063700	0.218100
O131	O13	0.789300	0.910500	0.244700
O141	O14	0.109500	0.210300	0.111700
O151	O15	0.191400	0.110000	0.230000
O161	O16	0.510800	0.390900	0.257300
O171	O17	0.054800	0.097600	0.464000
O181	O18	0.432800	0.607400	0.300000
O191	O19	0.704100	0.473300	0.186500
O201	O20	0.064000	0.897900	0.445500
O211	O21	0.411800	0.212800	0.373800
O221	O22	0.273200	0.326000	0.565800
O231	O23	0.697900	0.218100	0.936300
O241	O24	0.699800	0.244700	0.089500
O251	O25	0.319800	0.111700	0.789700
O261	O26	0.301400	0.230000	0.890000
O271	O27	0.901700	0.257300	0.609100
O281	O28	0.152400	0.464000	0.902400
O291	O29	0.040200	0.300000	0.392600
O301	O30	0.177400	0.186500	0.526700
O311	O31	0.961900	0.445500	0.102100
O321	O32	0.624600	0.373800	0.787200
O331	O33	0.599200	0.565800	0.674000
O341	O34	0.852300	0.781900	0.063700
O351	O35	0.034000	0.755300	0.910500
O361	O36	0.221200	0.888300	0.210300
O371	O37	0.421400	0.770000	0.110000
O381	O38	0.768100	0.742700	0.390900
O391	O39	0.518800	0.536000	0.097600
O401	O40	0.732800	0.700000	0.607400
O411	O41	0.890600	0.813500	0.473300
O421	O42	0.509500	0.554500	0.897900
O431	O43	0.785600	0.626200	0.212800
O441	O44	0.839000	0.434200	0.326000
O451	O45	0.361700	0.500000	0.500000
O461	O46	0.861700	0.500000	0.500000
