data_WOWHEV_clean_PM
_symmetry_space_group_name_H-M	'P1'
_cell_length_a	12.267900
_cell_length_b	13.919900
_cell_length_c	13.919900
_cell_angle_alpha	78.803200
_cell_angle_beta	63.854100
_cell_angle_gamma	63.854100
_symmetry_Int_Tables_number 1

loop_
_symmetry_equiv_pos_as_xyz
'x,y,z'

loop_
_atom_site_label
_atom_site_type_symbol
_atom_site_fract_x
_atom_site_fract_y
_atom_site_fract_z
V11	V1	0.662590	0.503530	0.206910
V21	V2	0.087280	0.499040	0.797660
V31	V3	0.653540	0.377360	0.433560
V41	V4	0.373030	0.496470	0.793090
V51	V5	0.383980	0.500960	0.202340
V61	V6	0.464460	0.622640	0.566440
V71	V7	0.869500	0.793090	0.503530
V81	V8	0.884940	0.202340	0.499040
V91	V9	0.087100	0.566440	0.377360
V101	V10	0.166120	0.206910	0.496470
V111	V11	0.586320	0.797660	0.500960
V121	V12	0.030900	0.433560	0.622640
Ni11	Ni1	0.954330	0.332430	0.002270
Ni21	Ni2	0.626620	0.228770	0.768670
Ni31	Ni3	0.289030	0.667570	0.997730
Ni41	Ni4	0.624060	0.771230	0.231330
Ni51	Ni5	0.956600	0.997730	0.332430
Ni61	Ni6	0.395290	0.231330	0.228770
Ni71	Ni7	0.286760	0.002270	0.667570
Ni81	Ni8	0.855390	0.768670	0.771230
H11	H1	0.667100	0.444800	0.990600
H21	H2	0.565200	0.399500	0.914100
H31	H3	0.897400	0.160100	0.768300
H41	H4	0.075700	0.320000	0.307200
H51	H5	0.938900	0.348000	0.223400
H61	H6	0.239900	0.286600	0.945800
H71	H7	0.102500	0.555200	0.009400
H81	H8	0.878800	0.600500	0.085900
H91	H9	0.825800	0.839900	0.231700
H101	H10	0.702900	0.680000	0.692800
H111	H11	0.510300	0.652000	0.776600
H121	H12	0.472300	0.713400	0.054200
H131	H13	0.657700	0.009400	0.444800
H141	H14	0.479300	0.085900	0.399500
H151	H15	0.665700	0.231700	0.160100
H161	H16	0.382900	0.692800	0.320000
H171	H17	0.162300	0.776600	0.348000
H181	H18	0.185700	0.054200	0.286600
H191	H19	0.111900	0.990600	0.555200
H201	H20	0.964700	0.914100	0.600500
H211	H21	0.057500	0.768300	0.839900
H221	H22	0.395700	0.307200	0.680000
H231	H23	0.286900	0.223400	0.652000
H241	H24	0.526500	0.945800	0.713400
C11	C1	0.715200	0.385000	0.946400
C21	C2	0.654300	0.358000	0.899800
C31	C3	0.847500	0.218100	0.814900
C41	C4	0.906900	0.245300	0.861900
C51	C5	0.054100	0.182800	0.840600
C61	C6	0.111200	0.312700	0.233300
C71	C7	0.029100	0.329300	0.182300
C81	C8	0.204800	0.293000	0.019800
C91	C9	0.289700	0.274900	0.070100
C101	C10	0.434200	0.241200	0.011400
C111	C11	0.046600	0.615000	0.053600
C121	C12	0.912100	0.642000	0.100200
C131	C13	0.880500	0.781900	0.185100
C141	C14	0.014100	0.754700	0.138100
C151	C15	0.077500	0.817200	0.159400
C161	C16	0.657200	0.687300	0.766700
C171	C17	0.540700	0.670700	0.817700
C181	C18	0.517600	0.707000	0.980200
C191	C19	0.634700	0.725100	0.929900
C201	C20	0.686800	0.758800	0.988600
C211	C21	0.661600	0.053600	0.385000
C221	C22	0.554100	0.100200	0.358000
C231	C23	0.662400	0.185100	0.218100
C241	C24	0.768800	0.138100	0.245300
C251	C25	0.894700	0.159400	0.182800
C261	C26	0.344500	0.766700	0.312700
C271	C27	0.211400	0.817700	0.329300
C281	C28	0.224600	0.980200	0.293000
C291	C29	0.359800	0.929900	0.274900
C301	C30	0.445600	0.988600	0.241200
C311	C31	0.100200	0.946400	0.615000
C321	C32	0.012300	0.899800	0.642000
C331	C33	0.065600	0.814900	0.781900
C341	C34	0.152200	0.861900	0.754700
C351	C35	0.236900	0.840600	0.817200
C361	C36	0.423900	0.233300	0.687300
C371	C37	0.358400	0.182300	0.670700
C381	C38	0.497800	0.019800	0.707000
C391	C39	0.564600	0.070100	0.725100
C401	C40	0.675400	0.011400	0.758800
N11	N1	0.844000	0.325900	0.928700
N21	N2	0.719800	0.273000	0.834200
N31	N3	0.239800	0.286600	0.176800
N41	N4	0.074900	0.319200	0.076000
N51	N5	0.098600	0.674100	0.071300
N61	N6	0.827000	0.727000	0.165800
N71	N7	0.703200	0.713400	0.823200
N81	N8	0.470100	0.680800	0.924000
N91	N9	0.772700	0.071300	0.325900
N101	N10	0.554000	0.165800	0.273000
N111	N11	0.416600	0.823200	0.286600
N121	N12	0.150900	0.924000	0.319200
N131	N13	0.169900	0.928700	0.674100
N141	N14	0.992800	0.834200	0.727000
N151	N15	0.526400	0.176800	0.713400
N161	N16	0.394100	0.076000	0.680800
O11	O1	0.097800	0.211500	0.891700
O21	O2	0.116400	0.109500	0.772900
O31	O3	0.504500	0.215700	0.064700
O41	O4	0.472200	0.242300	0.911300
O51	O5	0.798000	0.461300	0.098500
O61	O6	0.511500	0.388000	0.745600
O71	O7	0.675400	0.396600	0.300400
O81	O8	0.521700	0.528900	0.183300
O91	O9	0.999200	0.448100	0.899700
O101	O10	0.783100	0.214800	0.626600
O111	O11	0.136300	0.432400	0.676600
O121	O12	0.201000	0.788500	0.108300
O131	O13	0.998800	0.890500	0.227100
O141	O14	0.784900	0.784300	0.935300
O151	O15	0.625800	0.757700	0.088700
O161	O16	0.357800	0.538700	0.901500
O171	O17	0.645100	0.612000	0.254400
O181	O18	0.372400	0.603400	0.699600
O191	O19	0.233900	0.471100	0.816700
O201	O20	0.347000	0.551900	0.100300
O211	O21	0.624500	0.785200	0.373400
O221	O22	0.245300	0.567600	0.323400
O231	O23	0.989500	0.108300	0.211500
O241	O24	0.889300	0.227100	0.109500
O251	O25	0.569200	0.935300	0.215700
O261	O26	0.383500	0.088700	0.242300
O271	O27	0.896500	0.901500	0.461300
O281	O28	0.257100	0.254400	0.388000
O291	O29	0.975800	0.699600	0.396600
O301	O30	0.705000	0.816700	0.528900
O311	O31	0.898900	0.100300	0.448100
O321	O32	0.409700	0.373400	0.214800
O331	O33	0.812900	0.323400	0.432400
O341	O34	0.309300	0.891700	0.788500
O351	O35	0.225900	0.772900	0.890500
O361	O36	0.720200	0.064700	0.784300
O371	O37	0.714500	0.911300	0.757700
O381	O38	0.259300	0.098500	0.538700
O391	O39	0.899500	0.745600	0.612000
O401	O40	0.072000	0.300400	0.603400
O411	O41	0.050600	0.183300	0.471100
O421	O42	0.447300	0.899700	0.551900
O431	O43	0.997900	0.626600	0.785200
O441	O44	0.568700	0.676600	0.567600
O451	O45	0.549600	0.500000	0.500000
O461	O46	0.049600	0.500000	0.500000
