data_WOWMAY_clean_PM
_symmetry_space_group_name_H-M	'P1'
_cell_length_a	10.814000
_cell_length_b	11.523000
_cell_length_c	12.615900
_cell_angle_alpha	110.517000
_cell_angle_beta	115.378000
_cell_angle_gamma	90.000000
_symmetry_Int_Tables_number 1

loop_
_symmetry_equiv_pos_as_xyz
'x,y,z'

loop_
_atom_site_label
_atom_site_type_symbol
_atom_site_fract_x
_atom_site_fract_y
_atom_site_fract_z
Ni11	Ni1	0.902940	0.062730	0.643440
Ni21	Ni2	0.740500	0.562730	0.643440
Ni31	Ni3	0.259500	0.437270	0.356560
Ni41	Ni4	0.097060	0.937270	0.356560
H11	H1	0.596800	0.785700	0.210200
H21	H2	0.960700	0.674600	0.135200
H31	H3	0.268900	0.188300	0.431400
H41	H4	0.213300	0.432500	0.575600
H51	H5	0.362300	0.932500	0.575600
H61	H6	0.381500	0.912600	0.933000
H71	H7	0.731800	0.967600	0.973000
H81	H8	0.825500	0.825400	0.864800
H91	H9	0.618500	0.087400	0.067000
H101	H10	0.837500	0.311700	0.568600
H111	H11	0.804400	0.917500	0.318000
H121	H12	0.637700	0.067500	0.424400
H131	H13	0.162500	0.688300	0.431400
H141	H14	0.414000	0.959500	0.288600
H151	H15	0.403200	0.214300	0.789800
H161	H16	0.125400	0.540500	0.711400
H171	H17	0.386600	0.714300	0.789800
H181	H18	0.551500	0.412600	0.933000
H191	H19	0.786700	0.567500	0.424400
H201	H20	0.513600	0.417500	0.318000
H211	H21	0.874600	0.459500	0.288600
H221	H22	0.174500	0.174600	0.135200
H231	H23	0.268200	0.032400	0.027000
H241	H24	0.758800	0.532400	0.027000
H251	H25	0.586000	0.040500	0.711400
H261	H26	0.613400	0.285700	0.210200
H271	H27	0.448500	0.587400	0.067000
H281	H28	0.731100	0.811700	0.568600
H291	H29	0.241200	0.467600	0.973000
H301	H30	0.195600	0.082500	0.682000
H311	H31	0.039300	0.325400	0.864800
H321	H32	0.486400	0.582500	0.682000
C11	C1	0.846860	0.342210	0.512720
C21	C2	0.321020	0.111200	0.085640
C31	C3	0.020670	0.750660	0.736420
C41	C4	0.473040	0.943000	0.956720
C51	C5	0.235380	0.388800	0.914360
C61	C6	0.183120	0.507340	0.572180
C71	C7	0.348910	0.358400	0.893580
C81	C8	0.500380	0.648690	0.442940
C91	C9	0.979330	0.249340	0.263580
C101	C10	0.523410	0.259000	0.193480
C111	C11	0.665860	0.842210	0.512720
C121	C12	0.651090	0.641600	0.106420
C131	C13	0.329930	0.241000	0.806520
C141	C14	0.265380	0.197510	0.151820
C151	C15	0.467940	0.228590	0.565900
C161	C16	0.532060	0.771410	0.434100
C171	C17	0.544670	0.858400	0.893580
C181	C18	0.389060	0.007340	0.572180
C191	C19	0.902040	0.271410	0.434100
C201	C20	0.715750	0.250660	0.736420
C211	C21	0.153140	0.657790	0.487280
C221	C22	0.476590	0.741000	0.806520
C231	C23	0.097960	0.728590	0.565900
C241	C24	0.499620	0.351310	0.557060
C251	C25	0.284250	0.749340	0.263580
C261	C26	0.942560	0.148690	0.442940
C271	C27	0.129920	0.571650	0.654120
C281	C28	0.526960	0.057000	0.043280
C291	C29	0.870080	0.428350	0.345880
C301	C30	0.795560	0.839000	0.257320
C311	C31	0.678980	0.888800	0.914360
C321	C32	0.433430	0.816450	0.350080
C331	C33	0.113560	0.302490	0.848180
C341	C34	0.916650	0.316450	0.350080
C351	C35	0.566570	0.183550	0.649920
C361	C36	0.764620	0.611200	0.085640
C371	C37	0.334140	0.157790	0.487280
C381	C38	0.461760	0.339000	0.257320
C391	C39	0.204440	0.161000	0.742680
C401	C40	0.524200	0.071650	0.654120
C411	C41	0.475800	0.928350	0.345880
C421	C42	0.816880	0.492660	0.427820
C431	C43	0.483680	0.443000	0.956720
C441	C44	0.455330	0.141600	0.106420
C451	C45	0.734620	0.802490	0.848180
C461	C46	0.516320	0.557000	0.043280
C471	C47	0.057440	0.851310	0.557060
C481	C48	0.886440	0.697510	0.151820
C491	C49	0.083350	0.683550	0.649920
C501	C50	0.538240	0.661000	0.742680
C511	C51	0.610940	0.992660	0.427820
C521	C52	0.670070	0.759000	0.193480
N11	N1	0.705000	0.951850	0.511820
N21	N2	0.095710	0.188370	0.761880
N31	N3	0.333830	0.311630	0.238120
N41	N4	0.904290	0.811630	0.238120
N51	N5	0.193180	0.548150	0.488180
N61	N6	0.806820	0.451850	0.511820
N71	N7	0.666170	0.688370	0.761880
N81	N8	0.295000	0.048150	0.488180
O11	O1	0.374730	0.599280	0.389980
O21	O2	0.895230	0.712910	0.699940
O31	O3	0.397720	0.395790	0.502440
O41	O4	0.984750	0.900720	0.610020
O51	O5	0.015250	0.099280	0.389980
O61	O6	0.602280	0.604210	0.497560
O71	O7	0.740470	0.336830	0.840200
O81	O8	0.625270	0.400720	0.610020
O91	O9	0.099730	0.836830	0.840200
O101	O10	0.195290	0.787090	0.300060
O111	O11	0.259530	0.663170	0.159800
O121	O12	0.104720	0.895790	0.502440
O131	O13	0.895280	0.104210	0.497560
O141	O14	0.104770	0.287090	0.300060
O151	O15	0.804710	0.212910	0.699940
O161	O16	0.900270	0.163170	0.159800
