data_WOWMEC_clean_PM
_symmetry_space_group_name_H-M	'P1'
_cell_length_a	11.046000
_cell_length_b	11.104600
_cell_length_c	11.104600
_cell_angle_alpha	106.766000
_cell_angle_beta	117.981000
_cell_angle_gamma	62.018900
_symmetry_Int_Tables_number 1

loop_
_symmetry_equiv_pos_as_xyz
'x,y,z'

loop_
_atom_site_label
_atom_site_type_symbol
_atom_site_fract_x
_atom_site_fract_y
_atom_site_fract_z
Ni11	Ni1	0.551480	0.796970	0.655510
Ni21	Ni2	0.948520	0.655510	0.796970
Ni31	Ni3	0.051480	0.344490	0.203030
Ni41	Ni4	0.448520	0.203030	0.344490
H11	H1	0.598800	0.400800	0.492600
H21	H2	0.280900	0.967000	0.426400
H31	H3	0.098800	0.507400	0.599200
H41	H4	0.087700	0.945300	0.226300
H51	H5	0.231000	0.190000	0.104600
H61	H6	0.769000	0.810000	0.895400
H71	H7	0.269000	0.104600	0.190000
H81	H8	0.780900	0.573600	0.033000
H91	H9	0.412300	0.226300	0.945300
H101	H10	0.719100	0.033000	0.573600
H111	H11	0.219100	0.426400	0.967000
H121	H12	0.731000	0.895400	0.810000
H131	H13	0.912300	0.054700	0.773700
H141	H14	0.587700	0.773700	0.054700
H151	H15	0.401200	0.599200	0.507400
H161	H16	0.901200	0.492600	0.400800
C11	C1	0.232690	0.642570	0.323690
C21	C2	0.847510	0.127890	0.719710
C31	C3	0.347510	0.280290	0.872110
C41	C4	0.015810	0.736010	0.098430
C51	C5	0.160430	0.448020	0.668180
C61	C6	0.732690	0.676310	0.357430
C71	C7	0.733500	0.712470	0.499690
C81	C8	0.267090	0.885630	0.402370
C91	C9	0.634420	0.761560	0.251340
C101	C10	0.233500	0.500310	0.287530
C111	C11	0.266500	0.287530	0.500310
C121	C12	0.134420	0.748660	0.238440
C131	C13	0.766500	0.499690	0.712470
C141	C14	0.767090	0.597630	0.114370
C151	C15	0.732910	0.114370	0.597630
C161	C16	0.515810	0.901570	0.263990
C171	C17	0.865580	0.251340	0.761560
C181	C18	0.267310	0.323690	0.642570
C191	C19	0.152490	0.872110	0.280290
C201	C20	0.839570	0.551980	0.331820
C211	C21	0.652490	0.719710	0.127890
C221	C22	0.365580	0.238440	0.748660
C231	C23	0.232910	0.402370	0.885630
C241	C24	0.484190	0.098430	0.736010
C251	C25	0.660430	0.331820	0.551980
C261	C26	0.339570	0.668180	0.448020
C271	C27	0.984190	0.263990	0.901570
C281	C28	0.767310	0.357430	0.676310
N11	N1	0.359030	0.785830	0.487410
N21	N2	0.640970	0.214170	0.512590
N31	N3	0.859030	0.512590	0.214170
N41	N4	0.140970	0.487410	0.785830
O11	O1	0.063700	0.673530	0.005130
O21	O2	0.117590	0.204180	0.916460
O31	O3	0.354040	0.409210	0.353090
O41	O4	0.382600	0.197680	0.485980
O51	O5	0.617590	0.083540	0.795820
O61	O6	0.145960	0.353090	0.409210
O71	O7	0.936300	0.326470	0.994870
O81	O8	0.436300	0.005130	0.673530
O91	O9	0.382410	0.916460	0.204180
O101	O10	0.250000	0.184980	0.184980
O111	O11	0.617400	0.802320	0.514020
O121	O12	0.854040	0.646910	0.590790
O131	O13	0.645960	0.590790	0.646910
O141	O14	0.882600	0.514020	0.802320
O151	O15	0.882410	0.795820	0.083540
O161	O16	0.750000	0.815020	0.815020
O171	O17	0.117400	0.485980	0.197680
O181	O18	0.563700	0.994870	0.326470
