data_WOXRIK_clean_PM
_symmetry_space_group_name_H-M	'P1'
_cell_length_a	16.654900
_cell_length_b	6.337800
_cell_length_c	22.208000
_cell_angle_alpha	90.000000
_cell_angle_beta	94.862000
_cell_angle_gamma	90.000000
_symmetry_Int_Tables_number 1

loop_
_symmetry_equiv_pos_as_xyz
'x,y,z'

loop_
_atom_site_label
_atom_site_type_symbol
_atom_site_fract_x
_atom_site_fract_y
_atom_site_fract_z
Ti11	Ti1	0.282700	0.007000	0.575300
Ti21	Ti2	0.359500	0.997800	0.801100
P11	P1	0.230600	0.501600	0.569100
P21	P2	0.442400	0.927600	0.666900
P31	P3	0.195600	0.000700	0.706400
F11	F1	0.175900	0.015800	0.544600
O11	O1	0.287600	0.312100	0.577200
O21	O2	0.248500	0.998300	0.653800
O31	O3	0.282600	0.700200	0.572500
O41	O4	0.182100	0.489800	0.507200
O51	O5	0.394800	0.995400	0.608000
O61	O6	0.405000	0.006000	0.722700
O71	O7	0.440700	0.681800	0.663800
O81	O8	0.528800	0.006200	0.665000
O91	O9	0.139600	0.807800	0.703500
O101	O10	0.140400	0.195500	0.703000
O111	O11	0.171600	0.503300	0.618600
O121	O12	0.250100	0.001900	0.765600
Ti31	Ti3	0.782700	0.507000	0.575300
Ti41	Ti4	0.859500	0.497800	0.801100
P41	P4	0.730600	0.001600	0.569100
P51	P5	0.942400	0.427600	0.666900
P61	P6	0.695600	0.500700	0.706400
F21	F2	0.675900	0.515800	0.544600
O131	O13	0.787600	0.812100	0.577200
O141	O14	0.748500	0.498300	0.653800
O151	O15	0.782600	0.200200	0.572500
O161	O16	0.682100	0.989800	0.507200
O171	O17	0.894800	0.495400	0.608000
O181	O18	0.905000	0.506000	0.722700
O191	O19	0.940700	0.181800	0.663800
O201	O20	0.028800	0.506200	0.665000
O211	O21	0.639600	0.307800	0.703500
O221	O22	0.640400	0.695500	0.703000
O231	O23	0.671600	0.003300	0.618600
O241	O24	0.750100	0.501900	0.765600
Ti51	Ti5	0.717300	0.007000	0.924700
Ti61	Ti6	0.640500	0.997800	0.698900
P71	P7	0.769400	0.501600	0.930900
P81	P8	0.557600	0.927600	0.833100
P91	P9	0.804400	0.000700	0.793600
F31	F3	0.824100	0.015800	0.955400
O251	O25	0.712400	0.312100	0.922800
O261	O26	0.751500	0.998300	0.846200
O271	O27	0.717400	0.700200	0.927500
O281	O28	0.817900	0.489800	0.992800
O291	O29	0.605200	0.995400	0.892000
O301	O30	0.595000	0.006000	0.777300
O311	O31	0.559300	0.681800	0.836200
O321	O32	0.471200	0.006200	0.835000
O331	O33	0.860400	0.807800	0.796500
O341	O34	0.859600	0.195500	0.797000
O351	O35	0.828400	0.503300	0.881400
O361	O36	0.749900	0.001900	0.734400
Ti71	Ti7	0.217300	0.507000	0.924700
Ti81	Ti8	0.140500	0.497800	0.698900
P101	P10	0.269400	0.001600	0.930900
P111	P11	0.057600	0.427600	0.833100
P121	P12	0.304400	0.500700	0.793600
F41	F4	0.324100	0.515800	0.955400
O371	O37	0.212400	0.812100	0.922800
O381	O38	0.251500	0.498300	0.846200
O391	O39	0.217400	0.200200	0.927500
O401	O40	0.317900	0.989800	0.992800
O411	O41	0.105200	0.495400	0.892000
O421	O42	0.095000	0.506000	0.777300
O431	O43	0.059300	0.181800	0.836200
O441	O44	0.971200	0.506200	0.835000
O451	O45	0.360400	0.307800	0.796500
O461	O46	0.359600	0.695500	0.797000
O471	O47	0.328400	0.003300	0.881400
O481	O48	0.249900	0.501900	0.734400
Ti91	Ti9	0.717300	0.993000	0.424700
Ti101	Ti10	0.640500	0.002200	0.198900
P131	P13	0.769400	0.498400	0.430900
P141	P14	0.557600	0.072400	0.333100
P151	P15	0.804400	0.999300	0.293600
F51	F5	0.824100	0.984200	0.455400
O491	O49	0.712400	0.687900	0.422800
O501	O50	0.751500	0.001700	0.346200
O511	O51	0.717400	0.299800	0.427500
O521	O52	0.817900	0.510200	0.492800
O531	O53	0.605200	0.004600	0.392000
O541	O54	0.595000	0.994000	0.277300
O551	O55	0.559300	0.318200	0.336200
O561	O56	0.471200	0.993800	0.335000
O571	O57	0.860400	0.192200	0.296500
O581	O58	0.859600	0.804500	0.297000
O591	O59	0.828400	0.496700	0.381400
O601	O60	0.749900	0.998100	0.234400
Ti111	Ti11	0.217300	0.493000	0.424700
Ti121	Ti12	0.140500	0.502200	0.198900
P161	P16	0.269400	0.998400	0.430900
P171	P17	0.057600	0.572400	0.333100
P181	P18	0.304400	0.499300	0.293600
F61	F6	0.324100	0.484200	0.455400
O611	O61	0.212400	0.187900	0.422800
O621	O62	0.251500	0.501700	0.346200
O631	O63	0.217400	0.799800	0.427500
O641	O64	0.317900	0.010200	0.492800
O651	O65	0.105200	0.504600	0.392000
O661	O66	0.095000	0.494000	0.277300
O671	O67	0.059300	0.818200	0.336200
O681	O68	0.971200	0.493800	0.335000
O691	O69	0.360400	0.692200	0.296500
O701	O70	0.359600	0.304500	0.297000
O711	O71	0.328400	0.996700	0.381400
O721	O72	0.249900	0.498100	0.234400
Ti131	Ti13	0.282700	0.993000	0.075300
Ti141	Ti14	0.359500	0.002200	0.301100
P191	P19	0.230600	0.498400	0.069100
P201	P20	0.442400	0.072400	0.166900
P211	P21	0.195600	0.999300	0.206400
F71	F7	0.175900	0.984200	0.044600
O731	O73	0.287600	0.687900	0.077200
O741	O74	0.248500	0.001700	0.153800
O751	O75	0.282600	0.299800	0.072500
O761	O76	0.182100	0.510200	0.007200
O771	O77	0.394800	0.004600	0.108000
O781	O78	0.405000	0.994000	0.222700
O791	O79	0.440700	0.318200	0.163800
O801	O80	0.528800	0.993800	0.165000
O811	O81	0.139600	0.192200	0.203500
O821	O82	0.140400	0.804500	0.203000
O831	O83	0.171600	0.496700	0.118600
O841	O84	0.250100	0.998100	0.265600
Ti151	Ti15	0.782700	0.493000	0.075300
Ti161	Ti16	0.859500	0.502200	0.301100
P221	P22	0.730600	0.998400	0.069100
P231	P23	0.942400	0.572400	0.166900
P241	P24	0.695600	0.499300	0.206400
F81	F8	0.675900	0.484200	0.044600
O851	O85	0.787600	0.187900	0.077200
O861	O86	0.748500	0.501700	0.153800
O871	O87	0.782600	0.799800	0.072500
O881	O88	0.682100	0.010200	0.007200
O891	O89	0.894800	0.504600	0.108000
O901	O90	0.905000	0.494000	0.222700
O911	O91	0.940700	0.818200	0.163800
O921	O92	0.028800	0.493800	0.165000
O931	O93	0.639600	0.692200	0.203500
O941	O94	0.640400	0.304500	0.203000
O951	O95	0.671600	0.996700	0.118600
O961	O96	0.750100	0.498100	0.265600
