data_WOYHUP_clean_PM
_symmetry_space_group_name_H-M	'P1'
_cell_length_a	17.734900
_cell_length_b	17.734900
_cell_length_c	28.173200
_cell_angle_alpha	90.000000
_cell_angle_beta	90.000000
_cell_angle_gamma	90.000000
_symmetry_Int_Tables_number 1

loop_
_symmetry_equiv_pos_as_xyz
'x,y,z'

loop_
_atom_site_label
_atom_site_type_symbol
_atom_site_fract_x
_atom_site_fract_y
_atom_site_fract_z
C11	C1	0.463600	0.185100	0.079810
C21	C2	0.414800	0.186200	0.118090
H11	H1	0.387600	0.141800	0.126000
C31	C3	0.444500	0.316000	0.133240
H21	H2	0.438300	0.360900	0.151200
C41	C4	0.491800	0.313800	0.095610
C51	C5	0.502300	0.250000	0.068500
H31	H3	0.536000	0.250800	0.042300
C61	C6	0.535500	0.412400	0.039200
H41	H4	0.503900	0.399300	0.013300
C71	C7	0.350300	0.250800	0.185470
C81	C8	0.474700	0.115600	0.050550
C91	C9	0.404800	0.250300	0.145100
N11	N1	0.534800	0.380600	0.082870
O11	O1	0.512000	0.122380	0.013540
O21	O2	0.444960	0.055940	0.066260
O31	O3	0.317360	0.189750	0.194270
O41	O4	0.339250	0.312380	0.206670
C101	C10	0.036400	0.314900	0.079810
C111	C11	0.085200	0.313800	0.118090
H51	H5	0.112400	0.358200	0.126000
C121	C12	0.055500	0.184000	0.133240
H61	H6	0.061700	0.139100	0.151200
C131	C13	0.008200	0.186200	0.095610
C141	C14	0.997700	0.250000	0.068500
H71	H7	0.964000	0.249200	0.042300
C151	C15	0.964500	0.087600	0.039200
H81	H8	0.996100	0.100700	0.013300
C161	C16	0.149700	0.249200	0.185470
C171	C17	0.025300	0.384400	0.050550
C181	C18	0.095200	0.249700	0.145100
N21	N2	0.965200	0.119400	0.082870
O51	O5	0.988000	0.377620	0.013540
O61	O6	0.055040	0.444060	0.066260
O71	O7	0.182640	0.310250	0.194270
O81	O8	0.160750	0.187620	0.206670
C191	C19	0.314900	0.463600	0.579810
C201	C20	0.313800	0.414800	0.618090
H91	H9	0.358200	0.387600	0.626000
C211	C21	0.184000	0.444500	0.633240
H101	H10	0.139100	0.438300	0.651200
C221	C22	0.186200	0.491800	0.595610
C231	C23	0.250000	0.502300	0.568500
H111	H11	0.249200	0.536000	0.542300
C241	C24	0.087600	0.535500	0.539200
H121	H12	0.100700	0.503900	0.513300
C251	C25	0.249200	0.350300	0.685470
C261	C26	0.384400	0.474700	0.550550
C271	C27	0.249700	0.404800	0.645100
N31	N3	0.119400	0.534800	0.582870
O91	O9	0.377620	0.512000	0.513540
O101	O10	0.444060	0.444960	0.566260
O111	O11	0.310250	0.317360	0.694270
O121	O12	0.187620	0.339250	0.706670
C281	C28	0.185100	0.036400	0.579810
C291	C29	0.186200	0.085200	0.618090
H131	H13	0.141800	0.112400	0.626000
C301	C30	0.316000	0.055500	0.633240
H141	H14	0.360900	0.061700	0.651200
C311	C31	0.313800	0.008200	0.595610
C321	C32	0.250000	0.997700	0.568500
H151	H15	0.250800	0.964000	0.542300
C331	C33	0.412400	0.964500	0.539200
H161	H16	0.399300	0.996100	0.513300
C341	C34	0.250800	0.149700	0.685470
C351	C35	0.115600	0.025300	0.550550
C361	C36	0.250300	0.095200	0.645100
N41	N4	0.380600	0.965200	0.582870
O131	O13	0.122380	0.988000	0.513540
O141	O14	0.055940	0.055040	0.566260
O151	O15	0.189750	0.182640	0.694270
O161	O16	0.312380	0.160750	0.706670
C371	C37	0.036400	0.185100	0.420190
C381	C38	0.085200	0.186200	0.381910
H171	H17	0.112400	0.141800	0.374000
C391	C39	0.055500	0.316000	0.366760
H181	H18	0.061700	0.360900	0.348800
C401	C40	0.008200	0.313800	0.404390
C411	C41	0.997700	0.250000	0.431500
H191	H19	0.964000	0.250800	0.457700
C421	C42	0.964500	0.412400	0.460800
H201	H20	0.996100	0.399300	0.486700
C431	C43	0.149700	0.250800	0.314530
C441	C44	0.025300	0.115600	0.449450
C451	C45	0.095200	0.250300	0.354900
N51	N5	0.965200	0.380600	0.417130
O171	O17	0.988000	0.122380	0.486460
O181	O18	0.055040	0.055940	0.433740
O191	O19	0.182640	0.189750	0.305730
O201	O20	0.160750	0.312380	0.293330
C461	C46	0.463600	0.314900	0.420190
C471	C47	0.414800	0.313800	0.381910
H211	H21	0.387600	0.358200	0.374000
C481	C48	0.444500	0.184000	0.366760
H221	H22	0.438300	0.139100	0.348800
C491	C49	0.491800	0.186200	0.404390
C501	C50	0.502300	0.250000	0.431500
H231	H23	0.536000	0.249200	0.457700
C511	C51	0.535500	0.087600	0.460800
H241	H24	0.503900	0.100700	0.486700
C521	C52	0.350300	0.249200	0.314530
C531	C53	0.474700	0.384400	0.449450
C541	C54	0.404800	0.249700	0.354900
N61	N6	0.534800	0.119400	0.417130
O211	O21	0.512000	0.377620	0.486460
O221	O22	0.444960	0.444060	0.433740
O231	O23	0.317360	0.310250	0.305730
O241	O24	0.339250	0.187620	0.293330
C551	C55	0.185100	0.463600	0.920190
C561	C56	0.186200	0.414800	0.881910
H251	H25	0.141800	0.387600	0.874000
C571	C57	0.316000	0.444500	0.866760
H261	H26	0.360900	0.438300	0.848800
C581	C58	0.313800	0.491800	0.904390
C591	C59	0.250000	0.502300	0.931500
H271	H27	0.250800	0.536000	0.957700
C601	C60	0.412400	0.535500	0.960800
H281	H28	0.399300	0.503900	0.986700
C611	C61	0.250800	0.350300	0.814530
C621	C62	0.115600	0.474700	0.949450
C631	C63	0.250300	0.404800	0.854900
N71	N7	0.380600	0.534800	0.917130
O251	O25	0.122380	0.512000	0.986460
O261	O26	0.055940	0.444960	0.933740
O271	O27	0.189750	0.317360	0.805730
O281	O28	0.312380	0.339250	0.793330
C641	C64	0.314900	0.036400	0.920190
C651	C65	0.313800	0.085200	0.881910
H291	H29	0.358200	0.112400	0.874000
C661	C66	0.184000	0.055500	0.866760
H301	H30	0.139100	0.061700	0.848800
C671	C67	0.186200	0.008200	0.904390
C681	C68	0.250000	0.997700	0.931500
H311	H31	0.249200	0.964000	0.957700
C691	C69	0.087600	0.964500	0.960800
H321	H32	0.100700	0.996100	0.986700
C701	C70	0.249200	0.149700	0.814530
C711	C71	0.384400	0.025300	0.949450
C721	C72	0.249700	0.095200	0.854900
N81	N8	0.119400	0.965200	0.917130
O291	O29	0.377620	0.988000	0.986460
O301	O30	0.444060	0.055040	0.933740
O311	O31	0.310250	0.182640	0.805730
O321	O32	0.187620	0.160750	0.793330
C731	C73	0.536400	0.814900	0.920190
C741	C74	0.585200	0.813800	0.881910
H331	H33	0.612400	0.858200	0.874000
C751	C75	0.555500	0.684000	0.866760
H341	H34	0.561700	0.639100	0.848800
C761	C76	0.508200	0.686200	0.904390
C771	C77	0.497700	0.750000	0.931500
H351	H35	0.464000	0.749200	0.957700
C781	C78	0.464500	0.587600	0.960800
H361	H36	0.496100	0.600700	0.986700
C791	C79	0.649700	0.749200	0.814530
C801	C80	0.525300	0.884400	0.949450
C811	C81	0.595200	0.749700	0.854900
N91	N9	0.465200	0.619400	0.917130
O331	O33	0.488000	0.877620	0.986460
O341	O34	0.555040	0.944060	0.933740
O351	O35	0.682640	0.810250	0.805730
O361	O36	0.660750	0.687620	0.793330
C821	C82	0.963600	0.685100	0.920190
C831	C83	0.914800	0.686200	0.881910
H371	H37	0.887600	0.641800	0.874000
C841	C84	0.944500	0.816000	0.866760
H381	H38	0.938300	0.860900	0.848800
C851	C85	0.991800	0.813800	0.904390
C861	C86	0.002300	0.750000	0.931500
H391	H39	0.036000	0.750800	0.957700
C871	C87	0.035500	0.912400	0.960800
H401	H40	0.003900	0.899300	0.986700
C881	C88	0.850300	0.750800	0.814530
C891	C89	0.974700	0.615600	0.949450
C901	C90	0.904800	0.750300	0.854900
N101	N10	0.034800	0.880600	0.917130
O371	O37	0.012000	0.622380	0.986460
O381	O38	0.944960	0.555940	0.933740
O391	O39	0.817360	0.689750	0.805730
O401	O40	0.839250	0.812380	0.793330
C911	C91	0.685100	0.536400	0.420190
C921	C92	0.686200	0.585200	0.381910
H411	H41	0.641800	0.612400	0.374000
C931	C93	0.816000	0.555500	0.366760
H421	H42	0.860900	0.561700	0.348800
C941	C94	0.813800	0.508200	0.404390
C951	C95	0.750000	0.497700	0.431500
H431	H43	0.750800	0.464000	0.457700
C961	C96	0.912400	0.464500	0.460800
H441	H44	0.899300	0.496100	0.486700
C971	C97	0.750800	0.649700	0.314530
C981	C98	0.615600	0.525300	0.449450
C991	C99	0.750300	0.595200	0.354900
N111	N11	0.880600	0.465200	0.417130
O411	O41	0.622380	0.488000	0.486460
O421	O42	0.555940	0.555040	0.433740
O431	O43	0.689750	0.682640	0.305730
O441	O44	0.812380	0.660750	0.293330
C1001	C100	0.814900	0.963600	0.420190
C1011	C101	0.813800	0.914800	0.381910
H451	H45	0.858200	0.887600	0.374000
C1021	C102	0.684000	0.944500	0.366760
H461	H46	0.639100	0.938300	0.348800
C1031	C103	0.686200	0.991800	0.404390
C1041	C104	0.750000	0.002300	0.431500
H471	H47	0.749200	0.036000	0.457700
C1051	C105	0.587600	0.035500	0.460800
H481	H48	0.600700	0.003900	0.486700
C1061	C106	0.749200	0.850300	0.314530
C1071	C107	0.884400	0.974700	0.449450
C1081	C108	0.749700	0.904800	0.354900
N121	N12	0.619400	0.034800	0.417130
O451	O45	0.877620	0.012000	0.486460
O461	O46	0.944060	0.944960	0.433740
O471	O47	0.810250	0.817360	0.305730
O481	O48	0.687620	0.839250	0.293330
C1091	C109	0.963600	0.814900	0.579810
C1101	C110	0.914800	0.813800	0.618090
H491	H49	0.887600	0.858200	0.626000
C1111	C111	0.944500	0.684000	0.633240
H501	H50	0.938300	0.639100	0.651200
C1121	C112	0.991800	0.686200	0.595610
C1131	C113	0.002300	0.750000	0.568500
H511	H51	0.036000	0.749200	0.542300
C1141	C114	0.035500	0.587600	0.539200
H521	H52	0.003900	0.600700	0.513300
C1151	C115	0.850300	0.749200	0.685470
C1161	C116	0.974700	0.884400	0.550550
C1171	C117	0.904800	0.749700	0.645100
N131	N13	0.034800	0.619400	0.582870
O491	O49	0.012000	0.877620	0.513540
O501	O50	0.944960	0.944060	0.566260
O511	O51	0.817360	0.810250	0.694270
O521	O52	0.839250	0.687620	0.706670
C1181	C118	0.536400	0.685100	0.579810
C1191	C119	0.585200	0.686200	0.618090
H531	H53	0.612400	0.641800	0.626000
C1201	C120	0.555500	0.816000	0.633240
H541	H54	0.561700	0.860900	0.651200
C1211	C121	0.508200	0.813800	0.595610
C1221	C122	0.497700	0.750000	0.568500
H551	H55	0.464000	0.750800	0.542300
C1231	C123	0.464500	0.912400	0.539200
H561	H56	0.496100	0.899300	0.513300
C1241	C124	0.649700	0.750800	0.685470
C1251	C125	0.525300	0.615600	0.550550
C1261	C126	0.595200	0.750300	0.645100
N141	N14	0.465200	0.880600	0.582870
O531	O53	0.488000	0.622380	0.513540
O541	O54	0.555040	0.555940	0.566260
O551	O55	0.682640	0.689750	0.694270
O561	O56	0.660750	0.812380	0.706670
C1271	C127	0.814900	0.536400	0.079810
C1281	C128	0.813800	0.585200	0.118090
H571	H57	0.858200	0.612400	0.126000
C1291	C129	0.684000	0.555500	0.133240
H581	H58	0.639100	0.561700	0.151200
C1301	C130	0.686200	0.508200	0.095610
C1311	C131	0.750000	0.497700	0.068500
H591	H59	0.749200	0.464000	0.042300
C1321	C132	0.587600	0.464500	0.039200
H601	H60	0.600700	0.496100	0.013300
C1331	C133	0.749200	0.649700	0.185470
C1341	C134	0.884400	0.525300	0.050550
C1351	C135	0.749700	0.595200	0.145100
N151	N15	0.619400	0.465200	0.082870
O571	O57	0.877620	0.488000	0.013540
O581	O58	0.944060	0.555040	0.066260
O591	O59	0.810250	0.682640	0.194270
O601	O60	0.687620	0.660750	0.206670
C1361	C136	0.685100	0.963600	0.079810
C1371	C137	0.686200	0.914800	0.118090
H611	H61	0.641800	0.887600	0.126000
C1381	C138	0.816000	0.944500	0.133240
H621	H62	0.860900	0.938300	0.151200
C1391	C139	0.813800	0.991800	0.095610
C1401	C140	0.750000	0.002300	0.068500
H631	H63	0.750800	0.036000	0.042300
C1411	C141	0.912400	0.035500	0.039200
H641	H64	0.899300	0.003900	0.013300
C1421	C142	0.750800	0.850300	0.185470
C1431	C143	0.615600	0.974700	0.050550
C1441	C144	0.750300	0.904800	0.145100
N161	N16	0.880600	0.034800	0.082870
O611	O61	0.622380	0.012000	0.013540
O621	O62	0.555940	0.944960	0.066260
O631	O63	0.689750	0.817360	0.194270
O641	O64	0.812380	0.839250	0.206670
C1451	C145	0.591800	0.408200	0.103500
H651	H65	0.612000	0.388000	0.132000
C1461	C146	0.908200	0.091800	0.103500
H661	H66	0.888000	0.112000	0.132000
C1471	C147	0.091800	0.591800	0.603500
H671	H67	0.112000	0.612000	0.632000
C1481	C148	0.408200	0.908200	0.603500
H681	H68	0.388000	0.888000	0.632000
C1491	C149	0.908200	0.408200	0.396500
H691	H69	0.888000	0.388000	0.368000
C1501	C150	0.591800	0.091800	0.396500
H701	H70	0.612000	0.112000	0.368000
C1511	C151	0.408200	0.591800	0.896500
H711	H71	0.388000	0.612000	0.868000
C1521	C152	0.091800	0.908200	0.896500
H721	H72	0.112000	0.888000	0.868000
Zn11	Zn1	0.545540	0.045540	0.964970
Zn21	Zn2	0.954460	0.454460	0.964970
Zn31	Zn3	0.454460	0.545540	0.464970
Zn41	Zn4	0.045540	0.954460	0.464970
Zn51	Zn5	0.954460	0.045540	0.535030
Zn61	Zn6	0.545540	0.454460	0.535030
Zn71	Zn7	0.045540	0.545540	0.035030
Zn81	Zn8	0.454460	0.954460	0.035030
Zn91	Zn9	0.250000	0.165450	0.250000
Zn101	Zn10	0.250000	0.334550	0.250000
Zn111	Zn11	0.334550	0.250000	0.750000
Zn121	Zn12	0.165450	0.250000	0.750000
Zn131	Zn13	0.750000	0.834550	0.750000
Zn141	Zn14	0.750000	0.665450	0.750000
Zn151	Zn15	0.665450	0.750000	0.250000
Zn161	Zn16	0.834550	0.750000	0.250000
