data_WOYJAX_clean_PM
_symmetry_space_group_name_H-M	'P1'
_cell_length_a	25.555200
_cell_length_b	25.555200
_cell_length_c	51.403000
_cell_angle_alpha	90.000000
_cell_angle_beta	90.000000
_cell_angle_gamma	90.000000
_symmetry_Int_Tables_number 1

loop_
_symmetry_equiv_pos_as_xyz
'x,y,z'

loop_
_atom_site_label
_atom_site_type_symbol
_atom_site_fract_x
_atom_site_fract_y
_atom_site_fract_z
Zn11	Zn1	0.227120	0.439270	0.126640
O11	O1	0.276900	0.407900	0.152290
C11	C1	0.188200	0.676600	0.033230
O21	O2	0.186400	0.482200	0.101500
N11	N1	0.041400	0.551500	0.044700
O31	O3	0.332900	0.475800	0.153310
O41	O4	0.165900	0.695000	0.013700
O51	O5	0.227600	0.694100	0.044060
C21	C2	0.164400	0.628600	0.045390
C31	C3	0.194100	0.599100	0.062310
H11	H1	0.228600	0.610200	0.066400
C41	C4	0.338400	0.412700	0.186220
C51	C5	0.314400	0.433700	0.162150
C61	C6	0.207900	0.522400	0.091720
C71	C7	0.372700	0.441400	0.199910
H21	H2	0.383100	0.474500	0.193300
C81	C8	0.114600	0.612800	0.038930
H31	H3	0.094100	0.632500	0.027000
C91	C9	0.174700	0.553900	0.073340
C101	C10	0.094800	0.567300	0.050250
C111	C11	0.124200	0.537100	0.067100
H41	H4	0.110500	0.505700	0.074200
N21	N2	0.335000	0.291900	0.225880
C121	C12	0.318900	0.275200	0.251200
H51	H5	0.309900	0.297200	0.265400
C131	C13	0.380200	0.374700	0.232370
H61	H6	0.394000	0.361800	0.248300
C141	C14	0.026200	0.503400	0.035660
H71	H7	0.048500	0.475500	0.030400
C151	C15	0.393600	0.424300	0.223590
C161	C16	0.324700	0.362600	0.195130
H81	H8	0.300400	0.342000	0.185600
C171	C17	0.346000	0.343700	0.217390
O61	O6	0.444700	0.499500	0.228990
O71	O7	0.252300	0.537500	0.095640
O81	O8	0.447000	0.437900	0.260180
C181	C18	0.430900	0.457900	0.238200
Zn21	Zn2	0.727120	0.939270	0.626640
O91	O9	0.776900	0.907900	0.652290
C191	C19	0.688200	0.176600	0.533230
O101	O10	0.686400	0.982200	0.601500
N31	N3	0.541400	0.051500	0.544700
O111	O11	0.832900	0.975800	0.653310
O121	O12	0.665900	0.195000	0.513700
O131	O13	0.727600	0.194100	0.544060
C201	C20	0.664400	0.128600	0.545390
C211	C21	0.694100	0.099100	0.562310
H91	H9	0.728600	0.110200	0.566400
C221	C22	0.838400	0.912700	0.686220
C231	C23	0.814400	0.933700	0.662150
C241	C24	0.707900	0.022400	0.591720
C251	C25	0.872700	0.941400	0.699910
H101	H10	0.883100	0.974500	0.693300
C261	C26	0.614600	0.112800	0.538930
H111	H11	0.594100	0.132500	0.527000
C271	C27	0.674700	0.053900	0.573340
C281	C28	0.594800	0.067300	0.550250
C291	C29	0.624200	0.037100	0.567100
H121	H12	0.610500	0.005700	0.574200
N41	N4	0.835000	0.791900	0.725880
C301	C30	0.818900	0.775200	0.751200
H131	H13	0.809900	0.797200	0.765400
C311	C31	0.880200	0.874700	0.732370
H141	H14	0.894000	0.861800	0.748300
C321	C32	0.526200	0.003400	0.535660
H151	H15	0.548500	0.975500	0.530400
C331	C33	0.893600	0.924300	0.723590
C341	C34	0.824700	0.862600	0.695130
H161	H16	0.800400	0.842000	0.685600
C351	C35	0.846000	0.843700	0.717390
O141	O14	0.944700	0.999500	0.728990
O151	O15	0.752300	0.037500	0.595640
O161	O16	0.947000	0.937900	0.760180
C361	C36	0.930900	0.957900	0.738200
Zn31	Zn3	0.272880	0.560730	0.626640
O171	O17	0.223100	0.592100	0.652290
C371	C37	0.311800	0.323400	0.533230
O181	O18	0.313600	0.517800	0.601500
N51	N5	0.458600	0.448500	0.544700
O191	O19	0.167100	0.524200	0.653310
O201	O20	0.334100	0.305000	0.513700
O211	O21	0.272400	0.305900	0.544060
C381	C38	0.335600	0.371400	0.545390
C391	C39	0.305900	0.400900	0.562310
H171	H17	0.271400	0.389800	0.566400
C401	C40	0.161600	0.587300	0.686220
C411	C41	0.185600	0.566300	0.662150
C421	C42	0.292100	0.477600	0.591720
C431	C43	0.127300	0.558600	0.699910
H181	H18	0.116900	0.525500	0.693300
C441	C44	0.385400	0.387200	0.538930
H191	H19	0.405900	0.367500	0.527000
C451	C45	0.325300	0.446100	0.573340
C461	C46	0.405200	0.432700	0.550250
C471	C47	0.375800	0.462900	0.567100
H201	H20	0.389500	0.494300	0.574200
N61	N6	0.165000	0.708100	0.725880
C481	C48	0.181100	0.724800	0.751200
H211	H21	0.190100	0.702800	0.765400
C491	C49	0.119800	0.625300	0.732370
H221	H22	0.106000	0.638200	0.748300
C501	C50	0.473800	0.496600	0.535660
H231	H23	0.451500	0.524500	0.530400
C511	C51	0.106400	0.575700	0.723590
C521	C52	0.175300	0.637400	0.695130
H241	H24	0.199600	0.658000	0.685600
C531	C53	0.154000	0.656300	0.717390
O221	O22	0.055300	0.500500	0.728990
O231	O23	0.247700	0.462500	0.595640
O241	O24	0.053000	0.562100	0.760180
C541	C54	0.069100	0.542100	0.738200
Zn41	Zn4	0.772880	0.060730	0.126640
O251	O25	0.723100	0.092100	0.152290
C551	C55	0.811800	0.823400	0.033230
O261	O26	0.813600	0.017800	0.101500
N71	N7	0.958600	0.948500	0.044700
O271	O27	0.667100	0.024200	0.153310
O281	O28	0.834100	0.805000	0.013700
O291	O29	0.772400	0.805900	0.044060
C561	C56	0.835600	0.871400	0.045390
C571	C57	0.805900	0.900900	0.062310
H251	H25	0.771400	0.889800	0.066400
C581	C58	0.661600	0.087300	0.186220
C591	C59	0.685600	0.066300	0.162150
C601	C60	0.792100	0.977600	0.091720
C611	C61	0.627300	0.058600	0.199910
H261	H26	0.616900	0.025500	0.193300
C621	C62	0.885400	0.887200	0.038930
H271	H27	0.905900	0.867500	0.027000
C631	C63	0.825300	0.946100	0.073340
C641	C64	0.905200	0.932700	0.050250
C651	C65	0.875800	0.962900	0.067100
H281	H28	0.889500	0.994300	0.074200
N81	N8	0.665000	0.208100	0.225880
C661	C66	0.681100	0.224800	0.251200
H291	H29	0.690100	0.202800	0.265400
C671	C67	0.619800	0.125300	0.232370
H301	H30	0.606000	0.138200	0.248300
C681	C68	0.973800	0.996600	0.035660
H311	H31	0.951500	0.024500	0.030400
C691	C69	0.606400	0.075700	0.223590
C701	C70	0.675300	0.137400	0.195130
H321	H32	0.699600	0.158000	0.185600
C711	C71	0.654000	0.156300	0.217390
O301	O30	0.555300	0.000500	0.228990
O311	O31	0.747700	0.962500	0.095640
O321	O32	0.553000	0.062100	0.260180
C721	C72	0.569100	0.042100	0.238200
Zn51	Zn5	0.810730	0.977120	0.376640
O331	O33	0.842100	0.026900	0.402290
C731	C73	0.573400	0.938200	0.283230
O341	O34	0.767800	0.936400	0.351500
N91	N9	0.698500	0.791400	0.294700
O351	O35	0.774200	0.082900	0.403310
O361	O36	0.555000	0.915900	0.263700
O371	O37	0.555900	0.977600	0.294060
C741	C74	0.621400	0.914400	0.295390
C751	C75	0.650900	0.944100	0.312310
H331	H33	0.639800	0.978600	0.316400
C761	C76	0.837300	0.088400	0.436220
C771	C77	0.816300	0.064400	0.412150
C781	C78	0.727600	0.957900	0.341720
C791	C79	0.808600	0.122700	0.449910
H341	H34	0.775500	0.133100	0.443300
C801	C80	0.637200	0.864600	0.288930
H351	H35	0.617500	0.844100	0.277000
C811	C81	0.696100	0.924700	0.323340
C821	C82	0.682700	0.844800	0.300250
C831	C83	0.712900	0.874200	0.317100
H361	H36	0.744300	0.860500	0.324200
N101	N10	0.958100	0.085000	0.475880
C841	C84	0.974800	0.068900	0.501200
H371	H37	0.952800	0.059900	0.515400
C851	C85	0.875300	0.130200	0.482370
H381	H38	0.888200	0.144000	0.498300
C861	C86	0.746600	0.776200	0.285660
H391	H39	0.774500	0.798500	0.280400
C871	C87	0.825700	0.143600	0.473590
C881	C88	0.887400	0.074700	0.445130
H401	H40	0.908000	0.050400	0.435600
C891	C89	0.906300	0.096000	0.467390
O381	O38	0.750500	0.194700	0.478990
O391	O39	0.712500	0.002300	0.345640
O401	O40	0.812100	0.197000	0.510180
C901	C90	0.792100	0.180900	0.488200
Zn61	Zn6	0.310730	0.477120	0.876640
O411	O41	0.342100	0.526900	0.902290
C911	C91	0.073400	0.438200	0.783230
O421	O42	0.267800	0.436400	0.851500
N111	N11	0.198500	0.291400	0.794700
O431	O43	0.274200	0.582900	0.903310
O441	O44	0.055000	0.415900	0.763700
O451	O45	0.055900	0.477600	0.794060
C921	C92	0.121400	0.414400	0.795390
C931	C93	0.150900	0.444100	0.812310
H411	H41	0.139800	0.478600	0.816400
C941	C94	0.337300	0.588400	0.936220
C951	C95	0.316300	0.564400	0.912150
C961	C96	0.227600	0.457900	0.841720
C971	C97	0.308600	0.622700	0.949910
H421	H42	0.275500	0.633100	0.943300
C981	C98	0.137200	0.364600	0.788930
H431	H43	0.117500	0.344100	0.777000
C991	C99	0.196100	0.424700	0.823340
C1001	C100	0.182700	0.344800	0.800250
C1011	C101	0.212900	0.374200	0.817100
H441	H44	0.244300	0.360500	0.824200
N121	N12	0.458100	0.585000	0.975880
C1021	C102	0.474800	0.568900	0.001200
H451	H45	0.452800	0.559900	0.015400
C1031	C103	0.375300	0.630200	0.982370
H461	H46	0.388200	0.644000	0.998300
C1041	C104	0.246600	0.276200	0.785660
H471	H47	0.274500	0.298500	0.780400
C1051	C105	0.325700	0.643600	0.973590
C1061	C106	0.387400	0.574700	0.945130
H481	H48	0.408000	0.550400	0.935600
C1071	C107	0.406300	0.596000	0.967390
O461	O46	0.250500	0.694700	0.978990
O471	O47	0.212500	0.502300	0.845640
O481	O48	0.312100	0.697000	0.010180
C1081	C108	0.292100	0.680900	0.988200
Zn71	Zn7	0.689270	0.022880	0.876640
O491	O49	0.657900	0.973100	0.902290
C1091	C109	0.926600	0.061800	0.783230
O501	O50	0.732200	0.063600	0.851500
N131	N13	0.801500	0.208600	0.794700
O511	O51	0.725800	0.917100	0.903310
O521	O52	0.945000	0.084100	0.763700
O531	O53	0.944100	0.022400	0.794060
C1101	C110	0.878600	0.085600	0.795390
C1111	C111	0.849100	0.055900	0.812310
H491	H49	0.860200	0.021400	0.816400
C1121	C112	0.662700	0.911600	0.936220
C1131	C113	0.683700	0.935600	0.912150
C1141	C114	0.772400	0.042100	0.841720
C1151	C115	0.691400	0.877300	0.949910
H501	H50	0.724500	0.866900	0.943300
C1161	C116	0.862800	0.135400	0.788930
H511	H51	0.882500	0.155900	0.777000
C1171	C117	0.803900	0.075300	0.823340
C1181	C118	0.817300	0.155200	0.800250
C1191	C119	0.787100	0.125800	0.817100
H521	H52	0.755700	0.139500	0.824200
N141	N14	0.541900	0.915000	0.975880
C1201	C120	0.525200	0.931100	0.001200
H531	H53	0.547200	0.940100	0.015400
C1211	C121	0.624700	0.869800	0.982370
H541	H54	0.611800	0.856000	0.998300
C1221	C122	0.753400	0.223800	0.785660
H551	H55	0.725500	0.201500	0.780400
C1231	C123	0.674300	0.856400	0.973590
C1241	C124	0.612600	0.925300	0.945130
H561	H56	0.592000	0.949600	0.935600
C1251	C125	0.593700	0.904000	0.967390
O541	O54	0.749500	0.805300	0.978990
O551	O55	0.787500	0.997700	0.845640
O561	O56	0.687900	0.803000	0.010180
C1261	C126	0.707900	0.819100	0.988200
Zn81	Zn8	0.189270	0.522880	0.376640
O571	O57	0.157900	0.473100	0.402290
C1271	C127	0.426600	0.561800	0.283230
O581	O58	0.232200	0.563600	0.351500
N151	N15	0.301500	0.708600	0.294700
O591	O59	0.225800	0.417100	0.403310
O601	O60	0.445000	0.584100	0.263700
O611	O61	0.444100	0.522400	0.294060
C1281	C128	0.378600	0.585600	0.295390
C1291	C129	0.349100	0.555900	0.312310
H571	H57	0.360200	0.521400	0.316400
C1301	C130	0.162700	0.411600	0.436220
C1311	C131	0.183700	0.435600	0.412150
C1321	C132	0.272400	0.542100	0.341720
C1331	C133	0.191400	0.377300	0.449910
H581	H58	0.224500	0.366900	0.443300
C1341	C134	0.362800	0.635400	0.288930
H591	H59	0.382500	0.655900	0.277000
C1351	C135	0.303900	0.575300	0.323340
C1361	C136	0.317300	0.655200	0.300250
C1371	C137	0.287100	0.625800	0.317100
H601	H60	0.255700	0.639500	0.324200
N161	N16	0.041900	0.415000	0.475880
C1381	C138	0.025200	0.431100	0.501200
H611	H61	0.047200	0.440100	0.515400
C1391	C139	0.124700	0.369800	0.482370
H621	H62	0.111800	0.356000	0.498300
C1401	C140	0.253400	0.723800	0.285660
H631	H63	0.225500	0.701500	0.280400
C1411	C141	0.174300	0.356400	0.473590
C1421	C142	0.112600	0.425300	0.445130
H641	H64	0.092000	0.449600	0.435600
C1431	C143	0.093700	0.404000	0.467390
O621	O62	0.249500	0.305300	0.478990
O631	O63	0.287500	0.497700	0.345640
O641	O64	0.187900	0.303000	0.510180
C1441	C144	0.207900	0.319100	0.488200
Zn91	Zn9	0.272880	0.439270	0.373360
O651	O65	0.223100	0.407900	0.347710
C1451	C145	0.311800	0.676600	0.466770
O661	O66	0.313600	0.482200	0.398500
N171	N17	0.458600	0.551500	0.455300
O671	O67	0.167100	0.475800	0.346690
O681	O68	0.334100	0.695000	0.486300
O691	O69	0.272400	0.694100	0.455940
C1461	C146	0.335600	0.628600	0.454610
C1471	C147	0.305900	0.599100	0.437690
H651	H65	0.271400	0.610200	0.433600
C1481	C148	0.161600	0.412700	0.313780
C1491	C149	0.185600	0.433700	0.337850
C1501	C150	0.292100	0.522400	0.408280
C1511	C151	0.127300	0.441400	0.300090
H661	H66	0.116900	0.474500	0.306700
C1521	C152	0.385400	0.612800	0.461070
H671	H67	0.405900	0.632500	0.473000
C1531	C153	0.325300	0.553900	0.426660
C1541	C154	0.405200	0.567300	0.449750
C1551	C155	0.375800	0.537100	0.432900
H681	H68	0.389500	0.505700	0.425800
N181	N18	0.165000	0.291900	0.274120
C1561	C156	0.181100	0.275200	0.248800
H691	H69	0.190100	0.297200	0.234600
C1571	C157	0.119800	0.374700	0.267630
H701	H70	0.106000	0.361800	0.251700
C1581	C158	0.473800	0.503400	0.464340
H711	H71	0.451500	0.475500	0.469600
C1591	C159	0.106400	0.424300	0.276410
C1601	C160	0.175300	0.362600	0.304870
H721	H72	0.199600	0.342000	0.314400
C1611	C161	0.154000	0.343700	0.282610
O701	O70	0.055300	0.499500	0.271010
O711	O71	0.247700	0.537500	0.404360
O721	O72	0.053000	0.437900	0.239820
C1621	C162	0.069100	0.457900	0.261800
Zn101	Zn10	0.772880	0.939270	0.873360
O731	O73	0.723100	0.907900	0.847710
C1631	C163	0.811800	0.176600	0.966770
O741	O74	0.813600	0.982200	0.898500
N191	N19	0.958600	0.051500	0.955300
O751	O75	0.667100	0.975800	0.846690
O761	O76	0.834100	0.195000	0.986300
O771	O77	0.772400	0.194100	0.955940
C1641	C164	0.835600	0.128600	0.954610
C1651	C165	0.805900	0.099100	0.937690
H731	H73	0.771400	0.110200	0.933600
C1661	C166	0.661600	0.912700	0.813780
C1671	C167	0.685600	0.933700	0.837850
C1681	C168	0.792100	0.022400	0.908280
C1691	C169	0.627300	0.941400	0.800090
H741	H74	0.616900	0.974500	0.806700
C1701	C170	0.885400	0.112800	0.961070
H751	H75	0.905900	0.132500	0.973000
C1711	C171	0.825300	0.053900	0.926660
C1721	C172	0.905200	0.067300	0.949750
C1731	C173	0.875800	0.037100	0.932900
H761	H76	0.889500	0.005700	0.925800
N201	N20	0.665000	0.791900	0.774120
C1741	C174	0.681100	0.775200	0.748800
H771	H77	0.690100	0.797200	0.734600
C1751	C175	0.619800	0.874700	0.767630
H781	H78	0.606000	0.861800	0.751700
C1761	C176	0.973800	0.003400	0.964340
H791	H79	0.951500	0.975500	0.969600
C1771	C177	0.606400	0.924300	0.776410
C1781	C178	0.675300	0.862600	0.804870
H801	H80	0.699600	0.842000	0.814400
C1791	C179	0.654000	0.843700	0.782610
O781	O78	0.555300	0.999500	0.771010
O791	O79	0.747700	0.037500	0.904360
O801	O80	0.553000	0.937900	0.739820
C1801	C180	0.569100	0.957900	0.761800
Zn111	Zn11	0.227120	0.560730	0.873360
O811	O81	0.276900	0.592100	0.847710
C1811	C181	0.188200	0.323400	0.966770
O821	O82	0.186400	0.517800	0.898500
N211	N21	0.041400	0.448500	0.955300
O831	O83	0.332900	0.524200	0.846690
O841	O84	0.165900	0.305000	0.986300
O851	O85	0.227600	0.305900	0.955940
C1821	C182	0.164400	0.371400	0.954610
C1831	C183	0.194100	0.400900	0.937690
H811	H81	0.228600	0.389800	0.933600
C1841	C184	0.338400	0.587300	0.813780
C1851	C185	0.314400	0.566300	0.837850
C1861	C186	0.207900	0.477600	0.908280
C1871	C187	0.372700	0.558600	0.800090
H821	H82	0.383100	0.525500	0.806700
C1881	C188	0.114600	0.387200	0.961070
H831	H83	0.094100	0.367500	0.973000
C1891	C189	0.174700	0.446100	0.926660
C1901	C190	0.094800	0.432700	0.949750
C1911	C191	0.124200	0.462900	0.932900
H841	H84	0.110500	0.494300	0.925800
N221	N22	0.335000	0.708100	0.774120
C1921	C192	0.318900	0.724800	0.748800
H851	H85	0.309900	0.702800	0.734600
C1931	C193	0.380200	0.625300	0.767630
H861	H86	0.394000	0.638200	0.751700
C1941	C194	0.026200	0.496600	0.964340
H871	H87	0.048500	0.524500	0.969600
C1951	C195	0.393600	0.575700	0.776410
C1961	C196	0.324700	0.637400	0.804870
H881	H88	0.300400	0.658000	0.814400
C1971	C197	0.346000	0.656300	0.782610
O861	O86	0.444700	0.500500	0.771010
O871	O87	0.252300	0.462500	0.904360
O881	O88	0.447000	0.562100	0.739820
C1981	C198	0.430900	0.542100	0.761800
Zn121	Zn12	0.727120	0.060730	0.373360
O891	O89	0.776900	0.092100	0.347710
C1991	C199	0.688200	0.823400	0.466770
O901	O90	0.686400	0.017800	0.398500
N231	N23	0.541400	0.948500	0.455300
O911	O91	0.832900	0.024200	0.346690
O921	O92	0.665900	0.805000	0.486300
O931	O93	0.727600	0.805900	0.455940
C2001	C200	0.664400	0.871400	0.454610
C2011	C201	0.694100	0.900900	0.437690
H891	H89	0.728600	0.889800	0.433600
C2021	C202	0.838400	0.087300	0.313780
C2031	C203	0.814400	0.066300	0.337850
C2041	C204	0.707900	0.977600	0.408280
C2051	C205	0.872700	0.058600	0.300090
H901	H90	0.883100	0.025500	0.306700
C2061	C206	0.614600	0.887200	0.461070
H911	H91	0.594100	0.867500	0.473000
C2071	C207	0.674700	0.946100	0.426660
C2081	C208	0.594800	0.932700	0.449750
C2091	C209	0.624200	0.962900	0.432900
H921	H92	0.610500	0.994300	0.425800
N241	N24	0.835000	0.208100	0.274120
C2101	C210	0.818900	0.224800	0.248800
H931	H93	0.809900	0.202800	0.234600
C2111	C211	0.880200	0.125300	0.267630
H941	H94	0.894000	0.138200	0.251700
C2121	C212	0.526200	0.996600	0.464340
H951	H95	0.548500	0.024500	0.469600
C2131	C213	0.893600	0.075700	0.276410
C2141	C214	0.824700	0.137400	0.304870
H961	H96	0.800400	0.158000	0.314400
C2151	C215	0.846000	0.156300	0.282610
O941	O94	0.944700	0.000500	0.271010
O951	O95	0.752300	0.962500	0.404360
O961	O96	0.947000	0.062100	0.239820
C2161	C216	0.930900	0.042100	0.261800
Zn131	Zn13	0.689270	0.977120	0.123360
O971	O97	0.657900	0.026900	0.097710
C2171	C217	0.926600	0.938200	0.216770
O981	O98	0.732200	0.936400	0.148500
N251	N25	0.801500	0.791400	0.205300
O991	O99	0.725800	0.082900	0.096690
O1001	O100	0.945000	0.915900	0.236300
O1011	O101	0.944100	0.977600	0.205940
C2181	C218	0.878600	0.914400	0.204610
C2191	C219	0.849100	0.944100	0.187690
H971	H97	0.860200	0.978600	0.183600
C2201	C220	0.662700	0.088400	0.063780
C2211	C221	0.683700	0.064400	0.087850
C2221	C222	0.772400	0.957900	0.158280
C2231	C223	0.691400	0.122700	0.050090
H981	H98	0.724500	0.133100	0.056700
C2241	C224	0.862800	0.864600	0.211070
H991	H99	0.882500	0.844100	0.223000
C2251	C225	0.803900	0.924700	0.176660
C2261	C226	0.817300	0.844800	0.199750
C2271	C227	0.787100	0.874200	0.182900
H1001	H100	0.755700	0.860500	0.175800
N261	N26	0.541900	0.085000	0.024120
C2281	C228	0.525200	0.068900	0.998800
H1011	H101	0.547200	0.059900	0.984600
C2291	C229	0.624700	0.130200	0.017630
H1021	H102	0.611800	0.144000	0.001700
C2301	C230	0.753400	0.776200	0.214340
H1031	H103	0.725500	0.798500	0.219600
C2311	C231	0.674300	0.143600	0.026410
C2321	C232	0.612600	0.074700	0.054870
H1041	H104	0.592000	0.050400	0.064400
C2331	C233	0.593700	0.096000	0.032610
O1021	O102	0.749500	0.194700	0.021010
O1031	O103	0.787500	0.002300	0.154360
O1041	O104	0.687900	0.197000	0.989820
C2341	C234	0.707900	0.180900	0.011800
Zn141	Zn14	0.189270	0.477120	0.623360
O1051	O105	0.157900	0.526900	0.597710
C2351	C235	0.426600	0.438200	0.716770
O1061	O106	0.232200	0.436400	0.648500
N271	N27	0.301500	0.291400	0.705300
O1071	O107	0.225800	0.582900	0.596690
O1081	O108	0.445000	0.415900	0.736300
O1091	O109	0.444100	0.477600	0.705940
C2361	C236	0.378600	0.414400	0.704610
C2371	C237	0.349100	0.444100	0.687690
H1051	H105	0.360200	0.478600	0.683600
C2381	C238	0.162700	0.588400	0.563780
C2391	C239	0.183700	0.564400	0.587850
C2401	C240	0.272400	0.457900	0.658280
C2411	C241	0.191400	0.622700	0.550090
H1061	H106	0.224500	0.633100	0.556700
C2421	C242	0.362800	0.364600	0.711070
H1071	H107	0.382500	0.344100	0.723000
C2431	C243	0.303900	0.424700	0.676660
C2441	C244	0.317300	0.344800	0.699750
C2451	C245	0.287100	0.374200	0.682900
H1081	H108	0.255700	0.360500	0.675800
N281	N28	0.041900	0.585000	0.524120
C2461	C246	0.025200	0.568900	0.498800
H1091	H109	0.047200	0.559900	0.484600
C2471	C247	0.124700	0.630200	0.517630
H1101	H110	0.111800	0.644000	0.501700
C2481	C248	0.253400	0.276200	0.714340
H1111	H111	0.225500	0.298500	0.719600
C2491	C249	0.174300	0.643600	0.526410
C2501	C250	0.112600	0.574700	0.554870
H1121	H112	0.092000	0.550400	0.564400
C2511	C251	0.093700	0.596000	0.532610
O1101	O110	0.249500	0.694700	0.521010
O1111	O111	0.287500	0.502300	0.654360
O1121	O112	0.187900	0.697000	0.489820
C2521	C252	0.207900	0.680900	0.511800
Zn151	Zn15	0.810730	0.022880	0.623360
O1131	O113	0.842100	0.973100	0.597710
C2531	C253	0.573400	0.061800	0.716770
O1141	O114	0.767800	0.063600	0.648500
N291	N29	0.698500	0.208600	0.705300
O1151	O115	0.774200	0.917100	0.596690
O1161	O116	0.555000	0.084100	0.736300
O1171	O117	0.555900	0.022400	0.705940
C2541	C254	0.621400	0.085600	0.704610
C2551	C255	0.650900	0.055900	0.687690
H1131	H113	0.639800	0.021400	0.683600
C2561	C256	0.837300	0.911600	0.563780
C2571	C257	0.816300	0.935600	0.587850
C2581	C258	0.727600	0.042100	0.658280
C2591	C259	0.808600	0.877300	0.550090
H1141	H114	0.775500	0.866900	0.556700
C2601	C260	0.637200	0.135400	0.711070
H1151	H115	0.617500	0.155900	0.723000
C2611	C261	0.696100	0.075300	0.676660
C2621	C262	0.682700	0.155200	0.699750
C2631	C263	0.712900	0.125800	0.682900
H1161	H116	0.744300	0.139500	0.675800
N301	N30	0.958100	0.915000	0.524120
C2641	C264	0.974800	0.931100	0.498800
H1171	H117	0.952800	0.940100	0.484600
C2651	C265	0.875300	0.869800	0.517630
H1181	H118	0.888200	0.856000	0.501700
C2661	C266	0.746600	0.223800	0.714340
H1191	H119	0.774500	0.201500	0.719600
C2671	C267	0.825700	0.856400	0.526410
C2681	C268	0.887400	0.925300	0.554870
H1201	H120	0.908000	0.949600	0.564400
C2691	C269	0.906300	0.904000	0.532610
O1181	O118	0.750500	0.805300	0.521010
O1191	O119	0.712500	0.997700	0.654360
O1201	O120	0.812100	0.803000	0.489820
C2701	C270	0.792100	0.819100	0.511800
Zn161	Zn16	0.310730	0.522880	0.123360
O1211	O121	0.342100	0.473100	0.097710
C2711	C271	0.073400	0.561800	0.216770
O1221	O122	0.267800	0.563600	0.148500
N311	N31	0.198500	0.708600	0.205300
O1231	O123	0.274200	0.417100	0.096690
O1241	O124	0.055000	0.584100	0.236300
O1251	O125	0.055900	0.522400	0.205940
C2721	C272	0.121400	0.585600	0.204610
C2731	C273	0.150900	0.555900	0.187690
H1211	H121	0.139800	0.521400	0.183600
C2741	C274	0.337300	0.411600	0.063780
C2751	C275	0.316300	0.435600	0.087850
C2761	C276	0.227600	0.542100	0.158280
C2771	C277	0.308600	0.377300	0.050090
H1221	H122	0.275500	0.366900	0.056700
C2781	C278	0.137200	0.635400	0.211070
H1231	H123	0.117500	0.655900	0.223000
C2791	C279	0.196100	0.575300	0.176660
C2801	C280	0.182700	0.655200	0.199750
C2811	C281	0.212900	0.625800	0.182900
H1241	H124	0.244300	0.639500	0.175800
N321	N32	0.458100	0.415000	0.024120
C2821	C282	0.474800	0.431100	0.998800
H1251	H125	0.452800	0.440100	0.984600
C2831	C283	0.375300	0.369800	0.017630
H1261	H126	0.388200	0.356000	0.001700
C2841	C284	0.246600	0.723800	0.214340
H1271	H127	0.274500	0.701500	0.219600
C2851	C285	0.325700	0.356400	0.026410
C2861	C286	0.387400	0.425300	0.054870
H1281	H128	0.408000	0.449600	0.064400
C2871	C287	0.406300	0.404000	0.032610
O1261	O126	0.250500	0.305300	0.021010
O1271	O127	0.212500	0.497700	0.154360
O1281	O128	0.312100	0.303000	0.989820
C2881	C288	0.292100	0.319100	0.011800
Zn171	Zn17	0.772880	0.560730	0.873360
O1291	O129	0.723100	0.592100	0.847710
C2891	C289	0.811800	0.323400	0.966770
O1301	O130	0.813600	0.517800	0.898500
N331	N33	0.958600	0.448500	0.955300
O1311	O131	0.667100	0.524200	0.846690
O1321	O132	0.834100	0.305000	0.986300
O1331	O133	0.772400	0.305900	0.955940
C2901	C290	0.835600	0.371400	0.954610
C2911	C291	0.805900	0.400900	0.937690
H1291	H129	0.771400	0.389800	0.933600
C2921	C292	0.661600	0.587300	0.813780
C2931	C293	0.685600	0.566300	0.837850
C2941	C294	0.792100	0.477600	0.908280
C2951	C295	0.627300	0.558600	0.800090
H1301	H130	0.616900	0.525500	0.806700
C2961	C296	0.885400	0.387200	0.961070
H1311	H131	0.905900	0.367500	0.973000
C2971	C297	0.825300	0.446100	0.926660
C2981	C298	0.905200	0.432700	0.949750
C2991	C299	0.875800	0.462900	0.932900
H1321	H132	0.889500	0.494300	0.925800
N341	N34	0.665000	0.708100	0.774120
C3001	C300	0.681100	0.724800	0.748800
H1331	H133	0.690100	0.702800	0.734600
C3011	C301	0.619800	0.625300	0.767630
H1341	H134	0.606000	0.638200	0.751700
C3021	C302	0.973800	0.496600	0.964340
H1351	H135	0.951500	0.524500	0.969600
C3031	C303	0.606400	0.575700	0.776410
C3041	C304	0.675300	0.637400	0.804870
H1361	H136	0.699600	0.658000	0.814400
C3051	C305	0.654000	0.656300	0.782610
O1341	O134	0.555300	0.500500	0.771010
O1351	O135	0.747700	0.462500	0.904360
O1361	O136	0.553000	0.562100	0.739820
C3061	C306	0.569100	0.542100	0.761800
Zn181	Zn18	0.272880	0.060730	0.373360
O1371	O137	0.223100	0.092100	0.347710
C3071	C307	0.311800	0.823400	0.466770
O1381	O138	0.313600	0.017800	0.398500
N351	N35	0.458600	0.948500	0.455300
O1391	O139	0.167100	0.024200	0.346690
O1401	O140	0.334100	0.805000	0.486300
O1411	O141	0.272400	0.805900	0.455940
C3081	C308	0.335600	0.871400	0.454610
C3091	C309	0.305900	0.900900	0.437690
H1371	H137	0.271400	0.889800	0.433600
C3101	C310	0.161600	0.087300	0.313780
C3111	C311	0.185600	0.066300	0.337850
C3121	C312	0.292100	0.977600	0.408280
C3131	C313	0.127300	0.058600	0.300090
H1381	H138	0.116900	0.025500	0.306700
C3141	C314	0.385400	0.887200	0.461070
H1391	H139	0.405900	0.867500	0.473000
C3151	C315	0.325300	0.946100	0.426660
C3161	C316	0.405200	0.932700	0.449750
C3171	C317	0.375800	0.962900	0.432900
H1401	H140	0.389500	0.994300	0.425800
N361	N36	0.165000	0.208100	0.274120
C3181	C318	0.181100	0.224800	0.248800
H1411	H141	0.190100	0.202800	0.234600
C3191	C319	0.119800	0.125300	0.267630
H1421	H142	0.106000	0.138200	0.251700
C3201	C320	0.473800	0.996600	0.464340
H1431	H143	0.451500	0.024500	0.469600
C3211	C321	0.106400	0.075700	0.276410
C3221	C322	0.175300	0.137400	0.304870
H1441	H144	0.199600	0.158000	0.314400
C3231	C323	0.154000	0.156300	0.282610
O1421	O142	0.055300	0.000500	0.271010
O1431	O143	0.247700	0.962500	0.404360
O1441	O144	0.053000	0.062100	0.239820
C3241	C324	0.069100	0.042100	0.261800
Zn191	Zn19	0.727120	0.439270	0.373360
O1451	O145	0.776900	0.407900	0.347710
C3251	C325	0.688200	0.676600	0.466770
O1461	O146	0.686400	0.482200	0.398500
N371	N37	0.541400	0.551500	0.455300
O1471	O147	0.832900	0.475800	0.346690
O1481	O148	0.665900	0.695000	0.486300
O1491	O149	0.727600	0.694100	0.455940
C3261	C326	0.664400	0.628600	0.454610
C3271	C327	0.694100	0.599100	0.437690
H1451	H145	0.728600	0.610200	0.433600
C3281	C328	0.838400	0.412700	0.313780
C3291	C329	0.814400	0.433700	0.337850
C3301	C330	0.707900	0.522400	0.408280
C3311	C331	0.872700	0.441400	0.300090
H1461	H146	0.883100	0.474500	0.306700
C3321	C332	0.614600	0.612800	0.461070
H1471	H147	0.594100	0.632500	0.473000
C3331	C333	0.674700	0.553900	0.426660
C3341	C334	0.594800	0.567300	0.449750
C3351	C335	0.624200	0.537100	0.432900
H1481	H148	0.610500	0.505700	0.425800
N381	N38	0.835000	0.291900	0.274120
C3361	C336	0.818900	0.275200	0.248800
H1491	H149	0.809900	0.297200	0.234600
C3371	C337	0.880200	0.374700	0.267630
H1501	H150	0.894000	0.361800	0.251700
C3381	C338	0.526200	0.503400	0.464340
H1511	H151	0.548500	0.475500	0.469600
C3391	C339	0.893600	0.424300	0.276410
C3401	C340	0.824700	0.362600	0.304870
H1521	H152	0.800400	0.342000	0.314400
C3411	C341	0.846000	0.343700	0.282610
O1501	O150	0.944700	0.499500	0.271010
O1511	O151	0.752300	0.537500	0.404360
O1521	O152	0.947000	0.437900	0.239820
C3421	C342	0.930900	0.457900	0.261800
Zn201	Zn20	0.227120	0.939270	0.873360
O1531	O153	0.276900	0.907900	0.847710
C3431	C343	0.188200	0.176600	0.966770
O1541	O154	0.186400	0.982200	0.898500
N391	N39	0.041400	0.051500	0.955300
O1551	O155	0.332900	0.975800	0.846690
O1561	O156	0.165900	0.195000	0.986300
O1571	O157	0.227600	0.194100	0.955940
C3441	C344	0.164400	0.128600	0.954610
C3451	C345	0.194100	0.099100	0.937690
H1531	H153	0.228600	0.110200	0.933600
C3461	C346	0.338400	0.912700	0.813780
C3471	C347	0.314400	0.933700	0.837850
C3481	C348	0.207900	0.022400	0.908280
C3491	C349	0.372700	0.941400	0.800090
H1541	H154	0.383100	0.974500	0.806700
C3501	C350	0.114600	0.112800	0.961070
H1551	H155	0.094100	0.132500	0.973000
C3511	C351	0.174700	0.053900	0.926660
C3521	C352	0.094800	0.067300	0.949750
C3531	C353	0.124200	0.037100	0.932900
H1561	H156	0.110500	0.005700	0.925800
N401	N40	0.335000	0.791900	0.774120
C3541	C354	0.318900	0.775200	0.748800
H1571	H157	0.309900	0.797200	0.734600
C3551	C355	0.380200	0.874700	0.767630
H1581	H158	0.394000	0.861800	0.751700
C3561	C356	0.026200	0.003400	0.964340
H1591	H159	0.048500	0.975500	0.969600
C3571	C357	0.393600	0.924300	0.776410
C3581	C358	0.324700	0.862600	0.804870
H1601	H160	0.300400	0.842000	0.814400
C3591	C359	0.346000	0.843700	0.782610
O1581	O158	0.444700	0.999500	0.771010
O1591	O159	0.252300	0.037500	0.904360
O1601	O160	0.447000	0.937900	0.739820
C3601	C360	0.430900	0.957900	0.761800
Zn211	Zn21	0.189270	0.022880	0.623360
O1611	O161	0.157900	0.973100	0.597710
C3611	C361	0.426600	0.061800	0.716770
O1621	O162	0.232200	0.063600	0.648500
N411	N41	0.301500	0.208600	0.705300
O1631	O163	0.225800	0.917100	0.596690
O1641	O164	0.445000	0.084100	0.736300
O1651	O165	0.444100	0.022400	0.705940
C3621	C362	0.378600	0.085600	0.704610
C3631	C363	0.349100	0.055900	0.687690
H1611	H161	0.360200	0.021400	0.683600
C3641	C364	0.162700	0.911600	0.563780
C3651	C365	0.183700	0.935600	0.587850
C3661	C366	0.272400	0.042100	0.658280
C3671	C367	0.191400	0.877300	0.550090
H1621	H162	0.224500	0.866900	0.556700
C3681	C368	0.362800	0.135400	0.711070
H1631	H163	0.382500	0.155900	0.723000
C3691	C369	0.303900	0.075300	0.676660
C3701	C370	0.317300	0.155200	0.699750
C3711	C371	0.287100	0.125800	0.682900
H1641	H164	0.255700	0.139500	0.675800
N421	N42	0.041900	0.915000	0.524120
C3721	C372	0.025200	0.931100	0.498800
H1651	H165	0.047200	0.940100	0.484600
C3731	C373	0.124700	0.869800	0.517630
H1661	H166	0.111800	0.856000	0.501700
C3741	C374	0.253400	0.223800	0.714340
H1671	H167	0.225500	0.201500	0.719600
C3751	C375	0.174300	0.856400	0.526410
C3761	C376	0.112600	0.925300	0.554870
H1681	H168	0.092000	0.949600	0.564400
C3771	C377	0.093700	0.904000	0.532610
O1661	O166	0.249500	0.805300	0.521010
O1671	O167	0.287500	0.997700	0.654360
O1681	O168	0.187900	0.803000	0.489820
C3781	C378	0.207900	0.819100	0.511800
Zn221	Zn22	0.689270	0.522880	0.123360
O1691	O169	0.657900	0.473100	0.097710
C3791	C379	0.926600	0.561800	0.216770
O1701	O170	0.732200	0.563600	0.148500
N431	N43	0.801500	0.708600	0.205300
O1711	O171	0.725800	0.417100	0.096690
O1721	O172	0.945000	0.584100	0.236300
O1731	O173	0.944100	0.522400	0.205940
C3801	C380	0.878600	0.585600	0.204610
C3811	C381	0.849100	0.555900	0.187690
H1691	H169	0.860200	0.521400	0.183600
C3821	C382	0.662700	0.411600	0.063780
C3831	C383	0.683700	0.435600	0.087850
C3841	C384	0.772400	0.542100	0.158280
C3851	C385	0.691400	0.377300	0.050090
H1701	H170	0.724500	0.366900	0.056700
C3861	C386	0.862800	0.635400	0.211070
H1711	H171	0.882500	0.655900	0.223000
C3871	C387	0.803900	0.575300	0.176660
C3881	C388	0.817300	0.655200	0.199750
C3891	C389	0.787100	0.625800	0.182900
H1721	H172	0.755700	0.639500	0.175800
N441	N44	0.541900	0.415000	0.024120
C3901	C390	0.525200	0.431100	0.998800
H1731	H173	0.547200	0.440100	0.984600
C3911	C391	0.624700	0.369800	0.017630
H1741	H174	0.611800	0.356000	0.001700
C3921	C392	0.753400	0.723800	0.214340
H1751	H175	0.725500	0.701500	0.219600
C3931	C393	0.674300	0.356400	0.026410
C3941	C394	0.612600	0.425300	0.054870
H1761	H176	0.592000	0.449600	0.064400
C3951	C395	0.593700	0.404000	0.032610
O1741	O174	0.749500	0.305300	0.021010
O1751	O175	0.787500	0.497700	0.154360
O1761	O176	0.687900	0.303000	0.989820
C3961	C396	0.707900	0.319100	0.011800
Zn231	Zn23	0.310730	0.977120	0.123360
O1771	O177	0.342100	0.026900	0.097710
C3971	C397	0.073400	0.938200	0.216770
O1781	O178	0.267800	0.936400	0.148500
N451	N45	0.198500	0.791400	0.205300
O1791	O179	0.274200	0.082900	0.096690
O1801	O180	0.055000	0.915900	0.236300
O1811	O181	0.055900	0.977600	0.205940
C3981	C398	0.121400	0.914400	0.204610
C3991	C399	0.150900	0.944100	0.187690
H1771	H177	0.139800	0.978600	0.183600
C4001	C400	0.337300	0.088400	0.063780
C4011	C401	0.316300	0.064400	0.087850
C4021	C402	0.227600	0.957900	0.158280
C4031	C403	0.308600	0.122700	0.050090
H1781	H178	0.275500	0.133100	0.056700
C4041	C404	0.137200	0.864600	0.211070
H1791	H179	0.117500	0.844100	0.223000
C4051	C405	0.196100	0.924700	0.176660
C4061	C406	0.182700	0.844800	0.199750
C4071	C407	0.212900	0.874200	0.182900
H1801	H180	0.244300	0.860500	0.175800
N461	N46	0.458100	0.085000	0.024120
C4081	C408	0.474800	0.068900	0.998800
H1811	H181	0.452800	0.059900	0.984600
C4091	C409	0.375300	0.130200	0.017630
H1821	H182	0.388200	0.144000	0.001700
C4101	C410	0.246600	0.776200	0.214340
H1831	H183	0.274500	0.798500	0.219600
C4111	C411	0.325700	0.143600	0.026410
C4121	C412	0.387400	0.074700	0.054870
H1841	H184	0.408000	0.050400	0.064400
C4131	C413	0.406300	0.096000	0.032610
O1821	O182	0.250500	0.194700	0.021010
O1831	O183	0.212500	0.002300	0.154360
O1841	O184	0.312100	0.197000	0.989820
C4141	C414	0.292100	0.180900	0.011800
Zn241	Zn24	0.810730	0.477120	0.623360
O1851	O185	0.842100	0.526900	0.597710
C4151	C415	0.573400	0.438200	0.716770
O1861	O186	0.767800	0.436400	0.648500
N471	N47	0.698500	0.291400	0.705300
O1871	O187	0.774200	0.582900	0.596690
O1881	O188	0.555000	0.415900	0.736300
O1891	O189	0.555900	0.477600	0.705940
C4161	C416	0.621400	0.414400	0.704610
C4171	C417	0.650900	0.444100	0.687690
H1851	H185	0.639800	0.478600	0.683600
C4181	C418	0.837300	0.588400	0.563780
C4191	C419	0.816300	0.564400	0.587850
C4201	C420	0.727600	0.457900	0.658280
C4211	C421	0.808600	0.622700	0.550090
H1861	H186	0.775500	0.633100	0.556700
C4221	C422	0.637200	0.364600	0.711070
H1871	H187	0.617500	0.344100	0.723000
C4231	C423	0.696100	0.424700	0.676660
C4241	C424	0.682700	0.344800	0.699750
C4251	C425	0.712900	0.374200	0.682900
H1881	H188	0.744300	0.360500	0.675800
N481	N48	0.958100	0.585000	0.524120
C4261	C426	0.974800	0.568900	0.498800
H1891	H189	0.952800	0.559900	0.484600
C4271	C427	0.875300	0.630200	0.517630
H1901	H190	0.888200	0.644000	0.501700
C4281	C428	0.746600	0.276200	0.714340
H1911	H191	0.774500	0.298500	0.719600
C4291	C429	0.825700	0.643600	0.526410
C4301	C430	0.887400	0.574700	0.554870
H1921	H192	0.908000	0.550400	0.564400
C4311	C431	0.906300	0.596000	0.532610
O1901	O190	0.750500	0.694700	0.521010
O1911	O191	0.712500	0.502300	0.654360
O1921	O192	0.812100	0.697000	0.489820
C4321	C432	0.792100	0.680900	0.511800
Zn251	Zn25	0.727120	0.560730	0.626640
O1931	O193	0.776900	0.592100	0.652290
C4331	C433	0.688200	0.323400	0.533230
O1941	O194	0.686400	0.517800	0.601500
N491	N49	0.541400	0.448500	0.544700
O1951	O195	0.832900	0.524200	0.653310
O1961	O196	0.665900	0.305000	0.513700
O1971	O197	0.727600	0.305900	0.544060
C4341	C434	0.664400	0.371400	0.545390
C4351	C435	0.694100	0.400900	0.562310
H1931	H193	0.728600	0.389800	0.566400
C4361	C436	0.838400	0.587300	0.686220
C4371	C437	0.814400	0.566300	0.662150
C4381	C438	0.707900	0.477600	0.591720
C4391	C439	0.872700	0.558600	0.699910
H1941	H194	0.883100	0.525500	0.693300
C4401	C440	0.614600	0.387200	0.538930
H1951	H195	0.594100	0.367500	0.527000
C4411	C441	0.674700	0.446100	0.573340
C4421	C442	0.594800	0.432700	0.550250
C4431	C443	0.624200	0.462900	0.567100
H1961	H196	0.610500	0.494300	0.574200
N501	N50	0.835000	0.708100	0.725880
C4441	C444	0.818900	0.724800	0.751200
H1971	H197	0.809900	0.702800	0.765400
C4451	C445	0.880200	0.625300	0.732370
H1981	H198	0.894000	0.638200	0.748300
C4461	C446	0.526200	0.496600	0.535660
H1991	H199	0.548500	0.524500	0.530400
C4471	C447	0.893600	0.575700	0.723590
C4481	C448	0.824700	0.637400	0.695130
H2001	H200	0.800400	0.658000	0.685600
C4491	C449	0.846000	0.656300	0.717390
O1981	O198	0.944700	0.500500	0.728990
O1991	O199	0.752300	0.462500	0.595640
O2001	O200	0.947000	0.562100	0.760180
C4501	C450	0.930900	0.542100	0.738200
Zn261	Zn26	0.227120	0.060730	0.126640
O2011	O201	0.276900	0.092100	0.152290
C4511	C451	0.188200	0.823400	0.033230
O2021	O202	0.186400	0.017800	0.101500
N511	N51	0.041400	0.948500	0.044700
O2031	O203	0.332900	0.024200	0.153310
O2041	O204	0.165900	0.805000	0.013700
O2051	O205	0.227600	0.805900	0.044060
C4521	C452	0.164400	0.871400	0.045390
C4531	C453	0.194100	0.900900	0.062310
H2011	H201	0.228600	0.889800	0.066400
C4541	C454	0.338400	0.087300	0.186220
C4551	C455	0.314400	0.066300	0.162150
C4561	C456	0.207900	0.977600	0.091720
C4571	C457	0.372700	0.058600	0.199910
H2021	H202	0.383100	0.025500	0.193300
C4581	C458	0.114600	0.887200	0.038930
H2031	H203	0.094100	0.867500	0.027000
C4591	C459	0.174700	0.946100	0.073340
C4601	C460	0.094800	0.932700	0.050250
C4611	C461	0.124200	0.962900	0.067100
H2041	H204	0.110500	0.994300	0.074200
N521	N52	0.335000	0.208100	0.225880
C4621	C462	0.318900	0.224800	0.251200
H2051	H205	0.309900	0.202800	0.265400
C4631	C463	0.380200	0.125300	0.232370
H2061	H206	0.394000	0.138200	0.248300
C4641	C464	0.026200	0.996600	0.035660
H2071	H207	0.048500	0.024500	0.030400
C4651	C465	0.393600	0.075700	0.223590
C4661	C466	0.324700	0.137400	0.195130
H2081	H208	0.300400	0.158000	0.185600
C4671	C467	0.346000	0.156300	0.217390
O2061	O206	0.444700	0.000500	0.228990
O2071	O207	0.252300	0.962500	0.095640
O2081	O208	0.447000	0.062100	0.260180
C4681	C468	0.430900	0.042100	0.238200
Zn271	Zn27	0.772880	0.439270	0.126640
O2091	O209	0.723100	0.407900	0.152290
C4691	C469	0.811800	0.676600	0.033230
O2101	O210	0.813600	0.482200	0.101500
N531	N53	0.958600	0.551500	0.044700
O2111	O211	0.667100	0.475800	0.153310
O2121	O212	0.834100	0.695000	0.013700
O2131	O213	0.772400	0.694100	0.044060
C4701	C470	0.835600	0.628600	0.045390
C4711	C471	0.805900	0.599100	0.062310
H2091	H209	0.771400	0.610200	0.066400
C4721	C472	0.661600	0.412700	0.186220
C4731	C473	0.685600	0.433700	0.162150
C4741	C474	0.792100	0.522400	0.091720
C4751	C475	0.627300	0.441400	0.199910
H2101	H210	0.616900	0.474500	0.193300
C4761	C476	0.885400	0.612800	0.038930
H2111	H211	0.905900	0.632500	0.027000
C4771	C477	0.825300	0.553900	0.073340
C4781	C478	0.905200	0.567300	0.050250
C4791	C479	0.875800	0.537100	0.067100
H2121	H212	0.889500	0.505700	0.074200
N541	N54	0.665000	0.291900	0.225880
C4801	C480	0.681100	0.275200	0.251200
H2131	H213	0.690100	0.297200	0.265400
C4811	C481	0.619800	0.374700	0.232370
H2141	H214	0.606000	0.361800	0.248300
C4821	C482	0.973800	0.503400	0.035660
H2151	H215	0.951500	0.475500	0.030400
C4831	C483	0.606400	0.424300	0.223590
C4841	C484	0.675300	0.362600	0.195130
H2161	H216	0.699600	0.342000	0.185600
C4851	C485	0.654000	0.343700	0.217390
O2141	O214	0.555300	0.499500	0.228990
O2151	O215	0.747700	0.537500	0.095640
O2161	O216	0.553000	0.437900	0.260180
C4861	C486	0.569100	0.457900	0.238200
Zn281	Zn28	0.272880	0.939270	0.626640
O2171	O217	0.223100	0.907900	0.652290
C4871	C487	0.311800	0.176600	0.533230
O2181	O218	0.313600	0.982200	0.601500
N551	N55	0.458600	0.051500	0.544700
O2191	O219	0.167100	0.975800	0.653310
O2201	O220	0.334100	0.195000	0.513700
O2211	O221	0.272400	0.194100	0.544060
C4881	C488	0.335600	0.128600	0.545390
C4891	C489	0.305900	0.099100	0.562310
H2171	H217	0.271400	0.110200	0.566400
C4901	C490	0.161600	0.912700	0.686220
C4911	C491	0.185600	0.933700	0.662150
C4921	C492	0.292100	0.022400	0.591720
C4931	C493	0.127300	0.941400	0.699910
H2181	H218	0.116900	0.974500	0.693300
C4941	C494	0.385400	0.112800	0.538930
H2191	H219	0.405900	0.132500	0.527000
C4951	C495	0.325300	0.053900	0.573340
C4961	C496	0.405200	0.067300	0.550250
C4971	C497	0.375800	0.037100	0.567100
H2201	H220	0.389500	0.005700	0.574200
N561	N56	0.165000	0.791900	0.725880
C4981	C498	0.181100	0.775200	0.751200
H2211	H221	0.190100	0.797200	0.765400
C4991	C499	0.119800	0.874700	0.732370
H2221	H222	0.106000	0.861800	0.748300
C5001	C500	0.473800	0.003400	0.535660
H2231	H223	0.451500	0.975500	0.530400
C5011	C501	0.106400	0.924300	0.723590
C5021	C502	0.175300	0.862600	0.695130
H2241	H224	0.199600	0.842000	0.685600
C5031	C503	0.154000	0.843700	0.717390
O2221	O222	0.055300	0.999500	0.728990
O2231	O223	0.247700	0.037500	0.595640
O2241	O224	0.053000	0.937900	0.760180
C5041	C504	0.069100	0.957900	0.738200
Zn291	Zn29	0.310730	0.022880	0.876640
O2251	O225	0.342100	0.973100	0.902290
C5051	C505	0.073400	0.061800	0.783230
O2261	O226	0.267800	0.063600	0.851500
N571	N57	0.198500	0.208600	0.794700
O2271	O227	0.274200	0.917100	0.903310
O2281	O228	0.055000	0.084100	0.763700
O2291	O229	0.055900	0.022400	0.794060
C5061	C506	0.121400	0.085600	0.795390
C5071	C507	0.150900	0.055900	0.812310
H2251	H225	0.139800	0.021400	0.816400
C5081	C508	0.337300	0.911600	0.936220
C5091	C509	0.316300	0.935600	0.912150
C5101	C510	0.227600	0.042100	0.841720
C5111	C511	0.308600	0.877300	0.949910
H2261	H226	0.275500	0.866900	0.943300
C5121	C512	0.137200	0.135400	0.788930
H2271	H227	0.117500	0.155900	0.777000
C5131	C513	0.196100	0.075300	0.823340
C5141	C514	0.182700	0.155200	0.800250
C5151	C515	0.212900	0.125800	0.817100
H2281	H228	0.244300	0.139500	0.824200
N581	N58	0.458100	0.915000	0.975880
C5161	C516	0.474800	0.931100	0.001200
H2291	H229	0.452800	0.940100	0.015400
C5171	C517	0.375300	0.869800	0.982370
H2301	H230	0.388200	0.856000	0.998300
C5181	C518	0.246600	0.223800	0.785660
H2311	H231	0.274500	0.201500	0.780400
C5191	C519	0.325700	0.856400	0.973590
C5201	C520	0.387400	0.925300	0.945130
H2321	H232	0.408000	0.949600	0.935600
C5211	C521	0.406300	0.904000	0.967390
O2301	O230	0.250500	0.805300	0.978990
O2311	O231	0.212500	0.997700	0.845640
O2321	O232	0.312100	0.803000	0.010180
C5221	C522	0.292100	0.819100	0.988200
Zn301	Zn30	0.810730	0.522880	0.376640
O2331	O233	0.842100	0.473100	0.402290
C5231	C523	0.573400	0.561800	0.283230
O2341	O234	0.767800	0.563600	0.351500
N591	N59	0.698500	0.708600	0.294700
O2351	O235	0.774200	0.417100	0.403310
O2361	O236	0.555000	0.584100	0.263700
O2371	O237	0.555900	0.522400	0.294060
C5241	C524	0.621400	0.585600	0.295390
C5251	C525	0.650900	0.555900	0.312310
H2331	H233	0.639800	0.521400	0.316400
C5261	C526	0.837300	0.411600	0.436220
C5271	C527	0.816300	0.435600	0.412150
C5281	C528	0.727600	0.542100	0.341720
C5291	C529	0.808600	0.377300	0.449910
H2341	H234	0.775500	0.366900	0.443300
C5301	C530	0.637200	0.635400	0.288930
H2351	H235	0.617500	0.655900	0.277000
C5311	C531	0.696100	0.575300	0.323340
C5321	C532	0.682700	0.655200	0.300250
C5331	C533	0.712900	0.625800	0.317100
H2361	H236	0.744300	0.639500	0.324200
N601	N60	0.958100	0.415000	0.475880
C5341	C534	0.974800	0.431100	0.501200
H2371	H237	0.952800	0.440100	0.515400
C5351	C535	0.875300	0.369800	0.482370
H2381	H238	0.888200	0.356000	0.498300
C5361	C536	0.746600	0.723800	0.285660
H2391	H239	0.774500	0.701500	0.280400
C5371	C537	0.825700	0.356400	0.473590
C5381	C538	0.887400	0.425300	0.445130
H2401	H240	0.908000	0.449600	0.435600
C5391	C539	0.906300	0.404000	0.467390
O2381	O238	0.750500	0.305300	0.478990
O2391	O239	0.712500	0.497700	0.345640
O2401	O240	0.812100	0.303000	0.510180
C5401	C540	0.792100	0.319100	0.488200
Zn311	Zn31	0.189270	0.977120	0.376640
O2411	O241	0.157900	0.026900	0.402290
C5411	C541	0.426600	0.938200	0.283230
O2421	O242	0.232200	0.936400	0.351500
N611	N61	0.301500	0.791400	0.294700
O2431	O243	0.225800	0.082900	0.403310
O2441	O244	0.445000	0.915900	0.263700
O2451	O245	0.444100	0.977600	0.294060
C5421	C542	0.378600	0.914400	0.295390
C5431	C543	0.349100	0.944100	0.312310
H2411	H241	0.360200	0.978600	0.316400
C5441	C544	0.162700	0.088400	0.436220
C5451	C545	0.183700	0.064400	0.412150
C5461	C546	0.272400	0.957900	0.341720
C5471	C547	0.191400	0.122700	0.449910
H2421	H242	0.224500	0.133100	0.443300
C5481	C548	0.362800	0.864600	0.288930
H2431	H243	0.382500	0.844100	0.277000
C5491	C549	0.303900	0.924700	0.323340
C5501	C550	0.317300	0.844800	0.300250
C5511	C551	0.287100	0.874200	0.317100
H2441	H244	0.255700	0.860500	0.324200
N621	N62	0.041900	0.085000	0.475880
C5521	C552	0.025200	0.068900	0.501200
H2451	H245	0.047200	0.059900	0.515400
C5531	C553	0.124700	0.130200	0.482370
H2461	H246	0.111800	0.144000	0.498300
C5541	C554	0.253400	0.776200	0.285660
H2471	H247	0.225500	0.798500	0.280400
C5551	C555	0.174300	0.143600	0.473590
C5561	C556	0.112600	0.074700	0.445130
H2481	H248	0.092000	0.050400	0.435600
C5571	C557	0.093700	0.096000	0.467390
O2461	O246	0.249500	0.194700	0.478990
O2471	O247	0.287500	0.002300	0.345640
O2481	O248	0.187900	0.197000	0.510180
C5581	C558	0.207900	0.180900	0.488200
Zn321	Zn32	0.689270	0.477120	0.876640
O2491	O249	0.657900	0.526900	0.902290
C5591	C559	0.926600	0.438200	0.783230
O2501	O250	0.732200	0.436400	0.851500
N631	N63	0.801500	0.291400	0.794700
O2511	O251	0.725800	0.582900	0.903310
O2521	O252	0.945000	0.415900	0.763700
O2531	O253	0.944100	0.477600	0.794060
C5601	C560	0.878600	0.414400	0.795390
C5611	C561	0.849100	0.444100	0.812310
H2491	H249	0.860200	0.478600	0.816400
C5621	C562	0.662700	0.588400	0.936220
C5631	C563	0.683700	0.564400	0.912150
C5641	C564	0.772400	0.457900	0.841720
C5651	C565	0.691400	0.622700	0.949910
H2501	H250	0.724500	0.633100	0.943300
C5661	C566	0.862800	0.364600	0.788930
H2511	H251	0.882500	0.344100	0.777000
C5671	C567	0.803900	0.424700	0.823340
C5681	C568	0.817300	0.344800	0.800250
C5691	C569	0.787100	0.374200	0.817100
H2521	H252	0.755700	0.360500	0.824200
N641	N64	0.541900	0.585000	0.975880
C5701	C570	0.525200	0.568900	0.001200
H2531	H253	0.547200	0.559900	0.015400
C5711	C571	0.624700	0.630200	0.982370
H2541	H254	0.611800	0.644000	0.998300
C5721	C572	0.753400	0.276200	0.785660
H2551	H255	0.725500	0.298500	0.780400
C5731	C573	0.674300	0.643600	0.973590
C5741	C574	0.612600	0.574700	0.945130
H2561	H256	0.592000	0.550400	0.935600
C5751	C575	0.593700	0.596000	0.967390
O2541	O254	0.749500	0.694700	0.978990
O2551	O255	0.787500	0.502300	0.845640
O2561	O256	0.687900	0.697000	0.010180
C5761	C576	0.707900	0.680900	0.988200
Zn331	Zn33	0.279000	0.750000	0.033250
Zn341	Zn34	0.197840	0.750000	0.990770
Zn351	Zn35	0.221000	0.250000	0.533250
Zn361	Zn36	0.302160	0.250000	0.490770
Zn371	Zn37	0.500000	0.029000	0.283250
Zn381	Zn38	0.500000	0.947840	0.240770
Zn391	Zn39	0.000000	0.529000	0.783250
Zn401	Zn40	0.000000	0.447840	0.740770
Zn411	Zn41	0.000000	0.971000	0.783250
Zn421	Zn42	0.000000	0.052160	0.740770
Zn431	Zn43	0.500000	0.471000	0.283250
Zn441	Zn44	0.500000	0.552160	0.240770
Zn451	Zn45	0.221000	0.750000	0.466750
Zn461	Zn46	0.302160	0.750000	0.509230
Zn471	Zn47	0.279000	0.250000	0.966750
Zn481	Zn48	0.197840	0.250000	0.009230
Zn491	Zn49	0.000000	0.029000	0.216750
Zn501	Zn50	0.000000	0.947840	0.259230
Zn511	Zn51	0.500000	0.529000	0.716750
Zn521	Zn52	0.500000	0.447840	0.759230
Zn531	Zn53	0.500000	0.971000	0.716750
Zn541	Zn54	0.500000	0.052160	0.759230
Zn551	Zn55	0.000000	0.471000	0.216750
Zn561	Zn56	0.000000	0.552160	0.259230
Zn571	Zn57	0.721000	0.250000	0.966750
Zn581	Zn58	0.802160	0.250000	0.009230
Zn591	Zn59	0.779000	0.750000	0.466750
Zn601	Zn60	0.697840	0.750000	0.509230
Zn611	Zn61	0.779000	0.250000	0.533250
Zn621	Zn62	0.697840	0.250000	0.490770
Zn631	Zn63	0.721000	0.750000	0.033250
Zn641	Zn64	0.802160	0.750000	0.990770
C5771	C577	0.344500	0.250000	0.211500
H2571	H257	0.356100	0.250000	0.194000
C5781	C578	0.155500	0.750000	0.711500
H2581	H258	0.143900	0.750000	0.694000
C5791	C579	0.000000	0.094500	0.461500
H2591	H259	0.000000	0.106100	0.444000
C5801	C580	0.500000	0.594500	0.961500
H2601	H260	0.500000	0.606100	0.944000
C5811	C581	0.500000	0.905500	0.961500
H2611	H261	0.500000	0.893900	0.944000
C5821	C582	0.000000	0.405500	0.461500
H2621	H262	0.000000	0.393900	0.444000
C5831	C583	0.155500	0.250000	0.288500
H2631	H263	0.143900	0.250000	0.306000
C5841	C584	0.344500	0.750000	0.788500
H2641	H264	0.356100	0.750000	0.806000
C5851	C585	0.844500	0.250000	0.288500
H2651	H265	0.856100	0.250000	0.306000
C5861	C586	0.500000	0.094500	0.038500
H2661	H266	0.500000	0.106100	0.056000
C5871	C587	0.000000	0.594500	0.538500
H2671	H267	0.000000	0.606100	0.556000
C5881	C588	0.000000	0.905500	0.538500
H2681	H268	0.000000	0.893900	0.556000
C5891	C589	0.500000	0.405500	0.038500
H2691	H269	0.500000	0.393900	0.056000
C5901	C590	0.655500	0.750000	0.788500
H2701	H270	0.643900	0.750000	0.806000
C5911	C591	0.844500	0.750000	0.711500
H2711	H271	0.856100	0.750000	0.694000
C5921	C592	0.655500	0.250000	0.211500
H2721	H272	0.643900	0.250000	0.194000
C5931	C593	0.000000	0.579400	0.050400
H2731	H273	0.000000	0.613700	0.057500
C5941	C594	0.500000	0.079400	0.550400
H2741	H274	0.500000	0.113700	0.557500
C5951	C595	0.500000	0.420600	0.550400
H2751	H275	0.500000	0.386300	0.557500
C5961	C596	0.000000	0.920600	0.050400
H2761	H276	0.000000	0.886300	0.057500
C5971	C597	0.670600	0.750000	0.300400
H2771	H277	0.636300	0.750000	0.307500
C5981	C598	0.829400	0.250000	0.800400
H2781	H278	0.863700	0.250000	0.807500
C5991	C599	0.500000	0.579400	0.449600
H2791	H279	0.500000	0.613700	0.442500
C6001	C600	0.000000	0.079400	0.949600
H2801	H280	0.000000	0.113700	0.942500
C6011	C601	0.000000	0.420600	0.949600
H2811	H281	0.000000	0.386300	0.942500
C6021	C602	0.500000	0.920600	0.449600
H2821	H282	0.500000	0.886300	0.442500
C6031	C603	0.829400	0.750000	0.199600
H2831	H283	0.863700	0.750000	0.192500
C6041	C604	0.670600	0.250000	0.699600
H2841	H284	0.636300	0.250000	0.692500
C6051	C605	0.329400	0.250000	0.699600
H2851	H285	0.363700	0.250000	0.692500
C6061	C606	0.170600	0.750000	0.199600
H2861	H286	0.136300	0.750000	0.192500
C6071	C607	0.170600	0.250000	0.800400
H2871	H287	0.136300	0.250000	0.807500
C6081	C608	0.329400	0.750000	0.300400
H2881	H288	0.363700	0.750000	0.307500
