data_WOYJOL_clean_PM
_symmetry_space_group_name_H-M	'P1'
_cell_length_a	25.411700
_cell_length_b	25.411700
_cell_length_c	52.162000
_cell_angle_alpha	90.000000
_cell_angle_beta	90.000000
_cell_angle_gamma	90.000000
_symmetry_Int_Tables_number 1

loop_
_symmetry_equiv_pos_as_xyz
'x,y,z'

loop_
_atom_site_label
_atom_site_type_symbol
_atom_site_fract_x
_atom_site_fract_y
_atom_site_fract_z
Cu11	Cu1	0.223380	0.451680	0.126140
O11	O1	0.200180	0.498790	0.154650
O21	O2	0.054030	0.580120	0.241140
O31	O3	0.054020	0.516810	0.211260
O41	O4	0.053470	0.437080	0.246050
O51	O5	0.054130	0.498740	0.276330
C11	C1	0.216530	0.544180	0.158770
C21	C2	0.166580	0.415100	0.317000
C31	C3	0.188530	0.575930	0.178160
C41	C4	0.143490	0.556200	0.189930
H11	H1	0.130800	0.522600	0.184900
C51	C5	0.117110	0.583010	0.208260
C61	C6	0.071280	0.558520	0.221310
C71	C7	0.069130	0.455810	0.266630
C81	C8	0.108100	0.424410	0.281530
C91	C9	0.120570	0.375070	0.273850
H21	H2	0.104600	0.360200	0.259100
C101	C10	0.157220	0.346390	0.288060
C111	C11	0.179410	0.366080	0.309390
H31	H3	0.203800	0.345700	0.319000
C121	C12	0.130540	0.444310	0.303370
H41	H4	0.121100	0.478500	0.309100
N11	N1	0.166840	0.292480	0.280250
C131	C13	0.180800	0.276260	0.255380
H51	H5	0.188700	0.298500	0.241300
C141	C14	0.133810	0.633910	0.214700
H61	H6	0.116100	0.653800	0.227500
C151	C15	0.176480	0.654150	0.201970
C161	C16	0.204240	0.626470	0.184100
H71	H7	0.233900	0.641700	0.175900
N21	N2	0.193220	0.708350	0.207250
C171	C17	0.242110	0.723470	0.214780
H81	H8	0.270700	0.701100	0.219200
C181	C18	0.193130	0.440370	0.339900
O61	O6	0.231260	0.416110	0.349560
O71	O7	0.175180	0.483850	0.347280
O81	O8	0.255380	0.565880	0.147830
Cu21	Cu2	0.723380	0.951680	0.626140
O91	O9	0.700180	0.998790	0.654650
O101	O10	0.554030	0.080120	0.741140
O111	O11	0.554020	0.016810	0.711260
O121	O12	0.553470	0.937080	0.746050
O131	O13	0.554130	0.998740	0.776330
C191	C19	0.716530	0.044180	0.658770
C201	C20	0.666580	0.915100	0.817000
C211	C21	0.688530	0.075930	0.678160
C221	C22	0.643490	0.056200	0.689930
H91	H9	0.630800	0.022600	0.684900
C231	C23	0.617110	0.083010	0.708260
C241	C24	0.571280	0.058520	0.721310
C251	C25	0.569130	0.955810	0.766630
C261	C26	0.608100	0.924410	0.781530
C271	C27	0.620570	0.875070	0.773850
H101	H10	0.604600	0.860200	0.759100
C281	C28	0.657220	0.846390	0.788060
C291	C29	0.679410	0.866080	0.809390
H111	H11	0.703800	0.845700	0.819000
C301	C30	0.630540	0.944310	0.803370
H121	H12	0.621100	0.978500	0.809100
N31	N3	0.666840	0.792480	0.780250
C311	C31	0.680800	0.776260	0.755380
H131	H13	0.688700	0.798500	0.741300
C321	C32	0.633810	0.133910	0.714700
H141	H14	0.616100	0.153800	0.727500
C331	C33	0.676480	0.154150	0.701970
C341	C34	0.704240	0.126470	0.684100
H151	H15	0.733900	0.141700	0.675900
N41	N4	0.693220	0.208350	0.707250
C351	C35	0.742110	0.223470	0.714780
H161	H16	0.770700	0.201100	0.719200
C361	C36	0.693130	0.940370	0.839900
O141	O14	0.731260	0.916110	0.849560
O151	O15	0.675180	0.983850	0.847280
O161	O16	0.755380	0.065880	0.647830
Cu31	Cu3	0.276620	0.548320	0.626140
O171	O17	0.299820	0.501210	0.654650
O181	O18	0.445970	0.419880	0.741140
O191	O19	0.445980	0.483190	0.711260
O201	O20	0.446530	0.562920	0.746050
O211	O21	0.445870	0.501260	0.776330
C371	C37	0.283470	0.455820	0.658770
C381	C38	0.333420	0.584900	0.817000
C391	C39	0.311470	0.424070	0.678160
C401	C40	0.356510	0.443800	0.689930
H171	H17	0.369200	0.477400	0.684900
C411	C41	0.382890	0.416990	0.708260
C421	C42	0.428720	0.441480	0.721310
C431	C43	0.430870	0.544190	0.766630
C441	C44	0.391900	0.575590	0.781530
C451	C45	0.379430	0.624930	0.773850
H181	H18	0.395400	0.639800	0.759100
C461	C46	0.342780	0.653610	0.788060
C471	C47	0.320590	0.633920	0.809390
H191	H19	0.296200	0.654300	0.819000
C481	C48	0.369460	0.555690	0.803370
H201	H20	0.378900	0.521500	0.809100
N51	N5	0.333160	0.707520	0.780250
C491	C49	0.319200	0.723740	0.755380
H211	H21	0.311300	0.701500	0.741300
C501	C50	0.366190	0.366090	0.714700
H221	H22	0.383900	0.346200	0.727500
C511	C51	0.323520	0.345850	0.701970
C521	C52	0.295760	0.373530	0.684100
H231	H23	0.266100	0.358300	0.675900
N61	N6	0.306780	0.291650	0.707250
C531	C53	0.257890	0.276530	0.714780
H241	H24	0.229300	0.298900	0.719200
C541	C54	0.306870	0.559630	0.839900
O221	O22	0.268740	0.583890	0.849560
O231	O23	0.324820	0.516150	0.847280
O241	O24	0.244620	0.434120	0.647830
Cu41	Cu4	0.776620	0.048320	0.126140
O251	O25	0.799820	0.001210	0.154650
O261	O26	0.945970	0.919880	0.241140
O271	O27	0.945980	0.983190	0.211260
O281	O28	0.946530	0.062920	0.246050
O291	O29	0.945870	0.001260	0.276330
C551	C55	0.783470	0.955820	0.158770
C561	C56	0.833420	0.084900	0.317000
C571	C57	0.811470	0.924070	0.178160
C581	C58	0.856510	0.943800	0.189930
H251	H25	0.869200	0.977400	0.184900
C591	C59	0.882890	0.916990	0.208260
C601	C60	0.928720	0.941480	0.221310
C611	C61	0.930870	0.044190	0.266630
C621	C62	0.891900	0.075590	0.281530
C631	C63	0.879430	0.124930	0.273850
H261	H26	0.895400	0.139800	0.259100
C641	C64	0.842780	0.153610	0.288060
C651	C65	0.820590	0.133920	0.309390
H271	H27	0.796200	0.154300	0.319000
C661	C66	0.869460	0.055690	0.303370
H281	H28	0.878900	0.021500	0.309100
N71	N7	0.833160	0.207520	0.280250
C671	C67	0.819200	0.223740	0.255380
H291	H29	0.811300	0.201500	0.241300
C681	C68	0.866190	0.866090	0.214700
H301	H30	0.883900	0.846200	0.227500
C691	C69	0.823520	0.845850	0.201970
C701	C70	0.795760	0.873530	0.184100
H311	H31	0.766100	0.858300	0.175900
N81	N8	0.806780	0.791650	0.207250
C711	C71	0.757890	0.776530	0.214780
H321	H32	0.729300	0.798900	0.219200
C721	C72	0.806870	0.059630	0.339900
O301	O30	0.768740	0.083890	0.349560
O311	O31	0.824820	0.016150	0.347280
O321	O32	0.744620	0.934120	0.147830
Cu51	Cu5	0.798320	0.973380	0.376140
O331	O33	0.751210	0.950180	0.404650
O341	O34	0.669880	0.804030	0.491140
O351	O35	0.733190	0.804020	0.461260
O361	O36	0.812920	0.803470	0.496050
O371	O37	0.751260	0.804130	0.526330
C731	C73	0.705820	0.966530	0.408770
C741	C74	0.834900	0.916580	0.567000
C751	C75	0.674070	0.938530	0.428160
C761	C76	0.693800	0.893490	0.439930
H331	H33	0.727400	0.880800	0.434900
C771	C77	0.666990	0.867110	0.458260
C781	C78	0.691480	0.821280	0.471310
C791	C79	0.794190	0.819130	0.516630
C801	C80	0.825590	0.858100	0.531530
C811	C81	0.874930	0.870570	0.523850
H341	H34	0.889800	0.854600	0.509100
C821	C82	0.903610	0.907220	0.538060
C831	C83	0.883920	0.929410	0.559390
H351	H35	0.904300	0.953800	0.569000
C841	C84	0.805690	0.880540	0.553370
H361	H36	0.771500	0.871100	0.559100
N91	N9	0.957520	0.916840	0.530250
C851	C85	0.973740	0.930800	0.505380
H371	H37	0.951500	0.938700	0.491300
C861	C86	0.616090	0.883810	0.464700
H381	H38	0.596200	0.866100	0.477500
C871	C87	0.595850	0.926480	0.451970
C881	C88	0.623530	0.954240	0.434100
H391	H39	0.608300	0.983900	0.425900
N101	N10	0.541650	0.943220	0.457250
C891	C89	0.526530	0.992110	0.464780
H401	H40	0.548900	0.020700	0.469200
C901	C90	0.809630	0.943130	0.589900
O381	O38	0.833890	0.981260	0.599560
O391	O39	0.766150	0.925180	0.597280
O401	O40	0.684120	0.005380	0.397830
Cu61	Cu6	0.298320	0.473380	0.876140
O411	O41	0.251210	0.450180	0.904650
O421	O42	0.169880	0.304030	0.991140
O431	O43	0.233190	0.304020	0.961260
O441	O44	0.312920	0.303470	0.996050
O451	O45	0.251260	0.304130	0.026330
C911	C91	0.205820	0.466530	0.908770
C921	C92	0.334900	0.416580	0.067000
C931	C93	0.174070	0.438530	0.928160
C941	C94	0.193800	0.393490	0.939930
H411	H41	0.227400	0.380800	0.934900
C951	C95	0.166990	0.367110	0.958260
C961	C96	0.191480	0.321280	0.971310
C971	C97	0.294190	0.319130	0.016630
C981	C98	0.325590	0.358100	0.031530
C991	C99	0.374930	0.370570	0.023850
H421	H42	0.389800	0.354600	0.009100
C1001	C100	0.403610	0.407220	0.038060
C1011	C101	0.383920	0.429410	0.059390
H431	H43	0.404300	0.453800	0.069000
C1021	C102	0.305690	0.380540	0.053370
H441	H44	0.271500	0.371100	0.059100
N111	N11	0.457520	0.416840	0.030250
C1031	C103	0.473740	0.430800	0.005380
H451	H45	0.451500	0.438700	0.991300
C1041	C104	0.116090	0.383810	0.964700
H461	H46	0.096200	0.366100	0.977500
C1051	C105	0.095850	0.426480	0.951970
C1061	C106	0.123530	0.454240	0.934100
H471	H47	0.108300	0.483900	0.925900
N121	N12	0.041650	0.443220	0.957250
C1071	C107	0.026530	0.492110	0.964780
H481	H48	0.048900	0.520700	0.969200
C1081	C108	0.309630	0.443130	0.089900
O461	O46	0.333890	0.481260	0.099560
O471	O47	0.266150	0.425180	0.097280
O481	O48	0.184120	0.505380	0.897830
Cu71	Cu7	0.701680	0.026620	0.876140
O491	O49	0.748790	0.049820	0.904650
O501	O50	0.830120	0.195970	0.991140
O511	O51	0.766810	0.195980	0.961260
O521	O52	0.687080	0.196530	0.996050
O531	O53	0.748740	0.195870	0.026330
C1091	C109	0.794180	0.033470	0.908770
C1101	C110	0.665100	0.083420	0.067000
C1111	C111	0.825930	0.061470	0.928160
C1121	C112	0.806200	0.106510	0.939930
H491	H49	0.772600	0.119200	0.934900
C1131	C113	0.833010	0.132890	0.958260
C1141	C114	0.808520	0.178720	0.971310
C1151	C115	0.705810	0.180870	0.016630
C1161	C116	0.674410	0.141900	0.031530
C1171	C117	0.625070	0.129430	0.023850
H501	H50	0.610200	0.145400	0.009100
C1181	C118	0.596390	0.092780	0.038060
C1191	C119	0.616080	0.070590	0.059390
H511	H51	0.595700	0.046200	0.069000
C1201	C120	0.694310	0.119460	0.053370
H521	H52	0.728500	0.128900	0.059100
N131	N13	0.542480	0.083160	0.030250
C1211	C121	0.526260	0.069200	0.005380
H531	H53	0.548500	0.061300	0.991300
C1221	C122	0.883910	0.116190	0.964700
H541	H54	0.903800	0.133900	0.977500
C1231	C123	0.904150	0.073520	0.951970
C1241	C124	0.876470	0.045760	0.934100
H551	H55	0.891700	0.016100	0.925900
N141	N14	0.958350	0.056780	0.957250
C1251	C125	0.973470	0.007890	0.964780
H561	H56	0.951100	0.979300	0.969200
C1261	C126	0.690370	0.056870	0.089900
O541	O54	0.666110	0.018740	0.099560
O551	O55	0.733850	0.074820	0.097280
O561	O56	0.815880	0.994620	0.897830
Cu81	Cu8	0.201680	0.526620	0.376140
O571	O57	0.248790	0.549820	0.404650
O581	O58	0.330120	0.695970	0.491140
O591	O59	0.266810	0.695980	0.461260
O601	O60	0.187080	0.696530	0.496050
O611	O61	0.248740	0.695870	0.526330
C1271	C127	0.294180	0.533470	0.408770
C1281	C128	0.165100	0.583420	0.567000
C1291	C129	0.325930	0.561470	0.428160
C1301	C130	0.306200	0.606510	0.439930
H571	H57	0.272600	0.619200	0.434900
C1311	C131	0.333010	0.632890	0.458260
C1321	C132	0.308520	0.678720	0.471310
C1331	C133	0.205810	0.680870	0.516630
C1341	C134	0.174410	0.641900	0.531530
C1351	C135	0.125070	0.629430	0.523850
H581	H58	0.110200	0.645400	0.509100
C1361	C136	0.096390	0.592780	0.538060
C1371	C137	0.116080	0.570590	0.559390
H591	H59	0.095700	0.546200	0.569000
C1381	C138	0.194310	0.619460	0.553370
H601	H60	0.228500	0.628900	0.559100
N151	N15	0.042480	0.583160	0.530250
C1391	C139	0.026260	0.569200	0.505380
H611	H61	0.048500	0.561300	0.491300
C1401	C140	0.383910	0.616190	0.464700
H621	H62	0.403800	0.633900	0.477500
C1411	C141	0.404150	0.573520	0.451970
C1421	C142	0.376470	0.545760	0.434100
H631	H63	0.391700	0.516100	0.425900
N161	N16	0.458350	0.556780	0.457250
C1431	C143	0.473470	0.507890	0.464780
H641	H64	0.451100	0.479300	0.469200
C1441	C144	0.190370	0.556870	0.589900
O621	O62	0.166110	0.518740	0.599560
O631	O63	0.233850	0.574820	0.597280
O641	O64	0.315880	0.494620	0.397830
Cu91	Cu9	0.276620	0.451680	0.373860
O651	O65	0.299820	0.498790	0.345350
O661	O66	0.445970	0.580120	0.258860
O671	O67	0.445980	0.516810	0.288740
O681	O68	0.446530	0.437080	0.253950
O691	O69	0.445870	0.498740	0.223670
C1451	C145	0.283470	0.544180	0.341230
C1461	C146	0.333420	0.415100	0.183000
C1471	C147	0.311470	0.575930	0.321840
C1481	C148	0.356510	0.556200	0.310070
H651	H65	0.369200	0.522600	0.315100
C1491	C149	0.382890	0.583010	0.291740
C1501	C150	0.428720	0.558520	0.278690
C1511	C151	0.430870	0.455810	0.233370
C1521	C152	0.391900	0.424410	0.218470
C1531	C153	0.379430	0.375070	0.226150
H661	H66	0.395400	0.360200	0.240900
C1541	C154	0.342780	0.346390	0.211940
C1551	C155	0.320590	0.366080	0.190610
H671	H67	0.296200	0.345700	0.181000
C1561	C156	0.369460	0.444310	0.196630
H681	H68	0.378900	0.478500	0.190900
N171	N17	0.333160	0.292480	0.219750
C1571	C157	0.319200	0.276260	0.244620
H691	H69	0.311300	0.298500	0.258700
C1581	C158	0.366190	0.633910	0.285300
H701	H70	0.383900	0.653800	0.272500
C1591	C159	0.323520	0.654150	0.298030
C1601	C160	0.295760	0.626470	0.315900
H711	H71	0.266100	0.641700	0.324100
N181	N18	0.306780	0.708350	0.292750
C1611	C161	0.257890	0.723470	0.285220
H721	H72	0.229300	0.701100	0.280800
C1621	C162	0.306870	0.440370	0.160100
O701	O70	0.268740	0.416110	0.150440
O711	O71	0.324820	0.483850	0.152720
O721	O72	0.244620	0.565880	0.352170
Cu101	Cu10	0.776620	0.951680	0.873860
O731	O73	0.799820	0.998790	0.845350
O741	O74	0.945970	0.080120	0.758860
O751	O75	0.945980	0.016810	0.788740
O761	O76	0.946530	0.937080	0.753950
O771	O77	0.945870	0.998740	0.723670
C1631	C163	0.783470	0.044180	0.841230
C1641	C164	0.833420	0.915100	0.683000
C1651	C165	0.811470	0.075930	0.821840
C1661	C166	0.856510	0.056200	0.810070
H731	H73	0.869200	0.022600	0.815100
C1671	C167	0.882890	0.083010	0.791740
C1681	C168	0.928720	0.058520	0.778690
C1691	C169	0.930870	0.955810	0.733370
C1701	C170	0.891900	0.924410	0.718470
C1711	C171	0.879430	0.875070	0.726150
H741	H74	0.895400	0.860200	0.740900
C1721	C172	0.842780	0.846390	0.711940
C1731	C173	0.820590	0.866080	0.690610
H751	H75	0.796200	0.845700	0.681000
C1741	C174	0.869460	0.944310	0.696630
H761	H76	0.878900	0.978500	0.690900
N191	N19	0.833160	0.792480	0.719750
C1751	C175	0.819200	0.776260	0.744620
H771	H77	0.811300	0.798500	0.758700
C1761	C176	0.866190	0.133910	0.785300
H781	H78	0.883900	0.153800	0.772500
C1771	C177	0.823520	0.154150	0.798030
C1781	C178	0.795760	0.126470	0.815900
H791	H79	0.766100	0.141700	0.824100
N201	N20	0.806780	0.208350	0.792750
C1791	C179	0.757890	0.223470	0.785220
H801	H80	0.729300	0.201100	0.780800
C1801	C180	0.806870	0.940370	0.660100
O781	O78	0.768740	0.916110	0.650440
O791	O79	0.824820	0.983850	0.652720
O801	O80	0.744620	0.065880	0.852170
Cu111	Cu11	0.223380	0.548320	0.873860
O811	O81	0.200180	0.501210	0.845350
O821	O82	0.054030	0.419880	0.758860
O831	O83	0.054020	0.483190	0.788740
O841	O84	0.053470	0.562920	0.753950
O851	O85	0.054130	0.501260	0.723670
C1811	C181	0.216530	0.455820	0.841230
C1821	C182	0.166580	0.584900	0.683000
C1831	C183	0.188530	0.424070	0.821840
C1841	C184	0.143490	0.443800	0.810070
H811	H81	0.130800	0.477400	0.815100
C1851	C185	0.117110	0.416990	0.791740
C1861	C186	0.071280	0.441480	0.778690
C1871	C187	0.069130	0.544190	0.733370
C1881	C188	0.108100	0.575590	0.718470
C1891	C189	0.120570	0.624930	0.726150
H821	H82	0.104600	0.639800	0.740900
C1901	C190	0.157220	0.653610	0.711940
C1911	C191	0.179410	0.633920	0.690610
H831	H83	0.203800	0.654300	0.681000
C1921	C192	0.130540	0.555690	0.696630
H841	H84	0.121100	0.521500	0.690900
N211	N21	0.166840	0.707520	0.719750
C1931	C193	0.180800	0.723740	0.744620
H851	H85	0.188700	0.701500	0.758700
C1941	C194	0.133810	0.366090	0.785300
H861	H86	0.116100	0.346200	0.772500
C1951	C195	0.176480	0.345850	0.798030
C1961	C196	0.204240	0.373530	0.815900
H871	H87	0.233900	0.358300	0.824100
N221	N22	0.193220	0.291650	0.792750
C1971	C197	0.242110	0.276530	0.785220
H881	H88	0.270700	0.298900	0.780800
C1981	C198	0.193130	0.559630	0.660100
O861	O86	0.231260	0.583890	0.650440
O871	O87	0.175180	0.516150	0.652720
O881	O88	0.255380	0.434120	0.852170
Cu121	Cu12	0.723380	0.048320	0.373860
O891	O89	0.700180	0.001210	0.345350
O901	O90	0.554030	0.919880	0.258860
O911	O91	0.554020	0.983190	0.288740
O921	O92	0.553470	0.062920	0.253950
O931	O93	0.554130	0.001260	0.223670
C1991	C199	0.716530	0.955820	0.341230
C2001	C200	0.666580	0.084900	0.183000
C2011	C201	0.688530	0.924070	0.321840
C2021	C202	0.643490	0.943800	0.310070
H891	H89	0.630800	0.977400	0.315100
C2031	C203	0.617110	0.916990	0.291740
C2041	C204	0.571280	0.941480	0.278690
C2051	C205	0.569130	0.044190	0.233370
C2061	C206	0.608100	0.075590	0.218470
C2071	C207	0.620570	0.124930	0.226150
H901	H90	0.604600	0.139800	0.240900
C2081	C208	0.657220	0.153610	0.211940
C2091	C209	0.679410	0.133920	0.190610
H911	H91	0.703800	0.154300	0.181000
C2101	C210	0.630540	0.055690	0.196630
H921	H92	0.621100	0.021500	0.190900
N231	N23	0.666840	0.207520	0.219750
C2111	C211	0.680800	0.223740	0.244620
H931	H93	0.688700	0.201500	0.258700
C2121	C212	0.633810	0.866090	0.285300
H941	H94	0.616100	0.846200	0.272500
C2131	C213	0.676480	0.845850	0.298030
C2141	C214	0.704240	0.873530	0.315900
H951	H95	0.733900	0.858300	0.324100
N241	N24	0.693220	0.791650	0.292750
C2151	C215	0.742110	0.776530	0.285220
H961	H96	0.770700	0.798900	0.280800
C2161	C216	0.693130	0.059630	0.160100
O941	O94	0.731260	0.083890	0.150440
O951	O95	0.675180	0.016150	0.152720
O961	O96	0.755380	0.934120	0.352170
Cu131	Cu13	0.701680	0.973380	0.123860
O971	O97	0.748790	0.950180	0.095350
O981	O98	0.830120	0.804030	0.008860
O991	O99	0.766810	0.804020	0.038740
O1001	O100	0.687080	0.803470	0.003950
O1011	O101	0.748740	0.804130	0.973670
C2171	C217	0.794180	0.966530	0.091230
C2181	C218	0.665100	0.916580	0.933000
C2191	C219	0.825930	0.938530	0.071840
C2201	C220	0.806200	0.893490	0.060070
H971	H97	0.772600	0.880800	0.065100
C2211	C221	0.833010	0.867110	0.041740
C2221	C222	0.808520	0.821280	0.028690
C2231	C223	0.705810	0.819130	0.983370
C2241	C224	0.674410	0.858100	0.968470
C2251	C225	0.625070	0.870570	0.976150
H981	H98	0.610200	0.854600	0.990900
C2261	C226	0.596390	0.907220	0.961940
C2271	C227	0.616080	0.929410	0.940610
H991	H99	0.595700	0.953800	0.931000
C2281	C228	0.694310	0.880540	0.946630
H1001	H100	0.728500	0.871100	0.940900
N251	N25	0.542480	0.916840	0.969750
C2291	C229	0.526260	0.930800	0.994620
H1011	H101	0.548500	0.938700	0.008700
C2301	C230	0.883910	0.883810	0.035300
H1021	H102	0.903800	0.866100	0.022500
C2311	C231	0.904150	0.926480	0.048030
C2321	C232	0.876470	0.954240	0.065900
H1031	H103	0.891700	0.983900	0.074100
N261	N26	0.958350	0.943220	0.042750
C2331	C233	0.973470	0.992110	0.035220
H1041	H104	0.951100	0.020700	0.030800
C2341	C234	0.690370	0.943130	0.910100
O1021	O102	0.666110	0.981260	0.900440
O1031	O103	0.733850	0.925180	0.902720
O1041	O104	0.815880	0.005380	0.102170
Cu141	Cu14	0.201680	0.473380	0.623860
O1051	O105	0.248790	0.450180	0.595350
O1061	O106	0.330120	0.304030	0.508860
O1071	O107	0.266810	0.304020	0.538740
O1081	O108	0.187080	0.303470	0.503950
O1091	O109	0.248740	0.304130	0.473670
C2351	C235	0.294180	0.466530	0.591230
C2361	C236	0.165100	0.416580	0.433000
C2371	C237	0.325930	0.438530	0.571840
C2381	C238	0.306200	0.393490	0.560070
H1051	H105	0.272600	0.380800	0.565100
C2391	C239	0.333010	0.367110	0.541740
C2401	C240	0.308520	0.321280	0.528690
C2411	C241	0.205810	0.319130	0.483370
C2421	C242	0.174410	0.358100	0.468470
C2431	C243	0.125070	0.370570	0.476150
H1061	H106	0.110200	0.354600	0.490900
C2441	C244	0.096390	0.407220	0.461940
C2451	C245	0.116080	0.429410	0.440610
H1071	H107	0.095700	0.453800	0.431000
C2461	C246	0.194310	0.380540	0.446630
H1081	H108	0.228500	0.371100	0.440900
N271	N27	0.042480	0.416840	0.469750
C2471	C247	0.026260	0.430800	0.494620
H1091	H109	0.048500	0.438700	0.508700
C2481	C248	0.383910	0.383810	0.535300
H1101	H110	0.403800	0.366100	0.522500
C2491	C249	0.404150	0.426480	0.548030
C2501	C250	0.376470	0.454240	0.565900
H1111	H111	0.391700	0.483900	0.574100
N281	N28	0.458350	0.443220	0.542750
C2511	C251	0.473470	0.492110	0.535220
H1121	H112	0.451100	0.520700	0.530800
C2521	C252	0.190370	0.443130	0.410100
O1101	O110	0.166110	0.481260	0.400440
O1111	O111	0.233850	0.425180	0.402720
O1121	O112	0.315880	0.505380	0.602170
Cu151	Cu15	0.798320	0.026620	0.623860
O1131	O113	0.751210	0.049820	0.595350
O1141	O114	0.669880	0.195970	0.508860
O1151	O115	0.733190	0.195980	0.538740
O1161	O116	0.812920	0.196530	0.503950
O1171	O117	0.751260	0.195870	0.473670
C2531	C253	0.705820	0.033470	0.591230
C2541	C254	0.834900	0.083420	0.433000
C2551	C255	0.674070	0.061470	0.571840
C2561	C256	0.693800	0.106510	0.560070
H1131	H113	0.727400	0.119200	0.565100
C2571	C257	0.666990	0.132890	0.541740
C2581	C258	0.691480	0.178720	0.528690
C2591	C259	0.794190	0.180870	0.483370
C2601	C260	0.825590	0.141900	0.468470
C2611	C261	0.874930	0.129430	0.476150
H1141	H114	0.889800	0.145400	0.490900
C2621	C262	0.903610	0.092780	0.461940
C2631	C263	0.883920	0.070590	0.440610
H1151	H115	0.904300	0.046200	0.431000
C2641	C264	0.805690	0.119460	0.446630
H1161	H116	0.771500	0.128900	0.440900
N291	N29	0.957520	0.083160	0.469750
C2651	C265	0.973740	0.069200	0.494620
H1171	H117	0.951500	0.061300	0.508700
C2661	C266	0.616090	0.116190	0.535300
H1181	H118	0.596200	0.133900	0.522500
C2671	C267	0.595850	0.073520	0.548030
C2681	C268	0.623530	0.045760	0.565900
H1191	H119	0.608300	0.016100	0.574100
N301	N30	0.541650	0.056780	0.542750
C2691	C269	0.526530	0.007890	0.535220
H1201	H120	0.548900	0.979300	0.530800
C2701	C270	0.809630	0.056870	0.410100
O1181	O118	0.833890	0.018740	0.400440
O1191	O119	0.766150	0.074820	0.402720
O1201	O120	0.684120	0.994620	0.602170
Cu161	Cu16	0.298320	0.526620	0.123860
O1211	O121	0.251210	0.549820	0.095350
O1221	O122	0.169880	0.695970	0.008860
O1231	O123	0.233190	0.695980	0.038740
O1241	O124	0.312920	0.696530	0.003950
O1251	O125	0.251260	0.695870	0.973670
C2711	C271	0.205820	0.533470	0.091230
C2721	C272	0.334900	0.583420	0.933000
C2731	C273	0.174070	0.561470	0.071840
C2741	C274	0.193800	0.606510	0.060070
H1211	H121	0.227400	0.619200	0.065100
C2751	C275	0.166990	0.632890	0.041740
C2761	C276	0.191480	0.678720	0.028690
C2771	C277	0.294190	0.680870	0.983370
C2781	C278	0.325590	0.641900	0.968470
C2791	C279	0.374930	0.629430	0.976150
H1221	H122	0.389800	0.645400	0.990900
C2801	C280	0.403610	0.592780	0.961940
C2811	C281	0.383920	0.570590	0.940610
H1231	H123	0.404300	0.546200	0.931000
C2821	C282	0.305690	0.619460	0.946630
H1241	H124	0.271500	0.628900	0.940900
N311	N31	0.457520	0.583160	0.969750
C2831	C283	0.473740	0.569200	0.994620
H1251	H125	0.451500	0.561300	0.008700
C2841	C284	0.116090	0.616190	0.035300
H1261	H126	0.096200	0.633900	0.022500
C2851	C285	0.095850	0.573520	0.048030
C2861	C286	0.123530	0.545760	0.065900
H1271	H127	0.108300	0.516100	0.074100
N321	N32	0.041650	0.556780	0.042750
C2871	C287	0.026530	0.507890	0.035220
H1281	H128	0.048900	0.479300	0.030800
C2881	C288	0.309630	0.556870	0.910100
O1261	O126	0.333890	0.518740	0.900440
O1271	O127	0.266150	0.574820	0.902720
O1281	O128	0.184120	0.494620	0.102170
Cu171	Cu17	0.776620	0.548320	0.873860
O1291	O129	0.799820	0.501210	0.845350
O1301	O130	0.945970	0.419880	0.758860
O1311	O131	0.945980	0.483190	0.788740
O1321	O132	0.946530	0.562920	0.753950
O1331	O133	0.945870	0.501260	0.723670
C2891	C289	0.783470	0.455820	0.841230
C2901	C290	0.833420	0.584900	0.683000
C2911	C291	0.811470	0.424070	0.821840
C2921	C292	0.856510	0.443800	0.810070
H1291	H129	0.869200	0.477400	0.815100
C2931	C293	0.882890	0.416990	0.791740
C2941	C294	0.928720	0.441480	0.778690
C2951	C295	0.930870	0.544190	0.733370
C2961	C296	0.891900	0.575590	0.718470
C2971	C297	0.879430	0.624930	0.726150
H1301	H130	0.895400	0.639800	0.740900
C2981	C298	0.842780	0.653610	0.711940
C2991	C299	0.820590	0.633920	0.690610
H1311	H131	0.796200	0.654300	0.681000
C3001	C300	0.869460	0.555690	0.696630
H1321	H132	0.878900	0.521500	0.690900
N331	N33	0.833160	0.707520	0.719750
C3011	C301	0.819200	0.723740	0.744620
H1331	H133	0.811300	0.701500	0.758700
C3021	C302	0.866190	0.366090	0.785300
H1341	H134	0.883900	0.346200	0.772500
C3031	C303	0.823520	0.345850	0.798030
C3041	C304	0.795760	0.373530	0.815900
H1351	H135	0.766100	0.358300	0.824100
N341	N34	0.806780	0.291650	0.792750
C3051	C305	0.757890	0.276530	0.785220
H1361	H136	0.729300	0.298900	0.780800
C3061	C306	0.806870	0.559630	0.660100
O1341	O134	0.768740	0.583890	0.650440
O1351	O135	0.824820	0.516150	0.652720
O1361	O136	0.744620	0.434120	0.852170
Cu181	Cu18	0.276620	0.048320	0.373860
O1371	O137	0.299820	0.001210	0.345350
O1381	O138	0.445970	0.919880	0.258860
O1391	O139	0.445980	0.983190	0.288740
O1401	O140	0.446530	0.062920	0.253950
O1411	O141	0.445870	0.001260	0.223670
C3071	C307	0.283470	0.955820	0.341230
C3081	C308	0.333420	0.084900	0.183000
C3091	C309	0.311470	0.924070	0.321840
C3101	C310	0.356510	0.943800	0.310070
H1371	H137	0.369200	0.977400	0.315100
C3111	C311	0.382890	0.916990	0.291740
C3121	C312	0.428720	0.941480	0.278690
C3131	C313	0.430870	0.044190	0.233370
C3141	C314	0.391900	0.075590	0.218470
C3151	C315	0.379430	0.124930	0.226150
H1381	H138	0.395400	0.139800	0.240900
C3161	C316	0.342780	0.153610	0.211940
C3171	C317	0.320590	0.133920	0.190610
H1391	H139	0.296200	0.154300	0.181000
C3181	C318	0.369460	0.055690	0.196630
H1401	H140	0.378900	0.021500	0.190900
N351	N35	0.333160	0.207520	0.219750
C3191	C319	0.319200	0.223740	0.244620
H1411	H141	0.311300	0.201500	0.258700
C3201	C320	0.366190	0.866090	0.285300
H1421	H142	0.383900	0.846200	0.272500
C3211	C321	0.323520	0.845850	0.298030
C3221	C322	0.295760	0.873530	0.315900
H1431	H143	0.266100	0.858300	0.324100
N361	N36	0.306780	0.791650	0.292750
C3231	C323	0.257890	0.776530	0.285220
H1441	H144	0.229300	0.798900	0.280800
C3241	C324	0.306870	0.059630	0.160100
O1421	O142	0.268740	0.083890	0.150440
O1431	O143	0.324820	0.016150	0.152720
O1441	O144	0.244620	0.934120	0.352170
Cu191	Cu19	0.723380	0.451680	0.373860
O1451	O145	0.700180	0.498790	0.345350
O1461	O146	0.554030	0.580120	0.258860
O1471	O147	0.554020	0.516810	0.288740
O1481	O148	0.553470	0.437080	0.253950
O1491	O149	0.554130	0.498740	0.223670
C3251	C325	0.716530	0.544180	0.341230
C3261	C326	0.666580	0.415100	0.183000
C3271	C327	0.688530	0.575930	0.321840
C3281	C328	0.643490	0.556200	0.310070
H1451	H145	0.630800	0.522600	0.315100
C3291	C329	0.617110	0.583010	0.291740
C3301	C330	0.571280	0.558520	0.278690
C3311	C331	0.569130	0.455810	0.233370
C3321	C332	0.608100	0.424410	0.218470
C3331	C333	0.620570	0.375070	0.226150
H1461	H146	0.604600	0.360200	0.240900
C3341	C334	0.657220	0.346390	0.211940
C3351	C335	0.679410	0.366080	0.190610
H1471	H147	0.703800	0.345700	0.181000
C3361	C336	0.630540	0.444310	0.196630
H1481	H148	0.621100	0.478500	0.190900
N371	N37	0.666840	0.292480	0.219750
C3371	C337	0.680800	0.276260	0.244620
H1491	H149	0.688700	0.298500	0.258700
C3381	C338	0.633810	0.633910	0.285300
H1501	H150	0.616100	0.653800	0.272500
C3391	C339	0.676480	0.654150	0.298030
C3401	C340	0.704240	0.626470	0.315900
H1511	H151	0.733900	0.641700	0.324100
N381	N38	0.693220	0.708350	0.292750
C3411	C341	0.742110	0.723470	0.285220
H1521	H152	0.770700	0.701100	0.280800
C3421	C342	0.693130	0.440370	0.160100
O1501	O150	0.731260	0.416110	0.150440
O1511	O151	0.675180	0.483850	0.152720
O1521	O152	0.755380	0.565880	0.352170
Cu201	Cu20	0.223380	0.951680	0.873860
O1531	O153	0.200180	0.998790	0.845350
O1541	O154	0.054030	0.080120	0.758860
O1551	O155	0.054020	0.016810	0.788740
O1561	O156	0.053470	0.937080	0.753950
O1571	O157	0.054130	0.998740	0.723670
C3431	C343	0.216530	0.044180	0.841230
C3441	C344	0.166580	0.915100	0.683000
C3451	C345	0.188530	0.075930	0.821840
C3461	C346	0.143490	0.056200	0.810070
H1531	H153	0.130800	0.022600	0.815100
C3471	C347	0.117110	0.083010	0.791740
C3481	C348	0.071280	0.058520	0.778690
C3491	C349	0.069130	0.955810	0.733370
C3501	C350	0.108100	0.924410	0.718470
C3511	C351	0.120570	0.875070	0.726150
H1541	H154	0.104600	0.860200	0.740900
C3521	C352	0.157220	0.846390	0.711940
C3531	C353	0.179410	0.866080	0.690610
H1551	H155	0.203800	0.845700	0.681000
C3541	C354	0.130540	0.944310	0.696630
H1561	H156	0.121100	0.978500	0.690900
N391	N39	0.166840	0.792480	0.719750
C3551	C355	0.180800	0.776260	0.744620
H1571	H157	0.188700	0.798500	0.758700
C3561	C356	0.133810	0.133910	0.785300
H1581	H158	0.116100	0.153800	0.772500
C3571	C357	0.176480	0.154150	0.798030
C3581	C358	0.204240	0.126470	0.815900
H1591	H159	0.233900	0.141700	0.824100
N401	N40	0.193220	0.208350	0.792750
C3591	C359	0.242110	0.223470	0.785220
H1601	H160	0.270700	0.201100	0.780800
C3601	C360	0.193130	0.940370	0.660100
O1581	O158	0.231260	0.916110	0.650440
O1591	O159	0.175180	0.983850	0.652720
O1601	O160	0.255380	0.065880	0.852170
Cu211	Cu21	0.201680	0.026620	0.623860
O1611	O161	0.248790	0.049820	0.595350
O1621	O162	0.330120	0.195970	0.508860
O1631	O163	0.266810	0.195980	0.538740
O1641	O164	0.187080	0.196530	0.503950
O1651	O165	0.248740	0.195870	0.473670
C3611	C361	0.294180	0.033470	0.591230
C3621	C362	0.165100	0.083420	0.433000
C3631	C363	0.325930	0.061470	0.571840
C3641	C364	0.306200	0.106510	0.560070
H1611	H161	0.272600	0.119200	0.565100
C3651	C365	0.333010	0.132890	0.541740
C3661	C366	0.308520	0.178720	0.528690
C3671	C367	0.205810	0.180870	0.483370
C3681	C368	0.174410	0.141900	0.468470
C3691	C369	0.125070	0.129430	0.476150
H1621	H162	0.110200	0.145400	0.490900
C3701	C370	0.096390	0.092780	0.461940
C3711	C371	0.116080	0.070590	0.440610
H1631	H163	0.095700	0.046200	0.431000
C3721	C372	0.194310	0.119460	0.446630
H1641	H164	0.228500	0.128900	0.440900
N411	N41	0.042480	0.083160	0.469750
C3731	C373	0.026260	0.069200	0.494620
H1651	H165	0.048500	0.061300	0.508700
C3741	C374	0.383910	0.116190	0.535300
H1661	H166	0.403800	0.133900	0.522500
C3751	C375	0.404150	0.073520	0.548030
C3761	C376	0.376470	0.045760	0.565900
H1671	H167	0.391700	0.016100	0.574100
N421	N42	0.458350	0.056780	0.542750
C3771	C377	0.473470	0.007890	0.535220
H1681	H168	0.451100	0.979300	0.530800
C3781	C378	0.190370	0.056870	0.410100
O1661	O166	0.166110	0.018740	0.400440
O1671	O167	0.233850	0.074820	0.402720
O1681	O168	0.315880	0.994620	0.602170
Cu221	Cu22	0.701680	0.526620	0.123860
O1691	O169	0.748790	0.549820	0.095350
O1701	O170	0.830120	0.695970	0.008860
O1711	O171	0.766810	0.695980	0.038740
O1721	O172	0.687080	0.696530	0.003950
O1731	O173	0.748740	0.695870	0.973670
C3791	C379	0.794180	0.533470	0.091230
C3801	C380	0.665100	0.583420	0.933000
C3811	C381	0.825930	0.561470	0.071840
C3821	C382	0.806200	0.606510	0.060070
H1691	H169	0.772600	0.619200	0.065100
C3831	C383	0.833010	0.632890	0.041740
C3841	C384	0.808520	0.678720	0.028690
C3851	C385	0.705810	0.680870	0.983370
C3861	C386	0.674410	0.641900	0.968470
C3871	C387	0.625070	0.629430	0.976150
H1701	H170	0.610200	0.645400	0.990900
C3881	C388	0.596390	0.592780	0.961940
C3891	C389	0.616080	0.570590	0.940610
H1711	H171	0.595700	0.546200	0.931000
C3901	C390	0.694310	0.619460	0.946630
H1721	H172	0.728500	0.628900	0.940900
N431	N43	0.542480	0.583160	0.969750
C3911	C391	0.526260	0.569200	0.994620
H1731	H173	0.548500	0.561300	0.008700
C3921	C392	0.883910	0.616190	0.035300
H1741	H174	0.903800	0.633900	0.022500
C3931	C393	0.904150	0.573520	0.048030
C3941	C394	0.876470	0.545760	0.065900
H1751	H175	0.891700	0.516100	0.074100
N441	N44	0.958350	0.556780	0.042750
C3951	C395	0.973470	0.507890	0.035220
H1761	H176	0.951100	0.479300	0.030800
C3961	C396	0.690370	0.556870	0.910100
O1741	O174	0.666110	0.518740	0.900440
O1751	O175	0.733850	0.574820	0.902720
O1761	O176	0.815880	0.494620	0.102170
Cu231	Cu23	0.298320	0.973380	0.123860
O1771	O177	0.251210	0.950180	0.095350
O1781	O178	0.169880	0.804030	0.008860
O1791	O179	0.233190	0.804020	0.038740
O1801	O180	0.312920	0.803470	0.003950
O1811	O181	0.251260	0.804130	0.973670
C3971	C397	0.205820	0.966530	0.091230
C3981	C398	0.334900	0.916580	0.933000
C3991	C399	0.174070	0.938530	0.071840
C4001	C400	0.193800	0.893490	0.060070
H1771	H177	0.227400	0.880800	0.065100
C4011	C401	0.166990	0.867110	0.041740
C4021	C402	0.191480	0.821280	0.028690
C4031	C403	0.294190	0.819130	0.983370
C4041	C404	0.325590	0.858100	0.968470
C4051	C405	0.374930	0.870570	0.976150
H1781	H178	0.389800	0.854600	0.990900
C4061	C406	0.403610	0.907220	0.961940
C4071	C407	0.383920	0.929410	0.940610
H1791	H179	0.404300	0.953800	0.931000
C4081	C408	0.305690	0.880540	0.946630
H1801	H180	0.271500	0.871100	0.940900
N451	N45	0.457520	0.916840	0.969750
C4091	C409	0.473740	0.930800	0.994620
H1811	H181	0.451500	0.938700	0.008700
C4101	C410	0.116090	0.883810	0.035300
H1821	H182	0.096200	0.866100	0.022500
C4111	C411	0.095850	0.926480	0.048030
C4121	C412	0.123530	0.954240	0.065900
H1831	H183	0.108300	0.983900	0.074100
N461	N46	0.041650	0.943220	0.042750
C4131	C413	0.026530	0.992110	0.035220
H1841	H184	0.048900	0.020700	0.030800
C4141	C414	0.309630	0.943130	0.910100
O1821	O182	0.333890	0.981260	0.900440
O1831	O183	0.266150	0.925180	0.902720
O1841	O184	0.184120	0.005380	0.102170
Cu241	Cu24	0.798320	0.473380	0.623860
O1851	O185	0.751210	0.450180	0.595350
O1861	O186	0.669880	0.304030	0.508860
O1871	O187	0.733190	0.304020	0.538740
O1881	O188	0.812920	0.303470	0.503950
O1891	O189	0.751260	0.304130	0.473670
C4151	C415	0.705820	0.466530	0.591230
C4161	C416	0.834900	0.416580	0.433000
C4171	C417	0.674070	0.438530	0.571840
C4181	C418	0.693800	0.393490	0.560070
H1851	H185	0.727400	0.380800	0.565100
C4191	C419	0.666990	0.367110	0.541740
C4201	C420	0.691480	0.321280	0.528690
C4211	C421	0.794190	0.319130	0.483370
C4221	C422	0.825590	0.358100	0.468470
C4231	C423	0.874930	0.370570	0.476150
H1861	H186	0.889800	0.354600	0.490900
C4241	C424	0.903610	0.407220	0.461940
C4251	C425	0.883920	0.429410	0.440610
H1871	H187	0.904300	0.453800	0.431000
C4261	C426	0.805690	0.380540	0.446630
H1881	H188	0.771500	0.371100	0.440900
N471	N47	0.957520	0.416840	0.469750
C4271	C427	0.973740	0.430800	0.494620
H1891	H189	0.951500	0.438700	0.508700
C4281	C428	0.616090	0.383810	0.535300
H1901	H190	0.596200	0.366100	0.522500
C4291	C429	0.595850	0.426480	0.548030
C4301	C430	0.623530	0.454240	0.565900
H1911	H191	0.608300	0.483900	0.574100
N481	N48	0.541650	0.443220	0.542750
C4311	C431	0.526530	0.492110	0.535220
H1921	H192	0.548900	0.520700	0.530800
C4321	C432	0.809630	0.443130	0.410100
O1901	O190	0.833890	0.481260	0.400440
O1911	O191	0.766150	0.425180	0.402720
O1921	O192	0.684120	0.505380	0.602170
Cu251	Cu25	0.723380	0.548320	0.626140
O1931	O193	0.700180	0.501210	0.654650
O1941	O194	0.554030	0.419880	0.741140
O1951	O195	0.554020	0.483190	0.711260
O1961	O196	0.553470	0.562920	0.746050
O1971	O197	0.554130	0.501260	0.776330
C4331	C433	0.716530	0.455820	0.658770
C4341	C434	0.666580	0.584900	0.817000
C4351	C435	0.688530	0.424070	0.678160
C4361	C436	0.643490	0.443800	0.689930
H1931	H193	0.630800	0.477400	0.684900
C4371	C437	0.617110	0.416990	0.708260
C4381	C438	0.571280	0.441480	0.721310
C4391	C439	0.569130	0.544190	0.766630
C4401	C440	0.608100	0.575590	0.781530
C4411	C441	0.620570	0.624930	0.773850
H1941	H194	0.604600	0.639800	0.759100
C4421	C442	0.657220	0.653610	0.788060
C4431	C443	0.679410	0.633920	0.809390
H1951	H195	0.703800	0.654300	0.819000
C4441	C444	0.630540	0.555690	0.803370
H1961	H196	0.621100	0.521500	0.809100
N491	N49	0.666840	0.707520	0.780250
C4451	C445	0.680800	0.723740	0.755380
H1971	H197	0.688700	0.701500	0.741300
C4461	C446	0.633810	0.366090	0.714700
H1981	H198	0.616100	0.346200	0.727500
C4471	C447	0.676480	0.345850	0.701970
C4481	C448	0.704240	0.373530	0.684100
H1991	H199	0.733900	0.358300	0.675900
N501	N50	0.693220	0.291650	0.707250
C4491	C449	0.742110	0.276530	0.714780
H2001	H200	0.770700	0.298900	0.719200
C4501	C450	0.693130	0.559630	0.839900
O1981	O198	0.731260	0.583890	0.849560
O1991	O199	0.675180	0.516150	0.847280
O2001	O200	0.755380	0.434120	0.647830
Cu261	Cu26	0.223380	0.048320	0.126140
O2011	O201	0.200180	0.001210	0.154650
O2021	O202	0.054030	0.919880	0.241140
O2031	O203	0.054020	0.983190	0.211260
O2041	O204	0.053470	0.062920	0.246050
O2051	O205	0.054130	0.001260	0.276330
C4511	C451	0.216530	0.955820	0.158770
C4521	C452	0.166580	0.084900	0.317000
C4531	C453	0.188530	0.924070	0.178160
C4541	C454	0.143490	0.943800	0.189930
H2011	H201	0.130800	0.977400	0.184900
C4551	C455	0.117110	0.916990	0.208260
C4561	C456	0.071280	0.941480	0.221310
C4571	C457	0.069130	0.044190	0.266630
C4581	C458	0.108100	0.075590	0.281530
C4591	C459	0.120570	0.124930	0.273850
H2021	H202	0.104600	0.139800	0.259100
C4601	C460	0.157220	0.153610	0.288060
C4611	C461	0.179410	0.133920	0.309390
H2031	H203	0.203800	0.154300	0.319000
C4621	C462	0.130540	0.055690	0.303370
H2041	H204	0.121100	0.021500	0.309100
N511	N51	0.166840	0.207520	0.280250
C4631	C463	0.180800	0.223740	0.255380
H2051	H205	0.188700	0.201500	0.241300
C4641	C464	0.133810	0.866090	0.214700
H2061	H206	0.116100	0.846200	0.227500
C4651	C465	0.176480	0.845850	0.201970
C4661	C466	0.204240	0.873530	0.184100
H2071	H207	0.233900	0.858300	0.175900
N521	N52	0.193220	0.791650	0.207250
C4671	C467	0.242110	0.776530	0.214780
H2081	H208	0.270700	0.798900	0.219200
C4681	C468	0.193130	0.059630	0.339900
O2061	O206	0.231260	0.083890	0.349560
O2071	O207	0.175180	0.016150	0.347280
O2081	O208	0.255380	0.934120	0.147830
Cu271	Cu27	0.776620	0.451680	0.126140
O2091	O209	0.799820	0.498790	0.154650
O2101	O210	0.945970	0.580120	0.241140
O2111	O211	0.945980	0.516810	0.211260
O2121	O212	0.946530	0.437080	0.246050
O2131	O213	0.945870	0.498740	0.276330
C4691	C469	0.783470	0.544180	0.158770
C4701	C470	0.833420	0.415100	0.317000
C4711	C471	0.811470	0.575930	0.178160
C4721	C472	0.856510	0.556200	0.189930
H2091	H209	0.869200	0.522600	0.184900
C4731	C473	0.882890	0.583010	0.208260
C4741	C474	0.928720	0.558520	0.221310
C4751	C475	0.930870	0.455810	0.266630
C4761	C476	0.891900	0.424410	0.281530
C4771	C477	0.879430	0.375070	0.273850
H2101	H210	0.895400	0.360200	0.259100
C4781	C478	0.842780	0.346390	0.288060
C4791	C479	0.820590	0.366080	0.309390
H2111	H211	0.796200	0.345700	0.319000
C4801	C480	0.869460	0.444310	0.303370
H2121	H212	0.878900	0.478500	0.309100
N531	N53	0.833160	0.292480	0.280250
C4811	C481	0.819200	0.276260	0.255380
H2131	H213	0.811300	0.298500	0.241300
C4821	C482	0.866190	0.633910	0.214700
H2141	H214	0.883900	0.653800	0.227500
C4831	C483	0.823520	0.654150	0.201970
C4841	C484	0.795760	0.626470	0.184100
H2151	H215	0.766100	0.641700	0.175900
N541	N54	0.806780	0.708350	0.207250
C4851	C485	0.757890	0.723470	0.214780
H2161	H216	0.729300	0.701100	0.219200
C4861	C486	0.806870	0.440370	0.339900
O2141	O214	0.768740	0.416110	0.349560
O2151	O215	0.824820	0.483850	0.347280
O2161	O216	0.744620	0.565880	0.147830
Cu281	Cu28	0.276620	0.951680	0.626140
O2171	O217	0.299820	0.998790	0.654650
O2181	O218	0.445970	0.080120	0.741140
O2191	O219	0.445980	0.016810	0.711260
O2201	O220	0.446530	0.937080	0.746050
O2211	O221	0.445870	0.998740	0.776330
C4871	C487	0.283470	0.044180	0.658770
C4881	C488	0.333420	0.915100	0.817000
C4891	C489	0.311470	0.075930	0.678160
C4901	C490	0.356510	0.056200	0.689930
H2171	H217	0.369200	0.022600	0.684900
C4911	C491	0.382890	0.083010	0.708260
C4921	C492	0.428720	0.058520	0.721310
C4931	C493	0.430870	0.955810	0.766630
C4941	C494	0.391900	0.924410	0.781530
C4951	C495	0.379430	0.875070	0.773850
H2181	H218	0.395400	0.860200	0.759100
C4961	C496	0.342780	0.846390	0.788060
C4971	C497	0.320590	0.866080	0.809390
H2191	H219	0.296200	0.845700	0.819000
C4981	C498	0.369460	0.944310	0.803370
H2201	H220	0.378900	0.978500	0.809100
N551	N55	0.333160	0.792480	0.780250
C4991	C499	0.319200	0.776260	0.755380
H2211	H221	0.311300	0.798500	0.741300
C5001	C500	0.366190	0.133910	0.714700
H2221	H222	0.383900	0.153800	0.727500
C5011	C501	0.323520	0.154150	0.701970
C5021	C502	0.295760	0.126470	0.684100
H2231	H223	0.266100	0.141700	0.675900
N561	N56	0.306780	0.208350	0.707250
C5031	C503	0.257890	0.223470	0.714780
H2241	H224	0.229300	0.201100	0.719200
C5041	C504	0.306870	0.940370	0.839900
O2221	O222	0.268740	0.916110	0.849560
O2231	O223	0.324820	0.983850	0.847280
O2241	O224	0.244620	0.065880	0.647830
Cu291	Cu29	0.298320	0.026620	0.876140
O2251	O225	0.251210	0.049820	0.904650
O2261	O226	0.169880	0.195970	0.991140
O2271	O227	0.233190	0.195980	0.961260
O2281	O228	0.312920	0.196530	0.996050
O2291	O229	0.251260	0.195870	0.026330
C5051	C505	0.205820	0.033470	0.908770
C5061	C506	0.334900	0.083420	0.067000
C5071	C507	0.174070	0.061470	0.928160
C5081	C508	0.193800	0.106510	0.939930
H2251	H225	0.227400	0.119200	0.934900
C5091	C509	0.166990	0.132890	0.958260
C5101	C510	0.191480	0.178720	0.971310
C5111	C511	0.294190	0.180870	0.016630
C5121	C512	0.325590	0.141900	0.031530
C5131	C513	0.374930	0.129430	0.023850
H2261	H226	0.389800	0.145400	0.009100
C5141	C514	0.403610	0.092780	0.038060
C5151	C515	0.383920	0.070590	0.059390
H2271	H227	0.404300	0.046200	0.069000
C5161	C516	0.305690	0.119460	0.053370
H2281	H228	0.271500	0.128900	0.059100
N571	N57	0.457520	0.083160	0.030250
C5171	C517	0.473740	0.069200	0.005380
H2291	H229	0.451500	0.061300	0.991300
C5181	C518	0.116090	0.116190	0.964700
H2301	H230	0.096200	0.133900	0.977500
C5191	C519	0.095850	0.073520	0.951970
C5201	C520	0.123530	0.045760	0.934100
H2311	H231	0.108300	0.016100	0.925900
N581	N58	0.041650	0.056780	0.957250
C5211	C521	0.026530	0.007890	0.964780
H2321	H232	0.048900	0.979300	0.969200
C5221	C522	0.309630	0.056870	0.089900
O2301	O230	0.333890	0.018740	0.099560
O2311	O231	0.266150	0.074820	0.097280
O2321	O232	0.184120	0.994620	0.897830
Cu301	Cu30	0.798320	0.526620	0.376140
O2331	O233	0.751210	0.549820	0.404650
O2341	O234	0.669880	0.695970	0.491140
O2351	O235	0.733190	0.695980	0.461260
O2361	O236	0.812920	0.696530	0.496050
O2371	O237	0.751260	0.695870	0.526330
C5231	C523	0.705820	0.533470	0.408770
C5241	C524	0.834900	0.583420	0.567000
C5251	C525	0.674070	0.561470	0.428160
C5261	C526	0.693800	0.606510	0.439930
H2331	H233	0.727400	0.619200	0.434900
C5271	C527	0.666990	0.632890	0.458260
C5281	C528	0.691480	0.678720	0.471310
C5291	C529	0.794190	0.680870	0.516630
C5301	C530	0.825590	0.641900	0.531530
C5311	C531	0.874930	0.629430	0.523850
H2341	H234	0.889800	0.645400	0.509100
C5321	C532	0.903610	0.592780	0.538060
C5331	C533	0.883920	0.570590	0.559390
H2351	H235	0.904300	0.546200	0.569000
C5341	C534	0.805690	0.619460	0.553370
H2361	H236	0.771500	0.628900	0.559100
N591	N59	0.957520	0.583160	0.530250
C5351	C535	0.973740	0.569200	0.505380
H2371	H237	0.951500	0.561300	0.491300
C5361	C536	0.616090	0.616190	0.464700
H2381	H238	0.596200	0.633900	0.477500
C5371	C537	0.595850	0.573520	0.451970
C5381	C538	0.623530	0.545760	0.434100
H2391	H239	0.608300	0.516100	0.425900
N601	N60	0.541650	0.556780	0.457250
C5391	C539	0.526530	0.507890	0.464780
H2401	H240	0.548900	0.479300	0.469200
C5401	C540	0.809630	0.556870	0.589900
O2381	O238	0.833890	0.518740	0.599560
O2391	O239	0.766150	0.574820	0.597280
O2401	O240	0.684120	0.494620	0.397830
Cu311	Cu31	0.201680	0.973380	0.376140
O2411	O241	0.248790	0.950180	0.404650
O2421	O242	0.330120	0.804030	0.491140
O2431	O243	0.266810	0.804020	0.461260
O2441	O244	0.187080	0.803470	0.496050
O2451	O245	0.248740	0.804130	0.526330
C5411	C541	0.294180	0.966530	0.408770
C5421	C542	0.165100	0.916580	0.567000
C5431	C543	0.325930	0.938530	0.428160
C5441	C544	0.306200	0.893490	0.439930
H2411	H241	0.272600	0.880800	0.434900
C5451	C545	0.333010	0.867110	0.458260
C5461	C546	0.308520	0.821280	0.471310
C5471	C547	0.205810	0.819130	0.516630
C5481	C548	0.174410	0.858100	0.531530
C5491	C549	0.125070	0.870570	0.523850
H2421	H242	0.110200	0.854600	0.509100
C5501	C550	0.096390	0.907220	0.538060
C5511	C551	0.116080	0.929410	0.559390
H2431	H243	0.095700	0.953800	0.569000
C5521	C552	0.194310	0.880540	0.553370
H2441	H244	0.228500	0.871100	0.559100
N611	N61	0.042480	0.916840	0.530250
C5531	C553	0.026260	0.930800	0.505380
H2451	H245	0.048500	0.938700	0.491300
C5541	C554	0.383910	0.883810	0.464700
H2461	H246	0.403800	0.866100	0.477500
C5551	C555	0.404150	0.926480	0.451970
C5561	C556	0.376470	0.954240	0.434100
H2471	H247	0.391700	0.983900	0.425900
N621	N62	0.458350	0.943220	0.457250
C5571	C557	0.473470	0.992110	0.464780
H2481	H248	0.451100	0.020700	0.469200
C5581	C558	0.190370	0.943130	0.589900
O2461	O246	0.166110	0.981260	0.599560
O2471	O247	0.233850	0.925180	0.597280
O2481	O248	0.315880	0.005380	0.397830
Cu321	Cu32	0.701680	0.473380	0.876140
O2491	O249	0.748790	0.450180	0.904650
O2501	O250	0.830120	0.304030	0.991140
O2511	O251	0.766810	0.304020	0.961260
O2521	O252	0.687080	0.303470	0.996050
O2531	O253	0.748740	0.304130	0.026330
C5591	C559	0.794180	0.466530	0.908770
C5601	C560	0.665100	0.416580	0.067000
C5611	C561	0.825930	0.438530	0.928160
C5621	C562	0.806200	0.393490	0.939930
H2491	H249	0.772600	0.380800	0.934900
C5631	C563	0.833010	0.367110	0.958260
C5641	C564	0.808520	0.321280	0.971310
C5651	C565	0.705810	0.319130	0.016630
C5661	C566	0.674410	0.358100	0.031530
C5671	C567	0.625070	0.370570	0.023850
H2501	H250	0.610200	0.354600	0.009100
C5681	C568	0.596390	0.407220	0.038060
C5691	C569	0.616080	0.429410	0.059390
H2511	H251	0.595700	0.453800	0.069000
C5701	C570	0.694310	0.380540	0.053370
H2521	H252	0.728500	0.371100	0.059100
N631	N63	0.542480	0.416840	0.030250
C5711	C571	0.526260	0.430800	0.005380
H2531	H253	0.548500	0.438700	0.991300
C5721	C572	0.883910	0.383810	0.964700
H2541	H254	0.903800	0.366100	0.977500
C5731	C573	0.904150	0.426480	0.951970
C5741	C574	0.876470	0.454240	0.934100
H2551	H255	0.891700	0.483900	0.925900
N641	N64	0.958350	0.443220	0.957250
C5751	C575	0.973470	0.492110	0.964780
H2561	H256	0.951100	0.520700	0.969200
C5761	C576	0.690370	0.443130	0.089900
O2541	O254	0.666110	0.481260	0.099560
O2551	O255	0.733850	0.425180	0.097280
O2561	O256	0.815880	0.505380	0.897830
Cu331	Cu33	0.000000	0.544790	0.261830
Cu341	Cu34	0.000000	0.471530	0.225360
Cu351	Cu35	0.500000	0.044790	0.761830
Cu361	Cu36	0.500000	0.971530	0.725360
Cu371	Cu37	0.500000	0.455210	0.761830
Cu381	Cu38	0.500000	0.528470	0.725360
Cu391	Cu39	0.000000	0.955210	0.261830
Cu401	Cu40	0.000000	0.028470	0.225360
Cu411	Cu41	0.705210	0.750000	0.511830
Cu421	Cu42	0.778470	0.750000	0.475360
Cu431	Cu43	0.794790	0.250000	0.011830
Cu441	Cu44	0.721530	0.250000	0.975360
Cu451	Cu45	0.500000	0.544790	0.238170
Cu461	Cu46	0.500000	0.471530	0.274640
Cu471	Cu47	0.000000	0.044790	0.738170
Cu481	Cu48	0.000000	0.971530	0.774640
Cu491	Cu49	0.000000	0.455210	0.738170
Cu501	Cu50	0.000000	0.528470	0.774640
Cu511	Cu51	0.500000	0.955210	0.238170
Cu521	Cu52	0.500000	0.028470	0.274640
Cu531	Cu53	0.794790	0.750000	0.988170
Cu541	Cu54	0.721530	0.750000	0.024640
Cu551	Cu55	0.705210	0.250000	0.488170
Cu561	Cu56	0.778470	0.250000	0.524640
Cu571	Cu57	0.294790	0.250000	0.488170
Cu581	Cu58	0.221530	0.250000	0.524640
Cu591	Cu59	0.205210	0.750000	0.988170
Cu601	Cu60	0.278470	0.750000	0.024640
Cu611	Cu61	0.205210	0.250000	0.011830
Cu621	Cu62	0.278470	0.250000	0.975360
Cu631	Cu63	0.294790	0.750000	0.511830
Cu641	Cu64	0.221530	0.750000	0.475360
C5771	C577	0.156000	0.250000	0.295510
H2571	H257	0.143800	0.250000	0.312700
C5781	C578	0.344000	0.750000	0.795510
H2581	H258	0.356200	0.750000	0.812700
C5791	C579	0.000000	0.906000	0.545510
H2591	H259	0.000000	0.893800	0.562700
C5801	C580	0.500000	0.406000	0.045510
H2601	H260	0.500000	0.393800	0.062700
C5811	C581	0.500000	0.094000	0.045510
H2611	H261	0.500000	0.106200	0.062700
C5821	C582	0.000000	0.594000	0.545510
H2621	H262	0.000000	0.606200	0.562700
C5831	C583	0.344000	0.250000	0.204490
H2631	H263	0.356200	0.250000	0.187300
C5841	C584	0.156000	0.750000	0.704490
H2641	H264	0.143800	0.750000	0.687300
C5851	C585	0.656000	0.250000	0.204490
H2651	H265	0.643800	0.250000	0.187300
C5861	C586	0.500000	0.906000	0.954490
H2661	H266	0.500000	0.893800	0.937300
C5871	C587	0.000000	0.406000	0.454490
H2671	H267	0.000000	0.393800	0.437300
C5881	C588	0.000000	0.094000	0.454490
H2681	H268	0.000000	0.106200	0.437300
C5891	C589	0.500000	0.594000	0.954490
H2691	H269	0.500000	0.606200	0.937300
C5901	C590	0.844000	0.750000	0.704490
H2701	H270	0.856200	0.750000	0.687300
C5911	C591	0.656000	0.750000	0.795510
H2711	H271	0.643800	0.750000	0.812700
C5921	C592	0.844000	0.250000	0.295510
H2721	H272	0.856200	0.250000	0.312700
C5931	C593	0.164900	0.750000	0.201840
H2731	H273	0.130100	0.750000	0.195200
C5941	C594	0.335100	0.250000	0.701840
H2741	H274	0.369900	0.250000	0.695200
C5951	C595	0.500000	0.914900	0.451840
H2751	H275	0.500000	0.880100	0.445200
C5961	C596	0.000000	0.414900	0.951840
H2761	H276	0.000000	0.380100	0.945200
C5971	C597	0.000000	0.085100	0.951840
H2771	H277	0.000000	0.119900	0.945200
C5981	C598	0.500000	0.585100	0.451840
H2781	H278	0.500000	0.619900	0.445200
C5991	C599	0.335100	0.750000	0.298160
H2791	H279	0.369900	0.750000	0.304800
C6001	C600	0.164900	0.250000	0.798160
H2801	H280	0.130100	0.250000	0.804800
C6011	C601	0.000000	0.914900	0.048160
H2811	H281	0.000000	0.880100	0.054800
C6021	C602	0.500000	0.414900	0.548160
H2821	H282	0.500000	0.380100	0.554800
C6031	C603	0.500000	0.085100	0.548160
H2831	H283	0.500000	0.119900	0.554800
C6041	C604	0.000000	0.585100	0.048160
H2841	H284	0.000000	0.619900	0.054800
C6051	C605	0.835100	0.250000	0.798160
H2851	H285	0.869900	0.250000	0.804800
C6061	C606	0.664900	0.750000	0.298160
H2861	H286	0.630100	0.750000	0.304800
C6071	C607	0.664900	0.250000	0.701840
H2871	H287	0.630100	0.250000	0.695200
C6081	C608	0.835100	0.750000	0.201840
H2881	H288	0.869900	0.750000	0.195200
