data_WOYJEB_clean_PM
_symmetry_space_group_name_H-M	'P1'
_cell_length_a	25.444000
_cell_length_b	25.444000
_cell_length_c	53.616000
_cell_angle_alpha	90.000000
_cell_angle_beta	90.000000
_cell_angle_gamma	90.000000
_symmetry_Int_Tables_number 1

loop_
_symmetry_equiv_pos_as_xyz
'x,y,z'

loop_
_atom_site_label
_atom_site_type_symbol
_atom_site_fract_x
_atom_site_fract_y
_atom_site_fract_z
Zn11	Zn1	0.223290	0.444600	0.126800
O11	O1	0.277300	0.411820	0.149750
C11	C1	0.312900	0.438700	0.160160
O21	O2	0.444000	0.502630	0.225830
O31	O3	0.328970	0.484030	0.152720
C21	C2	0.189100	0.676700	0.030650
O41	O4	0.166530	0.695250	0.012050
N11	N1	0.042200	0.556830	0.046450
O51	O5	0.254170	0.545990	0.094910
C31	C3	0.207500	0.532100	0.092010
O61	O6	0.232060	0.695380	0.039730
C41	C4	0.371700	0.446970	0.197560
H11	H1	0.378500	0.482400	0.193000
N21	N2	0.340100	0.291400	0.218260
C51	C5	0.382700	0.375080	0.225770
H21	H2	0.397700	0.360600	0.240500
C61	C6	0.125100	0.543980	0.067780
H31	H3	0.111300	0.513200	0.075300
C71	C7	0.115660	0.614770	0.038180
H41	H4	0.095200	0.632200	0.025900
C81	C8	0.430200	0.460300	0.233590
C91	C9	0.327700	0.364470	0.189360
H51	H5	0.305800	0.342700	0.179300
C101	C10	0.166650	0.631510	0.043680
C111	C11	0.338200	0.415680	0.182180
O71	O7	0.446730	0.439190	0.253940
C121	C12	0.196680	0.603650	0.061900
H61	H6	0.231300	0.614800	0.065900
C131	C13	0.349100	0.345250	0.211110
C141	C14	0.175730	0.561300	0.073540
C151	C15	0.095820	0.572100	0.051130
C161	C16	0.323400	0.277100	0.243540
H71	H7	0.314600	0.300000	0.256900
C171	C17	0.030200	0.507700	0.039890
H81	H8	0.053400	0.479600	0.036100
C181	C18	0.394200	0.427100	0.218650
O81	O8	0.185010	0.494950	0.103660
Zn21	Zn2	0.723290	0.944600	0.626800
O91	O9	0.777300	0.911820	0.649750
C191	C19	0.812900	0.938700	0.660160
O101	O10	0.944000	0.002630	0.725830
O111	O11	0.828970	0.984030	0.652720
C201	C20	0.689100	0.176700	0.530650
O121	O12	0.666530	0.195250	0.512050
N31	N3	0.542200	0.056830	0.546450
O131	O13	0.754170	0.045990	0.594910
C211	C21	0.707500	0.032100	0.592010
O141	O14	0.732060	0.195380	0.539730
C221	C22	0.871700	0.946970	0.697560
H91	H9	0.878500	0.982400	0.693000
N41	N4	0.840100	0.791400	0.718260
C231	C23	0.882700	0.875080	0.725770
H101	H10	0.897700	0.860600	0.740500
C241	C24	0.625100	0.043980	0.567780
H111	H11	0.611300	0.013200	0.575300
C251	C25	0.615660	0.114770	0.538180
H121	H12	0.595200	0.132200	0.525900
C261	C26	0.930200	0.960300	0.733590
C271	C27	0.827700	0.864470	0.689360
H131	H13	0.805800	0.842700	0.679300
C281	C28	0.666650	0.131510	0.543680
C291	C29	0.838200	0.915680	0.682180
O151	O15	0.946730	0.939190	0.753940
C301	C30	0.696680	0.103650	0.561900
H141	H14	0.731300	0.114800	0.565900
C311	C31	0.849100	0.845250	0.711110
C321	C32	0.675730	0.061300	0.573540
C331	C33	0.595820	0.072100	0.551130
C341	C34	0.823400	0.777100	0.743540
H151	H15	0.814600	0.800000	0.756900
C351	C35	0.530200	0.007700	0.539890
H161	H16	0.553400	0.979600	0.536100
C361	C36	0.894200	0.927100	0.718650
O161	O16	0.685010	0.994950	0.603660
Zn31	Zn3	0.276710	0.555400	0.626800
O171	O17	0.222700	0.588180	0.649750
C371	C37	0.187100	0.561300	0.660160
O181	O18	0.056000	0.497370	0.725830
O191	O19	0.171030	0.515970	0.652720
C381	C38	0.310900	0.323300	0.530650
O201	O20	0.333470	0.304750	0.512050
N51	N5	0.457800	0.443170	0.546450
O211	O21	0.245830	0.454010	0.594910
C391	C39	0.292500	0.467900	0.592010
O221	O22	0.267940	0.304620	0.539730
C401	C40	0.128300	0.553030	0.697560
H171	H17	0.121500	0.517600	0.693000
N61	N6	0.159900	0.708600	0.718260
C411	C41	0.117300	0.624920	0.725770
H181	H18	0.102300	0.639400	0.740500
C421	C42	0.374900	0.456020	0.567780
H191	H19	0.388700	0.486800	0.575300
C431	C43	0.384340	0.385230	0.538180
H201	H20	0.404800	0.367800	0.525900
C441	C44	0.069800	0.539700	0.733590
C451	C45	0.172300	0.635530	0.689360
H211	H21	0.194200	0.657300	0.679300
C461	C46	0.333350	0.368490	0.543680
C471	C47	0.161800	0.584320	0.682180
O231	O23	0.053270	0.560810	0.753940
C481	C48	0.303320	0.396350	0.561900
H221	H22	0.268700	0.385200	0.565900
C491	C49	0.150900	0.654750	0.711110
C501	C50	0.324270	0.438700	0.573540
C511	C51	0.404180	0.427900	0.551130
C521	C52	0.176600	0.722900	0.743540
H231	H23	0.185400	0.700000	0.756900
C531	C53	0.469800	0.492300	0.539890
H241	H24	0.446600	0.520400	0.536100
C541	C54	0.105800	0.572900	0.718650
O241	O24	0.314990	0.505050	0.603660
Zn41	Zn4	0.776710	0.055400	0.126800
O251	O25	0.722700	0.088180	0.149750
C551	C55	0.687100	0.061300	0.160160
O261	O26	0.556000	0.997370	0.225830
O271	O27	0.671030	0.015970	0.152720
C561	C56	0.810900	0.823300	0.030650
O281	O28	0.833470	0.804750	0.012050
N71	N7	0.957800	0.943170	0.046450
O291	O29	0.745830	0.954010	0.094910
C571	C57	0.792500	0.967900	0.092010
O301	O30	0.767940	0.804620	0.039730
C581	C58	0.628300	0.053030	0.197560
H251	H25	0.621500	0.017600	0.193000
N81	N8	0.659900	0.208600	0.218260
C591	C59	0.617300	0.124920	0.225770
H261	H26	0.602300	0.139400	0.240500
C601	C60	0.874900	0.956020	0.067780
H271	H27	0.888700	0.986800	0.075300
C611	C61	0.884340	0.885230	0.038180
H281	H28	0.904800	0.867800	0.025900
C621	C62	0.569800	0.039700	0.233590
C631	C63	0.672300	0.135530	0.189360
H291	H29	0.694200	0.157300	0.179300
C641	C64	0.833350	0.868490	0.043680
C651	C65	0.661800	0.084320	0.182180
O311	O31	0.553270	0.060810	0.253940
C661	C66	0.803320	0.896350	0.061900
H301	H30	0.768700	0.885200	0.065900
C671	C67	0.650900	0.154750	0.211110
C681	C68	0.824270	0.938700	0.073540
C691	C69	0.904180	0.927900	0.051130
C701	C70	0.676600	0.222900	0.243540
H311	H31	0.685400	0.200000	0.256900
C711	C71	0.969800	0.992300	0.039890
H321	H32	0.946600	0.020400	0.036100
C721	C72	0.605800	0.072900	0.218650
O321	O32	0.814990	0.005050	0.103660
Zn51	Zn5	0.805400	0.973290	0.376800
O331	O33	0.838180	0.027300	0.399750
C731	C73	0.811300	0.062900	0.410160
O341	O34	0.747370	0.194000	0.475830
O351	O35	0.765970	0.078970	0.402720
C741	C74	0.573300	0.939100	0.280650
O361	O36	0.554750	0.916530	0.262050
N91	N9	0.693170	0.792200	0.296450
O371	O37	0.704010	0.004170	0.344910
C751	C75	0.717900	0.957500	0.342010
O381	O38	0.554620	0.982060	0.289730
C761	C76	0.803030	0.121700	0.447560
H331	H33	0.767600	0.128500	0.443000
N101	N10	0.958600	0.090100	0.468260
C771	C77	0.874920	0.132700	0.475770
H341	H34	0.889400	0.147700	0.490500
C781	C78	0.706020	0.875100	0.317780
H351	H35	0.736800	0.861300	0.325300
C791	C79	0.635230	0.865660	0.288180
H361	H36	0.617800	0.845200	0.275900
C801	C80	0.789700	0.180200	0.483590
C811	C81	0.885530	0.077700	0.439360
H371	H37	0.907300	0.055800	0.429300
C821	C82	0.618490	0.916650	0.293680
C831	C83	0.834320	0.088200	0.432180
O391	O39	0.810810	0.196730	0.503940
C841	C84	0.646350	0.946680	0.311900
H381	H38	0.635200	0.981300	0.315900
C851	C85	0.904750	0.099100	0.461110
C861	C86	0.688700	0.925730	0.323540
C871	C87	0.677900	0.845820	0.301130
C881	C88	0.972900	0.073400	0.493540
H391	H39	0.950000	0.064600	0.506900
C891	C89	0.742300	0.780200	0.289890
H401	H40	0.770400	0.803400	0.286100
C901	C90	0.822900	0.144200	0.468650
O401	O40	0.755050	0.935010	0.353660
Zn61	Zn6	0.305400	0.473290	0.876800
O411	O41	0.338180	0.527300	0.899750
C911	C91	0.311300	0.562900	0.910160
O421	O42	0.247370	0.694000	0.975830
O431	O43	0.265970	0.578970	0.902720
C921	C92	0.073300	0.439100	0.780650
O441	O44	0.054750	0.416530	0.762050
N111	N11	0.193170	0.292200	0.796450
O451	O45	0.204010	0.504170	0.844910
C931	C93	0.217900	0.457500	0.842010
O461	O46	0.054620	0.482060	0.789730
C941	C94	0.303030	0.621700	0.947560
H411	H41	0.267600	0.628500	0.943000
N121	N12	0.458600	0.590100	0.968260
C951	C95	0.374920	0.632700	0.975770
H421	H42	0.389400	0.647700	0.990500
C961	C96	0.206020	0.375100	0.817780
H431	H43	0.236800	0.361300	0.825300
C971	C97	0.135230	0.365660	0.788180
H441	H44	0.117800	0.345200	0.775900
C981	C98	0.289700	0.680200	0.983590
C991	C99	0.385530	0.577700	0.939360
H451	H45	0.407300	0.555800	0.929300
C1001	C100	0.118490	0.416650	0.793680
C1011	C101	0.334320	0.588200	0.932180
O471	O47	0.310810	0.696730	0.003940
C1021	C102	0.146350	0.446680	0.811900
H461	H46	0.135200	0.481300	0.815900
C1031	C103	0.404750	0.599100	0.961110
C1041	C104	0.188700	0.425730	0.823540
C1051	C105	0.177900	0.345820	0.801130
C1061	C106	0.472900	0.573400	0.993540
H471	H47	0.450000	0.564600	0.006900
C1071	C107	0.242300	0.280200	0.789890
H481	H48	0.270400	0.303400	0.786100
C1081	C108	0.322900	0.644200	0.968650
O481	O48	0.255050	0.435010	0.853660
Zn71	Zn7	0.694600	0.026710	0.876800
O491	O49	0.661820	0.972700	0.899750
C1091	C109	0.688700	0.937100	0.910160
O501	O50	0.752630	0.806000	0.975830
O511	O51	0.734030	0.921030	0.902720
C1101	C110	0.926700	0.060900	0.780650
O521	O52	0.945250	0.083470	0.762050
N131	N13	0.806830	0.207800	0.796450
O531	O53	0.795990	0.995830	0.844910
C1111	C111	0.782100	0.042500	0.842010
O541	O54	0.945380	0.017940	0.789730
C1121	C112	0.696970	0.878300	0.947560
H491	H49	0.732400	0.871500	0.943000
N141	N14	0.541400	0.909900	0.968260
C1131	C113	0.625080	0.867300	0.975770
H501	H50	0.610600	0.852300	0.990500
C1141	C114	0.793980	0.124900	0.817780
H511	H51	0.763200	0.138700	0.825300
C1151	C115	0.864770	0.134340	0.788180
H521	H52	0.882200	0.154800	0.775900
C1161	C116	0.710300	0.819800	0.983590
C1171	C117	0.614470	0.922300	0.939360
H531	H53	0.592700	0.944200	0.929300
C1181	C118	0.881510	0.083350	0.793680
C1191	C119	0.665680	0.911800	0.932180
O551	O55	0.689190	0.803270	0.003940
C1201	C120	0.853650	0.053320	0.811900
H541	H54	0.864800	0.018700	0.815900
C1211	C121	0.595250	0.900900	0.961110
C1221	C122	0.811300	0.074270	0.823540
C1231	C123	0.822100	0.154180	0.801130
C1241	C124	0.527100	0.926600	0.993540
H551	H55	0.550000	0.935400	0.006900
C1251	C125	0.757700	0.219800	0.789890
H561	H56	0.729600	0.196600	0.786100
C1261	C126	0.677100	0.855800	0.968650
O561	O56	0.744950	0.064990	0.853660
Zn81	Zn8	0.194600	0.526710	0.376800
O571	O57	0.161820	0.472700	0.399750
C1271	C127	0.188700	0.437100	0.410160
O581	O58	0.252630	0.306000	0.475830
O591	O59	0.234030	0.421030	0.402720
C1281	C128	0.426700	0.560900	0.280650
O601	O60	0.445250	0.583470	0.262050
N151	N15	0.306830	0.707800	0.296450
O611	O61	0.295990	0.495830	0.344910
C1291	C129	0.282100	0.542500	0.342010
O621	O62	0.445380	0.517940	0.289730
C1301	C130	0.196970	0.378300	0.447560
H571	H57	0.232400	0.371500	0.443000
N161	N16	0.041400	0.409900	0.468260
C1311	C131	0.125080	0.367300	0.475770
H581	H58	0.110600	0.352300	0.490500
C1321	C132	0.293980	0.624900	0.317780
H591	H59	0.263200	0.638700	0.325300
C1331	C133	0.364770	0.634340	0.288180
H601	H60	0.382200	0.654800	0.275900
C1341	C134	0.210300	0.319800	0.483590
C1351	C135	0.114470	0.422300	0.439360
H611	H61	0.092700	0.444200	0.429300
C1361	C136	0.381510	0.583350	0.293680
C1371	C137	0.165680	0.411800	0.432180
O631	O63	0.189190	0.303270	0.503940
C1381	C138	0.353650	0.553320	0.311900
H621	H62	0.364800	0.518700	0.315900
C1391	C139	0.095250	0.400900	0.461110
C1401	C140	0.311300	0.574270	0.323540
C1411	C141	0.322100	0.654180	0.301130
C1421	C142	0.027100	0.426600	0.493540
H631	H63	0.050000	0.435400	0.506900
C1431	C143	0.257700	0.719800	0.289890
H641	H64	0.229600	0.696600	0.286100
C1441	C144	0.177100	0.355800	0.468650
O641	O64	0.244950	0.564990	0.353660
Zn91	Zn9	0.276710	0.444600	0.373200
O651	O65	0.222700	0.411820	0.350250
C1451	C145	0.187100	0.438700	0.339840
O661	O66	0.056000	0.502630	0.274170
O671	O67	0.171030	0.484030	0.347280
C1461	C146	0.310900	0.676700	0.469350
O681	O68	0.333470	0.695250	0.487950
N171	N17	0.457800	0.556830	0.453550
O691	O69	0.245830	0.545990	0.405090
C1471	C147	0.292500	0.532100	0.407990
O701	O70	0.267940	0.695380	0.460270
C1481	C148	0.128300	0.446970	0.302440
H651	H65	0.121500	0.482400	0.307000
N181	N18	0.159900	0.291400	0.281740
C1491	C149	0.117300	0.375080	0.274230
H661	H66	0.102300	0.360600	0.259500
C1501	C150	0.374900	0.543980	0.432220
H671	H67	0.388700	0.513200	0.424700
C1511	C151	0.384340	0.614770	0.461820
H681	H68	0.404800	0.632200	0.474100
C1521	C152	0.069800	0.460300	0.266410
C1531	C153	0.172300	0.364470	0.310640
H691	H69	0.194200	0.342700	0.320700
C1541	C154	0.333350	0.631510	0.456320
C1551	C155	0.161800	0.415680	0.317820
O711	O71	0.053270	0.439190	0.246060
C1561	C156	0.303320	0.603650	0.438100
H701	H70	0.268700	0.614800	0.434100
C1571	C157	0.150900	0.345250	0.288890
C1581	C158	0.324270	0.561300	0.426460
C1591	C159	0.404180	0.572100	0.448870
C1601	C160	0.176600	0.277100	0.256460
H711	H71	0.185400	0.300000	0.243100
C1611	C161	0.469800	0.507700	0.460110
H721	H72	0.446600	0.479600	0.463900
C1621	C162	0.105800	0.427100	0.281350
O721	O72	0.314990	0.494950	0.396340
Zn101	Zn10	0.776710	0.944600	0.873200
O731	O73	0.722700	0.911820	0.850250
C1631	C163	0.687100	0.938700	0.839840
O741	O74	0.556000	0.002630	0.774170
O751	O75	0.671030	0.984030	0.847280
C1641	C164	0.810900	0.176700	0.969350
O761	O76	0.833470	0.195250	0.987950
N191	N19	0.957800	0.056830	0.953550
O771	O77	0.745830	0.045990	0.905090
C1651	C165	0.792500	0.032100	0.907990
O781	O78	0.767940	0.195380	0.960270
C1661	C166	0.628300	0.946970	0.802440
H731	H73	0.621500	0.982400	0.807000
N201	N20	0.659900	0.791400	0.781740
C1671	C167	0.617300	0.875080	0.774230
H741	H74	0.602300	0.860600	0.759500
C1681	C168	0.874900	0.043980	0.932220
H751	H75	0.888700	0.013200	0.924700
C1691	C169	0.884340	0.114770	0.961820
H761	H76	0.904800	0.132200	0.974100
C1701	C170	0.569800	0.960300	0.766410
C1711	C171	0.672300	0.864470	0.810640
H771	H77	0.694200	0.842700	0.820700
C1721	C172	0.833350	0.131510	0.956320
C1731	C173	0.661800	0.915680	0.817820
O791	O79	0.553270	0.939190	0.746060
C1741	C174	0.803320	0.103650	0.938100
H781	H78	0.768700	0.114800	0.934100
C1751	C175	0.650900	0.845250	0.788890
C1761	C176	0.824270	0.061300	0.926460
C1771	C177	0.904180	0.072100	0.948870
C1781	C178	0.676600	0.777100	0.756460
H791	H79	0.685400	0.800000	0.743100
C1791	C179	0.969800	0.007700	0.960110
H801	H80	0.946600	0.979600	0.963900
C1801	C180	0.605800	0.927100	0.781350
O801	O80	0.814990	0.994950	0.896340
Zn111	Zn11	0.223290	0.555400	0.873200
O811	O81	0.277300	0.588180	0.850250
C1811	C181	0.312900	0.561300	0.839840
O821	O82	0.444000	0.497370	0.774170
O831	O83	0.328970	0.515970	0.847280
C1821	C182	0.189100	0.323300	0.969350
O841	O84	0.166530	0.304750	0.987950
N211	N21	0.042200	0.443170	0.953550
O851	O85	0.254170	0.454010	0.905090
C1831	C183	0.207500	0.467900	0.907990
O861	O86	0.232060	0.304620	0.960270
C1841	C184	0.371700	0.553030	0.802440
H811	H81	0.378500	0.517600	0.807000
N221	N22	0.340100	0.708600	0.781740
C1851	C185	0.382700	0.624920	0.774230
H821	H82	0.397700	0.639400	0.759500
C1861	C186	0.125100	0.456020	0.932220
H831	H83	0.111300	0.486800	0.924700
C1871	C187	0.115660	0.385230	0.961820
H841	H84	0.095200	0.367800	0.974100
C1881	C188	0.430200	0.539700	0.766410
C1891	C189	0.327700	0.635530	0.810640
H851	H85	0.305800	0.657300	0.820700
C1901	C190	0.166650	0.368490	0.956320
C1911	C191	0.338200	0.584320	0.817820
O871	O87	0.446730	0.560810	0.746060
C1921	C192	0.196680	0.396350	0.938100
H861	H86	0.231300	0.385200	0.934100
C1931	C193	0.349100	0.654750	0.788890
C1941	C194	0.175730	0.438700	0.926460
C1951	C195	0.095820	0.427900	0.948870
C1961	C196	0.323400	0.722900	0.756460
H871	H87	0.314600	0.700000	0.743100
C1971	C197	0.030200	0.492300	0.960110
H881	H88	0.053400	0.520400	0.963900
C1981	C198	0.394200	0.572900	0.781350
O881	O88	0.185010	0.505050	0.896340
Zn121	Zn12	0.723290	0.055400	0.373200
O891	O89	0.777300	0.088180	0.350250
C1991	C199	0.812900	0.061300	0.339840
O901	O90	0.944000	0.997370	0.274170
O911	O91	0.828970	0.015970	0.347280
C2001	C200	0.689100	0.823300	0.469350
O921	O92	0.666530	0.804750	0.487950
N231	N23	0.542200	0.943170	0.453550
O931	O93	0.754170	0.954010	0.405090
C2011	C201	0.707500	0.967900	0.407990
O941	O94	0.732060	0.804620	0.460270
C2021	C202	0.871700	0.053030	0.302440
H891	H89	0.878500	0.017600	0.307000
N241	N24	0.840100	0.208600	0.281740
C2031	C203	0.882700	0.124920	0.274230
H901	H90	0.897700	0.139400	0.259500
C2041	C204	0.625100	0.956020	0.432220
H911	H91	0.611300	0.986800	0.424700
C2051	C205	0.615660	0.885230	0.461820
H921	H92	0.595200	0.867800	0.474100
C2061	C206	0.930200	0.039700	0.266410
C2071	C207	0.827700	0.135530	0.310640
H931	H93	0.805800	0.157300	0.320700
C2081	C208	0.666650	0.868490	0.456320
C2091	C209	0.838200	0.084320	0.317820
O951	O95	0.946730	0.060810	0.246060
C2101	C210	0.696680	0.896350	0.438100
H941	H94	0.731300	0.885200	0.434100
C2111	C211	0.849100	0.154750	0.288890
C2121	C212	0.675730	0.938700	0.426460
C2131	C213	0.595820	0.927900	0.448870
C2141	C214	0.823400	0.222900	0.256460
H951	H95	0.814600	0.200000	0.243100
C2151	C215	0.530200	0.992300	0.460110
H961	H96	0.553400	0.020400	0.463900
C2161	C216	0.894200	0.072900	0.281350
O961	O96	0.685010	0.005050	0.396340
Zn131	Zn13	0.694600	0.973290	0.123200
O971	O97	0.661820	0.027300	0.100250
C2171	C217	0.688700	0.062900	0.089840
O981	O98	0.752630	0.194000	0.024170
O991	O99	0.734030	0.078970	0.097280
C2181	C218	0.926700	0.939100	0.219350
O1001	O100	0.945250	0.916530	0.237950
N251	N25	0.806830	0.792200	0.203550
O1011	O101	0.795990	0.004170	0.155090
C2191	C219	0.782100	0.957500	0.157990
O1021	O102	0.945380	0.982060	0.210270
C2201	C220	0.696970	0.121700	0.052440
H971	H97	0.732400	0.128500	0.057000
N261	N26	0.541400	0.090100	0.031740
C2211	C221	0.625080	0.132700	0.024230
H981	H98	0.610600	0.147700	0.009500
C2221	C222	0.793980	0.875100	0.182220
H991	H99	0.763200	0.861300	0.174700
C2231	C223	0.864770	0.865660	0.211820
H1001	H100	0.882200	0.845200	0.224100
C2241	C224	0.710300	0.180200	0.016410
C2251	C225	0.614470	0.077700	0.060640
H1011	H101	0.592700	0.055800	0.070700
C2261	C226	0.881510	0.916650	0.206320
C2271	C227	0.665680	0.088200	0.067820
O1031	O103	0.689190	0.196730	0.996060
C2281	C228	0.853650	0.946680	0.188100
H1021	H102	0.864800	0.981300	0.184100
C2291	C229	0.595250	0.099100	0.038890
C2301	C230	0.811300	0.925730	0.176460
C2311	C231	0.822100	0.845820	0.198870
C2321	C232	0.527100	0.073400	0.006460
H1031	H103	0.550000	0.064600	0.993100
C2331	C233	0.757700	0.780200	0.210110
H1041	H104	0.729600	0.803400	0.213900
C2341	C234	0.677100	0.144200	0.031350
O1041	O104	0.744950	0.935010	0.146340
Zn141	Zn14	0.194600	0.473290	0.623200
O1051	O105	0.161820	0.527300	0.600250
C2351	C235	0.188700	0.562900	0.589840
O1061	O106	0.252630	0.694000	0.524170
O1071	O107	0.234030	0.578970	0.597280
C2361	C236	0.426700	0.439100	0.719350
O1081	O108	0.445250	0.416530	0.737950
N271	N27	0.306830	0.292200	0.703550
O1091	O109	0.295990	0.504170	0.655090
C2371	C237	0.282100	0.457500	0.657990
O1101	O110	0.445380	0.482060	0.710270
C2381	C238	0.196970	0.621700	0.552440
H1051	H105	0.232400	0.628500	0.557000
N281	N28	0.041400	0.590100	0.531740
C2391	C239	0.125080	0.632700	0.524230
H1061	H106	0.110600	0.647700	0.509500
C2401	C240	0.293980	0.375100	0.682220
H1071	H107	0.263200	0.361300	0.674700
C2411	C241	0.364770	0.365660	0.711820
H1081	H108	0.382200	0.345200	0.724100
C2421	C242	0.210300	0.680200	0.516410
C2431	C243	0.114470	0.577700	0.560640
H1091	H109	0.092700	0.555800	0.570700
C2441	C244	0.381510	0.416650	0.706320
C2451	C245	0.165680	0.588200	0.567820
O1111	O111	0.189190	0.696730	0.496060
C2461	C246	0.353650	0.446680	0.688100
H1101	H110	0.364800	0.481300	0.684100
C2471	C247	0.095250	0.599100	0.538890
C2481	C248	0.311300	0.425730	0.676460
C2491	C249	0.322100	0.345820	0.698870
C2501	C250	0.027100	0.573400	0.506460
H1111	H111	0.050000	0.564600	0.493100
C2511	C251	0.257700	0.280200	0.710110
H1121	H112	0.229600	0.303400	0.713900
C2521	C252	0.177100	0.644200	0.531350
O1121	O112	0.244950	0.435010	0.646340
Zn151	Zn15	0.805400	0.026710	0.623200
O1131	O113	0.838180	0.972700	0.600250
C2531	C253	0.811300	0.937100	0.589840
O1141	O114	0.747370	0.806000	0.524170
O1151	O115	0.765970	0.921030	0.597280
C2541	C254	0.573300	0.060900	0.719350
O1161	O116	0.554750	0.083470	0.737950
N291	N29	0.693170	0.207800	0.703550
O1171	O117	0.704010	0.995830	0.655090
C2551	C255	0.717900	0.042500	0.657990
O1181	O118	0.554620	0.017940	0.710270
C2561	C256	0.803030	0.878300	0.552440
H1131	H113	0.767600	0.871500	0.557000
N301	N30	0.958600	0.909900	0.531740
C2571	C257	0.874920	0.867300	0.524230
H1141	H114	0.889400	0.852300	0.509500
C2581	C258	0.706020	0.124900	0.682220
H1151	H115	0.736800	0.138700	0.674700
C2591	C259	0.635230	0.134340	0.711820
H1161	H116	0.617800	0.154800	0.724100
C2601	C260	0.789700	0.819800	0.516410
C2611	C261	0.885530	0.922300	0.560640
H1171	H117	0.907300	0.944200	0.570700
C2621	C262	0.618490	0.083350	0.706320
C2631	C263	0.834320	0.911800	0.567820
O1191	O119	0.810810	0.803270	0.496060
C2641	C264	0.646350	0.053320	0.688100
H1181	H118	0.635200	0.018700	0.684100
C2651	C265	0.904750	0.900900	0.538890
C2661	C266	0.688700	0.074270	0.676460
C2671	C267	0.677900	0.154180	0.698870
C2681	C268	0.972900	0.926600	0.506460
H1191	H119	0.950000	0.935400	0.493100
C2691	C269	0.742300	0.219800	0.710110
H1201	H120	0.770400	0.196600	0.713900
C2701	C270	0.822900	0.855800	0.531350
O1201	O120	0.755050	0.064990	0.646340
Zn161	Zn16	0.305400	0.526710	0.123200
O1211	O121	0.338180	0.472700	0.100250
C2711	C271	0.311300	0.437100	0.089840
O1221	O122	0.247370	0.306000	0.024170
O1231	O123	0.265970	0.421030	0.097280
C2721	C272	0.073300	0.560900	0.219350
O1241	O124	0.054750	0.583470	0.237950
N311	N31	0.193170	0.707800	0.203550
O1251	O125	0.204010	0.495830	0.155090
C2731	C273	0.217900	0.542500	0.157990
O1261	O126	0.054620	0.517940	0.210270
C2741	C274	0.303030	0.378300	0.052440
H1211	H121	0.267600	0.371500	0.057000
N321	N32	0.458600	0.409900	0.031740
C2751	C275	0.374920	0.367300	0.024230
H1221	H122	0.389400	0.352300	0.009500
C2761	C276	0.206020	0.624900	0.182220
H1231	H123	0.236800	0.638700	0.174700
C2771	C277	0.135230	0.634340	0.211820
H1241	H124	0.117800	0.654800	0.224100
C2781	C278	0.289700	0.319800	0.016410
C2791	C279	0.385530	0.422300	0.060640
H1251	H125	0.407300	0.444200	0.070700
C2801	C280	0.118490	0.583350	0.206320
C2811	C281	0.334320	0.411800	0.067820
O1271	O127	0.310810	0.303270	0.996060
C2821	C282	0.146350	0.553320	0.188100
H1261	H126	0.135200	0.518700	0.184100
C2831	C283	0.404750	0.400900	0.038890
C2841	C284	0.188700	0.574270	0.176460
C2851	C285	0.177900	0.654180	0.198870
C2861	C286	0.472900	0.426600	0.006460
H1271	H127	0.450000	0.435400	0.993100
C2871	C287	0.242300	0.719800	0.210110
H1281	H128	0.270400	0.696600	0.213900
C2881	C288	0.322900	0.355800	0.031350
O1281	O128	0.255050	0.564990	0.146340
Zn171	Zn17	0.776710	0.555400	0.873200
O1291	O129	0.722700	0.588180	0.850250
C2891	C289	0.687100	0.561300	0.839840
O1301	O130	0.556000	0.497370	0.774170
O1311	O131	0.671030	0.515970	0.847280
C2901	C290	0.810900	0.323300	0.969350
O1321	O132	0.833470	0.304750	0.987950
N331	N33	0.957800	0.443170	0.953550
O1331	O133	0.745830	0.454010	0.905090
C2911	C291	0.792500	0.467900	0.907990
O1341	O134	0.767940	0.304620	0.960270
C2921	C292	0.628300	0.553030	0.802440
H1291	H129	0.621500	0.517600	0.807000
N341	N34	0.659900	0.708600	0.781740
C2931	C293	0.617300	0.624920	0.774230
H1301	H130	0.602300	0.639400	0.759500
C2941	C294	0.874900	0.456020	0.932220
H1311	H131	0.888700	0.486800	0.924700
C2951	C295	0.884340	0.385230	0.961820
H1321	H132	0.904800	0.367800	0.974100
C2961	C296	0.569800	0.539700	0.766410
C2971	C297	0.672300	0.635530	0.810640
H1331	H133	0.694200	0.657300	0.820700
C2981	C298	0.833350	0.368490	0.956320
C2991	C299	0.661800	0.584320	0.817820
O1351	O135	0.553270	0.560810	0.746060
C3001	C300	0.803320	0.396350	0.938100
H1341	H134	0.768700	0.385200	0.934100
C3011	C301	0.650900	0.654750	0.788890
C3021	C302	0.824270	0.438700	0.926460
C3031	C303	0.904180	0.427900	0.948870
C3041	C304	0.676600	0.722900	0.756460
H1351	H135	0.685400	0.700000	0.743100
C3051	C305	0.969800	0.492300	0.960110
H1361	H136	0.946600	0.520400	0.963900
C3061	C306	0.605800	0.572900	0.781350
O1361	O136	0.814990	0.505050	0.896340
Zn181	Zn18	0.276710	0.055400	0.373200
O1371	O137	0.222700	0.088180	0.350250
C3071	C307	0.187100	0.061300	0.339840
O1381	O138	0.056000	0.997370	0.274170
O1391	O139	0.171030	0.015970	0.347280
C3081	C308	0.310900	0.823300	0.469350
O1401	O140	0.333470	0.804750	0.487950
N351	N35	0.457800	0.943170	0.453550
O1411	O141	0.245830	0.954010	0.405090
C3091	C309	0.292500	0.967900	0.407990
O1421	O142	0.267940	0.804620	0.460270
C3101	C310	0.128300	0.053030	0.302440
H1371	H137	0.121500	0.017600	0.307000
N361	N36	0.159900	0.208600	0.281740
C3111	C311	0.117300	0.124920	0.274230
H1381	H138	0.102300	0.139400	0.259500
C3121	C312	0.374900	0.956020	0.432220
H1391	H139	0.388700	0.986800	0.424700
C3131	C313	0.384340	0.885230	0.461820
H1401	H140	0.404800	0.867800	0.474100
C3141	C314	0.069800	0.039700	0.266410
C3151	C315	0.172300	0.135530	0.310640
H1411	H141	0.194200	0.157300	0.320700
C3161	C316	0.333350	0.868490	0.456320
C3171	C317	0.161800	0.084320	0.317820
O1431	O143	0.053270	0.060810	0.246060
C3181	C318	0.303320	0.896350	0.438100
H1421	H142	0.268700	0.885200	0.434100
C3191	C319	0.150900	0.154750	0.288890
C3201	C320	0.324270	0.938700	0.426460
C3211	C321	0.404180	0.927900	0.448870
C3221	C322	0.176600	0.222900	0.256460
H1431	H143	0.185400	0.200000	0.243100
C3231	C323	0.469800	0.992300	0.460110
H1441	H144	0.446600	0.020400	0.463900
C3241	C324	0.105800	0.072900	0.281350
O1441	O144	0.314990	0.005050	0.396340
Zn191	Zn19	0.723290	0.444600	0.373200
O1451	O145	0.777300	0.411820	0.350250
C3251	C325	0.812900	0.438700	0.339840
O1461	O146	0.944000	0.502630	0.274170
O1471	O147	0.828970	0.484030	0.347280
C3261	C326	0.689100	0.676700	0.469350
O1481	O148	0.666530	0.695250	0.487950
N371	N37	0.542200	0.556830	0.453550
O1491	O149	0.754170	0.545990	0.405090
C3271	C327	0.707500	0.532100	0.407990
O1501	O150	0.732060	0.695380	0.460270
C3281	C328	0.871700	0.446970	0.302440
H1451	H145	0.878500	0.482400	0.307000
N381	N38	0.840100	0.291400	0.281740
C3291	C329	0.882700	0.375080	0.274230
H1461	H146	0.897700	0.360600	0.259500
C3301	C330	0.625100	0.543980	0.432220
H1471	H147	0.611300	0.513200	0.424700
C3311	C331	0.615660	0.614770	0.461820
H1481	H148	0.595200	0.632200	0.474100
C3321	C332	0.930200	0.460300	0.266410
C3331	C333	0.827700	0.364470	0.310640
H1491	H149	0.805800	0.342700	0.320700
C3341	C334	0.666650	0.631510	0.456320
C3351	C335	0.838200	0.415680	0.317820
O1511	O151	0.946730	0.439190	0.246060
C3361	C336	0.696680	0.603650	0.438100
H1501	H150	0.731300	0.614800	0.434100
C3371	C337	0.849100	0.345250	0.288890
C3381	C338	0.675730	0.561300	0.426460
C3391	C339	0.595820	0.572100	0.448870
C3401	C340	0.823400	0.277100	0.256460
H1511	H151	0.814600	0.300000	0.243100
C3411	C341	0.530200	0.507700	0.460110
H1521	H152	0.553400	0.479600	0.463900
C3421	C342	0.894200	0.427100	0.281350
O1521	O152	0.685010	0.494950	0.396340
Zn201	Zn20	0.223290	0.944600	0.873200
O1531	O153	0.277300	0.911820	0.850250
C3431	C343	0.312900	0.938700	0.839840
O1541	O154	0.444000	0.002630	0.774170
O1551	O155	0.328970	0.984030	0.847280
C3441	C344	0.189100	0.176700	0.969350
O1561	O156	0.166530	0.195250	0.987950
N391	N39	0.042200	0.056830	0.953550
O1571	O157	0.254170	0.045990	0.905090
C3451	C345	0.207500	0.032100	0.907990
O1581	O158	0.232060	0.195380	0.960270
C3461	C346	0.371700	0.946970	0.802440
H1531	H153	0.378500	0.982400	0.807000
N401	N40	0.340100	0.791400	0.781740
C3471	C347	0.382700	0.875080	0.774230
H1541	H154	0.397700	0.860600	0.759500
C3481	C348	0.125100	0.043980	0.932220
H1551	H155	0.111300	0.013200	0.924700
C3491	C349	0.115660	0.114770	0.961820
H1561	H156	0.095200	0.132200	0.974100
C3501	C350	0.430200	0.960300	0.766410
C3511	C351	0.327700	0.864470	0.810640
H1571	H157	0.305800	0.842700	0.820700
C3521	C352	0.166650	0.131510	0.956320
C3531	C353	0.338200	0.915680	0.817820
O1591	O159	0.446730	0.939190	0.746060
C3541	C354	0.196680	0.103650	0.938100
H1581	H158	0.231300	0.114800	0.934100
C3551	C355	0.349100	0.845250	0.788890
C3561	C356	0.175730	0.061300	0.926460
C3571	C357	0.095820	0.072100	0.948870
C3581	C358	0.323400	0.777100	0.756460
H1591	H159	0.314600	0.800000	0.743100
C3591	C359	0.030200	0.007700	0.960110
H1601	H160	0.053400	0.979600	0.963900
C3601	C360	0.394200	0.927100	0.781350
O1601	O160	0.185010	0.994950	0.896340
Zn211	Zn21	0.194600	0.026710	0.623200
O1611	O161	0.161820	0.972700	0.600250
C3611	C361	0.188700	0.937100	0.589840
O1621	O162	0.252630	0.806000	0.524170
O1631	O163	0.234030	0.921030	0.597280
C3621	C362	0.426700	0.060900	0.719350
O1641	O164	0.445250	0.083470	0.737950
N411	N41	0.306830	0.207800	0.703550
O1651	O165	0.295990	0.995830	0.655090
C3631	C363	0.282100	0.042500	0.657990
O1661	O166	0.445380	0.017940	0.710270
C3641	C364	0.196970	0.878300	0.552440
H1611	H161	0.232400	0.871500	0.557000
N421	N42	0.041400	0.909900	0.531740
C3651	C365	0.125080	0.867300	0.524230
H1621	H162	0.110600	0.852300	0.509500
C3661	C366	0.293980	0.124900	0.682220
H1631	H163	0.263200	0.138700	0.674700
C3671	C367	0.364770	0.134340	0.711820
H1641	H164	0.382200	0.154800	0.724100
C3681	C368	0.210300	0.819800	0.516410
C3691	C369	0.114470	0.922300	0.560640
H1651	H165	0.092700	0.944200	0.570700
C3701	C370	0.381510	0.083350	0.706320
C3711	C371	0.165680	0.911800	0.567820
O1671	O167	0.189190	0.803270	0.496060
C3721	C372	0.353650	0.053320	0.688100
H1661	H166	0.364800	0.018700	0.684100
C3731	C373	0.095250	0.900900	0.538890
C3741	C374	0.311300	0.074270	0.676460
C3751	C375	0.322100	0.154180	0.698870
C3761	C376	0.027100	0.926600	0.506460
H1671	H167	0.050000	0.935400	0.493100
C3771	C377	0.257700	0.219800	0.710110
H1681	H168	0.229600	0.196600	0.713900
C3781	C378	0.177100	0.855800	0.531350
O1681	O168	0.244950	0.064990	0.646340
Zn221	Zn22	0.694600	0.526710	0.123200
O1691	O169	0.661820	0.472700	0.100250
C3791	C379	0.688700	0.437100	0.089840
O1701	O170	0.752630	0.306000	0.024170
O1711	O171	0.734030	0.421030	0.097280
C3801	C380	0.926700	0.560900	0.219350
O1721	O172	0.945250	0.583470	0.237950
N431	N43	0.806830	0.707800	0.203550
O1731	O173	0.795990	0.495830	0.155090
C3811	C381	0.782100	0.542500	0.157990
O1741	O174	0.945380	0.517940	0.210270
C3821	C382	0.696970	0.378300	0.052440
H1691	H169	0.732400	0.371500	0.057000
N441	N44	0.541400	0.409900	0.031740
C3831	C383	0.625080	0.367300	0.024230
H1701	H170	0.610600	0.352300	0.009500
C3841	C384	0.793980	0.624900	0.182220
H1711	H171	0.763200	0.638700	0.174700
C3851	C385	0.864770	0.634340	0.211820
H1721	H172	0.882200	0.654800	0.224100
C3861	C386	0.710300	0.319800	0.016410
C3871	C387	0.614470	0.422300	0.060640
H1731	H173	0.592700	0.444200	0.070700
C3881	C388	0.881510	0.583350	0.206320
C3891	C389	0.665680	0.411800	0.067820
O1751	O175	0.689190	0.303270	0.996060
C3901	C390	0.853650	0.553320	0.188100
H1741	H174	0.864800	0.518700	0.184100
C3911	C391	0.595250	0.400900	0.038890
C3921	C392	0.811300	0.574270	0.176460
C3931	C393	0.822100	0.654180	0.198870
C3941	C394	0.527100	0.426600	0.006460
H1751	H175	0.550000	0.435400	0.993100
C3951	C395	0.757700	0.719800	0.210110
H1761	H176	0.729600	0.696600	0.213900
C3961	C396	0.677100	0.355800	0.031350
O1761	O176	0.744950	0.564990	0.146340
Zn231	Zn23	0.305400	0.973290	0.123200
O1771	O177	0.338180	0.027300	0.100250
C3971	C397	0.311300	0.062900	0.089840
O1781	O178	0.247370	0.194000	0.024170
O1791	O179	0.265970	0.078970	0.097280
C3981	C398	0.073300	0.939100	0.219350
O1801	O180	0.054750	0.916530	0.237950
N451	N45	0.193170	0.792200	0.203550
O1811	O181	0.204010	0.004170	0.155090
C3991	C399	0.217900	0.957500	0.157990
O1821	O182	0.054620	0.982060	0.210270
C4001	C400	0.303030	0.121700	0.052440
H1771	H177	0.267600	0.128500	0.057000
N461	N46	0.458600	0.090100	0.031740
C4011	C401	0.374920	0.132700	0.024230
H1781	H178	0.389400	0.147700	0.009500
C4021	C402	0.206020	0.875100	0.182220
H1791	H179	0.236800	0.861300	0.174700
C4031	C403	0.135230	0.865660	0.211820
H1801	H180	0.117800	0.845200	0.224100
C4041	C404	0.289700	0.180200	0.016410
C4051	C405	0.385530	0.077700	0.060640
H1811	H181	0.407300	0.055800	0.070700
C4061	C406	0.118490	0.916650	0.206320
C4071	C407	0.334320	0.088200	0.067820
O1831	O183	0.310810	0.196730	0.996060
C4081	C408	0.146350	0.946680	0.188100
H1821	H182	0.135200	0.981300	0.184100
C4091	C409	0.404750	0.099100	0.038890
C4101	C410	0.188700	0.925730	0.176460
C4111	C411	0.177900	0.845820	0.198870
C4121	C412	0.472900	0.073400	0.006460
H1831	H183	0.450000	0.064600	0.993100
C4131	C413	0.242300	0.780200	0.210110
H1841	H184	0.270400	0.803400	0.213900
C4141	C414	0.322900	0.144200	0.031350
O1841	O184	0.255050	0.935010	0.146340
Zn241	Zn24	0.805400	0.473290	0.623200
O1851	O185	0.838180	0.527300	0.600250
C4151	C415	0.811300	0.562900	0.589840
O1861	O186	0.747370	0.694000	0.524170
O1871	O187	0.765970	0.578970	0.597280
C4161	C416	0.573300	0.439100	0.719350
O1881	O188	0.554750	0.416530	0.737950
N471	N47	0.693170	0.292200	0.703550
O1891	O189	0.704010	0.504170	0.655090
C4171	C417	0.717900	0.457500	0.657990
O1901	O190	0.554620	0.482060	0.710270
C4181	C418	0.803030	0.621700	0.552440
H1851	H185	0.767600	0.628500	0.557000
N481	N48	0.958600	0.590100	0.531740
C4191	C419	0.874920	0.632700	0.524230
H1861	H186	0.889400	0.647700	0.509500
C4201	C420	0.706020	0.375100	0.682220
H1871	H187	0.736800	0.361300	0.674700
C4211	C421	0.635230	0.365660	0.711820
H1881	H188	0.617800	0.345200	0.724100
C4221	C422	0.789700	0.680200	0.516410
C4231	C423	0.885530	0.577700	0.560640
H1891	H189	0.907300	0.555800	0.570700
C4241	C424	0.618490	0.416650	0.706320
C4251	C425	0.834320	0.588200	0.567820
O1911	O191	0.810810	0.696730	0.496060
C4261	C426	0.646350	0.446680	0.688100
H1901	H190	0.635200	0.481300	0.684100
C4271	C427	0.904750	0.599100	0.538890
C4281	C428	0.688700	0.425730	0.676460
C4291	C429	0.677900	0.345820	0.698870
C4301	C430	0.972900	0.573400	0.506460
H1911	H191	0.950000	0.564600	0.493100
C4311	C431	0.742300	0.280200	0.710110
H1921	H192	0.770400	0.303400	0.713900
C4321	C432	0.822900	0.644200	0.531350
O1921	O192	0.755050	0.435010	0.646340
Zn251	Zn25	0.723290	0.555400	0.626800
O1931	O193	0.777300	0.588180	0.649750
C4331	C433	0.812900	0.561300	0.660160
O1941	O194	0.944000	0.497370	0.725830
O1951	O195	0.828970	0.515970	0.652720
C4341	C434	0.689100	0.323300	0.530650
O1961	O196	0.666530	0.304750	0.512050
N491	N49	0.542200	0.443170	0.546450
O1971	O197	0.754170	0.454010	0.594910
C4351	C435	0.707500	0.467900	0.592010
O1981	O198	0.732060	0.304620	0.539730
C4361	C436	0.871700	0.553030	0.697560
H1931	H193	0.878500	0.517600	0.693000
N501	N50	0.840100	0.708600	0.718260
C4371	C437	0.882700	0.624920	0.725770
H1941	H194	0.897700	0.639400	0.740500
C4381	C438	0.625100	0.456020	0.567780
H1951	H195	0.611300	0.486800	0.575300
C4391	C439	0.615660	0.385230	0.538180
H1961	H196	0.595200	0.367800	0.525900
C4401	C440	0.930200	0.539700	0.733590
C4411	C441	0.827700	0.635530	0.689360
H1971	H197	0.805800	0.657300	0.679300
C4421	C442	0.666650	0.368490	0.543680
C4431	C443	0.838200	0.584320	0.682180
O1991	O199	0.946730	0.560810	0.753940
C4441	C444	0.696680	0.396350	0.561900
H1981	H198	0.731300	0.385200	0.565900
C4451	C445	0.849100	0.654750	0.711110
C4461	C446	0.675730	0.438700	0.573540
C4471	C447	0.595820	0.427900	0.551130
C4481	C448	0.823400	0.722900	0.743540
H1991	H199	0.814600	0.700000	0.756900
C4491	C449	0.530200	0.492300	0.539890
H2001	H200	0.553400	0.520400	0.536100
C4501	C450	0.894200	0.572900	0.718650
O2001	O200	0.685010	0.505050	0.603660
Zn261	Zn26	0.223290	0.055400	0.126800
O2011	O201	0.277300	0.088180	0.149750
C4511	C451	0.312900	0.061300	0.160160
O2021	O202	0.444000	0.997370	0.225830
O2031	O203	0.328970	0.015970	0.152720
C4521	C452	0.189100	0.823300	0.030650
O2041	O204	0.166530	0.804750	0.012050
N511	N51	0.042200	0.943170	0.046450
O2051	O205	0.254170	0.954010	0.094910
C4531	C453	0.207500	0.967900	0.092010
O2061	O206	0.232060	0.804620	0.039730
C4541	C454	0.371700	0.053030	0.197560
H2011	H201	0.378500	0.017600	0.193000
N521	N52	0.340100	0.208600	0.218260
C4551	C455	0.382700	0.124920	0.225770
H2021	H202	0.397700	0.139400	0.240500
C4561	C456	0.125100	0.956020	0.067780
H2031	H203	0.111300	0.986800	0.075300
C4571	C457	0.115660	0.885230	0.038180
H2041	H204	0.095200	0.867800	0.025900
C4581	C458	0.430200	0.039700	0.233590
C4591	C459	0.327700	0.135530	0.189360
H2051	H205	0.305800	0.157300	0.179300
C4601	C460	0.166650	0.868490	0.043680
C4611	C461	0.338200	0.084320	0.182180
O2071	O207	0.446730	0.060810	0.253940
C4621	C462	0.196680	0.896350	0.061900
H2061	H206	0.231300	0.885200	0.065900
C4631	C463	0.349100	0.154750	0.211110
C4641	C464	0.175730	0.938700	0.073540
C4651	C465	0.095820	0.927900	0.051130
C4661	C466	0.323400	0.222900	0.243540
H2071	H207	0.314600	0.200000	0.256900
C4671	C467	0.030200	0.992300	0.039890
H2081	H208	0.053400	0.020400	0.036100
C4681	C468	0.394200	0.072900	0.218650
O2081	O208	0.185010	0.005050	0.103660
Zn271	Zn27	0.776710	0.444600	0.126800
O2091	O209	0.722700	0.411820	0.149750
C4691	C469	0.687100	0.438700	0.160160
O2101	O210	0.556000	0.502630	0.225830
O2111	O211	0.671030	0.484030	0.152720
C4701	C470	0.810900	0.676700	0.030650
O2121	O212	0.833470	0.695250	0.012050
N531	N53	0.957800	0.556830	0.046450
O2131	O213	0.745830	0.545990	0.094910
C4711	C471	0.792500	0.532100	0.092010
O2141	O214	0.767940	0.695380	0.039730
C4721	C472	0.628300	0.446970	0.197560
H2091	H209	0.621500	0.482400	0.193000
N541	N54	0.659900	0.291400	0.218260
C4731	C473	0.617300	0.375080	0.225770
H2101	H210	0.602300	0.360600	0.240500
C4741	C474	0.874900	0.543980	0.067780
H2111	H211	0.888700	0.513200	0.075300
C4751	C475	0.884340	0.614770	0.038180
H2121	H212	0.904800	0.632200	0.025900
C4761	C476	0.569800	0.460300	0.233590
C4771	C477	0.672300	0.364470	0.189360
H2131	H213	0.694200	0.342700	0.179300
C4781	C478	0.833350	0.631510	0.043680
C4791	C479	0.661800	0.415680	0.182180
O2151	O215	0.553270	0.439190	0.253940
C4801	C480	0.803320	0.603650	0.061900
H2141	H214	0.768700	0.614800	0.065900
C4811	C481	0.650900	0.345250	0.211110
C4821	C482	0.824270	0.561300	0.073540
C4831	C483	0.904180	0.572100	0.051130
C4841	C484	0.676600	0.277100	0.243540
H2151	H215	0.685400	0.300000	0.256900
C4851	C485	0.969800	0.507700	0.039890
H2161	H216	0.946600	0.479600	0.036100
C4861	C486	0.605800	0.427100	0.218650
O2161	O216	0.814990	0.494950	0.103660
Zn281	Zn28	0.276710	0.944600	0.626800
O2171	O217	0.222700	0.911820	0.649750
C4871	C487	0.187100	0.938700	0.660160
O2181	O218	0.056000	0.002630	0.725830
O2191	O219	0.171030	0.984030	0.652720
C4881	C488	0.310900	0.176700	0.530650
O2201	O220	0.333470	0.195250	0.512050
N551	N55	0.457800	0.056830	0.546450
O2211	O221	0.245830	0.045990	0.594910
C4891	C489	0.292500	0.032100	0.592010
O2221	O222	0.267940	0.195380	0.539730
C4901	C490	0.128300	0.946970	0.697560
H2171	H217	0.121500	0.982400	0.693000
N561	N56	0.159900	0.791400	0.718260
C4911	C491	0.117300	0.875080	0.725770
H2181	H218	0.102300	0.860600	0.740500
C4921	C492	0.374900	0.043980	0.567780
H2191	H219	0.388700	0.013200	0.575300
C4931	C493	0.384340	0.114770	0.538180
H2201	H220	0.404800	0.132200	0.525900
C4941	C494	0.069800	0.960300	0.733590
C4951	C495	0.172300	0.864470	0.689360
H2211	H221	0.194200	0.842700	0.679300
C4961	C496	0.333350	0.131510	0.543680
C4971	C497	0.161800	0.915680	0.682180
O2231	O223	0.053270	0.939190	0.753940
C4981	C498	0.303320	0.103650	0.561900
H2221	H222	0.268700	0.114800	0.565900
C4991	C499	0.150900	0.845250	0.711110
C5001	C500	0.324270	0.061300	0.573540
C5011	C501	0.404180	0.072100	0.551130
C5021	C502	0.176600	0.777100	0.743540
H2231	H223	0.185400	0.800000	0.756900
C5031	C503	0.469800	0.007700	0.539890
H2241	H224	0.446600	0.979600	0.536100
C5041	C504	0.105800	0.927100	0.718650
O2241	O224	0.314990	0.994950	0.603660
Zn291	Zn29	0.305400	0.026710	0.876800
O2251	O225	0.338180	0.972700	0.899750
C5051	C505	0.311300	0.937100	0.910160
O2261	O226	0.247370	0.806000	0.975830
O2271	O227	0.265970	0.921030	0.902720
C5061	C506	0.073300	0.060900	0.780650
O2281	O228	0.054750	0.083470	0.762050
N571	N57	0.193170	0.207800	0.796450
O2291	O229	0.204010	0.995830	0.844910
C5071	C507	0.217900	0.042500	0.842010
O2301	O230	0.054620	0.017940	0.789730
C5081	C508	0.303030	0.878300	0.947560
H2251	H225	0.267600	0.871500	0.943000
N581	N58	0.458600	0.909900	0.968260
C5091	C509	0.374920	0.867300	0.975770
H2261	H226	0.389400	0.852300	0.990500
C5101	C510	0.206020	0.124900	0.817780
H2271	H227	0.236800	0.138700	0.825300
C5111	C511	0.135230	0.134340	0.788180
H2281	H228	0.117800	0.154800	0.775900
C5121	C512	0.289700	0.819800	0.983590
C5131	C513	0.385530	0.922300	0.939360
H2291	H229	0.407300	0.944200	0.929300
C5141	C514	0.118490	0.083350	0.793680
C5151	C515	0.334320	0.911800	0.932180
O2311	O231	0.310810	0.803270	0.003940
C5161	C516	0.146350	0.053320	0.811900
H2301	H230	0.135200	0.018700	0.815900
C5171	C517	0.404750	0.900900	0.961110
C5181	C518	0.188700	0.074270	0.823540
C5191	C519	0.177900	0.154180	0.801130
C5201	C520	0.472900	0.926600	0.993540
H2311	H231	0.450000	0.935400	0.006900
C5211	C521	0.242300	0.219800	0.789890
H2321	H232	0.270400	0.196600	0.786100
C5221	C522	0.322900	0.855800	0.968650
O2321	O232	0.255050	0.064990	0.853660
Zn301	Zn30	0.805400	0.526710	0.376800
O2331	O233	0.838180	0.472700	0.399750
C5231	C523	0.811300	0.437100	0.410160
O2341	O234	0.747370	0.306000	0.475830
O2351	O235	0.765970	0.421030	0.402720
C5241	C524	0.573300	0.560900	0.280650
O2361	O236	0.554750	0.583470	0.262050
N591	N59	0.693170	0.707800	0.296450
O2371	O237	0.704010	0.495830	0.344910
C5251	C525	0.717900	0.542500	0.342010
O2381	O238	0.554620	0.517940	0.289730
C5261	C526	0.803030	0.378300	0.447560
H2331	H233	0.767600	0.371500	0.443000
N601	N60	0.958600	0.409900	0.468260
C5271	C527	0.874920	0.367300	0.475770
H2341	H234	0.889400	0.352300	0.490500
C5281	C528	0.706020	0.624900	0.317780
H2351	H235	0.736800	0.638700	0.325300
C5291	C529	0.635230	0.634340	0.288180
H2361	H236	0.617800	0.654800	0.275900
C5301	C530	0.789700	0.319800	0.483590
C5311	C531	0.885530	0.422300	0.439360
H2371	H237	0.907300	0.444200	0.429300
C5321	C532	0.618490	0.583350	0.293680
C5331	C533	0.834320	0.411800	0.432180
O2391	O239	0.810810	0.303270	0.503940
C5341	C534	0.646350	0.553320	0.311900
H2381	H238	0.635200	0.518700	0.315900
C5351	C535	0.904750	0.400900	0.461110
C5361	C536	0.688700	0.574270	0.323540
C5371	C537	0.677900	0.654180	0.301130
C5381	C538	0.972900	0.426600	0.493540
H2391	H239	0.950000	0.435400	0.506900
C5391	C539	0.742300	0.719800	0.289890
H2401	H240	0.770400	0.696600	0.286100
C5401	C540	0.822900	0.355800	0.468650
O2401	O240	0.755050	0.564990	0.353660
Zn311	Zn31	0.194600	0.973290	0.376800
O2411	O241	0.161820	0.027300	0.399750
C5411	C541	0.188700	0.062900	0.410160
O2421	O242	0.252630	0.194000	0.475830
O2431	O243	0.234030	0.078970	0.402720
C5421	C542	0.426700	0.939100	0.280650
O2441	O244	0.445250	0.916530	0.262050
N611	N61	0.306830	0.792200	0.296450
O2451	O245	0.295990	0.004170	0.344910
C5431	C543	0.282100	0.957500	0.342010
O2461	O246	0.445380	0.982060	0.289730
C5441	C544	0.196970	0.121700	0.447560
H2411	H241	0.232400	0.128500	0.443000
N621	N62	0.041400	0.090100	0.468260
C5451	C545	0.125080	0.132700	0.475770
H2421	H242	0.110600	0.147700	0.490500
C5461	C546	0.293980	0.875100	0.317780
H2431	H243	0.263200	0.861300	0.325300
C5471	C547	0.364770	0.865660	0.288180
H2441	H244	0.382200	0.845200	0.275900
C5481	C548	0.210300	0.180200	0.483590
C5491	C549	0.114470	0.077700	0.439360
H2451	H245	0.092700	0.055800	0.429300
C5501	C550	0.381510	0.916650	0.293680
C5511	C551	0.165680	0.088200	0.432180
O2471	O247	0.189190	0.196730	0.503940
C5521	C552	0.353650	0.946680	0.311900
H2461	H246	0.364800	0.981300	0.315900
C5531	C553	0.095250	0.099100	0.461110
C5541	C554	0.311300	0.925730	0.323540
C5551	C555	0.322100	0.845820	0.301130
C5561	C556	0.027100	0.073400	0.493540
H2471	H247	0.050000	0.064600	0.506900
C5571	C557	0.257700	0.780200	0.289890
H2481	H248	0.229600	0.803400	0.286100
C5581	C558	0.177100	0.144200	0.468650
O2481	O248	0.244950	0.935010	0.353660
Zn321	Zn32	0.694600	0.473290	0.876800
O2491	O249	0.661820	0.527300	0.899750
C5591	C559	0.688700	0.562900	0.910160
O2501	O250	0.752630	0.694000	0.975830
O2511	O251	0.734030	0.578970	0.902720
C5601	C560	0.926700	0.439100	0.780650
O2521	O252	0.945250	0.416530	0.762050
N631	N63	0.806830	0.292200	0.796450
O2531	O253	0.795990	0.504170	0.844910
C5611	C561	0.782100	0.457500	0.842010
O2541	O254	0.945380	0.482060	0.789730
C5621	C562	0.696970	0.621700	0.947560
H2491	H249	0.732400	0.628500	0.943000
N641	N64	0.541400	0.590100	0.968260
C5631	C563	0.625080	0.632700	0.975770
H2501	H250	0.610600	0.647700	0.990500
C5641	C564	0.793980	0.375100	0.817780
H2511	H251	0.763200	0.361300	0.825300
C5651	C565	0.864770	0.365660	0.788180
H2521	H252	0.882200	0.345200	0.775900
C5661	C566	0.710300	0.680200	0.983590
C5671	C567	0.614470	0.577700	0.939360
H2531	H253	0.592700	0.555800	0.929300
C5681	C568	0.881510	0.416650	0.793680
C5691	C569	0.665680	0.588200	0.932180
O2551	O255	0.689190	0.696730	0.003940
C5701	C570	0.853650	0.446680	0.811900
H2541	H254	0.864800	0.481300	0.815900
C5711	C571	0.595250	0.599100	0.961110
C5721	C572	0.811300	0.425730	0.823540
C5731	C573	0.822100	0.345820	0.801130
C5741	C574	0.527100	0.573400	0.993540
H2551	H255	0.550000	0.564600	0.006900
C5751	C575	0.757700	0.280200	0.789890
H2561	H256	0.729600	0.303400	0.786100
C5761	C576	0.677100	0.644200	0.968650
O2561	O256	0.744950	0.435010	0.853660
Zn331	Zn33	0.282150	0.750000	0.027470
Zn341	Zn34	0.196800	0.750000	0.989080
Zn351	Zn35	0.217850	0.250000	0.527470
Zn361	Zn36	0.303200	0.250000	0.489080
Zn371	Zn37	0.500000	0.032150	0.277470
Zn381	Zn38	0.500000	0.946800	0.239080
Zn391	Zn39	0.000000	0.532150	0.777470
Zn401	Zn40	0.000000	0.446800	0.739080
Zn411	Zn41	0.000000	0.967850	0.777470
Zn421	Zn42	0.000000	0.053200	0.739080
Zn431	Zn43	0.500000	0.467850	0.277470
Zn441	Zn44	0.500000	0.553200	0.239080
Zn451	Zn45	0.217850	0.750000	0.472530
Zn461	Zn46	0.303200	0.750000	0.510920
Zn471	Zn47	0.282150	0.250000	0.972530
Zn481	Zn48	0.196800	0.250000	0.010920
Zn491	Zn49	0.000000	0.032150	0.222530
Zn501	Zn50	0.000000	0.946800	0.260920
Zn511	Zn51	0.500000	0.532150	0.722530
Zn521	Zn52	0.500000	0.446800	0.760920
Zn531	Zn53	0.500000	0.967850	0.722530
Zn541	Zn54	0.500000	0.053200	0.760920
Zn551	Zn55	0.000000	0.467850	0.222530
Zn561	Zn56	0.000000	0.553200	0.260920
Zn571	Zn57	0.717850	0.250000	0.972530
Zn581	Zn58	0.803200	0.250000	0.010920
Zn591	Zn59	0.782150	0.750000	0.472530
Zn601	Zn60	0.696800	0.750000	0.510920
Zn611	Zn61	0.782150	0.250000	0.527470
Zn621	Zn62	0.696800	0.250000	0.489080
Zn631	Zn63	0.717850	0.750000	0.027470
Zn641	Zn64	0.803200	0.750000	0.989080
C5771	C577	0.349100	0.250000	0.204620
H2571	H257	0.360300	0.250000	0.187700
C5781	C578	0.150900	0.750000	0.704620
H2581	H258	0.139700	0.750000	0.687700
C5791	C579	0.000000	0.099100	0.454620
H2591	H259	0.000000	0.110300	0.437700
C5801	C580	0.500000	0.599100	0.954620
H2601	H260	0.500000	0.610300	0.937700
C5811	C581	0.500000	0.900900	0.954620
H2611	H261	0.500000	0.889700	0.937700
C5821	C582	0.000000	0.400900	0.454620
H2621	H262	0.000000	0.389700	0.437700
C5831	C583	0.150900	0.250000	0.295380
H2631	H263	0.139700	0.250000	0.312300
C5841	C584	0.349100	0.750000	0.795380
H2641	H264	0.360300	0.750000	0.812300
C5851	C585	0.849100	0.250000	0.295380
H2651	H265	0.860300	0.250000	0.312300
C5861	C586	0.500000	0.099100	0.045380
H2661	H266	0.500000	0.110300	0.062300
C5871	C587	0.000000	0.599100	0.545380
H2671	H267	0.000000	0.610300	0.562300
C5881	C588	0.000000	0.900900	0.545380
H2681	H268	0.000000	0.889700	0.562300
C5891	C589	0.500000	0.400900	0.045380
H2691	H269	0.500000	0.389700	0.062300
C5901	C590	0.650900	0.750000	0.795380
H2701	H270	0.639700	0.750000	0.812300
C5911	C591	0.849100	0.750000	0.704620
H2711	H271	0.860300	0.750000	0.687700
C5921	C592	0.650900	0.250000	0.204620
H2721	H272	0.639700	0.250000	0.187700
C5931	C593	0.000000	0.583500	0.049570
H2731	H273	0.000000	0.619800	0.053800
C5941	C594	0.500000	0.083500	0.549570
H2741	H274	0.500000	0.119800	0.553800
C5951	C595	0.500000	0.416500	0.549570
H2751	H275	0.500000	0.380200	0.553800
C5961	C596	0.000000	0.916500	0.049570
H2761	H276	0.000000	0.880200	0.053800
C5971	C597	0.666500	0.750000	0.299570
H2771	H277	0.630200	0.750000	0.303800
C5981	C598	0.833500	0.250000	0.799570
H2781	H278	0.869800	0.250000	0.803800
C5991	C599	0.500000	0.583500	0.450430
H2791	H279	0.500000	0.619800	0.446200
C6001	C600	0.000000	0.083500	0.950430
H2801	H280	0.000000	0.119800	0.946200
C6011	C601	0.000000	0.416500	0.950430
H2811	H281	0.000000	0.380200	0.946200
C6021	C602	0.500000	0.916500	0.450430
H2821	H282	0.500000	0.880200	0.446200
C6031	C603	0.833500	0.750000	0.200430
H2831	H283	0.869800	0.750000	0.196200
C6041	C604	0.666500	0.250000	0.700430
H2841	H284	0.630200	0.250000	0.696200
C6051	C605	0.333500	0.250000	0.700430
H2851	H285	0.369800	0.250000	0.696200
C6061	C606	0.166500	0.750000	0.200430
H2861	H286	0.130200	0.750000	0.196200
C6071	C607	0.166500	0.250000	0.799570
H2871	H287	0.130200	0.250000	0.803800
C6081	C608	0.333500	0.750000	0.299570
H2881	H288	0.369800	0.750000	0.303800
