data_WOYJID_clean_PM
_symmetry_space_group_name_H-M	'P1'
_cell_length_a	10.318300
_cell_length_b	10.750100
_cell_length_c	10.831500
_cell_angle_alpha	73.436000
_cell_angle_beta	79.648000
_cell_angle_gamma	83.260000
_symmetry_Int_Tables_number 1

loop_
_symmetry_equiv_pos_as_xyz
'x,y,z'

loop_
_atom_site_label
_atom_site_type_symbol
_atom_site_fract_x
_atom_site_fract_y
_atom_site_fract_z
Ti11	Ti1	0.088100	0.183500	0.294500
Ti21	Ti2	0.487300	0.416800	0.306200
Ti31	Ti3	0.890300	0.640900	0.320700
P11	P1	0.930200	0.916200	0.372300
P21	P2	0.158200	0.319400	0.981000
P31	P3	0.401400	0.116000	0.319200
P41	P4	0.162300	0.453400	0.349600
P51	P5	0.794200	0.337000	0.356200
P61	P6	0.566100	0.686800	0.362800
P71	P7	0.450900	0.567700	0.009400
O11	O1	0.034800	0.012600	0.303900
O21	O2	0.931700	0.863500	0.517900
O31	O3	0.793900	0.987700	0.346500
O41	O4	0.959300	0.806400	0.304400
O51	O5	0.098700	0.224800	0.103700
O61	O6	0.310400	0.292500	0.962000
O71	O7	0.129200	0.463700	0.993200
O81	O8	0.096300	0.304800	0.871100
O91	O9	0.269600	0.110500	0.277900
O101	O10	0.437300	0.253500	0.292600
O111	O11	0.394600	0.040800	0.463200
O121	O12	0.513900	0.047200	0.240600
O131	O13	0.143500	0.349600	0.282000
O141	O14	0.306700	0.488500	0.316000
O151	O15	0.077100	0.577600	0.298600
O161	O16	0.122000	0.399100	0.496600
O171	O17	0.671300	0.340200	0.294500
O181	O18	0.762300	0.273300	0.507800
O191	O19	0.903600	0.253300	0.298200
O201	O20	0.837400	0.473000	0.334600
O211	O21	0.547100	0.579000	0.301900
O221	O22	0.530000	0.638000	0.510400
O231	O23	0.711200	0.717300	0.328700
O241	O24	0.476500	0.804100	0.312200
O251	O25	0.507700	0.474600	0.116700
O261	O26	0.300800	0.590300	0.037800
O271	O27	0.492000	0.702000	0.999000
H11	H1	0.779900	0.048300	0.380100
H21	H2	0.343300	0.343600	0.895000
H31	H3	0.049200	0.480000	0.007800
H41	H4	0.497800	0.971400	0.252600
H51	H5	0.828700	0.269100	0.540900
H61	H6	0.274300	0.643000	0.974700
Ti41	Ti4	0.911900	0.816500	0.705500
Ti51	Ti5	0.512700	0.583200	0.693800
Ti61	Ti6	0.109700	0.359100	0.679300
P81	P8	0.069800	0.083800	0.627700
P91	P9	0.841800	0.680600	0.019000
P101	P10	0.598600	0.884000	0.680800
P111	P11	0.837700	0.546600	0.650400
P121	P12	0.205800	0.663000	0.643800
P131	P13	0.433900	0.313200	0.637200
P141	P14	0.549100	0.432300	0.990600
O281	O28	0.965200	0.987400	0.696100
O291	O29	0.068300	0.136500	0.482100
O301	O30	0.206100	0.012300	0.653500
O311	O31	0.040700	0.193600	0.695600
O321	O32	0.901300	0.775200	0.896300
O331	O33	0.689600	0.707500	0.038000
O341	O34	0.870800	0.536300	0.006800
O351	O35	0.903700	0.695200	0.128900
O361	O36	0.730400	0.889500	0.722100
O371	O37	0.562700	0.746500	0.707400
O381	O38	0.605400	0.959200	0.536800
O391	O39	0.486100	0.952800	0.759400
O401	O40	0.856500	0.650400	0.718000
O411	O41	0.693300	0.511500	0.684000
O421	O42	0.922900	0.422400	0.701400
O431	O43	0.878000	0.600900	0.503400
O441	O44	0.328700	0.659800	0.705500
O451	O45	0.237700	0.726700	0.492200
O461	O46	0.096400	0.746700	0.701800
O471	O47	0.162600	0.527000	0.665400
O481	O48	0.452900	0.421000	0.698100
O491	O49	0.470000	0.362000	0.489600
O501	O50	0.288800	0.282700	0.671300
O511	O51	0.523500	0.195900	0.687800
O521	O52	0.492300	0.525400	0.883300
O531	O53	0.699200	0.409700	0.962200
O541	O54	0.508000	0.298000	0.001000
H71	H7	0.220100	0.951700	0.619900
H81	H8	0.656700	0.656400	0.105000
H91	H9	0.950800	0.520000	0.992200
H101	H10	0.502200	0.028600	0.747400
H111	H11	0.171300	0.730900	0.459100
H121	H12	0.725700	0.357000	0.025300
