data_WUBHEI_clean_PM
_symmetry_space_group_name_H-M	'P1'
_cell_length_a	6.895300
_cell_length_b	10.122600
_cell_length_c	20.240600
_cell_angle_alpha	92.703000
_cell_angle_beta	90.000000
_cell_angle_gamma	109.913000
_symmetry_Int_Tables_number 1

loop_
_symmetry_equiv_pos_as_xyz
'x,y,z'

loop_
_atom_site_label
_atom_site_type_symbol
_atom_site_fract_x
_atom_site_fract_y
_atom_site_fract_z
Sr11	Sr1	0.905120	0.156640	0.318590
Sr21	Sr2	0.748480	0.843360	0.181400
Sr31	Sr3	0.094880	0.843360	0.681400
Sr41	Sr4	0.500000	0.500000	0.000000
Sr51	Sr5	0.000000	0.500000	0.500000
Sr61	Sr6	0.251520	0.156640	0.818590
H11	H1	0.923400	0.458800	0.098600
H21	H2	0.960600	0.295200	0.734600
H31	H3	0.858400	0.038800	0.718500
H41	H4	0.039400	0.704800	0.265400
H51	H5	0.665400	0.704800	0.765400
H61	H6	0.535400	0.458800	0.598600
H71	H7	0.141600	0.961200	0.281500
H81	H8	0.180400	0.038800	0.218500
H91	H9	0.819600	0.961200	0.781500
H101	H10	0.464600	0.541200	0.401400
H111	H11	0.334600	0.295200	0.234600
H121	H12	0.076600	0.541200	0.901400
C11	C1	0.014010	0.390420	0.825950
C21	C2	0.162930	0.790060	0.847880
C31	C3	0.461350	0.502300	0.221960
C41	C4	0.459510	0.526820	0.356310
C51	C5	0.067310	0.526820	0.856310
C61	C6	0.985990	0.609580	0.174050
C71	C7	0.970230	0.502660	0.352320
C81	C8	0.040950	0.502300	0.721960
C91	C9	0.532430	0.502660	0.852320
C101	C10	0.464800	0.358600	0.682360
C111	C11	0.837070	0.209940	0.152120
C121	C12	0.467570	0.497340	0.147680
C131	C13	0.932690	0.473180	0.143690
C141	C14	0.999050	0.382300	0.756850
C151	C15	0.535200	0.641400	0.317640
C161	C16	0.540490	0.473180	0.643690
C171	C17	0.623590	0.609580	0.674050
C181	C18	0.538650	0.497700	0.778040
C191	C19	0.959050	0.497700	0.278040
C201	C20	0.627130	0.790060	0.347880
C211	C21	0.383250	0.382300	0.256850
C221	C22	0.376410	0.390420	0.325950
C231	C23	0.616750	0.617700	0.743150
C241	C24	0.893800	0.358600	0.182360
C251	C25	0.000950	0.617700	0.243150
C261	C26	0.106200	0.641400	0.817640
C271	C27	0.372870	0.209940	0.652120
C281	C28	0.029770	0.497340	0.647680
N11	N1	0.905410	0.368020	0.248650
N21	N2	0.094590	0.631980	0.751350
N31	N3	0.537390	0.631980	0.251350
N41	N4	0.462610	0.368020	0.748650
O11	O1	0.371040	0.192480	0.590210
O21	O2	0.698820	0.887040	0.308780
O31	O3	0.097700	0.000000	0.250000
O41	O4	0.628960	0.807520	0.409790
O51	O5	0.544160	0.612320	0.120080
O61	O6	0.811780	0.112960	0.191220
O71	O7	0.821440	0.192480	0.090210
O81	O8	0.178560	0.807520	0.909790
O91	O9	0.931840	0.387680	0.379920
O101	O10	0.017000	0.617800	0.384300
O111	O11	0.455840	0.387680	0.879920
O121	O12	0.902300	0.000000	0.750000
O131	O13	0.292490	0.277780	0.359770
O141	O14	0.600800	0.617800	0.884300
O151	O15	0.301180	0.112960	0.691220
O161	O16	0.188220	0.887040	0.808780
O171	O17	0.068160	0.612320	0.620080
O181	O18	0.983000	0.382200	0.615700
O191	O19	0.985290	0.277780	0.859770
O201	O20	0.707510	0.722220	0.640230
O211	O21	0.399200	0.382200	0.115700
O221	O22	0.014710	0.722220	0.140230
