data_WUCRUH_clean_PM
_symmetry_space_group_name_H-M	'P1'
_cell_length_a	7.106200
_cell_length_b	9.736700
_cell_length_c	9.859000
_cell_angle_alpha	60.409500
_cell_angle_beta	84.151500
_cell_angle_gamma	78.091100
_symmetry_Int_Tables_number 1

loop_
_symmetry_equiv_pos_as_xyz
'x,y,z'

loop_
_atom_site_label
_atom_site_type_symbol
_atom_site_fract_x
_atom_site_fract_y
_atom_site_fract_z
Fe11	Fe1	0.431610	0.356850	0.676900
Fe21	Fe2	0.568390	0.966250	0.676900
Fe31	Fe3	0.000000	0.336390	0.327220
H11	H1	0.284100	0.157100	0.092000
H21	H2	0.251500	0.753800	0.498800
H31	H3	0.211000	0.758500	0.093400
H41	H4	0.715900	0.750900	0.092000
H51	H5	0.748500	0.747400	0.498800
H61	H6	0.789000	0.148100	0.093400
C11	C1	0.274300	0.968200	0.309000
C21	C2	0.215600	0.731800	0.309800
C31	C3	0.255800	0.966700	0.067800
C41	C4	0.273300	0.049200	0.147200
C51	C5	0.282700	0.043800	0.894400
C61	C6	0.247700	0.808800	0.390400
C71	C7	0.176800	0.565000	0.395000
C81	C8	0.321400	0.045100	0.399200
C91	C9	0.225300	0.811100	0.148000
C101	C10	0.725700	0.722800	0.309000
C111	C11	0.784400	0.958400	0.309800
C121	C12	0.744200	0.965500	0.067800
C131	C13	0.726700	0.803600	0.147200
C141	C14	0.717300	0.061800	0.894400
C151	C15	0.752300	0.800800	0.390400
C161	C16	0.823200	0.040000	0.395000
C171	C17	0.678600	0.555700	0.399200
C181	C18	0.774700	0.040900	0.148000
O11	O1	0.174600	0.492200	0.543400
O21	O2	0.398700	0.952000	0.529800
O31	O3	0.284100	0.196100	0.339000
O41	O4	0.257800	0.194000	0.816400
O51	O5	0.145600	0.505700	0.313000
O61	O6	0.332500	0.953300	0.835600
O71	O7	0.825400	0.964400	0.543400
O81	O8	0.601300	0.518200	0.529800
O91	O9	0.715900	0.464900	0.339000
O101	O10	0.742200	0.989600	0.816400
O111	O11	0.854400	0.181300	0.313000
O121	O12	0.667500	0.211100	0.835600
O131	O13	0.500000	0.236200	0.527600
