data_WUDJAI_clean_PM
_symmetry_space_group_name_H-M	'P1'
_cell_length_a	25.237800
_cell_length_b	8.687200
_cell_length_c	18.813900
_cell_angle_alpha	90.000000
_cell_angle_beta	130.447000
_cell_angle_gamma	90.000000
_symmetry_Int_Tables_number 1

loop_
_symmetry_equiv_pos_as_xyz
'x,y,z'

loop_
_atom_site_label
_atom_site_type_symbol
_atom_site_fract_x
_atom_site_fract_y
_atom_site_fract_z
Co11	Co1	0.128670	0.205140	0.063280
N11	N1	0.185000	0.044000	0.055400
O11	O1	0.075100	0.341900	0.090700
O21	O2	0.149100	0.175700	0.197900
O31	O3	0.051300	0.461400	0.450600
O41	O4	0.085500	0.693700	0.439600
O51	O5	0.063100	0.672700	0.104600
O61	O6	0.147600	0.794900	0.255300
O71	O7	0.183800	0.583600	0.210600
S11	S1	0.127540	0.651400	0.202110
C11	C1	0.110100	0.287200	0.173700
C21	C2	0.102800	0.360900	0.239000
C31	C3	0.107100	0.518500	0.253700
C41	C4	0.098000	0.579200	0.313500
H11	H1	0.101500	0.684900	0.323700
C51	C5	0.083700	0.482700	0.358400
C61	C6	0.080000	0.325600	0.343900
H21	H2	0.070400	0.260400	0.373500
C71	C7	0.090400	0.264000	0.286100
H31	H3	0.089100	0.157900	0.278500
C81	C8	0.072200	0.551900	0.420700
C91	C9	0.201100	0.068700	0.000600
H41	H4	0.193600	0.166800	0.975700
C101	C10	0.227200	0.961700	0.979600
H51	H5	0.238500	0.987300	0.942800
C111	C11	0.237300	0.812300	0.012700
C121	C12	0.221800	0.787600	0.070500
H61	H6	0.228400	0.690300	0.095700
C131	C13	0.197300	0.903200	0.090600
H71	H7	0.188600	0.883000	0.130900
Co21	Co2	0.628670	0.705140	0.063280
N21	N2	0.685000	0.544000	0.055400
O81	O8	0.575100	0.841900	0.090700
O91	O9	0.649100	0.675700	0.197900
O101	O10	0.551300	0.961400	0.450600
O111	O11	0.585500	0.193700	0.439600
O121	O12	0.563100	0.172700	0.104600
O131	O13	0.647600	0.294900	0.255300
O141	O14	0.683800	0.083600	0.210600
S21	S2	0.627540	0.151400	0.202110
C141	C14	0.610100	0.787200	0.173700
C151	C15	0.602800	0.860900	0.239000
C161	C16	0.607100	0.018500	0.253700
C171	C17	0.598000	0.079200	0.313500
H81	H8	0.601500	0.184900	0.323700
C181	C18	0.583700	0.982700	0.358400
C191	C19	0.580000	0.825600	0.343900
H91	H9	0.570400	0.760400	0.373500
C201	C20	0.590400	0.764000	0.286100
H101	H10	0.589100	0.657900	0.278500
C211	C21	0.572200	0.051900	0.420700
C221	C22	0.701100	0.568700	0.000600
H111	H11	0.693600	0.666800	0.975700
C231	C23	0.727200	0.461700	0.979600
H121	H12	0.738500	0.487300	0.942800
C241	C24	0.737300	0.312300	0.012700
C251	C25	0.721800	0.287600	0.070500
H131	H13	0.728400	0.190300	0.095700
C261	C26	0.697300	0.403200	0.090600
H141	H14	0.688600	0.383000	0.130900
Co31	Co3	0.871330	0.205140	0.436720
N31	N3	0.815000	0.044000	0.444600
O151	O15	0.924900	0.341900	0.409300
O161	O16	0.850900	0.175700	0.302100
O171	O17	0.948700	0.461400	0.049400
O181	O18	0.914500	0.693700	0.060400
O191	O19	0.936900	0.672700	0.395400
O201	O20	0.852400	0.794900	0.244700
O211	O21	0.816200	0.583600	0.289400
S31	S3	0.872460	0.651400	0.297890
C271	C27	0.889900	0.287200	0.326300
C281	C28	0.897200	0.360900	0.261000
C291	C29	0.892900	0.518500	0.246300
C301	C30	0.902000	0.579200	0.186500
H151	H15	0.898500	0.684900	0.176300
C311	C31	0.916300	0.482700	0.141600
C321	C32	0.920000	0.325600	0.156100
H161	H16	0.929600	0.260400	0.126500
C331	C33	0.909600	0.264000	0.213900
H171	H17	0.910900	0.157900	0.221500
C341	C34	0.927800	0.551900	0.079300
C351	C35	0.798900	0.068700	0.499400
H181	H18	0.806400	0.166800	0.524300
C361	C36	0.772800	0.961700	0.520400
H191	H19	0.761500	0.987300	0.557200
C371	C37	0.762700	0.812300	0.487300
C381	C38	0.778200	0.787600	0.429500
H201	H20	0.771600	0.690300	0.404300
C391	C39	0.802700	0.903200	0.409400
H211	H21	0.811400	0.883000	0.369100
Co41	Co4	0.371330	0.705140	0.436720
N41	N4	0.315000	0.544000	0.444600
O221	O22	0.424900	0.841900	0.409300
O231	O23	0.350900	0.675700	0.302100
O241	O24	0.448700	0.961400	0.049400
O251	O25	0.414500	0.193700	0.060400
O261	O26	0.436900	0.172700	0.395400
O271	O27	0.352400	0.294900	0.244700
O281	O28	0.316200	0.083600	0.289400
S41	S4	0.372460	0.151400	0.297890
C401	C40	0.389900	0.787200	0.326300
C411	C41	0.397200	0.860900	0.261000
C421	C42	0.392900	0.018500	0.246300
C431	C43	0.402000	0.079200	0.186500
H221	H22	0.398500	0.184900	0.176300
C441	C44	0.416300	0.982700	0.141600
C451	C45	0.420000	0.825600	0.156100
H231	H23	0.429600	0.760400	0.126500
C461	C46	0.409600	0.764000	0.213900
H241	H24	0.410900	0.657900	0.221500
C471	C47	0.427800	0.051900	0.079300
C481	C48	0.298900	0.568700	0.499400
H251	H25	0.306400	0.666800	0.524300
C491	C49	0.272800	0.461700	0.520400
H261	H26	0.261500	0.487300	0.557200
C501	C50	0.262700	0.312300	0.487300
C511	C51	0.278200	0.287600	0.429500
H271	H27	0.271600	0.190300	0.404300
C521	C52	0.302700	0.403200	0.409400
H281	H28	0.311400	0.383000	0.369100
Co51	Co5	0.871330	0.794860	0.936720
N51	N5	0.815000	0.956000	0.944600
O291	O29	0.924900	0.658100	0.909300
O301	O30	0.850900	0.824300	0.802100
O311	O31	0.948700	0.538600	0.549400
O321	O32	0.914500	0.306300	0.560400
O331	O33	0.936900	0.327300	0.895400
O341	O34	0.852400	0.205100	0.744700
O351	O35	0.816200	0.416400	0.789400
S51	S5	0.872460	0.348600	0.797890
C531	C53	0.889900	0.712800	0.826300
C541	C54	0.897200	0.639100	0.761000
C551	C55	0.892900	0.481500	0.746300
C561	C56	0.902000	0.420800	0.686500
H291	H29	0.898500	0.315100	0.676300
C571	C57	0.916300	0.517300	0.641600
C581	C58	0.920000	0.674400	0.656100
H301	H30	0.929600	0.739600	0.626500
C591	C59	0.909600	0.736000	0.713900
H311	H31	0.910900	0.842100	0.721500
C601	C60	0.927800	0.448100	0.579300
C611	C61	0.798900	0.931300	0.999400
H321	H32	0.806400	0.833200	0.024300
C621	C62	0.772800	0.038300	0.020400
H331	H33	0.761500	0.012700	0.057200
C631	C63	0.762700	0.187700	0.987300
C641	C64	0.778200	0.212400	0.929500
H341	H34	0.771600	0.309700	0.904300
C651	C65	0.802700	0.096800	0.909400
H351	H35	0.811400	0.117000	0.869100
Co61	Co6	0.371330	0.294860	0.936720
N61	N6	0.315000	0.456000	0.944600
O361	O36	0.424900	0.158100	0.909300
O371	O37	0.350900	0.324300	0.802100
O381	O38	0.448700	0.038600	0.549400
O391	O39	0.414500	0.806300	0.560400
O401	O40	0.436900	0.827300	0.895400
O411	O41	0.352400	0.705100	0.744700
O421	O42	0.316200	0.916400	0.789400
S61	S6	0.372460	0.848600	0.797890
C661	C66	0.389900	0.212800	0.826300
C671	C67	0.397200	0.139100	0.761000
C681	C68	0.392900	0.981500	0.746300
C691	C69	0.402000	0.920800	0.686500
H361	H36	0.398500	0.815100	0.676300
C701	C70	0.416300	0.017300	0.641600
C711	C71	0.420000	0.174400	0.656100
H371	H37	0.429600	0.239600	0.626500
C721	C72	0.409600	0.236000	0.713900
H381	H38	0.410900	0.342100	0.721500
C731	C73	0.427800	0.948100	0.579300
C741	C74	0.298900	0.431300	0.999400
H391	H39	0.306400	0.333200	0.024300
C751	C75	0.272800	0.538300	0.020400
H401	H40	0.261500	0.512700	0.057200
C761	C76	0.262700	0.687700	0.987300
C771	C77	0.278200	0.712400	0.929500
H411	H41	0.271600	0.809700	0.904300
C781	C78	0.302700	0.596800	0.909400
H421	H42	0.311400	0.617000	0.869100
Co71	Co7	0.128670	0.794860	0.563280
N71	N7	0.185000	0.956000	0.555400
O431	O43	0.075100	0.658100	0.590700
O441	O44	0.149100	0.824300	0.697900
O451	O45	0.051300	0.538600	0.950600
O461	O46	0.085500	0.306300	0.939600
O471	O47	0.063100	0.327300	0.604600
O481	O48	0.147600	0.205100	0.755300
O491	O49	0.183800	0.416400	0.710600
S71	S7	0.127540	0.348600	0.702110
C791	C79	0.110100	0.712800	0.673700
C801	C80	0.102800	0.639100	0.739000
C811	C81	0.107100	0.481500	0.753700
C821	C82	0.098000	0.420800	0.813500
H431	H43	0.101500	0.315100	0.823700
C831	C83	0.083700	0.517300	0.858400
C841	C84	0.080000	0.674400	0.843900
H441	H44	0.070400	0.739600	0.873500
C851	C85	0.090400	0.736000	0.786100
H451	H45	0.089100	0.842100	0.778500
C861	C86	0.072200	0.448100	0.920700
C871	C87	0.201100	0.931300	0.500600
H461	H46	0.193600	0.833200	0.475700
C881	C88	0.227200	0.038300	0.479600
H471	H47	0.238500	0.012700	0.442800
C891	C89	0.237300	0.187700	0.512700
C901	C90	0.221800	0.212400	0.570500
H481	H48	0.228400	0.309700	0.595700
C911	C91	0.197300	0.096800	0.590600
H491	H49	0.188600	0.117000	0.630900
Co81	Co8	0.628670	0.294860	0.563280
N81	N8	0.685000	0.456000	0.555400
O501	O50	0.575100	0.158100	0.590700
O511	O51	0.649100	0.324300	0.697900
O521	O52	0.551300	0.038600	0.950600
O531	O53	0.585500	0.806300	0.939600
O541	O54	0.563100	0.827300	0.604600
O551	O55	0.647600	0.705100	0.755300
O561	O56	0.683800	0.916400	0.710600
S81	S8	0.627540	0.848600	0.702110
C921	C92	0.610100	0.212800	0.673700
C931	C93	0.602800	0.139100	0.739000
C941	C94	0.607100	0.981500	0.753700
C951	C95	0.598000	0.920800	0.813500
H501	H50	0.601500	0.815100	0.823700
C961	C96	0.583700	0.017300	0.858400
C971	C97	0.580000	0.174400	0.843900
H511	H51	0.570400	0.239600	0.873500
C981	C98	0.590400	0.236000	0.786100
H521	H52	0.589100	0.342100	0.778500
C991	C99	0.572200	0.948100	0.920700
C1001	C100	0.701100	0.431300	0.500600
H531	H53	0.693600	0.333200	0.475700
C1011	C101	0.727200	0.538300	0.479600
H541	H54	0.738500	0.512700	0.442800
C1021	C102	0.737300	0.687700	0.512700
C1031	C103	0.721800	0.712400	0.570500
H551	H55	0.728400	0.809700	0.595700
C1041	C104	0.697300	0.596800	0.590600
H561	H56	0.688600	0.617000	0.630900
Co91	Co9	0.000000	0.500000	0.000000
Co101	Co10	0.500000	0.000000	0.000000
Co111	Co11	0.000000	0.500000	0.500000
Co121	Co12	0.500000	0.000000	0.500000
