data_WUDTOG_clean_PM
_symmetry_space_group_name_H-M	'P1'
_cell_length_a	9.843200
_cell_length_b	10.040800
_cell_length_c	18.045300
_cell_angle_alpha	90.135000
_cell_angle_beta	93.963000
_cell_angle_gamma	113.872000
_symmetry_Int_Tables_number 1

loop_
_symmetry_equiv_pos_as_xyz
'x,y,z'

loop_
_atom_site_label
_atom_site_type_symbol
_atom_site_fract_x
_atom_site_fract_y
_atom_site_fract_z
Pr11	Pr1	0.007150	0.276660	0.996810
O11	O1	0.939300	0.412000	0.085900
O21	O2	0.059600	0.938400	0.081900
O31	O3	0.072900	0.160800	0.102300
O41	O4	0.804000	0.309200	0.922400
O51	O5	0.887600	0.599200	0.116300
O61	O6	0.770400	0.510800	0.954100
C11	C1	0.077200	0.042400	0.123000
C21	C2	0.183000	0.012100	0.356500
C31	C3	0.658000	0.340300	0.701100
H11	H1	0.675000	0.288700	0.662600
C41	C4	0.690100	0.407900	0.831000
C51	C5	0.103900	0.030400	0.205000
C61	C6	0.382000	0.127000	0.465100
C71	C7	0.900700	0.482600	0.132400
C81	C8	0.608000	0.493000	0.816300
H21	H2	0.592900	0.546700	0.854400
C91	C9	0.715000	0.332200	0.773500
H31	H3	0.769700	0.276200	0.782700
C101	C10	0.069400	0.894600	0.236300
H41	H4	0.022300	0.809500	0.207200
C111	C11	0.791000	0.438000	0.329300
H51	H5	0.751000	0.481700	0.362100
C121	C12	0.881000	0.260000	0.301200
H61	H6	0.904900	0.182300	0.315200
C131	C13	0.874300	0.429000	0.208700
C141	C14	0.647000	0.252000	0.458900
C151	C15	0.907000	0.311000	0.231700
H71	H7	0.947400	0.267300	0.199000
C161	C16	0.214000	0.147000	0.324200
H81	H8	0.260700	0.232600	0.353100
C171	C17	0.819000	0.320000	0.352400
C181	C18	0.649000	0.351900	0.515700
C191	C19	0.819000	0.493000	0.260700
H91	H9	0.801800	0.575300	0.248300
C201	C20	0.235000	0.000000	0.436100
H101	H10	0.248000	0.909500	0.440400
H111	H11	0.157100	0.994500	0.467700
C211	C21	0.522000	0.442000	0.605900
H121	H12	0.421800	0.436200	0.607100
H131	H13	0.584400	0.539600	0.591400
C221	C22	0.577000	0.422000	0.685600
C231	C23	0.522000	0.336000	0.546300
C241	C24	0.247000	0.195000	0.563000
H141	H14	0.184900	0.092800	0.563200
H151	H15	0.193300	0.244900	0.537700
H161	H16	0.275700	0.232900	0.613200
C251	C25	0.512000	0.140700	0.434400
C261	C26	0.509000	0.034000	0.374300
H171	H17	0.411000	0.956700	0.367900
H181	H18	0.580000	0.993800	0.388400
H191	H19	0.533500	0.083200	0.328400
C271	C27	0.106000	0.888000	0.310900
H201	H20	0.078600	0.797500	0.331800
C281	C28	0.175000	0.153900	0.249200
H211	H21	0.198600	0.244500	0.228400
C291	C29	0.759000	0.409300	0.908200
C301	C30	0.791000	0.261000	0.429400
H221	H22	0.873900	0.322600	0.463500
H231	H23	0.791000	0.164400	0.429300
C311	C31	0.550000	0.495000	0.744500
H241	H24	0.490900	0.546800	0.735400
C321	C32	0.384000	0.218000	0.523600
C331	C33	0.799000	0.477000	0.538800
H251	H25	0.786800	0.536000	0.577300
H261	H26	0.836400	0.534900	0.496600
H271	H27	0.869000	0.437400	0.556900
Pr21	Pr2	0.992850	0.723340	0.003190
O71	O7	0.060700	0.588000	0.914100
O81	O8	0.940400	0.061600	0.918100
O91	O9	0.927100	0.839200	0.897700
O101	O10	0.196000	0.690800	0.077600
O111	O11	0.112400	0.400800	0.883700
O121	O12	0.229600	0.489200	0.045900
C341	C34	0.922800	0.957600	0.877000
C351	C35	0.817000	0.987900	0.643500
C361	C36	0.342000	0.659700	0.298900
H281	H28	0.325000	0.711300	0.337400
C371	C37	0.309900	0.592100	0.169000
C381	C38	0.896100	0.969600	0.795000
C391	C39	0.618000	0.873000	0.534900
C401	C40	0.099300	0.517400	0.867600
C411	C41	0.392000	0.507000	0.183700
H291	H29	0.407100	0.453300	0.145600
C421	C42	0.285000	0.667800	0.226500
H301	H30	0.230300	0.723800	0.217300
C431	C43	0.930600	0.105400	0.763700
H311	H31	0.977700	0.190500	0.792800
C441	C44	0.209000	0.562000	0.670700
H321	H32	0.249000	0.518300	0.637900
C451	C45	0.119000	0.740000	0.698800
H331	H33	0.095100	0.817700	0.684800
C461	C46	0.125700	0.571000	0.791300
C471	C47	0.353000	0.748000	0.541100
C481	C48	0.093000	0.689000	0.768300
H341	H34	0.052600	0.732700	0.801000
C491	C49	0.786000	0.853000	0.675800
H351	H35	0.739300	0.767400	0.646900
C501	C50	0.181000	0.680000	0.647600
C511	C51	0.351000	0.648100	0.484300
C521	C52	0.181000	0.507000	0.739300
H361	H36	0.198200	0.424700	0.751700
C531	C53	0.765000	0.000000	0.563900
H371	H37	0.752000	0.090500	0.559600
H381	H38	0.842900	0.005500	0.532300
C541	C54	0.478000	0.558000	0.394100
H391	H39	0.578200	0.563800	0.392900
H401	H40	0.415600	0.460400	0.408600
C551	C55	0.423000	0.578000	0.314400
C561	C56	0.478000	0.664000	0.453700
C571	C57	0.753000	0.805000	0.437000
H411	H41	0.815100	0.907200	0.436800
H421	H42	0.806700	0.755100	0.462300
H431	H43	0.724300	0.767100	0.386800
C581	C58	0.488000	0.859300	0.565600
C591	C59	0.491000	0.966000	0.625700
H441	H44	0.589000	0.043300	0.632100
H451	H45	0.420000	0.006200	0.611600
H461	H46	0.466500	0.916800	0.671600
C601	C60	0.894000	0.112000	0.689100
H471	H47	0.921400	0.202500	0.668200
C611	C61	0.825000	0.846100	0.750800
H481	H48	0.801400	0.755500	0.771600
C621	C62	0.241000	0.590700	0.091800
C631	C63	0.209000	0.739000	0.570600
H491	H49	0.126100	0.677400	0.536500
H501	H50	0.209000	0.835600	0.570700
C641	C64	0.450000	0.505000	0.255500
H511	H51	0.509100	0.453200	0.264600
C651	C65	0.616000	0.782000	0.476400
C661	C66	0.201000	0.523000	0.461200
H521	H52	0.213200	0.464000	0.422700
H531	H53	0.163600	0.465100	0.503400
H541	H54	0.131000	0.562600	0.443100
