data_WUHJIT_clean_PM
_symmetry_space_group_name_H-M	'P1'
_cell_length_a	14.873000
_cell_length_b	18.929300
_cell_length_c	18.929300
_cell_angle_alpha	66.602400
_cell_angle_beta	74.816900
_cell_angle_gamma	105.183000
_symmetry_Int_Tables_number 1

loop_
_symmetry_equiv_pos_as_xyz
'x,y,z'

loop_
_atom_site_label
_atom_site_type_symbol
_atom_site_fract_x
_atom_site_fract_y
_atom_site_fract_z
Mg11	Mg1	0.098770	0.715020	0.325770
Mg21	Mg2	0.424540	0.325770	0.959210
Mg31	Mg3	0.383750	0.959210	0.715020
Mg41	Mg4	0.901230	0.284980	0.674230
Mg51	Mg5	0.575460	0.674230	0.040790
Mg61	Mg6	0.616250	0.040790	0.284980
Mg71	Mg7	0.000000	0.500000	0.500000
Mg81	Mg8	0.500000	0.500000	0.000000
Mg91	Mg9	0.500000	0.000000	0.500000
H11	H1	0.283900	0.619000	0.190300
H21	H2	0.188900	0.401100	0.182400
H31	H3	0.004100	0.452500	0.344800
H41	H4	0.027800	0.338700	0.189900
H51	H5	0.872500	0.242100	0.222600
H61	H6	0.779500	0.183600	0.459600
H71	H7	0.932300	0.291500	0.407600
H81	H8	0.474200	0.190300	0.190700
H91	H9	0.371300	0.182400	0.416500
H101	H10	0.348900	0.344800	0.202700
H111	H11	0.217700	0.189900	0.471400
H121	H12	0.095100	0.222600	0.535300
H131	H13	0.239100	0.459600	0.356800
H141	H14	0.339900	0.407600	0.300900
H151	H15	0.664900	0.190700	0.619000
H161	H16	0.787800	0.416500	0.401100
H171	H17	0.551600	0.202700	0.452500
H181	H18	0.689100	0.471400	0.338700
H191	H19	0.630400	0.535300	0.242100
H201	H20	0.595900	0.356800	0.183600
H211	H21	0.640800	0.300900	0.291500
H221	H22	0.716100	0.381000	0.809700
H231	H23	0.811100	0.598900	0.817600
H241	H24	0.995900	0.547500	0.655200
H251	H25	0.972200	0.661300	0.810100
H261	H26	0.127500	0.757900	0.777400
H271	H27	0.220500	0.816400	0.540400
H281	H28	0.067700	0.708500	0.592400
H291	H29	0.525800	0.809700	0.809300
H301	H30	0.628700	0.817600	0.583500
H311	H31	0.651100	0.655200	0.797300
H321	H32	0.782300	0.810100	0.528600
H331	H33	0.904900	0.777400	0.464700
H341	H34	0.760900	0.540400	0.643200
H351	H35	0.660100	0.592400	0.699100
H361	H36	0.335100	0.809300	0.381000
H371	H37	0.212200	0.583500	0.598900
H381	H38	0.448400	0.797300	0.547500
H391	H39	0.310900	0.528600	0.661300
H401	H40	0.369600	0.464700	0.757900
H411	H41	0.404100	0.643200	0.816400
H421	H42	0.359200	0.699100	0.708500
C11	C1	0.141490	0.544250	0.268220
C21	C2	0.235580	0.568680	0.206220
C31	C3	0.253020	0.515480	0.176180
C41	C4	0.173610	0.438780	0.206220
C51	C5	0.078010	0.413840	0.267980
C61	C6	0.063650	0.465910	0.300970
C71	C7	0.125110	0.604750	0.296770
C81	C8	0.358350	0.542540	0.112910
C91	C9	0.990360	0.334830	0.295680
C101	C10	0.974660	0.314250	0.236670
C111	C11	0.887490	0.246780	0.259110
C121	C12	0.814480	0.197750	0.341330
C131	C13	0.832110	0.216260	0.400880
C141	C14	0.919490	0.283960	0.378640
C151	C15	0.718020	0.127290	0.363120
C161	C16	0.409710	0.268220	0.187530
C171	C17	0.441800	0.206220	0.225100
C181	C18	0.429200	0.176180	0.308340
C191	C19	0.379830	0.206220	0.355000
C201	C20	0.345990	0.267980	0.318180
C211	C21	0.364620	0.300970	0.233120
C221	C22	0.421880	0.296770	0.098480
C231	C23	0.471260	0.112910	0.344550
C241	C24	0.286040	0.295680	0.369490
C251	C25	0.211330	0.236670	0.449080
C261	C26	0.146600	0.259110	0.494110
C271	C27	0.155810	0.341330	0.460920
C281	C28	0.232990	0.400880	0.382860
C291	C29	0.298130	0.378640	0.337400
C301	C30	0.081140	0.363120	0.509590
C311	C31	0.597240	0.187530	0.544250
C321	C32	0.666900	0.225100	0.568680
C331	C33	0.737540	0.308340	0.515480
C341	C34	0.734830	0.355000	0.438780
C351	C35	0.664170	0.318180	0.413840
C361	C36	0.597740	0.233120	0.465910
C371	C37	0.520360	0.098480	0.604750
C381	C38	0.815810	0.344550	0.542540
C391	C39	0.655530	0.369490	0.334830
C401	C40	0.660410	0.449080	0.314250
C411	C41	0.640710	0.494110	0.246780
C421	C42	0.616730	0.460920	0.197750
C431	C43	0.615850	0.382860	0.216260
C441	C44	0.635530	0.337400	0.283960
C451	C45	0.590730	0.509590	0.127290
C461	C46	0.858510	0.455750	0.731780
C471	C47	0.764420	0.431320	0.793780
C481	C48	0.746980	0.484520	0.823820
C491	C49	0.826390	0.561220	0.793780
C501	C50	0.921990	0.586160	0.732020
C511	C51	0.936350	0.534090	0.699030
C521	C52	0.874890	0.395250	0.703230
C531	C53	0.641650	0.457460	0.887090
C541	C54	0.009640	0.665170	0.704320
C551	C55	0.025340	0.685750	0.763330
C561	C56	0.112510	0.753220	0.740890
C571	C57	0.185520	0.802250	0.658670
C581	C58	0.167890	0.783740	0.599120
C591	C59	0.080510	0.716040	0.621360
C601	C60	0.281980	0.872710	0.636880
C611	C61	0.590290	0.731780	0.812470
C621	C62	0.558200	0.793780	0.774900
C631	C63	0.570800	0.823820	0.691660
C641	C64	0.620170	0.793780	0.645000
C651	C65	0.654010	0.732020	0.681820
C661	C66	0.635380	0.699030	0.766880
C671	C67	0.578120	0.703230	0.901520
C681	C68	0.528740	0.887090	0.655450
C691	C69	0.713960	0.704320	0.630510
C701	C70	0.788670	0.763330	0.550920
C711	C71	0.853400	0.740890	0.505890
C721	C72	0.844190	0.658670	0.539080
C731	C73	0.767010	0.599120	0.617140
C741	C74	0.701870	0.621360	0.662600
C751	C75	0.918860	0.636880	0.490410
C761	C76	0.402760	0.812470	0.455750
C771	C77	0.333100	0.774900	0.431320
C781	C78	0.262460	0.691660	0.484520
C791	C79	0.265170	0.645000	0.561220
C801	C80	0.335830	0.681820	0.586160
C811	C81	0.402260	0.766880	0.534090
C821	C82	0.479640	0.901520	0.395250
C831	C83	0.184190	0.655450	0.457460
C841	C84	0.344470	0.630510	0.665170
C851	C85	0.339590	0.550920	0.685750
C861	C86	0.359290	0.505890	0.753220
C871	C87	0.383270	0.539080	0.802250
C881	C88	0.384150	0.617140	0.783740
C891	C89	0.364470	0.662600	0.716040
C901	C90	0.409270	0.490410	0.872710
O11	O1	0.052990	0.579690	0.366150
O21	O2	0.181810	0.682210	0.247180
O31	O3	0.373230	0.495030	0.084900
O41	O4	0.423220	0.612750	0.093450
O51	O5	0.652580	0.084480	0.436980
O61	O6	0.712270	0.118340	0.302270
O71	O7	0.419140	0.366150	0.054160
O81	O8	0.428990	0.247180	0.070610
O91	O9	0.458130	0.084900	0.420070
O101	O10	0.516670	0.093450	0.293800
O111	O11	0.089560	0.436980	0.478540
O121	O12	0.014540	0.302270	0.579390
O131	O13	0.473300	0.054160	0.579690
O141	O14	0.499600	0.070610	0.682210
O151	O15	0.878200	0.420070	0.495030
O161	O16	0.810470	0.293800	0.612750
O171	O17	0.568100	0.478540	0.084480
O181	O18	0.593930	0.579390	0.118340
O191	O19	0.947010	0.420310	0.633850
O201	O20	0.818190	0.317790	0.752820
O211	O21	0.626770	0.504970	0.915100
O221	O22	0.576780	0.387250	0.906550
O231	O23	0.347420	0.915520	0.563020
O241	O24	0.287730	0.881660	0.697730
O251	O25	0.580860	0.633850	0.945840
O261	O26	0.571010	0.752820	0.929390
O271	O27	0.541870	0.915100	0.579930
O281	O28	0.483330	0.906550	0.706200
O291	O29	0.910440	0.563020	0.521460
O301	O30	0.985460	0.697730	0.420610
O311	O31	0.526700	0.945840	0.420310
O321	O32	0.500400	0.929390	0.317790
O331	O33	0.121800	0.579930	0.504970
O341	O34	0.189530	0.706200	0.387250
O351	O35	0.431900	0.521460	0.915520
O361	O36	0.406070	0.420610	0.881660
