data_WUKXEH_clean_PM
_symmetry_space_group_name_H-M	'P1'
_cell_length_a	31.420600
_cell_length_b	31.420600
_cell_length_c	44.823900
_cell_angle_alpha	90.000000
_cell_angle_beta	90.000000
_cell_angle_gamma	90.000000
_symmetry_Int_Tables_number 1

loop_
_symmetry_equiv_pos_as_xyz
'x,y,z'

loop_
_atom_site_label
_atom_site_type_symbol
_atom_site_fract_x
_atom_site_fract_y
_atom_site_fract_z
O11	O1	0.909500	0.799630	0.107870
O21	O2	0.877080	0.758380	0.141850
C11	C1	0.898430	0.764170	0.118260
C21	C2	0.912440	0.725300	0.101520
C31	C3	0.897480	0.685740	0.109780
H11	H1	0.878600	0.683000	0.125600
C41	C4	0.911130	0.649900	0.094060
N11	N1	0.895030	0.608870	0.101160
C51	C5	0.866560	0.597290	0.122060
H21	H2	0.853100	0.615300	0.135500
Cu11	Cu1	0.640130	0.694080	0.332380
Cu21	Cu2	0.605060	0.645910	0.373920
O31	O3	0.652980	0.639510	0.313230
O41	O4	0.005930	0.664000	0.030340
O51	O5	0.625750	0.598630	0.349370
O61	O6	0.650320	0.445370	0.348830
O71	O7	0.693200	0.416970	0.314490
O81	O8	0.996660	0.734740	0.030760
O91	O9	0.575850	0.607530	0.407830
H31	H3	0.553300	0.618500	0.413000
O101	O10	0.667340	0.734330	0.298700
H41	H4	0.690700	0.725000	0.293800
N21	N2	0.814820	0.347450	0.121170
C61	C6	0.941400	0.729350	0.078330
H51	H5	0.951000	0.756100	0.072600
C71	C7	0.657560	0.525540	0.323530
H61	H6	0.642200	0.523000	0.341200
C81	C8	0.662320	0.565060	0.310400
C91	C9	0.675650	0.489430	0.310440
C101	C10	0.672850	0.447320	0.325640
C111	C11	0.955860	0.693560	0.063740
N31	N3	0.726210	0.538740	0.244020
C121	C12	0.940850	0.653110	0.071500
H71	H7	0.950700	0.629000	0.061700
C131	C13	0.855020	0.315080	0.080730
H81	H8	0.860000	0.341800	0.072500
C141	C14	0.684500	0.569160	0.283770
H91	H9	0.687200	0.595600	0.274700
C151	C15	0.645370	0.604270	0.325580
C161	C16	0.988880	0.697610	0.039750
C171	C17	0.830410	0.311120	0.106280
C181	C18	0.823200	0.271460	0.118750
H101	H10	0.807100	0.269000	0.136100
C191	C19	0.697990	0.493380	0.283750
H111	H11	0.709800	0.469500	0.274600
C201	C20	0.702460	0.533430	0.270920
C211	C21	0.763100	0.530420	0.203400
C221	C22	0.742670	0.509850	0.225570
H121	H12	0.740400	0.480500	0.227600
C231	C23	0.803900	0.411120	0.138870
C241	C24	0.783780	0.471340	0.170580
H131	H13	0.766600	0.453000	0.181500
C251	C25	0.811300	0.541690	0.161330
H141	H14	0.811600	0.570600	0.165800
C261	C26	0.826910	0.388410	0.118970
H151	H15	0.847400	0.399200	0.106100
C271	C27	0.807400	0.456080	0.146490
C281	C28	0.861100	0.554320	0.119900
C291	C29	0.786100	0.514030	0.178080
C301	C30	0.833140	0.483920	0.130000
H161	H16	0.848400	0.473800	0.113700
C311	C31	0.835900	0.526290	0.137960
C321	C32	0.901280	0.283690	0.040940
C331	C33	0.872190	0.279220	0.067480
C341	C34	0.864680	0.239010	0.079630
H171	H17	0.876000	0.214800	0.070600
C351	C35	0.840090	0.235450	0.105370
O111	O11	0.907390	0.320870	0.031300
O121	O12	0.917350	0.250420	0.030870
C361	C36	0.834130	0.192760	0.120050
O131	O13	0.851320	0.161500	0.107360
O141	O14	0.813120	0.191710	0.143430
N41	N4	0.885600	0.541490	0.098170
N51	N5	0.902900	0.576040	0.084360
N61	N6	0.781000	0.383740	0.153600
N71	N7	0.760400	0.570300	0.209790
N81	N8	0.788300	0.344460	0.143370
N91	N9	0.736800	0.576170	0.234670
O151	O15	0.409500	0.299630	0.607870
O161	O16	0.377080	0.258380	0.641850
C371	C37	0.398430	0.264170	0.618260
C381	C38	0.412440	0.225300	0.601520
C391	C39	0.397480	0.185740	0.609780
H181	H18	0.378600	0.183000	0.625600
C401	C40	0.411130	0.149900	0.594060
N101	N10	0.395030	0.108870	0.601160
C411	C41	0.366560	0.097290	0.622060
H191	H19	0.353100	0.115300	0.635500
Cu31	Cu3	0.140130	0.194080	0.832380
Cu41	Cu4	0.105060	0.145910	0.873920
O171	O17	0.152980	0.139510	0.813230
O181	O18	0.505930	0.164000	0.530340
O191	O19	0.125750	0.098630	0.849370
O201	O20	0.150320	0.945370	0.848830
O211	O21	0.193200	0.916970	0.814490
O221	O22	0.496660	0.234740	0.530760
O231	O23	0.075850	0.107530	0.907830
H201	H20	0.053300	0.118500	0.913000
O241	O24	0.167340	0.234330	0.798700
H211	H21	0.190700	0.225000	0.793800
N111	N11	0.314820	0.847450	0.621170
C421	C42	0.441400	0.229350	0.578330
H221	H22	0.451000	0.256100	0.572600
C431	C43	0.157560	0.025540	0.823530
H231	H23	0.142200	0.023000	0.841200
C441	C44	0.162320	0.065060	0.810400
C451	C45	0.175650	0.989430	0.810440
C461	C46	0.172850	0.947320	0.825640
C471	C47	0.455860	0.193560	0.563740
N121	N12	0.226210	0.038740	0.744020
C481	C48	0.440850	0.153110	0.571500
H241	H24	0.450700	0.129000	0.561700
C491	C49	0.355020	0.815080	0.580730
H251	H25	0.360000	0.841800	0.572500
C501	C50	0.184500	0.069160	0.783770
H261	H26	0.187200	0.095600	0.774700
C511	C51	0.145370	0.104270	0.825580
C521	C52	0.488880	0.197610	0.539750
C531	C53	0.330410	0.811120	0.606280
C541	C54	0.323200	0.771460	0.618750
H271	H27	0.307100	0.769000	0.636100
C551	C55	0.197990	0.993380	0.783750
H281	H28	0.209800	0.969500	0.774600
C561	C56	0.202460	0.033430	0.770920
C571	C57	0.263100	0.030420	0.703400
C581	C58	0.242670	0.009850	0.725570
H291	H29	0.240400	0.980500	0.727600
C591	C59	0.303900	0.911120	0.638870
C601	C60	0.283780	0.971340	0.670580
H301	H30	0.266600	0.953000	0.681500
C611	C61	0.311300	0.041690	0.661330
H311	H31	0.311600	0.070600	0.665800
C621	C62	0.326910	0.888410	0.618970
H321	H32	0.347400	0.899200	0.606100
C631	C63	0.307400	0.956080	0.646490
C641	C64	0.361100	0.054320	0.619900
C651	C65	0.286100	0.014030	0.678080
C661	C66	0.333140	0.983920	0.630000
H331	H33	0.348400	0.973800	0.613700
C671	C67	0.335900	0.026290	0.637960
C681	C68	0.401280	0.783690	0.540940
C691	C69	0.372190	0.779220	0.567480
C701	C70	0.364680	0.739010	0.579630
H341	H34	0.376000	0.714800	0.570600
C711	C71	0.340090	0.735450	0.605370
O251	O25	0.407390	0.820870	0.531300
O261	O26	0.417350	0.750420	0.530870
C721	C72	0.334130	0.692760	0.620050
O271	O27	0.351320	0.661500	0.607360
O281	O28	0.313120	0.691710	0.643430
N131	N13	0.385600	0.041490	0.598170
N141	N14	0.402900	0.076040	0.584360
N151	N15	0.281000	0.883740	0.653600
N161	N16	0.260400	0.070300	0.709790
N171	N17	0.288300	0.844460	0.643370
N181	N18	0.236800	0.076170	0.734670
O291	O29	0.090500	0.200370	0.107870
O301	O30	0.122920	0.241620	0.141850
C731	C73	0.101570	0.235830	0.118260
C741	C74	0.087560	0.274700	0.101520
C751	C75	0.102520	0.314260	0.109780
H351	H35	0.121400	0.317000	0.125600
C761	C76	0.088870	0.350100	0.094060
N191	N19	0.104970	0.391130	0.101160
C771	C77	0.133440	0.402710	0.122060
H361	H36	0.146900	0.384700	0.135500
Cu51	Cu5	0.359870	0.305920	0.332380
Cu61	Cu6	0.394940	0.354090	0.373920
O311	O31	0.347020	0.360490	0.313230
O321	O32	0.994070	0.336000	0.030340
O331	O33	0.374250	0.401370	0.349370
O341	O34	0.349680	0.554630	0.348830
O351	O35	0.306800	0.583030	0.314490
O361	O36	0.003340	0.265260	0.030760
O371	O37	0.424150	0.392470	0.407830
H371	H37	0.446700	0.381500	0.413000
O381	O38	0.332660	0.265670	0.298700
H381	H38	0.309300	0.275000	0.293800
N201	N20	0.185180	0.652550	0.121170
C781	C78	0.058600	0.270650	0.078330
H391	H39	0.049000	0.243900	0.072600
C791	C79	0.342440	0.474460	0.323530
H401	H40	0.357800	0.477000	0.341200
C801	C80	0.337680	0.434940	0.310400
C811	C81	0.324350	0.510570	0.310440
C821	C82	0.327150	0.552680	0.325640
C831	C83	0.044140	0.306440	0.063740
N211	N21	0.273790	0.461260	0.244020
C841	C84	0.059150	0.346890	0.071500
H411	H41	0.049300	0.371000	0.061700
C851	C85	0.144980	0.684920	0.080730
H421	H42	0.140000	0.658200	0.072500
C861	C86	0.315500	0.430840	0.283770
H431	H43	0.312800	0.404400	0.274700
C871	C87	0.354630	0.395730	0.325580
C881	C88	0.011120	0.302390	0.039750
C891	C89	0.169590	0.688880	0.106280
C901	C90	0.176800	0.728540	0.118750
H441	H44	0.192900	0.731000	0.136100
C911	C91	0.302010	0.506620	0.283750
H451	H45	0.290200	0.530500	0.274600
C921	C92	0.297540	0.466570	0.270920
C931	C93	0.236900	0.469580	0.203400
C941	C94	0.257330	0.490150	0.225570
H461	H46	0.259600	0.519500	0.227600
C951	C95	0.196100	0.588880	0.138870
C961	C96	0.216220	0.528660	0.170580
H471	H47	0.233400	0.547000	0.181500
C971	C97	0.188700	0.458310	0.161330
H481	H48	0.188400	0.429400	0.165800
C981	C98	0.173090	0.611590	0.118970
H491	H49	0.152600	0.600800	0.106100
C991	C99	0.192600	0.543920	0.146490
C1001	C100	0.138900	0.445680	0.119900
C1011	C101	0.213900	0.485970	0.178080
C1021	C102	0.166860	0.516080	0.130000
H501	H50	0.151600	0.526200	0.113700
C1031	C103	0.164100	0.473710	0.137960
C1041	C104	0.098720	0.716310	0.040940
C1051	C105	0.127810	0.720780	0.067480
C1061	C106	0.135320	0.760990	0.079630
H511	H51	0.124000	0.785200	0.070600
C1071	C107	0.159910	0.764550	0.105370
O391	O39	0.092610	0.679130	0.031300
O401	O40	0.082650	0.749580	0.030870
C1081	C108	0.165870	0.807240	0.120050
O411	O41	0.148680	0.838500	0.107360
O421	O42	0.186880	0.808290	0.143430
N221	N22	0.114400	0.458510	0.098170
N231	N23	0.097100	0.423960	0.084360
N241	N24	0.219000	0.616260	0.153600
N251	N25	0.239600	0.429700	0.209790
N261	N26	0.211700	0.655540	0.143370
N271	N27	0.263200	0.423830	0.234670
O431	O43	0.590500	0.700370	0.607870
O441	O44	0.622920	0.741620	0.641850
C1091	C109	0.601570	0.735830	0.618260
C1101	C110	0.587560	0.774700	0.601520
C1111	C111	0.602520	0.814260	0.609780
H521	H52	0.621400	0.817000	0.625600
C1121	C112	0.588870	0.850100	0.594060
N281	N28	0.604970	0.891130	0.601160
C1131	C113	0.633440	0.902710	0.622060
H531	H53	0.646900	0.884700	0.635500
Cu71	Cu7	0.859870	0.805920	0.832380
Cu81	Cu8	0.894940	0.854090	0.873920
O451	O45	0.847020	0.860490	0.813230
O461	O46	0.494070	0.836000	0.530340
O471	O47	0.874250	0.901370	0.849370
O481	O48	0.849680	0.054630	0.848830
O491	O49	0.806800	0.083030	0.814490
O501	O50	0.503340	0.765260	0.530760
O511	O51	0.924150	0.892470	0.907830
H541	H54	0.946700	0.881500	0.913000
O521	O52	0.832660	0.765670	0.798700
H551	H55	0.809300	0.775000	0.793800
N291	N29	0.685180	0.152550	0.621170
C1141	C114	0.558600	0.770650	0.578330
H561	H56	0.549000	0.743900	0.572600
C1151	C115	0.842440	0.974460	0.823530
H571	H57	0.857800	0.977000	0.841200
C1161	C116	0.837680	0.934940	0.810400
C1171	C117	0.824350	0.010570	0.810440
C1181	C118	0.827150	0.052680	0.825640
C1191	C119	0.544140	0.806440	0.563740
N301	N30	0.773790	0.961260	0.744020
C1201	C120	0.559150	0.846890	0.571500
H581	H58	0.549300	0.871000	0.561700
C1211	C121	0.644980	0.184920	0.580730
H591	H59	0.640000	0.158200	0.572500
C1221	C122	0.815500	0.930840	0.783770
H601	H60	0.812800	0.904400	0.774700
C1231	C123	0.854630	0.895730	0.825580
C1241	C124	0.511120	0.802390	0.539750
C1251	C125	0.669590	0.188880	0.606280
C1261	C126	0.676800	0.228540	0.618750
H611	H61	0.692900	0.231000	0.636100
C1271	C127	0.802010	0.006620	0.783750
H621	H62	0.790200	0.030500	0.774600
C1281	C128	0.797540	0.966570	0.770920
C1291	C129	0.736900	0.969580	0.703400
C1301	C130	0.757330	0.990150	0.725570
H631	H63	0.759600	0.019500	0.727600
C1311	C131	0.696100	0.088880	0.638870
C1321	C132	0.716220	0.028660	0.670580
H641	H64	0.733400	0.047000	0.681500
C1331	C133	0.688700	0.958310	0.661330
H651	H65	0.688400	0.929400	0.665800
C1341	C134	0.673090	0.111590	0.618970
H661	H66	0.652600	0.100800	0.606100
C1351	C135	0.692600	0.043920	0.646490
C1361	C136	0.638900	0.945680	0.619900
C1371	C137	0.713900	0.985970	0.678080
C1381	C138	0.666860	0.016080	0.630000
H671	H67	0.651600	0.026200	0.613700
C1391	C139	0.664100	0.973710	0.637960
C1401	C140	0.598720	0.216310	0.540940
C1411	C141	0.627810	0.220780	0.567480
C1421	C142	0.635320	0.260990	0.579630
H681	H68	0.624000	0.285200	0.570600
C1431	C143	0.659910	0.264550	0.605370
O531	O53	0.592610	0.179130	0.531300
O541	O54	0.582650	0.249580	0.530870
C1441	C144	0.665870	0.307240	0.620050
O551	O55	0.648680	0.338500	0.607360
O561	O56	0.686880	0.308290	0.643430
N311	N31	0.614400	0.958510	0.598170
N321	N32	0.597100	0.923960	0.584360
N331	N33	0.719000	0.116260	0.653600
N341	N34	0.739600	0.929700	0.709790
N351	N35	0.711700	0.155540	0.643370
N361	N36	0.763200	0.923830	0.734670
O571	O57	0.200370	0.909500	0.107870
O581	O58	0.241620	0.877080	0.141850
C1451	C145	0.235830	0.898430	0.118260
C1461	C146	0.274700	0.912440	0.101520
C1471	C147	0.314260	0.897480	0.109780
H691	H69	0.317000	0.878600	0.125600
C1481	C148	0.350100	0.911130	0.094060
N371	N37	0.391130	0.895030	0.101160
C1491	C149	0.402710	0.866560	0.122060
H701	H70	0.384700	0.853100	0.135500
Cu91	Cu9	0.305920	0.640130	0.332380
Cu101	Cu10	0.354090	0.605060	0.373920
O591	O59	0.360490	0.652980	0.313230
O601	O60	0.336000	0.005930	0.030340
O611	O61	0.401370	0.625750	0.349370
O621	O62	0.554630	0.650320	0.348830
O631	O63	0.583030	0.693200	0.314490
O641	O64	0.265260	0.996660	0.030760
O651	O65	0.392470	0.575850	0.407830
H711	H71	0.381500	0.553300	0.413000
O661	O66	0.265670	0.667340	0.298700
H721	H72	0.275000	0.690700	0.293800
N381	N38	0.652550	0.814820	0.121170
C1501	C150	0.270650	0.941400	0.078330
H731	H73	0.243900	0.951000	0.072600
C1511	C151	0.474460	0.657560	0.323530
H741	H74	0.477000	0.642200	0.341200
C1521	C152	0.434940	0.662320	0.310400
C1531	C153	0.510570	0.675650	0.310440
C1541	C154	0.552680	0.672850	0.325640
C1551	C155	0.306440	0.955860	0.063740
N391	N39	0.461260	0.726210	0.244020
C1561	C156	0.346890	0.940850	0.071500
H751	H75	0.371000	0.950700	0.061700
C1571	C157	0.684920	0.855020	0.080730
H761	H76	0.658200	0.860000	0.072500
C1581	C158	0.430840	0.684500	0.283770
H771	H77	0.404400	0.687200	0.274700
C1591	C159	0.395730	0.645370	0.325580
C1601	C160	0.302390	0.988880	0.039750
C1611	C161	0.688880	0.830410	0.106280
C1621	C162	0.728540	0.823200	0.118750
H781	H78	0.731000	0.807100	0.136100
C1631	C163	0.506620	0.697990	0.283750
H791	H79	0.530500	0.709800	0.274600
C1641	C164	0.466570	0.702460	0.270920
C1651	C165	0.469580	0.763100	0.203400
C1661	C166	0.490150	0.742670	0.225570
H801	H80	0.519500	0.740400	0.227600
C1671	C167	0.588880	0.803900	0.138870
C1681	C168	0.528660	0.783780	0.170580
H811	H81	0.547000	0.766600	0.181500
C1691	C169	0.458310	0.811300	0.161330
H821	H82	0.429400	0.811600	0.165800
C1701	C170	0.611590	0.826910	0.118970
H831	H83	0.600800	0.847400	0.106100
C1711	C171	0.543920	0.807400	0.146490
C1721	C172	0.445680	0.861100	0.119900
C1731	C173	0.485970	0.786100	0.178080
C1741	C174	0.516080	0.833140	0.130000
H841	H84	0.526200	0.848400	0.113700
C1751	C175	0.473710	0.835900	0.137960
C1761	C176	0.716310	0.901280	0.040940
C1771	C177	0.720780	0.872190	0.067480
C1781	C178	0.760990	0.864680	0.079630
H851	H85	0.785200	0.876000	0.070600
C1791	C179	0.764550	0.840090	0.105370
O671	O67	0.679130	0.907390	0.031300
O681	O68	0.749580	0.917350	0.030870
C1801	C180	0.807240	0.834130	0.120050
O691	O69	0.838500	0.851320	0.107360
O701	O70	0.808290	0.813120	0.143430
N401	N40	0.458510	0.885600	0.098170
N411	N41	0.423960	0.902900	0.084360
N421	N42	0.616260	0.781000	0.153600
N431	N43	0.429700	0.760400	0.209790
N441	N44	0.655540	0.788300	0.143370
N451	N45	0.423830	0.736800	0.234670
O711	O71	0.700370	0.409500	0.607870
O721	O72	0.741620	0.377080	0.641850
C1811	C181	0.735830	0.398430	0.618260
C1821	C182	0.774700	0.412440	0.601520
C1831	C183	0.814260	0.397480	0.609780
H861	H86	0.817000	0.378600	0.625600
C1841	C184	0.850100	0.411130	0.594060
N461	N46	0.891130	0.395030	0.601160
C1851	C185	0.902710	0.366560	0.622060
H871	H87	0.884700	0.353100	0.635500
Cu111	Cu11	0.805920	0.140130	0.832380
Cu121	Cu12	0.854090	0.105060	0.873920
O731	O73	0.860490	0.152980	0.813230
O741	O74	0.836000	0.505930	0.530340
O751	O75	0.901370	0.125750	0.849370
O761	O76	0.054630	0.150320	0.848830
O771	O77	0.083030	0.193200	0.814490
O781	O78	0.765260	0.496660	0.530760
O791	O79	0.892470	0.075850	0.907830
H881	H88	0.881500	0.053300	0.913000
O801	O80	0.765670	0.167340	0.798700
H891	H89	0.775000	0.190700	0.793800
N471	N47	0.152550	0.314820	0.621170
C1861	C186	0.770650	0.441400	0.578330
H901	H90	0.743900	0.451000	0.572600
C1871	C187	0.974460	0.157560	0.823530
H911	H91	0.977000	0.142200	0.841200
C1881	C188	0.934940	0.162320	0.810400
C1891	C189	0.010570	0.175650	0.810440
C1901	C190	0.052680	0.172850	0.825640
C1911	C191	0.806440	0.455860	0.563740
N481	N48	0.961260	0.226210	0.744020
C1921	C192	0.846890	0.440850	0.571500
H921	H92	0.871000	0.450700	0.561700
C1931	C193	0.184920	0.355020	0.580730
H931	H93	0.158200	0.360000	0.572500
C1941	C194	0.930840	0.184500	0.783770
H941	H94	0.904400	0.187200	0.774700
C1951	C195	0.895730	0.145370	0.825580
C1961	C196	0.802390	0.488880	0.539750
C1971	C197	0.188880	0.330410	0.606280
C1981	C198	0.228540	0.323200	0.618750
H951	H95	0.231000	0.307100	0.636100
C1991	C199	0.006620	0.197990	0.783750
H961	H96	0.030500	0.209800	0.774600
C2001	C200	0.966570	0.202460	0.770920
C2011	C201	0.969580	0.263100	0.703400
C2021	C202	0.990150	0.242670	0.725570
H971	H97	0.019500	0.240400	0.727600
C2031	C203	0.088880	0.303900	0.638870
C2041	C204	0.028660	0.283780	0.670580
H981	H98	0.047000	0.266600	0.681500
C2051	C205	0.958310	0.311300	0.661330
H991	H99	0.929400	0.311600	0.665800
C2061	C206	0.111590	0.326910	0.618970
H1001	H100	0.100800	0.347400	0.606100
C2071	C207	0.043920	0.307400	0.646490
C2081	C208	0.945680	0.361100	0.619900
C2091	C209	0.985970	0.286100	0.678080
C2101	C210	0.016080	0.333140	0.630000
H1011	H101	0.026200	0.348400	0.613700
C2111	C211	0.973710	0.335900	0.637960
C2121	C212	0.216310	0.401280	0.540940
C2131	C213	0.220780	0.372190	0.567480
C2141	C214	0.260990	0.364680	0.579630
H1021	H102	0.285200	0.376000	0.570600
C2151	C215	0.264550	0.340090	0.605370
O811	O81	0.179130	0.407390	0.531300
O821	O82	0.249580	0.417350	0.530870
C2161	C216	0.307240	0.334130	0.620050
O831	O83	0.338500	0.351320	0.607360
O841	O84	0.308290	0.313120	0.643430
N491	N49	0.958510	0.385600	0.598170
N501	N50	0.923960	0.402900	0.584360
N511	N51	0.116260	0.281000	0.653600
N521	N52	0.929700	0.260400	0.709790
N531	N53	0.155540	0.288300	0.643370
N541	N54	0.923830	0.236800	0.734670
O851	O85	0.799630	0.090500	0.107870
O861	O86	0.758380	0.122920	0.141850
C2171	C217	0.764170	0.101570	0.118260
C2181	C218	0.725300	0.087560	0.101520
C2191	C219	0.685740	0.102520	0.109780
H1031	H103	0.683000	0.121400	0.125600
C2201	C220	0.649900	0.088870	0.094060
N551	N55	0.608870	0.104970	0.101160
C2211	C221	0.597290	0.133440	0.122060
H1041	H104	0.615300	0.146900	0.135500
Cu131	Cu13	0.694080	0.359870	0.332380
Cu141	Cu14	0.645910	0.394940	0.373920
O871	O87	0.639510	0.347020	0.313230
O881	O88	0.664000	0.994070	0.030340
O891	O89	0.598630	0.374250	0.349370
O901	O90	0.445370	0.349680	0.348830
O911	O91	0.416970	0.306800	0.314490
O921	O92	0.734740	0.003340	0.030760
O931	O93	0.607530	0.424150	0.407830
H1051	H105	0.618500	0.446700	0.413000
O941	O94	0.734330	0.332660	0.298700
H1061	H106	0.725000	0.309300	0.293800
N561	N56	0.347450	0.185180	0.121170
C2221	C222	0.729350	0.058600	0.078330
H1071	H107	0.756100	0.049000	0.072600
C2231	C223	0.525540	0.342440	0.323530
H1081	H108	0.523000	0.357800	0.341200
C2241	C224	0.565060	0.337680	0.310400
C2251	C225	0.489430	0.324350	0.310440
C2261	C226	0.447320	0.327150	0.325640
C2271	C227	0.693560	0.044140	0.063740
N571	N57	0.538740	0.273790	0.244020
C2281	C228	0.653110	0.059150	0.071500
H1091	H109	0.629000	0.049300	0.061700
C2291	C229	0.315080	0.144980	0.080730
H1101	H110	0.341800	0.140000	0.072500
C2301	C230	0.569160	0.315500	0.283770
H1111	H111	0.595600	0.312800	0.274700
C2311	C231	0.604270	0.354630	0.325580
C2321	C232	0.697610	0.011120	0.039750
C2331	C233	0.311120	0.169590	0.106280
C2341	C234	0.271460	0.176800	0.118750
H1121	H112	0.269000	0.192900	0.136100
C2351	C235	0.493380	0.302010	0.283750
H1131	H113	0.469500	0.290200	0.274600
C2361	C236	0.533430	0.297540	0.270920
C2371	C237	0.530420	0.236900	0.203400
C2381	C238	0.509850	0.257330	0.225570
H1141	H114	0.480500	0.259600	0.227600
C2391	C239	0.411120	0.196100	0.138870
C2401	C240	0.471340	0.216220	0.170580
H1151	H115	0.453000	0.233400	0.181500
C2411	C241	0.541690	0.188700	0.161330
H1161	H116	0.570600	0.188400	0.165800
C2421	C242	0.388410	0.173090	0.118970
H1171	H117	0.399200	0.152600	0.106100
C2431	C243	0.456080	0.192600	0.146490
C2441	C244	0.554320	0.138900	0.119900
C2451	C245	0.514030	0.213900	0.178080
C2461	C246	0.483920	0.166860	0.130000
H1181	H118	0.473800	0.151600	0.113700
C2471	C247	0.526290	0.164100	0.137960
C2481	C248	0.283690	0.098720	0.040940
C2491	C249	0.279220	0.127810	0.067480
C2501	C250	0.239010	0.135320	0.079630
H1191	H119	0.214800	0.124000	0.070600
C2511	C251	0.235450	0.159910	0.105370
O951	O95	0.320870	0.092610	0.031300
O961	O96	0.250420	0.082650	0.030870
C2521	C252	0.192760	0.165870	0.120050
O971	O97	0.161500	0.148680	0.107360
O981	O98	0.191710	0.186880	0.143430
N581	N58	0.541490	0.114400	0.098170
N591	N59	0.576040	0.097100	0.084360
N601	N60	0.383740	0.219000	0.153600
N611	N61	0.570300	0.239600	0.209790
N621	N62	0.344460	0.211700	0.143370
N631	N63	0.576170	0.263200	0.234670
O991	O99	0.299630	0.590500	0.607870
O1001	O100	0.258380	0.622920	0.641850
C2531	C253	0.264170	0.601570	0.618260
C2541	C254	0.225300	0.587560	0.601520
C2551	C255	0.185740	0.602520	0.609780
H1201	H120	0.183000	0.621400	0.625600
C2561	C256	0.149900	0.588870	0.594060
N641	N64	0.108870	0.604970	0.601160
C2571	C257	0.097290	0.633440	0.622060
H1211	H121	0.115300	0.646900	0.635500
Cu151	Cu15	0.194080	0.859870	0.832380
Cu161	Cu16	0.145910	0.894940	0.873920
O1011	O101	0.139510	0.847020	0.813230
O1021	O102	0.164000	0.494070	0.530340
O1031	O103	0.098630	0.874250	0.849370
O1041	O104	0.945370	0.849680	0.848830
O1051	O105	0.916970	0.806800	0.814490
O1061	O106	0.234740	0.503340	0.530760
O1071	O107	0.107530	0.924150	0.907830
H1221	H122	0.118500	0.946700	0.913000
O1081	O108	0.234330	0.832660	0.798700
H1231	H123	0.225000	0.809300	0.793800
N651	N65	0.847450	0.685180	0.621170
C2581	C258	0.229350	0.558600	0.578330
H1241	H124	0.256100	0.549000	0.572600
C2591	C259	0.025540	0.842440	0.823530
H1251	H125	0.023000	0.857800	0.841200
C2601	C260	0.065060	0.837680	0.810400
C2611	C261	0.989430	0.824350	0.810440
C2621	C262	0.947320	0.827150	0.825640
C2631	C263	0.193560	0.544140	0.563740
N661	N66	0.038740	0.773790	0.744020
C2641	C264	0.153110	0.559150	0.571500
H1261	H126	0.129000	0.549300	0.561700
C2651	C265	0.815080	0.644980	0.580730
H1271	H127	0.841800	0.640000	0.572500
C2661	C266	0.069160	0.815500	0.783770
H1281	H128	0.095600	0.812800	0.774700
C2671	C267	0.104270	0.854630	0.825580
C2681	C268	0.197610	0.511120	0.539750
C2691	C269	0.811120	0.669590	0.606280
C2701	C270	0.771460	0.676800	0.618750
H1291	H129	0.769000	0.692900	0.636100
C2711	C271	0.993380	0.802010	0.783750
H1301	H130	0.969500	0.790200	0.774600
C2721	C272	0.033430	0.797540	0.770920
C2731	C273	0.030420	0.736900	0.703400
C2741	C274	0.009850	0.757330	0.725570
H1311	H131	0.980500	0.759600	0.727600
C2751	C275	0.911120	0.696100	0.638870
C2761	C276	0.971340	0.716220	0.670580
H1321	H132	0.953000	0.733400	0.681500
C2771	C277	0.041690	0.688700	0.661330
H1331	H133	0.070600	0.688400	0.665800
C2781	C278	0.888410	0.673090	0.618970
H1341	H134	0.899200	0.652600	0.606100
C2791	C279	0.956080	0.692600	0.646490
C2801	C280	0.054320	0.638900	0.619900
C2811	C281	0.014030	0.713900	0.678080
C2821	C282	0.983920	0.666860	0.630000
H1351	H135	0.973800	0.651600	0.613700
C2831	C283	0.026290	0.664100	0.637960
C2841	C284	0.783690	0.598720	0.540940
C2851	C285	0.779220	0.627810	0.567480
C2861	C286	0.739010	0.635320	0.579630
H1361	H136	0.714800	0.624000	0.570600
C2871	C287	0.735450	0.659910	0.605370
O1091	O109	0.820870	0.592610	0.531300
O1101	O110	0.750420	0.582650	0.530870
C2881	C288	0.692760	0.665870	0.620050
O1111	O111	0.661500	0.648680	0.607360
O1121	O112	0.691710	0.686880	0.643430
N671	N67	0.041490	0.614400	0.598170
N681	N68	0.076040	0.597100	0.584360
N691	N69	0.883740	0.719000	0.653600
N701	N70	0.070300	0.739600	0.709790
N711	N71	0.844460	0.711700	0.643370
N721	N72	0.076170	0.763200	0.734670
O1131	O113	0.090500	0.200370	0.892130
O1141	O114	0.122920	0.241620	0.858150
C2891	C289	0.101570	0.235830	0.881740
C2901	C290	0.087560	0.274700	0.898480
C2911	C291	0.102520	0.314260	0.890220
H1371	H137	0.121400	0.317000	0.874400
C2921	C292	0.088870	0.350100	0.905940
N731	N73	0.104970	0.391130	0.898840
C2931	C293	0.133440	0.402710	0.877940
H1381	H138	0.146900	0.384700	0.864500
Cu171	Cu17	0.359870	0.305920	0.667620
Cu181	Cu18	0.394940	0.354090	0.626080
O1151	O115	0.347020	0.360490	0.686770
O1161	O116	0.994070	0.336000	0.969660
O1171	O117	0.374250	0.401370	0.650630
O1181	O118	0.349680	0.554630	0.651170
O1191	O119	0.306800	0.583030	0.685510
O1201	O120	0.003340	0.265260	0.969240
O1211	O121	0.424150	0.392470	0.592170
H1391	H139	0.446700	0.381500	0.587000
O1221	O122	0.332660	0.265670	0.701300
H1401	H140	0.309300	0.275000	0.706200
N741	N74	0.185180	0.652550	0.878830
C2941	C294	0.058600	0.270650	0.921670
H1411	H141	0.049000	0.243900	0.927400
C2951	C295	0.342440	0.474460	0.676470
H1421	H142	0.357800	0.477000	0.658800
C2961	C296	0.337680	0.434940	0.689600
C2971	C297	0.324350	0.510570	0.689560
C2981	C298	0.327150	0.552680	0.674360
C2991	C299	0.044140	0.306440	0.936260
N751	N75	0.273790	0.461260	0.755980
C3001	C300	0.059150	0.346890	0.928500
H1431	H143	0.049300	0.371000	0.938300
C3011	C301	0.144980	0.684920	0.919270
H1441	H144	0.140000	0.658200	0.927500
C3021	C302	0.315500	0.430840	0.716230
H1451	H145	0.312800	0.404400	0.725300
C3031	C303	0.354630	0.395730	0.674420
C3041	C304	0.011120	0.302390	0.960250
C3051	C305	0.169590	0.688880	0.893720
C3061	C306	0.176800	0.728540	0.881250
H1461	H146	0.192900	0.731000	0.863900
C3071	C307	0.302010	0.506620	0.716250
H1471	H147	0.290200	0.530500	0.725400
C3081	C308	0.297540	0.466570	0.729080
C3091	C309	0.236900	0.469580	0.796600
C3101	C310	0.257330	0.490150	0.774430
H1481	H148	0.259600	0.519500	0.772400
C3111	C311	0.196100	0.588880	0.861130
C3121	C312	0.216220	0.528660	0.829420
H1491	H149	0.233400	0.547000	0.818500
C3131	C313	0.188700	0.458310	0.838670
H1501	H150	0.188400	0.429400	0.834200
C3141	C314	0.173090	0.611590	0.881030
H1511	H151	0.152600	0.600800	0.893900
C3151	C315	0.192600	0.543920	0.853510
C3161	C316	0.138900	0.445680	0.880100
C3171	C317	0.213900	0.485970	0.821920
C3181	C318	0.166860	0.516080	0.870000
H1521	H152	0.151600	0.526200	0.886300
C3191	C319	0.164100	0.473710	0.862040
C3201	C320	0.098720	0.716310	0.959060
C3211	C321	0.127810	0.720780	0.932520
C3221	C322	0.135320	0.760990	0.920370
H1531	H153	0.124000	0.785200	0.929400
C3231	C323	0.159910	0.764550	0.894630
O1231	O123	0.092610	0.679130	0.968700
O1241	O124	0.082650	0.749580	0.969130
C3241	C324	0.165870	0.807240	0.879950
O1251	O125	0.148680	0.838500	0.892640
O1261	O126	0.186880	0.808290	0.856570
N761	N76	0.114400	0.458510	0.901830
N771	N77	0.097100	0.423960	0.915640
N781	N78	0.219000	0.616260	0.846400
N791	N79	0.239600	0.429700	0.790210
N801	N80	0.211700	0.655540	0.856630
N811	N81	0.263200	0.423830	0.765330
O1271	O127	0.590500	0.700370	0.392130
O1281	O128	0.622920	0.741620	0.358150
C3251	C325	0.601570	0.735830	0.381740
C3261	C326	0.587560	0.774700	0.398480
C3271	C327	0.602520	0.814260	0.390220
H1541	H154	0.621400	0.817000	0.374400
C3281	C328	0.588870	0.850100	0.405940
N821	N82	0.604970	0.891130	0.398840
C3291	C329	0.633440	0.902710	0.377940
H1551	H155	0.646900	0.884700	0.364500
Cu191	Cu19	0.859870	0.805920	0.167620
Cu201	Cu20	0.894940	0.854090	0.126080
O1291	O129	0.847020	0.860490	0.186770
O1301	O130	0.494070	0.836000	0.469660
O1311	O131	0.874250	0.901370	0.150630
O1321	O132	0.849680	0.054630	0.151170
O1331	O133	0.806800	0.083030	0.185510
O1341	O134	0.503340	0.765260	0.469240
O1351	O135	0.924150	0.892470	0.092170
H1561	H156	0.946700	0.881500	0.087000
O1361	O136	0.832660	0.765670	0.201300
H1571	H157	0.809300	0.775000	0.206200
N831	N83	0.685180	0.152550	0.378830
C3301	C330	0.558600	0.770650	0.421670
H1581	H158	0.549000	0.743900	0.427400
C3311	C331	0.842440	0.974460	0.176470
H1591	H159	0.857800	0.977000	0.158800
C3321	C332	0.837680	0.934940	0.189600
C3331	C333	0.824350	0.010570	0.189560
C3341	C334	0.827150	0.052680	0.174360
C3351	C335	0.544140	0.806440	0.436260
N841	N84	0.773790	0.961260	0.255980
C3361	C336	0.559150	0.846890	0.428500
H1601	H160	0.549300	0.871000	0.438300
C3371	C337	0.644980	0.184920	0.419270
H1611	H161	0.640000	0.158200	0.427500
C3381	C338	0.815500	0.930840	0.216230
H1621	H162	0.812800	0.904400	0.225300
C3391	C339	0.854630	0.895730	0.174420
C3401	C340	0.511120	0.802390	0.460250
C3411	C341	0.669590	0.188880	0.393720
C3421	C342	0.676800	0.228540	0.381250
H1631	H163	0.692900	0.231000	0.363900
C3431	C343	0.802010	0.006620	0.216250
H1641	H164	0.790200	0.030500	0.225400
C3441	C344	0.797540	0.966570	0.229080
C3451	C345	0.736900	0.969580	0.296600
C3461	C346	0.757330	0.990150	0.274430
H1651	H165	0.759600	0.019500	0.272400
C3471	C347	0.696100	0.088880	0.361130
C3481	C348	0.716220	0.028660	0.329420
H1661	H166	0.733400	0.047000	0.318500
C3491	C349	0.688700	0.958310	0.338670
H1671	H167	0.688400	0.929400	0.334200
C3501	C350	0.673090	0.111590	0.381030
H1681	H168	0.652600	0.100800	0.393900
C3511	C351	0.692600	0.043920	0.353510
C3521	C352	0.638900	0.945680	0.380100
C3531	C353	0.713900	0.985970	0.321920
C3541	C354	0.666860	0.016080	0.370000
H1691	H169	0.651600	0.026200	0.386300
C3551	C355	0.664100	0.973710	0.362040
C3561	C356	0.598720	0.216310	0.459060
C3571	C357	0.627810	0.220780	0.432520
C3581	C358	0.635320	0.260990	0.420370
H1701	H170	0.624000	0.285200	0.429400
C3591	C359	0.659910	0.264550	0.394630
O1371	O137	0.592610	0.179130	0.468700
O1381	O138	0.582650	0.249580	0.469130
C3601	C360	0.665870	0.307240	0.379950
O1391	O139	0.648680	0.338500	0.392640
O1401	O140	0.686880	0.308290	0.356570
N851	N85	0.614400	0.958510	0.401830
N861	N86	0.597100	0.923960	0.415640
N871	N87	0.719000	0.116260	0.346400
N881	N88	0.739600	0.929700	0.290210
N891	N89	0.711700	0.155540	0.356630
N901	N90	0.763200	0.923830	0.265330
O1411	O141	0.909500	0.799630	0.892130
O1421	O142	0.877080	0.758380	0.858150
C3611	C361	0.898430	0.764170	0.881740
C3621	C362	0.912440	0.725300	0.898480
C3631	C363	0.897480	0.685740	0.890220
H1711	H171	0.878600	0.683000	0.874400
C3641	C364	0.911130	0.649900	0.905940
N911	N91	0.895030	0.608870	0.898840
C3651	C365	0.866560	0.597290	0.877940
H1721	H172	0.853100	0.615300	0.864500
Cu211	Cu21	0.640130	0.694080	0.667620
Cu221	Cu22	0.605060	0.645910	0.626080
O1431	O143	0.652980	0.639510	0.686770
O1441	O144	0.005930	0.664000	0.969660
O1451	O145	0.625750	0.598630	0.650630
O1461	O146	0.650320	0.445370	0.651170
O1471	O147	0.693200	0.416970	0.685510
O1481	O148	0.996660	0.734740	0.969240
O1491	O149	0.575850	0.607530	0.592170
H1731	H173	0.553300	0.618500	0.587000
O1501	O150	0.667340	0.734330	0.701300
H1741	H174	0.690700	0.725000	0.706200
N921	N92	0.814820	0.347450	0.878830
C3661	C366	0.941400	0.729350	0.921670
H1751	H175	0.951000	0.756100	0.927400
C3671	C367	0.657560	0.525540	0.676470
H1761	H176	0.642200	0.523000	0.658800
C3681	C368	0.662320	0.565060	0.689600
C3691	C369	0.675650	0.489430	0.689560
C3701	C370	0.672850	0.447320	0.674360
C3711	C371	0.955860	0.693560	0.936260
N931	N93	0.726210	0.538740	0.755980
C3721	C372	0.940850	0.653110	0.928500
H1771	H177	0.950700	0.629000	0.938300
C3731	C373	0.855020	0.315080	0.919270
H1781	H178	0.860000	0.341800	0.927500
C3741	C374	0.684500	0.569160	0.716230
H1791	H179	0.687200	0.595600	0.725300
C3751	C375	0.645370	0.604270	0.674420
C3761	C376	0.988880	0.697610	0.960250
C3771	C377	0.830410	0.311120	0.893720
C3781	C378	0.823200	0.271460	0.881250
H1801	H180	0.807100	0.269000	0.863900
C3791	C379	0.697990	0.493380	0.716250
H1811	H181	0.709800	0.469500	0.725400
C3801	C380	0.702460	0.533430	0.729080
C3811	C381	0.763100	0.530420	0.796600
C3821	C382	0.742670	0.509850	0.774430
H1821	H182	0.740400	0.480500	0.772400
C3831	C383	0.803900	0.411120	0.861130
C3841	C384	0.783780	0.471340	0.829420
H1831	H183	0.766600	0.453000	0.818500
C3851	C385	0.811300	0.541690	0.838670
H1841	H184	0.811600	0.570600	0.834200
C3861	C386	0.826910	0.388410	0.881030
H1851	H185	0.847400	0.399200	0.893900
C3871	C387	0.807400	0.456080	0.853510
C3881	C388	0.861100	0.554320	0.880100
C3891	C389	0.786100	0.514030	0.821920
C3901	C390	0.833140	0.483920	0.870000
H1861	H186	0.848400	0.473800	0.886300
C3911	C391	0.835900	0.526290	0.862040
C3921	C392	0.901280	0.283690	0.959060
C3931	C393	0.872190	0.279220	0.932520
C3941	C394	0.864680	0.239010	0.920370
H1871	H187	0.876000	0.214800	0.929400
C3951	C395	0.840090	0.235450	0.894630
O1511	O151	0.907390	0.320870	0.968700
O1521	O152	0.917350	0.250420	0.969130
C3961	C396	0.834130	0.192760	0.879950
O1531	O153	0.851320	0.161500	0.892640
O1541	O154	0.813120	0.191710	0.856570
N941	N94	0.885600	0.541490	0.901830
N951	N95	0.902900	0.576040	0.915640
N961	N96	0.781000	0.383740	0.846400
N971	N97	0.760400	0.570300	0.790210
N981	N98	0.788300	0.344460	0.856630
N991	N99	0.736800	0.576170	0.765330
O1551	O155	0.409500	0.299630	0.392130
O1561	O156	0.377080	0.258380	0.358150
C3971	C397	0.398430	0.264170	0.381740
C3981	C398	0.412440	0.225300	0.398480
C3991	C399	0.397480	0.185740	0.390220
H1881	H188	0.378600	0.183000	0.374400
C4001	C400	0.411130	0.149900	0.405940
N1001	N100	0.395030	0.108870	0.398840
C4011	C401	0.366560	0.097290	0.377940
H1891	H189	0.353100	0.115300	0.364500
Cu231	Cu23	0.140130	0.194080	0.167620
Cu241	Cu24	0.105060	0.145910	0.126080
O1571	O157	0.152980	0.139510	0.186770
O1581	O158	0.505930	0.164000	0.469660
O1591	O159	0.125750	0.098630	0.150630
O1601	O160	0.150320	0.945370	0.151170
O1611	O161	0.193200	0.916970	0.185510
O1621	O162	0.496660	0.234740	0.469240
O1631	O163	0.075850	0.107530	0.092170
H1901	H190	0.053300	0.118500	0.087000
O1641	O164	0.167340	0.234330	0.201300
H1911	H191	0.190700	0.225000	0.206200
N1011	N101	0.314820	0.847450	0.378830
C4021	C402	0.441400	0.229350	0.421670
H1921	H192	0.451000	0.256100	0.427400
C4031	C403	0.157560	0.025540	0.176470
H1931	H193	0.142200	0.023000	0.158800
C4041	C404	0.162320	0.065060	0.189600
C4051	C405	0.175650	0.989430	0.189560
C4061	C406	0.172850	0.947320	0.174360
C4071	C407	0.455860	0.193560	0.436260
N1021	N102	0.226210	0.038740	0.255980
C4081	C408	0.440850	0.153110	0.428500
H1941	H194	0.450700	0.129000	0.438300
C4091	C409	0.355020	0.815080	0.419270
H1951	H195	0.360000	0.841800	0.427500
C4101	C410	0.184500	0.069160	0.216230
H1961	H196	0.187200	0.095600	0.225300
C4111	C411	0.145370	0.104270	0.174420
C4121	C412	0.488880	0.197610	0.460250
C4131	C413	0.330410	0.811120	0.393720
C4141	C414	0.323200	0.771460	0.381250
H1971	H197	0.307100	0.769000	0.363900
C4151	C415	0.197990	0.993380	0.216250
H1981	H198	0.209800	0.969500	0.225400
C4161	C416	0.202460	0.033430	0.229080
C4171	C417	0.263100	0.030420	0.296600
C4181	C418	0.242670	0.009850	0.274430
H1991	H199	0.240400	0.980500	0.272400
C4191	C419	0.303900	0.911120	0.361130
C4201	C420	0.283780	0.971340	0.329420
H2001	H200	0.266600	0.953000	0.318500
C4211	C421	0.311300	0.041690	0.338670
H2011	H201	0.311600	0.070600	0.334200
C4221	C422	0.326910	0.888410	0.381030
H2021	H202	0.347400	0.899200	0.393900
C4231	C423	0.307400	0.956080	0.353510
C4241	C424	0.361100	0.054320	0.380100
C4251	C425	0.286100	0.014030	0.321920
C4261	C426	0.333140	0.983920	0.370000
H2031	H203	0.348400	0.973800	0.386300
C4271	C427	0.335900	0.026290	0.362040
C4281	C428	0.401280	0.783690	0.459060
C4291	C429	0.372190	0.779220	0.432520
C4301	C430	0.364680	0.739010	0.420370
H2041	H204	0.376000	0.714800	0.429400
C4311	C431	0.340090	0.735450	0.394630
O1651	O165	0.407390	0.820870	0.468700
O1661	O166	0.417350	0.750420	0.469130
C4321	C432	0.334130	0.692760	0.379950
O1671	O167	0.351320	0.661500	0.392640
O1681	O168	0.313120	0.691710	0.356570
N1031	N103	0.385600	0.041490	0.401830
N1041	N104	0.402900	0.076040	0.415640
N1051	N105	0.281000	0.883740	0.346400
N1061	N106	0.260400	0.070300	0.290210
N1071	N107	0.288300	0.844460	0.356630
N1081	N108	0.236800	0.076170	0.265330
O1691	O169	0.799630	0.090500	0.892130
O1701	O170	0.758380	0.122920	0.858150
C4331	C433	0.764170	0.101570	0.881740
C4341	C434	0.725300	0.087560	0.898480
C4351	C435	0.685740	0.102520	0.890220
H2051	H205	0.683000	0.121400	0.874400
C4361	C436	0.649900	0.088870	0.905940
N1091	N109	0.608870	0.104970	0.898840
C4371	C437	0.597290	0.133440	0.877940
H2061	H206	0.615300	0.146900	0.864500
Cu251	Cu25	0.694080	0.359870	0.667620
Cu261	Cu26	0.645910	0.394940	0.626080
O1711	O171	0.639510	0.347020	0.686770
O1721	O172	0.664000	0.994070	0.969660
O1731	O173	0.598630	0.374250	0.650630
O1741	O174	0.445370	0.349680	0.651170
O1751	O175	0.416970	0.306800	0.685510
O1761	O176	0.734740	0.003340	0.969240
O1771	O177	0.607530	0.424150	0.592170
H2071	H207	0.618500	0.446700	0.587000
O1781	O178	0.734330	0.332660	0.701300
H2081	H208	0.725000	0.309300	0.706200
N1101	N110	0.347450	0.185180	0.878830
C4381	C438	0.729350	0.058600	0.921670
H2091	H209	0.756100	0.049000	0.927400
C4391	C439	0.525540	0.342440	0.676470
H2101	H210	0.523000	0.357800	0.658800
C4401	C440	0.565060	0.337680	0.689600
C4411	C441	0.489430	0.324350	0.689560
C4421	C442	0.447320	0.327150	0.674360
C4431	C443	0.693560	0.044140	0.936260
N1111	N111	0.538740	0.273790	0.755980
C4441	C444	0.653110	0.059150	0.928500
H2111	H211	0.629000	0.049300	0.938300
C4451	C445	0.315080	0.144980	0.919270
H2121	H212	0.341800	0.140000	0.927500
C4461	C446	0.569160	0.315500	0.716230
H2131	H213	0.595600	0.312800	0.725300
C4471	C447	0.604270	0.354630	0.674420
C4481	C448	0.697610	0.011120	0.960250
C4491	C449	0.311120	0.169590	0.893720
C4501	C450	0.271460	0.176800	0.881250
H2141	H214	0.269000	0.192900	0.863900
C4511	C451	0.493380	0.302010	0.716250
H2151	H215	0.469500	0.290200	0.725400
C4521	C452	0.533430	0.297540	0.729080
C4531	C453	0.530420	0.236900	0.796600
C4541	C454	0.509850	0.257330	0.774430
H2161	H216	0.480500	0.259600	0.772400
C4551	C455	0.411120	0.196100	0.861130
C4561	C456	0.471340	0.216220	0.829420
H2171	H217	0.453000	0.233400	0.818500
C4571	C457	0.541690	0.188700	0.838670
H2181	H218	0.570600	0.188400	0.834200
C4581	C458	0.388410	0.173090	0.881030
H2191	H219	0.399200	0.152600	0.893900
C4591	C459	0.456080	0.192600	0.853510
C4601	C460	0.554320	0.138900	0.880100
C4611	C461	0.514030	0.213900	0.821920
C4621	C462	0.483920	0.166860	0.870000
H2201	H220	0.473800	0.151600	0.886300
C4631	C463	0.526290	0.164100	0.862040
C4641	C464	0.283690	0.098720	0.959060
C4651	C465	0.279220	0.127810	0.932520
C4661	C466	0.239010	0.135320	0.920370
H2211	H221	0.214800	0.124000	0.929400
C4671	C467	0.235450	0.159910	0.894630
O1791	O179	0.320870	0.092610	0.968700
O1801	O180	0.250420	0.082650	0.969130
C4681	C468	0.192760	0.165870	0.879950
O1811	O181	0.161500	0.148680	0.892640
O1821	O182	0.191710	0.186880	0.856570
N1121	N112	0.541490	0.114400	0.901830
N1131	N113	0.576040	0.097100	0.915640
N1141	N114	0.383740	0.219000	0.846400
N1151	N115	0.570300	0.239600	0.790210
N1161	N116	0.344460	0.211700	0.856630
N1171	N117	0.576170	0.263200	0.765330
O1831	O183	0.299630	0.590500	0.392130
O1841	O184	0.258380	0.622920	0.358150
C4691	C469	0.264170	0.601570	0.381740
C4701	C470	0.225300	0.587560	0.398480
C4711	C471	0.185740	0.602520	0.390220
H2221	H222	0.183000	0.621400	0.374400
C4721	C472	0.149900	0.588870	0.405940
N1181	N118	0.108870	0.604970	0.398840
C4731	C473	0.097290	0.633440	0.377940
H2231	H223	0.115300	0.646900	0.364500
Cu271	Cu27	0.194080	0.859870	0.167620
Cu281	Cu28	0.145910	0.894940	0.126080
O1851	O185	0.139510	0.847020	0.186770
O1861	O186	0.164000	0.494070	0.469660
O1871	O187	0.098630	0.874250	0.150630
O1881	O188	0.945370	0.849680	0.151170
O1891	O189	0.916970	0.806800	0.185510
O1901	O190	0.234740	0.503340	0.469240
O1911	O191	0.107530	0.924150	0.092170
H2241	H224	0.118500	0.946700	0.087000
O1921	O192	0.234330	0.832660	0.201300
H2251	H225	0.225000	0.809300	0.206200
N1191	N119	0.847450	0.685180	0.378830
C4741	C474	0.229350	0.558600	0.421670
H2261	H226	0.256100	0.549000	0.427400
C4751	C475	0.025540	0.842440	0.176470
H2271	H227	0.023000	0.857800	0.158800
C4761	C476	0.065060	0.837680	0.189600
C4771	C477	0.989430	0.824350	0.189560
C4781	C478	0.947320	0.827150	0.174360
C4791	C479	0.193560	0.544140	0.436260
N1201	N120	0.038740	0.773790	0.255980
C4801	C480	0.153110	0.559150	0.428500
H2281	H228	0.129000	0.549300	0.438300
C4811	C481	0.815080	0.644980	0.419270
H2291	H229	0.841800	0.640000	0.427500
C4821	C482	0.069160	0.815500	0.216230
H2301	H230	0.095600	0.812800	0.225300
C4831	C483	0.104270	0.854630	0.174420
C4841	C484	0.197610	0.511120	0.460250
C4851	C485	0.811120	0.669590	0.393720
C4861	C486	0.771460	0.676800	0.381250
H2311	H231	0.769000	0.692900	0.363900
C4871	C487	0.993380	0.802010	0.216250
H2321	H232	0.969500	0.790200	0.225400
C4881	C488	0.033430	0.797540	0.229080
C4891	C489	0.030420	0.736900	0.296600
C4901	C490	0.009850	0.757330	0.274430
H2331	H233	0.980500	0.759600	0.272400
C4911	C491	0.911120	0.696100	0.361130
C4921	C492	0.971340	0.716220	0.329420
H2341	H234	0.953000	0.733400	0.318500
C4931	C493	0.041690	0.688700	0.338670
H2351	H235	0.070600	0.688400	0.334200
C4941	C494	0.888410	0.673090	0.381030
H2361	H236	0.899200	0.652600	0.393900
C4951	C495	0.956080	0.692600	0.353510
C4961	C496	0.054320	0.638900	0.380100
C4971	C497	0.014030	0.713900	0.321920
C4981	C498	0.983920	0.666860	0.370000
H2371	H237	0.973800	0.651600	0.386300
C4991	C499	0.026290	0.664100	0.362040
C5001	C500	0.783690	0.598720	0.459060
C5011	C501	0.779220	0.627810	0.432520
C5021	C502	0.739010	0.635320	0.420370
H2381	H238	0.714800	0.624000	0.429400
C5031	C503	0.735450	0.659910	0.394630
O1931	O193	0.820870	0.592610	0.468700
O1941	O194	0.750420	0.582650	0.469130
C5041	C504	0.692760	0.665870	0.379950
O1951	O195	0.661500	0.648680	0.392640
O1961	O196	0.691710	0.686880	0.356570
N1211	N121	0.041490	0.614400	0.401830
N1221	N122	0.076040	0.597100	0.415640
N1231	N123	0.883740	0.719000	0.346400
N1241	N124	0.070300	0.739600	0.290210
N1251	N125	0.844460	0.711700	0.356630
N1261	N126	0.076170	0.763200	0.265330
O1971	O197	0.200370	0.909500	0.892130
O1981	O198	0.241620	0.877080	0.858150
C5051	C505	0.235830	0.898430	0.881740
C5061	C506	0.274700	0.912440	0.898480
C5071	C507	0.314260	0.897480	0.890220
H2391	H239	0.317000	0.878600	0.874400
C5081	C508	0.350100	0.911130	0.905940
N1271	N127	0.391130	0.895030	0.898840
C5091	C509	0.402710	0.866560	0.877940
H2401	H240	0.384700	0.853100	0.864500
Cu291	Cu29	0.305920	0.640130	0.667620
Cu301	Cu30	0.354090	0.605060	0.626080
O1991	O199	0.360490	0.652980	0.686770
O2001	O200	0.336000	0.005930	0.969660
O2011	O201	0.401370	0.625750	0.650630
O2021	O202	0.554630	0.650320	0.651170
O2031	O203	0.583030	0.693200	0.685510
O2041	O204	0.265260	0.996660	0.969240
O2051	O205	0.392470	0.575850	0.592170
H2411	H241	0.381500	0.553300	0.587000
O2061	O206	0.265670	0.667340	0.701300
H2421	H242	0.275000	0.690700	0.706200
N1281	N128	0.652550	0.814820	0.878830
C5101	C510	0.270650	0.941400	0.921670
H2431	H243	0.243900	0.951000	0.927400
C5111	C511	0.474460	0.657560	0.676470
H2441	H244	0.477000	0.642200	0.658800
C5121	C512	0.434940	0.662320	0.689600
C5131	C513	0.510570	0.675650	0.689560
C5141	C514	0.552680	0.672850	0.674360
C5151	C515	0.306440	0.955860	0.936260
N1291	N129	0.461260	0.726210	0.755980
C5161	C516	0.346890	0.940850	0.928500
H2451	H245	0.371000	0.950700	0.938300
C5171	C517	0.684920	0.855020	0.919270
H2461	H246	0.658200	0.860000	0.927500
C5181	C518	0.430840	0.684500	0.716230
H2471	H247	0.404400	0.687200	0.725300
C5191	C519	0.395730	0.645370	0.674420
C5201	C520	0.302390	0.988880	0.960250
C5211	C521	0.688880	0.830410	0.893720
C5221	C522	0.728540	0.823200	0.881250
H2481	H248	0.731000	0.807100	0.863900
C5231	C523	0.506620	0.697990	0.716250
H2491	H249	0.530500	0.709800	0.725400
C5241	C524	0.466570	0.702460	0.729080
C5251	C525	0.469580	0.763100	0.796600
C5261	C526	0.490150	0.742670	0.774430
H2501	H250	0.519500	0.740400	0.772400
C5271	C527	0.588880	0.803900	0.861130
C5281	C528	0.528660	0.783780	0.829420
H2511	H251	0.547000	0.766600	0.818500
C5291	C529	0.458310	0.811300	0.838670
H2521	H252	0.429400	0.811600	0.834200
C5301	C530	0.611590	0.826910	0.881030
H2531	H253	0.600800	0.847400	0.893900
C5311	C531	0.543920	0.807400	0.853510
C5321	C532	0.445680	0.861100	0.880100
C5331	C533	0.485970	0.786100	0.821920
C5341	C534	0.516080	0.833140	0.870000
H2541	H254	0.526200	0.848400	0.886300
C5351	C535	0.473710	0.835900	0.862040
C5361	C536	0.716310	0.901280	0.959060
C5371	C537	0.720780	0.872190	0.932520
C5381	C538	0.760990	0.864680	0.920370
H2551	H255	0.785200	0.876000	0.929400
C5391	C539	0.764550	0.840090	0.894630
O2071	O207	0.679130	0.907390	0.968700
O2081	O208	0.749580	0.917350	0.969130
C5401	C540	0.807240	0.834130	0.879950
O2091	O209	0.838500	0.851320	0.892640
O2101	O210	0.808290	0.813120	0.856570
N1301	N130	0.458510	0.885600	0.901830
N1311	N131	0.423960	0.902900	0.915640
N1321	N132	0.616260	0.781000	0.846400
N1331	N133	0.429700	0.760400	0.790210
N1341	N134	0.655540	0.788300	0.856630
N1351	N135	0.423830	0.736800	0.765330
O2111	O211	0.700370	0.409500	0.392130
O2121	O212	0.741620	0.377080	0.358150
C5411	C541	0.735830	0.398430	0.381740
C5421	C542	0.774700	0.412440	0.398480
C5431	C543	0.814260	0.397480	0.390220
H2561	H256	0.817000	0.378600	0.374400
C5441	C544	0.850100	0.411130	0.405940
N1361	N136	0.891130	0.395030	0.398840
C5451	C545	0.902710	0.366560	0.377940
H2571	H257	0.884700	0.353100	0.364500
Cu311	Cu31	0.805920	0.140130	0.167620
Cu321	Cu32	0.854090	0.105060	0.126080
O2131	O213	0.860490	0.152980	0.186770
O2141	O214	0.836000	0.505930	0.469660
O2151	O215	0.901370	0.125750	0.150630
O2161	O216	0.054630	0.150320	0.151170
O2171	O217	0.083030	0.193200	0.185510
O2181	O218	0.765260	0.496660	0.469240
O2191	O219	0.892470	0.075850	0.092170
H2581	H258	0.881500	0.053300	0.087000
O2201	O220	0.765670	0.167340	0.201300
H2591	H259	0.775000	0.190700	0.206200
N1371	N137	0.152550	0.314820	0.378830
C5461	C546	0.770650	0.441400	0.421670
H2601	H260	0.743900	0.451000	0.427400
C5471	C547	0.974460	0.157560	0.176470
H2611	H261	0.977000	0.142200	0.158800
C5481	C548	0.934940	0.162320	0.189600
C5491	C549	0.010570	0.175650	0.189560
C5501	C550	0.052680	0.172850	0.174360
C5511	C551	0.806440	0.455860	0.436260
N1381	N138	0.961260	0.226210	0.255980
C5521	C552	0.846890	0.440850	0.428500
H2621	H262	0.871000	0.450700	0.438300
C5531	C553	0.184920	0.355020	0.419270
H2631	H263	0.158200	0.360000	0.427500
C5541	C554	0.930840	0.184500	0.216230
H2641	H264	0.904400	0.187200	0.225300
C5551	C555	0.895730	0.145370	0.174420
C5561	C556	0.802390	0.488880	0.460250
C5571	C557	0.188880	0.330410	0.393720
C5581	C558	0.228540	0.323200	0.381250
H2651	H265	0.231000	0.307100	0.363900
C5591	C559	0.006620	0.197990	0.216250
H2661	H266	0.030500	0.209800	0.225400
C5601	C560	0.966570	0.202460	0.229080
C5611	C561	0.969580	0.263100	0.296600
C5621	C562	0.990150	0.242670	0.274430
H2671	H267	0.019500	0.240400	0.272400
C5631	C563	0.088880	0.303900	0.361130
C5641	C564	0.028660	0.283780	0.329420
H2681	H268	0.047000	0.266600	0.318500
C5651	C565	0.958310	0.311300	0.338670
H2691	H269	0.929400	0.311600	0.334200
C5661	C566	0.111590	0.326910	0.381030
H2701	H270	0.100800	0.347400	0.393900
C5671	C567	0.043920	0.307400	0.353510
C5681	C568	0.945680	0.361100	0.380100
C5691	C569	0.985970	0.286100	0.321920
C5701	C570	0.016080	0.333140	0.370000
H2711	H271	0.026200	0.348400	0.386300
C5711	C571	0.973710	0.335900	0.362040
C5721	C572	0.216310	0.401280	0.459060
C5731	C573	0.220780	0.372190	0.432520
C5741	C574	0.260990	0.364680	0.420370
H2721	H272	0.285200	0.376000	0.429400
C5751	C575	0.264550	0.340090	0.394630
O2211	O221	0.179130	0.407390	0.468700
O2221	O222	0.249580	0.417350	0.469130
C5761	C576	0.307240	0.334130	0.379950
O2231	O223	0.338500	0.351320	0.392640
O2241	O224	0.308290	0.313120	0.356570
N1391	N139	0.958510	0.385600	0.401830
N1401	N140	0.923960	0.402900	0.415640
N1411	N141	0.116260	0.281000	0.346400
N1421	N142	0.929700	0.260400	0.290210
N1431	N143	0.155540	0.288300	0.356630
N1441	N144	0.923830	0.236800	0.265330
Cu331	Cu33	0.038860	0.748630	0.000000
Cu341	Cu34	0.051120	0.665480	0.000000
Cu351	Cu35	0.538860	0.248630	0.500000
Cu361	Cu36	0.551120	0.165480	0.500000
Cu371	Cu37	0.961140	0.251370	0.000000
Cu381	Cu38	0.948880	0.334520	0.000000
Cu391	Cu39	0.461140	0.751370	0.500000
Cu401	Cu40	0.448880	0.834520	0.500000
Cu411	Cu41	0.251370	0.038860	0.000000
Cu421	Cu42	0.334520	0.051120	0.000000
Cu431	Cu43	0.751370	0.538860	0.500000
Cu441	Cu44	0.834520	0.551120	0.500000
Cu451	Cu45	0.748630	0.961140	0.000000
Cu461	Cu46	0.665480	0.948880	0.000000
Cu471	Cu47	0.248630	0.461140	0.500000
Cu481	Cu48	0.165480	0.448880	0.500000
