data_WUNSEE_charged_PM
_symmetry_space_group_name_H-M	'P1'
_cell_length_a	15.869000
_cell_length_b	15.869000
_cell_length_c	21.649000
_cell_angle_alpha	90.000000
_cell_angle_beta	90.000000
_cell_angle_gamma	90.000000
_symmetry_Int_Tables_number 1

loop_
_symmetry_equiv_pos_as_xyz
'x,y,z'

loop_
_atom_site_label
_atom_site_type_symbol
_atom_site_fract_x
_atom_site_fract_y
_atom_site_fract_z
Cd11	Cd1	0.441580	0.441580	0.000000
Cd21	Cd2	0.558420	0.558420	0.500000
Cd31	Cd3	0.058420	0.941580	0.250000
Cd41	Cd4	0.941580	0.058420	0.750000
H11	H1	0.341300	0.560300	0.908400
H21	H2	0.234200	0.654200	0.893500
H31	H3	0.151100	0.599400	0.063100
H41	H4	0.261500	0.507000	0.073400
H51	H5	0.034800	0.662600	0.037300
H61	H6	0.934900	0.766900	0.029200
H71	H7	0.951500	0.875000	0.957300
H81	H8	0.172800	0.775700	0.905100
H91	H9	0.201700	0.991600	0.710400
H101	H10	0.299300	0.086100	0.666500
H111	H11	0.349700	0.196700	0.720900
H121	H12	0.196200	0.139200	0.861500
H131	H13	0.412000	0.285700	0.783700
H141	H14	0.460700	0.389800	0.849900
H151	H15	0.269600	0.359600	0.958500
H161	H16	0.213800	0.259500	0.896100
H171	H17	0.233500	0.934000	0.923000
H181	H18	0.267500	0.953700	0.862400
H191	H19	0.658700	0.439700	0.408400
H201	H20	0.765800	0.345800	0.393500
H211	H21	0.848900	0.400600	0.563100
H221	H22	0.738500	0.493000	0.573400
H231	H23	0.965200	0.337400	0.537300
H241	H24	0.065100	0.233100	0.529200
H251	H25	0.048500	0.125000	0.457300
H261	H26	0.827200	0.224300	0.405100
H271	H27	0.798300	0.008400	0.210400
H281	H28	0.700700	0.913900	0.166500
H291	H29	0.650300	0.803300	0.220900
H301	H30	0.803800	0.860800	0.361500
H311	H31	0.588000	0.714300	0.283700
H321	H32	0.539300	0.610200	0.349900
H331	H33	0.730400	0.640400	0.458500
H341	H34	0.786200	0.740500	0.396100
H351	H35	0.766500	0.066000	0.423000
H361	H36	0.732500	0.046300	0.362400
H371	H37	0.939700	0.841300	0.158400
H381	H38	0.845800	0.734200	0.143500
H391	H39	0.900600	0.651100	0.313100
H401	H40	0.993000	0.761500	0.323400
H411	H41	0.837400	0.534800	0.287300
H421	H42	0.733100	0.434900	0.279200
H431	H43	0.625000	0.451500	0.207300
H441	H44	0.724300	0.672800	0.155100
H451	H45	0.508400	0.701700	0.960400
H461	H46	0.413900	0.799300	0.916500
H471	H47	0.303300	0.849700	0.970900
H481	H48	0.360800	0.696200	0.111500
H491	H49	0.214300	0.912000	0.033700
H501	H50	0.110200	0.960700	0.099900
H511	H51	0.140400	0.769600	0.208500
H521	H52	0.240500	0.713800	0.146100
H531	H53	0.566000	0.733500	0.173000
H541	H54	0.546300	0.767500	0.112400
H551	H55	0.060300	0.158700	0.658400
H561	H56	0.154200	0.265800	0.643500
H571	H57	0.099400	0.348900	0.813100
H581	H58	0.007000	0.238500	0.823400
H591	H59	0.162600	0.465200	0.787300
H601	H60	0.266900	0.565100	0.779200
H611	H61	0.375000	0.548500	0.707300
H621	H62	0.275700	0.327200	0.655100
H631	H63	0.491600	0.298300	0.460400
H641	H64	0.586100	0.200700	0.416500
H651	H65	0.696700	0.150300	0.470900
H661	H66	0.639200	0.303800	0.611500
H671	H67	0.785700	0.088000	0.533700
H681	H68	0.889800	0.039300	0.599900
H691	H69	0.859600	0.230400	0.708500
H701	H70	0.759500	0.286200	0.646100
H711	H71	0.434000	0.266500	0.673000
H721	H72	0.453700	0.232500	0.612400
H731	H73	0.158700	0.060300	0.341600
H741	H74	0.265800	0.154200	0.356500
H751	H75	0.348900	0.099400	0.186900
H761	H76	0.238500	0.007000	0.176600
H771	H77	0.465200	0.162600	0.212700
H781	H78	0.565100	0.266900	0.220800
H791	H79	0.548500	0.375000	0.292700
H801	H80	0.327200	0.275700	0.344900
H811	H81	0.298300	0.491600	0.539600
H821	H82	0.200700	0.586100	0.583500
H831	H83	0.150300	0.696700	0.529100
H841	H84	0.303800	0.639200	0.388500
H851	H85	0.088000	0.785700	0.466300
H861	H86	0.039300	0.889800	0.400100
H871	H87	0.230400	0.859600	0.291500
H881	H88	0.286200	0.759500	0.353900
H891	H89	0.266500	0.434000	0.327000
H901	H90	0.232500	0.453700	0.387600
H911	H91	0.841300	0.939700	0.841600
H921	H92	0.734200	0.845800	0.856500
H931	H93	0.651100	0.900600	0.686900
H941	H94	0.761500	0.993000	0.676600
H951	H95	0.534800	0.837400	0.712700
H961	H96	0.434900	0.733100	0.720800
H971	H97	0.451500	0.625000	0.792700
H981	H98	0.672800	0.724300	0.844900
H991	H99	0.701700	0.508400	0.039600
H1001	H100	0.799300	0.413900	0.083500
H1011	H101	0.849700	0.303300	0.029100
H1021	H102	0.696200	0.360800	0.888500
H1031	H103	0.912000	0.214300	0.966300
H1041	H104	0.960700	0.110200	0.900100
H1051	H105	0.769600	0.140400	0.791500
H1061	H106	0.713800	0.240500	0.853900
H1071	H107	0.733500	0.566000	0.827000
H1081	H108	0.767500	0.546300	0.887600
H1091	H109	0.560300	0.341300	0.091600
H1101	H110	0.654200	0.234200	0.106500
H1111	H111	0.599400	0.151100	0.936900
H1121	H112	0.507000	0.261500	0.926600
H1131	H113	0.662600	0.034800	0.962700
H1141	H114	0.766900	0.934900	0.970800
H1151	H115	0.875000	0.951500	0.042700
H1161	H116	0.775700	0.172800	0.094900
H1171	H117	0.991600	0.201700	0.289600
H1181	H118	0.086100	0.299300	0.333500
H1191	H119	0.196700	0.349700	0.279100
H1201	H120	0.139200	0.196200	0.138500
H1211	H121	0.285700	0.412000	0.216300
H1221	H122	0.389800	0.460700	0.150100
H1231	H123	0.359600	0.269600	0.041500
H1241	H124	0.259500	0.213800	0.103900
H1251	H125	0.934000	0.233500	0.077000
H1261	H126	0.953700	0.267500	0.137600
H1271	H127	0.439700	0.658700	0.591600
H1281	H128	0.345800	0.765800	0.606500
H1291	H129	0.400600	0.848900	0.436900
H1301	H130	0.493000	0.738500	0.426600
H1311	H131	0.337400	0.965200	0.462700
H1321	H132	0.233100	0.065100	0.470800
H1331	H133	0.125000	0.048500	0.542700
H1341	H134	0.224300	0.827200	0.594900
H1351	H135	0.008400	0.798300	0.789600
H1361	H136	0.913900	0.700700	0.833500
H1371	H137	0.803300	0.650300	0.779100
H1381	H138	0.860800	0.803800	0.638500
H1391	H139	0.714300	0.588000	0.716300
H1401	H140	0.610200	0.539300	0.650100
H1411	H141	0.640400	0.730400	0.541500
H1421	H142	0.740500	0.786200	0.603900
H1431	H143	0.066000	0.766500	0.577000
H1441	H144	0.046300	0.732500	0.637600
C11	C1	0.303200	0.568900	0.940400
C21	C2	0.238900	0.626100	0.931100
C31	C3	0.181000	0.641700	0.978100
C41	C4	0.189900	0.593800	0.031200
C51	C5	0.256600	0.537500	0.037000
C61	C6	0.115300	0.707500	0.971900
C71	C7	0.042500	0.706100	0.009100
C81	C8	0.982500	0.768400	0.004200
C91	C9	0.992900	0.834000	0.961700
C101	C10	0.066200	0.837300	0.926000
C111	C11	0.125300	0.774100	0.930300
C121	C12	0.074700	0.906500	0.882700
C131	C13	0.126100	0.003000	0.820300
C141	C14	0.188900	0.058100	0.790000
C151	C15	0.219600	0.039100	0.731800
C161	C16	0.279500	0.095500	0.706300
C171	C17	0.308600	0.162500	0.738500
C181	C18	0.278600	0.181600	0.797000
C191	C19	0.217700	0.127900	0.822400
C201	C20	0.308900	0.254100	0.834600
C211	C21	0.382700	0.297800	0.819800
C221	C22	0.412000	0.360600	0.860500
C231	C23	0.299900	0.343100	0.923700
C241	C24	0.266100	0.282300	0.886500
C251	C25	0.696800	0.431100	0.440400
C261	C26	0.761100	0.373900	0.431100
C271	C27	0.819000	0.358300	0.478100
C281	C28	0.810100	0.406200	0.531200
C291	C29	0.743400	0.462500	0.537000
C301	C30	0.884700	0.292500	0.471900
C311	C31	0.957500	0.293900	0.509100
C321	C32	0.017500	0.231600	0.504200
C331	C33	0.007100	0.166000	0.461700
C341	C34	0.933800	0.162700	0.426000
C351	C35	0.874700	0.225900	0.430300
C361	C36	0.925300	0.093500	0.382700
C371	C37	0.873900	0.997000	0.320300
C381	C38	0.811100	0.941900	0.290000
C391	C39	0.780400	0.960900	0.231800
C401	C40	0.720500	0.904500	0.206300
C411	C41	0.691400	0.837500	0.238500
C421	C42	0.721400	0.818400	0.297000
C431	C43	0.782300	0.872100	0.322400
C441	C44	0.691100	0.745900	0.334600
C451	C45	0.617300	0.702200	0.319800
C461	C46	0.588000	0.639400	0.360500
C471	C47	0.700100	0.656900	0.423700
C481	C48	0.733900	0.717700	0.386500
C491	C49	0.931100	0.803200	0.190400
C501	C50	0.873900	0.738900	0.181100
C511	C51	0.858300	0.681000	0.228100
C521	C52	0.906200	0.689900	0.281200
C531	C53	0.962500	0.756600	0.287000
C541	C54	0.792500	0.615300	0.221900
C551	C55	0.793900	0.542500	0.259100
C561	C56	0.731600	0.482500	0.254200
C571	C57	0.666000	0.492900	0.211700
C581	C58	0.662700	0.566200	0.176000
C591	C59	0.725900	0.625300	0.180300
C601	C60	0.593500	0.574700	0.132700
C611	C61	0.497000	0.626100	0.070300
C621	C62	0.441900	0.688900	0.040000
C631	C63	0.460900	0.719600	0.981800
C641	C64	0.404500	0.779500	0.956300
C651	C65	0.337500	0.808600	0.988500
C661	C66	0.318400	0.778600	0.047000
C671	C67	0.372100	0.717700	0.072400
C681	C68	0.245900	0.808900	0.084600
C691	C69	0.202200	0.882700	0.069800
C701	C70	0.139400	0.912000	0.110500
C711	C71	0.156900	0.799900	0.173700
C721	C72	0.217700	0.766100	0.136500
C731	C73	0.068900	0.196800	0.690400
C741	C74	0.126100	0.261100	0.681100
C751	C75	0.141700	0.319000	0.728100
C761	C76	0.093800	0.310100	0.781200
C771	C77	0.037500	0.243400	0.787000
C781	C78	0.207500	0.384700	0.721900
C791	C79	0.206100	0.457500	0.759100
C801	C80	0.268400	0.517500	0.754200
C811	C81	0.334000	0.507100	0.711700
C821	C82	0.337300	0.433800	0.676000
C831	C83	0.274100	0.374700	0.680300
C841	C84	0.406500	0.425300	0.632700
C851	C85	0.503000	0.373900	0.570300
C861	C86	0.558100	0.311100	0.540000
C871	C87	0.539100	0.280400	0.481800
C881	C88	0.595500	0.220500	0.456300
C891	C89	0.662500	0.191400	0.488500
C901	C90	0.681600	0.221400	0.547000
C911	C91	0.627900	0.282300	0.572400
C921	C92	0.754100	0.191100	0.584600
C931	C93	0.797800	0.117300	0.569800
C941	C94	0.860600	0.088000	0.610500
C951	C95	0.843100	0.200100	0.673700
C961	C96	0.782300	0.233900	0.636500
C971	C97	0.196800	0.068900	0.309600
C981	C98	0.261100	0.126100	0.318900
C991	C99	0.319000	0.141700	0.271900
C1001	C100	0.310100	0.093800	0.218800
C1011	C101	0.243400	0.037500	0.213000
C1021	C102	0.384700	0.207500	0.278100
C1031	C103	0.457500	0.206100	0.240900
C1041	C104	0.517500	0.268400	0.245800
C1051	C105	0.507100	0.334000	0.288300
C1061	C106	0.433800	0.337300	0.324000
C1071	C107	0.374700	0.274100	0.319700
C1081	C108	0.425300	0.406500	0.367300
C1091	C109	0.373900	0.503000	0.429700
C1101	C110	0.311100	0.558100	0.460000
C1111	C111	0.280400	0.539100	0.518200
C1121	C112	0.220500	0.595500	0.543700
C1131	C113	0.191400	0.662500	0.511500
C1141	C114	0.221400	0.681600	0.453000
C1151	C115	0.282300	0.627900	0.427600
C1161	C116	0.191100	0.754100	0.415400
C1171	C117	0.117300	0.797800	0.430200
C1181	C118	0.088000	0.860600	0.389500
C1191	C119	0.200100	0.843100	0.326300
C1201	C120	0.233900	0.782300	0.363500
C1211	C121	0.803200	0.931100	0.809600
C1221	C122	0.738900	0.873900	0.818900
C1231	C123	0.681000	0.858300	0.771900
C1241	C124	0.689900	0.906200	0.718800
C1251	C125	0.756600	0.962500	0.713000
C1261	C126	0.615300	0.792500	0.778100
C1271	C127	0.542500	0.793900	0.740900
C1281	C128	0.482500	0.731600	0.745800
C1291	C129	0.492900	0.666000	0.788300
C1301	C130	0.566200	0.662700	0.824000
C1311	C131	0.625300	0.725900	0.819700
C1321	C132	0.574700	0.593500	0.867300
C1331	C133	0.626100	0.497000	0.929700
C1341	C134	0.688900	0.441900	0.960000
C1351	C135	0.719600	0.460900	0.018200
C1361	C136	0.779500	0.404500	0.043700
C1371	C137	0.808600	0.337500	0.011500
C1381	C138	0.778600	0.318400	0.953000
C1391	C139	0.717700	0.372100	0.927600
C1401	C140	0.808900	0.245900	0.915400
C1411	C141	0.882700	0.202200	0.930200
C1421	C142	0.912000	0.139400	0.889500
C1431	C143	0.799900	0.156900	0.826300
C1441	C144	0.766100	0.217700	0.863500
C1451	C145	0.568900	0.303200	0.059600
C1461	C146	0.626100	0.238900	0.068900
C1471	C147	0.641700	0.181000	0.021900
C1481	C148	0.593800	0.189900	0.968800
C1491	C149	0.537500	0.256600	0.963000
C1501	C150	0.707500	0.115300	0.028100
C1511	C151	0.706100	0.042500	0.990900
C1521	C152	0.768400	0.982500	0.995800
C1531	C153	0.834000	0.992900	0.038300
C1541	C154	0.837300	0.066200	0.074000
C1551	C155	0.774100	0.125300	0.069700
C1561	C156	0.906500	0.074700	0.117300
C1571	C157	0.003000	0.126100	0.179700
C1581	C158	0.058100	0.188900	0.210000
C1591	C159	0.039100	0.219600	0.268200
C1601	C160	0.095500	0.279500	0.293700
C1611	C161	0.162500	0.308600	0.261500
C1621	C162	0.181600	0.278600	0.203000
C1631	C163	0.127900	0.217700	0.177600
C1641	C164	0.254100	0.308900	0.165400
C1651	C165	0.297800	0.382700	0.180200
C1661	C166	0.360600	0.412000	0.139500
C1671	C167	0.343100	0.299900	0.076300
C1681	C168	0.282300	0.266100	0.113500
C1691	C169	0.431100	0.696800	0.559600
C1701	C170	0.373900	0.761100	0.568900
C1711	C171	0.358300	0.819000	0.521900
C1721	C172	0.406200	0.810100	0.468800
C1731	C173	0.462500	0.743400	0.463000
C1741	C174	0.292500	0.884700	0.528100
C1751	C175	0.293900	0.957500	0.490900
C1761	C176	0.231600	0.017500	0.495800
C1771	C177	0.166000	0.007100	0.538300
C1781	C178	0.162700	0.933800	0.574000
C1791	C179	0.225900	0.874700	0.569700
C1801	C180	0.093500	0.925300	0.617300
C1811	C181	0.997000	0.873900	0.679700
C1821	C182	0.941900	0.811100	0.710000
C1831	C183	0.960900	0.780400	0.768200
C1841	C184	0.904500	0.720500	0.793700
C1851	C185	0.837500	0.691400	0.761500
C1861	C186	0.818400	0.721400	0.703000
C1871	C187	0.872100	0.782300	0.677600
C1881	C188	0.745900	0.691100	0.665400
C1891	C189	0.702200	0.617300	0.680200
C1901	C190	0.639400	0.588000	0.639500
C1911	C191	0.656900	0.700100	0.576300
C1921	C192	0.717700	0.733900	0.613500
N11	N1	0.314300	0.525000	0.992400
N21	N2	0.011300	0.944900	0.855400
N31	N3	0.044000	0.005200	0.816500
N41	N4	0.147900	0.942100	0.861700
N51	N5	0.230100	0.922600	0.882900
N61	N6	0.374300	0.380300	0.912900
N71	N7	0.685700	0.475000	0.492400
N81	N8	0.988700	0.055100	0.355400
N91	N9	0.956000	0.994800	0.316500
N101	N10	0.852100	0.057900	0.361700
N111	N11	0.769900	0.077400	0.382900
N121	N12	0.625700	0.619700	0.412900
N131	N13	0.975000	0.814300	0.242400
N141	N14	0.555100	0.511300	0.105400
N151	N15	0.494800	0.544000	0.066500
N161	N16	0.557900	0.647900	0.111700
N171	N17	0.577400	0.730100	0.132900
N181	N18	0.119700	0.874300	0.162900
N191	N19	0.025000	0.185700	0.742400
N201	N20	0.444900	0.488700	0.605400
N211	N21	0.505200	0.456000	0.566500
N221	N22	0.442100	0.352100	0.611700
N231	N23	0.422600	0.269900	0.632900
N241	N24	0.880300	0.125700	0.662900
N251	N25	0.185700	0.025000	0.257600
N261	N26	0.488700	0.444900	0.394600
N271	N27	0.456000	0.505200	0.433500
N281	N28	0.352100	0.442100	0.388300
N291	N29	0.269900	0.422600	0.367100
N301	N30	0.125700	0.880300	0.337100
N311	N31	0.814300	0.975000	0.757600
N321	N32	0.511300	0.555100	0.894600
N331	N33	0.544000	0.494800	0.933500
N341	N34	0.647900	0.557900	0.888300
N351	N35	0.730100	0.577400	0.867100
N361	N36	0.874300	0.119700	0.837100
N371	N37	0.525000	0.314300	0.007600
N381	N38	0.944900	0.011300	0.144600
N391	N39	0.005200	0.044000	0.183500
N401	N40	0.942100	0.147900	0.138300
N411	N41	0.922600	0.230100	0.117100
N421	N42	0.380300	0.374300	0.087100
N431	N43	0.475000	0.685700	0.507600
N441	N44	0.055100	0.988700	0.644600
N451	N45	0.994800	0.956000	0.683500
N461	N46	0.057900	0.852100	0.638300
N471	N47	0.077400	0.769900	0.617100
N481	N48	0.619700	0.625700	0.587100
Cl11	Cl1	0.119910	0.119910	0.000000
O11	O1	0.190000	0.110200	0.031800
O21	O2	0.132300	0.065000	0.956500
O31	O3	0.110200	0.190000	0.968200
O41	O4	0.065000	0.132300	0.043500
Cl21	Cl2	0.880090	0.880090	0.500000
O51	O5	0.810000	0.889800	0.531800
O61	O6	0.867700	0.935000	0.456500
O71	O7	0.889800	0.810000	0.468200
O81	O8	0.935000	0.867700	0.543500
Cl31	Cl3	0.380090	0.619910	0.250000
O91	O9	0.389800	0.690000	0.281800
O101	O10	0.435000	0.632300	0.206500
O111	O11	0.310000	0.610200	0.218200
O121	O12	0.367700	0.565000	0.293500
Cl41	Cl4	0.619910	0.380090	0.750000
O131	O13	0.610200	0.310000	0.781800
O141	O14	0.565000	0.367700	0.706500
O151	O15	0.690000	0.389800	0.718200
O161	O16	0.632300	0.435000	0.793500
