data_WUNSII01_charged_PM
_symmetry_space_group_name_H-M	'P1'
_cell_length_a	15.890000
_cell_length_b	15.890000
_cell_length_c	21.706000
_cell_angle_alpha	90.000000
_cell_angle_beta	90.000000
_cell_angle_gamma	90.000000
_symmetry_Int_Tables_number 1

loop_
_symmetry_equiv_pos_as_xyz
'x,y,z'

loop_
_atom_site_label
_atom_site_type_symbol
_atom_site_fract_x
_atom_site_fract_y
_atom_site_fract_z
Cd11	Cd1	0.057770	0.057770	0.000000
Cd21	Cd2	0.942230	0.942230	0.500000
Cd31	Cd3	0.442230	0.557770	0.250000
Cd41	Cd4	0.557770	0.442230	0.750000
H11	H1	0.361800	0.729600	0.208900
H21	H2	0.261100	0.786300	0.144900
H31	H3	0.284400	0.581200	0.036900
H41	H4	0.388400	0.537100	0.101300
H51	H5	0.201900	0.647700	0.971000
H61	H6	0.088600	0.698600	0.915500
H71	H7	0.998100	0.797200	0.958300
H81	H8	0.139300	0.800400	0.113100
H91	H9	0.882200	0.042600	0.208800
H101	H10	0.768800	0.061600	0.276000
H111	H11	0.667300	0.962000	0.287900
H121	H12	0.777800	0.822200	0.154000
H131	H13	0.657200	0.763700	0.141000
H141	H14	0.563400	0.655500	0.156300
H151	H15	0.506500	0.738200	0.319900
H161	H16	0.600900	0.848800	0.308400
H171	H17	0.968100	0.746800	0.154800
H181	H18	0.918500	0.733500	0.097600
H191	H19	0.638200	0.270400	0.708900
H201	H20	0.738900	0.213700	0.644900
H211	H21	0.715600	0.418800	0.536900
H221	H22	0.611600	0.462900	0.601300
H231	H23	0.798100	0.352300	0.471000
H241	H24	0.911400	0.301400	0.415500
H251	H25	0.001900	0.202800	0.458300
H261	H26	0.860700	0.199600	0.613100
H271	H27	0.117800	0.957400	0.708800
H281	H28	0.231200	0.938400	0.776000
H291	H29	0.332700	0.038000	0.787900
H301	H30	0.222200	0.177800	0.654000
H311	H31	0.342800	0.236300	0.641000
H321	H32	0.436600	0.344500	0.656300
H331	H33	0.493500	0.261800	0.819900
H341	H34	0.399100	0.151200	0.808400
H351	H35	0.031900	0.253200	0.654800
H361	H36	0.081500	0.266500	0.597600
H371	H37	0.770400	0.861800	0.458900
H381	H38	0.713700	0.761100	0.394900
H391	H39	0.918800	0.784400	0.286900
H401	H40	0.962900	0.888400	0.351300
H411	H41	0.852300	0.701900	0.221000
H421	H42	0.801400	0.588600	0.165500
H431	H43	0.702800	0.498100	0.208300
H441	H44	0.699600	0.639300	0.363100
H451	H45	0.457400	0.382200	0.458800
H461	H46	0.438400	0.268800	0.526000
H471	H47	0.538000	0.167300	0.537900
H481	H48	0.677800	0.277800	0.404000
H491	H49	0.736300	0.157200	0.391000
H501	H50	0.844500	0.063400	0.406300
H511	H51	0.761800	0.006500	0.569900
H521	H52	0.651200	0.100900	0.558400
H531	H53	0.753200	0.468100	0.404800
H541	H54	0.766500	0.418500	0.347600
H551	H55	0.229600	0.138200	0.958900
H561	H56	0.286300	0.238900	0.894900
H571	H57	0.081200	0.215600	0.786900
H581	H58	0.037100	0.111600	0.851300
H591	H59	0.147700	0.298100	0.721000
H601	H60	0.198600	0.411400	0.665500
H611	H61	0.297200	0.501900	0.708300
H621	H62	0.300400	0.360700	0.863100
H631	H63	0.542600	0.617800	0.958800
H641	H64	0.561600	0.731200	0.026000
H651	H65	0.462000	0.832700	0.037900
H661	H66	0.322200	0.722200	0.904000
H671	H67	0.263700	0.842800	0.891000
H681	H68	0.155500	0.936600	0.906300
H691	H69	0.238200	0.993500	0.069900
H701	H70	0.348800	0.899100	0.058400
H711	H71	0.246800	0.531900	0.904800
H721	H72	0.233500	0.581500	0.847600
H731	H73	0.138200	0.229600	0.041100
H741	H74	0.238900	0.286300	0.105100
H751	H75	0.215600	0.081200	0.213100
H761	H76	0.111600	0.037100	0.148700
H771	H77	0.298100	0.147700	0.279000
H781	H78	0.411400	0.198600	0.334500
H791	H79	0.501900	0.297200	0.291700
H801	H80	0.360700	0.300400	0.136900
H811	H81	0.617800	0.542600	0.041200
H821	H82	0.731200	0.561600	0.974000
H831	H83	0.832700	0.462000	0.962100
H841	H84	0.722200	0.322200	0.096000
H851	H85	0.842800	0.263700	0.109000
H861	H86	0.936600	0.155500	0.093700
H871	H87	0.993500	0.238200	0.930100
H881	H88	0.899100	0.348800	0.941600
H891	H89	0.531900	0.246800	0.095200
H901	H90	0.581500	0.233500	0.152400
H911	H91	0.861800	0.770400	0.541100
H921	H92	0.761100	0.713700	0.605100
H931	H93	0.784400	0.918800	0.713100
H941	H94	0.888400	0.962900	0.648700
H951	H95	0.701900	0.852300	0.779000
H961	H96	0.588600	0.801400	0.834500
H971	H97	0.498100	0.702800	0.791700
H981	H98	0.639300	0.699600	0.636900
H991	H99	0.382200	0.457400	0.541200
H1001	H100	0.268800	0.438400	0.474000
H1011	H101	0.167300	0.538000	0.462100
H1021	H102	0.277800	0.677800	0.596000
H1031	H103	0.157200	0.736300	0.609000
H1041	H104	0.063400	0.844500	0.593700
H1051	H105	0.006500	0.761800	0.430100
H1061	H106	0.100900	0.651200	0.441600
H1071	H107	0.468100	0.753200	0.595200
H1081	H108	0.418500	0.766500	0.652400
H1091	H109	0.729600	0.361800	0.791100
H1101	H110	0.786300	0.261100	0.855100
H1111	H111	0.581200	0.284400	0.963100
H1121	H112	0.537100	0.388400	0.898700
H1131	H113	0.647700	0.201900	0.029000
H1141	H114	0.698600	0.088600	0.084500
H1151	H115	0.797200	0.998100	0.041700
H1161	H116	0.800400	0.139300	0.886900
H1171	H117	0.042600	0.882200	0.791200
H1181	H118	0.061600	0.768800	0.724000
H1191	H119	0.962000	0.667300	0.712100
H1201	H120	0.822200	0.777800	0.846000
H1211	H121	0.763700	0.657200	0.859000
H1221	H122	0.655500	0.563400	0.843700
H1231	H123	0.738200	0.506500	0.680100
H1241	H124	0.848800	0.600900	0.691600
H1251	H125	0.746800	0.968100	0.845200
H1261	H126	0.733500	0.918500	0.902400
H1271	H127	0.270400	0.638200	0.291100
H1281	H128	0.213700	0.738900	0.355100
H1291	H129	0.418800	0.715600	0.463100
H1301	H130	0.462900	0.611600	0.398700
H1311	H131	0.352300	0.798100	0.529000
H1321	H132	0.301400	0.911400	0.584500
H1331	H133	0.202800	0.001900	0.541700
H1341	H134	0.199600	0.860700	0.386900
H1351	H135	0.957400	0.117800	0.291200
H1361	H136	0.938400	0.231200	0.224000
H1371	H137	0.038000	0.332700	0.212100
H1381	H138	0.177800	0.222200	0.346000
H1391	H139	0.236300	0.342800	0.359000
H1401	H140	0.344500	0.436600	0.343700
H1411	H141	0.261800	0.493500	0.180100
H1421	H142	0.151200	0.399100	0.191600
H1431	H143	0.253200	0.031900	0.345200
H1441	H144	0.266500	0.081500	0.402400
C11	C1	0.343800	0.698400	0.174000
C21	C2	0.283000	0.732100	0.135900
C31	C3	0.253600	0.689700	0.085900
C41	C4	0.297600	0.613000	0.072700
C51	C5	0.358200	0.586500	0.112100
C61	C6	0.183000	0.718200	0.048200
C71	C7	0.166200	0.688900	0.988900
C81	C8	0.098700	0.718900	0.956000
C91	C9	0.045400	0.778200	0.981300
C101	C10	0.059900	0.810700	0.040100
C111	C11	0.128700	0.779500	0.072800
C121	C12	0.005600	0.871300	0.069800
C131	C13	0.907500	0.922900	0.132200
C141	C14	0.839900	0.931000	0.175100
C151	C15	0.838700	0.001800	0.211300
C161	C16	0.771500	0.011900	0.251700
C171	C17	0.710100	0.953900	0.258000
C181	C18	0.708600	0.880200	0.219900
C191	C19	0.775400	0.870800	0.179500
C201	C20	0.644400	0.815300	0.225400
C211	C21	0.628700	0.759000	0.179300
C221	C22	0.571200	0.695200	0.188600
C231	C23	0.538000	0.742100	0.282800
C241	C24	0.595700	0.808300	0.276500
C251	C25	0.656200	0.301600	0.674000
C261	C26	0.717000	0.267900	0.635900
C271	C27	0.746400	0.310300	0.585900
C281	C28	0.702400	0.387000	0.572700
C291	C29	0.641800	0.413500	0.612100
C301	C30	0.817000	0.281800	0.548200
C311	C31	0.833800	0.311100	0.488900
C321	C32	0.901300	0.281100	0.456000
C331	C33	0.954600	0.221800	0.481300
C341	C34	0.940100	0.189300	0.540100
C351	C35	0.871300	0.220500	0.572800
C361	C36	0.994400	0.128700	0.569800
C371	C37	0.092500	0.077100	0.632200
C381	C38	0.160100	0.069000	0.675100
C391	C39	0.161300	0.998200	0.711300
C401	C40	0.228500	0.988100	0.751700
C411	C41	0.289900	0.046100	0.758000
C421	C42	0.291400	0.119800	0.719900
C431	C43	0.224600	0.129200	0.679500
C441	C44	0.355600	0.184700	0.725400
C451	C45	0.371300	0.241000	0.679300
C461	C46	0.428800	0.304800	0.688600
C471	C47	0.462000	0.257900	0.782800
C481	C48	0.404300	0.191700	0.776500
C491	C49	0.801600	0.843800	0.424000
C501	C50	0.767900	0.783000	0.385900
C511	C51	0.810300	0.753600	0.335900
C521	C52	0.887000	0.797600	0.322700
C531	C53	0.913500	0.858200	0.362100
C541	C54	0.781800	0.683000	0.298200
C551	C55	0.811100	0.666200	0.238900
C561	C56	0.781100	0.598700	0.206000
C571	C57	0.721800	0.545400	0.231300
C581	C58	0.689300	0.559900	0.290100
C591	C59	0.720500	0.628700	0.322800
C601	C60	0.628700	0.505600	0.319800
C611	C61	0.577100	0.407500	0.382200
C621	C62	0.569000	0.339900	0.425100
C631	C63	0.498200	0.338700	0.461300
C641	C64	0.488100	0.271500	0.501700
C651	C65	0.546100	0.210100	0.508000
C661	C66	0.619800	0.208600	0.469900
C671	C67	0.629200	0.275400	0.429500
C681	C68	0.684700	0.144400	0.475400
C691	C69	0.741000	0.128700	0.429300
C701	C70	0.804800	0.071200	0.438600
C711	C71	0.757900	0.038000	0.532800
C721	C72	0.691700	0.095700	0.526500
C731	C73	0.198400	0.156200	0.924000
C741	C74	0.232100	0.217000	0.885900
C751	C75	0.189700	0.246400	0.835900
C761	C76	0.113000	0.202400	0.822700
C771	C77	0.086500	0.141800	0.862100
C781	C78	0.218200	0.317000	0.798200
C791	C79	0.188900	0.333800	0.738900
C801	C80	0.218900	0.401300	0.706000
C811	C81	0.278200	0.454600	0.731300
C821	C82	0.310700	0.440100	0.790100
C831	C83	0.279500	0.371300	0.822800
C841	C84	0.371300	0.494400	0.819800
C851	C85	0.422900	0.592500	0.882200
C861	C86	0.431000	0.660100	0.925100
C871	C87	0.501800	0.661300	0.961300
C881	C88	0.511900	0.728500	0.001700
C891	C89	0.453900	0.789900	0.008000
C901	C90	0.380200	0.791400	0.969900
C911	C91	0.370800	0.724600	0.929500
C921	C92	0.315300	0.855600	0.975400
C931	C93	0.259000	0.871300	0.929300
C941	C94	0.195200	0.928800	0.938600
C951	C95	0.242100	0.962000	0.032800
C961	C96	0.308300	0.904300	0.026500
C971	C97	0.156200	0.198400	0.076000
C981	C98	0.217000	0.232100	0.114100
C991	C99	0.246400	0.189700	0.164100
C1001	C100	0.202400	0.113000	0.177300
C1011	C101	0.141800	0.086500	0.137900
C1021	C102	0.317000	0.218200	0.201800
C1031	C103	0.333800	0.188900	0.261100
C1041	C104	0.401300	0.218900	0.294000
C1051	C105	0.454600	0.278200	0.268700
C1061	C106	0.440100	0.310700	0.209900
C1071	C107	0.371300	0.279500	0.177200
C1081	C108	0.494400	0.371300	0.180200
C1091	C109	0.592500	0.422900	0.117800
C1101	C110	0.660100	0.431000	0.074900
C1111	C111	0.661300	0.501800	0.038700
C1121	C112	0.728500	0.511900	0.998300
C1131	C113	0.789900	0.453900	0.992000
C1141	C114	0.791400	0.380200	0.030100
C1151	C115	0.724600	0.370800	0.070500
C1161	C116	0.855600	0.315300	0.024600
C1171	C117	0.871300	0.259000	0.070700
C1181	C118	0.928800	0.195200	0.061400
C1191	C119	0.962000	0.242100	0.967200
C1201	C120	0.904300	0.308300	0.973500
C1211	C121	0.843800	0.801600	0.576000
C1221	C122	0.783000	0.767900	0.614100
C1231	C123	0.753600	0.810300	0.664100
C1241	C124	0.797600	0.887000	0.677300
C1251	C125	0.858200	0.913500	0.637900
C1261	C126	0.683000	0.781800	0.701800
C1271	C127	0.666200	0.811100	0.761100
C1281	C128	0.598700	0.781100	0.794000
C1291	C129	0.545400	0.721800	0.768700
C1301	C130	0.559900	0.689300	0.709900
C1311	C131	0.628700	0.720500	0.677200
C1321	C132	0.505600	0.628700	0.680200
C1331	C133	0.407500	0.577100	0.617800
C1341	C134	0.339900	0.569000	0.574900
C1351	C135	0.338700	0.498200	0.538700
C1361	C136	0.271500	0.488100	0.498300
C1371	C137	0.210100	0.546100	0.492000
C1381	C138	0.208600	0.619800	0.530100
C1391	C139	0.275400	0.629200	0.570500
C1401	C140	0.144400	0.684700	0.524600
C1411	C141	0.128700	0.741000	0.570700
C1421	C142	0.071200	0.804800	0.561400
C1431	C143	0.038000	0.757900	0.467200
C1441	C144	0.095700	0.691700	0.473500
C1451	C145	0.698400	0.343800	0.826000
C1461	C146	0.732100	0.283000	0.864100
C1471	C147	0.689700	0.253600	0.914100
C1481	C148	0.613000	0.297600	0.927300
C1491	C149	0.586500	0.358200	0.887900
C1501	C150	0.718200	0.183000	0.951800
C1511	C151	0.688900	0.166200	0.011100
C1521	C152	0.718900	0.098700	0.044000
C1531	C153	0.778200	0.045400	0.018700
C1541	C154	0.810700	0.059900	0.959900
C1551	C155	0.779500	0.128700	0.927200
C1561	C156	0.871300	0.005600	0.930200
C1571	C157	0.922900	0.907500	0.867800
C1581	C158	0.931000	0.839900	0.824900
C1591	C159	0.001800	0.838700	0.788700
C1601	C160	0.011900	0.771500	0.748300
C1611	C161	0.953900	0.710100	0.742000
C1621	C162	0.880200	0.708600	0.780100
C1631	C163	0.870800	0.775400	0.820500
C1641	C164	0.815300	0.644400	0.774600
C1651	C165	0.759000	0.628700	0.820700
C1661	C166	0.695200	0.571200	0.811400
C1671	C167	0.742100	0.538000	0.717200
C1681	C168	0.808300	0.595700	0.723500
C1691	C169	0.301600	0.656200	0.326000
C1701	C170	0.267900	0.717000	0.364100
C1711	C171	0.310300	0.746400	0.414100
C1721	C172	0.387000	0.702400	0.427300
C1731	C173	0.413500	0.641800	0.387900
C1741	C174	0.281800	0.817000	0.451800
C1751	C175	0.311100	0.833800	0.511100
C1761	C176	0.281100	0.901300	0.544000
C1771	C177	0.221800	0.954600	0.518700
C1781	C178	0.189300	0.940100	0.459900
C1791	C179	0.220500	0.871300	0.427200
C1801	C180	0.128700	0.994400	0.430200
C1811	C181	0.077100	0.092500	0.367800
C1821	C182	0.069000	0.160100	0.324900
C1831	C183	0.998200	0.161300	0.288700
C1841	C184	0.988100	0.228500	0.248300
C1851	C185	0.046100	0.289900	0.242000
C1861	C186	0.119800	0.291400	0.280100
C1871	C187	0.129200	0.224600	0.320500
C1881	C188	0.184700	0.355600	0.274600
C1891	C189	0.241000	0.371300	0.320700
C1901	C190	0.304800	0.428800	0.311400
C1911	C191	0.257900	0.462000	0.217200
C1921	C192	0.191700	0.404300	0.223500
N11	N1	0.006400	0.952900	0.065100
N21	N2	0.944300	0.986100	0.103900
N31	N3	0.945000	0.849700	0.110900
N41	N4	0.925500	0.767200	0.131100
N51	N5	0.378100	0.623100	0.163100
N61	N6	0.525700	0.685500	0.239900
N71	N7	0.993600	0.047100	0.565100
N81	N8	0.055700	0.013900	0.603900
N91	N9	0.055000	0.150300	0.610900
N101	N10	0.074500	0.232800	0.631100
N111	N11	0.621900	0.376900	0.663100
N121	N12	0.474300	0.314500	0.739900
N131	N13	0.547100	0.506400	0.315100
N141	N14	0.513900	0.444300	0.353900
N151	N15	0.650300	0.445000	0.360900
N161	N16	0.732800	0.425500	0.381100
N171	N17	0.876900	0.878100	0.413100
N181	N18	0.814500	0.025700	0.489900
N191	N19	0.452900	0.493600	0.815100
N201	N20	0.486100	0.555700	0.853900
N211	N21	0.349700	0.555000	0.860900
N221	N22	0.267200	0.574500	0.881100
N231	N23	0.123100	0.121900	0.913100
N241	N24	0.185500	0.974300	0.989900
N251	N25	0.493600	0.452900	0.184900
N261	N26	0.555700	0.486100	0.146100
N271	N27	0.555000	0.349700	0.139100
N281	N28	0.574500	0.267200	0.118900
N291	N29	0.121900	0.123100	0.086900
N301	N30	0.974300	0.185500	0.010100
N311	N31	0.506400	0.547100	0.684900
N321	N32	0.444300	0.513900	0.646100
N331	N33	0.445000	0.650300	0.639100
N341	N34	0.425500	0.732800	0.618900
N351	N35	0.878100	0.876900	0.586900
N361	N36	0.025700	0.814500	0.510100
N371	N37	0.952900	0.006400	0.934900
N381	N38	0.986100	0.944300	0.896100
N391	N39	0.849700	0.945000	0.889100
N401	N40	0.767200	0.925500	0.868900
N411	N41	0.623100	0.378100	0.836900
N421	N42	0.685500	0.525700	0.760100
N431	N43	0.047100	0.993600	0.434900
N441	N44	0.013900	0.055700	0.396100
N451	N45	0.150300	0.055000	0.389100
N461	N46	0.232800	0.074500	0.368900
N471	N47	0.376900	0.621900	0.336900
N481	N48	0.314500	0.474300	0.260100
Cl11	Cl1	0.378600	0.378600	0.000000
O11	O1	0.328300	0.401100	0.047100
O21	O2	0.340600	0.443400	0.967200
O31	O3	0.401100	0.328300	0.952900
O41	O4	0.443400	0.340600	0.032800
Cl21	Cl2	0.621400	0.621400	0.500000
O51	O5	0.671700	0.598900	0.547100
O61	O6	0.659400	0.556600	0.467200
O71	O7	0.598900	0.671700	0.452900
O81	O8	0.556600	0.659400	0.532800
Cl31	Cl3	0.121400	0.878600	0.250000
O91	O9	0.098900	0.828300	0.297100
O101	O10	0.056600	0.840600	0.217200
O111	O11	0.171700	0.901100	0.202900
O121	O12	0.159400	0.943400	0.282800
Cl41	Cl4	0.878600	0.121400	0.750000
O131	O13	0.901100	0.171700	0.797100
O141	O14	0.943400	0.159400	0.717200
O151	O15	0.828300	0.098900	0.702900
O161	O16	0.840600	0.056600	0.782800
