data_WUNTOP_clean_PM
_symmetry_space_group_name_H-M	'P1'
_cell_length_a	15.905000
_cell_length_b	15.905000
_cell_length_c	21.548000
_cell_angle_alpha	90.000000
_cell_angle_beta	90.000000
_cell_angle_gamma	90.000000
_symmetry_Int_Tables_number 1

loop_
_symmetry_equiv_pos_as_xyz
'x,y,z'

loop_
_atom_site_label
_atom_site_type_symbol
_atom_site_fract_x
_atom_site_fract_y
_atom_site_fract_z
C11	C1	0.037000	0.756400	0.536000
H11	H1	0.005000	0.760700	0.573100
C21	C2	0.094300	0.690000	0.530900
H21	H2	0.100700	0.650800	0.563800
C31	C3	0.142200	0.681900	0.476600
C41	C4	0.126500	0.740600	0.430500
H31	H3	0.155300	0.736500	0.391900
C51	C5	0.069300	0.804800	0.439800
H41	H4	0.061200	0.844800	0.407600
C61	C6	0.207800	0.616800	0.470800
C71	C7	0.206600	0.543900	0.506700
H51	H5	0.161600	0.535100	0.534900
C81	C8	0.269300	0.484400	0.502000
H61	H6	0.267200	0.435300	0.527100
C91	C9	0.334500	0.495600	0.461600
H71	H7	0.377100	0.454000	0.458200
C101	C10	0.338500	0.567900	0.425400
C111	C11	0.275000	0.626800	0.430400
H81	H8	0.277400	0.675900	0.405300
C121	C12	0.408300	0.576600	0.381700
C131	C13	0.126300	0.995100	0.569800
C141	C14	0.188400	0.939800	0.539800
C151	C15	0.218700	0.956400	0.479500
H91	H9	0.200000	0.004300	0.457100
C161	C16	0.276700	0.900800	0.453600
H101	H10	0.295900	0.909800	0.412400
C171	C17	0.306700	0.832400	0.487000
H111	H11	0.347200	0.796000	0.468800
C181	C18	0.278100	0.816700	0.546800
C191	C19	0.218000	0.871100	0.572300
H121	H12	0.197200	0.860400	0.612900
C201	C20	0.308000	0.744200	0.583500
C211	C21	0.265300	0.716800	0.636500
H131	H13	0.211900	0.740000	0.646500
C221	C22	0.300400	0.656600	0.674000
H141	H14	0.270300	0.639900	0.710000
C231	C23	0.412800	0.640500	0.610200
H151	H15	0.463300	0.612000	0.599700
C241	C24	0.383100	0.701300	0.569800
H161	H16	0.413300	0.713900	0.532900
N11	N1	0.024600	0.813300	0.492400
N21	N2	0.446000	0.512200	0.355300
N31	N3	0.044600	0.993100	0.566400
N41	N4	0.443600	0.649000	0.360300
N51	N5	0.425000	0.731100	0.381000
H171	H17	0.473500	0.758600	0.390300
H181	H18	0.397400	0.759200	0.350200
N61	N6	0.880000	0.874600	0.412700
C251	C25	0.963000	0.243600	0.036000
H191	H19	0.995000	0.239300	0.073100
C261	C26	0.905700	0.310000	0.030900
H201	H20	0.899300	0.349200	0.063800
C271	C27	0.857800	0.318100	0.976600
C281	C28	0.873500	0.259400	0.930500
H211	H21	0.844700	0.263500	0.891900
C291	C29	0.930700	0.195200	0.939800
H221	H22	0.938800	0.155200	0.907600
C301	C30	0.792200	0.383200	0.970800
C311	C31	0.793400	0.456100	0.006700
H231	H23	0.838400	0.464900	0.034900
C321	C32	0.730700	0.515600	0.002000
H241	H24	0.732800	0.564700	0.027100
C331	C33	0.665500	0.504400	0.961600
H251	H25	0.622900	0.546000	0.958200
C341	C34	0.661500	0.432100	0.925400
C351	C35	0.725000	0.373200	0.930400
H261	H26	0.722600	0.324100	0.905300
C361	C36	0.591700	0.423400	0.881700
C371	C37	0.873700	0.004900	0.069800
C381	C38	0.811600	0.060200	0.039800
C391	C39	0.781300	0.043600	0.979500
H271	H27	0.800000	0.995700	0.957100
C401	C40	0.723300	0.099200	0.953600
H281	H28	0.704100	0.090200	0.912400
C411	C41	0.693300	0.167600	0.987000
H291	H29	0.652800	0.204000	0.968800
C421	C42	0.721900	0.183300	0.046800
C431	C43	0.782000	0.128900	0.072300
H301	H30	0.802800	0.139600	0.112900
C441	C44	0.692000	0.255800	0.083500
C451	C45	0.734700	0.283200	0.136500
H311	H31	0.788100	0.260000	0.146500
C461	C46	0.699600	0.343400	0.174000
H321	H32	0.729700	0.360100	0.210000
C471	C47	0.587200	0.359500	0.110200
H331	H33	0.536700	0.388000	0.099700
C481	C48	0.616900	0.298700	0.069800
H341	H34	0.586700	0.286100	0.032900
N71	N7	0.975400	0.186700	0.992400
N81	N8	0.554000	0.487800	0.855300
N91	N9	0.955400	0.006900	0.066400
N101	N10	0.556400	0.351000	0.860300
N111	N11	0.575000	0.268900	0.881000
H351	H35	0.526500	0.241400	0.890300
H361	H36	0.602600	0.240800	0.850200
N121	N12	0.120000	0.125400	0.912700
C491	C49	0.743600	0.537000	0.286000
H371	H37	0.739300	0.505000	0.323100
C501	C50	0.810000	0.594300	0.280900
H381	H38	0.849200	0.600700	0.313800
C511	C51	0.818100	0.642200	0.226600
C521	C52	0.759400	0.626500	0.180500
H391	H39	0.763500	0.655300	0.141900
C531	C53	0.695200	0.569300	0.189800
H401	H40	0.655200	0.561200	0.157600
C541	C54	0.883200	0.707800	0.220800
C551	C55	0.956100	0.706600	0.256700
H411	H41	0.964900	0.661600	0.284900
C561	C56	0.015600	0.769300	0.252000
H421	H42	0.064700	0.767200	0.277100
C571	C57	0.004400	0.834500	0.211600
H431	H43	0.046000	0.877100	0.208200
C581	C58	0.932100	0.838500	0.175400
C591	C59	0.873200	0.775000	0.180400
H441	H44	0.824100	0.777400	0.155300
C601	C60	0.923400	0.908300	0.131700
C611	C61	0.504900	0.626300	0.319800
C621	C62	0.560200	0.688400	0.289800
C631	C63	0.543600	0.718700	0.229500
H451	H45	0.495700	0.700000	0.207100
C641	C64	0.599200	0.776700	0.203600
H461	H46	0.590200	0.795900	0.162400
C651	C65	0.667600	0.806700	0.237000
H471	H47	0.704000	0.847200	0.218800
C661	C66	0.683300	0.778100	0.296800
C671	C67	0.628900	0.718000	0.322300
H481	H48	0.639600	0.697200	0.362900
C681	C68	0.755800	0.808000	0.333500
C691	C69	0.783200	0.765300	0.386500
H491	H49	0.760000	0.711900	0.396500
C701	C70	0.843400	0.800400	0.424000
H501	H50	0.860100	0.770300	0.460000
C711	C71	0.859500	0.912800	0.360200
H511	H51	0.888000	0.963300	0.349700
C721	C72	0.798700	0.883100	0.319800
H521	H52	0.786100	0.913300	0.282900
N131	N13	0.686700	0.524600	0.242400
N141	N14	0.987800	0.946000	0.105300
N151	N15	0.506900	0.544600	0.316400
N161	N16	0.851000	0.943600	0.110300
N171	N17	0.768900	0.925000	0.131000
H531	H53	0.741400	0.973500	0.140300
H541	H54	0.740800	0.897400	0.100200
N181	N18	0.625400	0.380000	0.162700
C731	C73	0.256400	0.463000	0.786000
H551	H55	0.260700	0.495000	0.823100
C741	C74	0.190000	0.405700	0.780900
H561	H56	0.150800	0.399300	0.813800
C751	C75	0.181900	0.357800	0.726600
C761	C76	0.240600	0.373500	0.680500
H571	H57	0.236500	0.344700	0.641900
C771	C77	0.304800	0.430700	0.689800
H581	H58	0.344800	0.438800	0.657600
C781	C78	0.116800	0.292200	0.720800
C791	C79	0.043900	0.293400	0.756700
H591	H59	0.035100	0.338400	0.784900
C801	C80	0.984400	0.230700	0.752000
H601	H60	0.935300	0.232800	0.777100
C811	C81	0.995600	0.165500	0.711600
H611	H61	0.954000	0.122900	0.708200
C821	C82	0.067900	0.161500	0.675400
C831	C83	0.126800	0.225000	0.680400
H621	H62	0.175900	0.222600	0.655300
C841	C84	0.076600	0.091700	0.631700
C851	C85	0.495100	0.373700	0.819800
C861	C86	0.439800	0.311600	0.789800
C871	C87	0.456400	0.281300	0.729500
H631	H63	0.504300	0.300000	0.707100
C881	C88	0.400800	0.223300	0.703600
H641	H64	0.409800	0.204100	0.662400
C891	C89	0.332400	0.193300	0.737000
H651	H65	0.296000	0.152800	0.718800
C901	C90	0.316700	0.221900	0.796800
C911	C91	0.371100	0.282000	0.822300
H661	H66	0.360400	0.302800	0.862900
C921	C92	0.244200	0.192000	0.833500
C931	C93	0.216800	0.234700	0.886500
H671	H67	0.240000	0.288100	0.896500
C941	C94	0.156600	0.199600	0.924000
H681	H68	0.139900	0.229700	0.960000
C951	C95	0.140500	0.087200	0.860200
H691	H69	0.112000	0.036700	0.849700
C961	C96	0.201300	0.116900	0.819800
H701	H70	0.213900	0.086700	0.782900
N191	N19	0.313300	0.475400	0.742400
N201	N20	0.012200	0.054000	0.605300
N211	N21	0.493100	0.455400	0.816400
N221	N22	0.149000	0.056400	0.610300
N231	N23	0.231100	0.075000	0.631000
H711	H71	0.258600	0.026500	0.640300
H721	H72	0.259200	0.102600	0.600200
N241	N24	0.374600	0.620000	0.662700
C971	C97	0.463000	0.256400	0.214000
H731	H73	0.495000	0.260700	0.176900
C981	C98	0.405700	0.190000	0.219100
H741	H74	0.399300	0.150800	0.186200
C991	C99	0.357800	0.181900	0.273400
C1001	C100	0.373500	0.240600	0.319500
H751	H75	0.344700	0.236500	0.358100
C1011	C101	0.430700	0.304800	0.310200
H761	H76	0.438800	0.344800	0.342400
C1021	C102	0.292200	0.116800	0.279200
C1031	C103	0.293400	0.043900	0.243300
H771	H77	0.338400	0.035100	0.215100
C1041	C104	0.230700	0.984400	0.248000
H781	H78	0.232800	0.935300	0.222900
C1051	C105	0.165500	0.995600	0.288400
H791	H79	0.122900	0.954000	0.291800
C1061	C106	0.161500	0.067900	0.324600
C1071	C107	0.225000	0.126800	0.319600
H801	H80	0.222600	0.175900	0.344700
C1081	C108	0.091700	0.076600	0.368300
C1091	C109	0.373700	0.495100	0.180200
C1101	C110	0.311600	0.439800	0.210200
C1111	C111	0.281300	0.456400	0.270500
H811	H81	0.300000	0.504300	0.292900
C1121	C112	0.223300	0.400800	0.296400
H821	H82	0.204100	0.409800	0.337600
C1131	C113	0.193300	0.332400	0.263000
H831	H83	0.152800	0.296000	0.281200
C1141	C114	0.221900	0.316700	0.203200
C1151	C115	0.282000	0.371100	0.177700
H841	H84	0.302800	0.360400	0.137100
C1161	C116	0.192000	0.244200	0.166500
C1171	C117	0.234700	0.216800	0.113500
H851	H85	0.288100	0.240000	0.103500
C1181	C118	0.199600	0.156600	0.076000
H861	H86	0.229700	0.139900	0.040000
C1191	C119	0.087200	0.140500	0.139800
H871	H87	0.036700	0.112000	0.150300
C1201	C120	0.116900	0.201300	0.180200
H881	H88	0.086700	0.213900	0.217100
N251	N25	0.475400	0.313300	0.257600
N261	N26	0.054000	0.012200	0.394700
N271	N27	0.455400	0.493100	0.183600
N281	N28	0.056400	0.149000	0.389700
N291	N29	0.075000	0.231100	0.369000
H891	H89	0.026500	0.258600	0.359700
H901	H90	0.102600	0.259200	0.399800
N301	N30	0.620000	0.374600	0.337300
C1211	C121	0.537000	0.743600	0.714000
H911	H91	0.505000	0.739300	0.676900
C1221	C122	0.594300	0.810000	0.719100
H921	H92	0.600700	0.849200	0.686200
C1231	C123	0.642200	0.818100	0.773400
C1241	C124	0.626500	0.759400	0.819500
H931	H93	0.655300	0.763500	0.858100
C1251	C125	0.569300	0.695200	0.810200
H941	H94	0.561200	0.655200	0.842400
C1261	C126	0.707800	0.883200	0.779200
C1271	C127	0.706600	0.956100	0.743300
H951	H95	0.661600	0.964900	0.715100
C1281	C128	0.769300	0.015600	0.748000
H961	H96	0.767200	0.064700	0.722900
C1291	C129	0.834500	0.004400	0.788400
H971	H97	0.877100	0.046000	0.791800
C1301	C130	0.838500	0.932100	0.824600
C1311	C131	0.775000	0.873200	0.819600
H981	H98	0.777400	0.824100	0.844700
C1321	C132	0.908300	0.923400	0.868300
C1331	C133	0.626300	0.504900	0.680200
C1341	C134	0.688400	0.560200	0.710200
C1351	C135	0.718700	0.543600	0.770500
H991	H99	0.700000	0.495700	0.792900
C1361	C136	0.776700	0.599200	0.796400
H1001	H100	0.795900	0.590200	0.837600
C1371	C137	0.806700	0.667600	0.763000
H1011	H101	0.847200	0.704000	0.781200
C1381	C138	0.778100	0.683300	0.703200
C1391	C139	0.718000	0.628900	0.677700
H1021	H102	0.697200	0.639600	0.637100
C1401	C140	0.808000	0.755800	0.666500
C1411	C141	0.765300	0.783200	0.613500
H1031	H103	0.711900	0.760000	0.603500
C1421	C142	0.800400	0.843400	0.576000
H1041	H104	0.770300	0.860100	0.540000
C1431	C143	0.912800	0.859500	0.639800
H1051	H105	0.963300	0.888000	0.650300
C1441	C144	0.883100	0.798700	0.680200
H1061	H106	0.913300	0.786100	0.717100
N311	N31	0.524600	0.686700	0.757600
N321	N32	0.946000	0.987800	0.894700
N331	N33	0.544600	0.506900	0.683600
N341	N34	0.943600	0.851000	0.889700
N351	N35	0.925000	0.768900	0.869000
H1071	H107	0.973500	0.741400	0.859700
H1081	H108	0.897400	0.740800	0.899800
N361	N36	0.380000	0.625400	0.837300
C1451	C145	0.756400	0.037000	0.464000
H1091	H109	0.760700	0.005000	0.426900
C1461	C146	0.690000	0.094300	0.469100
H1101	H110	0.650800	0.100700	0.436200
C1471	C147	0.681900	0.142200	0.523400
C1481	C148	0.740600	0.126500	0.569500
H1111	H111	0.736500	0.155300	0.608100
C1491	C149	0.804800	0.069300	0.560200
H1121	H112	0.844800	0.061200	0.592400
C1501	C150	0.616800	0.207800	0.529200
C1511	C151	0.543900	0.206600	0.493300
H1131	H113	0.535100	0.161600	0.465100
C1521	C152	0.484400	0.269300	0.498000
H1141	H114	0.435300	0.267200	0.472900
C1531	C153	0.495600	0.334500	0.538400
H1151	H115	0.454000	0.377100	0.541800
C1541	C154	0.567900	0.338500	0.574600
C1551	C155	0.626800	0.275000	0.569600
H1161	H116	0.675900	0.277400	0.594700
C1561	C156	0.576600	0.408300	0.618300
C1571	C157	0.995100	0.126300	0.430200
C1581	C158	0.939800	0.188400	0.460200
C1591	C159	0.956400	0.218700	0.520500
H1171	H117	0.004300	0.200000	0.542900
C1601	C160	0.900800	0.276700	0.546400
H1181	H118	0.909800	0.295900	0.587600
C1611	C161	0.832400	0.306700	0.513000
H1191	H119	0.796000	0.347200	0.531200
C1621	C162	0.816700	0.278100	0.453200
C1631	C163	0.871100	0.218000	0.427700
H1201	H120	0.860400	0.197200	0.387100
C1641	C164	0.744200	0.308000	0.416500
C1651	C165	0.716800	0.265300	0.363500
H1211	H121	0.740000	0.211900	0.353500
C1661	C166	0.656600	0.300400	0.326000
H1221	H122	0.639900	0.270300	0.290000
C1671	C167	0.640500	0.412800	0.389800
H1231	H123	0.612000	0.463300	0.400300
C1681	C168	0.701300	0.383100	0.430200
H1241	H124	0.713900	0.413300	0.467100
N371	N37	0.813300	0.024600	0.507600
N381	N38	0.512200	0.446000	0.644700
N391	N39	0.993100	0.044600	0.433600
N401	N40	0.649000	0.443600	0.639700
N411	N41	0.731100	0.425000	0.619000
H1251	H125	0.758600	0.473500	0.609700
H1261	H126	0.759200	0.397400	0.649800
N421	N42	0.874600	0.880000	0.587300
C1691	C169	0.243600	0.963000	0.964000
H1271	H127	0.239300	0.995000	0.926900
C1701	C170	0.310000	0.905700	0.969100
H1281	H128	0.349200	0.899300	0.936200
C1711	C171	0.318100	0.857800	0.023400
C1721	C172	0.259400	0.873500	0.069500
H1291	H129	0.263500	0.844700	0.108100
C1731	C173	0.195200	0.930700	0.060200
H1301	H130	0.155200	0.938800	0.092400
C1741	C174	0.383200	0.792200	0.029200
C1751	C175	0.456100	0.793400	0.993300
H1311	H131	0.464900	0.838400	0.965100
C1761	C176	0.515600	0.730700	0.998000
H1321	H132	0.564700	0.732800	0.972900
C1771	C177	0.504400	0.665500	0.038400
H1331	H133	0.546000	0.622900	0.041800
C1781	C178	0.432100	0.661500	0.074600
C1791	C179	0.373200	0.725000	0.069600
H1341	H134	0.324100	0.722600	0.094700
C1801	C180	0.423400	0.591700	0.118300
C1811	C181	0.004900	0.873700	0.930200
C1821	C182	0.060200	0.811600	0.960200
C1831	C183	0.043600	0.781300	0.020500
H1351	H135	0.995700	0.800000	0.042900
C1841	C184	0.099200	0.723300	0.046400
H1361	H136	0.090200	0.704100	0.087600
C1851	C185	0.167600	0.693300	0.013000
H1371	H137	0.204000	0.652800	0.031200
C1861	C186	0.183300	0.721900	0.953200
C1871	C187	0.128900	0.782000	0.927700
H1381	H138	0.139600	0.802800	0.887100
C1881	C188	0.255800	0.692000	0.916500
C1891	C189	0.283200	0.734700	0.863500
H1391	H139	0.260000	0.788100	0.853500
C1901	C190	0.343400	0.699600	0.826000
H1401	H140	0.360100	0.729700	0.790000
C1911	C191	0.359500	0.587200	0.889800
H1411	H141	0.388000	0.536700	0.900300
C1921	C192	0.298700	0.616900	0.930200
H1421	H142	0.286100	0.586700	0.967100
N431	N43	0.186700	0.975400	0.007600
N441	N44	0.487800	0.554000	0.144700
N451	N45	0.006900	0.955400	0.933600
N461	N46	0.351000	0.556400	0.139700
N471	N47	0.268900	0.575000	0.119000
H1431	H143	0.241400	0.526500	0.109700
H1441	H144	0.240800	0.602600	0.149800
N481	N48	0.125400	0.120000	0.087300
Cd11	Cd1	0.941130	0.941130	0.500000
Cd21	Cd2	0.058870	0.058870	0.000000
Cd31	Cd3	0.558870	0.441130	0.250000
Cd41	Cd4	0.441130	0.558870	0.750000
