data_WUNVAD_clean_PM
_symmetry_space_group_name_H-M	'P1'
_cell_length_a	15.847500
_cell_length_b	15.847500
_cell_length_c	21.601000
_cell_angle_alpha	90.000000
_cell_angle_beta	90.000000
_cell_angle_gamma	90.000000
_symmetry_Int_Tables_number 1

loop_
_symmetry_equiv_pos_as_xyz
'x,y,z'

loop_
_atom_site_label
_atom_site_type_symbol
_atom_site_fract_x
_atom_site_fract_y
_atom_site_fract_z
C11	C1	0.537300	0.255500	0.036000
H11	H1	0.506000	0.260300	0.073300
C21	C2	0.567000	0.301600	0.939400
H21	H2	0.557400	0.340200	0.906500
C31	C3	0.283400	0.264400	0.885700
H31	H3	0.261000	0.210300	0.895000
C41	C4	0.298300	0.382400	0.820500
H41	H4	0.285900	0.412700	0.783600
C51	C5	0.255100	0.307600	0.833600
C61	C6	0.183300	0.276700	0.796600
C71	C7	0.168000	0.304400	0.736800
H51	H5	0.205300	0.343900	0.718200
C81	C8	0.098900	0.275300	0.703900
H61	H6	0.089100	0.295000	0.663000
C91	C9	0.043400	0.217100	0.730400
H71	H7	0.995300	0.198200	0.708200
C101	C10	0.059300	0.187400	0.789400
C111	C11	0.128400	0.217300	0.822000
H81	H8	0.138600	0.196800	0.862700
C121	C12	0.004500	0.125600	0.819860
C131	C13	0.908100	0.074300	0.882000
C141	C14	0.838500	0.065800	0.925400
C151	C15	0.834200	0.993200	0.962100
H91	H9	0.877000	0.951500	0.958900
C161	C16	0.769900	0.982000	0.001900
H101	H10	0.768200	0.932500	0.026600
C171	C17	0.706400	0.041100	0.007500
H111	H11	0.662100	0.032400	0.036400
C181	C18	0.706900	0.113900	0.970600
C191	C19	0.773600	0.124600	0.929500
H121	H12	0.774800	0.173100	0.903700
C201	C20	0.640800	0.179500	0.977000
C211	C21	0.624400	0.237100	0.929900
H131	H13	0.652600	0.232200	0.891200
C221	C22	0.594200	0.189100	0.030200
H141	H14	0.600800	0.150100	0.063300
C231	C23	0.358400	0.412200	0.860200
H151	H15	0.386800	0.462800	0.849500
C241	C24	0.343200	0.299200	0.923900
H161	H16	0.360000	0.268700	0.959700
N11	N1	0.006600	0.043500	0.816710
N21	N2	0.946000	0.010900	0.855460
N31	N3	0.943600	0.147900	0.860760
N41	N4	0.924100	0.229200	0.881100
H171	H17	0.973000	0.257000	0.889700
H181	H18	0.895700	0.257100	0.850800
N51	N5	0.379200	0.374700	0.912820
N61	N6	0.524400	0.313000	0.991660
C251	C25	0.462700	0.744500	0.536000
H191	H19	0.494000	0.739700	0.573300
C261	C26	0.433000	0.698400	0.439400
H201	H20	0.442600	0.659800	0.406500
C271	C27	0.716600	0.735600	0.385700
H211	H21	0.739000	0.789700	0.395000
C281	C28	0.701700	0.617600	0.320500
H221	H22	0.714100	0.587300	0.283600
C291	C29	0.744900	0.692400	0.333600
C301	C30	0.816700	0.723300	0.296600
C311	C31	0.832000	0.695600	0.236800
H231	H23	0.794700	0.656100	0.218200
C321	C32	0.901100	0.724700	0.203900
H241	H24	0.910900	0.705000	0.163000
C331	C33	0.956600	0.782900	0.230400
H251	H25	0.004700	0.801800	0.208200
C341	C34	0.940700	0.812600	0.289400
C351	C35	0.871600	0.782700	0.322000
H261	H26	0.861400	0.803200	0.362700
C361	C36	0.995500	0.874400	0.319860
C371	C37	0.091900	0.925700	0.382000
C381	C38	0.161500	0.934200	0.425400
C391	C39	0.165800	0.006800	0.462100
H271	H27	0.123000	0.048500	0.458900
C401	C40	0.230100	0.018000	0.501900
H281	H28	0.231800	0.067500	0.526600
C411	C41	0.293600	0.958900	0.507500
H291	H29	0.337900	0.967600	0.536400
C421	C42	0.293100	0.886100	0.470600
C431	C43	0.226400	0.875400	0.429500
H301	H30	0.225200	0.826900	0.403700
C441	C44	0.359200	0.820500	0.477000
C451	C45	0.375600	0.762900	0.429900
H311	H31	0.347400	0.767800	0.391200
C461	C46	0.405800	0.810900	0.530200
H321	H32	0.399200	0.849900	0.563300
C471	C47	0.641600	0.587800	0.360200
H331	H33	0.613200	0.537200	0.349500
C481	C48	0.656800	0.700800	0.423900
H341	H34	0.640000	0.731300	0.459700
N71	N7	0.993400	0.956500	0.316710
N81	N8	0.054000	0.989100	0.355460
N91	N9	0.056400	0.852100	0.360760
N101	N10	0.075900	0.770800	0.381100
H351	H35	0.027000	0.743000	0.389700
H361	H36	0.104300	0.742900	0.350800
N111	N11	0.620800	0.625300	0.412820
N121	N12	0.475600	0.687000	0.491660
C491	C49	0.244500	0.037300	0.786000
H371	H37	0.239700	0.006000	0.823300
C501	C50	0.198400	0.067000	0.689400
H381	H38	0.159800	0.057400	0.656500
C511	C51	0.235600	0.783400	0.635700
H391	H39	0.289700	0.761000	0.645000
C521	C52	0.117600	0.798300	0.570500
H401	H40	0.087300	0.785900	0.533600
C531	C53	0.192400	0.755100	0.583600
C541	C54	0.223300	0.683300	0.546600
C551	C55	0.195600	0.668000	0.486800
H411	H41	0.156100	0.705300	0.468200
C561	C56	0.224700	0.598900	0.453900
H421	H42	0.205000	0.589100	0.413000
C571	C57	0.282900	0.543400	0.480400
H431	H43	0.301800	0.495300	0.458200
C581	C58	0.312600	0.559300	0.539400
C591	C59	0.282700	0.628400	0.572000
H441	H44	0.303200	0.638600	0.612700
C601	C60	0.374400	0.504500	0.569860
C611	C61	0.425700	0.408100	0.632000
C621	C62	0.434200	0.338500	0.675400
C631	C63	0.506800	0.334200	0.712100
H451	H45	0.548500	0.377000	0.708900
C641	C64	0.518000	0.269900	0.751900
H461	H46	0.567500	0.268200	0.776600
C651	C65	0.458900	0.206400	0.757500
H471	H47	0.467600	0.162100	0.786400
C661	C66	0.386100	0.206900	0.720600
C671	C67	0.375400	0.273600	0.679500
H481	H48	0.326900	0.274800	0.653700
C681	C68	0.320500	0.140800	0.727000
C691	C69	0.262900	0.124400	0.679900
H491	H49	0.267800	0.152600	0.641200
C701	C70	0.310900	0.094200	0.780200
H501	H50	0.349900	0.100800	0.813300
C711	C71	0.087800	0.858400	0.610200
H511	H51	0.037200	0.886800	0.599500
C721	C72	0.200800	0.843200	0.673900
H521	H52	0.231300	0.860000	0.709700
N131	N13	0.456500	0.506600	0.566710
N141	N14	0.489100	0.446000	0.605460
N151	N15	0.352100	0.443600	0.610760
N161	N16	0.270800	0.424100	0.631100
H531	H53	0.243000	0.473000	0.639700
H541	H54	0.242900	0.395700	0.600800
N171	N17	0.125300	0.879200	0.662820
N181	N18	0.187000	0.024400	0.741660
C731	C73	0.755500	0.962700	0.286000
H551	H55	0.760300	0.994000	0.323300
C741	C74	0.801600	0.933000	0.189400
H561	H56	0.840200	0.942600	0.156500
C751	C75	0.764400	0.216600	0.135700
H571	H57	0.710300	0.239000	0.145000
C761	C76	0.882400	0.201700	0.070500
H581	H58	0.912700	0.214100	0.033600
C771	C77	0.807600	0.244900	0.083600
C781	C78	0.776700	0.316700	0.046600
C791	C79	0.804400	0.332000	0.986800
H591	H59	0.843900	0.294700	0.968200
C801	C80	0.775300	0.401100	0.953900
H601	H60	0.795000	0.410900	0.913000
C811	C81	0.717100	0.456600	0.980400
H611	H61	0.698200	0.504700	0.958200
C821	C82	0.687400	0.440700	0.039400
C831	C83	0.717300	0.371600	0.072000
H621	H62	0.696800	0.361400	0.112700
C841	C84	0.625600	0.495500	0.069860
C851	C85	0.574300	0.591900	0.132000
C861	C86	0.565800	0.661500	0.175400
C871	C87	0.493200	0.665800	0.212100
H631	H63	0.451500	0.623000	0.208900
C881	C88	0.482000	0.730100	0.251900
H641	H64	0.432500	0.731800	0.276600
C891	C89	0.541100	0.793600	0.257500
H651	H65	0.532400	0.837900	0.286400
C901	C90	0.613900	0.793100	0.220600
C911	C91	0.624600	0.726400	0.179500
H661	H66	0.673100	0.725200	0.153700
C921	C92	0.679500	0.859200	0.227000
C931	C93	0.737100	0.875600	0.179900
H671	H67	0.732200	0.847400	0.141200
C941	C94	0.689100	0.905800	0.280200
H681	H68	0.650100	0.899200	0.313300
C951	C95	0.912200	0.141600	0.110200
H691	H69	0.962800	0.113200	0.099500
C961	C96	0.799200	0.156800	0.173900
H701	H70	0.768700	0.140000	0.209700
N191	N19	0.543500	0.493400	0.066710
N201	N20	0.510900	0.554000	0.105460
N211	N21	0.647900	0.556400	0.110760
N221	N22	0.729200	0.575900	0.131100
H711	H71	0.757000	0.527000	0.139700
H721	H72	0.757100	0.604300	0.100800
N231	N23	0.874700	0.120800	0.162820
N241	N24	0.813000	0.975600	0.241660
C971	C97	0.962700	0.755500	0.714000
H731	H73	0.994000	0.760300	0.676700
C981	C98	0.933000	0.801600	0.810600
H741	H74	0.942600	0.840200	0.843500
C991	C99	0.216600	0.764400	0.864300
H751	H75	0.239000	0.710300	0.855000
C1001	C100	0.201700	0.882400	0.929500
H761	H76	0.214100	0.912700	0.966400
C1011	C101	0.244900	0.807600	0.916400
C1021	C102	0.316700	0.776700	0.953400
C1031	C103	0.332000	0.804400	0.013200
H771	H77	0.294700	0.843900	0.031800
C1041	C104	0.401100	0.775300	0.046100
H781	H78	0.410900	0.795000	0.087000
C1051	C105	0.456600	0.717100	0.019600
H791	H79	0.504700	0.698200	0.041800
C1061	C106	0.440700	0.687400	0.960600
C1071	C107	0.371600	0.717300	0.928000
H801	H80	0.361400	0.696800	0.887300
C1081	C108	0.495500	0.625600	0.930140
C1091	C109	0.591900	0.574300	0.868000
C1101	C110	0.661500	0.565800	0.824600
C1111	C111	0.665800	0.493200	0.787900
H811	H81	0.623000	0.451500	0.791100
C1121	C112	0.730100	0.482000	0.748100
H821	H82	0.731800	0.432500	0.723400
C1131	C113	0.793600	0.541100	0.742500
H831	H83	0.837900	0.532400	0.713600
C1141	C114	0.793100	0.613900	0.779400
C1151	C115	0.726400	0.624600	0.820500
H841	H84	0.725200	0.673100	0.846300
C1161	C116	0.859200	0.679500	0.773000
C1171	C117	0.875600	0.737100	0.820100
H851	H85	0.847400	0.732200	0.858800
C1181	C118	0.905800	0.689100	0.719800
H861	H86	0.899200	0.650100	0.686700
C1191	C119	0.141600	0.912200	0.889800
H871	H87	0.113200	0.962800	0.900500
C1201	C120	0.156800	0.799200	0.826100
H881	H88	0.140000	0.768700	0.790300
N251	N25	0.493400	0.543500	0.933290
N261	N26	0.554000	0.510900	0.894540
N271	N27	0.556400	0.647900	0.889240
N281	N28	0.575900	0.729200	0.868900
H891	H89	0.527000	0.757000	0.860300
H901	H90	0.604300	0.757100	0.899200
N291	N29	0.120800	0.874700	0.837180
N301	N30	0.975600	0.813000	0.758340
C1211	C121	0.037300	0.244500	0.214000
H911	H91	0.006000	0.239700	0.176700
C1221	C122	0.067000	0.198400	0.310600
H921	H92	0.057400	0.159800	0.343500
C1231	C123	0.783400	0.235600	0.364300
H931	H93	0.761000	0.289700	0.355000
C1241	C124	0.798300	0.117600	0.429500
H941	H94	0.785900	0.087300	0.466400
C1251	C125	0.755100	0.192400	0.416400
C1261	C126	0.683300	0.223300	0.453400
C1271	C127	0.668000	0.195600	0.513200
H951	H95	0.705300	0.156100	0.531800
C1281	C128	0.598900	0.224700	0.546100
H961	H96	0.589100	0.205000	0.587000
C1291	C129	0.543400	0.282900	0.519600
H971	H97	0.495300	0.301800	0.541800
C1301	C130	0.559300	0.312600	0.460600
C1311	C131	0.628400	0.282700	0.428000
H981	H98	0.638600	0.303200	0.387300
C1321	C132	0.504500	0.374400	0.430140
C1331	C133	0.408100	0.425700	0.368000
C1341	C134	0.338500	0.434200	0.324600
C1351	C135	0.334200	0.506800	0.287900
H991	H99	0.377000	0.548500	0.291100
C1361	C136	0.269900	0.518000	0.248100
H1001	H100	0.268200	0.567500	0.223400
C1371	C137	0.206400	0.458900	0.242500
H1011	H101	0.162100	0.467600	0.213600
C1381	C138	0.206900	0.386100	0.279400
C1391	C139	0.273600	0.375400	0.320500
H1021	H102	0.274800	0.326900	0.346300
C1401	C140	0.140800	0.320500	0.273000
C1411	C141	0.124400	0.262900	0.320100
H1031	H103	0.152600	0.267800	0.358800
C1421	C142	0.094200	0.310900	0.219800
H1041	H104	0.100800	0.349900	0.186700
C1431	C143	0.858400	0.087800	0.389800
H1051	H105	0.886800	0.037200	0.400500
C1441	C144	0.843200	0.200800	0.326100
H1061	H106	0.860000	0.231300	0.290300
N311	N31	0.506600	0.456500	0.433290
N321	N32	0.446000	0.489100	0.394540
N331	N33	0.443600	0.352100	0.389240
N341	N34	0.424100	0.270800	0.368900
H1071	H107	0.473000	0.243000	0.360300
H1081	H108	0.395700	0.242900	0.399200
N351	N35	0.879200	0.125300	0.337180
N361	N36	0.024400	0.187000	0.258340
C1451	C145	0.255500	0.537300	0.964000
H1091	H109	0.260300	0.506000	0.926700
C1461	C146	0.301600	0.567000	0.060600
H1101	H110	0.340200	0.557400	0.093500
C1471	C147	0.264400	0.283400	0.114300
H1111	H111	0.210300	0.261000	0.105000
C1481	C148	0.382400	0.298300	0.179500
H1121	H112	0.412700	0.285900	0.216400
C1491	C149	0.307600	0.255100	0.166400
C1501	C150	0.276700	0.183300	0.203400
C1511	C151	0.304400	0.168000	0.263200
H1131	H113	0.343900	0.205300	0.281800
C1521	C152	0.275300	0.098900	0.296100
H1141	H114	0.295000	0.089100	0.337000
C1531	C153	0.217100	0.043400	0.269600
H1151	H115	0.198200	0.995300	0.291800
C1541	C154	0.187400	0.059300	0.210600
C1551	C155	0.217300	0.128400	0.178000
H1161	H116	0.196800	0.138600	0.137300
C1561	C156	0.125600	0.004500	0.180140
C1571	C157	0.074300	0.908100	0.118000
C1581	C158	0.065800	0.838500	0.074600
C1591	C159	0.993200	0.834200	0.037900
H1171	H117	0.951500	0.877000	0.041100
C1601	C160	0.982000	0.769900	0.998100
H1181	H118	0.932500	0.768200	0.973400
C1611	C161	0.041100	0.706400	0.992500
H1191	H119	0.032400	0.662100	0.963600
C1621	C162	0.113900	0.706900	0.029400
C1631	C163	0.124600	0.773600	0.070500
H1201	H120	0.173100	0.774800	0.096300
C1641	C164	0.179500	0.640800	0.023000
C1651	C165	0.237100	0.624400	0.070100
H1211	H121	0.232200	0.652600	0.108800
C1661	C166	0.189100	0.594200	0.969800
H1221	H122	0.150100	0.600800	0.936700
C1671	C167	0.412200	0.358400	0.139800
H1231	H123	0.462800	0.386800	0.150500
C1681	C168	0.299200	0.343200	0.076100
H1241	H124	0.268700	0.360000	0.040300
N371	N37	0.043500	0.006600	0.183290
N381	N38	0.010900	0.946000	0.144540
N391	N39	0.147900	0.943600	0.139240
N401	N40	0.229200	0.924100	0.118900
H1251	H125	0.257000	0.973000	0.110300
H1261	H126	0.257100	0.895700	0.149200
N411	N41	0.374700	0.379200	0.087180
N421	N42	0.313000	0.524400	0.008340
C1691	C169	0.744500	0.462700	0.464000
H1271	H127	0.739700	0.494000	0.426700
C1701	C170	0.698400	0.433000	0.560600
H1281	H128	0.659800	0.442600	0.593500
C1711	C171	0.735600	0.716600	0.614300
H1291	H129	0.789700	0.739000	0.605000
C1721	C172	0.617600	0.701700	0.679500
H1301	H130	0.587300	0.714100	0.716400
C1731	C173	0.692400	0.744900	0.666400
C1741	C174	0.723300	0.816700	0.703400
C1751	C175	0.695600	0.832000	0.763200
H1311	H131	0.656100	0.794700	0.781800
C1761	C176	0.724700	0.901100	0.796100
H1321	H132	0.705000	0.910900	0.837000
C1771	C177	0.782900	0.956600	0.769600
H1331	H133	0.801800	0.004700	0.791800
C1781	C178	0.812600	0.940700	0.710600
C1791	C179	0.782700	0.871600	0.678000
H1341	H134	0.803200	0.861400	0.637300
C1801	C180	0.874400	0.995500	0.680140
C1811	C181	0.925700	0.091900	0.618000
C1821	C182	0.934200	0.161500	0.574600
C1831	C183	0.006800	0.165800	0.537900
H1351	H135	0.048500	0.123000	0.541100
C1841	C184	0.018000	0.230100	0.498100
H1361	H136	0.067500	0.231800	0.473400
C1851	C185	0.958900	0.293600	0.492500
H1371	H137	0.967600	0.337900	0.463600
C1861	C186	0.886100	0.293100	0.529400
C1871	C187	0.875400	0.226400	0.570500
H1381	H138	0.826900	0.225200	0.596300
C1881	C188	0.820500	0.359200	0.523000
C1891	C189	0.762900	0.375600	0.570100
H1391	H139	0.767800	0.347400	0.608800
C1901	C190	0.810900	0.405800	0.469800
H1401	H140	0.849900	0.399200	0.436700
C1911	C191	0.587800	0.641600	0.639800
H1411	H141	0.537200	0.613200	0.650500
C1921	C192	0.700800	0.656800	0.576100
H1421	H142	0.731300	0.640000	0.540300
N431	N43	0.956500	0.993400	0.683290
N441	N44	0.989100	0.054000	0.644540
N451	N45	0.852100	0.056400	0.639240
N461	N46	0.770800	0.075900	0.618900
H1431	H143	0.743000	0.027000	0.610300
H1441	H144	0.742900	0.104300	0.649200
N471	N47	0.625300	0.620800	0.587180
N481	N48	0.687000	0.475600	0.508340
Cd11	Cd1	0.059310	0.940690	0.750000
Cd21	Cd2	0.940690	0.059310	0.250000
Cd31	Cd3	0.559310	0.559310	0.500000
Cd41	Cd4	0.440690	0.440690	0.000000
