data_WUNVEH_charged_PM
_symmetry_space_group_name_H-M	'P1'
_cell_length_a	15.847100
_cell_length_b	15.847100
_cell_length_c	21.767000
_cell_angle_alpha	90.000000
_cell_angle_beta	90.000000
_cell_angle_gamma	90.000000
_symmetry_Int_Tables_number 1

loop_
_symmetry_equiv_pos_as_xyz
'x,y,z'

loop_
_atom_site_label
_atom_site_type_symbol
_atom_site_fract_x
_atom_site_fract_y
_atom_site_fract_z
Cd11	Cd1	0.059860	0.940140	0.250000
Cd21	Cd2	0.940140	0.059860	0.750000
Cd31	Cd3	0.559860	0.559860	0.500000
Cd41	Cd4	0.440140	0.440140	0.000000
H11	H1	0.385000	0.463100	0.149000
H21	H2	0.286800	0.411700	0.215500
H31	H3	0.263100	0.210000	0.106300
H41	H4	0.358400	0.268600	0.041800
H51	H5	0.205200	0.343100	0.281700
H61	H6	0.090400	0.293600	0.335600
H71	H7	0.997800	0.198800	0.291300
H81	H8	0.141500	0.194700	0.139800
H91	H9	0.878600	0.954100	0.042000
H101	H10	0.766600	0.931300	0.976400
H111	H11	0.663200	0.033200	0.965800
H121	H12	0.775200	0.172300	0.096100
H131	H13	0.598000	0.147900	0.939700
H141	H14	0.559300	0.339800	0.092300
H151	H15	0.651700	0.232100	0.108000
H161	H16	0.506300	0.257900	0.929100
H171	H17	0.970700	0.255800	0.108300
H181	H18	0.899900	0.258400	0.150700
H191	H19	0.615000	0.536900	0.649000
H201	H20	0.713200	0.588300	0.715500
H211	H21	0.736900	0.790000	0.606300
H221	H22	0.641600	0.731400	0.541800
H231	H23	0.794800	0.656900	0.781700
H241	H24	0.909600	0.706400	0.835600
H251	H25	0.002200	0.801200	0.791300
H261	H26	0.858500	0.805300	0.639800
H271	H27	0.121400	0.045900	0.542000
H281	H28	0.233400	0.068700	0.476400
H291	H29	0.336800	0.966800	0.465800
H301	H30	0.224800	0.827700	0.596100
H311	H31	0.402000	0.852100	0.439700
H321	H32	0.440700	0.660200	0.592300
H331	H33	0.348300	0.767900	0.608000
H341	H34	0.493700	0.742100	0.429100
H351	H35	0.029300	0.744200	0.608300
H361	H36	0.100100	0.741600	0.650700
H371	H37	0.036900	0.885000	0.399000
H381	H38	0.088300	0.786800	0.465500
H391	H39	0.290000	0.763100	0.356300
H401	H40	0.231400	0.858400	0.291800
H411	H41	0.156900	0.705200	0.531700
H421	H42	0.206400	0.590400	0.585600
H431	H43	0.301200	0.497800	0.541300
H441	H44	0.305300	0.641500	0.389800
H451	H45	0.545900	0.378600	0.292000
H461	H46	0.568700	0.266600	0.226400
H471	H47	0.466800	0.163200	0.215800
H481	H48	0.327700	0.275200	0.346100
H491	H49	0.352100	0.098000	0.189700
H501	H50	0.160200	0.059300	0.342300
H511	H51	0.267900	0.151700	0.358000
H521	H52	0.242100	0.006300	0.179100
H531	H53	0.244200	0.470700	0.358300
H541	H54	0.241600	0.399900	0.400700
H551	H55	0.963100	0.115000	0.899000
H561	H56	0.911700	0.213200	0.965500
H571	H57	0.710000	0.236900	0.856300
H581	H58	0.768600	0.141600	0.791800
H591	H59	0.843100	0.294800	0.031700
H601	H60	0.793600	0.409600	0.085600
H611	H61	0.698800	0.502200	0.041300
H621	H62	0.694700	0.358500	0.889800
H631	H63	0.454100	0.621400	0.792000
H641	H64	0.431300	0.733400	0.726400
H651	H65	0.533200	0.836800	0.715800
H661	H66	0.672300	0.724800	0.846100
H671	H67	0.647900	0.902000	0.689700
H681	H68	0.839800	0.940700	0.842300
H691	H69	0.732100	0.848300	0.858000
H701	H70	0.757900	0.993700	0.679100
H711	H71	0.755800	0.529300	0.858300
H721	H72	0.758400	0.600100	0.900700
H731	H73	0.115000	0.963100	0.101000
H741	H74	0.213200	0.911700	0.034500
H751	H75	0.236900	0.710000	0.143700
H761	H76	0.141600	0.768600	0.208200
H771	H77	0.294800	0.843100	0.968300
H781	H78	0.409600	0.793600	0.914400
H791	H79	0.502200	0.698800	0.958700
H801	H80	0.358500	0.694700	0.110200
H811	H81	0.621400	0.454100	0.208000
H821	H82	0.733400	0.431300	0.273600
H831	H83	0.836800	0.533200	0.284200
H841	H84	0.724800	0.672300	0.153900
H851	H85	0.902000	0.647900	0.310300
H861	H86	0.940700	0.839800	0.157700
H871	H87	0.848300	0.732100	0.142000
H881	H88	0.993700	0.757900	0.320900
H891	H89	0.529300	0.755800	0.141700
H901	H90	0.600100	0.758400	0.099300
H911	H91	0.885000	0.036900	0.601000
H921	H92	0.786800	0.088300	0.534500
H931	H93	0.763100	0.290000	0.643700
H941	H94	0.858400	0.231400	0.708200
H951	H95	0.705200	0.156900	0.468300
H961	H96	0.590400	0.206400	0.414400
H971	H97	0.497800	0.301200	0.458700
H981	H98	0.641500	0.305300	0.610200
H991	H99	0.378600	0.545900	0.708000
H1001	H100	0.266600	0.568700	0.773600
H1011	H101	0.163200	0.466800	0.784200
H1021	H102	0.275200	0.327700	0.653900
H1031	H103	0.098000	0.352100	0.810300
H1041	H104	0.059300	0.160200	0.657700
H1051	H105	0.151700	0.267900	0.642000
H1061	H106	0.006300	0.242100	0.820900
H1071	H107	0.470700	0.244200	0.641700
H1081	H108	0.399900	0.241600	0.599300
H1091	H109	0.463100	0.385000	0.851000
H1101	H110	0.411700	0.286800	0.784500
H1111	H111	0.210000	0.263100	0.893700
H1121	H112	0.268600	0.358400	0.958200
H1131	H113	0.343100	0.205200	0.718300
H1141	H114	0.293600	0.090400	0.664400
H1151	H115	0.198800	0.997800	0.708700
H1161	H116	0.194700	0.141500	0.860200
H1171	H117	0.954100	0.878600	0.958000
H1181	H118	0.931300	0.766600	0.023600
H1191	H119	0.033200	0.663200	0.034200
H1201	H120	0.172300	0.775200	0.903900
H1211	H121	0.147900	0.598000	0.060300
H1221	H122	0.339800	0.559300	0.907700
H1231	H123	0.232100	0.651700	0.892000
H1241	H124	0.257900	0.506300	0.070900
H1251	H125	0.255800	0.970700	0.891700
H1261	H126	0.258400	0.899900	0.849300
H1271	H127	0.536900	0.615000	0.351000
H1281	H128	0.588300	0.713200	0.284500
H1291	H129	0.790000	0.736900	0.393700
H1301	H130	0.731400	0.641600	0.458200
H1311	H131	0.656900	0.794800	0.218300
H1321	H132	0.706400	0.909600	0.164400
H1331	H133	0.801200	0.002200	0.208700
H1341	H134	0.805300	0.858500	0.360200
H1351	H135	0.045900	0.121400	0.458000
H1361	H136	0.068700	0.233400	0.523600
H1371	H137	0.966800	0.336800	0.534200
H1381	H138	0.827700	0.224800	0.403900
H1391	H139	0.852100	0.402000	0.560300
H1401	H140	0.660200	0.440700	0.407700
H1411	H141	0.767900	0.348300	0.392000
H1421	H142	0.742100	0.493700	0.570900
H1431	H143	0.744200	0.029300	0.391700
H1441	H144	0.741600	0.100100	0.349300
C11	C1	0.358100	0.412600	0.139400
C21	C2	0.298900	0.382200	0.179700
C31	C3	0.256500	0.306200	0.166530
C41	C4	0.284500	0.263300	0.114900
C51	C5	0.343000	0.298400	0.076800
C61	C6	0.185000	0.275400	0.204010
C71	C7	0.169100	0.304100	0.263640
C81	C8	0.100000	0.274600	0.295800
C91	C9	0.045000	0.217100	0.269680
C101	C10	0.060600	0.187200	0.210900
C111	C11	0.130600	0.215800	0.178900
C121	C12	0.004500	0.125500	0.180700
C131	C13	0.908600	0.074600	0.118800
C141	C14	0.838400	0.066300	0.075100
C151	C15	0.835500	0.993800	0.039200
C161	C16	0.769200	0.980600	0.999500
C171	C17	0.706400	0.040900	0.994100
C181	C18	0.707200	0.112600	0.030500
C191	C19	0.774000	0.124600	0.071300
C201	C20	0.640200	0.178600	0.024100
C211	C21	0.592500	0.187000	0.971300
C221	C22	0.567600	0.301000	0.060900
C231	C23	0.624100	0.236800	0.070400
C241	C24	0.536700	0.253300	0.965500
C251	C25	0.641900	0.587400	0.639400
C261	C26	0.701100	0.617800	0.679700
C271	C27	0.743500	0.693800	0.666530
C281	C28	0.715500	0.736700	0.614900
C291	C29	0.657000	0.701600	0.576800
C301	C30	0.815000	0.724600	0.704010
C311	C31	0.830900	0.695900	0.763640
C321	C32	0.900000	0.725400	0.795800
C331	C33	0.955000	0.782900	0.769680
C341	C34	0.939400	0.812800	0.710900
C351	C35	0.869400	0.784200	0.678900
C361	C36	0.995500	0.874500	0.680700
C371	C37	0.091400	0.925400	0.618800
C381	C38	0.161600	0.933700	0.575100
C391	C39	0.164500	0.006200	0.539200
C401	C40	0.230800	0.019400	0.499500
C411	C41	0.293600	0.959100	0.494100
C421	C42	0.292800	0.887400	0.530500
C431	C43	0.226000	0.875400	0.571300
C441	C44	0.359800	0.821400	0.524100
C451	C45	0.407500	0.813000	0.471300
C461	C46	0.432400	0.699000	0.560900
C471	C47	0.375900	0.763200	0.570400
C481	C48	0.463300	0.746700	0.465500
C491	C49	0.087400	0.858100	0.389400
C501	C50	0.117800	0.798900	0.429700
C511	C51	0.193800	0.756500	0.416530
C521	C52	0.236700	0.784500	0.364900
C531	C53	0.201600	0.843000	0.326800
C541	C54	0.224600	0.685000	0.454010
C551	C55	0.195900	0.669100	0.513640
C561	C56	0.225400	0.600000	0.545800
C571	C57	0.282900	0.545000	0.519680
C581	C58	0.312800	0.560600	0.460900
C591	C59	0.284200	0.630600	0.428900
C601	C60	0.374500	0.504500	0.430700
C611	C61	0.425400	0.408600	0.368800
C621	C62	0.433700	0.338400	0.325100
C631	C63	0.506200	0.335500	0.289200
C641	C64	0.519400	0.269200	0.249500
C651	C65	0.459100	0.206400	0.244100
C661	C66	0.387400	0.207200	0.280500
C671	C67	0.375400	0.274000	0.321300
C681	C68	0.321400	0.140200	0.274100
C691	C69	0.313000	0.092500	0.221300
C701	C70	0.199000	0.067600	0.310900
C711	C71	0.263200	0.124100	0.320400
C721	C72	0.246700	0.036700	0.215500
C731	C73	0.912600	0.141900	0.889400
C741	C74	0.882200	0.201100	0.929700
C751	C75	0.806200	0.243500	0.916530
C761	C76	0.763300	0.215500	0.864900
C771	C77	0.798400	0.157000	0.826800
C781	C78	0.775400	0.315000	0.954010
C791	C79	0.804100	0.330900	0.013640
C801	C80	0.774600	0.400000	0.045800
C811	C81	0.717100	0.455000	0.019680
C821	C82	0.687200	0.439400	0.960900
C831	C83	0.715800	0.369400	0.928900
C841	C84	0.625500	0.495500	0.930700
C851	C85	0.574600	0.591400	0.868800
C861	C86	0.566300	0.661600	0.825100
C871	C87	0.493800	0.664500	0.789200
C881	C88	0.480600	0.730800	0.749500
C891	C89	0.540900	0.793600	0.744100
C901	C90	0.612600	0.792800	0.780500
C911	C91	0.624600	0.726000	0.821300
C921	C92	0.678600	0.859800	0.774100
C931	C93	0.687000	0.907500	0.721300
C941	C94	0.801000	0.932400	0.810900
C951	C95	0.736800	0.875900	0.820400
C961	C96	0.753300	0.963300	0.715500
C971	C97	0.141900	0.912600	0.110600
C981	C98	0.201100	0.882200	0.070300
C991	C99	0.243500	0.806200	0.083470
C1001	C100	0.215500	0.763300	0.135100
C1011	C101	0.157000	0.798400	0.173200
C1021	C102	0.315000	0.775400	0.045990
C1031	C103	0.330900	0.804100	0.986360
C1041	C104	0.400000	0.774600	0.954200
C1051	C105	0.455000	0.717100	0.980320
C1061	C106	0.439400	0.687200	0.039100
C1071	C107	0.369400	0.715800	0.071100
C1081	C108	0.495500	0.625500	0.069300
C1091	C109	0.591400	0.574600	0.131200
C1101	C110	0.661600	0.566300	0.174900
C1111	C111	0.664500	0.493800	0.210800
C1121	C112	0.730800	0.480600	0.250500
C1131	C113	0.793600	0.540900	0.255900
C1141	C114	0.792800	0.612600	0.219500
C1151	C115	0.726000	0.624600	0.178700
C1161	C116	0.859800	0.678600	0.225900
C1171	C117	0.907500	0.687000	0.278700
C1181	C118	0.932400	0.801000	0.189100
C1191	C119	0.875900	0.736800	0.179600
C1201	C120	0.963300	0.753300	0.284500
C1211	C121	0.858100	0.087400	0.610600
C1221	C122	0.798900	0.117800	0.570300
C1231	C123	0.756500	0.193800	0.583470
C1241	C124	0.784500	0.236700	0.635100
C1251	C125	0.843000	0.201600	0.673200
C1261	C126	0.685000	0.224600	0.545990
C1271	C127	0.669100	0.195900	0.486360
C1281	C128	0.600000	0.225400	0.454200
C1291	C129	0.545000	0.282900	0.480320
C1301	C130	0.560600	0.312800	0.539100
C1311	C131	0.630600	0.284200	0.571100
C1321	C132	0.504500	0.374500	0.569300
C1331	C133	0.408600	0.425400	0.631200
C1341	C134	0.338400	0.433700	0.674900
C1351	C135	0.335500	0.506200	0.710800
C1361	C136	0.269200	0.519400	0.750500
C1371	C137	0.206400	0.459100	0.755900
C1381	C138	0.207200	0.387400	0.719500
C1391	C139	0.274000	0.375400	0.678700
C1401	C140	0.140200	0.321400	0.725900
C1411	C141	0.092500	0.313000	0.778700
C1421	C142	0.067600	0.199000	0.689100
C1431	C143	0.124100	0.263200	0.679600
C1441	C144	0.036700	0.246700	0.784500
C1451	C145	0.412600	0.358100	0.860600
C1461	C146	0.382200	0.298900	0.820300
C1471	C147	0.306200	0.256500	0.833470
C1481	C148	0.263300	0.284500	0.885100
C1491	C149	0.298400	0.343000	0.923200
C1501	C150	0.275400	0.185000	0.795990
C1511	C151	0.304100	0.169100	0.736360
C1521	C152	0.274600	0.100000	0.704200
C1531	C153	0.217100	0.045000	0.730320
C1541	C154	0.187200	0.060600	0.789100
C1551	C155	0.215800	0.130600	0.821100
C1561	C156	0.125500	0.004500	0.819300
C1571	C157	0.074600	0.908600	0.881200
C1581	C158	0.066300	0.838400	0.924900
C1591	C159	0.993800	0.835500	0.960800
C1601	C160	0.980600	0.769200	0.000500
C1611	C161	0.040900	0.706400	0.005900
C1621	C162	0.112600	0.707200	0.969500
C1631	C163	0.124600	0.774000	0.928700
C1641	C164	0.178600	0.640200	0.975900
C1651	C165	0.187000	0.592500	0.028700
C1661	C166	0.301000	0.567600	0.939100
C1671	C167	0.236800	0.624100	0.929600
C1681	C168	0.253300	0.536700	0.034500
C1691	C169	0.587400	0.641900	0.360600
C1701	C170	0.617800	0.701100	0.320300
C1711	C171	0.693800	0.743500	0.333470
C1721	C172	0.736700	0.715500	0.385100
C1731	C173	0.701600	0.657000	0.423200
C1741	C174	0.724600	0.815000	0.295990
C1751	C175	0.695900	0.830900	0.236360
C1761	C176	0.725400	0.900000	0.204200
C1771	C177	0.782900	0.955000	0.230320
C1781	C178	0.812800	0.939400	0.289100
C1791	C179	0.784200	0.869400	0.321100
C1801	C180	0.874500	0.995500	0.319300
C1811	C181	0.925400	0.091400	0.381200
C1821	C182	0.933700	0.161600	0.424900
C1831	C183	0.006200	0.164500	0.460800
C1841	C184	0.019400	0.230800	0.500500
C1851	C185	0.959100	0.293600	0.505900
C1861	C186	0.887400	0.292800	0.469500
C1871	C187	0.875400	0.226000	0.428700
C1881	C188	0.821400	0.359800	0.475900
C1891	C189	0.813000	0.407500	0.528700
C1901	C190	0.699000	0.432400	0.439100
C1911	C191	0.763200	0.375900	0.429600
C1921	C192	0.746700	0.463300	0.534500
N11	N1	0.007400	0.043000	0.184070
N21	N2	0.946200	0.010600	0.145200
N31	N3	0.943400	0.147520	0.139890
N41	N4	0.923500	0.229900	0.120000
N51	N5	0.379500	0.373400	0.086700
N61	N6	0.523800	0.311000	0.008890
N71	N7	0.992600	0.957000	0.684070
N81	N8	0.053800	0.989400	0.645200
N91	N9	0.056600	0.852480	0.639890
N101	N10	0.076500	0.770100	0.620000
N111	N11	0.620500	0.626600	0.586700
N121	N12	0.476200	0.689000	0.508890
N131	N13	0.457000	0.507400	0.434070
N141	N14	0.489400	0.446200	0.395200
N151	N15	0.352480	0.443400	0.389890
N161	N16	0.270100	0.423500	0.370000
N171	N17	0.126600	0.879500	0.336700
N181	N18	0.189000	0.023800	0.258890
N191	N19	0.543000	0.492600	0.934070
N201	N20	0.510600	0.553800	0.895200
N211	N21	0.647520	0.556600	0.889890
N221	N22	0.729900	0.576500	0.870000
N231	N23	0.873400	0.120500	0.836700
N241	N24	0.811000	0.976200	0.758890
N251	N25	0.492600	0.543000	0.065930
N261	N26	0.553800	0.510600	0.104800
N271	N27	0.556600	0.647520	0.110110
N281	N28	0.576500	0.729900	0.130000
N291	N29	0.120500	0.873400	0.163300
N301	N30	0.976200	0.811000	0.241110
N311	N31	0.507400	0.457000	0.565930
N321	N32	0.446200	0.489400	0.604800
N331	N33	0.443400	0.352480	0.610110
N341	N34	0.423500	0.270100	0.630000
N351	N35	0.879500	0.126600	0.663300
N361	N36	0.023800	0.189000	0.741110
N371	N37	0.043000	0.007400	0.815930
N381	N38	0.010600	0.946200	0.854800
N391	N39	0.147520	0.943400	0.860110
N401	N40	0.229900	0.923500	0.880000
N411	N41	0.373400	0.379500	0.913300
N421	N42	0.311000	0.523800	0.991110
N431	N43	0.957000	0.992600	0.315930
N441	N44	0.989400	0.053800	0.354800
N451	N45	0.852480	0.056600	0.360110
N461	N46	0.770100	0.076500	0.380000
N471	N47	0.626600	0.620500	0.413300
N481	N48	0.689000	0.476200	0.491110
Cl11	Cl1	0.124050	0.124050	0.000000
O11	O1	0.138400	0.210000	0.994800
O21	O2	0.137000	0.078300	0.949600
O31	O3	0.210000	0.138400	0.005200
O41	O4	0.078300	0.137000	0.050400
Cl21	Cl2	0.875950	0.875950	0.500000
O51	O5	0.861600	0.790000	0.494800
O61	O6	0.863000	0.921700	0.449600
O71	O7	0.790000	0.861600	0.505200
O81	O8	0.921700	0.863000	0.550400
Cl31	Cl3	0.375950	0.624050	0.250000
O91	O9	0.290000	0.638400	0.244800
O101	O10	0.421700	0.637000	0.199600
O111	O11	0.361600	0.710000	0.255200
O121	O12	0.363000	0.578300	0.300400
Cl41	Cl4	0.624050	0.375950	0.750000
O131	O13	0.710000	0.361600	0.744800
O141	O14	0.578300	0.363000	0.699600
O151	O15	0.638400	0.290000	0.755200
O161	O16	0.637000	0.421700	0.800400
