data_WUNVUX_clean_PM
_symmetry_space_group_name_H-M	'P1'
_cell_length_a	15.903000
_cell_length_b	15.903000
_cell_length_c	21.396000
_cell_angle_alpha	90.000000
_cell_angle_beta	90.000000
_cell_angle_gamma	90.000000
_symmetry_Int_Tables_number 1

loop_
_symmetry_equiv_pos_as_xyz
'x,y,z'

loop_
_atom_site_label
_atom_site_type_symbol
_atom_site_fract_x
_atom_site_fract_y
_atom_site_fract_z
C11	C1	0.155300	0.799400	0.827600
H11	H1	0.137100	0.768600	0.793200
C21	C2	0.215800	0.765500	0.865200
H21	H2	0.237000	0.712500	0.856000
C31	C3	0.246300	0.808900	0.917100
C41	C4	0.202500	0.884600	0.930700
H31	H3	0.214900	0.914500	0.966900
C51	C5	0.142200	0.913500	0.890500
H41	H4	0.114600	0.963200	0.900900
C61	C6	0.317500	0.779200	0.954200
C71	C7	0.335600	0.809400	0.014300
H51	H5	0.301100	0.850200	0.032100
C81	C8	0.403500	0.779700	0.047100
H61	H6	0.413500	0.799400	0.087300
C91	C9	0.457700	0.720500	0.020900
H71	H7	0.505100	0.702600	0.042600
C101	C10	0.439800	0.688700	0.962000
C111	C11	0.370400	0.717900	0.929700
H81	H8	0.358900	0.695900	0.890300
C121	C12	0.494700	0.626200	0.931600
C131	C13	0.591800	0.576300	0.868000
C141	C14	0.660800	0.568300	0.823900
C151	C15	0.663300	0.496700	0.787400
H91	H9	0.620600	0.456900	0.790000
C161	C16	0.730500	0.484700	0.746800
H101	H10	0.733200	0.435900	0.722900
C171	C17	0.792700	0.544000	0.741600
H111	H11	0.836000	0.536200	0.712900
C181	C18	0.791500	0.615600	0.778900
C191	C19	0.725200	0.627200	0.819600
H121	H12	0.723500	0.675100	0.844600
C201	C20	0.858600	0.681600	0.773000
C211	C21	0.872900	0.740800	0.819400
H131	H13	0.843600	0.737600	0.856900
C221	C22	0.930700	0.804500	0.810100
H141	H14	0.938100	0.843900	0.841700
C231	C23	0.964300	0.755200	0.714400
H151	H15	0.995400	0.759500	0.677700
C241	C24	0.907800	0.688700	0.719900
H161	H16	0.903100	0.649200	0.688100
N11	N1	0.120600	0.875700	0.838200
N21	N2	0.492600	0.544400	0.934000
N31	N3	0.553300	0.512400	0.894900
N41	N4	0.555900	0.649200	0.890400
N51	N5	0.575700	0.731300	0.869900
H171	H17	0.528300	0.758800	0.861500
H181	H18	0.603600	0.758000	0.900000
N61	N6	0.976300	0.812400	0.758100
C251	C25	0.844700	0.200600	0.327600
H191	H19	0.862900	0.231400	0.293200
C261	C26	0.784200	0.234500	0.365200
H201	H20	0.763000	0.287500	0.356000
C271	C27	0.753700	0.191100	0.417100
C281	C28	0.797500	0.115400	0.430700
H211	H21	0.785100	0.085500	0.466900
C291	C29	0.857800	0.086500	0.390500
H221	H22	0.885400	0.036800	0.400900
C301	C30	0.682500	0.220800	0.454200
C311	C31	0.664400	0.190600	0.514300
H231	H23	0.698900	0.149800	0.532100
C321	C32	0.596500	0.220300	0.547100
H241	H24	0.586500	0.200600	0.587300
C331	C33	0.542300	0.279500	0.520900
H251	H25	0.494900	0.297400	0.542600
C341	C34	0.560200	0.311300	0.462000
C351	C35	0.629600	0.282100	0.429700
H261	H26	0.641100	0.304100	0.390300
C361	C36	0.505300	0.373800	0.431600
C371	C37	0.408200	0.423700	0.368000
C381	C38	0.339200	0.431700	0.323900
C391	C39	0.336700	0.503300	0.287400
H271	H27	0.379400	0.543100	0.290000
C401	C40	0.269500	0.515300	0.246800
H281	H28	0.266800	0.564100	0.222900
C411	C41	0.207300	0.456000	0.241600
H291	H29	0.164000	0.463800	0.212900
C421	C42	0.208500	0.384400	0.278900
C431	C43	0.274800	0.372800	0.319600
H301	H30	0.276500	0.324900	0.344600
C441	C44	0.141400	0.318400	0.273000
C451	C45	0.127100	0.259200	0.319400
H311	H31	0.156400	0.262400	0.356900
C461	C46	0.069300	0.195500	0.310100
H321	H32	0.061900	0.156100	0.341700
C471	C47	0.035700	0.244800	0.214400
H331	H33	0.004600	0.240500	0.177700
C481	C48	0.092200	0.311300	0.219900
H341	H34	0.096900	0.350800	0.188100
N71	N7	0.879400	0.124300	0.338200
N81	N8	0.507400	0.455600	0.434000
N91	N9	0.446700	0.487600	0.394900
N101	N10	0.444100	0.350800	0.390400
N111	N11	0.424300	0.268700	0.369900
H351	H35	0.471700	0.241200	0.361500
H361	H36	0.396400	0.242000	0.400000
N121	N12	0.023700	0.187600	0.258100
C491	C49	0.700600	0.655300	0.577600
H371	H37	0.731400	0.637100	0.543200
C501	C50	0.734500	0.715800	0.615200
H381	H38	0.787500	0.737000	0.606000
C511	C51	0.691100	0.746300	0.667100
C521	C52	0.615400	0.702500	0.680700
H391	H39	0.585500	0.714900	0.716900
C531	C53	0.586500	0.642200	0.640500
H401	H40	0.536800	0.614600	0.650900
C541	C54	0.720800	0.817500	0.704200
C551	C55	0.690600	0.835600	0.764300
H411	H41	0.649800	0.801100	0.782100
C561	C56	0.720300	0.903500	0.797100
H421	H42	0.700600	0.913500	0.837300
C571	C57	0.779500	0.957700	0.770900
H431	H43	0.797400	0.005100	0.792600
C581	C58	0.811300	0.939800	0.712000
C591	C59	0.782100	0.870400	0.679700
H441	H44	0.804100	0.858900	0.640300
C601	C60	0.873800	0.994700	0.681600
C611	C61	0.923700	0.091800	0.618000
C621	C62	0.931700	0.160800	0.573900
C631	C63	0.003300	0.163300	0.537400
H451	H45	0.043100	0.120600	0.540000
C641	C64	0.015300	0.230500	0.496800
H461	H46	0.064100	0.233200	0.472900
C651	C65	0.956000	0.292700	0.491600
H471	H47	0.963800	0.336000	0.462900
C661	C66	0.884400	0.291500	0.528900
C671	C67	0.872800	0.225200	0.569600
H481	H48	0.824900	0.223500	0.594600
C681	C68	0.818400	0.358600	0.523000
C691	C69	0.759200	0.372900	0.569400
H491	H49	0.762400	0.343600	0.606900
C701	C70	0.695500	0.430700	0.560100
H501	H50	0.656100	0.438100	0.591700
C711	C71	0.744800	0.464300	0.464400
H511	H51	0.740500	0.495400	0.427700
C721	C72	0.811300	0.407800	0.469900
H521	H52	0.850800	0.403100	0.438100
N131	N13	0.624300	0.620600	0.588200
N141	N14	0.955600	0.992600	0.684000
N151	N15	0.987600	0.053300	0.644900
N161	N16	0.850800	0.055900	0.640400
N171	N17	0.768700	0.075700	0.619900
H531	H53	0.741200	0.028300	0.611500
H541	H54	0.742000	0.103600	0.650000
N181	N18	0.687600	0.476300	0.508100
C731	C73	0.299400	0.344700	0.077600
H551	H55	0.268600	0.362900	0.043200
C741	C74	0.265500	0.284200	0.115200
H561	H56	0.212500	0.263000	0.106000
C751	C75	0.308900	0.253700	0.167100
C761	C76	0.384600	0.297500	0.180700
H571	H57	0.414500	0.285100	0.216900
C771	C77	0.413500	0.357800	0.140500
H581	H58	0.463200	0.385400	0.150900
C781	C78	0.279200	0.182500	0.204200
C791	C79	0.309400	0.164400	0.264300
H591	H59	0.350200	0.198900	0.282100
C801	C80	0.279700	0.096500	0.297100
H601	H60	0.299400	0.086500	0.337300
C811	C81	0.220500	0.042300	0.270900
H611	H61	0.202600	0.994900	0.292600
C821	C82	0.188700	0.060200	0.212000
C831	C83	0.217900	0.129600	0.179700
H621	H62	0.195900	0.141100	0.140300
C841	C84	0.126200	0.005300	0.181600
C851	C85	0.076300	0.908200	0.118000
C861	C86	0.068300	0.839200	0.073900
C871	C87	0.996700	0.836700	0.037400
H631	H63	0.956900	0.879400	0.040000
C881	C88	0.984700	0.769500	0.996800
H641	H64	0.935900	0.766800	0.972900
C891	C89	0.044000	0.707300	0.991600
H651	H65	0.036200	0.664000	0.962900
C901	C90	0.115600	0.708500	0.028900
C911	C91	0.127200	0.774800	0.069600
H661	H66	0.175100	0.776500	0.094600
C921	C92	0.181600	0.641400	0.023000
C931	C93	0.240800	0.627100	0.069400
H671	H67	0.237600	0.656400	0.106900
C941	C94	0.304500	0.569300	0.060100
H681	H68	0.343900	0.561900	0.091700
C951	C95	0.255200	0.535700	0.964400
H691	H69	0.259500	0.504600	0.927700
C961	C96	0.188700	0.592200	0.969900
H701	H70	0.149200	0.596900	0.938100
N191	N19	0.375700	0.379400	0.088200
N201	N20	0.044400	0.007400	0.184000
N211	N21	0.012400	0.946700	0.144900
N221	N22	0.149200	0.944100	0.140400
N231	N23	0.231300	0.924300	0.119900
H711	H71	0.258800	0.971700	0.111500
H721	H72	0.258000	0.896400	0.150000
N241	N24	0.312400	0.523700	0.008100
C971	C97	0.344700	0.299400	0.922400
H731	H73	0.362900	0.268600	0.956800
C981	C98	0.284200	0.265500	0.884800
H741	H74	0.263000	0.212500	0.894000
C991	C99	0.253700	0.308900	0.832900
C1001	C100	0.297500	0.384600	0.819300
H751	H75	0.285100	0.414500	0.783100
C1011	C101	0.357800	0.413500	0.859500
H761	H76	0.385400	0.463200	0.849100
C1021	C102	0.182500	0.279200	0.795800
C1031	C103	0.164400	0.309400	0.735700
H771	H77	0.198900	0.350200	0.717900
C1041	C104	0.096500	0.279700	0.702900
H781	H78	0.086500	0.299400	0.662700
C1051	C105	0.042300	0.220500	0.729100
H791	H79	0.994900	0.202600	0.707400
C1061	C106	0.060200	0.188700	0.788000
C1071	C107	0.129600	0.217900	0.820300
H801	H80	0.141100	0.195900	0.859700
C1081	C108	0.005300	0.126200	0.818400
C1091	C109	0.908200	0.076300	0.882000
C1101	C110	0.839200	0.068300	0.926100
C1111	C111	0.836700	0.996700	0.962600
H811	H81	0.879400	0.956900	0.960000
C1121	C112	0.769500	0.984700	0.003200
H821	H82	0.766800	0.935900	0.027100
C1131	C113	0.707300	0.044000	0.008400
H831	H83	0.664000	0.036200	0.037100
C1141	C114	0.708500	0.115600	0.971100
C1151	C115	0.774800	0.127200	0.930400
H841	H84	0.776500	0.175100	0.905400
C1161	C116	0.641400	0.181600	0.977000
C1171	C117	0.627100	0.240800	0.930600
H851	H85	0.656400	0.237600	0.893100
C1181	C118	0.569300	0.304500	0.939900
H861	H86	0.561900	0.343900	0.908300
C1191	C119	0.535700	0.255200	0.035600
H871	H87	0.504600	0.259500	0.072300
C1201	C120	0.592200	0.188700	0.030100
H881	H88	0.596900	0.149200	0.061900
N251	N25	0.379400	0.375700	0.911800
N261	N26	0.007400	0.044400	0.816000
N271	N27	0.946700	0.012400	0.855100
N281	N28	0.944100	0.149200	0.859600
N291	N29	0.924300	0.231300	0.880100
H891	H89	0.971700	0.258800	0.888500
H901	H90	0.896400	0.258000	0.850000
N301	N30	0.523700	0.312400	0.991900
C1211	C121	0.655300	0.700600	0.422400
H911	H91	0.637100	0.731400	0.456800
C1221	C122	0.715800	0.734500	0.384800
H921	H92	0.737000	0.787500	0.394000
C1231	C123	0.746300	0.691100	0.332900
C1241	C124	0.702500	0.615400	0.319300
H931	H93	0.714900	0.585500	0.283100
C1251	C125	0.642200	0.586500	0.359500
H941	H94	0.614600	0.536800	0.349100
C1261	C126	0.817500	0.720800	0.295800
C1271	C127	0.835600	0.690600	0.235700
H951	H95	0.801100	0.649800	0.217900
C1281	C128	0.903500	0.720300	0.202900
H961	H96	0.913500	0.700600	0.162700
C1291	C129	0.957700	0.779500	0.229100
H971	H97	0.005100	0.797400	0.207400
C1301	C130	0.939800	0.811300	0.288000
C1311	C131	0.870400	0.782100	0.320300
H981	H98	0.858900	0.804100	0.359700
C1321	C132	0.994700	0.873800	0.318400
C1331	C133	0.091800	0.923700	0.382000
C1341	C134	0.160800	0.931700	0.426100
C1351	C135	0.163300	0.003300	0.462600
H991	H99	0.120600	0.043100	0.460000
C1361	C136	0.230500	0.015300	0.503200
H1001	H100	0.233200	0.064100	0.527100
C1371	C137	0.292700	0.956000	0.508400
H1011	H101	0.336000	0.963800	0.537100
C1381	C138	0.291500	0.884400	0.471100
C1391	C139	0.225200	0.872800	0.430400
H1021	H102	0.223500	0.824900	0.405400
C1401	C140	0.358600	0.818400	0.477000
C1411	C141	0.372900	0.759200	0.430600
H1031	H103	0.343600	0.762400	0.393100
C1421	C142	0.430700	0.695500	0.439900
H1041	H104	0.438100	0.656100	0.408300
C1431	C143	0.464300	0.744800	0.535600
H1051	H105	0.495400	0.740500	0.572300
C1441	C144	0.407800	0.811300	0.530100
H1061	H106	0.403100	0.850800	0.561900
N311	N31	0.620600	0.624300	0.411800
N321	N32	0.992600	0.955600	0.316000
N331	N33	0.053300	0.987600	0.355100
N341	N34	0.055900	0.850800	0.359600
N351	N35	0.075700	0.768700	0.380100
H1071	H107	0.028300	0.741200	0.388500
H1081	H108	0.103600	0.742000	0.350000
N361	N36	0.476300	0.687600	0.491900
C1451	C145	0.799400	0.155300	0.172400
H1091	H109	0.768600	0.137100	0.206800
C1461	C146	0.765500	0.215800	0.134800
H1101	H110	0.712500	0.237000	0.144000
C1471	C147	0.808900	0.246300	0.082900
C1481	C148	0.884600	0.202500	0.069300
H1111	H111	0.914500	0.214900	0.033100
C1491	C149	0.913500	0.142200	0.109500
H1121	H112	0.963200	0.114600	0.099100
C1501	C150	0.779200	0.317500	0.045800
C1511	C151	0.809400	0.335600	0.985700
H1131	H113	0.850200	0.301100	0.967900
C1521	C152	0.779700	0.403500	0.952900
H1141	H114	0.799400	0.413500	0.912700
C1531	C153	0.720500	0.457700	0.979100
H1151	H115	0.702600	0.505100	0.957400
C1541	C154	0.688700	0.439800	0.038000
C1551	C155	0.717900	0.370400	0.070300
H1161	H116	0.695900	0.358900	0.109700
C1561	C156	0.626200	0.494700	0.068400
C1571	C157	0.576300	0.591800	0.132000
C1581	C158	0.568300	0.660800	0.176100
C1591	C159	0.496700	0.663300	0.212600
H1171	H117	0.456900	0.620600	0.210000
C1601	C160	0.484700	0.730500	0.253200
H1181	H118	0.435900	0.733200	0.277100
C1611	C161	0.544000	0.792700	0.258400
H1191	H119	0.536200	0.836000	0.287100
C1621	C162	0.615600	0.791500	0.221100
C1631	C163	0.627200	0.725200	0.180400
H1201	H120	0.675100	0.723500	0.155400
C1641	C164	0.681600	0.858600	0.227000
C1651	C165	0.740800	0.872900	0.180600
H1211	H121	0.737600	0.843600	0.143100
C1661	C166	0.804500	0.930700	0.189900
H1221	H122	0.843900	0.938100	0.158300
C1671	C167	0.755200	0.964300	0.285600
H1231	H123	0.759500	0.995400	0.322300
C1681	C168	0.688700	0.907800	0.280100
H1241	H124	0.649200	0.903100	0.311900
N371	N37	0.875700	0.120600	0.161800
N381	N38	0.544400	0.492600	0.066000
N391	N39	0.512400	0.553300	0.105100
N401	N40	0.649200	0.555900	0.109600
N411	N41	0.731300	0.575700	0.130100
H1251	H125	0.758800	0.528300	0.138500
H1261	H126	0.758000	0.603600	0.100000
N421	N42	0.812400	0.976300	0.241900
C1691	C169	0.200600	0.844700	0.672400
H1271	H127	0.231400	0.862900	0.706800
C1701	C170	0.234500	0.784200	0.634800
H1281	H128	0.287500	0.763000	0.644000
C1711	C171	0.191100	0.753700	0.582900
C1721	C172	0.115400	0.797500	0.569300
H1291	H129	0.085500	0.785100	0.533100
C1731	C173	0.086500	0.857800	0.609500
H1301	H130	0.036800	0.885400	0.599100
C1741	C174	0.220800	0.682500	0.545800
C1751	C175	0.190600	0.664400	0.485700
H1311	H131	0.149800	0.698900	0.467900
C1761	C176	0.220300	0.596500	0.452900
H1321	H132	0.200600	0.586500	0.412700
C1771	C177	0.279500	0.542300	0.479100
H1331	H133	0.297400	0.494900	0.457400
C1781	C178	0.311300	0.560200	0.538000
C1791	C179	0.282100	0.629600	0.570300
H1341	H134	0.304100	0.641100	0.609700
C1801	C180	0.373800	0.505300	0.568400
C1811	C181	0.423700	0.408200	0.632000
C1821	C182	0.431700	0.339200	0.676100
C1831	C183	0.503300	0.336700	0.712600
H1351	H135	0.543100	0.379400	0.710000
C1841	C184	0.515300	0.269500	0.753200
H1361	H136	0.564100	0.266800	0.777100
C1851	C185	0.456000	0.207300	0.758400
H1371	H137	0.463800	0.164000	0.787100
C1861	C186	0.384400	0.208500	0.721100
C1871	C187	0.372800	0.274800	0.680400
H1381	H138	0.324900	0.276500	0.655400
C1881	C188	0.318400	0.141400	0.727000
C1891	C189	0.259200	0.127100	0.680600
H1391	H139	0.262400	0.156400	0.643100
C1901	C190	0.195500	0.069300	0.689900
H1401	H140	0.156100	0.061900	0.658300
C1911	C191	0.244800	0.035700	0.785600
H1411	H141	0.240500	0.004600	0.822300
C1921	C192	0.311300	0.092200	0.780100
H1421	H142	0.350800	0.096900	0.811900
N431	N43	0.124300	0.879400	0.661800
N441	N44	0.455600	0.507400	0.566000
N451	N45	0.487600	0.446700	0.605100
N461	N46	0.350800	0.444100	0.609600
N471	N47	0.268700	0.424300	0.630100
H1431	H143	0.241200	0.471700	0.638500
H1441	H144	0.242000	0.396400	0.600000
N481	N48	0.187600	0.023700	0.741900
Cd11	Cd1	0.059480	0.940520	0.750000
Cd21	Cd2	0.940520	0.059480	0.250000
Cd31	Cd3	0.559480	0.559480	0.500000
Cd41	Cd4	0.440520	0.440520	0.000000
