data_WUPMOL_clean_PM
_symmetry_space_group_name_H-M	'P1'
_cell_length_a	13.854000
_cell_length_b	10.832000
_cell_length_c	18.731000
_cell_angle_alpha	90.000000
_cell_angle_beta	130.624000
_cell_angle_gamma	90.000000
_symmetry_Int_Tables_number 1

loop_
_symmetry_equiv_pos_as_xyz
'x,y,z'

loop_
_atom_site_label
_atom_site_type_symbol
_atom_site_fract_x
_atom_site_fract_y
_atom_site_fract_z
N11	N1	0.344500	0.092200	0.687900
N21	N2	0.238700	0.262800	0.607700
N31	N3	0.006900	0.813700	0.659900
O11	O1	0.882300	0.524400	0.629600
O21	O2	0.812300	0.589400	0.699600
O31	O3	0.639900	0.189000	0.385300
O41	O4	0.450700	0.145700	0.331700
S11	S1	0.393970	0.165200	0.577850
C11	C1	0.423300	0.325200	0.574300
H11	H1	0.343600	0.367100	0.526300
H21	H2	0.462200	0.363400	0.634500
C21	C2	0.510700	0.337200	0.552600
C31	C3	0.612800	0.417600	0.605100
H31	H3	0.626300	0.464100	0.652600
C41	C4	0.695500	0.429400	0.587400
C51	C5	0.677700	0.356700	0.518300
H41	H4	0.735100	0.361500	0.508300
C61	C6	0.574400	0.277100	0.464300
C71	C7	0.489900	0.268900	0.480700
H51	H5	0.419300	0.217600	0.443400
C81	C8	0.803400	0.519500	0.642500
C91	C9	0.554200	0.199700	0.389500
C101	C10	0.322400	0.174800	0.627300
C111	C11	0.269900	0.128500	0.710100
C121	C12	0.256800	0.077900	0.771900
H61	H6	0.300100	0.006800	0.806300
C131	C13	0.176400	0.138500	0.779200
H71	H7	0.166400	0.108300	0.820500
C141	C14	0.109100	0.244200	0.726600
H81	H8	0.054400	0.280900	0.732900
C151	C15	0.121000	0.294600	0.666800
H91	H9	0.076700	0.365200	0.632200
C161	C16	0.203800	0.234400	0.659900
C171	C17	0.085400	0.792700	0.642700
H101	H10	0.142800	0.727700	0.673900
C181	C18	0.085800	0.862300	0.581300
H111	H11	0.141900	0.843400	0.571500
C191	C19	0.001700	0.961300	0.533700
C201	C20	0.922800	0.984900	0.553600
H121	H12	0.866600	0.051100	0.525300
C211	C21	0.927900	0.909900	0.615500
H131	H13	0.873400	0.927200	0.627000
N41	N4	0.655500	0.092200	0.812100
N51	N5	0.761300	0.262800	0.892300
N61	N6	0.993100	0.813700	0.840100
O51	O5	0.117700	0.524400	0.870400
O61	O6	0.187700	0.589400	0.800400
O71	O7	0.360100	0.189000	0.114700
O81	O8	0.549300	0.145700	0.168300
S21	S2	0.606030	0.165200	0.922150
C221	C22	0.576700	0.325200	0.925700
H141	H14	0.656400	0.367100	0.973700
H151	H15	0.537800	0.363400	0.865500
C231	C23	0.489300	0.337200	0.947400
C241	C24	0.387200	0.417600	0.894900
H161	H16	0.373700	0.464100	0.847400
C251	C25	0.304500	0.429400	0.912600
C261	C26	0.322300	0.356700	0.981700
H171	H17	0.264900	0.361500	0.991700
C271	C27	0.425600	0.277100	0.035700
C281	C28	0.510100	0.268900	0.019300
H181	H18	0.580700	0.217600	0.056600
C291	C29	0.196600	0.519500	0.857500
C301	C30	0.445800	0.199700	0.110500
C311	C31	0.677600	0.174800	0.872700
C321	C32	0.730100	0.128500	0.789900
C331	C33	0.743200	0.077900	0.728100
H191	H19	0.699900	0.006800	0.693700
C341	C34	0.823600	0.138500	0.720800
H201	H20	0.833600	0.108300	0.679500
C351	C35	0.890900	0.244200	0.773400
H211	H21	0.945600	0.280900	0.767100
C361	C36	0.879000	0.294600	0.833200
H221	H22	0.923300	0.365200	0.867800
C371	C37	0.796200	0.234400	0.840100
C381	C38	0.914600	0.792700	0.857300
H231	H23	0.857200	0.727700	0.826100
C391	C39	0.914200	0.862300	0.918700
H241	H24	0.858100	0.843400	0.928500
C401	C40	0.998300	0.961300	0.966300
C411	C41	0.077200	0.984900	0.946400
H251	H25	0.133400	0.051100	0.974700
C421	C42	0.072100	0.909900	0.884500
H261	H26	0.126600	0.927200	0.873000
N71	N7	0.655500	0.907800	0.312100
N81	N8	0.761300	0.737200	0.392300
N91	N9	0.993100	0.186300	0.340100
O91	O9	0.117700	0.475600	0.370400
O101	O10	0.187700	0.410600	0.300400
O111	O11	0.360100	0.811000	0.614700
O121	O12	0.549300	0.854300	0.668300
S31	S3	0.606030	0.834800	0.422150
C431	C43	0.576700	0.674800	0.425700
H271	H27	0.656400	0.632900	0.473700
H281	H28	0.537800	0.636600	0.365500
C441	C44	0.489300	0.662800	0.447400
C451	C45	0.387200	0.582400	0.394900
H291	H29	0.373700	0.535900	0.347400
C461	C46	0.304500	0.570600	0.412600
C471	C47	0.322300	0.643300	0.481700
H301	H30	0.264900	0.638500	0.491700
C481	C48	0.425600	0.722900	0.535700
C491	C49	0.510100	0.731100	0.519300
H311	H31	0.580700	0.782400	0.556600
C501	C50	0.196600	0.480500	0.357500
C511	C51	0.445800	0.800300	0.610500
C521	C52	0.677600	0.825200	0.372700
C531	C53	0.730100	0.871500	0.289900
C541	C54	0.743200	0.922100	0.228100
H321	H32	0.699900	0.993200	0.193700
C551	C55	0.823600	0.861500	0.220800
H331	H33	0.833600	0.891700	0.179500
C561	C56	0.890900	0.755800	0.273400
H341	H34	0.945600	0.719100	0.267100
C571	C57	0.879000	0.705400	0.333200
H351	H35	0.923300	0.634800	0.367800
C581	C58	0.796200	0.765600	0.340100
C591	C59	0.914600	0.207300	0.357300
H361	H36	0.857200	0.272300	0.326100
C601	C60	0.914200	0.137700	0.418700
H371	H37	0.858100	0.156600	0.428500
C611	C61	0.998300	0.038700	0.466300
C621	C62	0.077200	0.015100	0.446400
H381	H38	0.133400	0.948900	0.474700
C631	C63	0.072100	0.090100	0.384500
H391	H39	0.126600	0.072800	0.373000
N101	N10	0.344500	0.907800	0.187900
N111	N11	0.238700	0.737200	0.107700
N121	N12	0.006900	0.186300	0.159900
O131	O13	0.882300	0.475600	0.129600
O141	O14	0.812300	0.410600	0.199600
O151	O15	0.639900	0.811000	0.885300
O161	O16	0.450700	0.854300	0.831700
S41	S4	0.393970	0.834800	0.077850
C641	C64	0.423300	0.674800	0.074300
H401	H40	0.343600	0.632900	0.026300
H411	H41	0.462200	0.636600	0.134500
C651	C65	0.510700	0.662800	0.052600
C661	C66	0.612800	0.582400	0.105100
H421	H42	0.626300	0.535900	0.152600
C671	C67	0.695500	0.570600	0.087400
C681	C68	0.677700	0.643300	0.018300
H431	H43	0.735100	0.638500	0.008300
C691	C69	0.574400	0.722900	0.964300
C701	C70	0.489900	0.731100	0.980700
H441	H44	0.419300	0.782400	0.943400
C711	C71	0.803400	0.480500	0.142500
C721	C72	0.554200	0.800300	0.889500
C731	C73	0.322400	0.825200	0.127300
C741	C74	0.269900	0.871500	0.210100
C751	C75	0.256800	0.922100	0.271900
H451	H45	0.300100	0.993200	0.306300
C761	C76	0.176400	0.861500	0.279200
H461	H46	0.166400	0.891700	0.320500
C771	C77	0.109100	0.755800	0.226600
H471	H47	0.054400	0.719100	0.232900
C781	C78	0.121000	0.705400	0.166800
H481	H48	0.076700	0.634800	0.132200
C791	C79	0.203800	0.765600	0.159900
C801	C80	0.085400	0.207300	0.142700
H491	H49	0.142800	0.272300	0.173900
C811	C81	0.085800	0.137700	0.081300
H501	H50	0.141900	0.156600	0.071500
C821	C82	0.001700	0.038700	0.033700
C831	C83	0.922800	0.015100	0.053600
H511	H51	0.866600	0.948900	0.025300
C841	C84	0.927900	0.090100	0.115500
H521	H52	0.873400	0.072800	0.127000
Cd11	Cd1	0.000000	0.676640	0.750000
Cd21	Cd2	0.000000	0.323360	0.250000
Cd31	Cd3	0.500000	0.947450	0.750000
Cd41	Cd4	0.500000	0.052550	0.250000
