data_WUPNIF_clean_PM
_symmetry_space_group_name_H-M	'P1'
_cell_length_a	11.262200
_cell_length_b	13.234800
_cell_length_c	13.234800
_cell_angle_alpha	101.488000
_cell_angle_beta	106.743000
_cell_angle_gamma	73.256600
_symmetry_Int_Tables_number 1

loop_
_symmetry_equiv_pos_as_xyz
'x,y,z'

loop_
_atom_site_label
_atom_site_type_symbol
_atom_site_fract_x
_atom_site_fract_y
_atom_site_fract_z
Na11	Na1	0.711900	0.686100	0.350900
Na21	Na2	0.788100	0.350900	0.686100
Na31	Na3	0.288100	0.313900	0.649100
Na41	Na4	0.211900	0.649100	0.313900
Na51	Na5	0.750000	0.320500	0.320500
Na61	Na6	0.250000	0.679500	0.679500
Zn11	Zn1	0.460460	0.860930	0.167790
Zn21	Zn2	0.039540	0.167790	0.860930
Zn31	Zn3	0.539540	0.139070	0.832210
Zn41	Zn4	0.960460	0.832210	0.139070
Zn51	Zn5	0.250000	0.887530	0.887530
Zn61	Zn6	0.250000	0.075550	0.075550
Zn71	Zn7	0.750000	0.112470	0.112470
Zn81	Zn8	0.750000	0.924450	0.924450
Cu11	Cu1	0.500000	0.000000	0.000000
Cu21	Cu2	0.000000	0.000000	0.000000
H11	H1	0.126100	0.482800	0.009400
H21	H2	0.559800	0.452600	0.137200
H31	H3	0.373900	0.009400	0.482800
H41	H4	0.940200	0.137200	0.452600
H51	H5	0.873900	0.517200	0.990600
H61	H6	0.440200	0.547400	0.862800
H71	H7	0.626100	0.990600	0.517200
H81	H8	0.059800	0.862800	0.547400
C11	C1	0.388300	0.560000	0.109600
C21	C2	0.257800	0.569100	0.068700
C31	C3	0.213500	0.476900	0.035500
C41	C4	0.295500	0.377400	0.040400
C51	C5	0.428000	0.368400	0.076200
C61	C6	0.472300	0.458700	0.111500
C71	C7	0.444000	0.655000	0.149600
C81	C8	0.158700	0.672600	0.060000
C91	C9	0.239800	0.281900	0.015700
C101	C10	0.519900	0.261200	0.069000
C111	C11	0.111700	0.109600	0.560000
C121	C12	0.242200	0.068700	0.569100
C131	C13	0.286500	0.035500	0.476900
C141	C14	0.204500	0.040400	0.377400
C151	C15	0.072000	0.076200	0.368400
C161	C16	0.027700	0.111500	0.458700
C171	C17	0.056000	0.149600	0.655000
C181	C18	0.341300	0.060000	0.672600
C191	C19	0.260200	0.015700	0.281900
C201	C20	0.980100	0.069000	0.261200
C211	C21	0.611700	0.440000	0.890400
C221	C22	0.742200	0.430900	0.931300
C231	C23	0.786500	0.523100	0.964500
C241	C24	0.704500	0.622600	0.959600
C251	C25	0.572000	0.631600	0.923800
C261	C26	0.527700	0.541300	0.888500
C271	C27	0.556000	0.345000	0.850400
C281	C28	0.841300	0.327400	0.940000
C291	C29	0.760200	0.718100	0.984300
C301	C30	0.480100	0.738800	0.931000
C311	C31	0.888300	0.890400	0.440000
C321	C32	0.757800	0.931300	0.430900
C331	C33	0.713500	0.964500	0.523100
C341	C34	0.795500	0.959600	0.622600
C351	C35	0.928000	0.923800	0.631600
C361	C36	0.972300	0.888500	0.541300
C371	C37	0.944000	0.850400	0.345000
C381	C38	0.658700	0.940000	0.327400
C391	C39	0.739800	0.984300	0.718100
C401	C40	0.019900	0.931000	0.738800
O11	O1	0.551600	0.644100	0.209900
O21	O2	0.376700	0.743300	0.118500
O31	O3	0.125200	0.721500	0.144500
O41	O4	0.109700	0.699300	0.969500
O51	O5	0.160800	0.270700	0.928500
O61	O6	0.275100	0.224270	0.088730
O71	O7	0.488900	0.190600	0.995600
O81	O8	0.626200	0.248600	0.137600
O91	O9	0.437800	0.002670	0.121930
O101	O10	0.316400	0.015730	0.921870
O111	O11	0.948400	0.209900	0.644100
O121	O12	0.123300	0.118500	0.743300
O131	O13	0.374800	0.144500	0.721500
O141	O14	0.390300	0.969500	0.699300
O151	O15	0.339200	0.928500	0.270700
O161	O16	0.224900	0.088730	0.224270
O171	O17	0.011100	0.995600	0.190600
O181	O18	0.873800	0.137600	0.248600
O191	O19	0.062200	0.121930	0.002670
O201	O20	0.183600	0.921870	0.015730
O211	O21	0.448400	0.355900	0.790100
O221	O22	0.623300	0.256700	0.881500
O231	O23	0.874800	0.278500	0.855500
O241	O24	0.890300	0.300700	0.030500
O251	O25	0.839200	0.729300	0.071500
O261	O26	0.724900	0.775730	0.911270
O271	O27	0.511100	0.809400	0.004400
O281	O28	0.373800	0.751400	0.862400
O291	O29	0.562200	0.997330	0.878070
O301	O30	0.683600	0.984270	0.078130
O311	O31	0.051600	0.790100	0.355900
O321	O32	0.876700	0.881500	0.256700
O331	O33	0.625200	0.855500	0.278500
O341	O34	0.609700	0.030500	0.300700
O351	O35	0.660800	0.071500	0.729300
O361	O36	0.775100	0.911270	0.775730
O371	O37	0.988900	0.004400	0.809400
O381	O38	0.126200	0.862400	0.751400
O391	O39	0.937800	0.878070	0.997330
O401	O40	0.816400	0.078130	0.984270
