data_WUPZUE_clean_PM
_symmetry_space_group_name_H-M	'P1'
_cell_length_a	7.873200
_cell_length_b	9.657100
_cell_length_c	12.146100
_cell_angle_alpha	76.894000
_cell_angle_beta	89.325000
_cell_angle_gamma	77.575000
_symmetry_Int_Tables_number 1

loop_
_symmetry_equiv_pos_as_xyz
'x,y,z'

loop_
_atom_site_label
_atom_site_type_symbol
_atom_site_fract_x
_atom_site_fract_y
_atom_site_fract_z
Zn11	Zn1	0.071540	0.137370	0.516080
Zn21	Zn2	0.666560	0.163720	0.367870
O11	O1	0.833900	0.077030	0.497140
O21	O2	0.486600	0.969720	0.637000
O31	O3	0.304400	0.182100	0.558220
O41	O4	0.612400	0.635200	0.750320
O51	O5	0.408100	0.634290	0.625430
O61	O6	0.958100	0.925870	0.307370
O71	O7	0.800500	0.149150	0.231140
C11	C1	0.434300	0.107300	0.618100
C21	C2	0.538500	0.184500	0.676200
C31	C3	0.668400	0.105000	0.756500
H11	H1	0.696900	0.001700	0.770000
C41	C4	0.497800	0.336200	0.655000
H21	H2	0.411300	0.390900	0.598700
C51	C5	0.583900	0.407300	0.716100
C61	C6	0.712200	0.326700	0.797700
H31	H3	0.769500	0.375700	0.840200
C71	C7	0.757500	0.175400	0.817700
C81	C8	0.888300	0.087400	0.908000
C91	C9	0.859600	0.102900	0.018300
H41	H4	0.763300	0.174700	0.031400
C101	C10	0.535300	0.570400	0.697300
C111	C11	0.966000	0.017600	0.110000
C121	C12	0.906700	0.032200	0.226400
Zn31	Zn3	0.928460	0.862630	0.483920
Zn41	Zn4	0.333440	0.836280	0.632130
O81	O8	0.166100	0.922970	0.502860
O91	O9	0.513400	0.030280	0.363000
O101	O10	0.695600	0.817900	0.441780
O111	O11	0.387600	0.364800	0.249680
O121	O12	0.591900	0.365710	0.374570
O131	O13	0.041900	0.074130	0.692630
O141	O14	0.199500	0.850850	0.768860
C131	C13	0.565700	0.892700	0.381900
C141	C14	0.461500	0.815500	0.323800
C151	C15	0.331600	0.895000	0.243500
H51	H5	0.303100	0.998300	0.230000
C161	C16	0.502200	0.663800	0.345000
H61	H6	0.588700	0.609100	0.401300
C171	C17	0.416100	0.592700	0.283900
C181	C18	0.287800	0.673300	0.202300
H71	H7	0.230500	0.624300	0.159800
C191	C19	0.242500	0.824600	0.182300
C201	C20	0.111700	0.912600	0.092000
C211	C21	0.140400	0.897100	0.981700
H81	H8	0.236700	0.825300	0.968600
C221	C22	0.464700	0.429600	0.302700
C231	C23	0.034000	0.982400	0.890000
C241	C24	0.093300	0.967800	0.773600
