data_WUQRAC_clean_h_PM
_symmetry_space_group_name_H-M	'P1'
_cell_length_a	35.157100
_cell_length_b	35.157100
_cell_length_c	35.157100
_cell_angle_alpha	90.000000
_cell_angle_beta	90.000000
_cell_angle_gamma	90.000000
_symmetry_Int_Tables_number 1

loop_
_symmetry_equiv_pos_as_xyz
'x,y,z'

loop_
_atom_site_label
_atom_site_type_symbol
_atom_site_fract_x
_atom_site_fract_y
_atom_site_fract_z
C11	C1	0.639000	0.468000	0.300000
C21	C2	0.578000	0.477000	0.282000
C31	C3	0.684000	0.501000	0.440000
C41	C4	0.693000	0.535000	0.454000
C51	C5	0.706000	0.560000	0.428000
C61	C6	0.704000	0.552000	0.389000
C71	C7	0.695000	0.519000	0.374000
C81	C8	0.612000	0.398000	0.421000
C91	C9	0.580000	0.400000	0.440000
C101	C10	0.552000	0.426000	0.432000
C111	C11	0.561000	0.453000	0.409000
C121	C12	0.596000	0.454000	0.398000
C131	C13	0.534000	0.477000	0.395000
N11	N1	0.648000	0.453000	0.324000
N21	N2	0.555000	0.469000	0.299000
N31	N3	0.691000	0.489000	0.400000
N41	N4	0.624000	0.424000	0.406000
H11	H1	0.669950	0.478830	0.459040
H21	H2	0.689440	0.540950	0.485680
H31	H3	0.718870	0.588170	0.437610
H41	H4	0.710500	0.575230	0.367330
H51	H5	0.691010	0.516310	0.341930
H61	H6	0.628160	0.369940	0.419370
H71	H7	0.574380	0.379510	0.464500
H81	H8	0.522690	0.422940	0.445520
H91	H9	0.606910	0.479320	0.380930
H101	H10	0.532780	0.483260	0.363210
H111	H11	0.512620	0.490830	0.415080
C141	C14	0.139000	0.968000	0.800000
C151	C15	0.078000	0.977000	0.782000
C161	C16	0.184000	0.001000	0.940000
C171	C17	0.193000	0.035000	0.954000
C181	C18	0.206000	0.060000	0.928000
C191	C19	0.204000	0.052000	0.889000
C201	C20	0.195000	0.019000	0.874000
C211	C21	0.112000	0.898000	0.921000
C221	C22	0.080000	0.900000	0.940000
C231	C23	0.052000	0.926000	0.932000
C241	C24	0.061000	0.953000	0.909000
C251	C25	0.096000	0.954000	0.898000
C261	C26	0.034000	0.977000	0.895000
N51	N5	0.148000	0.953000	0.824000
N61	N6	0.055000	0.969000	0.799000
N71	N7	0.191000	0.989000	0.900000
N81	N8	0.124000	0.924000	0.906000
H121	H12	0.169950	0.978830	0.959040
H131	H13	0.189440	0.040950	0.985680
H141	H14	0.218870	0.088170	0.937610
H151	H15	0.210500	0.075230	0.867330
H161	H16	0.191010	0.016310	0.841930
H171	H17	0.128160	0.869940	0.919370
H181	H18	0.074380	0.879510	0.964500
H191	H19	0.022690	0.922940	0.945520
H201	H20	0.106910	0.979320	0.880930
H211	H21	0.032780	0.983260	0.863210
H221	H22	0.012620	0.990830	0.915080
C271	C27	0.861000	0.532000	0.800000
C281	C28	0.922000	0.523000	0.782000
C291	C29	0.816000	0.499000	0.940000
C301	C30	0.807000	0.465000	0.954000
C311	C31	0.794000	0.440000	0.928000
C321	C32	0.796000	0.448000	0.889000
C331	C33	0.805000	0.481000	0.874000
C341	C34	0.888000	0.602000	0.921000
C351	C35	0.920000	0.600000	0.940000
C361	C36	0.948000	0.574000	0.932000
C371	C37	0.939000	0.547000	0.909000
C381	C38	0.904000	0.546000	0.898000
C391	C39	0.966000	0.523000	0.895000
N91	N9	0.852000	0.547000	0.824000
N101	N10	0.945000	0.531000	0.799000
N111	N11	0.809000	0.511000	0.900000
N121	N12	0.876000	0.576000	0.906000
H231	H23	0.830050	0.521170	0.959040
H241	H24	0.810560	0.459050	0.985680
H251	H25	0.781130	0.411830	0.937610
H261	H26	0.789500	0.424770	0.867330
H271	H27	0.808990	0.483690	0.841930
H281	H28	0.871840	0.630060	0.919370
H291	H29	0.925620	0.620490	0.964500
H301	H30	0.977310	0.577060	0.945520
H311	H31	0.893090	0.520680	0.880930
H321	H32	0.967220	0.516740	0.863210
H331	H33	0.987380	0.509170	0.915080
C401	C40	0.361000	0.032000	0.300000
C411	C41	0.422000	0.023000	0.282000
C421	C42	0.316000	0.999000	0.440000
C431	C43	0.307000	0.965000	0.454000
C441	C44	0.294000	0.940000	0.428000
C451	C45	0.296000	0.948000	0.389000
C461	C46	0.305000	0.981000	0.374000
C471	C47	0.388000	0.102000	0.421000
C481	C48	0.420000	0.100000	0.440000
C491	C49	0.448000	0.074000	0.432000
C501	C50	0.439000	0.047000	0.409000
C511	C51	0.404000	0.046000	0.398000
C521	C52	0.466000	0.023000	0.395000
N131	N13	0.352000	0.047000	0.324000
N141	N14	0.445000	0.031000	0.299000
N151	N15	0.309000	0.011000	0.400000
N161	N16	0.376000	0.076000	0.406000
H341	H34	0.330050	0.021170	0.459040
H351	H35	0.310560	0.959050	0.485680
H361	H36	0.281130	0.911830	0.437610
H371	H37	0.289500	0.924770	0.367330
H381	H38	0.308990	0.983690	0.341930
H391	H39	0.371840	0.130060	0.419370
H401	H40	0.425620	0.120490	0.464500
H411	H41	0.477310	0.077060	0.445520
H421	H42	0.393090	0.020680	0.380930
H431	H43	0.467220	0.016740	0.363210
H441	H44	0.487380	0.009170	0.415080
C531	C53	0.361000	0.968000	0.200000
C541	C54	0.422000	0.977000	0.218000
C551	C55	0.316000	0.001000	0.060000
C561	C56	0.307000	0.035000	0.046000
C571	C57	0.294000	0.060000	0.072000
C581	C58	0.296000	0.052000	0.111000
C591	C59	0.305000	0.019000	0.126000
C601	C60	0.388000	0.898000	0.079000
C611	C61	0.420000	0.900000	0.060000
C621	C62	0.448000	0.926000	0.068000
C631	C63	0.439000	0.953000	0.091000
C641	C64	0.404000	0.954000	0.102000
C651	C65	0.466000	0.977000	0.105000
N171	N17	0.352000	0.953000	0.176000
N181	N18	0.445000	0.969000	0.201000
N191	N19	0.309000	0.989000	0.100000
N201	N20	0.376000	0.924000	0.094000
H451	H45	0.330050	0.978830	0.040960
H461	H46	0.310560	0.040950	0.014320
H471	H47	0.281130	0.088170	0.062390
H481	H48	0.289500	0.075230	0.132670
H491	H49	0.308990	0.016310	0.158070
H501	H50	0.371840	0.869940	0.080630
H511	H51	0.425620	0.879510	0.035500
H521	H52	0.477310	0.922940	0.054480
H531	H53	0.393090	0.979320	0.119070
H541	H54	0.467220	0.983260	0.136790
H551	H55	0.487380	0.990830	0.084920
C661	C66	0.861000	0.468000	0.700000
C671	C67	0.922000	0.477000	0.718000
C681	C68	0.816000	0.501000	0.560000
C691	C69	0.807000	0.535000	0.546000
C701	C70	0.794000	0.560000	0.572000
C711	C71	0.796000	0.552000	0.611000
C721	C72	0.805000	0.519000	0.626000
C731	C73	0.888000	0.398000	0.579000
C741	C74	0.920000	0.400000	0.560000
C751	C75	0.948000	0.426000	0.568000
C761	C76	0.939000	0.453000	0.591000
C771	C77	0.904000	0.454000	0.602000
C781	C78	0.966000	0.477000	0.605000
N211	N21	0.852000	0.453000	0.676000
N221	N22	0.945000	0.469000	0.701000
N231	N23	0.809000	0.489000	0.600000
N241	N24	0.876000	0.424000	0.594000
H561	H56	0.830050	0.478830	0.540960
H571	H57	0.810560	0.540950	0.514320
H581	H58	0.781130	0.588170	0.562390
H591	H59	0.789500	0.575230	0.632670
H601	H60	0.808990	0.516310	0.658070
H611	H61	0.871840	0.369940	0.580630
H621	H62	0.925620	0.379510	0.535500
H631	H63	0.977310	0.422940	0.554480
H641	H64	0.893090	0.479320	0.619070
H651	H65	0.967220	0.483260	0.636790
H661	H66	0.987380	0.490830	0.584920
C791	C79	0.139000	0.032000	0.700000
C801	C80	0.078000	0.023000	0.718000
C811	C81	0.184000	0.999000	0.560000
C821	C82	0.193000	0.965000	0.546000
C831	C83	0.206000	0.940000	0.572000
C841	C84	0.204000	0.948000	0.611000
C851	C85	0.195000	0.981000	0.626000
C861	C86	0.112000	0.102000	0.579000
C871	C87	0.080000	0.100000	0.560000
C881	C88	0.052000	0.074000	0.568000
C891	C89	0.061000	0.047000	0.591000
C901	C90	0.096000	0.046000	0.602000
C911	C91	0.034000	0.023000	0.605000
N251	N25	0.148000	0.047000	0.676000
N261	N26	0.055000	0.031000	0.701000
N271	N27	0.191000	0.011000	0.600000
N281	N28	0.124000	0.076000	0.594000
H671	H67	0.169950	0.021170	0.540960
H681	H68	0.189440	0.959050	0.514320
H691	H69	0.218870	0.911830	0.562390
H701	H70	0.210500	0.924770	0.632670
H711	H71	0.191010	0.983690	0.658070
H721	H72	0.128160	0.130060	0.580630
H731	H73	0.074380	0.120490	0.535500
H741	H74	0.022690	0.077060	0.554480
H751	H75	0.106910	0.020680	0.619070
H761	H76	0.032780	0.016740	0.636790
H771	H77	0.012620	0.009170	0.584920
C921	C92	0.639000	0.532000	0.200000
C931	C93	0.578000	0.523000	0.218000
C941	C94	0.684000	0.499000	0.060000
C951	C95	0.693000	0.465000	0.046000
C961	C96	0.706000	0.440000	0.072000
C971	C97	0.704000	0.448000	0.111000
C981	C98	0.695000	0.481000	0.126000
C991	C99	0.612000	0.602000	0.079000
C1001	C100	0.580000	0.600000	0.060000
C1011	C101	0.552000	0.574000	0.068000
C1021	C102	0.561000	0.547000	0.091000
C1031	C103	0.596000	0.546000	0.102000
C1041	C104	0.534000	0.523000	0.105000
N291	N29	0.648000	0.547000	0.176000
N301	N30	0.555000	0.531000	0.201000
N311	N31	0.691000	0.511000	0.100000
N321	N32	0.624000	0.576000	0.094000
H781	H78	0.669950	0.521170	0.040960
H791	H79	0.689440	0.459050	0.014320
H801	H80	0.718870	0.411830	0.062390
H811	H81	0.710500	0.424770	0.132670
H821	H82	0.691010	0.483690	0.158070
H831	H83	0.628160	0.630060	0.080630
H841	H84	0.574380	0.620490	0.035500
H851	H85	0.522690	0.577060	0.054480
H861	H86	0.606910	0.520680	0.119070
H871	H87	0.532780	0.516740	0.136790
H881	H88	0.512620	0.509170	0.084920
C1051	C105	0.300000	0.639000	0.468000
C1061	C106	0.282000	0.578000	0.477000
C1071	C107	0.440000	0.684000	0.501000
C1081	C108	0.454000	0.693000	0.535000
C1091	C109	0.428000	0.706000	0.560000
C1101	C110	0.389000	0.704000	0.552000
C1111	C111	0.374000	0.695000	0.519000
C1121	C112	0.421000	0.612000	0.398000
C1131	C113	0.440000	0.580000	0.400000
C1141	C114	0.432000	0.552000	0.426000
C1151	C115	0.409000	0.561000	0.453000
C1161	C116	0.398000	0.596000	0.454000
C1171	C117	0.395000	0.534000	0.477000
N331	N33	0.324000	0.648000	0.453000
N341	N34	0.299000	0.555000	0.469000
N351	N35	0.400000	0.691000	0.489000
N361	N36	0.406000	0.624000	0.424000
H891	H89	0.459040	0.669950	0.478830
H901	H90	0.485680	0.689440	0.540950
H911	H91	0.437610	0.718870	0.588170
H921	H92	0.367330	0.710500	0.575230
H931	H93	0.341930	0.691010	0.516310
H941	H94	0.419370	0.628160	0.369940
H951	H95	0.464500	0.574380	0.379510
H961	H96	0.445520	0.522690	0.422940
H971	H97	0.380930	0.606910	0.479320
H981	H98	0.363210	0.532780	0.483260
H991	H99	0.415080	0.512620	0.490830
C1181	C118	0.800000	0.139000	0.968000
C1191	C119	0.782000	0.078000	0.977000
C1201	C120	0.940000	0.184000	0.001000
C1211	C121	0.954000	0.193000	0.035000
C1221	C122	0.928000	0.206000	0.060000
C1231	C123	0.889000	0.204000	0.052000
C1241	C124	0.874000	0.195000	0.019000
C1251	C125	0.921000	0.112000	0.898000
C1261	C126	0.940000	0.080000	0.900000
C1271	C127	0.932000	0.052000	0.926000
C1281	C128	0.909000	0.061000	0.953000
C1291	C129	0.898000	0.096000	0.954000
C1301	C130	0.895000	0.034000	0.977000
N371	N37	0.824000	0.148000	0.953000
N381	N38	0.799000	0.055000	0.969000
N391	N39	0.900000	0.191000	0.989000
N401	N40	0.906000	0.124000	0.924000
H1001	H100	0.959040	0.169950	0.978830
H1011	H101	0.985680	0.189440	0.040950
H1021	H102	0.937610	0.218870	0.088170
H1031	H103	0.867330	0.210500	0.075230
H1041	H104	0.841930	0.191010	0.016310
H1051	H105	0.919370	0.128160	0.869940
H1061	H106	0.964500	0.074380	0.879510
H1071	H107	0.945520	0.022690	0.922940
H1081	H108	0.880930	0.106910	0.979320
H1091	H109	0.863210	0.032780	0.983260
H1101	H110	0.915080	0.012620	0.990830
C1311	C131	0.800000	0.861000	0.532000
C1321	C132	0.782000	0.922000	0.523000
C1331	C133	0.940000	0.816000	0.499000
C1341	C134	0.954000	0.807000	0.465000
C1351	C135	0.928000	0.794000	0.440000
C1361	C136	0.889000	0.796000	0.448000
C1371	C137	0.874000	0.805000	0.481000
C1381	C138	0.921000	0.888000	0.602000
C1391	C139	0.940000	0.920000	0.600000
C1401	C140	0.932000	0.948000	0.574000
C1411	C141	0.909000	0.939000	0.547000
C1421	C142	0.898000	0.904000	0.546000
C1431	C143	0.895000	0.966000	0.523000
N411	N41	0.824000	0.852000	0.547000
N421	N42	0.799000	0.945000	0.531000
N431	N43	0.900000	0.809000	0.511000
N441	N44	0.906000	0.876000	0.576000
H1111	H111	0.959040	0.830050	0.521170
H1121	H112	0.985680	0.810560	0.459050
H1131	H113	0.937610	0.781130	0.411830
H1141	H114	0.867330	0.789500	0.424770
H1151	H115	0.841930	0.808990	0.483690
H1161	H116	0.919370	0.871840	0.630060
H1171	H117	0.964500	0.925620	0.620490
H1181	H118	0.945520	0.977310	0.577060
H1191	H119	0.880930	0.893090	0.520680
H1201	H120	0.863210	0.967220	0.516740
H1211	H121	0.915080	0.987380	0.509170
C1441	C144	0.300000	0.361000	0.032000
C1451	C145	0.282000	0.422000	0.023000
C1461	C146	0.440000	0.316000	0.999000
C1471	C147	0.454000	0.307000	0.965000
C1481	C148	0.428000	0.294000	0.940000
C1491	C149	0.389000	0.296000	0.948000
C1501	C150	0.374000	0.305000	0.981000
C1511	C151	0.421000	0.388000	0.102000
C1521	C152	0.440000	0.420000	0.100000
C1531	C153	0.432000	0.448000	0.074000
C1541	C154	0.409000	0.439000	0.047000
C1551	C155	0.398000	0.404000	0.046000
C1561	C156	0.395000	0.466000	0.023000
N451	N45	0.324000	0.352000	0.047000
N461	N46	0.299000	0.445000	0.031000
N471	N47	0.400000	0.309000	0.011000
N481	N48	0.406000	0.376000	0.076000
H1221	H122	0.459040	0.330050	0.021170
H1231	H123	0.485680	0.310560	0.959050
H1241	H124	0.437610	0.281130	0.911830
H1251	H125	0.367330	0.289500	0.924770
H1261	H126	0.341930	0.308990	0.983690
H1271	H127	0.419370	0.371840	0.130060
H1281	H128	0.464500	0.425620	0.120490
H1291	H129	0.445520	0.477310	0.077060
H1301	H130	0.380930	0.393090	0.020680
H1311	H131	0.363210	0.467220	0.016740
H1321	H132	0.415080	0.487380	0.009170
C1571	C157	0.200000	0.361000	0.968000
C1581	C158	0.218000	0.422000	0.977000
C1591	C159	0.060000	0.316000	0.001000
C1601	C160	0.046000	0.307000	0.035000
C1611	C161	0.072000	0.294000	0.060000
C1621	C162	0.111000	0.296000	0.052000
C1631	C163	0.126000	0.305000	0.019000
C1641	C164	0.079000	0.388000	0.898000
C1651	C165	0.060000	0.420000	0.900000
C1661	C166	0.068000	0.448000	0.926000
C1671	C167	0.091000	0.439000	0.953000
C1681	C168	0.102000	0.404000	0.954000
C1691	C169	0.105000	0.466000	0.977000
N491	N49	0.176000	0.352000	0.953000
N501	N50	0.201000	0.445000	0.969000
N511	N51	0.100000	0.309000	0.989000
N521	N52	0.094000	0.376000	0.924000
H1331	H133	0.040960	0.330050	0.978830
H1341	H134	0.014320	0.310560	0.040950
H1351	H135	0.062390	0.281130	0.088170
H1361	H136	0.132670	0.289500	0.075230
H1371	H137	0.158070	0.308990	0.016310
H1381	H138	0.080630	0.371840	0.869940
H1391	H139	0.035500	0.425620	0.879510
H1401	H140	0.054480	0.477310	0.922940
H1411	H141	0.119070	0.393090	0.979320
H1421	H142	0.136790	0.467220	0.983260
H1431	H143	0.084920	0.487380	0.990830
C1701	C170	0.700000	0.861000	0.468000
C1711	C171	0.718000	0.922000	0.477000
C1721	C172	0.560000	0.816000	0.501000
C1731	C173	0.546000	0.807000	0.535000
C1741	C174	0.572000	0.794000	0.560000
C1751	C175	0.611000	0.796000	0.552000
C1761	C176	0.626000	0.805000	0.519000
C1771	C177	0.579000	0.888000	0.398000
C1781	C178	0.560000	0.920000	0.400000
C1791	C179	0.568000	0.948000	0.426000
C1801	C180	0.591000	0.939000	0.453000
C1811	C181	0.602000	0.904000	0.454000
C1821	C182	0.605000	0.966000	0.477000
N531	N53	0.676000	0.852000	0.453000
N541	N54	0.701000	0.945000	0.469000
N551	N55	0.600000	0.809000	0.489000
N561	N56	0.594000	0.876000	0.424000
H1441	H144	0.540960	0.830050	0.478830
H1451	H145	0.514320	0.810560	0.540950
H1461	H146	0.562390	0.781130	0.588170
H1471	H147	0.632670	0.789500	0.575230
H1481	H148	0.658070	0.808990	0.516310
H1491	H149	0.580630	0.871840	0.369940
H1501	H150	0.535500	0.925620	0.379510
H1511	H151	0.554480	0.977310	0.422940
H1521	H152	0.619070	0.893090	0.479320
H1531	H153	0.636790	0.967220	0.483260
H1541	H154	0.584920	0.987380	0.490830
C1831	C183	0.700000	0.139000	0.032000
C1841	C184	0.718000	0.078000	0.023000
C1851	C185	0.560000	0.184000	0.999000
C1861	C186	0.546000	0.193000	0.965000
C1871	C187	0.572000	0.206000	0.940000
C1881	C188	0.611000	0.204000	0.948000
C1891	C189	0.626000	0.195000	0.981000
C1901	C190	0.579000	0.112000	0.102000
C1911	C191	0.560000	0.080000	0.100000
C1921	C192	0.568000	0.052000	0.074000
C1931	C193	0.591000	0.061000	0.047000
C1941	C194	0.602000	0.096000	0.046000
C1951	C195	0.605000	0.034000	0.023000
N571	N57	0.676000	0.148000	0.047000
N581	N58	0.701000	0.055000	0.031000
N591	N59	0.600000	0.191000	0.011000
N601	N60	0.594000	0.124000	0.076000
H1551	H155	0.540960	0.169950	0.021170
H1561	H156	0.514320	0.189440	0.959050
H1571	H157	0.562390	0.218870	0.911830
H1581	H158	0.632670	0.210500	0.924770
H1591	H159	0.658070	0.191010	0.983690
H1601	H160	0.580630	0.128160	0.130060
H1611	H161	0.535500	0.074380	0.120490
H1621	H162	0.554480	0.022690	0.077060
H1631	H163	0.619070	0.106910	0.020680
H1641	H164	0.636790	0.032780	0.016740
H1651	H165	0.584920	0.012620	0.009170
C1961	C196	0.200000	0.639000	0.532000
C1971	C197	0.218000	0.578000	0.523000
C1981	C198	0.060000	0.684000	0.499000
C1991	C199	0.046000	0.693000	0.465000
C2001	C200	0.072000	0.706000	0.440000
C2011	C201	0.111000	0.704000	0.448000
C2021	C202	0.126000	0.695000	0.481000
C2031	C203	0.079000	0.612000	0.602000
C2041	C204	0.060000	0.580000	0.600000
C2051	C205	0.068000	0.552000	0.574000
C2061	C206	0.091000	0.561000	0.547000
C2071	C207	0.102000	0.596000	0.546000
C2081	C208	0.105000	0.534000	0.523000
N611	N61	0.176000	0.648000	0.547000
N621	N62	0.201000	0.555000	0.531000
N631	N63	0.100000	0.691000	0.511000
N641	N64	0.094000	0.624000	0.576000
H1661	H166	0.040960	0.669950	0.521170
H1671	H167	0.014320	0.689440	0.459050
H1681	H168	0.062390	0.718870	0.411830
H1691	H169	0.132670	0.710500	0.424770
H1701	H170	0.158070	0.691010	0.483690
H1711	H171	0.080630	0.628160	0.630060
H1721	H172	0.035500	0.574380	0.620490
H1731	H173	0.054480	0.522690	0.577060
H1741	H174	0.119070	0.606910	0.520680
H1751	H175	0.136790	0.532780	0.516740
H1761	H176	0.084920	0.512620	0.509170
C2091	C209	0.468000	0.300000	0.639000
C2101	C210	0.477000	0.282000	0.578000
C2111	C211	0.501000	0.440000	0.684000
C2121	C212	0.535000	0.454000	0.693000
C2131	C213	0.560000	0.428000	0.706000
C2141	C214	0.552000	0.389000	0.704000
C2151	C215	0.519000	0.374000	0.695000
C2161	C216	0.398000	0.421000	0.612000
C2171	C217	0.400000	0.440000	0.580000
C2181	C218	0.426000	0.432000	0.552000
C2191	C219	0.453000	0.409000	0.561000
C2201	C220	0.454000	0.398000	0.596000
C2211	C221	0.477000	0.395000	0.534000
N651	N65	0.453000	0.324000	0.648000
N661	N66	0.469000	0.299000	0.555000
N671	N67	0.489000	0.400000	0.691000
N681	N68	0.424000	0.406000	0.624000
H1771	H177	0.478830	0.459040	0.669950
H1781	H178	0.540950	0.485680	0.689440
H1791	H179	0.588170	0.437610	0.718870
H1801	H180	0.575230	0.367330	0.710500
H1811	H181	0.516310	0.341930	0.691010
H1821	H182	0.369940	0.419370	0.628160
H1831	H183	0.379510	0.464500	0.574380
H1841	H184	0.422940	0.445520	0.522690
H1851	H185	0.479320	0.380930	0.606910
H1861	H186	0.483260	0.363210	0.532780
H1871	H187	0.490830	0.415080	0.512620
C2221	C222	0.968000	0.800000	0.139000
C2231	C223	0.977000	0.782000	0.078000
C2241	C224	0.001000	0.940000	0.184000
C2251	C225	0.035000	0.954000	0.193000
C2261	C226	0.060000	0.928000	0.206000
C2271	C227	0.052000	0.889000	0.204000
C2281	C228	0.019000	0.874000	0.195000
C2291	C229	0.898000	0.921000	0.112000
C2301	C230	0.900000	0.940000	0.080000
C2311	C231	0.926000	0.932000	0.052000
C2321	C232	0.953000	0.909000	0.061000
C2331	C233	0.954000	0.898000	0.096000
C2341	C234	0.977000	0.895000	0.034000
N691	N69	0.953000	0.824000	0.148000
N701	N70	0.969000	0.799000	0.055000
N711	N71	0.989000	0.900000	0.191000
N721	N72	0.924000	0.906000	0.124000
H1881	H188	0.978830	0.959040	0.169950
H1891	H189	0.040950	0.985680	0.189440
H1901	H190	0.088170	0.937610	0.218870
H1911	H191	0.075230	0.867330	0.210500
H1921	H192	0.016310	0.841930	0.191010
H1931	H193	0.869940	0.919370	0.128160
H1941	H194	0.879510	0.964500	0.074380
H1951	H195	0.922940	0.945520	0.022690
H1961	H196	0.979320	0.880930	0.106910
H1971	H197	0.983260	0.863210	0.032780
H1981	H198	0.990830	0.915080	0.012620
C2351	C235	0.532000	0.800000	0.861000
C2361	C236	0.523000	0.782000	0.922000
C2371	C237	0.499000	0.940000	0.816000
C2381	C238	0.465000	0.954000	0.807000
C2391	C239	0.440000	0.928000	0.794000
C2401	C240	0.448000	0.889000	0.796000
C2411	C241	0.481000	0.874000	0.805000
C2421	C242	0.602000	0.921000	0.888000
C2431	C243	0.600000	0.940000	0.920000
C2441	C244	0.574000	0.932000	0.948000
C2451	C245	0.547000	0.909000	0.939000
C2461	C246	0.546000	0.898000	0.904000
C2471	C247	0.523000	0.895000	0.966000
N731	N73	0.547000	0.824000	0.852000
N741	N74	0.531000	0.799000	0.945000
N751	N75	0.511000	0.900000	0.809000
N761	N76	0.576000	0.906000	0.876000
H1991	H199	0.521170	0.959040	0.830050
H2001	H200	0.459050	0.985680	0.810560
H2011	H201	0.411830	0.937610	0.781130
H2021	H202	0.424770	0.867330	0.789500
H2031	H203	0.483690	0.841930	0.808990
H2041	H204	0.630060	0.919370	0.871840
H2051	H205	0.620490	0.964500	0.925620
H2061	H206	0.577060	0.945520	0.977310
H2071	H207	0.520680	0.880930	0.893090
H2081	H208	0.516740	0.863210	0.967220
H2091	H209	0.509170	0.915080	0.987380
C2481	C248	0.032000	0.300000	0.361000
C2491	C249	0.023000	0.282000	0.422000
C2501	C250	0.999000	0.440000	0.316000
C2511	C251	0.965000	0.454000	0.307000
C2521	C252	0.940000	0.428000	0.294000
C2531	C253	0.948000	0.389000	0.296000
C2541	C254	0.981000	0.374000	0.305000
C2551	C255	0.102000	0.421000	0.388000
C2561	C256	0.100000	0.440000	0.420000
C2571	C257	0.074000	0.432000	0.448000
C2581	C258	0.047000	0.409000	0.439000
C2591	C259	0.046000	0.398000	0.404000
C2601	C260	0.023000	0.395000	0.466000
N771	N77	0.047000	0.324000	0.352000
N781	N78	0.031000	0.299000	0.445000
N791	N79	0.011000	0.400000	0.309000
N801	N80	0.076000	0.406000	0.376000
H2101	H210	0.021170	0.459040	0.330050
H2111	H211	0.959050	0.485680	0.310560
H2121	H212	0.911830	0.437610	0.281130
H2131	H213	0.924770	0.367330	0.289500
H2141	H214	0.983690	0.341930	0.308990
H2151	H215	0.130060	0.419370	0.371840
H2161	H216	0.120490	0.464500	0.425620
H2171	H217	0.077060	0.445520	0.477310
H2181	H218	0.020680	0.380930	0.393090
H2191	H219	0.016740	0.363210	0.467220
H2201	H220	0.009170	0.415080	0.487380
C2611	C261	0.968000	0.200000	0.361000
C2621	C262	0.977000	0.218000	0.422000
C2631	C263	0.001000	0.060000	0.316000
C2641	C264	0.035000	0.046000	0.307000
C2651	C265	0.060000	0.072000	0.294000
C2661	C266	0.052000	0.111000	0.296000
C2671	C267	0.019000	0.126000	0.305000
C2681	C268	0.898000	0.079000	0.388000
C2691	C269	0.900000	0.060000	0.420000
C2701	C270	0.926000	0.068000	0.448000
C2711	C271	0.953000	0.091000	0.439000
C2721	C272	0.954000	0.102000	0.404000
C2731	C273	0.977000	0.105000	0.466000
N811	N81	0.953000	0.176000	0.352000
N821	N82	0.969000	0.201000	0.445000
N831	N83	0.989000	0.100000	0.309000
N841	N84	0.924000	0.094000	0.376000
H2211	H221	0.978830	0.040960	0.330050
H2221	H222	0.040950	0.014320	0.310560
H2231	H223	0.088170	0.062390	0.281130
H2241	H224	0.075230	0.132670	0.289500
H2251	H225	0.016310	0.158070	0.308990
H2261	H226	0.869940	0.080630	0.371840
H2271	H227	0.879510	0.035500	0.425620
H2281	H228	0.922940	0.054480	0.477310
H2291	H229	0.979320	0.119070	0.393090
H2301	H230	0.983260	0.136790	0.467220
H2311	H231	0.990830	0.084920	0.487380
C2741	C274	0.468000	0.700000	0.861000
C2751	C275	0.477000	0.718000	0.922000
C2761	C276	0.501000	0.560000	0.816000
C2771	C277	0.535000	0.546000	0.807000
C2781	C278	0.560000	0.572000	0.794000
C2791	C279	0.552000	0.611000	0.796000
C2801	C280	0.519000	0.626000	0.805000
C2811	C281	0.398000	0.579000	0.888000
C2821	C282	0.400000	0.560000	0.920000
C2831	C283	0.426000	0.568000	0.948000
C2841	C284	0.453000	0.591000	0.939000
C2851	C285	0.454000	0.602000	0.904000
C2861	C286	0.477000	0.605000	0.966000
N851	N85	0.453000	0.676000	0.852000
N861	N86	0.469000	0.701000	0.945000
N871	N87	0.489000	0.600000	0.809000
N881	N88	0.424000	0.594000	0.876000
H2321	H232	0.478830	0.540960	0.830050
H2331	H233	0.540950	0.514320	0.810560
H2341	H234	0.588170	0.562390	0.781130
H2351	H235	0.575230	0.632670	0.789500
H2361	H236	0.516310	0.658070	0.808990
H2371	H237	0.369940	0.580630	0.871840
H2381	H238	0.379510	0.535500	0.925620
H2391	H239	0.422940	0.554480	0.977310
H2401	H240	0.479320	0.619070	0.893090
H2411	H241	0.483260	0.636790	0.967220
H2421	H242	0.490830	0.584920	0.987380
C2871	C287	0.032000	0.700000	0.139000
C2881	C288	0.023000	0.718000	0.078000
C2891	C289	0.999000	0.560000	0.184000
C2901	C290	0.965000	0.546000	0.193000
C2911	C291	0.940000	0.572000	0.206000
C2921	C292	0.948000	0.611000	0.204000
C2931	C293	0.981000	0.626000	0.195000
C2941	C294	0.102000	0.579000	0.112000
C2951	C295	0.100000	0.560000	0.080000
C2961	C296	0.074000	0.568000	0.052000
C2971	C297	0.047000	0.591000	0.061000
C2981	C298	0.046000	0.602000	0.096000
C2991	C299	0.023000	0.605000	0.034000
N891	N89	0.047000	0.676000	0.148000
N901	N90	0.031000	0.701000	0.055000
N911	N91	0.011000	0.600000	0.191000
N921	N92	0.076000	0.594000	0.124000
H2431	H243	0.021170	0.540960	0.169950
H2441	H244	0.959050	0.514320	0.189440
H2451	H245	0.911830	0.562390	0.218870
H2461	H246	0.924770	0.632670	0.210500
H2471	H247	0.983690	0.658070	0.191010
H2481	H248	0.130060	0.580630	0.128160
H2491	H249	0.120490	0.535500	0.074380
H2501	H250	0.077060	0.554480	0.022690
H2511	H251	0.020680	0.619070	0.106910
H2521	H252	0.016740	0.636790	0.032780
H2531	H253	0.009170	0.584920	0.012620
C3001	C300	0.532000	0.200000	0.639000
C3011	C301	0.523000	0.218000	0.578000
C3021	C302	0.499000	0.060000	0.684000
C3031	C303	0.465000	0.046000	0.693000
C3041	C304	0.440000	0.072000	0.706000
C3051	C305	0.448000	0.111000	0.704000
C3061	C306	0.481000	0.126000	0.695000
C3071	C307	0.602000	0.079000	0.612000
C3081	C308	0.600000	0.060000	0.580000
C3091	C309	0.574000	0.068000	0.552000
C3101	C310	0.547000	0.091000	0.561000
C3111	C311	0.546000	0.102000	0.596000
C3121	C312	0.523000	0.105000	0.534000
N931	N93	0.547000	0.176000	0.648000
N941	N94	0.531000	0.201000	0.555000
N951	N95	0.511000	0.100000	0.691000
N961	N96	0.576000	0.094000	0.624000
H2541	H254	0.521170	0.040960	0.669950
H2551	H255	0.459050	0.014320	0.689440
H2561	H256	0.411830	0.062390	0.718870
H2571	H257	0.424770	0.132670	0.710500
H2581	H258	0.483690	0.158070	0.691010
H2591	H259	0.630060	0.080630	0.628160
H2601	H260	0.620490	0.035500	0.574380
H2611	H261	0.577060	0.054480	0.522690
H2621	H262	0.520680	0.119070	0.606910
H2631	H263	0.516740	0.136790	0.532780
H2641	H264	0.509170	0.084920	0.512620
C3131	C313	0.218000	0.889000	0.950000
C3141	C314	0.227000	0.828000	0.968000
C3151	C315	0.251000	0.934000	0.810000
C3161	C316	0.285000	0.943000	0.796000
C3171	C317	0.310000	0.956000	0.822000
C3181	C318	0.302000	0.954000	0.861000
C3191	C319	0.269000	0.945000	0.876000
C3201	C320	0.148000	0.862000	0.829000
C3211	C321	0.150000	0.830000	0.810000
C3221	C322	0.176000	0.802000	0.818000
C3231	C323	0.203000	0.811000	0.841000
C3241	C324	0.204000	0.846000	0.852000
C3251	C325	0.227000	0.784000	0.855000
N971	N97	0.203000	0.898000	0.926000
N981	N98	0.219000	0.805000	0.951000
N991	N99	0.239000	0.941000	0.850000
N1001	N100	0.174000	0.874000	0.844000
H2651	H265	0.228830	0.919950	0.790960
H2661	H266	0.290950	0.939440	0.764320
H2671	H267	0.338170	0.968870	0.812390
H2681	H268	0.325230	0.960500	0.882670
H2691	H269	0.266310	0.941010	0.908070
H2701	H270	0.119940	0.878160	0.830630
H2711	H271	0.129510	0.824380	0.785500
H2721	H272	0.172940	0.772690	0.804480
H2731	H273	0.229320	0.856910	0.869070
H2741	H274	0.233260	0.782780	0.886790
H2751	H275	0.240830	0.762620	0.834920
C3261	C326	0.718000	0.389000	0.450000
C3271	C327	0.727000	0.328000	0.468000
C3281	C328	0.751000	0.434000	0.310000
C3291	C329	0.785000	0.443000	0.296000
C3301	C330	0.810000	0.456000	0.322000
C3311	C331	0.802000	0.454000	0.361000
C3321	C332	0.769000	0.445000	0.376000
C3331	C333	0.648000	0.362000	0.329000
C3341	C334	0.650000	0.330000	0.310000
C3351	C335	0.676000	0.302000	0.318000
C3361	C336	0.703000	0.311000	0.341000
C3371	C337	0.704000	0.346000	0.352000
C3381	C338	0.727000	0.284000	0.355000
N1011	N101	0.703000	0.398000	0.426000
N1021	N102	0.719000	0.305000	0.451000
N1031	N103	0.739000	0.441000	0.350000
N1041	N104	0.674000	0.374000	0.344000
H2761	H276	0.728830	0.419950	0.290960
H2771	H277	0.790950	0.439440	0.264320
H2781	H278	0.838170	0.468870	0.312390
H2791	H279	0.825230	0.460500	0.382670
H2801	H280	0.766310	0.441010	0.408070
H2811	H281	0.619940	0.378160	0.330630
H2821	H282	0.629510	0.324380	0.285500
H2831	H283	0.672940	0.272690	0.304480
H2841	H284	0.729320	0.356910	0.369070
H2851	H285	0.733260	0.282780	0.386790
H2861	H286	0.740830	0.262620	0.334920
C3391	C339	0.282000	0.111000	0.450000
C3401	C340	0.273000	0.172000	0.468000
C3411	C341	0.249000	0.066000	0.310000
C3421	C342	0.215000	0.057000	0.296000
C3431	C343	0.190000	0.044000	0.322000
C3441	C344	0.198000	0.046000	0.361000
C3451	C345	0.231000	0.055000	0.376000
C3461	C346	0.352000	0.138000	0.329000
C3471	C347	0.350000	0.170000	0.310000
C3481	C348	0.324000	0.198000	0.318000
C3491	C349	0.297000	0.189000	0.341000
C3501	C350	0.296000	0.154000	0.352000
C3511	C351	0.273000	0.216000	0.355000
N1051	N105	0.297000	0.102000	0.426000
N1061	N106	0.281000	0.195000	0.451000
N1071	N107	0.261000	0.059000	0.350000
N1081	N108	0.326000	0.126000	0.344000
H2871	H287	0.271170	0.080050	0.290960
H2881	H288	0.209050	0.060560	0.264320
H2891	H289	0.161830	0.031130	0.312390
H2901	H290	0.174770	0.039500	0.382670
H2911	H291	0.233690	0.058990	0.408070
H2921	H292	0.380060	0.121840	0.330630
H2931	H293	0.370490	0.175620	0.285500
H2941	H294	0.327060	0.227310	0.304480
H2951	H295	0.270680	0.143090	0.369070
H2961	H296	0.266740	0.217220	0.386790
H2971	H297	0.259170	0.237380	0.334920
C3521	C352	0.782000	0.611000	0.950000
C3531	C353	0.773000	0.672000	0.968000
C3541	C354	0.749000	0.566000	0.810000
C3551	C355	0.715000	0.557000	0.796000
C3561	C356	0.690000	0.544000	0.822000
C3571	C357	0.698000	0.546000	0.861000
C3581	C358	0.731000	0.555000	0.876000
C3591	C359	0.852000	0.638000	0.829000
C3601	C360	0.850000	0.670000	0.810000
C3611	C361	0.824000	0.698000	0.818000
C3621	C362	0.797000	0.689000	0.841000
C3631	C363	0.796000	0.654000	0.852000
C3641	C364	0.773000	0.716000	0.855000
N1091	N109	0.797000	0.602000	0.926000
N1101	N110	0.781000	0.695000	0.951000
N1111	N111	0.761000	0.559000	0.850000
N1121	N112	0.826000	0.626000	0.844000
H2981	H298	0.771170	0.580050	0.790960
H2991	H299	0.709050	0.560560	0.764320
H3001	H300	0.661830	0.531130	0.812390
H3011	H301	0.674770	0.539500	0.882670
H3021	H302	0.733690	0.558990	0.908070
H3031	H303	0.880060	0.621840	0.830630
H3041	H304	0.870490	0.675620	0.785500
H3051	H305	0.827060	0.727310	0.804480
H3061	H306	0.770680	0.643090	0.869070
H3071	H307	0.766740	0.717220	0.886790
H3081	H308	0.759170	0.737380	0.834920
C3651	C365	0.718000	0.611000	0.050000
C3661	C366	0.727000	0.672000	0.032000
C3671	C367	0.751000	0.566000	0.190000
C3681	C368	0.785000	0.557000	0.204000
C3691	C369	0.810000	0.544000	0.178000
C3701	C370	0.802000	0.546000	0.139000
C3711	C371	0.769000	0.555000	0.124000
C3721	C372	0.648000	0.638000	0.171000
C3731	C373	0.650000	0.670000	0.190000
C3741	C374	0.676000	0.698000	0.182000
C3751	C375	0.703000	0.689000	0.159000
C3761	C376	0.704000	0.654000	0.148000
C3771	C377	0.727000	0.716000	0.145000
N1131	N113	0.703000	0.602000	0.074000
N1141	N114	0.719000	0.695000	0.049000
N1151	N115	0.739000	0.559000	0.150000
N1161	N116	0.674000	0.626000	0.156000
H3091	H309	0.728830	0.580050	0.209040
H3101	H310	0.790950	0.560560	0.235680
H3111	H311	0.838170	0.531130	0.187610
H3121	H312	0.825230	0.539500	0.117330
H3131	H313	0.766310	0.558990	0.091930
H3141	H314	0.619940	0.621840	0.169370
H3151	H315	0.629510	0.675620	0.214500
H3161	H316	0.672940	0.727310	0.195520
H3171	H317	0.729320	0.643090	0.130930
H3181	H318	0.733260	0.717220	0.113210
H3191	H319	0.740830	0.737380	0.165080
C3781	C378	0.218000	0.111000	0.550000
C3791	C379	0.227000	0.172000	0.532000
C3801	C380	0.251000	0.066000	0.690000
C3811	C381	0.285000	0.057000	0.704000
C3821	C382	0.310000	0.044000	0.678000
C3831	C383	0.302000	0.046000	0.639000
C3841	C384	0.269000	0.055000	0.624000
C3851	C385	0.148000	0.138000	0.671000
C3861	C386	0.150000	0.170000	0.690000
C3871	C387	0.176000	0.198000	0.682000
C3881	C388	0.203000	0.189000	0.659000
C3891	C389	0.204000	0.154000	0.648000
C3901	C390	0.227000	0.216000	0.645000
N1171	N117	0.203000	0.102000	0.574000
N1181	N118	0.219000	0.195000	0.549000
N1191	N119	0.239000	0.059000	0.650000
N1201	N120	0.174000	0.126000	0.656000
H3201	H320	0.228830	0.080050	0.709040
H3211	H321	0.290950	0.060560	0.735680
H3221	H322	0.338170	0.031130	0.687610
H3231	H323	0.325230	0.039500	0.617330
H3241	H324	0.266310	0.058990	0.591930
H3251	H325	0.119940	0.121840	0.669370
H3261	H326	0.129510	0.175620	0.714500
H3271	H327	0.172940	0.227310	0.695520
H3281	H328	0.229320	0.143090	0.630930
H3291	H329	0.233260	0.217220	0.613210
H3301	H330	0.240830	0.237380	0.665080
C3911	C391	0.782000	0.389000	0.550000
C3921	C392	0.773000	0.328000	0.532000
C3931	C393	0.749000	0.434000	0.690000
C3941	C394	0.715000	0.443000	0.704000
C3951	C395	0.690000	0.456000	0.678000
C3961	C396	0.698000	0.454000	0.639000
C3971	C397	0.731000	0.445000	0.624000
C3981	C398	0.852000	0.362000	0.671000
C3991	C399	0.850000	0.330000	0.690000
C4001	C400	0.824000	0.302000	0.682000
C4011	C401	0.797000	0.311000	0.659000
C4021	C402	0.796000	0.346000	0.648000
C4031	C403	0.773000	0.284000	0.645000
N1211	N121	0.797000	0.398000	0.574000
N1221	N122	0.781000	0.305000	0.549000
N1231	N123	0.761000	0.441000	0.650000
N1241	N124	0.826000	0.374000	0.656000
H3311	H331	0.771170	0.419950	0.709040
H3321	H332	0.709050	0.439440	0.735680
H3331	H333	0.661830	0.468870	0.687610
H3341	H334	0.674770	0.460500	0.617330
H3351	H335	0.733690	0.441010	0.591930
H3361	H336	0.880060	0.378160	0.669370
H3371	H337	0.870490	0.324380	0.714500
H3381	H338	0.827060	0.272690	0.695520
H3391	H339	0.770680	0.356910	0.630930
H3401	H340	0.766740	0.282780	0.613210
H3411	H341	0.759170	0.262620	0.665080
C4041	C404	0.282000	0.889000	0.050000
C4051	C405	0.273000	0.828000	0.032000
C4061	C406	0.249000	0.934000	0.190000
C4071	C407	0.215000	0.943000	0.204000
C4081	C408	0.190000	0.956000	0.178000
C4091	C409	0.198000	0.954000	0.139000
C4101	C410	0.231000	0.945000	0.124000
C4111	C411	0.352000	0.862000	0.171000
C4121	C412	0.350000	0.830000	0.190000
C4131	C413	0.324000	0.802000	0.182000
C4141	C414	0.297000	0.811000	0.159000
C4151	C415	0.296000	0.846000	0.148000
C4161	C416	0.273000	0.784000	0.145000
N1251	N125	0.297000	0.898000	0.074000
N1261	N126	0.281000	0.805000	0.049000
N1271	N127	0.261000	0.941000	0.150000
N1281	N128	0.326000	0.874000	0.156000
H3421	H342	0.271170	0.919950	0.209040
H3431	H343	0.209050	0.939440	0.235680
H3441	H344	0.161830	0.968870	0.187610
H3451	H345	0.174770	0.960500	0.117330
H3461	H346	0.233690	0.941010	0.091930
H3471	H347	0.380060	0.878160	0.169370
H3481	H348	0.370490	0.824380	0.214500
H3491	H349	0.327060	0.772690	0.195520
H3501	H350	0.270680	0.856910	0.130930
H3511	H351	0.266740	0.782780	0.113210
H3521	H352	0.259170	0.762620	0.165080
C4171	C417	0.389000	0.550000	0.782000
C4181	C418	0.328000	0.532000	0.773000
C4191	C419	0.434000	0.690000	0.749000
C4201	C420	0.443000	0.704000	0.715000
C4211	C421	0.456000	0.678000	0.690000
C4221	C422	0.454000	0.639000	0.698000
C4231	C423	0.445000	0.624000	0.731000
C4241	C424	0.362000	0.671000	0.852000
C4251	C425	0.330000	0.690000	0.850000
C4261	C426	0.302000	0.682000	0.824000
C4271	C427	0.311000	0.659000	0.797000
C4281	C428	0.346000	0.648000	0.796000
C4291	C429	0.284000	0.645000	0.773000
N1291	N129	0.398000	0.574000	0.797000
N1301	N130	0.305000	0.549000	0.781000
N1311	N131	0.441000	0.650000	0.761000
N1321	N132	0.374000	0.656000	0.826000
H3531	H353	0.419950	0.709040	0.771170
H3541	H354	0.439440	0.735680	0.709050
H3551	H355	0.468870	0.687610	0.661830
H3561	H356	0.460500	0.617330	0.674770
H3571	H357	0.441010	0.591930	0.733690
H3581	H358	0.378160	0.669370	0.880060
H3591	H359	0.324380	0.714500	0.870490
H3601	H360	0.272690	0.695520	0.827060
H3611	H361	0.356910	0.630930	0.770680
H3621	H362	0.282780	0.613210	0.766740
H3631	H363	0.262620	0.665080	0.759170
C4301	C430	0.889000	0.050000	0.282000
C4311	C431	0.828000	0.032000	0.273000
C4321	C432	0.934000	0.190000	0.249000
C4331	C433	0.943000	0.204000	0.215000
C4341	C434	0.956000	0.178000	0.190000
C4351	C435	0.954000	0.139000	0.198000
C4361	C436	0.945000	0.124000	0.231000
C4371	C437	0.862000	0.171000	0.352000
C4381	C438	0.830000	0.190000	0.350000
C4391	C439	0.802000	0.182000	0.324000
C4401	C440	0.811000	0.159000	0.297000
C4411	C441	0.846000	0.148000	0.296000
C4421	C442	0.784000	0.145000	0.273000
N1331	N133	0.898000	0.074000	0.297000
N1341	N134	0.805000	0.049000	0.281000
N1351	N135	0.941000	0.150000	0.261000
N1361	N136	0.874000	0.156000	0.326000
H3641	H364	0.919950	0.209040	0.271170
H3651	H365	0.939440	0.235680	0.209050
H3661	H366	0.968870	0.187610	0.161830
H3671	H367	0.960500	0.117330	0.174770
H3681	H368	0.941010	0.091930	0.233690
H3691	H369	0.878160	0.169370	0.380060
H3701	H370	0.824380	0.214500	0.370490
H3711	H371	0.772690	0.195520	0.327060
H3721	H372	0.856910	0.130930	0.270680
H3731	H373	0.782780	0.113210	0.266740
H3741	H374	0.762620	0.165080	0.259170
C4431	C443	0.611000	0.050000	0.718000
C4441	C444	0.672000	0.032000	0.727000
C4451	C445	0.566000	0.190000	0.751000
C4461	C446	0.557000	0.204000	0.785000
C4471	C447	0.544000	0.178000	0.810000
C4481	C448	0.546000	0.139000	0.802000
C4491	C449	0.555000	0.124000	0.769000
C4501	C450	0.638000	0.171000	0.648000
C4511	C451	0.670000	0.190000	0.650000
C4521	C452	0.698000	0.182000	0.676000
C4531	C453	0.689000	0.159000	0.703000
C4541	C454	0.654000	0.148000	0.704000
C4551	C455	0.716000	0.145000	0.727000
N1371	N137	0.602000	0.074000	0.703000
N1381	N138	0.695000	0.049000	0.719000
N1391	N139	0.559000	0.150000	0.739000
N1401	N140	0.626000	0.156000	0.674000
H3751	H375	0.580050	0.209040	0.728830
H3761	H376	0.560560	0.235680	0.790950
H3771	H377	0.531130	0.187610	0.838170
H3781	H378	0.539500	0.117330	0.825230
H3791	H379	0.558990	0.091930	0.766310
H3801	H380	0.621840	0.169370	0.619940
H3811	H381	0.675620	0.214500	0.629510
H3821	H382	0.727310	0.195520	0.672940
H3831	H383	0.643090	0.130930	0.729320
H3841	H384	0.717220	0.113210	0.733260
H3851	H385	0.737380	0.165080	0.740830
C4561	C456	0.111000	0.550000	0.218000
C4571	C457	0.172000	0.532000	0.227000
C4581	C458	0.066000	0.690000	0.251000
C4591	C459	0.057000	0.704000	0.285000
C4601	C460	0.044000	0.678000	0.310000
C4611	C461	0.046000	0.639000	0.302000
C4621	C462	0.055000	0.624000	0.269000
C4631	C463	0.138000	0.671000	0.148000
C4641	C464	0.170000	0.690000	0.150000
C4651	C465	0.198000	0.682000	0.176000
C4661	C466	0.189000	0.659000	0.203000
C4671	C467	0.154000	0.648000	0.204000
C4681	C468	0.216000	0.645000	0.227000
N1411	N141	0.102000	0.574000	0.203000
N1421	N142	0.195000	0.549000	0.219000
N1431	N143	0.059000	0.650000	0.239000
N1441	N144	0.126000	0.656000	0.174000
H3861	H386	0.080050	0.709040	0.228830
H3871	H387	0.060560	0.735680	0.290950
H3881	H388	0.031130	0.687610	0.338170
H3891	H389	0.039500	0.617330	0.325230
H3901	H390	0.058990	0.591930	0.266310
H3911	H391	0.121840	0.669370	0.119940
H3921	H392	0.175620	0.714500	0.129510
H3931	H393	0.227310	0.695520	0.172940
H3941	H394	0.143090	0.630930	0.229320
H3951	H395	0.217220	0.613210	0.233260
H3961	H396	0.237380	0.665080	0.240830
C4691	C469	0.111000	0.450000	0.282000
C4701	C470	0.172000	0.468000	0.273000
C4711	C471	0.066000	0.310000	0.249000
C4721	C472	0.057000	0.296000	0.215000
C4731	C473	0.044000	0.322000	0.190000
C4741	C474	0.046000	0.361000	0.198000
C4751	C475	0.055000	0.376000	0.231000
C4761	C476	0.138000	0.329000	0.352000
C4771	C477	0.170000	0.310000	0.350000
C4781	C478	0.198000	0.318000	0.324000
C4791	C479	0.189000	0.341000	0.297000
C4801	C480	0.154000	0.352000	0.296000
C4811	C481	0.216000	0.355000	0.273000
N1451	N145	0.102000	0.426000	0.297000
N1461	N146	0.195000	0.451000	0.281000
N1471	N147	0.059000	0.350000	0.261000
N1481	N148	0.126000	0.344000	0.326000
H3971	H397	0.080050	0.290960	0.271170
H3981	H398	0.060560	0.264320	0.209050
H3991	H399	0.031130	0.312390	0.161830
H4001	H400	0.039500	0.382670	0.174770
H4011	H401	0.058990	0.408070	0.233690
H4021	H402	0.121840	0.330630	0.380060
H4031	H403	0.175620	0.285500	0.370490
H4041	H404	0.227310	0.304480	0.327060
H4051	H405	0.143090	0.369070	0.270680
H4061	H406	0.217220	0.386790	0.266740
H4071	H407	0.237380	0.334920	0.259170
C4821	C482	0.611000	0.950000	0.782000
C4831	C483	0.672000	0.968000	0.773000
C4841	C484	0.566000	0.810000	0.749000
C4851	C485	0.557000	0.796000	0.715000
C4861	C486	0.544000	0.822000	0.690000
C4871	C487	0.546000	0.861000	0.698000
C4881	C488	0.555000	0.876000	0.731000
C4891	C489	0.638000	0.829000	0.852000
C4901	C490	0.670000	0.810000	0.850000
C4911	C491	0.698000	0.818000	0.824000
C4921	C492	0.689000	0.841000	0.797000
C4931	C493	0.654000	0.852000	0.796000
C4941	C494	0.716000	0.855000	0.773000
N1491	N149	0.602000	0.926000	0.797000
N1501	N150	0.695000	0.951000	0.781000
N1511	N151	0.559000	0.850000	0.761000
N1521	N152	0.626000	0.844000	0.826000
H4081	H408	0.580050	0.790960	0.771170
H4091	H409	0.560560	0.764320	0.709050
H4101	H410	0.531130	0.812390	0.661830
H4111	H411	0.539500	0.882670	0.674770
H4121	H412	0.558990	0.908070	0.733690
H4131	H413	0.621840	0.830630	0.880060
H4141	H414	0.675620	0.785500	0.870490
H4151	H415	0.727310	0.804480	0.827060
H4161	H416	0.643090	0.869070	0.770680
H4171	H417	0.717220	0.886790	0.766740
H4181	H418	0.737380	0.834920	0.759170
C4951	C495	0.889000	0.950000	0.218000
C4961	C496	0.828000	0.968000	0.227000
C4971	C497	0.934000	0.810000	0.251000
C4981	C498	0.943000	0.796000	0.285000
C4991	C499	0.956000	0.822000	0.310000
C5001	C500	0.954000	0.861000	0.302000
C5011	C501	0.945000	0.876000	0.269000
C5021	C502	0.862000	0.829000	0.148000
C5031	C503	0.830000	0.810000	0.150000
C5041	C504	0.802000	0.818000	0.176000
C5051	C505	0.811000	0.841000	0.203000
C5061	C506	0.846000	0.852000	0.204000
C5071	C507	0.784000	0.855000	0.227000
N1531	N153	0.898000	0.926000	0.203000
N1541	N154	0.805000	0.951000	0.219000
N1551	N155	0.941000	0.850000	0.239000
N1561	N156	0.874000	0.844000	0.174000
H4191	H419	0.919950	0.790960	0.228830
H4201	H420	0.939440	0.764320	0.290950
H4211	H421	0.968870	0.812390	0.338170
H4221	H422	0.960500	0.882670	0.325230
H4231	H423	0.941010	0.908070	0.266310
H4241	H424	0.878160	0.830630	0.119940
H4251	H425	0.824380	0.785500	0.129510
H4261	H426	0.772690	0.804480	0.172940
H4271	H427	0.856910	0.869070	0.229320
H4281	H428	0.782780	0.886790	0.233260
H4291	H429	0.762620	0.834920	0.240830
C5081	C508	0.389000	0.450000	0.718000
C5091	C509	0.328000	0.468000	0.727000
C5101	C510	0.434000	0.310000	0.751000
C5111	C511	0.443000	0.296000	0.785000
C5121	C512	0.456000	0.322000	0.810000
C5131	C513	0.454000	0.361000	0.802000
C5141	C514	0.445000	0.376000	0.769000
C5151	C515	0.362000	0.329000	0.648000
C5161	C516	0.330000	0.310000	0.650000
C5171	C517	0.302000	0.318000	0.676000
C5181	C518	0.311000	0.341000	0.703000
C5191	C519	0.346000	0.352000	0.704000
C5201	C520	0.284000	0.355000	0.727000
N1571	N157	0.398000	0.426000	0.703000
N1581	N158	0.305000	0.451000	0.719000
N1591	N159	0.441000	0.350000	0.739000
N1601	N160	0.374000	0.344000	0.674000
H4301	H430	0.419950	0.290960	0.728830
H4311	H431	0.439440	0.264320	0.790950
H4321	H432	0.468870	0.312390	0.838170
H4331	H433	0.460500	0.382670	0.825230
H4341	H434	0.441010	0.408070	0.766310
H4351	H435	0.378160	0.330630	0.619940
H4361	H436	0.324380	0.285500	0.629510
H4371	H437	0.272690	0.304480	0.672940
H4381	H438	0.356910	0.369070	0.729320
H4391	H439	0.282780	0.386790	0.733260
H4401	H440	0.262620	0.334920	0.740830
C5211	C521	0.050000	0.718000	0.611000
C5221	C522	0.032000	0.727000	0.672000
C5231	C523	0.190000	0.751000	0.566000
C5241	C524	0.204000	0.785000	0.557000
C5251	C525	0.178000	0.810000	0.544000
C5261	C526	0.139000	0.802000	0.546000
C5271	C527	0.124000	0.769000	0.555000
C5281	C528	0.171000	0.648000	0.638000
C5291	C529	0.190000	0.650000	0.670000
C5301	C530	0.182000	0.676000	0.698000
C5311	C531	0.159000	0.703000	0.689000
C5321	C532	0.148000	0.704000	0.654000
C5331	C533	0.145000	0.727000	0.716000
N1611	N161	0.074000	0.703000	0.602000
N1621	N162	0.049000	0.719000	0.695000
N1631	N163	0.150000	0.739000	0.559000
N1641	N164	0.156000	0.674000	0.626000
H4411	H441	0.209040	0.728830	0.580050
H4421	H442	0.235680	0.790950	0.560560
H4431	H443	0.187610	0.838170	0.531130
H4441	H444	0.117330	0.825230	0.539500
H4451	H445	0.091930	0.766310	0.558990
H4461	H446	0.169370	0.619940	0.621840
H4471	H447	0.214500	0.629510	0.675620
H4481	H448	0.195520	0.672940	0.727310
H4491	H449	0.130930	0.729320	0.643090
H4501	H450	0.113210	0.733260	0.717220
H4511	H451	0.165080	0.740830	0.737380
C5341	C534	0.550000	0.218000	0.111000
C5351	C535	0.532000	0.227000	0.172000
C5361	C536	0.690000	0.251000	0.066000
C5371	C537	0.704000	0.285000	0.057000
C5381	C538	0.678000	0.310000	0.044000
C5391	C539	0.639000	0.302000	0.046000
C5401	C540	0.624000	0.269000	0.055000
C5411	C541	0.671000	0.148000	0.138000
C5421	C542	0.690000	0.150000	0.170000
C5431	C543	0.682000	0.176000	0.198000
C5441	C544	0.659000	0.203000	0.189000
C5451	C545	0.648000	0.204000	0.154000
C5461	C546	0.645000	0.227000	0.216000
N1651	N165	0.574000	0.203000	0.102000
N1661	N166	0.549000	0.219000	0.195000
N1671	N167	0.650000	0.239000	0.059000
N1681	N168	0.656000	0.174000	0.126000
H4521	H452	0.709040	0.228830	0.080050
H4531	H453	0.735680	0.290950	0.060560
H4541	H454	0.687610	0.338170	0.031130
H4551	H455	0.617330	0.325230	0.039500
H4561	H456	0.591930	0.266310	0.058990
H4571	H457	0.669370	0.119940	0.121840
H4581	H458	0.714500	0.129510	0.175620
H4591	H459	0.695520	0.172940	0.227310
H4601	H460	0.630930	0.229320	0.143090
H4611	H461	0.613210	0.233260	0.217220
H4621	H462	0.665080	0.240830	0.237380
C5471	C547	0.550000	0.782000	0.389000
C5481	C548	0.532000	0.773000	0.328000
C5491	C549	0.690000	0.749000	0.434000
C5501	C550	0.704000	0.715000	0.443000
C5511	C551	0.678000	0.690000	0.456000
C5521	C552	0.639000	0.698000	0.454000
C5531	C553	0.624000	0.731000	0.445000
C5541	C554	0.671000	0.852000	0.362000
C5551	C555	0.690000	0.850000	0.330000
C5561	C556	0.682000	0.824000	0.302000
C5571	C557	0.659000	0.797000	0.311000
C5581	C558	0.648000	0.796000	0.346000
C5591	C559	0.645000	0.773000	0.284000
N1691	N169	0.574000	0.797000	0.398000
N1701	N170	0.549000	0.781000	0.305000
N1711	N171	0.650000	0.761000	0.441000
N1721	N172	0.656000	0.826000	0.374000
H4631	H463	0.709040	0.771170	0.419950
H4641	H464	0.735680	0.709050	0.439440
H4651	H465	0.687610	0.661830	0.468870
H4661	H466	0.617330	0.674770	0.460500
H4671	H467	0.591930	0.733690	0.441010
H4681	H468	0.669370	0.880060	0.378160
H4691	H469	0.714500	0.870490	0.324380
H4701	H470	0.695520	0.827060	0.272690
H4711	H471	0.630930	0.770680	0.356910
H4721	H472	0.613210	0.766740	0.282780
H4731	H473	0.665080	0.759170	0.262620
C5601	C560	0.050000	0.282000	0.889000
C5611	C561	0.032000	0.273000	0.828000
C5621	C562	0.190000	0.249000	0.934000
C5631	C563	0.204000	0.215000	0.943000
C5641	C564	0.178000	0.190000	0.956000
C5651	C565	0.139000	0.198000	0.954000
C5661	C566	0.124000	0.231000	0.945000
C5671	C567	0.171000	0.352000	0.862000
C5681	C568	0.190000	0.350000	0.830000
C5691	C569	0.182000	0.324000	0.802000
C5701	C570	0.159000	0.297000	0.811000
C5711	C571	0.148000	0.296000	0.846000
C5721	C572	0.145000	0.273000	0.784000
N1731	N173	0.074000	0.297000	0.898000
N1741	N174	0.049000	0.281000	0.805000
N1751	N175	0.150000	0.261000	0.941000
N1761	N176	0.156000	0.326000	0.874000
H4741	H474	0.209040	0.271170	0.919950
H4751	H475	0.235680	0.209050	0.939440
H4761	H476	0.187610	0.161830	0.968870
H4771	H477	0.117330	0.174770	0.960500
H4781	H478	0.091930	0.233690	0.941010
H4791	H479	0.169370	0.380060	0.878160
H4801	H480	0.214500	0.370490	0.824380
H4811	H481	0.195520	0.327060	0.772690
H4821	H482	0.130930	0.270680	0.856910
H4831	H483	0.113210	0.266740	0.782780
H4841	H484	0.165080	0.259170	0.762620
C5731	C573	0.950000	0.218000	0.889000
C5741	C574	0.968000	0.227000	0.828000
C5751	C575	0.810000	0.251000	0.934000
C5761	C576	0.796000	0.285000	0.943000
C5771	C577	0.822000	0.310000	0.956000
C5781	C578	0.861000	0.302000	0.954000
C5791	C579	0.876000	0.269000	0.945000
C5801	C580	0.829000	0.148000	0.862000
C5811	C581	0.810000	0.150000	0.830000
C5821	C582	0.818000	0.176000	0.802000
C5831	C583	0.841000	0.203000	0.811000
C5841	C584	0.852000	0.204000	0.846000
C5851	C585	0.855000	0.227000	0.784000
N1771	N177	0.926000	0.203000	0.898000
N1781	N178	0.951000	0.219000	0.805000
N1791	N179	0.850000	0.239000	0.941000
N1801	N180	0.844000	0.174000	0.874000
H4851	H485	0.790960	0.228830	0.919950
H4861	H486	0.764320	0.290950	0.939440
H4871	H487	0.812390	0.338170	0.968870
H4881	H488	0.882670	0.325230	0.960500
H4891	H489	0.908070	0.266310	0.941010
H4901	H490	0.830630	0.119940	0.878160
H4911	H491	0.785500	0.129510	0.824380
H4921	H492	0.804480	0.172940	0.772690
H4931	H493	0.869070	0.229320	0.856910
H4941	H494	0.886790	0.233260	0.782780
H4951	H495	0.834920	0.240830	0.762620
C5861	C586	0.450000	0.718000	0.389000
C5871	C587	0.468000	0.727000	0.328000
C5881	C588	0.310000	0.751000	0.434000
C5891	C589	0.296000	0.785000	0.443000
C5901	C590	0.322000	0.810000	0.456000
C5911	C591	0.361000	0.802000	0.454000
C5921	C592	0.376000	0.769000	0.445000
C5931	C593	0.329000	0.648000	0.362000
C5941	C594	0.310000	0.650000	0.330000
C5951	C595	0.318000	0.676000	0.302000
C5961	C596	0.341000	0.703000	0.311000
C5971	C597	0.352000	0.704000	0.346000
C5981	C598	0.355000	0.727000	0.284000
N1811	N181	0.426000	0.703000	0.398000
N1821	N182	0.451000	0.719000	0.305000
N1831	N183	0.350000	0.739000	0.441000
N1841	N184	0.344000	0.674000	0.374000
H4961	H496	0.290960	0.728830	0.419950
H4971	H497	0.264320	0.790950	0.439440
H4981	H498	0.312390	0.838170	0.468870
H4991	H499	0.382670	0.825230	0.460500
H5001	H500	0.408070	0.766310	0.441010
H5011	H501	0.330630	0.619940	0.378160
H5021	H502	0.285500	0.629510	0.324380
H5031	H503	0.304480	0.672940	0.272690
H5041	H504	0.369070	0.729320	0.356910
H5051	H505	0.386790	0.733260	0.282780
H5061	H506	0.334920	0.740830	0.262620
C5991	C599	0.450000	0.282000	0.111000
C6001	C600	0.468000	0.273000	0.172000
C6011	C601	0.310000	0.249000	0.066000
C6021	C602	0.296000	0.215000	0.057000
C6031	C603	0.322000	0.190000	0.044000
C6041	C604	0.361000	0.198000	0.046000
C6051	C605	0.376000	0.231000	0.055000
C6061	C606	0.329000	0.352000	0.138000
C6071	C607	0.310000	0.350000	0.170000
C6081	C608	0.318000	0.324000	0.198000
C6091	C609	0.341000	0.297000	0.189000
C6101	C610	0.352000	0.296000	0.154000
C6111	C611	0.355000	0.273000	0.216000
N1851	N185	0.426000	0.297000	0.102000
N1861	N186	0.451000	0.281000	0.195000
N1871	N187	0.350000	0.261000	0.059000
N1881	N188	0.344000	0.326000	0.126000
H5071	H507	0.290960	0.271170	0.080050
H5081	H508	0.264320	0.209050	0.060560
H5091	H509	0.312390	0.161830	0.031130
H5101	H510	0.382670	0.174770	0.039500
H5111	H511	0.408070	0.233690	0.058990
H5121	H512	0.330630	0.380060	0.121840
H5131	H513	0.285500	0.370490	0.175620
H5141	H514	0.304480	0.327060	0.227310
H5151	H515	0.369070	0.270680	0.143090
H5161	H516	0.386790	0.266740	0.217220
H5171	H517	0.334920	0.259170	0.237380
C6121	C612	0.950000	0.782000	0.611000
C6131	C613	0.968000	0.773000	0.672000
C6141	C614	0.810000	0.749000	0.566000
C6151	C615	0.796000	0.715000	0.557000
C6161	C616	0.822000	0.690000	0.544000
C6171	C617	0.861000	0.698000	0.546000
C6181	C618	0.876000	0.731000	0.555000
C6191	C619	0.829000	0.852000	0.638000
C6201	C620	0.810000	0.850000	0.670000
C6211	C621	0.818000	0.824000	0.698000
C6221	C622	0.841000	0.797000	0.689000
C6231	C623	0.852000	0.796000	0.654000
C6241	C624	0.855000	0.773000	0.716000
N1891	N189	0.926000	0.797000	0.602000
N1901	N190	0.951000	0.781000	0.695000
N1911	N191	0.850000	0.761000	0.559000
N1921	N192	0.844000	0.826000	0.626000
H5181	H518	0.790960	0.771170	0.580050
H5191	H519	0.764320	0.709050	0.560560
H5201	H520	0.812390	0.661830	0.531130
H5211	H521	0.882670	0.674770	0.539500
H5221	H522	0.908070	0.733690	0.558990
H5231	H523	0.830630	0.880060	0.621840
H5241	H524	0.785500	0.870490	0.675620
H5251	H525	0.804480	0.827060	0.727310
H5261	H526	0.869070	0.770680	0.643090
H5271	H527	0.886790	0.766740	0.717220
H5281	H528	0.834920	0.759170	0.737380
C6251	C625	0.361000	0.532000	0.700000
C6261	C626	0.422000	0.523000	0.718000
C6271	C627	0.316000	0.499000	0.560000
C6281	C628	0.307000	0.465000	0.546000
C6291	C629	0.294000	0.440000	0.572000
C6301	C630	0.296000	0.448000	0.611000
C6311	C631	0.305000	0.481000	0.626000
C6321	C632	0.388000	0.602000	0.579000
C6331	C633	0.420000	0.600000	0.560000
C6341	C634	0.448000	0.574000	0.568000
C6351	C635	0.439000	0.547000	0.591000
C6361	C636	0.404000	0.546000	0.602000
C6371	C637	0.466000	0.523000	0.605000
N1931	N193	0.352000	0.547000	0.676000
N1941	N194	0.445000	0.531000	0.701000
N1951	N195	0.309000	0.511000	0.600000
N1961	N196	0.376000	0.576000	0.594000
H5291	H529	0.330050	0.521170	0.540960
H5301	H530	0.310560	0.459050	0.514320
H5311	H531	0.281130	0.411830	0.562390
H5321	H532	0.289500	0.424770	0.632670
H5331	H533	0.308990	0.483690	0.658070
H5341	H534	0.371840	0.630060	0.580630
H5351	H535	0.425620	0.620490	0.535500
H5361	H536	0.477310	0.577060	0.554480
H5371	H537	0.393090	0.520680	0.619070
H5381	H538	0.467220	0.516740	0.636790
H5391	H539	0.487380	0.509170	0.584920
C6381	C638	0.861000	0.032000	0.200000
C6391	C639	0.922000	0.023000	0.218000
C6401	C640	0.816000	0.999000	0.060000
C6411	C641	0.807000	0.965000	0.046000
C6421	C642	0.794000	0.940000	0.072000
C6431	C643	0.796000	0.948000	0.111000
C6441	C644	0.805000	0.981000	0.126000
C6451	C645	0.888000	0.102000	0.079000
C6461	C646	0.920000	0.100000	0.060000
C6471	C647	0.948000	0.074000	0.068000
C6481	C648	0.939000	0.047000	0.091000
C6491	C649	0.904000	0.046000	0.102000
C6501	C650	0.966000	0.023000	0.105000
N1971	N197	0.852000	0.047000	0.176000
N1981	N198	0.945000	0.031000	0.201000
N1991	N199	0.809000	0.011000	0.100000
N2001	N200	0.876000	0.076000	0.094000
H5401	H540	0.830050	0.021170	0.040960
H5411	H541	0.810560	0.959050	0.014320
H5421	H542	0.781130	0.911830	0.062390
H5431	H543	0.789500	0.924770	0.132670
H5441	H544	0.808990	0.983690	0.158070
H5451	H545	0.871840	0.130060	0.080630
H5461	H546	0.925620	0.120490	0.035500
H5471	H547	0.977310	0.077060	0.054480
H5481	H548	0.893090	0.020680	0.119070
H5491	H549	0.967220	0.016740	0.136790
H5501	H550	0.987380	0.009170	0.084920
C6511	C651	0.139000	0.468000	0.200000
C6521	C652	0.078000	0.477000	0.218000
C6531	C653	0.184000	0.501000	0.060000
C6541	C654	0.193000	0.535000	0.046000
C6551	C655	0.206000	0.560000	0.072000
C6561	C656	0.204000	0.552000	0.111000
C6571	C657	0.195000	0.519000	0.126000
C6581	C658	0.112000	0.398000	0.079000
C6591	C659	0.080000	0.400000	0.060000
C6601	C660	0.052000	0.426000	0.068000
C6611	C661	0.061000	0.453000	0.091000
C6621	C662	0.096000	0.454000	0.102000
C6631	C663	0.034000	0.477000	0.105000
N2011	N201	0.148000	0.453000	0.176000
N2021	N202	0.055000	0.469000	0.201000
N2031	N203	0.191000	0.489000	0.100000
N2041	N204	0.124000	0.424000	0.094000
H5511	H551	0.169950	0.478830	0.040960
H5521	H552	0.189440	0.540950	0.014320
H5531	H553	0.218870	0.588170	0.062390
H5541	H554	0.210500	0.575230	0.132670
H5551	H555	0.191010	0.516310	0.158070
H5561	H556	0.128160	0.369940	0.080630
H5571	H557	0.074380	0.379510	0.035500
H5581	H558	0.022690	0.422940	0.054480
H5591	H559	0.106910	0.479320	0.119070
H5601	H560	0.032780	0.483260	0.136790
H5611	H561	0.012620	0.490830	0.084920
C6641	C664	0.639000	0.968000	0.700000
C6651	C665	0.578000	0.977000	0.718000
C6661	C666	0.684000	0.001000	0.560000
C6671	C667	0.693000	0.035000	0.546000
C6681	C668	0.706000	0.060000	0.572000
C6691	C669	0.704000	0.052000	0.611000
C6701	C670	0.695000	0.019000	0.626000
C6711	C671	0.612000	0.898000	0.579000
C6721	C672	0.580000	0.900000	0.560000
C6731	C673	0.552000	0.926000	0.568000
C6741	C674	0.561000	0.953000	0.591000
C6751	C675	0.596000	0.954000	0.602000
C6761	C676	0.534000	0.977000	0.605000
N2051	N205	0.648000	0.953000	0.676000
N2061	N206	0.555000	0.969000	0.701000
N2071	N207	0.691000	0.989000	0.600000
N2081	N208	0.624000	0.924000	0.594000
H5621	H562	0.669950	0.978830	0.540960
H5631	H563	0.689440	0.040950	0.514320
H5641	H564	0.718870	0.088170	0.562390
H5651	H565	0.710500	0.075230	0.632670
H5661	H566	0.691010	0.016310	0.658070
H5671	H567	0.628160	0.869940	0.580630
H5681	H568	0.574380	0.879510	0.535500
H5691	H569	0.522690	0.922940	0.554480
H5701	H570	0.606910	0.979320	0.619070
H5711	H571	0.532780	0.983260	0.636790
H5721	H572	0.512620	0.990830	0.584920
C6771	C677	0.639000	0.032000	0.800000
C6781	C678	0.578000	0.023000	0.782000
C6791	C679	0.684000	0.999000	0.940000
C6801	C680	0.693000	0.965000	0.954000
C6811	C681	0.706000	0.940000	0.928000
C6821	C682	0.704000	0.948000	0.889000
C6831	C683	0.695000	0.981000	0.874000
C6841	C684	0.612000	0.102000	0.921000
C6851	C685	0.580000	0.100000	0.940000
C6861	C686	0.552000	0.074000	0.932000
C6871	C687	0.561000	0.047000	0.909000
C6881	C688	0.596000	0.046000	0.898000
C6891	C689	0.534000	0.023000	0.895000
N2091	N209	0.648000	0.047000	0.824000
N2101	N210	0.555000	0.031000	0.799000
N2111	N211	0.691000	0.011000	0.900000
N2121	N212	0.624000	0.076000	0.906000
H5731	H573	0.669950	0.021170	0.959040
H5741	H574	0.689440	0.959050	0.985680
H5751	H575	0.718870	0.911830	0.937610
H5761	H576	0.710500	0.924770	0.867330
H5771	H577	0.691010	0.983690	0.841930
H5781	H578	0.628160	0.130060	0.919370
H5791	H579	0.574380	0.120490	0.964500
H5801	H580	0.522690	0.077060	0.945520
H5811	H581	0.606910	0.020680	0.880930
H5821	H582	0.532780	0.016740	0.863210
H5831	H583	0.512620	0.009170	0.915080
C6901	C690	0.139000	0.532000	0.300000
C6911	C691	0.078000	0.523000	0.282000
C6921	C692	0.184000	0.499000	0.440000
C6931	C693	0.193000	0.465000	0.454000
C6941	C694	0.206000	0.440000	0.428000
C6951	C695	0.204000	0.448000	0.389000
C6961	C696	0.195000	0.481000	0.374000
C6971	C697	0.112000	0.602000	0.421000
C6981	C698	0.080000	0.600000	0.440000
C6991	C699	0.052000	0.574000	0.432000
C7001	C700	0.061000	0.547000	0.409000
C7011	C701	0.096000	0.546000	0.398000
C7021	C702	0.034000	0.523000	0.395000
N2131	N213	0.148000	0.547000	0.324000
N2141	N214	0.055000	0.531000	0.299000
N2151	N215	0.191000	0.511000	0.400000
N2161	N216	0.124000	0.576000	0.406000
H5841	H584	0.169950	0.521170	0.459040
H5851	H585	0.189440	0.459050	0.485680
H5861	H586	0.218870	0.411830	0.437610
H5871	H587	0.210500	0.424770	0.367330
H5881	H588	0.191010	0.483690	0.341930
H5891	H589	0.128160	0.630060	0.419370
H5901	H590	0.074380	0.620490	0.464500
H5911	H591	0.022690	0.577060	0.445520
H5921	H592	0.106910	0.520680	0.380930
H5931	H593	0.032780	0.516740	0.363210
H5941	H594	0.012620	0.509170	0.415080
C7031	C703	0.861000	0.968000	0.300000
C7041	C704	0.922000	0.977000	0.282000
C7051	C705	0.816000	0.001000	0.440000
C7061	C706	0.807000	0.035000	0.454000
C7071	C707	0.794000	0.060000	0.428000
C7081	C708	0.796000	0.052000	0.389000
C7091	C709	0.805000	0.019000	0.374000
C7101	C710	0.888000	0.898000	0.421000
C7111	C711	0.920000	0.900000	0.440000
C7121	C712	0.948000	0.926000	0.432000
C7131	C713	0.939000	0.953000	0.409000
C7141	C714	0.904000	0.954000	0.398000
C7151	C715	0.966000	0.977000	0.395000
N2171	N217	0.852000	0.953000	0.324000
N2181	N218	0.945000	0.969000	0.299000
N2191	N219	0.809000	0.989000	0.400000
N2201	N220	0.876000	0.924000	0.406000
H5951	H595	0.830050	0.978830	0.459040
H5961	H596	0.810560	0.040950	0.485680
H5971	H597	0.781130	0.088170	0.437610
H5981	H598	0.789500	0.075230	0.367330
H5991	H599	0.808990	0.016310	0.341930
H6001	H600	0.871840	0.869940	0.419370
H6011	H601	0.925620	0.879510	0.464500
H6021	H602	0.977310	0.922940	0.445520
H6031	H603	0.893090	0.979320	0.380930
H6041	H604	0.967220	0.983260	0.363210
H6051	H605	0.987380	0.990830	0.415080
C7161	C716	0.361000	0.468000	0.800000
C7171	C717	0.422000	0.477000	0.782000
C7181	C718	0.316000	0.501000	0.940000
C7191	C719	0.307000	0.535000	0.954000
C7201	C720	0.294000	0.560000	0.928000
C7211	C721	0.296000	0.552000	0.889000
C7221	C722	0.305000	0.519000	0.874000
C7231	C723	0.388000	0.398000	0.921000
C7241	C724	0.420000	0.400000	0.940000
C7251	C725	0.448000	0.426000	0.932000
C7261	C726	0.439000	0.453000	0.909000
C7271	C727	0.404000	0.454000	0.898000
C7281	C728	0.466000	0.477000	0.895000
N2211	N221	0.352000	0.453000	0.824000
N2221	N222	0.445000	0.469000	0.799000
N2231	N223	0.309000	0.489000	0.900000
N2241	N224	0.376000	0.424000	0.906000
H6061	H606	0.330050	0.478830	0.959040
H6071	H607	0.310560	0.540950	0.985680
H6081	H608	0.281130	0.588170	0.937610
H6091	H609	0.289500	0.575230	0.867330
H6101	H610	0.308990	0.516310	0.841930
H6111	H611	0.371840	0.369940	0.919370
H6121	H612	0.425620	0.379510	0.964500
H6131	H613	0.477310	0.422940	0.945520
H6141	H614	0.393090	0.479320	0.880930
H6151	H615	0.467220	0.483260	0.863210
H6161	H616	0.487380	0.490830	0.915080
C7291	C729	0.700000	0.361000	0.532000
C7301	C730	0.718000	0.422000	0.523000
C7311	C731	0.560000	0.316000	0.499000
C7321	C732	0.546000	0.307000	0.465000
C7331	C733	0.572000	0.294000	0.440000
C7341	C734	0.611000	0.296000	0.448000
C7351	C735	0.626000	0.305000	0.481000
C7361	C736	0.579000	0.388000	0.602000
C7371	C737	0.560000	0.420000	0.600000
C7381	C738	0.568000	0.448000	0.574000
C7391	C739	0.591000	0.439000	0.547000
C7401	C740	0.602000	0.404000	0.546000
C7411	C741	0.605000	0.466000	0.523000
N2251	N225	0.676000	0.352000	0.547000
N2261	N226	0.701000	0.445000	0.531000
N2271	N227	0.600000	0.309000	0.511000
N2281	N228	0.594000	0.376000	0.576000
H6171	H617	0.540960	0.330050	0.521170
H6181	H618	0.514320	0.310560	0.459050
H6191	H619	0.562390	0.281130	0.411830
H6201	H620	0.632670	0.289500	0.424770
H6211	H621	0.658070	0.308990	0.483690
H6221	H622	0.580630	0.371840	0.630060
H6231	H623	0.535500	0.425620	0.620490
H6241	H624	0.554480	0.477310	0.577060
H6251	H625	0.619070	0.393090	0.520680
H6261	H626	0.636790	0.467220	0.516740
H6271	H627	0.584920	0.487380	0.509170
C7421	C742	0.200000	0.861000	0.032000
C7431	C743	0.218000	0.922000	0.023000
C7441	C744	0.060000	0.816000	0.999000
C7451	C745	0.046000	0.807000	0.965000
C7461	C746	0.072000	0.794000	0.940000
C7471	C747	0.111000	0.796000	0.948000
C7481	C748	0.126000	0.805000	0.981000
C7491	C749	0.079000	0.888000	0.102000
C7501	C750	0.060000	0.920000	0.100000
C7511	C751	0.068000	0.948000	0.074000
C7521	C752	0.091000	0.939000	0.047000
C7531	C753	0.102000	0.904000	0.046000
C7541	C754	0.105000	0.966000	0.023000
N2291	N229	0.176000	0.852000	0.047000
N2301	N230	0.201000	0.945000	0.031000
N2311	N231	0.100000	0.809000	0.011000
N2321	N232	0.094000	0.876000	0.076000
H6281	H628	0.040960	0.830050	0.021170
H6291	H629	0.014320	0.810560	0.959050
H6301	H630	0.062390	0.781130	0.911830
H6311	H631	0.132670	0.789500	0.924770
H6321	H632	0.158070	0.808990	0.983690
H6331	H633	0.080630	0.871840	0.130060
H6341	H634	0.035500	0.925620	0.120490
H6351	H635	0.054480	0.977310	0.077060
H6361	H636	0.119070	0.893090	0.020680
H6371	H637	0.136790	0.967220	0.016740
H6381	H638	0.084920	0.987380	0.009170
C7551	C755	0.200000	0.139000	0.468000
C7561	C756	0.218000	0.078000	0.477000
C7571	C757	0.060000	0.184000	0.501000
C7581	C758	0.046000	0.193000	0.535000
C7591	C759	0.072000	0.206000	0.560000
C7601	C760	0.111000	0.204000	0.552000
C7611	C761	0.126000	0.195000	0.519000
C7621	C762	0.079000	0.112000	0.398000
C7631	C763	0.060000	0.080000	0.400000
C7641	C764	0.068000	0.052000	0.426000
C7651	C765	0.091000	0.061000	0.453000
C7661	C766	0.102000	0.096000	0.454000
C7671	C767	0.105000	0.034000	0.477000
N2331	N233	0.176000	0.148000	0.453000
N2341	N234	0.201000	0.055000	0.469000
N2351	N235	0.100000	0.191000	0.489000
N2361	N236	0.094000	0.124000	0.424000
H6391	H639	0.040960	0.169950	0.478830
H6401	H640	0.014320	0.189440	0.540950
H6411	H641	0.062390	0.218870	0.588170
H6421	H642	0.132670	0.210500	0.575230
H6431	H643	0.158070	0.191010	0.516310
H6441	H644	0.080630	0.128160	0.369940
H6451	H645	0.035500	0.074380	0.379510
H6461	H646	0.054480	0.022690	0.422940
H6471	H647	0.119070	0.106910	0.479320
H6481	H648	0.136790	0.032780	0.483260
H6491	H649	0.084920	0.012620	0.490830
C7681	C768	0.700000	0.639000	0.968000
C7691	C769	0.718000	0.578000	0.977000
C7701	C770	0.560000	0.684000	0.001000
C7711	C771	0.546000	0.693000	0.035000
C7721	C772	0.572000	0.706000	0.060000
C7731	C773	0.611000	0.704000	0.052000
C7741	C774	0.626000	0.695000	0.019000
C7751	C775	0.579000	0.612000	0.898000
C7761	C776	0.560000	0.580000	0.900000
C7771	C777	0.568000	0.552000	0.926000
C7781	C778	0.591000	0.561000	0.953000
C7791	C779	0.602000	0.596000	0.954000
C7801	C780	0.605000	0.534000	0.977000
N2371	N237	0.676000	0.648000	0.953000
N2381	N238	0.701000	0.555000	0.969000
N2391	N239	0.600000	0.691000	0.989000
N2401	N240	0.594000	0.624000	0.924000
H6501	H650	0.540960	0.669950	0.978830
H6511	H651	0.514320	0.689440	0.040950
H6521	H652	0.562390	0.718870	0.088170
H6531	H653	0.632670	0.710500	0.075230
H6541	H654	0.658070	0.691010	0.016310
H6551	H655	0.580630	0.628160	0.869940
H6561	H656	0.535500	0.574380	0.879510
H6571	H657	0.554480	0.522690	0.922940
H6581	H658	0.619070	0.606910	0.979320
H6591	H659	0.636790	0.532780	0.983260
H6601	H660	0.584920	0.512620	0.990830
C7811	C781	0.800000	0.639000	0.032000
C7821	C782	0.782000	0.578000	0.023000
C7831	C783	0.940000	0.684000	0.999000
C7841	C784	0.954000	0.693000	0.965000
C7851	C785	0.928000	0.706000	0.940000
C7861	C786	0.889000	0.704000	0.948000
C7871	C787	0.874000	0.695000	0.981000
C7881	C788	0.921000	0.612000	0.102000
C7891	C789	0.940000	0.580000	0.100000
C7901	C790	0.932000	0.552000	0.074000
C7911	C791	0.909000	0.561000	0.047000
C7921	C792	0.898000	0.596000	0.046000
C7931	C793	0.895000	0.534000	0.023000
N2411	N241	0.824000	0.648000	0.047000
N2421	N242	0.799000	0.555000	0.031000
N2431	N243	0.900000	0.691000	0.011000
N2441	N244	0.906000	0.624000	0.076000
H6611	H661	0.959040	0.669950	0.021170
H6621	H662	0.985680	0.689440	0.959050
H6631	H663	0.937610	0.718870	0.911830
H6641	H664	0.867330	0.710500	0.924770
H6651	H665	0.841930	0.691010	0.983690
H6661	H666	0.919370	0.628160	0.130060
H6671	H667	0.964500	0.574380	0.120490
H6681	H668	0.945520	0.522690	0.077060
H6691	H669	0.880930	0.606910	0.020680
H6701	H670	0.863210	0.532780	0.016740
H6711	H671	0.915080	0.512620	0.009170
C7941	C794	0.300000	0.139000	0.532000
C7951	C795	0.282000	0.078000	0.523000
C7961	C796	0.440000	0.184000	0.499000
C7971	C797	0.454000	0.193000	0.465000
C7981	C798	0.428000	0.206000	0.440000
C7991	C799	0.389000	0.204000	0.448000
C8001	C800	0.374000	0.195000	0.481000
C8011	C801	0.421000	0.112000	0.602000
C8021	C802	0.440000	0.080000	0.600000
C8031	C803	0.432000	0.052000	0.574000
C8041	C804	0.409000	0.061000	0.547000
C8051	C805	0.398000	0.096000	0.546000
C8061	C806	0.395000	0.034000	0.523000
N2451	N245	0.324000	0.148000	0.547000
N2461	N246	0.299000	0.055000	0.531000
N2471	N247	0.400000	0.191000	0.511000
N2481	N248	0.406000	0.124000	0.576000
H6721	H672	0.459040	0.169950	0.521170
H6731	H673	0.485680	0.189440	0.459050
H6741	H674	0.437610	0.218870	0.411830
H6751	H675	0.367330	0.210500	0.424770
H6761	H676	0.341930	0.191010	0.483690
H6771	H677	0.419370	0.128160	0.630060
H6781	H678	0.464500	0.074380	0.620490
H6791	H679	0.445520	0.022690	0.577060
H6801	H680	0.380930	0.106910	0.520680
H6811	H681	0.363210	0.032780	0.516740
H6821	H682	0.415080	0.012620	0.509170
C8071	C807	0.300000	0.861000	0.968000
C8081	C808	0.282000	0.922000	0.977000
C8091	C809	0.440000	0.816000	0.001000
C8101	C810	0.454000	0.807000	0.035000
C8111	C811	0.428000	0.794000	0.060000
C8121	C812	0.389000	0.796000	0.052000
C8131	C813	0.374000	0.805000	0.019000
C8141	C814	0.421000	0.888000	0.898000
C8151	C815	0.440000	0.920000	0.900000
C8161	C816	0.432000	0.948000	0.926000
C8171	C817	0.409000	0.939000	0.953000
C8181	C818	0.398000	0.904000	0.954000
C8191	C819	0.395000	0.966000	0.977000
N2491	N249	0.324000	0.852000	0.953000
N2501	N250	0.299000	0.945000	0.969000
N2511	N251	0.400000	0.809000	0.989000
N2521	N252	0.406000	0.876000	0.924000
H6831	H683	0.459040	0.830050	0.978830
H6841	H684	0.485680	0.810560	0.040950
H6851	H685	0.437610	0.781130	0.088170
H6861	H686	0.367330	0.789500	0.075230
H6871	H687	0.341930	0.808990	0.016310
H6881	H688	0.419370	0.871840	0.869940
H6891	H689	0.464500	0.925620	0.879510
H6901	H690	0.445520	0.977310	0.922940
H6911	H691	0.380930	0.893090	0.979320
H6921	H692	0.363210	0.967220	0.983260
H6931	H693	0.415080	0.987380	0.990830
C8201	C820	0.800000	0.361000	0.468000
C8211	C821	0.782000	0.422000	0.477000
C8221	C822	0.940000	0.316000	0.501000
C8231	C823	0.954000	0.307000	0.535000
C8241	C824	0.928000	0.294000	0.560000
C8251	C825	0.889000	0.296000	0.552000
C8261	C826	0.874000	0.305000	0.519000
C8271	C827	0.921000	0.388000	0.398000
C8281	C828	0.940000	0.420000	0.400000
C8291	C829	0.932000	0.448000	0.426000
C8301	C830	0.909000	0.439000	0.453000
C8311	C831	0.898000	0.404000	0.454000
C8321	C832	0.895000	0.466000	0.477000
N2531	N253	0.824000	0.352000	0.453000
N2541	N254	0.799000	0.445000	0.469000
N2551	N255	0.900000	0.309000	0.489000
N2561	N256	0.906000	0.376000	0.424000
H6941	H694	0.959040	0.330050	0.478830
H6951	H695	0.985680	0.310560	0.540950
H6961	H696	0.937610	0.281130	0.588170
H6971	H697	0.867330	0.289500	0.575230
H6981	H698	0.841930	0.308990	0.516310
H6991	H699	0.919370	0.371840	0.369940
H7001	H700	0.964500	0.425620	0.379510
H7011	H701	0.945520	0.477310	0.422940
H7021	H702	0.880930	0.393090	0.479320
H7031	H703	0.863210	0.467220	0.483260
H7041	H704	0.915080	0.487380	0.490830
C8331	C833	0.532000	0.700000	0.361000
C8341	C834	0.523000	0.718000	0.422000
C8351	C835	0.499000	0.560000	0.316000
C8361	C836	0.465000	0.546000	0.307000
C8371	C837	0.440000	0.572000	0.294000
C8381	C838	0.448000	0.611000	0.296000
C8391	C839	0.481000	0.626000	0.305000
C8401	C840	0.602000	0.579000	0.388000
C8411	C841	0.600000	0.560000	0.420000
C8421	C842	0.574000	0.568000	0.448000
C8431	C843	0.547000	0.591000	0.439000
C8441	C844	0.546000	0.602000	0.404000
C8451	C845	0.523000	0.605000	0.466000
N2571	N257	0.547000	0.676000	0.352000
N2581	N258	0.531000	0.701000	0.445000
N2591	N259	0.511000	0.600000	0.309000
N2601	N260	0.576000	0.594000	0.376000
H7051	H705	0.521170	0.540960	0.330050
H7061	H706	0.459050	0.514320	0.310560
H7071	H707	0.411830	0.562390	0.281130
H7081	H708	0.424770	0.632670	0.289500
H7091	H709	0.483690	0.658070	0.308990
H7101	H710	0.630060	0.580630	0.371840
H7111	H711	0.620490	0.535500	0.425620
H7121	H712	0.577060	0.554480	0.477310
H7131	H713	0.520680	0.619070	0.393090
H7141	H714	0.516740	0.636790	0.467220
H7151	H715	0.509170	0.584920	0.487380
C8461	C846	0.032000	0.200000	0.861000
C8471	C847	0.023000	0.218000	0.922000
C8481	C848	0.999000	0.060000	0.816000
C8491	C849	0.965000	0.046000	0.807000
C8501	C850	0.940000	0.072000	0.794000
C8511	C851	0.948000	0.111000	0.796000
C8521	C852	0.981000	0.126000	0.805000
C8531	C853	0.102000	0.079000	0.888000
C8541	C854	0.100000	0.060000	0.920000
C8551	C855	0.074000	0.068000	0.948000
C8561	C856	0.047000	0.091000	0.939000
C8571	C857	0.046000	0.102000	0.904000
C8581	C858	0.023000	0.105000	0.966000
N2611	N261	0.047000	0.176000	0.852000
N2621	N262	0.031000	0.201000	0.945000
N2631	N263	0.011000	0.100000	0.809000
N2641	N264	0.076000	0.094000	0.876000
H7161	H716	0.021170	0.040960	0.830050
H7171	H717	0.959050	0.014320	0.810560
H7181	H718	0.911830	0.062390	0.781130
H7191	H719	0.924770	0.132670	0.789500
H7201	H720	0.983690	0.158070	0.808990
H7211	H721	0.130060	0.080630	0.871840
H7221	H722	0.120490	0.035500	0.925620
H7231	H723	0.077060	0.054480	0.977310
H7241	H724	0.020680	0.119070	0.893090
H7251	H725	0.016740	0.136790	0.967220
H7261	H726	0.009170	0.084920	0.987380
C8591	C859	0.468000	0.200000	0.139000
C8601	C860	0.477000	0.218000	0.078000
C8611	C861	0.501000	0.060000	0.184000
C8621	C862	0.535000	0.046000	0.193000
C8631	C863	0.560000	0.072000	0.206000
C8641	C864	0.552000	0.111000	0.204000
C8651	C865	0.519000	0.126000	0.195000
C8661	C866	0.398000	0.079000	0.112000
C8671	C867	0.400000	0.060000	0.080000
C8681	C868	0.426000	0.068000	0.052000
C8691	C869	0.453000	0.091000	0.061000
C8701	C870	0.454000	0.102000	0.096000
C8711	C871	0.477000	0.105000	0.034000
N2651	N265	0.453000	0.176000	0.148000
N2661	N266	0.469000	0.201000	0.055000
N2671	N267	0.489000	0.100000	0.191000
N2681	N268	0.424000	0.094000	0.124000
H7271	H727	0.478830	0.040960	0.169950
H7281	H728	0.540950	0.014320	0.189440
H7291	H729	0.588170	0.062390	0.218870
H7301	H730	0.575230	0.132670	0.210500
H7311	H731	0.516310	0.158070	0.191010
H7321	H732	0.369940	0.080630	0.128160
H7331	H733	0.379510	0.035500	0.074380
H7341	H734	0.422940	0.054480	0.022690
H7351	H735	0.479320	0.119070	0.106910
H7361	H736	0.483260	0.136790	0.032780
H7371	H737	0.490830	0.084920	0.012620
C8721	C872	0.968000	0.700000	0.639000
C8731	C873	0.977000	0.718000	0.578000
C8741	C874	0.001000	0.560000	0.684000
C8751	C875	0.035000	0.546000	0.693000
C8761	C876	0.060000	0.572000	0.706000
C8771	C877	0.052000	0.611000	0.704000
C8781	C878	0.019000	0.626000	0.695000
C8791	C879	0.898000	0.579000	0.612000
C8801	C880	0.900000	0.560000	0.580000
C8811	C881	0.926000	0.568000	0.552000
C8821	C882	0.953000	0.591000	0.561000
C8831	C883	0.954000	0.602000	0.596000
C8841	C884	0.977000	0.605000	0.534000
N2691	N269	0.953000	0.676000	0.648000
N2701	N270	0.969000	0.701000	0.555000
N2711	N271	0.989000	0.600000	0.691000
N2721	N272	0.924000	0.594000	0.624000
H7381	H738	0.978830	0.540960	0.669950
H7391	H739	0.040950	0.514320	0.689440
H7401	H740	0.088170	0.562390	0.718870
H7411	H741	0.075230	0.632670	0.710500
H7421	H742	0.016310	0.658070	0.691010
H7431	H743	0.869940	0.580630	0.628160
H7441	H744	0.879510	0.535500	0.574380
H7451	H745	0.922940	0.554480	0.522690
H7461	H746	0.979320	0.619070	0.606910
H7471	H747	0.983260	0.636790	0.532780
H7481	H748	0.990830	0.584920	0.512620
C8851	C885	0.032000	0.800000	0.639000
C8861	C886	0.023000	0.782000	0.578000
C8871	C887	0.999000	0.940000	0.684000
C8881	C888	0.965000	0.954000	0.693000
C8891	C889	0.940000	0.928000	0.706000
C8901	C890	0.948000	0.889000	0.704000
C8911	C891	0.981000	0.874000	0.695000
C8921	C892	0.102000	0.921000	0.612000
C8931	C893	0.100000	0.940000	0.580000
C8941	C894	0.074000	0.932000	0.552000
C8951	C895	0.047000	0.909000	0.561000
C8961	C896	0.046000	0.898000	0.596000
C8971	C897	0.023000	0.895000	0.534000
N2731	N273	0.047000	0.824000	0.648000
N2741	N274	0.031000	0.799000	0.555000
N2751	N275	0.011000	0.900000	0.691000
N2761	N276	0.076000	0.906000	0.624000
H7491	H749	0.021170	0.959040	0.669950
H7501	H750	0.959050	0.985680	0.689440
H7511	H751	0.911830	0.937610	0.718870
H7521	H752	0.924770	0.867330	0.710500
H7531	H753	0.983690	0.841930	0.691010
H7541	H754	0.130060	0.919370	0.628160
H7551	H755	0.120490	0.964500	0.574380
H7561	H756	0.077060	0.945520	0.522690
H7571	H757	0.020680	0.880930	0.606910
H7581	H758	0.016740	0.863210	0.532780
H7591	H759	0.009170	0.915080	0.512620
C8981	C898	0.532000	0.300000	0.139000
C8991	C899	0.523000	0.282000	0.078000
C9001	C900	0.499000	0.440000	0.184000
C9011	C901	0.465000	0.454000	0.193000
C9021	C902	0.440000	0.428000	0.206000
C9031	C903	0.448000	0.389000	0.204000
C9041	C904	0.481000	0.374000	0.195000
C9051	C905	0.602000	0.421000	0.112000
C9061	C906	0.600000	0.440000	0.080000
C9071	C907	0.574000	0.432000	0.052000
C9081	C908	0.547000	0.409000	0.061000
C9091	C909	0.546000	0.398000	0.096000
C9101	C910	0.523000	0.395000	0.034000
N2771	N277	0.547000	0.324000	0.148000
N2781	N278	0.531000	0.299000	0.055000
N2791	N279	0.511000	0.400000	0.191000
N2801	N280	0.576000	0.406000	0.124000
H7601	H760	0.521170	0.459040	0.169950
H7611	H761	0.459050	0.485680	0.189440
H7621	H762	0.411830	0.437610	0.218870
H7631	H763	0.424770	0.367330	0.210500
H7641	H764	0.483690	0.341930	0.191010
H7651	H765	0.630060	0.419370	0.128160
H7661	H766	0.620490	0.464500	0.074380
H7671	H767	0.577060	0.445520	0.022690
H7681	H768	0.520680	0.380930	0.106910
H7691	H769	0.516740	0.363210	0.032780
H7701	H770	0.509170	0.415080	0.012620
C9111	C911	0.968000	0.300000	0.861000
C9121	C912	0.977000	0.282000	0.922000
C9131	C913	0.001000	0.440000	0.816000
C9141	C914	0.035000	0.454000	0.807000
C9151	C915	0.060000	0.428000	0.794000
C9161	C916	0.052000	0.389000	0.796000
C9171	C917	0.019000	0.374000	0.805000
C9181	C918	0.898000	0.421000	0.888000
C9191	C919	0.900000	0.440000	0.920000
C9201	C920	0.926000	0.432000	0.948000
C9211	C921	0.953000	0.409000	0.939000
C9221	C922	0.954000	0.398000	0.904000
C9231	C923	0.977000	0.395000	0.966000
N2811	N281	0.953000	0.324000	0.852000
N2821	N282	0.969000	0.299000	0.945000
N2831	N283	0.989000	0.400000	0.809000
N2841	N284	0.924000	0.406000	0.876000
H7711	H771	0.978830	0.459040	0.830050
H7721	H772	0.040950	0.485680	0.810560
H7731	H773	0.088170	0.437610	0.781130
H7741	H774	0.075230	0.367330	0.789500
H7751	H775	0.016310	0.341930	0.808990
H7761	H776	0.869940	0.419370	0.871840
H7771	H777	0.879510	0.464500	0.925620
H7781	H778	0.922940	0.445520	0.977310
H7791	H779	0.979320	0.380930	0.893090
H7801	H780	0.983260	0.363210	0.967220
H7811	H781	0.990830	0.415080	0.987380
C9241	C924	0.468000	0.800000	0.361000
C9251	C925	0.477000	0.782000	0.422000
C9261	C926	0.501000	0.940000	0.316000
C9271	C927	0.535000	0.954000	0.307000
C9281	C928	0.560000	0.928000	0.294000
C9291	C929	0.552000	0.889000	0.296000
C9301	C930	0.519000	0.874000	0.305000
C9311	C931	0.398000	0.921000	0.388000
C9321	C932	0.400000	0.940000	0.420000
C9331	C933	0.426000	0.932000	0.448000
C9341	C934	0.453000	0.909000	0.439000
C9351	C935	0.454000	0.898000	0.404000
C9361	C936	0.477000	0.895000	0.466000
N2851	N285	0.453000	0.824000	0.352000
N2861	N286	0.469000	0.799000	0.445000
N2871	N287	0.489000	0.900000	0.309000
N2881	N288	0.424000	0.906000	0.376000
H7821	H782	0.478830	0.959040	0.330050
H7831	H783	0.540950	0.985680	0.310560
H7841	H784	0.588170	0.937610	0.281130
H7851	H785	0.575230	0.867330	0.289500
H7861	H786	0.516310	0.841930	0.308990
H7871	H787	0.369940	0.919370	0.371840
H7881	H788	0.379510	0.964500	0.425620
H7891	H789	0.422940	0.945520	0.477310
H7901	H790	0.479320	0.880930	0.393090
H7911	H791	0.483260	0.863210	0.467220
H7921	H792	0.490830	0.915080	0.487380
C9371	C937	0.782000	0.111000	0.050000
C9381	C938	0.773000	0.172000	0.032000
C9391	C939	0.749000	0.066000	0.190000
C9401	C940	0.715000	0.057000	0.204000
C9411	C941	0.690000	0.044000	0.178000
C9421	C942	0.698000	0.046000	0.139000
C9431	C943	0.731000	0.055000	0.124000
C9441	C944	0.852000	0.138000	0.171000
C9451	C945	0.850000	0.170000	0.190000
C9461	C946	0.824000	0.198000	0.182000
C9471	C947	0.797000	0.189000	0.159000
C9481	C948	0.796000	0.154000	0.148000
C9491	C949	0.773000	0.216000	0.145000
N2891	N289	0.797000	0.102000	0.074000
N2901	N290	0.781000	0.195000	0.049000
N2911	N291	0.761000	0.059000	0.150000
N2921	N292	0.826000	0.126000	0.156000
H7931	H793	0.771170	0.080050	0.209040
H7941	H794	0.709050	0.060560	0.235680
H7951	H795	0.661830	0.031130	0.187610
H7961	H796	0.674770	0.039500	0.117330
H7971	H797	0.733690	0.058990	0.091930
H7981	H798	0.880060	0.121840	0.169370
H7991	H799	0.870490	0.175620	0.214500
H8001	H800	0.827060	0.227310	0.195520
H8011	H801	0.770680	0.143090	0.130930
H8021	H802	0.766740	0.217220	0.113210
H8031	H803	0.759170	0.237380	0.165080
C9501	C950	0.282000	0.611000	0.550000
C9511	C951	0.273000	0.672000	0.532000
C9521	C952	0.249000	0.566000	0.690000
C9531	C953	0.215000	0.557000	0.704000
C9541	C954	0.190000	0.544000	0.678000
C9551	C955	0.198000	0.546000	0.639000
C9561	C956	0.231000	0.555000	0.624000
C9571	C957	0.352000	0.638000	0.671000
C9581	C958	0.350000	0.670000	0.690000
C9591	C959	0.324000	0.698000	0.682000
C9601	C960	0.297000	0.689000	0.659000
C9611	C961	0.296000	0.654000	0.648000
C9621	C962	0.273000	0.716000	0.645000
N2931	N293	0.297000	0.602000	0.574000
N2941	N294	0.281000	0.695000	0.549000
N2951	N295	0.261000	0.559000	0.650000
N2961	N296	0.326000	0.626000	0.656000
H8041	H804	0.271170	0.580050	0.709040
H8051	H805	0.209050	0.560560	0.735680
H8061	H806	0.161830	0.531130	0.687610
H8071	H807	0.174770	0.539500	0.617330
H8081	H808	0.233690	0.558990	0.591930
H8091	H809	0.380060	0.621840	0.669370
H8101	H810	0.370490	0.675620	0.714500
H8111	H811	0.327060	0.727310	0.695520
H8121	H812	0.270680	0.643090	0.630930
H8131	H813	0.266740	0.717220	0.613210
H8141	H814	0.259170	0.737380	0.665080
C9631	C963	0.718000	0.889000	0.550000
C9641	C964	0.727000	0.828000	0.532000
C9651	C965	0.751000	0.934000	0.690000
C9661	C966	0.785000	0.943000	0.704000
C9671	C967	0.810000	0.956000	0.678000
C9681	C968	0.802000	0.954000	0.639000
C9691	C969	0.769000	0.945000	0.624000
C9701	C970	0.648000	0.862000	0.671000
C9711	C971	0.650000	0.830000	0.690000
C9721	C972	0.676000	0.802000	0.682000
C9731	C973	0.703000	0.811000	0.659000
C9741	C974	0.704000	0.846000	0.648000
C9751	C975	0.727000	0.784000	0.645000
N2971	N297	0.703000	0.898000	0.574000
N2981	N298	0.719000	0.805000	0.549000
N2991	N299	0.739000	0.941000	0.650000
N3001	N300	0.674000	0.874000	0.656000
H8151	H815	0.728830	0.919950	0.709040
H8161	H816	0.790950	0.939440	0.735680
H8171	H817	0.838170	0.968870	0.687610
H8181	H818	0.825230	0.960500	0.617330
H8191	H819	0.766310	0.941010	0.591930
H8201	H820	0.619940	0.878160	0.669370
H8211	H821	0.629510	0.824380	0.714500
H8221	H822	0.672940	0.772690	0.695520
H8231	H823	0.729320	0.856910	0.630930
H8241	H824	0.733260	0.782780	0.613210
H8251	H825	0.740830	0.762620	0.665080
C9761	C976	0.218000	0.389000	0.050000
C9771	C977	0.227000	0.328000	0.032000
C9781	C978	0.251000	0.434000	0.190000
C9791	C979	0.285000	0.443000	0.204000
C9801	C980	0.310000	0.456000	0.178000
C9811	C981	0.302000	0.454000	0.139000
C9821	C982	0.269000	0.445000	0.124000
C9831	C983	0.148000	0.362000	0.171000
C9841	C984	0.150000	0.330000	0.190000
C9851	C985	0.176000	0.302000	0.182000
C9861	C986	0.203000	0.311000	0.159000
C9871	C987	0.204000	0.346000	0.148000
C9881	C988	0.227000	0.284000	0.145000
N3011	N301	0.203000	0.398000	0.074000
N3021	N302	0.219000	0.305000	0.049000
N3031	N303	0.239000	0.441000	0.150000
N3041	N304	0.174000	0.374000	0.156000
H8261	H826	0.228830	0.419950	0.209040
H8271	H827	0.290950	0.439440	0.235680
H8281	H828	0.338170	0.468870	0.187610
H8291	H829	0.325230	0.460500	0.117330
H8301	H830	0.266310	0.441010	0.091930
H8311	H831	0.119940	0.378160	0.169370
H8321	H832	0.129510	0.324380	0.214500
H8331	H833	0.172940	0.272690	0.195520
H8341	H834	0.229320	0.356910	0.130930
H8351	H835	0.233260	0.282780	0.113210
H8361	H836	0.240830	0.262620	0.165080
C9891	C989	0.282000	0.389000	0.950000
C9901	C990	0.273000	0.328000	0.968000
C9911	C991	0.249000	0.434000	0.810000
C9921	C992	0.215000	0.443000	0.796000
C9931	C993	0.190000	0.456000	0.822000
C9941	C994	0.198000	0.454000	0.861000
C9951	C995	0.231000	0.445000	0.876000
C9961	C996	0.352000	0.362000	0.829000
C9971	C997	0.350000	0.330000	0.810000
C9981	C998	0.324000	0.302000	0.818000
C9991	C999	0.297000	0.311000	0.841000
C10001	C1000	0.296000	0.346000	0.852000
C10011	C1001	0.273000	0.284000	0.855000
N3051	N305	0.297000	0.398000	0.926000
N3061	N306	0.281000	0.305000	0.951000
N3071	N307	0.261000	0.441000	0.850000
N3081	N308	0.326000	0.374000	0.844000
H8371	H837	0.271170	0.419950	0.790960
H8381	H838	0.209050	0.439440	0.764320
H8391	H839	0.161830	0.468870	0.812390
H8401	H840	0.174770	0.460500	0.882670
H8411	H841	0.233690	0.441010	0.908070
H8421	H842	0.380060	0.378160	0.830630
H8431	H843	0.370490	0.324380	0.785500
H8441	H844	0.327060	0.272690	0.804480
H8451	H845	0.270680	0.356910	0.869070
H8461	H846	0.266740	0.282780	0.886790
H8471	H847	0.259170	0.262620	0.834920
C10021	C1002	0.782000	0.889000	0.450000
C10031	C1003	0.773000	0.828000	0.468000
C10041	C1004	0.749000	0.934000	0.310000
C10051	C1005	0.715000	0.943000	0.296000
C10061	C1006	0.690000	0.956000	0.322000
C10071	C1007	0.698000	0.954000	0.361000
C10081	C1008	0.731000	0.945000	0.376000
C10091	C1009	0.852000	0.862000	0.329000
C10101	C1010	0.850000	0.830000	0.310000
C10111	C1011	0.824000	0.802000	0.318000
C10121	C1012	0.797000	0.811000	0.341000
C10131	C1013	0.796000	0.846000	0.352000
C10141	C1014	0.773000	0.784000	0.355000
N3091	N309	0.797000	0.898000	0.426000
N3101	N310	0.781000	0.805000	0.451000
N3111	N311	0.761000	0.941000	0.350000
N3121	N312	0.826000	0.874000	0.344000
H8481	H848	0.771170	0.919950	0.290960
H8491	H849	0.709050	0.939440	0.264320
H8501	H850	0.661830	0.968870	0.312390
H8511	H851	0.674770	0.960500	0.382670
H8521	H852	0.733690	0.941010	0.408070
H8531	H853	0.880060	0.878160	0.330630
H8541	H854	0.870490	0.824380	0.285500
H8551	H855	0.827060	0.772690	0.304480
H8561	H856	0.770680	0.856910	0.369070
H8571	H857	0.766740	0.782780	0.386790
H8581	H858	0.759170	0.762620	0.334920
C10151	C1015	0.218000	0.611000	0.450000
C10161	C1016	0.227000	0.672000	0.468000
C10171	C1017	0.251000	0.566000	0.310000
C10181	C1018	0.285000	0.557000	0.296000
C10191	C1019	0.310000	0.544000	0.322000
C10201	C1020	0.302000	0.546000	0.361000
C10211	C1021	0.269000	0.555000	0.376000
C10221	C1022	0.148000	0.638000	0.329000
C10231	C1023	0.150000	0.670000	0.310000
C10241	C1024	0.176000	0.698000	0.318000
C10251	C1025	0.203000	0.689000	0.341000
C10261	C1026	0.204000	0.654000	0.352000
C10271	C1027	0.227000	0.716000	0.355000
N3131	N313	0.203000	0.602000	0.426000
N3141	N314	0.219000	0.695000	0.451000
N3151	N315	0.239000	0.559000	0.350000
N3161	N316	0.174000	0.626000	0.344000
H8591	H859	0.228830	0.580050	0.290960
H8601	H860	0.290950	0.560560	0.264320
H8611	H861	0.338170	0.531130	0.312390
H8621	H862	0.325230	0.539500	0.382670
H8631	H863	0.266310	0.558990	0.408070
H8641	H864	0.119940	0.621840	0.330630
H8651	H865	0.129510	0.675620	0.285500
H8661	H866	0.172940	0.727310	0.304480
H8671	H867	0.229320	0.643090	0.369070
H8681	H868	0.233260	0.717220	0.386790
H8691	H869	0.240830	0.737380	0.334920
C10281	C1028	0.718000	0.111000	0.950000
C10291	C1029	0.727000	0.172000	0.968000
C10301	C1030	0.751000	0.066000	0.810000
C10311	C1031	0.785000	0.057000	0.796000
C10321	C1032	0.810000	0.044000	0.822000
C10331	C1033	0.802000	0.046000	0.861000
C10341	C1034	0.769000	0.055000	0.876000
C10351	C1035	0.648000	0.138000	0.829000
C10361	C1036	0.650000	0.170000	0.810000
C10371	C1037	0.676000	0.198000	0.818000
C10381	C1038	0.703000	0.189000	0.841000
C10391	C1039	0.704000	0.154000	0.852000
C10401	C1040	0.727000	0.216000	0.855000
N3171	N317	0.703000	0.102000	0.926000
N3181	N318	0.719000	0.195000	0.951000
N3191	N319	0.739000	0.059000	0.850000
N3201	N320	0.674000	0.126000	0.844000
H8701	H870	0.728830	0.080050	0.790960
H8711	H871	0.790950	0.060560	0.764320
H8721	H872	0.838170	0.031130	0.812390
H8731	H873	0.825230	0.039500	0.882670
H8741	H874	0.766310	0.058990	0.908070
H8751	H875	0.619940	0.121840	0.830630
H8761	H876	0.629510	0.175620	0.785500
H8771	H877	0.672940	0.227310	0.804480
H8781	H878	0.729320	0.143090	0.869070
H8791	H879	0.733260	0.217220	0.886790
H8801	H880	0.740830	0.237380	0.834920
C10411	C1041	0.611000	0.450000	0.218000
C10421	C1042	0.672000	0.468000	0.227000
C10431	C1043	0.566000	0.310000	0.251000
C10441	C1044	0.557000	0.296000	0.285000
C10451	C1045	0.544000	0.322000	0.310000
C10461	C1046	0.546000	0.361000	0.302000
C10471	C1047	0.555000	0.376000	0.269000
C10481	C1048	0.638000	0.329000	0.148000
C10491	C1049	0.670000	0.310000	0.150000
C10501	C1050	0.698000	0.318000	0.176000
C10511	C1051	0.689000	0.341000	0.203000
C10521	C1052	0.654000	0.352000	0.204000
C10531	C1053	0.716000	0.355000	0.227000
N3211	N321	0.602000	0.426000	0.203000
N3221	N322	0.695000	0.451000	0.219000
N3231	N323	0.559000	0.350000	0.239000
N3241	N324	0.626000	0.344000	0.174000
H8811	H881	0.580050	0.290960	0.228830
H8821	H882	0.560560	0.264320	0.290950
H8831	H883	0.531130	0.312390	0.338170
H8841	H884	0.539500	0.382670	0.325230
H8851	H885	0.558990	0.408070	0.266310
H8861	H886	0.621840	0.330630	0.119940
H8871	H887	0.675620	0.285500	0.129510
H8881	H888	0.727310	0.304480	0.172940
H8891	H889	0.643090	0.369070	0.229320
H8901	H890	0.717220	0.386790	0.233260
H8911	H891	0.737380	0.334920	0.240830
C10541	C1054	0.111000	0.950000	0.718000
C10551	C1055	0.172000	0.968000	0.727000
C10561	C1056	0.066000	0.810000	0.751000
C10571	C1057	0.057000	0.796000	0.785000
C10581	C1058	0.044000	0.822000	0.810000
C10591	C1059	0.046000	0.861000	0.802000
C10601	C1060	0.055000	0.876000	0.769000
C10611	C1061	0.138000	0.829000	0.648000
C10621	C1062	0.170000	0.810000	0.650000
C10631	C1063	0.198000	0.818000	0.676000
C10641	C1064	0.189000	0.841000	0.703000
C10651	C1065	0.154000	0.852000	0.704000
C10661	C1066	0.216000	0.855000	0.727000
N3251	N325	0.102000	0.926000	0.703000
N3261	N326	0.195000	0.951000	0.719000
N3271	N327	0.059000	0.850000	0.739000
N3281	N328	0.126000	0.844000	0.674000
H8921	H892	0.080050	0.790960	0.728830
H8931	H893	0.060560	0.764320	0.790950
H8941	H894	0.031130	0.812390	0.838170
H8951	H895	0.039500	0.882670	0.825230
H8961	H896	0.058990	0.908070	0.766310
H8971	H897	0.121840	0.830630	0.619940
H8981	H898	0.175620	0.785500	0.629510
H8991	H899	0.227310	0.804480	0.672940
H9001	H900	0.143090	0.869070	0.729320
H9011	H901	0.217220	0.886790	0.733260
H9021	H902	0.237380	0.834920	0.740830
C10671	C1067	0.389000	0.950000	0.282000
C10681	C1068	0.328000	0.968000	0.273000
C10691	C1069	0.434000	0.810000	0.249000
C10701	C1070	0.443000	0.796000	0.215000
C10711	C1071	0.456000	0.822000	0.190000
C10721	C1072	0.454000	0.861000	0.198000
C10731	C1073	0.445000	0.876000	0.231000
C10741	C1074	0.362000	0.829000	0.352000
C10751	C1075	0.330000	0.810000	0.350000
C10761	C1076	0.302000	0.818000	0.324000
C10771	C1077	0.311000	0.841000	0.297000
C10781	C1078	0.346000	0.852000	0.296000
C10791	C1079	0.284000	0.855000	0.273000
N3291	N329	0.398000	0.926000	0.297000
N3301	N330	0.305000	0.951000	0.281000
N3311	N331	0.441000	0.850000	0.261000
N3321	N332	0.374000	0.844000	0.326000
H9031	H903	0.419950	0.790960	0.271170
H9041	H904	0.439440	0.764320	0.209050
H9051	H905	0.468870	0.812390	0.161830
H9061	H906	0.460500	0.882670	0.174770
H9071	H907	0.441010	0.908070	0.233690
H9081	H908	0.378160	0.830630	0.380060
H9091	H909	0.324380	0.785500	0.370490
H9101	H910	0.272690	0.804480	0.327060
H9111	H911	0.356910	0.869070	0.270680
H9121	H912	0.282780	0.886790	0.266740
H9131	H913	0.262620	0.834920	0.259170
C10801	C1080	0.889000	0.450000	0.782000
C10811	C1081	0.828000	0.468000	0.773000
C10821	C1082	0.934000	0.310000	0.749000
C10831	C1083	0.943000	0.296000	0.715000
C10841	C1084	0.956000	0.322000	0.690000
C10851	C1085	0.954000	0.361000	0.698000
C10861	C1086	0.945000	0.376000	0.731000
C10871	C1087	0.862000	0.329000	0.852000
C10881	C1088	0.830000	0.310000	0.850000
C10891	C1089	0.802000	0.318000	0.824000
C10901	C1090	0.811000	0.341000	0.797000
C10911	C1091	0.846000	0.352000	0.796000
C10921	C1092	0.784000	0.355000	0.773000
N3331	N333	0.898000	0.426000	0.797000
N3341	N334	0.805000	0.451000	0.781000
N3351	N335	0.941000	0.350000	0.761000
N3361	N336	0.874000	0.344000	0.826000
H9141	H914	0.919950	0.290960	0.771170
H9151	H915	0.939440	0.264320	0.709050
H9161	H916	0.968870	0.312390	0.661830
H9171	H917	0.960500	0.382670	0.674770
H9181	H918	0.941010	0.408070	0.733690
H9191	H919	0.878160	0.330630	0.880060
H9201	H920	0.824380	0.285500	0.870490
H9211	H921	0.772690	0.304480	0.827060
H9221	H922	0.856910	0.369070	0.770680
H9231	H923	0.782780	0.386790	0.766740
H9241	H924	0.762620	0.334920	0.759170
C10931	C1093	0.889000	0.550000	0.718000
C10941	C1094	0.828000	0.532000	0.727000
C10951	C1095	0.934000	0.690000	0.751000
C10961	C1096	0.943000	0.704000	0.785000
C10971	C1097	0.956000	0.678000	0.810000
C10981	C1098	0.954000	0.639000	0.802000
C10991	C1099	0.945000	0.624000	0.769000
C11001	C1100	0.862000	0.671000	0.648000
C11011	C1101	0.830000	0.690000	0.650000
C11021	C1102	0.802000	0.682000	0.676000
C11031	C1103	0.811000	0.659000	0.703000
C11041	C1104	0.846000	0.648000	0.704000
C11051	C1105	0.784000	0.645000	0.727000
N3371	N337	0.898000	0.574000	0.703000
N3381	N338	0.805000	0.549000	0.719000
N3391	N339	0.941000	0.650000	0.739000
N3401	N340	0.874000	0.656000	0.674000
H9251	H925	0.919950	0.709040	0.728830
H9261	H926	0.939440	0.735680	0.790950
H9271	H927	0.968870	0.687610	0.838170
H9281	H928	0.960500	0.617330	0.825230
H9291	H929	0.941010	0.591930	0.766310
H9301	H930	0.878160	0.669370	0.619940
H9311	H931	0.824380	0.714500	0.629510
H9321	H932	0.772690	0.695520	0.672940
H9331	H933	0.856910	0.630930	0.729320
H9341	H934	0.782780	0.613210	0.733260
H9351	H935	0.762620	0.665080	0.740830
C11061	C1106	0.389000	0.050000	0.218000
C11071	C1107	0.328000	0.032000	0.227000
C11081	C1108	0.434000	0.190000	0.251000
C11091	C1109	0.443000	0.204000	0.285000
C11101	C1110	0.456000	0.178000	0.310000
C11111	C1111	0.454000	0.139000	0.302000
C11121	C1112	0.445000	0.124000	0.269000
C11131	C1113	0.362000	0.171000	0.148000
C11141	C1114	0.330000	0.190000	0.150000
C11151	C1115	0.302000	0.182000	0.176000
C11161	C1116	0.311000	0.159000	0.203000
C11171	C1117	0.346000	0.148000	0.204000
C11181	C1118	0.284000	0.145000	0.227000
N3411	N341	0.398000	0.074000	0.203000
N3421	N342	0.305000	0.049000	0.219000
N3431	N343	0.441000	0.150000	0.239000
N3441	N344	0.374000	0.156000	0.174000
H9361	H936	0.419950	0.209040	0.228830
H9371	H937	0.439440	0.235680	0.290950
H9381	H938	0.468870	0.187610	0.338170
H9391	H939	0.460500	0.117330	0.325230
H9401	H940	0.441010	0.091930	0.266310
H9411	H941	0.378160	0.169370	0.119940
H9421	H942	0.324380	0.214500	0.129510
H9431	H943	0.272690	0.195520	0.172940
H9441	H944	0.356910	0.130930	0.229320
H9451	H945	0.282780	0.113210	0.233260
H9461	H946	0.262620	0.165080	0.240830
C11191	C1119	0.111000	0.050000	0.782000
C11201	C1120	0.172000	0.032000	0.773000
C11211	C1121	0.066000	0.190000	0.749000
C11221	C1122	0.057000	0.204000	0.715000
C11231	C1123	0.044000	0.178000	0.690000
C11241	C1124	0.046000	0.139000	0.698000
C11251	C1125	0.055000	0.124000	0.731000
C11261	C1126	0.138000	0.171000	0.852000
C11271	C1127	0.170000	0.190000	0.850000
C11281	C1128	0.198000	0.182000	0.824000
C11291	C1129	0.189000	0.159000	0.797000
C11301	C1130	0.154000	0.148000	0.796000
C11311	C1131	0.216000	0.145000	0.773000
N3451	N345	0.102000	0.074000	0.797000
N3461	N346	0.195000	0.049000	0.781000
N3471	N347	0.059000	0.150000	0.761000
N3481	N348	0.126000	0.156000	0.826000
H9471	H947	0.080050	0.209040	0.771170
H9481	H948	0.060560	0.235680	0.709050
H9491	H949	0.031130	0.187610	0.661830
H9501	H950	0.039500	0.117330	0.674770
H9511	H951	0.058990	0.091930	0.733690
H9521	H952	0.121840	0.169370	0.880060
H9531	H953	0.175620	0.214500	0.870490
H9541	H954	0.227310	0.195520	0.827060
H9551	H955	0.143090	0.130930	0.770680
H9561	H956	0.217220	0.113210	0.766740
H9571	H957	0.237380	0.165080	0.759170
C11321	C1132	0.611000	0.550000	0.282000
C11331	C1133	0.672000	0.532000	0.273000
C11341	C1134	0.566000	0.690000	0.249000
C11351	C1135	0.557000	0.704000	0.215000
C11361	C1136	0.544000	0.678000	0.190000
C11371	C1137	0.546000	0.639000	0.198000
C11381	C1138	0.555000	0.624000	0.231000
C11391	C1139	0.638000	0.671000	0.352000
C11401	C1140	0.670000	0.690000	0.350000
C11411	C1141	0.698000	0.682000	0.324000
C11421	C1142	0.689000	0.659000	0.297000
C11431	C1143	0.654000	0.648000	0.296000
C11441	C1144	0.716000	0.645000	0.273000
N3491	N349	0.602000	0.574000	0.297000
N3501	N350	0.695000	0.549000	0.281000
N3511	N351	0.559000	0.650000	0.261000
N3521	N352	0.626000	0.656000	0.326000
H9581	H958	0.580050	0.709040	0.271170
H9591	H959	0.560560	0.735680	0.209050
H9601	H960	0.531130	0.687610	0.161830
H9611	H961	0.539500	0.617330	0.174770
H9621	H962	0.558990	0.591930	0.233690
H9631	H963	0.621840	0.669370	0.380060
H9641	H964	0.675620	0.714500	0.370490
H9651	H965	0.727310	0.695520	0.327060
H9661	H966	0.643090	0.630930	0.270680
H9671	H967	0.717220	0.613210	0.266740
H9681	H968	0.737380	0.665080	0.259170
C11451	C1145	0.950000	0.282000	0.389000
C11461	C1146	0.968000	0.273000	0.328000
C11471	C1147	0.810000	0.249000	0.434000
C11481	C1148	0.796000	0.215000	0.443000
C11491	C1149	0.822000	0.190000	0.456000
C11501	C1150	0.861000	0.198000	0.454000
C11511	C1151	0.876000	0.231000	0.445000
C11521	C1152	0.829000	0.352000	0.362000
C11531	C1153	0.810000	0.350000	0.330000
C11541	C1154	0.818000	0.324000	0.302000
C11551	C1155	0.841000	0.297000	0.311000
C11561	C1156	0.852000	0.296000	0.346000
C11571	C1157	0.855000	0.273000	0.284000
N3531	N353	0.926000	0.297000	0.398000
N3541	N354	0.951000	0.281000	0.305000
N3551	N355	0.850000	0.261000	0.441000
N3561	N356	0.844000	0.326000	0.374000
H9691	H969	0.790960	0.271170	0.419950
H9701	H970	0.764320	0.209050	0.439440
H9711	H971	0.812390	0.161830	0.468870
H9721	H972	0.882670	0.174770	0.460500
H9731	H973	0.908070	0.233690	0.441010
H9741	H974	0.830630	0.380060	0.378160
H9751	H975	0.785500	0.370490	0.324380
H9761	H976	0.804480	0.327060	0.272690
H9771	H977	0.869070	0.270680	0.356910
H9781	H978	0.886790	0.266740	0.282780
H9791	H979	0.834920	0.259170	0.262620
C11581	C1158	0.450000	0.782000	0.889000
C11591	C1159	0.468000	0.773000	0.828000
C11601	C1160	0.310000	0.749000	0.934000
C11611	C1161	0.296000	0.715000	0.943000
C11621	C1162	0.322000	0.690000	0.956000
C11631	C1163	0.361000	0.698000	0.954000
C11641	C1164	0.376000	0.731000	0.945000
C11651	C1165	0.329000	0.852000	0.862000
C11661	C1166	0.310000	0.850000	0.830000
C11671	C1167	0.318000	0.824000	0.802000
C11681	C1168	0.341000	0.797000	0.811000
C11691	C1169	0.352000	0.796000	0.846000
C11701	C1170	0.355000	0.773000	0.784000
N3571	N357	0.426000	0.797000	0.898000
N3581	N358	0.451000	0.781000	0.805000
N3591	N359	0.350000	0.761000	0.941000
N3601	N360	0.344000	0.826000	0.874000
H9801	H980	0.290960	0.771170	0.919950
H9811	H981	0.264320	0.709050	0.939440
H9821	H982	0.312390	0.661830	0.968870
H9831	H983	0.382670	0.674770	0.960500
H9841	H984	0.408070	0.733690	0.941010
H9851	H985	0.330630	0.880060	0.878160
H9861	H986	0.285500	0.870490	0.824380
H9871	H987	0.304480	0.827060	0.772690
H9881	H988	0.369070	0.770680	0.856910
H9891	H989	0.386790	0.766740	0.782780
H9901	H990	0.334920	0.759170	0.762620
C11711	C1171	0.450000	0.218000	0.611000
C11721	C1172	0.468000	0.227000	0.672000
C11731	C1173	0.310000	0.251000	0.566000
C11741	C1174	0.296000	0.285000	0.557000
C11751	C1175	0.322000	0.310000	0.544000
C11761	C1176	0.361000	0.302000	0.546000
C11771	C1177	0.376000	0.269000	0.555000
C11781	C1178	0.329000	0.148000	0.638000
C11791	C1179	0.310000	0.150000	0.670000
C11801	C1180	0.318000	0.176000	0.698000
C11811	C1181	0.341000	0.203000	0.689000
C11821	C1182	0.352000	0.204000	0.654000
C11831	C1183	0.355000	0.227000	0.716000
N3611	N361	0.426000	0.203000	0.602000
N3621	N362	0.451000	0.219000	0.695000
N3631	N363	0.350000	0.239000	0.559000
N3641	N364	0.344000	0.174000	0.626000
H9911	H991	0.290960	0.228830	0.580050
H9921	H992	0.264320	0.290950	0.560560
H9931	H993	0.312390	0.338170	0.531130
H9941	H994	0.382670	0.325230	0.539500
H9951	H995	0.408070	0.266310	0.558990
H9961	H996	0.330630	0.119940	0.621840
H9971	H997	0.285500	0.129510	0.675620
H9981	H998	0.304480	0.172940	0.727310
H9991	H999	0.369070	0.229320	0.643090
H10001	H1000	0.386790	0.233260	0.717220
H10011	H1001	0.334920	0.240830	0.737380
C11841	C1184	0.950000	0.718000	0.111000
C11851	C1185	0.968000	0.727000	0.172000
C11861	C1186	0.810000	0.751000	0.066000
C11871	C1187	0.796000	0.785000	0.057000
C11881	C1188	0.822000	0.810000	0.044000
C11891	C1189	0.861000	0.802000	0.046000
C11901	C1190	0.876000	0.769000	0.055000
C11911	C1191	0.829000	0.648000	0.138000
C11921	C1192	0.810000	0.650000	0.170000
C11931	C1193	0.818000	0.676000	0.198000
C11941	C1194	0.841000	0.703000	0.189000
C11951	C1195	0.852000	0.704000	0.154000
C11961	C1196	0.855000	0.727000	0.216000
N3651	N365	0.926000	0.703000	0.102000
N3661	N366	0.951000	0.719000	0.195000
N3671	N367	0.850000	0.739000	0.059000
N3681	N368	0.844000	0.674000	0.126000
H10021	H1002	0.790960	0.728830	0.080050
H10031	H1003	0.764320	0.790950	0.060560
H10041	H1004	0.812390	0.838170	0.031130
H10051	H1005	0.882670	0.825230	0.039500
H10061	H1006	0.908070	0.766310	0.058990
H10071	H1007	0.830630	0.619940	0.121840
H10081	H1008	0.785500	0.629510	0.175620
H10091	H1009	0.804480	0.672940	0.227310
H10101	H1010	0.869070	0.729320	0.143090
H10111	H1011	0.886790	0.733260	0.217220
H10121	H1012	0.834920	0.740830	0.237380
C11971	C1197	0.050000	0.782000	0.111000
C11981	C1198	0.032000	0.773000	0.172000
C11991	C1199	0.190000	0.749000	0.066000
C12001	C1200	0.204000	0.715000	0.057000
C12011	C1201	0.178000	0.690000	0.044000
C12021	C1202	0.139000	0.698000	0.046000
C12031	C1203	0.124000	0.731000	0.055000
C12041	C1204	0.171000	0.852000	0.138000
C12051	C1205	0.190000	0.850000	0.170000
C12061	C1206	0.182000	0.824000	0.198000
C12071	C1207	0.159000	0.797000	0.189000
C12081	C1208	0.148000	0.796000	0.154000
C12091	C1209	0.145000	0.773000	0.216000
N3691	N369	0.074000	0.797000	0.102000
N3701	N370	0.049000	0.781000	0.195000
N3711	N371	0.150000	0.761000	0.059000
N3721	N372	0.156000	0.826000	0.126000
H10131	H1013	0.209040	0.771170	0.080050
H10141	H1014	0.235680	0.709050	0.060560
H10151	H1015	0.187610	0.661830	0.031130
H10161	H1016	0.117330	0.674770	0.039500
H10171	H1017	0.091930	0.733690	0.058990
H10181	H1018	0.169370	0.880060	0.121840
H10191	H1019	0.214500	0.870490	0.175620
H10201	H1020	0.195520	0.827060	0.227310
H10211	H1021	0.130930	0.770680	0.143090
H10221	H1022	0.113210	0.766740	0.217220
H10231	H1023	0.165080	0.759170	0.237380
C12101	C1210	0.550000	0.282000	0.611000
C12111	C1211	0.532000	0.273000	0.672000
C12121	C1212	0.690000	0.249000	0.566000
C12131	C1213	0.704000	0.215000	0.557000
C12141	C1214	0.678000	0.190000	0.544000
C12151	C1215	0.639000	0.198000	0.546000
C12161	C1216	0.624000	0.231000	0.555000
C12171	C1217	0.671000	0.352000	0.638000
C12181	C1218	0.690000	0.350000	0.670000
C12191	C1219	0.682000	0.324000	0.698000
C12201	C1220	0.659000	0.297000	0.689000
C12211	C1221	0.648000	0.296000	0.654000
C12221	C1222	0.645000	0.273000	0.716000
N3731	N373	0.574000	0.297000	0.602000
N3741	N374	0.549000	0.281000	0.695000
N3751	N375	0.650000	0.261000	0.559000
N3761	N376	0.656000	0.326000	0.626000
H10241	H1024	0.709040	0.271170	0.580050
H10251	H1025	0.735680	0.209050	0.560560
H10261	H1026	0.687610	0.161830	0.531130
H10271	H1027	0.617330	0.174770	0.539500
H10281	H1028	0.591930	0.233690	0.558990
H10291	H1029	0.669370	0.380060	0.621840
H10301	H1030	0.714500	0.370490	0.675620
H10311	H1031	0.695520	0.327060	0.727310
H10321	H1032	0.630930	0.270680	0.643090
H10331	H1033	0.613210	0.266740	0.717220
H10341	H1034	0.665080	0.259170	0.737380
C12231	C1223	0.550000	0.718000	0.889000
C12241	C1224	0.532000	0.727000	0.828000
C12251	C1225	0.690000	0.751000	0.934000
C12261	C1226	0.704000	0.785000	0.943000
C12271	C1227	0.678000	0.810000	0.956000
C12281	C1228	0.639000	0.802000	0.954000
C12291	C1229	0.624000	0.769000	0.945000
C12301	C1230	0.671000	0.648000	0.862000
C12311	C1231	0.690000	0.650000	0.830000
C12321	C1232	0.682000	0.676000	0.802000
C12331	C1233	0.659000	0.703000	0.811000
C12341	C1234	0.648000	0.704000	0.846000
C12351	C1235	0.645000	0.727000	0.784000
N3771	N377	0.574000	0.703000	0.898000
N3781	N378	0.549000	0.719000	0.805000
N3791	N379	0.650000	0.739000	0.941000
N3801	N380	0.656000	0.674000	0.874000
H10351	H1035	0.709040	0.728830	0.919950
H10361	H1036	0.735680	0.790950	0.939440
H10371	H1037	0.687610	0.838170	0.968870
H10381	H1038	0.617330	0.825230	0.960500
H10391	H1039	0.591930	0.766310	0.941010
H10401	H1040	0.669370	0.619940	0.878160
H10411	H1041	0.714500	0.629510	0.824380
H10421	H1042	0.695520	0.672940	0.772690
H10431	H1043	0.630930	0.729320	0.856910
H10441	H1044	0.613210	0.733260	0.782780
H10451	H1045	0.665080	0.740830	0.762620
C12361	C1236	0.050000	0.218000	0.389000
C12371	C1237	0.032000	0.227000	0.328000
C12381	C1238	0.190000	0.251000	0.434000
C12391	C1239	0.204000	0.285000	0.443000
C12401	C1240	0.178000	0.310000	0.456000
C12411	C1241	0.139000	0.302000	0.454000
C12421	C1242	0.124000	0.269000	0.445000
C12431	C1243	0.171000	0.148000	0.362000
C12441	C1244	0.190000	0.150000	0.330000
C12451	C1245	0.182000	0.176000	0.302000
C12461	C1246	0.159000	0.203000	0.311000
C12471	C1247	0.148000	0.204000	0.346000
C12481	C1248	0.145000	0.227000	0.284000
N3811	N381	0.074000	0.203000	0.398000
N3821	N382	0.049000	0.219000	0.305000
N3831	N383	0.150000	0.239000	0.441000
N3841	N384	0.156000	0.174000	0.374000
H10461	H1046	0.209040	0.228830	0.419950
H10471	H1047	0.235680	0.290950	0.439440
H10481	H1048	0.187610	0.338170	0.468870
H10491	H1049	0.117330	0.325230	0.460500
H10501	H1050	0.091930	0.266310	0.441010
H10511	H1051	0.169370	0.119940	0.378160
H10521	H1052	0.214500	0.129510	0.324380
H10531	H1053	0.195520	0.172940	0.272690
H10541	H1054	0.130930	0.229320	0.356910
H10551	H1055	0.113210	0.233260	0.282780
H10561	H1056	0.165080	0.240830	0.262620
Nb11	Nb1	0.625000	0.500000	0.250000
Nb21	Nb2	0.875000	0.500000	0.750000
Nb31	Nb3	0.375000	0.000000	0.250000
Nb41	Nb4	0.125000	0.000000	0.750000
Nb51	Nb5	0.250000	0.625000	0.500000
Nb61	Nb6	0.750000	0.875000	0.500000
Nb71	Nb7	0.250000	0.375000	0.000000
Nb81	Nb8	0.750000	0.125000	0.000000
Nb91	Nb9	0.500000	0.250000	0.625000
Nb101	Nb10	0.500000	0.750000	0.875000
Nb111	Nb11	0.000000	0.250000	0.375000
Nb121	Nb12	0.000000	0.750000	0.125000
Nb131	Nb13	0.250000	0.875000	0.000000
Nb141	Nb14	0.750000	0.375000	0.500000
Nb151	Nb15	0.250000	0.125000	0.500000
Nb161	Nb16	0.750000	0.625000	0.000000
Nb171	Nb17	0.375000	0.500000	0.750000
Nb181	Nb18	0.625000	0.000000	0.750000
Nb191	Nb19	0.125000	0.500000	0.250000
Nb201	Nb20	0.875000	0.000000	0.250000
Nb211	Nb21	0.000000	0.750000	0.625000
Nb221	Nb22	0.500000	0.750000	0.375000
Nb231	Nb23	0.000000	0.250000	0.875000
Nb241	Nb24	0.500000	0.250000	0.125000
Fe11	Fe1	0.682000	0.432000	0.375000
Fe21	Fe2	0.818000	0.568000	0.875000
Fe31	Fe3	0.318000	0.932000	0.125000
Fe41	Fe4	0.182000	0.068000	0.625000
Fe51	Fe5	0.375000	0.682000	0.432000
Fe61	Fe6	0.875000	0.818000	0.568000
Fe71	Fe7	0.125000	0.318000	0.932000
Fe81	Fe8	0.625000	0.182000	0.068000
Fe91	Fe9	0.432000	0.375000	0.682000
Fe101	Fe10	0.568000	0.875000	0.818000
Fe111	Fe11	0.932000	0.125000	0.318000
Fe121	Fe12	0.068000	0.625000	0.182000
Fe131	Fe13	0.182000	0.932000	0.875000
Fe141	Fe14	0.318000	0.068000	0.375000
Fe151	Fe15	0.682000	0.568000	0.125000
Fe161	Fe16	0.818000	0.432000	0.625000
Fe171	Fe17	0.432000	0.625000	0.818000
Fe181	Fe18	0.568000	0.125000	0.682000
Fe191	Fe19	0.068000	0.375000	0.318000
Fe201	Fe20	0.932000	0.875000	0.182000
Fe211	Fe21	0.125000	0.682000	0.568000
Fe221	Fe22	0.625000	0.818000	0.432000
Fe231	Fe23	0.875000	0.182000	0.932000
Fe241	Fe24	0.375000	0.318000	0.068000
Fe251	Fe25	0.318000	0.568000	0.625000
Fe261	Fe26	0.182000	0.432000	0.125000
Fe271	Fe27	0.682000	0.068000	0.875000
Fe281	Fe28	0.818000	0.932000	0.375000
Fe291	Fe29	0.625000	0.318000	0.568000
Fe301	Fe30	0.125000	0.182000	0.432000
Fe311	Fe31	0.875000	0.682000	0.068000
Fe321	Fe32	0.375000	0.818000	0.932000
Fe331	Fe33	0.568000	0.625000	0.318000
Fe341	Fe34	0.432000	0.125000	0.182000
Fe351	Fe35	0.068000	0.875000	0.682000
Fe361	Fe36	0.932000	0.375000	0.818000
Fe371	Fe37	0.818000	0.068000	0.125000
Fe381	Fe38	0.682000	0.932000	0.625000
Fe391	Fe39	0.318000	0.432000	0.875000
Fe401	Fe40	0.182000	0.568000	0.375000
Fe411	Fe41	0.568000	0.375000	0.182000
Fe421	Fe42	0.432000	0.875000	0.318000
Fe431	Fe43	0.932000	0.625000	0.682000
Fe441	Fe44	0.068000	0.125000	0.818000
Fe451	Fe45	0.875000	0.318000	0.432000
Fe461	Fe46	0.375000	0.182000	0.568000
Fe471	Fe47	0.125000	0.818000	0.068000
Fe481	Fe48	0.625000	0.682000	0.932000
