data_WURKEB_clean_PM
_symmetry_space_group_name_H-M	'P1'
_cell_length_a	18.250700
_cell_length_b	18.165100
_cell_length_c	18.851800
_cell_angle_alpha	90.000000
_cell_angle_beta	90.000000
_cell_angle_gamma	90.000000
_symmetry_Int_Tables_number 1

loop_
_symmetry_equiv_pos_as_xyz
'x,y,z'

loop_
_atom_site_label
_atom_site_type_symbol
_atom_site_fract_x
_atom_site_fract_y
_atom_site_fract_z
Mn11	Mn1	0.223710	0.693340	0.089380
Mn21	Mn2	0.220530	0.491400	0.094170
O11	O1	0.234490	0.383990	0.134910
O21	O2	0.317730	0.523770	0.145790
O31	O3	0.229580	0.502780	0.487880
O41	O4	0.641470	0.535420	0.337410
O51	O5	0.288150	0.403600	0.521090
O61	O6	0.632830	0.657040	0.346480
O71	O7	0.276440	0.277360	0.171020
O81	O8	0.311210	0.645840	0.148130
O91	O9	0.316200	0.255890	0.299350
H11	H1	0.315600	0.247600	0.256600
O101	O10	0.414700	0.721300	0.200400
H21	H2	0.375800	0.713700	0.180100
C11	C1	0.253820	0.341540	0.182740
C21	C2	0.251360	0.364260	0.259030
C31	C3	0.216700	0.428730	0.278160
H31	H3	0.193100	0.456500	0.243600
C41	C4	0.216300	0.453050	0.348280
H41	H4	0.193000	0.496900	0.360200
C51	C5	0.250700	0.411740	0.399940
C61	C6	0.283660	0.345540	0.382210
H51	H5	0.305800	0.317200	0.417300
C71	C7	0.283820	0.321170	0.312190
C81	C8	0.255420	0.440090	0.474020
C91	C9	0.341180	0.585610	0.162660
C101	C10	0.412200	0.589280	0.203650
C111	C11	0.445400	0.524700	0.226600
H61	H6	0.424000	0.479500	0.216200
C121	C12	0.509900	0.527060	0.264600
H71	H7	0.531700	0.483500	0.279600
C131	C13	0.542380	0.594390	0.280780
C141	C14	0.510020	0.658400	0.257860
H81	H8	0.531700	0.703500	0.268100
C151	C15	0.445100	0.656310	0.219480
C161	C16	0.611450	0.596020	0.324820
Mn31	Mn3	0.276290	0.306660	0.589380
Mn41	Mn4	0.279470	0.508600	0.594170
O111	O11	0.265510	0.616010	0.634910
O121	O12	0.182270	0.476230	0.645790
O131	O13	0.270420	0.497220	0.987880
O141	O14	0.858530	0.464580	0.837410
O151	O15	0.211850	0.596400	0.021090
O161	O16	0.867170	0.342960	0.846480
O171	O17	0.223560	0.722640	0.671020
O181	O18	0.188790	0.354160	0.648130
O191	O19	0.183800	0.744110	0.799350
H91	H9	0.184400	0.752400	0.756600
O201	O20	0.085300	0.278700	0.700400
H101	H10	0.124200	0.286300	0.680100
C171	C17	0.246180	0.658460	0.682740
C181	C18	0.248640	0.635740	0.759030
C191	C19	0.283300	0.571270	0.778160
H111	H11	0.306900	0.543500	0.743600
C201	C20	0.283700	0.546950	0.848280
H121	H12	0.307000	0.503100	0.860200
C211	C21	0.249300	0.588260	0.899940
C221	C22	0.216340	0.654460	0.882210
H131	H13	0.194200	0.682800	0.917300
C231	C23	0.216180	0.678830	0.812190
C241	C24	0.244580	0.559910	0.974020
C251	C25	0.158820	0.414390	0.662660
C261	C26	0.087800	0.410720	0.703650
C271	C27	0.054600	0.475300	0.726600
H141	H14	0.076000	0.520500	0.716200
C281	C28	0.990100	0.472940	0.764600
H151	H15	0.968300	0.516500	0.779600
C291	C29	0.957620	0.405610	0.780780
C301	C30	0.989980	0.341600	0.757860
H161	H16	0.968300	0.296500	0.768100
C311	C31	0.054900	0.343690	0.719480
C321	C32	0.888550	0.403980	0.824820
Mn51	Mn5	0.776290	0.193340	0.410620
Mn61	Mn6	0.779470	0.991400	0.405830
O211	O21	0.765510	0.883990	0.365090
O221	O22	0.682270	0.023770	0.354210
O231	O23	0.770420	0.002780	0.012120
O241	O24	0.358530	0.035420	0.162590
O251	O25	0.711850	0.903600	0.978910
O261	O26	0.367170	0.157040	0.153520
O271	O27	0.723560	0.777360	0.328980
O281	O28	0.688790	0.145840	0.351870
O291	O29	0.683800	0.755890	0.200650
H171	H17	0.684400	0.747600	0.243400
O301	O30	0.585300	0.221300	0.299600
H181	H18	0.624200	0.213700	0.319900
C331	C33	0.746180	0.841540	0.317260
C341	C34	0.748640	0.864260	0.240970
C351	C35	0.783300	0.928730	0.221840
H191	H19	0.806900	0.956500	0.256400
C361	C36	0.783700	0.953050	0.151720
H201	H20	0.807000	0.996900	0.139800
C371	C37	0.749300	0.911740	0.100060
C381	C38	0.716340	0.845540	0.117790
H211	H21	0.694200	0.817200	0.082700
C391	C39	0.716180	0.821170	0.187810
C401	C40	0.744580	0.940090	0.025980
C411	C41	0.658820	0.085610	0.337340
C421	C42	0.587800	0.089280	0.296350
C431	C43	0.554600	0.024700	0.273400
H221	H22	0.576000	0.979500	0.283800
C441	C44	0.490100	0.027060	0.235400
H231	H23	0.468300	0.983500	0.220400
C451	C45	0.457620	0.094390	0.219220
C461	C46	0.489980	0.158400	0.242140
H241	H24	0.468300	0.203500	0.231900
C471	C47	0.554900	0.156310	0.280520
C481	C48	0.388550	0.096020	0.175180
Mn71	Mn7	0.723710	0.806660	0.910620
Mn81	Mn8	0.720530	0.008600	0.905830
O311	O31	0.734490	0.116010	0.865090
O321	O32	0.817730	0.976230	0.854210
O331	O33	0.729580	0.997220	0.512120
O341	O34	0.141470	0.964580	0.662590
O351	O35	0.788150	0.096400	0.478910
O361	O36	0.132830	0.842960	0.653520
O371	O37	0.776440	0.222640	0.828980
O381	O38	0.811210	0.854160	0.851870
O391	O39	0.816200	0.244110	0.700650
H251	H25	0.815600	0.252400	0.743400
O401	O40	0.914700	0.778700	0.799600
H261	H26	0.875800	0.786300	0.819900
C491	C49	0.753820	0.158460	0.817260
C501	C50	0.751360	0.135740	0.740970
C511	C51	0.716700	0.071270	0.721840
H271	H27	0.693100	0.043500	0.756400
C521	C52	0.716300	0.046950	0.651720
H281	H28	0.693000	0.003100	0.639800
C531	C53	0.750700	0.088260	0.600060
C541	C54	0.783660	0.154460	0.617790
H291	H29	0.805800	0.182800	0.582700
C551	C55	0.783820	0.178830	0.687810
C561	C56	0.755420	0.059910	0.525980
C571	C57	0.841180	0.914390	0.837340
C581	C58	0.912200	0.910720	0.796350
C591	C59	0.945400	0.975300	0.773400
H301	H30	0.924000	0.020500	0.783800
C601	C60	0.009900	0.972940	0.735400
H311	H31	0.031700	0.016500	0.720400
C611	C61	0.042380	0.905610	0.719220
C621	C62	0.010020	0.841600	0.742140
H321	H32	0.031700	0.796500	0.731900
C631	C63	0.945100	0.843690	0.780520
C641	C64	0.111450	0.903980	0.675180
Mn91	Mn9	0.776290	0.306660	0.910620
Mn101	Mn10	0.779470	0.508600	0.905830
O411	O41	0.765510	0.616010	0.865090
O421	O42	0.682270	0.476230	0.854210
O431	O43	0.770420	0.497220	0.512120
O441	O44	0.358530	0.464580	0.662590
O451	O45	0.711850	0.596400	0.478910
O461	O46	0.367170	0.342960	0.653520
O471	O47	0.723560	0.722640	0.828980
O481	O48	0.688790	0.354160	0.851870
O491	O49	0.683800	0.744110	0.700650
H331	H33	0.684400	0.752400	0.743400
O501	O50	0.585300	0.278700	0.799600
H341	H34	0.624200	0.286300	0.819900
C651	C65	0.746180	0.658460	0.817260
C661	C66	0.748640	0.635740	0.740970
C671	C67	0.783300	0.571270	0.721840
H351	H35	0.806900	0.543500	0.756400
C681	C68	0.783700	0.546950	0.651720
H361	H36	0.807000	0.503100	0.639800
C691	C69	0.749300	0.588260	0.600060
C701	C70	0.716340	0.654460	0.617790
H371	H37	0.694200	0.682800	0.582700
C711	C71	0.716180	0.678830	0.687810
C721	C72	0.744580	0.559910	0.525980
C731	C73	0.658820	0.414390	0.837340
C741	C74	0.587800	0.410720	0.796350
C751	C75	0.554600	0.475300	0.773400
H381	H38	0.576000	0.520500	0.783800
C761	C76	0.490100	0.472940	0.735400
H391	H39	0.468300	0.516500	0.720400
C771	C77	0.457620	0.405610	0.719220
C781	C78	0.489980	0.341600	0.742140
H401	H40	0.468300	0.296500	0.731900
C791	C79	0.554900	0.343690	0.780520
C801	C80	0.388550	0.403980	0.675180
Mn111	Mn11	0.723710	0.693340	0.410620
Mn121	Mn12	0.720530	0.491400	0.405830
O511	O51	0.734490	0.383990	0.365090
O521	O52	0.817730	0.523770	0.354210
O531	O53	0.729580	0.502780	0.012120
O541	O54	0.141470	0.535420	0.162590
O551	O55	0.788150	0.403600	0.978910
O561	O56	0.132830	0.657040	0.153520
O571	O57	0.776440	0.277360	0.328980
O581	O58	0.811210	0.645840	0.351870
O591	O59	0.816200	0.255890	0.200650
H411	H41	0.815600	0.247600	0.243400
O601	O60	0.914700	0.721300	0.299600
H421	H42	0.875800	0.713700	0.319900
C811	C81	0.753820	0.341540	0.317260
C821	C82	0.751360	0.364260	0.240970
C831	C83	0.716700	0.428730	0.221840
H431	H43	0.693100	0.456500	0.256400
C841	C84	0.716300	0.453050	0.151720
H441	H44	0.693000	0.496900	0.139800
C851	C85	0.750700	0.411740	0.100060
C861	C86	0.783660	0.345540	0.117790
H451	H45	0.805800	0.317200	0.082700
C871	C87	0.783820	0.321170	0.187810
C881	C88	0.755420	0.440090	0.025980
C891	C89	0.841180	0.585610	0.337340
C901	C90	0.912200	0.589280	0.296350
C911	C91	0.945400	0.524700	0.273400
H461	H46	0.924000	0.479500	0.283800
C921	C92	0.009900	0.527060	0.235400
H471	H47	0.031700	0.483500	0.220400
C931	C93	0.042380	0.594390	0.219220
C941	C94	0.010020	0.658400	0.242140
H481	H48	0.031700	0.703500	0.231900
C951	C95	0.945100	0.656310	0.280520
C961	C96	0.111450	0.596020	0.175180
Mn131	Mn13	0.223710	0.806660	0.589380
Mn141	Mn14	0.220530	0.008600	0.594170
O611	O61	0.234490	0.116010	0.634910
O621	O62	0.317730	0.976230	0.645790
O631	O63	0.229580	0.997220	0.987880
O641	O64	0.641470	0.964580	0.837410
O651	O65	0.288150	0.096400	0.021090
O661	O66	0.632830	0.842960	0.846480
O671	O67	0.276440	0.222640	0.671020
O681	O68	0.311210	0.854160	0.648130
O691	O69	0.316200	0.244110	0.799350
H491	H49	0.315600	0.252400	0.756600
O701	O70	0.414700	0.778700	0.700400
H501	H50	0.375800	0.786300	0.680100
C971	C97	0.253820	0.158460	0.682740
C981	C98	0.251360	0.135740	0.759030
C991	C99	0.216700	0.071270	0.778160
H511	H51	0.193100	0.043500	0.743600
C1001	C100	0.216300	0.046950	0.848280
H521	H52	0.193000	0.003100	0.860200
C1011	C101	0.250700	0.088260	0.899940
C1021	C102	0.283660	0.154460	0.882210
H531	H53	0.305800	0.182800	0.917300
C1031	C103	0.283820	0.178830	0.812190
C1041	C104	0.255420	0.059910	0.974020
C1051	C105	0.341180	0.914390	0.662660
C1061	C106	0.412200	0.910720	0.703650
C1071	C107	0.445400	0.975300	0.726600
H541	H54	0.424000	0.020500	0.716200
C1081	C108	0.509900	0.972940	0.764600
H551	H55	0.531700	0.016500	0.779600
C1091	C109	0.542380	0.905610	0.780780
C1101	C110	0.510020	0.841600	0.757860
H561	H56	0.531700	0.796500	0.768100
C1111	C111	0.445100	0.843690	0.719480
C1121	C112	0.611450	0.903980	0.824820
Mn151	Mn15	0.276290	0.193340	0.089380
Mn161	Mn16	0.279470	0.991400	0.094170
O711	O71	0.265510	0.883990	0.134910
O721	O72	0.182270	0.023770	0.145790
O731	O73	0.270420	0.002780	0.487880
O741	O74	0.858530	0.035420	0.337410
O751	O75	0.211850	0.903600	0.521090
O761	O76	0.867170	0.157040	0.346480
O771	O77	0.223560	0.777360	0.171020
O781	O78	0.188790	0.145840	0.148130
O791	O79	0.183800	0.755890	0.299350
H571	H57	0.184400	0.747600	0.256600
O801	O80	0.085300	0.221300	0.200400
H581	H58	0.124200	0.213700	0.180100
C1131	C113	0.246180	0.841540	0.182740
C1141	C114	0.248640	0.864260	0.259030
C1151	C115	0.283300	0.928730	0.278160
H591	H59	0.306900	0.956500	0.243600
C1161	C116	0.283700	0.953050	0.348280
H601	H60	0.307000	0.996900	0.360200
C1171	C117	0.249300	0.911740	0.399940
C1181	C118	0.216340	0.845540	0.382210
H611	H61	0.194200	0.817200	0.417300
C1191	C119	0.216180	0.821170	0.312190
C1201	C120	0.244580	0.940090	0.474020
C1211	C121	0.158820	0.085610	0.162660
C1221	C122	0.087800	0.089280	0.203650
C1231	C123	0.054600	0.024700	0.226600
H621	H62	0.076000	0.979500	0.216200
C1241	C124	0.990100	0.027060	0.264600
H631	H63	0.968300	0.983500	0.279600
C1251	C125	0.957620	0.094390	0.280780
C1261	C126	0.989980	0.158400	0.257860
H641	H64	0.968300	0.203500	0.268100
C1271	C127	0.054900	0.156310	0.219480
C1281	C128	0.888550	0.096020	0.324820
