data_WURNOO_clean_PM
_symmetry_space_group_name_H-M	'P1'
_cell_length_a	7.987800
_cell_length_b	33.935200
_cell_length_c	39.199200
_cell_angle_alpha	90.000000
_cell_angle_beta	90.000000
_cell_angle_gamma	90.000000
_symmetry_Int_Tables_number 1

loop_
_symmetry_equiv_pos_as_xyz
'x,y,z'

loop_
_atom_site_label
_atom_site_type_symbol
_atom_site_fract_x
_atom_site_fract_y
_atom_site_fract_z
Cu11	Cu1	0.204970	0.406180	0.350660
C11	C1	0.791900	0.581000	0.164210
C21	C2	0.642500	0.518800	0.180900
H11	H1	0.659000	0.508800	0.159100
C31	C3	0.558400	0.496200	0.205300
H21	H2	0.518300	0.471400	0.199600
C41	C4	0.534100	0.510900	0.238260
C51	C5	0.597500	0.548200	0.246560
H31	H3	0.584400	0.558000	0.268600
C61	C6	0.680200	0.570900	0.222000
H41	H4	0.720500	0.595800	0.227600
C71	C7	0.701900	0.556300	0.189500
C81	C8	0.307600	0.427900	0.282570
H51	H5	0.266600	0.403000	0.277300
C91	C9	0.386200	0.449000	0.257400
H61	H6	0.399500	0.438200	0.235700
C101	C10	0.446100	0.486800	0.264390
C111	C11	0.419600	0.501700	0.297500
H71	H7	0.454400	0.527100	0.303100
C121	C12	0.341800	0.478500	0.321400
H81	H8	0.326300	0.488500	0.343200
N11	N1	0.286900	0.441670	0.314510
O11	O1	0.828100	0.615820	0.173180
O21	O2	0.830400	0.565590	0.135690
Cu21	Cu2	0.204970	0.906180	0.850660
C131	C13	0.791900	0.081000	0.664210
C141	C14	0.642500	0.018800	0.680900
H91	H9	0.659000	0.008800	0.659100
C151	C15	0.558400	0.996200	0.705300
H101	H10	0.518300	0.971400	0.699600
C161	C16	0.534100	0.010900	0.738260
C171	C17	0.597500	0.048200	0.746560
H111	H11	0.584400	0.058000	0.768600
C181	C18	0.680200	0.070900	0.722000
H121	H12	0.720500	0.095800	0.727600
C191	C19	0.701900	0.056300	0.689500
C201	C20	0.307600	0.927900	0.782570
H131	H13	0.266600	0.903000	0.777300
C211	C21	0.386200	0.949000	0.757400
H141	H14	0.399500	0.938200	0.735700
C221	C22	0.446100	0.986800	0.764390
C231	C23	0.419600	0.001700	0.797500
H151	H15	0.454400	0.027100	0.803100
C241	C24	0.341800	0.978500	0.821400
H161	H16	0.326300	0.988500	0.843200
N21	N2	0.286900	0.941670	0.814510
O31	O3	0.828100	0.115820	0.673180
O41	O4	0.830400	0.065590	0.635690
Cu31	Cu3	0.704970	0.406180	0.850660
C251	C25	0.291900	0.581000	0.664210
C261	C26	0.142500	0.518800	0.680900
H171	H17	0.159000	0.508800	0.659100
C271	C27	0.058400	0.496200	0.705300
H181	H18	0.018300	0.471400	0.699600
C281	C28	0.034100	0.510900	0.738260
C291	C29	0.097500	0.548200	0.746560
H191	H19	0.084400	0.558000	0.768600
C301	C30	0.180200	0.570900	0.722000
H201	H20	0.220500	0.595800	0.727600
C311	C31	0.201900	0.556300	0.689500
C321	C32	0.807600	0.427900	0.782570
H211	H21	0.766600	0.403000	0.777300
C331	C33	0.886200	0.449000	0.757400
H221	H22	0.899500	0.438200	0.735700
C341	C34	0.946100	0.486800	0.764390
C351	C35	0.919600	0.501700	0.797500
H231	H23	0.954400	0.527100	0.803100
C361	C36	0.841800	0.478500	0.821400
H241	H24	0.826300	0.488500	0.843200
N31	N3	0.786900	0.441670	0.814510
O51	O5	0.328100	0.615820	0.673180
O61	O6	0.330400	0.565590	0.635690
Cu41	Cu4	0.704970	0.906180	0.350660
C371	C37	0.291900	0.081000	0.164210
C381	C38	0.142500	0.018800	0.180900
H251	H25	0.159000	0.008800	0.159100
C391	C39	0.058400	0.996200	0.205300
H261	H26	0.018300	0.971400	0.199600
C401	C40	0.034100	0.010900	0.238260
C411	C41	0.097500	0.048200	0.246560
H271	H27	0.084400	0.058000	0.268600
C421	C42	0.180200	0.070900	0.222000
H281	H28	0.220500	0.095800	0.227600
C431	C43	0.201900	0.056300	0.189500
C441	C44	0.807600	0.927900	0.282570
H291	H29	0.766600	0.903000	0.277300
C451	C45	0.886200	0.949000	0.257400
H301	H30	0.899500	0.938200	0.235700
C461	C46	0.946100	0.986800	0.264390
C471	C47	0.919600	0.001700	0.297500
H311	H31	0.954400	0.027100	0.303100
C481	C48	0.841800	0.978500	0.321400
H321	H32	0.826300	0.988500	0.343200
N41	N4	0.786900	0.941670	0.314510
O71	O7	0.328100	0.115820	0.173180
O81	O8	0.330400	0.065590	0.135690
Cu51	Cu5	0.545030	0.343820	0.350660
C491	C49	0.958100	0.169000	0.164210
C501	C50	0.107500	0.231200	0.180900
H331	H33	0.091000	0.241200	0.159100
C511	C51	0.191600	0.253800	0.205300
H341	H34	0.231700	0.278600	0.199600
C521	C52	0.215900	0.239100	0.238260
C531	C53	0.152500	0.201800	0.246560
H351	H35	0.165600	0.192000	0.268600
C541	C54	0.069800	0.179100	0.222000
H361	H36	0.029500	0.154200	0.227600
C551	C55	0.048100	0.193700	0.189500
C561	C56	0.442400	0.322100	0.282570
H371	H37	0.483400	0.347000	0.277300
C571	C57	0.363800	0.301000	0.257400
H381	H38	0.350500	0.311800	0.235700
C581	C58	0.303900	0.263200	0.264390
C591	C59	0.330400	0.248300	0.297500
H391	H39	0.295600	0.222900	0.303100
C601	C60	0.408200	0.271500	0.321400
H401	H40	0.423700	0.261500	0.343200
N51	N5	0.463100	0.308330	0.314510
O91	O9	0.921900	0.134180	0.173180
O101	O10	0.919600	0.184410	0.135690
Cu61	Cu6	0.545030	0.843820	0.850660
C611	C61	0.958100	0.669000	0.664210
C621	C62	0.107500	0.731200	0.680900
H411	H41	0.091000	0.741200	0.659100
C631	C63	0.191600	0.753800	0.705300
H421	H42	0.231700	0.778600	0.699600
C641	C64	0.215900	0.739100	0.738260
C651	C65	0.152500	0.701800	0.746560
H431	H43	0.165600	0.692000	0.768600
C661	C66	0.069800	0.679100	0.722000
H441	H44	0.029500	0.654200	0.727600
C671	C67	0.048100	0.693700	0.689500
C681	C68	0.442400	0.822100	0.782570
H451	H45	0.483400	0.847000	0.777300
C691	C69	0.363800	0.801000	0.757400
H461	H46	0.350500	0.811800	0.735700
C701	C70	0.303900	0.763200	0.764390
C711	C71	0.330400	0.748300	0.797500
H471	H47	0.295600	0.722900	0.803100
C721	C72	0.408200	0.771500	0.821400
H481	H48	0.423700	0.761500	0.843200
N61	N6	0.463100	0.808330	0.814510
O111	O11	0.921900	0.634180	0.673180
O121	O12	0.919600	0.684410	0.635690
Cu71	Cu7	0.045030	0.343820	0.850660
C731	C73	0.458100	0.169000	0.664210
C741	C74	0.607500	0.231200	0.680900
H491	H49	0.591000	0.241200	0.659100
C751	C75	0.691600	0.253800	0.705300
H501	H50	0.731700	0.278600	0.699600
C761	C76	0.715900	0.239100	0.738260
C771	C77	0.652500	0.201800	0.746560
H511	H51	0.665600	0.192000	0.768600
C781	C78	0.569800	0.179100	0.722000
H521	H52	0.529500	0.154200	0.727600
C791	C79	0.548100	0.193700	0.689500
C801	C80	0.942400	0.322100	0.782570
H531	H53	0.983400	0.347000	0.777300
C811	C81	0.863800	0.301000	0.757400
H541	H54	0.850500	0.311800	0.735700
C821	C82	0.803900	0.263200	0.764390
C831	C83	0.830400	0.248300	0.797500
H551	H55	0.795600	0.222900	0.803100
C841	C84	0.908200	0.271500	0.821400
H561	H56	0.923700	0.261500	0.843200
N71	N7	0.963100	0.308330	0.814510
O131	O13	0.421900	0.134180	0.673180
O141	O14	0.419600	0.184410	0.635690
Cu81	Cu8	0.045030	0.843820	0.350660
C851	C85	0.458100	0.669000	0.164210
C861	C86	0.607500	0.731200	0.180900
H571	H57	0.591000	0.741200	0.159100
C871	C87	0.691600	0.753800	0.205300
H581	H58	0.731700	0.778600	0.199600
C881	C88	0.715900	0.739100	0.238260
C891	C89	0.652500	0.701800	0.246560
H591	H59	0.665600	0.692000	0.268600
C901	C90	0.569800	0.679100	0.222000
H601	H60	0.529500	0.654200	0.227600
C911	C91	0.548100	0.693700	0.189500
C921	C92	0.942400	0.822100	0.282570
H611	H61	0.983400	0.847000	0.277300
C931	C93	0.863800	0.801000	0.257400
H621	H62	0.850500	0.811800	0.235700
C941	C94	0.803900	0.763200	0.264390
C951	C95	0.830400	0.748300	0.297500
H631	H63	0.795600	0.722900	0.303100
C961	C96	0.908200	0.771500	0.321400
H641	H64	0.923700	0.761500	0.343200
N81	N8	0.963100	0.808330	0.314510
O151	O15	0.421900	0.634180	0.173180
O161	O16	0.419600	0.684410	0.135690
Cu91	Cu9	0.545030	0.406180	0.399340
C971	C97	0.958100	0.581000	0.585790
C981	C98	0.107500	0.518800	0.569100
H651	H65	0.091000	0.508800	0.590900
C991	C99	0.191600	0.496200	0.544700
H661	H66	0.231700	0.471400	0.550400
C1001	C100	0.215900	0.510900	0.511740
C1011	C101	0.152500	0.548200	0.503440
H671	H67	0.165600	0.558000	0.481400
C1021	C102	0.069800	0.570900	0.528000
H681	H68	0.029500	0.595800	0.522400
C1031	C103	0.048100	0.556300	0.560500
C1041	C104	0.442400	0.427900	0.467430
H691	H69	0.483400	0.403000	0.472700
C1051	C105	0.363800	0.449000	0.492600
H701	H70	0.350500	0.438200	0.514300
C1061	C106	0.303900	0.486800	0.485610
C1071	C107	0.330400	0.501700	0.452500
H711	H71	0.295600	0.527100	0.446900
C1081	C108	0.408200	0.478500	0.428600
H721	H72	0.423700	0.488500	0.406800
N91	N9	0.463100	0.441670	0.435490
O171	O17	0.921900	0.615820	0.576820
O181	O18	0.919600	0.565590	0.614310
Cu101	Cu10	0.545030	0.906180	0.899340
C1091	C109	0.958100	0.081000	0.085790
C1101	C110	0.107500	0.018800	0.069100
H731	H73	0.091000	0.008800	0.090900
C1111	C111	0.191600	0.996200	0.044700
H741	H74	0.231700	0.971400	0.050400
C1121	C112	0.215900	0.010900	0.011740
C1131	C113	0.152500	0.048200	0.003440
H751	H75	0.165600	0.058000	0.981400
C1141	C114	0.069800	0.070900	0.028000
H761	H76	0.029500	0.095800	0.022400
C1151	C115	0.048100	0.056300	0.060500
C1161	C116	0.442400	0.927900	0.967430
H771	H77	0.483400	0.903000	0.972700
C1171	C117	0.363800	0.949000	0.992600
H781	H78	0.350500	0.938200	0.014300
C1181	C118	0.303900	0.986800	0.985610
C1191	C119	0.330400	0.001700	0.952500
H791	H79	0.295600	0.027100	0.946900
C1201	C120	0.408200	0.978500	0.928600
H801	H80	0.423700	0.988500	0.906800
N101	N10	0.463100	0.941670	0.935490
O191	O19	0.921900	0.115820	0.076820
O201	O20	0.919600	0.065590	0.114310
Cu111	Cu11	0.045030	0.406180	0.899340
C1211	C121	0.458100	0.581000	0.085790
C1221	C122	0.607500	0.518800	0.069100
H811	H81	0.591000	0.508800	0.090900
C1231	C123	0.691600	0.496200	0.044700
H821	H82	0.731700	0.471400	0.050400
C1241	C124	0.715900	0.510900	0.011740
C1251	C125	0.652500	0.548200	0.003440
H831	H83	0.665600	0.558000	0.981400
C1261	C126	0.569800	0.570900	0.028000
H841	H84	0.529500	0.595800	0.022400
C1271	C127	0.548100	0.556300	0.060500
C1281	C128	0.942400	0.427900	0.967430
H851	H85	0.983400	0.403000	0.972700
C1291	C129	0.863800	0.449000	0.992600
H861	H86	0.850500	0.438200	0.014300
C1301	C130	0.803900	0.486800	0.985610
C1311	C131	0.830400	0.501700	0.952500
H871	H87	0.795600	0.527100	0.946900
C1321	C132	0.908200	0.478500	0.928600
H881	H88	0.923700	0.488500	0.906800
N111	N11	0.963100	0.441670	0.935490
O211	O21	0.421900	0.615820	0.076820
O221	O22	0.419600	0.565590	0.114310
Cu121	Cu12	0.045030	0.906180	0.399340
C1331	C133	0.458100	0.081000	0.585790
C1341	C134	0.607500	0.018800	0.569100
H891	H89	0.591000	0.008800	0.590900
C1351	C135	0.691600	0.996200	0.544700
H901	H90	0.731700	0.971400	0.550400
C1361	C136	0.715900	0.010900	0.511740
C1371	C137	0.652500	0.048200	0.503440
H911	H91	0.665600	0.058000	0.481400
C1381	C138	0.569800	0.070900	0.528000
H921	H92	0.529500	0.095800	0.522400
C1391	C139	0.548100	0.056300	0.560500
C1401	C140	0.942400	0.927900	0.467430
H931	H93	0.983400	0.903000	0.472700
C1411	C141	0.863800	0.949000	0.492600
H941	H94	0.850500	0.938200	0.514300
C1421	C142	0.803900	0.986800	0.485610
C1431	C143	0.830400	0.001700	0.452500
H951	H95	0.795600	0.027100	0.446900
C1441	C144	0.908200	0.978500	0.428600
H961	H96	0.923700	0.988500	0.406800
N121	N12	0.963100	0.941670	0.435490
O231	O23	0.421900	0.115820	0.576820
O241	O24	0.419600	0.065590	0.614310
Cu131	Cu13	0.204970	0.343820	0.399340
C1451	C145	0.791900	0.169000	0.585790
C1461	C146	0.642500	0.231200	0.569100
H971	H97	0.659000	0.241200	0.590900
C1471	C147	0.558400	0.253800	0.544700
H981	H98	0.518300	0.278600	0.550400
C1481	C148	0.534100	0.239100	0.511740
C1491	C149	0.597500	0.201800	0.503440
H991	H99	0.584400	0.192000	0.481400
C1501	C150	0.680200	0.179100	0.528000
H1001	H100	0.720500	0.154200	0.522400
C1511	C151	0.701900	0.193700	0.560500
C1521	C152	0.307600	0.322100	0.467430
H1011	H101	0.266600	0.347000	0.472700
C1531	C153	0.386200	0.301000	0.492600
H1021	H102	0.399500	0.311800	0.514300
C1541	C154	0.446100	0.263200	0.485610
C1551	C155	0.419600	0.248300	0.452500
H1031	H103	0.454400	0.222900	0.446900
C1561	C156	0.341800	0.271500	0.428600
H1041	H104	0.326300	0.261500	0.406800
N131	N13	0.286900	0.308330	0.435490
O251	O25	0.828100	0.134180	0.576820
O261	O26	0.830400	0.184410	0.614310
Cu141	Cu14	0.204970	0.843820	0.899340
C1571	C157	0.791900	0.669000	0.085790
C1581	C158	0.642500	0.731200	0.069100
H1051	H105	0.659000	0.741200	0.090900
C1591	C159	0.558400	0.753800	0.044700
H1061	H106	0.518300	0.778600	0.050400
C1601	C160	0.534100	0.739100	0.011740
C1611	C161	0.597500	0.701800	0.003440
H1071	H107	0.584400	0.692000	0.981400
C1621	C162	0.680200	0.679100	0.028000
H1081	H108	0.720500	0.654200	0.022400
C1631	C163	0.701900	0.693700	0.060500
C1641	C164	0.307600	0.822100	0.967430
H1091	H109	0.266600	0.847000	0.972700
C1651	C165	0.386200	0.801000	0.992600
H1101	H110	0.399500	0.811800	0.014300
C1661	C166	0.446100	0.763200	0.985610
C1671	C167	0.419600	0.748300	0.952500
H1111	H111	0.454400	0.722900	0.946900
C1681	C168	0.341800	0.771500	0.928600
H1121	H112	0.326300	0.761500	0.906800
N141	N14	0.286900	0.808330	0.935490
O271	O27	0.828100	0.634180	0.076820
O281	O28	0.830400	0.684410	0.114310
Cu151	Cu15	0.704970	0.343820	0.899340
C1691	C169	0.291900	0.169000	0.085790
C1701	C170	0.142500	0.231200	0.069100
H1131	H113	0.159000	0.241200	0.090900
C1711	C171	0.058400	0.253800	0.044700
H1141	H114	0.018300	0.278600	0.050400
C1721	C172	0.034100	0.239100	0.011740
C1731	C173	0.097500	0.201800	0.003440
H1151	H115	0.084400	0.192000	0.981400
C1741	C174	0.180200	0.179100	0.028000
H1161	H116	0.220500	0.154200	0.022400
C1751	C175	0.201900	0.193700	0.060500
C1761	C176	0.807600	0.322100	0.967430
H1171	H117	0.766600	0.347000	0.972700
C1771	C177	0.886200	0.301000	0.992600
H1181	H118	0.899500	0.311800	0.014300
C1781	C178	0.946100	0.263200	0.985610
C1791	C179	0.919600	0.248300	0.952500
H1191	H119	0.954400	0.222900	0.946900
C1801	C180	0.841800	0.271500	0.928600
H1201	H120	0.826300	0.261500	0.906800
N151	N15	0.786900	0.308330	0.935490
O291	O29	0.328100	0.134180	0.076820
O301	O30	0.330400	0.184410	0.114310
Cu161	Cu16	0.704970	0.843820	0.399340
C1811	C181	0.291900	0.669000	0.585790
C1821	C182	0.142500	0.731200	0.569100
H1211	H121	0.159000	0.741200	0.590900
C1831	C183	0.058400	0.753800	0.544700
H1221	H122	0.018300	0.778600	0.550400
C1841	C184	0.034100	0.739100	0.511740
C1851	C185	0.097500	0.701800	0.503440
H1231	H123	0.084400	0.692000	0.481400
C1861	C186	0.180200	0.679100	0.528000
H1241	H124	0.220500	0.654200	0.522400
C1871	C187	0.201900	0.693700	0.560500
C1881	C188	0.807600	0.822100	0.467430
H1251	H125	0.766600	0.847000	0.472700
C1891	C189	0.886200	0.801000	0.492600
H1261	H126	0.899500	0.811800	0.514300
C1901	C190	0.946100	0.763200	0.485610
C1911	C191	0.919600	0.748300	0.452500
H1271	H127	0.954400	0.722900	0.446900
C1921	C192	0.841800	0.771500	0.428600
H1281	H128	0.826300	0.761500	0.406800
N161	N16	0.786900	0.808330	0.435490
O311	O31	0.328100	0.634180	0.576820
O321	O32	0.330400	0.684410	0.614310
Cu171	Cu17	0.795030	0.593820	0.649340
C1931	C193	0.208100	0.419000	0.835790
C1941	C194	0.357500	0.481200	0.819100
H1291	H129	0.341000	0.491200	0.840900
C1951	C195	0.441600	0.503800	0.794700
H1301	H130	0.481700	0.528600	0.800400
C1961	C196	0.465900	0.489100	0.761740
C1971	C197	0.402500	0.451800	0.753440
H1311	H131	0.415600	0.442000	0.731400
C1981	C198	0.319800	0.429100	0.778000
H1321	H132	0.279500	0.404200	0.772400
C1991	C199	0.298100	0.443700	0.810500
C2001	C200	0.692400	0.572100	0.717430
H1331	H133	0.733400	0.597000	0.722700
C2011	C201	0.613800	0.551000	0.742600
H1341	H134	0.600500	0.561800	0.764300
C2021	C202	0.553900	0.513200	0.735610
C2031	C203	0.580400	0.498300	0.702500
H1351	H135	0.545600	0.472900	0.696900
C2041	C204	0.658200	0.521500	0.678600
H1361	H136	0.673700	0.511500	0.656800
N171	N17	0.713100	0.558330	0.685490
O331	O33	0.171900	0.384180	0.826820
O341	O34	0.169600	0.434410	0.864310
Cu181	Cu18	0.795030	0.093820	0.149340
C2051	C205	0.208100	0.919000	0.335790
C2061	C206	0.357500	0.981200	0.319100
H1371	H137	0.341000	0.991200	0.340900
C2071	C207	0.441600	0.003800	0.294700
H1381	H138	0.481700	0.028600	0.300400
C2081	C208	0.465900	0.989100	0.261740
C2091	C209	0.402500	0.951800	0.253440
H1391	H139	0.415600	0.942000	0.231400
C2101	C210	0.319800	0.929100	0.278000
H1401	H140	0.279500	0.904200	0.272400
C2111	C211	0.298100	0.943700	0.310500
C2121	C212	0.692400	0.072100	0.217430
H1411	H141	0.733400	0.097000	0.222700
C2131	C213	0.613800	0.051000	0.242600
H1421	H142	0.600500	0.061800	0.264300
C2141	C214	0.553900	0.013200	0.235610
C2151	C215	0.580400	0.998300	0.202500
H1431	H143	0.545600	0.972900	0.196900
C2161	C216	0.658200	0.021500	0.178600
H1441	H144	0.673700	0.011500	0.156800
N181	N18	0.713100	0.058330	0.185490
O351	O35	0.171900	0.884180	0.326820
O361	O36	0.169600	0.934410	0.364310
Cu191	Cu19	0.295030	0.593820	0.149340
C2171	C217	0.708100	0.419000	0.335790
C2181	C218	0.857500	0.481200	0.319100
H1451	H145	0.841000	0.491200	0.340900
C2191	C219	0.941600	0.503800	0.294700
H1461	H146	0.981700	0.528600	0.300400
C2201	C220	0.965900	0.489100	0.261740
C2211	C221	0.902500	0.451800	0.253440
H1471	H147	0.915600	0.442000	0.231400
C2221	C222	0.819800	0.429100	0.278000
H1481	H148	0.779500	0.404200	0.272400
C2231	C223	0.798100	0.443700	0.310500
C2241	C224	0.192400	0.572100	0.217430
H1491	H149	0.233400	0.597000	0.222700
C2251	C225	0.113800	0.551000	0.242600
H1501	H150	0.100500	0.561800	0.264300
C2261	C226	0.053900	0.513200	0.235610
C2271	C227	0.080400	0.498300	0.202500
H1511	H151	0.045600	0.472900	0.196900
C2281	C228	0.158200	0.521500	0.178600
H1521	H152	0.173700	0.511500	0.156800
N191	N19	0.213100	0.558330	0.185490
O371	O37	0.671900	0.384180	0.326820
O381	O38	0.669600	0.434410	0.364310
Cu201	Cu20	0.295030	0.093820	0.649340
C2291	C229	0.708100	0.919000	0.835790
C2301	C230	0.857500	0.981200	0.819100
H1531	H153	0.841000	0.991200	0.840900
C2311	C231	0.941600	0.003800	0.794700
H1541	H154	0.981700	0.028600	0.800400
C2321	C232	0.965900	0.989100	0.761740
C2331	C233	0.902500	0.951800	0.753440
H1551	H155	0.915600	0.942000	0.731400
C2341	C234	0.819800	0.929100	0.778000
H1561	H156	0.779500	0.904200	0.772400
C2351	C235	0.798100	0.943700	0.810500
C2361	C236	0.192400	0.072100	0.717430
H1571	H157	0.233400	0.097000	0.722700
C2371	C237	0.113800	0.051000	0.742600
H1581	H158	0.100500	0.061800	0.764300
C2381	C238	0.053900	0.013200	0.735610
C2391	C239	0.080400	0.998300	0.702500
H1591	H159	0.045600	0.972900	0.696900
C2401	C240	0.158200	0.021500	0.678600
H1601	H160	0.173700	0.011500	0.656800
N201	N20	0.213100	0.058330	0.685490
O391	O39	0.671900	0.884180	0.826820
O401	O40	0.669600	0.934410	0.864310
Cu211	Cu21	0.454970	0.656180	0.649340
C2411	C241	0.041900	0.831000	0.835790
C2421	C242	0.892500	0.768800	0.819100
H1611	H161	0.909000	0.758800	0.840900
C2431	C243	0.808400	0.746200	0.794700
H1621	H162	0.768300	0.721400	0.800400
C2441	C244	0.784100	0.760900	0.761740
C2451	C245	0.847500	0.798200	0.753440
H1631	H163	0.834400	0.808000	0.731400
C2461	C246	0.930200	0.820900	0.778000
H1641	H164	0.970500	0.845800	0.772400
C2471	C247	0.951900	0.806300	0.810500
C2481	C248	0.557600	0.677900	0.717430
H1651	H165	0.516600	0.653000	0.722700
C2491	C249	0.636200	0.699000	0.742600
H1661	H166	0.649500	0.688200	0.764300
C2501	C250	0.696100	0.736800	0.735610
C2511	C251	0.669600	0.751700	0.702500
H1671	H167	0.704400	0.777100	0.696900
C2521	C252	0.591800	0.728500	0.678600
H1681	H168	0.576300	0.738500	0.656800
N211	N21	0.536900	0.691670	0.685490
O411	O41	0.078100	0.865820	0.826820
O421	O42	0.080400	0.815590	0.864310
Cu221	Cu22	0.454970	0.156180	0.149340
C2531	C253	0.041900	0.331000	0.335790
C2541	C254	0.892500	0.268800	0.319100
H1691	H169	0.909000	0.258800	0.340900
C2551	C255	0.808400	0.246200	0.294700
H1701	H170	0.768300	0.221400	0.300400
C2561	C256	0.784100	0.260900	0.261740
C2571	C257	0.847500	0.298200	0.253440
H1711	H171	0.834400	0.308000	0.231400
C2581	C258	0.930200	0.320900	0.278000
H1721	H172	0.970500	0.345800	0.272400
C2591	C259	0.951900	0.306300	0.310500
C2601	C260	0.557600	0.177900	0.217430
H1731	H173	0.516600	0.153000	0.222700
C2611	C261	0.636200	0.199000	0.242600
H1741	H174	0.649500	0.188200	0.264300
C2621	C262	0.696100	0.236800	0.235610
C2631	C263	0.669600	0.251700	0.202500
H1751	H175	0.704400	0.277100	0.196900
C2641	C264	0.591800	0.228500	0.178600
H1761	H176	0.576300	0.238500	0.156800
N221	N22	0.536900	0.191670	0.185490
O431	O43	0.078100	0.365820	0.326820
O441	O44	0.080400	0.315590	0.364310
Cu231	Cu23	0.954970	0.656180	0.149340
C2651	C265	0.541900	0.831000	0.335790
C2661	C266	0.392500	0.768800	0.319100
H1771	H177	0.409000	0.758800	0.340900
C2671	C267	0.308400	0.746200	0.294700
H1781	H178	0.268300	0.721400	0.300400
C2681	C268	0.284100	0.760900	0.261740
C2691	C269	0.347500	0.798200	0.253440
H1791	H179	0.334400	0.808000	0.231400
C2701	C270	0.430200	0.820900	0.278000
H1801	H180	0.470500	0.845800	0.272400
C2711	C271	0.451900	0.806300	0.310500
C2721	C272	0.057600	0.677900	0.217430
H1811	H181	0.016600	0.653000	0.222700
C2731	C273	0.136200	0.699000	0.242600
H1821	H182	0.149500	0.688200	0.264300
C2741	C274	0.196100	0.736800	0.235610
C2751	C275	0.169600	0.751700	0.202500
H1831	H183	0.204400	0.777100	0.196900
C2761	C276	0.091800	0.728500	0.178600
H1841	H184	0.076300	0.738500	0.156800
N231	N23	0.036900	0.691670	0.185490
O451	O45	0.578100	0.865820	0.326820
O461	O46	0.580400	0.815590	0.364310
Cu241	Cu24	0.954970	0.156180	0.649340
C2771	C277	0.541900	0.331000	0.835790
C2781	C278	0.392500	0.268800	0.819100
H1851	H185	0.409000	0.258800	0.840900
C2791	C279	0.308400	0.246200	0.794700
H1861	H186	0.268300	0.221400	0.800400
C2801	C280	0.284100	0.260900	0.761740
C2811	C281	0.347500	0.298200	0.753440
H1871	H187	0.334400	0.308000	0.731400
C2821	C282	0.430200	0.320900	0.778000
H1881	H188	0.470500	0.345800	0.772400
C2831	C283	0.451900	0.306300	0.810500
C2841	C284	0.057600	0.177900	0.717430
H1891	H189	0.016600	0.153000	0.722700
C2851	C285	0.136200	0.199000	0.742600
H1901	H190	0.149500	0.188200	0.764300
C2861	C286	0.196100	0.236800	0.735610
C2871	C287	0.169600	0.251700	0.702500
H1911	H191	0.204400	0.277100	0.696900
C2881	C288	0.091800	0.228500	0.678600
H1921	H192	0.076300	0.238500	0.656800
N241	N24	0.036900	0.191670	0.685490
O471	O47	0.578100	0.365820	0.826820
O481	O48	0.580400	0.315590	0.864310
Cu251	Cu25	0.454970	0.593820	0.600660
C2891	C289	0.041900	0.419000	0.414210
C2901	C290	0.892500	0.481200	0.430900
H1931	H193	0.909000	0.491200	0.409100
C2911	C291	0.808400	0.503800	0.455300
H1941	H194	0.768300	0.528600	0.449600
C2921	C292	0.784100	0.489100	0.488260
C2931	C293	0.847500	0.451800	0.496560
H1951	H195	0.834400	0.442000	0.518600
C2941	C294	0.930200	0.429100	0.472000
H1961	H196	0.970500	0.404200	0.477600
C2951	C295	0.951900	0.443700	0.439500
C2961	C296	0.557600	0.572100	0.532570
H1971	H197	0.516600	0.597000	0.527300
C2971	C297	0.636200	0.551000	0.507400
H1981	H198	0.649500	0.561800	0.485700
C2981	C298	0.696100	0.513200	0.514390
C2991	C299	0.669600	0.498300	0.547500
H1991	H199	0.704400	0.472900	0.553100
C3001	C300	0.591800	0.521500	0.571400
H2001	H200	0.576300	0.511500	0.593200
N251	N25	0.536900	0.558330	0.564510
O491	O49	0.078100	0.384180	0.423180
O501	O50	0.080400	0.434410	0.385690
Cu261	Cu26	0.454970	0.093820	0.100660
C3011	C301	0.041900	0.919000	0.914210
C3021	C302	0.892500	0.981200	0.930900
H2011	H201	0.909000	0.991200	0.909100
C3031	C303	0.808400	0.003800	0.955300
H2021	H202	0.768300	0.028600	0.949600
C3041	C304	0.784100	0.989100	0.988260
C3051	C305	0.847500	0.951800	0.996560
H2031	H203	0.834400	0.942000	0.018600
C3061	C306	0.930200	0.929100	0.972000
H2041	H204	0.970500	0.904200	0.977600
C3071	C307	0.951900	0.943700	0.939500
C3081	C308	0.557600	0.072100	0.032570
H2051	H205	0.516600	0.097000	0.027300
C3091	C309	0.636200	0.051000	0.007400
H2061	H206	0.649500	0.061800	0.985700
C3101	C310	0.696100	0.013200	0.014390
C3111	C311	0.669600	0.998300	0.047500
H2071	H207	0.704400	0.972900	0.053100
C3121	C312	0.591800	0.021500	0.071400
H2081	H208	0.576300	0.011500	0.093200
N261	N26	0.536900	0.058330	0.064510
O511	O51	0.078100	0.884180	0.923180
O521	O52	0.080400	0.934410	0.885690
Cu271	Cu27	0.954970	0.593820	0.100660
C3131	C313	0.541900	0.419000	0.914210
C3141	C314	0.392500	0.481200	0.930900
H2091	H209	0.409000	0.491200	0.909100
C3151	C315	0.308400	0.503800	0.955300
H2101	H210	0.268300	0.528600	0.949600
C3161	C316	0.284100	0.489100	0.988260
C3171	C317	0.347500	0.451800	0.996560
H2111	H211	0.334400	0.442000	0.018600
C3181	C318	0.430200	0.429100	0.972000
H2121	H212	0.470500	0.404200	0.977600
C3191	C319	0.451900	0.443700	0.939500
C3201	C320	0.057600	0.572100	0.032570
H2131	H213	0.016600	0.597000	0.027300
C3211	C321	0.136200	0.551000	0.007400
H2141	H214	0.149500	0.561800	0.985700
C3221	C322	0.196100	0.513200	0.014390
C3231	C323	0.169600	0.498300	0.047500
H2151	H215	0.204400	0.472900	0.053100
C3241	C324	0.091800	0.521500	0.071400
H2161	H216	0.076300	0.511500	0.093200
N271	N27	0.036900	0.558330	0.064510
O531	O53	0.578100	0.384180	0.923180
O541	O54	0.580400	0.434410	0.885690
Cu281	Cu28	0.954970	0.093820	0.600660
C3251	C325	0.541900	0.919000	0.414210
C3261	C326	0.392500	0.981200	0.430900
H2171	H217	0.409000	0.991200	0.409100
C3271	C327	0.308400	0.003800	0.455300
H2181	H218	0.268300	0.028600	0.449600
C3281	C328	0.284100	0.989100	0.488260
C3291	C329	0.347500	0.951800	0.496560
H2191	H219	0.334400	0.942000	0.518600
C3301	C330	0.430200	0.929100	0.472000
H2201	H220	0.470500	0.904200	0.477600
C3311	C331	0.451900	0.943700	0.439500
C3321	C332	0.057600	0.072100	0.532570
H2211	H221	0.016600	0.097000	0.527300
C3331	C333	0.136200	0.051000	0.507400
H2221	H222	0.149500	0.061800	0.485700
C3341	C334	0.196100	0.013200	0.514390
C3351	C335	0.169600	0.998300	0.547500
H2231	H223	0.204400	0.972900	0.553100
C3361	C336	0.091800	0.021500	0.571400
H2241	H224	0.076300	0.011500	0.593200
N281	N28	0.036900	0.058330	0.564510
O551	O55	0.578100	0.884180	0.423180
O561	O56	0.580400	0.934410	0.385690
Cu291	Cu29	0.795030	0.656180	0.600660
C3371	C337	0.208100	0.831000	0.414210
C3381	C338	0.357500	0.768800	0.430900
H2251	H225	0.341000	0.758800	0.409100
C3391	C339	0.441600	0.746200	0.455300
H2261	H226	0.481700	0.721400	0.449600
C3401	C340	0.465900	0.760900	0.488260
C3411	C341	0.402500	0.798200	0.496560
H2271	H227	0.415600	0.808000	0.518600
C3421	C342	0.319800	0.820900	0.472000
H2281	H228	0.279500	0.845800	0.477600
C3431	C343	0.298100	0.806300	0.439500
C3441	C344	0.692400	0.677900	0.532570
H2291	H229	0.733400	0.653000	0.527300
C3451	C345	0.613800	0.699000	0.507400
H2301	H230	0.600500	0.688200	0.485700
C3461	C346	0.553900	0.736800	0.514390
C3471	C347	0.580400	0.751700	0.547500
H2311	H231	0.545600	0.777100	0.553100
C3481	C348	0.658200	0.728500	0.571400
H2321	H232	0.673700	0.738500	0.593200
N291	N29	0.713100	0.691670	0.564510
O571	O57	0.171900	0.865820	0.423180
O581	O58	0.169600	0.815590	0.385690
Cu301	Cu30	0.795030	0.156180	0.100660
C3491	C349	0.208100	0.331000	0.914210
C3501	C350	0.357500	0.268800	0.930900
H2331	H233	0.341000	0.258800	0.909100
C3511	C351	0.441600	0.246200	0.955300
H2341	H234	0.481700	0.221400	0.949600
C3521	C352	0.465900	0.260900	0.988260
C3531	C353	0.402500	0.298200	0.996560
H2351	H235	0.415600	0.308000	0.018600
C3541	C354	0.319800	0.320900	0.972000
H2361	H236	0.279500	0.345800	0.977600
C3551	C355	0.298100	0.306300	0.939500
C3561	C356	0.692400	0.177900	0.032570
H2371	H237	0.733400	0.153000	0.027300
C3571	C357	0.613800	0.199000	0.007400
H2381	H238	0.600500	0.188200	0.985700
C3581	C358	0.553900	0.236800	0.014390
C3591	C359	0.580400	0.251700	0.047500
H2391	H239	0.545600	0.277100	0.053100
C3601	C360	0.658200	0.228500	0.071400
H2401	H240	0.673700	0.238500	0.093200
N301	N30	0.713100	0.191670	0.064510
O591	O59	0.171900	0.365820	0.923180
O601	O60	0.169600	0.315590	0.885690
Cu311	Cu31	0.295030	0.656180	0.100660
C3611	C361	0.708100	0.831000	0.914210
C3621	C362	0.857500	0.768800	0.930900
H2411	H241	0.841000	0.758800	0.909100
C3631	C363	0.941600	0.746200	0.955300
H2421	H242	0.981700	0.721400	0.949600
C3641	C364	0.965900	0.760900	0.988260
C3651	C365	0.902500	0.798200	0.996560
H2431	H243	0.915600	0.808000	0.018600
C3661	C366	0.819800	0.820900	0.972000
H2441	H244	0.779500	0.845800	0.977600
C3671	C367	0.798100	0.806300	0.939500
C3681	C368	0.192400	0.677900	0.032570
H2451	H245	0.233400	0.653000	0.027300
C3691	C369	0.113800	0.699000	0.007400
H2461	H246	0.100500	0.688200	0.985700
C3701	C370	0.053900	0.736800	0.014390
C3711	C371	0.080400	0.751700	0.047500
H2471	H247	0.045600	0.777100	0.053100
C3721	C372	0.158200	0.728500	0.071400
H2481	H248	0.173700	0.738500	0.093200
N311	N31	0.213100	0.691670	0.064510
O611	O61	0.671900	0.865820	0.923180
O621	O62	0.669600	0.815590	0.885690
Cu321	Cu32	0.295030	0.156180	0.600660
C3731	C373	0.708100	0.331000	0.414210
C3741	C374	0.857500	0.268800	0.430900
H2491	H249	0.841000	0.258800	0.409100
C3751	C375	0.941600	0.246200	0.455300
H2501	H250	0.981700	0.221400	0.449600
C3761	C376	0.965900	0.260900	0.488260
C3771	C377	0.902500	0.298200	0.496560
H2511	H251	0.915600	0.308000	0.518600
C3781	C378	0.819800	0.320900	0.472000
H2521	H252	0.779500	0.345800	0.477600
C3791	C379	0.798100	0.306300	0.439500
C3801	C380	0.192400	0.177900	0.532570
H2531	H253	0.233400	0.153000	0.527300
C3811	C381	0.113800	0.199000	0.507400
H2541	H254	0.100500	0.188200	0.485700
C3821	C382	0.053900	0.236800	0.514390
C3831	C383	0.080400	0.251700	0.547500
H2551	H255	0.045600	0.277100	0.553100
C3841	C384	0.158200	0.228500	0.571400
H2561	H256	0.173700	0.238500	0.593200
N321	N32	0.213100	0.191670	0.564510
O631	O63	0.671900	0.365820	0.423180
O641	O64	0.669600	0.315590	0.385690
O651	O65	0.375000	0.375000	0.375000
O661	O66	0.375000	0.875000	0.875000
O671	O67	0.875000	0.375000	0.875000
O681	O68	0.875000	0.875000	0.375000
O691	O69	0.625000	0.625000	0.625000
O701	O70	0.625000	0.125000	0.125000
O711	O71	0.125000	0.625000	0.125000
O721	O72	0.125000	0.125000	0.625000
