data_WUSCUJ_clean_PM
_symmetry_space_group_name_H-M	'P1'
_cell_length_a	12.204200
_cell_length_b	14.378600
_cell_length_c	20.385900
_cell_angle_alpha	90.000000
_cell_angle_beta	90.000000
_cell_angle_gamma	90.000000
_symmetry_Int_Tables_number 1

loop_
_symmetry_equiv_pos_as_xyz
'x,y,z'

loop_
_atom_site_label
_atom_site_type_symbol
_atom_site_fract_x
_atom_site_fract_y
_atom_site_fract_z
C11	C1	0.475800	0.298210	0.452000
N11	N1	0.496400	0.240600	0.727600
C21	C2	0.481100	0.231380	0.782250
N21	N2	0.459900	0.443420	0.641680
N31	N3	0.488300	0.310220	0.506820
C31	C3	0.766500	0.286800	0.624290
C41	C4	0.443800	0.521880	0.643170
Cd11	Cd1	0.487550	0.289330	0.620910
Cu11	Cu1	0.414590	0.243260	0.868800
Cu21	Cu2	0.414580	0.652650	0.638260
N41	N4	0.675500	0.302700	0.618080
C51	C5	0.222100	0.216340	0.625930
N51	N5	0.303570	0.253140	0.616680
C61	C6	0.024200	0.701790	0.952000
N61	N6	0.003600	0.759400	0.227600
C71	C7	0.018900	0.768620	0.282250
N71	N7	0.040100	0.556580	0.141680
N81	N8	0.011700	0.689780	0.006820
C81	C8	0.733500	0.713200	0.124290
C91	C9	0.056200	0.478120	0.143170
Cd21	Cd2	0.012450	0.710670	0.120910
Cu31	Cu3	0.085410	0.756740	0.368800
Cu41	Cu4	0.085420	0.347350	0.138260
N91	N9	0.824500	0.697300	0.118080
C101	C10	0.277900	0.783660	0.125930
N101	N10	0.196430	0.746860	0.116680
C111	C11	0.524200	0.798210	0.048000
N111	N11	0.503600	0.740600	0.772400
C121	C12	0.518900	0.731380	0.717750
N121	N12	0.540100	0.943420	0.858320
N131	N13	0.511700	0.810220	0.993180
C131	C13	0.233500	0.786800	0.875710
C141	C14	0.556200	0.021880	0.856830
Cd31	Cd3	0.512450	0.789330	0.879090
Cu51	Cu5	0.585410	0.743260	0.631200
Cu61	Cu6	0.585420	0.152650	0.861740
N141	N14	0.324500	0.802700	0.881920
C151	C15	0.777900	0.716340	0.874070
N151	N15	0.696430	0.753140	0.883320
C161	C16	0.975800	0.201790	0.548000
N161	N16	0.996400	0.259400	0.272400
C171	C17	0.981100	0.268620	0.217750
N171	N17	0.959900	0.056580	0.358320
N181	N18	0.988300	0.189780	0.493180
C181	C18	0.266500	0.213200	0.375710
C191	C19	0.943800	0.978120	0.356830
Cd41	Cd4	0.987550	0.210670	0.379090
Cu71	Cu7	0.914590	0.256740	0.131200
Cu81	Cu8	0.914580	0.847350	0.361740
N191	N19	0.175500	0.197300	0.381920
C201	C20	0.722100	0.283660	0.374070
N201	N20	0.803570	0.246860	0.383320
C211	C21	0.524200	0.701790	0.548000
N211	N21	0.503600	0.759400	0.272400
C221	C22	0.518900	0.768620	0.217750
N221	N22	0.540100	0.556580	0.358320
N231	N23	0.511700	0.689780	0.493180
C231	C23	0.233500	0.713200	0.375710
C241	C24	0.556200	0.478120	0.356830
Cd51	Cd5	0.512450	0.710670	0.379090
Cu91	Cu9	0.585410	0.756740	0.131200
Cu101	Cu10	0.585420	0.347350	0.361740
N241	N24	0.324500	0.697300	0.381920
C251	C25	0.777900	0.783660	0.374070
N251	N25	0.696430	0.746860	0.383320
C261	C26	0.975800	0.298210	0.048000
N261	N26	0.996400	0.240600	0.772400
C271	C27	0.981100	0.231380	0.717750
N271	N27	0.959900	0.443420	0.858320
N281	N28	0.988300	0.310220	0.993180
C281	C28	0.266500	0.286800	0.875710
C291	C29	0.943800	0.521880	0.856830
Cd61	Cd6	0.987550	0.289330	0.879090
Cu111	Cu11	0.914590	0.243260	0.631200
Cu121	Cu12	0.914580	0.652650	0.861740
N291	N29	0.175500	0.302700	0.881920
C301	C30	0.722100	0.216340	0.874070
N301	N30	0.803570	0.253140	0.883320
C311	C31	0.475800	0.201790	0.952000
N311	N31	0.496400	0.259400	0.227600
C321	C32	0.481100	0.268620	0.282250
N321	N32	0.459900	0.056580	0.141680
N331	N33	0.488300	0.189780	0.006820
C331	C33	0.766500	0.213200	0.124290
C341	C34	0.443800	0.978120	0.143170
Cd71	Cd7	0.487550	0.210670	0.120910
Cu131	Cu13	0.414590	0.256740	0.368800
Cu141	Cu14	0.414580	0.847350	0.138260
N341	N34	0.675500	0.197300	0.118080
C351	C35	0.222100	0.283660	0.125930
N351	N35	0.303570	0.246860	0.116680
C361	C36	0.024200	0.798210	0.452000
N361	N36	0.003600	0.740600	0.727600
C371	C37	0.018900	0.731380	0.782250
N371	N37	0.040100	0.943420	0.641680
N381	N38	0.011700	0.810220	0.506820
C381	C38	0.733500	0.786800	0.624290
C391	C39	0.056200	0.021880	0.643170
Cd81	Cd8	0.012450	0.789330	0.620910
Cu151	Cu15	0.085410	0.743260	0.868800
Cu161	Cu16	0.085420	0.152650	0.638260
N391	N39	0.824500	0.802700	0.618080
C401	C40	0.277900	0.716340	0.625930
N401	N40	0.196430	0.753140	0.616680
