data_WUSGIC_clean_PM
_symmetry_space_group_name_H-M	'P1'
_cell_length_a	15.368000
_cell_length_b	11.412200
_cell_length_c	22.281200
_cell_angle_alpha	90.000000
_cell_angle_beta	101.847000
_cell_angle_gamma	90.000000
_symmetry_Int_Tables_number 1

loop_
_symmetry_equiv_pos_as_xyz
'x,y,z'

loop_
_atom_site_label
_atom_site_type_symbol
_atom_site_fract_x
_atom_site_fract_y
_atom_site_fract_z
Mn11	Mn1	0.524960	0.473930	0.428780
Mn21	Mn2	0.645190	0.016120	0.379640
P11	P1	0.619330	0.738920	0.425690
O11	O1	0.554940	0.642300	0.405340
O21	O2	0.600220	0.844200	0.386100
O31	O3	0.714800	0.694000	0.423740
H11	H1	0.749600	0.715000	0.454900
O41	O4	0.627630	0.768800	0.495420
H21	H2	0.578000	0.780000	0.502500
O51	O5	0.563200	0.017000	0.292830
O61	O6	0.454400	0.172900	0.290270
H31	H3	0.439400	0.234000	0.271600
O71	O7	0.411620	0.507900	0.474480
O81	O8	0.263120	0.508300	0.457130
O91	O9	0.406580	0.473000	0.355260
O101	O10	0.258690	0.483600	0.336060
O111	O11	0.504420	0.282700	0.448570
O121	O12	0.555100	0.105400	0.429750
O131	O13	0.615230	0.382600	0.384580
O141	O14	0.675770	0.209100	0.374010
C11	C1	0.334900	0.501500	0.440620
C21	C2	0.332700	0.484000	0.370870
C31	C3	0.553400	0.213900	0.426030
C41	C4	0.620400	0.273000	0.391810
Mn31	Mn3	0.024960	0.973930	0.428780
Mn41	Mn4	0.145190	0.516120	0.379640
P21	P2	0.119330	0.238920	0.425690
O151	O15	0.054940	0.142300	0.405340
O161	O16	0.100220	0.344200	0.386100
O171	O17	0.214800	0.194000	0.423740
H41	H4	0.249600	0.215000	0.454900
O181	O18	0.127630	0.268800	0.495420
H51	H5	0.078000	0.280000	0.502500
O191	O19	0.063200	0.517000	0.292830
O201	O20	0.954400	0.672900	0.290270
H61	H6	0.939400	0.734000	0.271600
O211	O21	0.911620	0.007900	0.474480
O221	O22	0.763120	0.008300	0.457130
O231	O23	0.906580	0.973000	0.355260
O241	O24	0.758690	0.983600	0.336060
O251	O25	0.004420	0.782700	0.448570
O261	O26	0.055100	0.605400	0.429750
O271	O27	0.115230	0.882600	0.384580
O281	O28	0.175770	0.709100	0.374010
C51	C5	0.834900	0.001500	0.440620
C61	C6	0.832700	0.984000	0.370870
C71	C7	0.053400	0.713900	0.426030
C81	C8	0.120400	0.773000	0.391810
Mn51	Mn5	0.475040	0.473930	0.071220
Mn61	Mn6	0.354810	0.016120	0.120360
P31	P3	0.380670	0.738920	0.074310
O291	O29	0.445060	0.642300	0.094660
O301	O30	0.399780	0.844200	0.113900
O311	O31	0.285200	0.694000	0.076260
H71	H7	0.250400	0.715000	0.045100
O321	O32	0.372370	0.768800	0.004580
H81	H8	0.422000	0.780000	0.997500
O331	O33	0.436800	0.017000	0.207170
O341	O34	0.545600	0.172900	0.209730
H91	H9	0.560600	0.234000	0.228400
O351	O35	0.588380	0.507900	0.025520
O361	O36	0.736880	0.508300	0.042870
O371	O37	0.593420	0.473000	0.144740
O381	O38	0.741310	0.483600	0.163940
O391	O39	0.495580	0.282700	0.051430
O401	O40	0.444900	0.105400	0.070250
O411	O41	0.384770	0.382600	0.115420
O421	O42	0.324230	0.209100	0.125990
C91	C9	0.665100	0.501500	0.059380
C101	C10	0.667300	0.484000	0.129130
C111	C11	0.446600	0.213900	0.073970
C121	C12	0.379600	0.273000	0.108190
Mn71	Mn7	0.975040	0.973930	0.071220
Mn81	Mn8	0.854810	0.516120	0.120360
P41	P4	0.880670	0.238920	0.074310
O431	O43	0.945060	0.142300	0.094660
O441	O44	0.899780	0.344200	0.113900
O451	O45	0.785200	0.194000	0.076260
H101	H10	0.750400	0.215000	0.045100
O461	O46	0.872370	0.268800	0.004580
H111	H11	0.922000	0.280000	0.997500
O471	O47	0.936800	0.517000	0.207170
O481	O48	0.045600	0.672900	0.209730
H121	H12	0.060600	0.734000	0.228400
O491	O49	0.088380	0.007900	0.025520
O501	O50	0.236880	0.008300	0.042870
O511	O51	0.093420	0.973000	0.144740
O521	O52	0.241310	0.983600	0.163940
O531	O53	0.995580	0.782700	0.051430
O541	O54	0.944900	0.605400	0.070250
O551	O55	0.884770	0.882600	0.115420
O561	O56	0.824230	0.709100	0.125990
C131	C13	0.165100	0.001500	0.059380
C141	C14	0.167300	0.984000	0.129130
C151	C15	0.946600	0.713900	0.073970
C161	C16	0.879600	0.773000	0.108190
Mn91	Mn9	0.475040	0.526070	0.571220
Mn101	Mn10	0.354810	0.983880	0.620360
P51	P5	0.380670	0.261080	0.574310
O571	O57	0.445060	0.357700	0.594660
O581	O58	0.399780	0.155800	0.613900
O591	O59	0.285200	0.306000	0.576260
H131	H13	0.250400	0.285000	0.545100
O601	O60	0.372370	0.231200	0.504580
H141	H14	0.422000	0.220000	0.497500
O611	O61	0.436800	0.983000	0.707170
O621	O62	0.545600	0.827100	0.709730
H151	H15	0.560600	0.766000	0.728400
O631	O63	0.588380	0.492100	0.525520
O641	O64	0.736880	0.491700	0.542870
O651	O65	0.593420	0.527000	0.644740
O661	O66	0.741310	0.516400	0.663940
O671	O67	0.495580	0.717300	0.551430
O681	O68	0.444900	0.894600	0.570250
O691	O69	0.384770	0.617400	0.615420
O701	O70	0.324230	0.790900	0.625990
C171	C17	0.665100	0.498500	0.559380
C181	C18	0.667300	0.516000	0.629130
C191	C19	0.446600	0.786100	0.573970
C201	C20	0.379600	0.727000	0.608190
Mn111	Mn11	0.975040	0.026070	0.571220
Mn121	Mn12	0.854810	0.483880	0.620360
P61	P6	0.880670	0.761080	0.574310
O711	O71	0.945060	0.857700	0.594660
O721	O72	0.899780	0.655800	0.613900
O731	O73	0.785200	0.806000	0.576260
H161	H16	0.750400	0.785000	0.545100
O741	O74	0.872370	0.731200	0.504580
H171	H17	0.922000	0.720000	0.497500
O751	O75	0.936800	0.483000	0.707170
O761	O76	0.045600	0.327100	0.709730
H181	H18	0.060600	0.266000	0.728400
O771	O77	0.088380	0.992100	0.525520
O781	O78	0.236880	0.991700	0.542870
O791	O79	0.093420	0.027000	0.644740
O801	O80	0.241310	0.016400	0.663940
O811	O81	0.995580	0.217300	0.551430
O821	O82	0.944900	0.394600	0.570250
O831	O83	0.884770	0.117400	0.615420
O841	O84	0.824230	0.290900	0.625990
C211	C21	0.165100	0.998500	0.559380
C221	C22	0.167300	0.016000	0.629130
C231	C23	0.946600	0.286100	0.573970
C241	C24	0.879600	0.227000	0.608190
Mn131	Mn13	0.524960	0.526070	0.928780
Mn141	Mn14	0.645190	0.983880	0.879640
P71	P7	0.619330	0.261080	0.925690
O851	O85	0.554940	0.357700	0.905340
O861	O86	0.600220	0.155800	0.886100
O871	O87	0.714800	0.306000	0.923740
H191	H19	0.749600	0.285000	0.954900
O881	O88	0.627630	0.231200	0.995420
H201	H20	0.578000	0.220000	0.002500
O891	O89	0.563200	0.983000	0.792830
O901	O90	0.454400	0.827100	0.790270
H211	H21	0.439400	0.766000	0.771600
O911	O91	0.411620	0.492100	0.974480
O921	O92	0.263120	0.491700	0.957130
O931	O93	0.406580	0.527000	0.855260
O941	O94	0.258690	0.516400	0.836060
O951	O95	0.504420	0.717300	0.948570
O961	O96	0.555100	0.894600	0.929750
O971	O97	0.615230	0.617400	0.884580
O981	O98	0.675770	0.790900	0.874010
C251	C25	0.334900	0.498500	0.940620
C261	C26	0.332700	0.516000	0.870870
C271	C27	0.553400	0.786100	0.926030
C281	C28	0.620400	0.727000	0.891810
Mn151	Mn15	0.024960	0.026070	0.928780
Mn161	Mn16	0.145190	0.483880	0.879640
P81	P8	0.119330	0.761080	0.925690
O991	O99	0.054940	0.857700	0.905340
O1001	O100	0.100220	0.655800	0.886100
O1011	O101	0.214800	0.806000	0.923740
H221	H22	0.249600	0.785000	0.954900
O1021	O102	0.127630	0.731200	0.995420
H231	H23	0.078000	0.720000	0.002500
O1031	O103	0.063200	0.483000	0.792830
O1041	O104	0.954400	0.327100	0.790270
H241	H24	0.939400	0.266000	0.771600
O1051	O105	0.911620	0.992100	0.974480
O1061	O106	0.763120	0.991700	0.957130
O1071	O107	0.906580	0.027000	0.855260
O1081	O108	0.758690	0.016400	0.836060
O1091	O109	0.004420	0.217300	0.948570
O1101	O110	0.055100	0.394600	0.929750
O1111	O111	0.115230	0.117400	0.884580
O1121	O112	0.175770	0.290900	0.874010
C291	C29	0.834900	0.998500	0.940620
C301	C30	0.832700	0.016000	0.870870
C311	C31	0.053400	0.286100	0.926030
C321	C32	0.120400	0.227000	0.891810
P91	P9	0.500000	0.090410	0.250000
P101	P10	0.000000	0.590410	0.250000
P111	P11	0.500000	0.909590	0.750000
P121	P12	0.000000	0.409590	0.750000
