data_WUSGOI_clean_PM
_symmetry_space_group_name_H-M	'P1'
_cell_length_a	8.894600
_cell_length_b	9.812500
_cell_length_c	12.250700
_cell_angle_alpha	81.742000
_cell_angle_beta	71.831000
_cell_angle_gamma	72.827000
_symmetry_Int_Tables_number 1

loop_
_symmetry_equiv_pos_as_xyz
'x,y,z'

loop_
_atom_site_label
_atom_site_type_symbol
_atom_site_fract_x
_atom_site_fract_y
_atom_site_fract_z
Mn11	Mn1	0.938860	0.340540	0.717260
Mn21	Mn2	0.401240	0.954310	0.926390
P11	P1	0.688170	0.113320	0.776240
P21	P2	0.718560	0.669040	0.814660
O11	O1	0.822300	0.173100	0.786300
O21	O2	0.746200	0.008900	0.681700
O31	O3	0.608400	0.045200	0.892900
O41	O4	0.551000	0.240200	0.740300
H11	H1	0.511800	0.299200	0.789700
O51	O5	0.740400	0.513900	0.797200
O61	O6	0.548600	0.742500	0.886500
O71	O7	0.761500	0.746400	0.693400
H21	H2	0.740300	0.832500	0.700200
O81	O8	0.850200	0.675200	0.873900
H31	H3	0.805700	0.727300	0.928000
O91	O9	0.888000	0.373300	0.552200
O101	O10	0.917800	0.507000	0.386600
O111	O11	0.351400	0.012900	0.759600
O121	O12	0.178900	0.166500	0.672700
O131	O13	0.231700	0.178300	0.941300
O141	O14	0.058600	0.330000	0.853400
C11	C1	0.943500	0.465600	0.482500
C21	C2	0.240500	0.123900	0.754200
C31	C3	0.169600	0.220400	0.860700
Mn31	Mn3	0.061140	0.659460	0.282740
Mn41	Mn4	0.598760	0.045690	0.073610
P31	P3	0.311830	0.886680	0.223760
P41	P4	0.281440	0.330960	0.185340
O151	O15	0.177700	0.826900	0.213700
O161	O16	0.253800	0.991100	0.318300
O171	O17	0.391600	0.954800	0.107100
O181	O18	0.449000	0.759800	0.259700
H41	H4	0.488200	0.700800	0.210300
O191	O19	0.259600	0.486100	0.202800
O201	O20	0.451400	0.257500	0.113500
O211	O21	0.238500	0.253600	0.306600
H51	H5	0.259700	0.167500	0.299800
O221	O22	0.149800	0.324800	0.126100
H61	H6	0.194300	0.272700	0.072000
O231	O23	0.112000	0.626700	0.447800
O241	O24	0.082200	0.493000	0.613400
O251	O25	0.648600	0.987100	0.240400
O261	O26	0.821100	0.833500	0.327300
O271	O27	0.768300	0.821700	0.058700
O281	O28	0.941400	0.670000	0.146600
C41	C4	0.056500	0.534400	0.517500
C51	C5	0.759500	0.876100	0.245800
C61	C6	0.830400	0.779600	0.139300
