data_WUSSEK_clean_PM
_symmetry_space_group_name_H-M	'P1'
_cell_length_a	8.325900
_cell_length_b	22.773000
_cell_length_c	20.105000
_cell_angle_alpha	90.000000
_cell_angle_beta	93.700000
_cell_angle_gamma	90.000000
_symmetry_Int_Tables_number 1

loop_
_symmetry_equiv_pos_as_xyz
'x,y,z'

loop_
_atom_site_label
_atom_site_type_symbol
_atom_site_fract_x
_atom_site_fract_y
_atom_site_fract_z
C11	C1	0.692000	0.448900	0.565600
C21	C2	0.748700	0.406200	0.619900
C31	C3	0.646500	0.361900	0.637800
H11	H1	0.544200	0.357600	0.614500
C41	C4	0.692300	0.323600	0.689700
H21	H2	0.619300	0.294400	0.702900
C51	C5	0.841300	0.327800	0.721600
C61	C6	0.946700	0.371600	0.704200
H31	H3	0.049600	0.375000	0.727200
C71	C7	0.900700	0.410800	0.652300
H41	H4	0.973300	0.440300	0.639600
C81	C8	0.898000	0.288000	0.777900
C91	C9	0.933600	0.150000	0.930700
H51	H5	0.007900	0.151500	0.968500
C101	C10	0.944000	0.193100	0.883300
H61	H6	0.021200	0.223700	0.889000
C111	C11	0.837400	0.190800	0.826200
C121	C12	0.733400	0.142600	0.819800
H71	H7	0.664200	0.138000	0.780700
C131	C13	0.731400	0.102100	0.870000
H81	H8	0.660000	0.069700	0.864400
C141	C14	0.851900	0.656700	0.452400
C151	C15	0.856400	0.713000	0.411200
C161	C16	0.747600	0.724500	0.361000
H91	H9	0.660300	0.698000	0.353200
C171	C17	0.755600	0.772400	0.320600
H101	H10	0.680700	0.776000	0.283100
C181	C18	0.866300	0.814600	0.332300
C191	C19	0.977600	0.803100	0.382800
H111	H11	0.059900	0.831200	0.393200
C201	C20	0.975400	0.751800	0.420000
H121	H12	0.060900	0.744300	0.452500
C211	C21	0.880700	0.868100	0.292700
C221	C22	0.786000	0.915000	0.184700
C231	C23	0.687300	0.906600	0.127100
H131	H13	0.625100	0.871700	0.121900
C241	C24	0.678600	0.948500	0.077300
H141	H14	0.613700	0.941200	0.037500
C251	C25	0.853400	0.008800	0.140400
H151	H15	0.911800	0.044500	0.145200
C261	C26	0.868600	0.969000	0.191700
H161	H16	0.933500	0.977600	0.231100
N11	N1	0.826200	0.105800	0.927400
N21	N2	0.828400	0.233300	0.775800
N31	N3	0.761400	0.000380	0.083900
N41	N4	0.792600	0.870500	0.232300
O11	O1	0.784400	0.492850	0.558030
O21	O2	0.564200	0.439220	0.532910
O31	O3	0.731400	0.623490	0.436950
O41	O4	0.958100	0.647300	0.495800
O51	O5	0.964500	0.909600	0.312700
O61	O6	0.994900	0.303200	0.821800
Cu11	Cu1	0.712950	0.554280	0.494480
H171	H17	0.770000	0.221000	0.740200
H181	H18	0.730500	0.840000	0.222900
C271	C27	0.808000	0.948900	0.934400
C281	C28	0.751300	0.906200	0.880100
C291	C29	0.853500	0.861900	0.862200
H191	H19	0.955800	0.857600	0.885500
C301	C30	0.807700	0.823600	0.810300
H201	H20	0.880700	0.794400	0.797100
C311	C31	0.658700	0.827800	0.778400
C321	C32	0.553300	0.871600	0.795800
H211	H21	0.450400	0.875000	0.772800
C331	C33	0.599300	0.910800	0.847700
H221	H22	0.526700	0.940300	0.860400
C341	C34	0.602000	0.788000	0.722100
C351	C35	0.566400	0.650000	0.569300
H231	H23	0.492100	0.651500	0.531500
C361	C36	0.556000	0.693100	0.616700
H241	H24	0.478800	0.723700	0.611000
C371	C37	0.662600	0.690800	0.673800
C381	C38	0.766600	0.642600	0.680200
H251	H25	0.835800	0.638000	0.719300
C391	C39	0.768600	0.602100	0.630000
H261	H26	0.840000	0.569700	0.635600
C401	C40	0.648100	0.156700	0.047600
C411	C41	0.643600	0.213000	0.088800
C421	C42	0.752400	0.224500	0.139000
H271	H27	0.839700	0.198000	0.146800
C431	C43	0.744400	0.272400	0.179400
H281	H28	0.819300	0.276000	0.216900
C441	C44	0.633700	0.314600	0.167700
C451	C45	0.522400	0.303100	0.117200
H291	H29	0.440100	0.331200	0.106800
C461	C46	0.524600	0.251800	0.080000
H301	H30	0.439100	0.244300	0.047500
C471	C47	0.619300	0.368100	0.207300
C481	C48	0.714000	0.415000	0.315300
C491	C49	0.812700	0.406600	0.372900
H311	H31	0.874900	0.371700	0.378100
C501	C50	0.821400	0.448500	0.422700
H321	H32	0.886300	0.441200	0.462500
C511	C51	0.646600	0.508800	0.359600
H331	H33	0.588200	0.544500	0.354800
C521	C52	0.631400	0.469000	0.308300
H341	H34	0.566500	0.477600	0.268900
N51	N5	0.673800	0.605800	0.572600
N61	N6	0.671600	0.733300	0.724200
N71	N7	0.738600	0.500380	0.416100
N81	N8	0.707400	0.370500	0.267700
O71	O7	0.715600	0.992850	0.941970
O81	O8	0.935800	0.939220	0.967090
O91	O9	0.768600	0.123490	0.063050
O101	O10	0.541900	0.147300	0.004200
O111	O11	0.535500	0.409600	0.187300
O121	O12	0.505100	0.803200	0.678200
Cu21	Cu2	0.787050	0.054280	0.005520
H351	H35	0.730000	0.721000	0.759800
H361	H36	0.769500	0.340000	0.277100
C531	C53	0.308000	0.551100	0.434400
C541	C54	0.251300	0.593800	0.380100
C551	C55	0.353500	0.638100	0.362200
H371	H37	0.455800	0.642400	0.385500
C561	C56	0.307700	0.676400	0.310300
H381	H38	0.380700	0.705600	0.297100
C571	C57	0.158700	0.672200	0.278400
C581	C58	0.053300	0.628400	0.295800
H391	H39	0.950400	0.625000	0.272800
C591	C59	0.099300	0.589200	0.347700
H401	H40	0.026700	0.559700	0.360400
C601	C60	0.102000	0.712000	0.222100
C611	C61	0.066400	0.850000	0.069300
H411	H41	0.992100	0.848500	0.031500
C621	C62	0.056000	0.806900	0.116700
H421	H42	0.978800	0.776300	0.111000
C631	C63	0.162600	0.809200	0.173800
C641	C64	0.266600	0.857400	0.180200
H431	H43	0.335800	0.862000	0.219300
C651	C65	0.268600	0.897900	0.130000
H441	H44	0.340000	0.930300	0.135600
C661	C66	0.148100	0.343300	0.547600
C671	C67	0.143600	0.287000	0.588800
C681	C68	0.252400	0.275500	0.639000
H451	H45	0.339700	0.302000	0.646800
C691	C69	0.244400	0.227600	0.679400
H461	H46	0.319300	0.224000	0.716900
C701	C70	0.133700	0.185400	0.667700
C711	C71	0.022400	0.196900	0.617200
H471	H47	0.940100	0.168800	0.606800
C721	C72	0.024600	0.248200	0.580000
H481	H48	0.939100	0.255700	0.547500
C731	C73	0.119300	0.131900	0.707300
C741	C74	0.214000	0.085000	0.815300
C751	C75	0.312700	0.093400	0.872900
H491	H49	0.374900	0.128300	0.878100
C761	C76	0.321400	0.051500	0.922700
H501	H50	0.386300	0.058800	0.962500
C771	C77	0.146600	0.991200	0.859600
H511	H51	0.088200	0.955500	0.854800
C781	C78	0.131400	0.031000	0.808300
H521	H52	0.066500	0.022400	0.768900
N91	N9	0.173800	0.894200	0.072600
N101	N10	0.171600	0.766700	0.224200
N111	N11	0.238600	0.999620	0.916100
N121	N12	0.207400	0.129500	0.767700
O131	O13	0.215600	0.507150	0.441970
O141	O14	0.435800	0.560780	0.467090
O151	O15	0.268600	0.376510	0.563050
O161	O16	0.041900	0.352700	0.504200
O171	O17	0.035500	0.090400	0.687300
O181	O18	0.005100	0.696800	0.178200
Cu31	Cu3	0.287050	0.445720	0.505520
H531	H53	0.230000	0.779000	0.259800
H541	H54	0.269500	0.160000	0.777100
C791	C79	0.192000	0.051100	0.065600
C801	C80	0.248700	0.093800	0.119900
C811	C81	0.146500	0.138100	0.137800
H551	H55	0.044200	0.142400	0.114500
C821	C82	0.192300	0.176400	0.189700
H561	H56	0.119300	0.205600	0.202900
C831	C83	0.341300	0.172200	0.221600
C841	C84	0.446700	0.128400	0.204200
H571	H57	0.549600	0.125000	0.227200
C851	C85	0.400700	0.089200	0.152300
H581	H58	0.473300	0.059700	0.139600
C861	C86	0.398000	0.212000	0.277900
C871	C87	0.433600	0.350000	0.430700
H591	H59	0.507900	0.348500	0.468500
C881	C88	0.444000	0.306900	0.383300
H601	H60	0.521200	0.276300	0.389000
C891	C89	0.337400	0.309200	0.326200
C901	C90	0.233400	0.357400	0.319800
H611	H61	0.164200	0.362000	0.280700
C911	C91	0.231400	0.397900	0.370000
H621	H62	0.160000	0.430300	0.364400
C921	C92	0.351900	0.843300	0.952400
C931	C93	0.356400	0.787000	0.911200
C941	C94	0.247600	0.775500	0.861000
H631	H63	0.160300	0.802000	0.853200
C951	C95	0.255600	0.727600	0.820600
H641	H64	0.180700	0.724000	0.783100
C961	C96	0.366300	0.685400	0.832300
C971	C97	0.477600	0.696900	0.882800
H651	H65	0.559900	0.668800	0.893200
C981	C98	0.475400	0.748200	0.920000
H661	H66	0.560900	0.755700	0.952500
C991	C99	0.380700	0.631900	0.792700
C1001	C100	0.286000	0.585000	0.684700
C1011	C101	0.187300	0.593400	0.627100
H671	H67	0.125100	0.628300	0.621900
C1021	C102	0.178600	0.551500	0.577300
H681	H68	0.113700	0.558800	0.537500
C1031	C103	0.353400	0.491200	0.640400
H691	H69	0.411800	0.455500	0.645200
C1041	C104	0.368600	0.531000	0.691700
H701	H70	0.433500	0.522400	0.731100
N131	N13	0.326200	0.394200	0.427400
N141	N14	0.328400	0.266700	0.275800
N151	N15	0.261400	0.499620	0.583900
N161	N16	0.292600	0.629500	0.732300
O191	O19	0.284400	0.007150	0.058030
O201	O20	0.064200	0.060780	0.032910
O211	O21	0.231400	0.876510	0.936950
O221	O22	0.458100	0.852700	0.995800
O231	O23	0.464500	0.590400	0.812700
O241	O24	0.494900	0.196800	0.321800
Cu41	Cu4	0.212950	0.945720	0.994480
H711	H71	0.270000	0.279000	0.240200
H721	H72	0.230500	0.660000	0.722900
