data_WUYYOG_clean_PM
_symmetry_space_group_name_H-M	'P1'
_cell_length_a	15.116000
_cell_length_b	15.393000
_cell_length_c	18.225000
_cell_angle_alpha	105.732000
_cell_angle_beta	106.553000
_cell_angle_gamma	104.405000
_symmetry_Int_Tables_number 1

loop_
_symmetry_equiv_pos_as_xyz
'x,y,z'

loop_
_atom_site_label
_atom_site_type_symbol
_atom_site_fract_x
_atom_site_fract_y
_atom_site_fract_z
Zn11	Zn1	0.191690	0.027080	0.930060
O11	O1	0.624900	0.774700	0.472000
O21	O2	0.083800	0.040800	0.805300
O31	O3	0.422900	0.567000	0.379400
O41	O4	0.310500	0.752700	0.482600
O51	O5	0.043500	0.968800	0.885900
O61	O6	0.424800	0.883500	0.396100
O71	O7	0.234600	0.163300	0.995300
O81	O8	0.120100	0.954700	0.061900
O91	O9	0.242900	0.975400	0.014100
O101	O10	0.108900	0.144300	0.042900
O111	O11	0.278500	0.010100	0.870600
C11	C1	0.468800	0.766900	0.481300
O121	O12	0.165900	0.862700	0.814100
C21	C2	0.347600	0.661100	0.217600
H11	H1	0.322800	0.639200	0.160400
C31	C3	0.403600	0.784800	0.345800
C41	C4	0.611600	0.826800	0.603800
C51	C5	0.570900	0.788900	0.519700
C61	C6	0.337400	0.817100	0.216800
C71	C7	0.021000	0.987900	0.819300
C81	C8	0.254000	0.912100	0.119200
C91	C9	0.323000	0.492300	0.202200
C101	C10	0.423000	0.723800	0.386700
C111	C11	0.450000	0.820900	0.610500
C121	C12	0.916400	0.939400	0.759600
C131	C13	0.402000	0.629900	0.341600
C141	C14	0.410700	0.780400	0.525500
C151	C15	0.361800	0.596300	0.254700
C161	C16	0.753200	0.835600	0.721300
H21	H2	0.708100	0.790800	0.730600
C171	C17	0.791200	0.928600	0.636800
H31	H3	0.771900	0.946700	0.591800
C181	C18	0.437700	0.935200	0.728200
H41	H4	0.499200	0.977800	0.737800
C191	C19	0.237500	0.298900	0.097600
C201	C20	0.850000	0.875700	0.773100
H51	H5	0.870500	0.858700	0.818700
C211	C21	0.723200	0.863200	0.653900
C221	C22	0.387200	0.960600	0.778700
H61	H6	0.414200	0.021100	0.820700
C231	C23	0.248700	0.428200	0.212600
H71	H7	0.227900	0.448600	0.255500
C241	C24	0.187000	0.191700	0.039700
C251	C25	0.553500	0.843400	0.648000
H81	H8	0.583100	0.870700	0.705100
C261	C26	0.206100	0.332500	0.157000
H91	H9	0.153700	0.290600	0.161700
C271	C27	0.355000	0.460500	0.141500
H101	H10	0.403500	0.503500	0.133600
C281	C28	0.297400	0.896900	0.767200
C291	C29	0.357900	0.818800	0.149600
H111	H11	0.398100	0.786200	0.134700
C301	C30	0.396500	0.845800	0.662800
C311	C31	0.369000	0.758500	0.262100
C321	C32	0.276300	0.867500	0.237200
H121	H12	0.263900	0.870500	0.284800
C331	C33	0.257500	0.807000	0.704800
H131	H13	0.198400	0.762900	0.698000
C341	C34	0.313600	0.359300	0.088600
H141	H14	0.338300	0.335900	0.049200
C351	C35	0.886800	0.963200	0.690600
H151	H15	0.934300	0.004700	0.680700
C361	C36	0.305900	0.782400	0.652100
H161	H16	0.277300	0.722700	0.609100
C371	C37	0.203100	0.952300	0.060900
C381	C38	0.233800	0.912800	0.187800
H171	H17	0.191800	0.943500	0.201500
C391	C39	0.270400	0.829800	0.481600
H181	H18	0.203400	0.802800	0.442800
H191	H19	0.309100	0.875500	0.465800
H201	H20	0.272300	0.861700	0.535500
C401	C40	0.241700	0.922200	0.818700
C411	C41	0.521800	0.944400	0.410900
H211	H21	0.534700	0.008700	0.446500
H221	H22	0.526100	0.945400	0.359600
H231	H23	0.569600	0.919900	0.436600
C421	C42	0.318500	0.870300	0.100300
H241	H24	0.336900	0.874700	0.056500
C431	C43	0.667500	0.703200	0.478200
H251	H25	0.729500	0.720700	0.471700
H261	H26	0.623800	0.642100	0.435800
H271	H27	0.677800	0.698300	0.531100
C441	C44	0.366300	0.548100	0.433400
H281	H28	0.410900	0.552100	0.484700
H291	H29	0.316500	0.484900	0.406100
H301	H30	0.335800	0.595400	0.443700
Zn21	Zn2	0.808310	0.972920	0.069940
O131	O13	0.375100	0.225300	0.528000
O141	O14	0.916200	0.959200	0.194700
O151	O15	0.577100	0.433000	0.620600
O161	O16	0.689500	0.247300	0.517400
O171	O17	0.956500	0.031200	0.114100
O181	O18	0.575200	0.116500	0.603900
O191	O19	0.765400	0.836700	0.004700
O201	O20	0.879900	0.045300	0.938100
O211	O21	0.757100	0.024600	0.985900
O221	O22	0.891100	0.855700	0.957100
O231	O23	0.721500	0.989900	0.129400
C451	C45	0.531200	0.233100	0.518700
O241	O24	0.834100	0.137300	0.185900
C461	C46	0.652400	0.338900	0.782400
H311	H31	0.677200	0.360800	0.839600
C471	C47	0.596400	0.215200	0.654200
C481	C48	0.388400	0.173200	0.396200
C491	C49	0.429100	0.211100	0.480300
C501	C50	0.662600	0.182900	0.783200
C511	C51	0.979000	0.012100	0.180700
C521	C52	0.746000	0.087900	0.880800
C531	C53	0.677000	0.507700	0.797800
C541	C54	0.577000	0.276200	0.613300
C551	C55	0.550000	0.179100	0.389500
C561	C56	0.083600	0.060600	0.240400
C571	C57	0.598000	0.370100	0.658400
C581	C58	0.589300	0.219600	0.474500
C591	C59	0.638200	0.403700	0.745300
C601	C60	0.246800	0.164400	0.278700
H321	H32	0.291900	0.209200	0.269400
C611	C61	0.208800	0.071400	0.363200
H331	H33	0.228100	0.053300	0.408200
C621	C62	0.562300	0.064800	0.271800
H341	H34	0.500800	0.022200	0.262200
C631	C63	0.762500	0.701100	0.902400
C641	C64	0.150000	0.124300	0.226900
H351	H35	0.129500	0.141300	0.181300
C651	C65	0.276800	0.136800	0.346100
C661	C66	0.612800	0.039400	0.221300
H361	H36	0.585800	0.978900	0.179300
C671	C67	0.751300	0.571800	0.787400
H371	H37	0.772100	0.551400	0.744500
C681	C68	0.813000	0.808300	0.960300
C691	C69	0.446500	0.156600	0.352000
H381	H38	0.416900	0.129300	0.294900
C701	C70	0.793900	0.667500	0.843000
H391	H39	0.846300	0.709400	0.838300
C711	C71	0.645000	0.539500	0.858500
H401	H40	0.596500	0.496500	0.866400
C721	C72	0.702600	0.103100	0.232800
C731	C73	0.642100	0.181200	0.850400
H411	H41	0.601900	0.213800	0.865300
C741	C74	0.603500	0.154200	0.337200
C751	C75	0.631000	0.241500	0.737900
C761	C76	0.723700	0.132500	0.762800
H421	H42	0.736100	0.129500	0.715200
C771	C77	0.742500	0.193000	0.295200
H431	H43	0.801600	0.237100	0.302000
C781	C78	0.686400	0.640700	0.911400
H441	H44	0.661700	0.664100	0.950800
C791	C79	0.113200	0.036800	0.309400
H451	H45	0.065700	0.995300	0.319300
C801	C80	0.694100	0.217600	0.347900
H461	H46	0.722700	0.277300	0.390900
C811	C81	0.796900	0.047700	0.939100
C821	C82	0.766200	0.087200	0.812200
H471	H47	0.808200	0.056500	0.798500
C831	C83	0.729600	0.170200	0.518400
H481	H48	0.796600	0.197200	0.557200
H491	H49	0.690900	0.124500	0.534200
H501	H50	0.727700	0.138300	0.464500
C841	C84	0.758300	0.077800	0.181300
C851	C85	0.478200	0.055600	0.589100
H511	H51	0.465300	0.991300	0.553500
H521	H52	0.473900	0.054600	0.640400
H531	H53	0.430400	0.080100	0.563400
C861	C86	0.681500	0.129700	0.899700
H541	H54	0.663100	0.125300	0.943500
C871	C87	0.332500	0.296800	0.521800
H551	H55	0.270500	0.279300	0.528300
H561	H56	0.376200	0.357900	0.564200
H571	H57	0.322200	0.301700	0.468900
C881	C88	0.633700	0.451900	0.566600
H581	H58	0.589100	0.447900	0.515300
H591	H59	0.683500	0.515100	0.593900
H601	H60	0.664200	0.404600	0.556300
