data_WUZGAB_clean_PM
_symmetry_space_group_name_H-M	'P1'
_cell_length_a	15.631000
_cell_length_b	18.456000
_cell_length_c	27.517000
_cell_angle_alpha	80.164000
_cell_angle_beta	89.994000
_cell_angle_gamma	76.264000
_symmetry_Int_Tables_number 1

loop_
_symmetry_equiv_pos_as_xyz
'x,y,z'

loop_
_atom_site_label
_atom_site_type_symbol
_atom_site_fract_x
_atom_site_fract_y
_atom_site_fract_z
Ca11	Ca1	0.589840	0.335110	0.586340
Ca21	Ca2	0.049310	0.824570	0.087970
C11	C1	0.703400	0.205300	0.622200
C21	C2	0.758500	0.127900	0.647500
C31	C3	0.745600	0.095000	0.695900
H11	H1	0.702900	0.120100	0.714700
C41	C4	0.799000	0.023100	0.715000
H21	H2	0.790700	0.000600	0.747000
C51	C5	0.865400	0.983300	0.687300
C61	C6	0.878900	0.020700	0.640700
H31	H3	0.923700	0.996400	0.622700
C71	C7	0.827900	0.094500	0.618800
H41	H4	0.839400	0.118800	0.588000
C81	C8	0.915000	0.909400	0.708200
C91	C9	0.940700	0.892900	0.758600
H51	H5	0.928200	0.933100	0.775900
C101	C10	0.982900	0.822700	0.785000
C111	C11	0.000200	0.759600	0.756900
C121	C12	0.975100	0.774200	0.705900
C131	C13	0.930800	0.847200	0.683200
C141	C14	0.004100	0.814400	0.835000
C151	C15	0.043200	0.868100	0.853100
H61	H6	0.062300	0.904400	0.831000
C161	C16	0.052700	0.866100	0.903800
H71	H7	0.078900	0.900800	0.915000
C171	C17	0.024800	0.815500	0.936500
C181	C18	0.986300	0.759500	0.921200
H81	H8	0.968200	0.723600	0.944200
C191	C19	0.976800	0.760300	0.871100
H91	H9	0.951800	0.724400	0.860600
C201	C20	0.027200	0.818400	0.989400
C211	C21	0.990900	0.706600	0.681600
C221	C22	0.074700	0.672800	0.668800
C231	C23	0.090600	0.609800	0.645900
C241	C24	0.017500	0.582300	0.630500
H101	H10	0.026800	0.540400	0.614800
C251	C25	0.930300	0.621700	0.640200
C261	C26	0.919300	0.681500	0.666700
C271	C27	0.806800	0.677700	0.723200
H111	H11	0.747800	0.703400	0.729200
H121	H12	0.845400	0.676900	0.750600
H131	H13	0.808100	0.626700	0.719400
C281	C28	0.197600	0.731300	0.640100
H141	H14	0.255600	0.729800	0.652400
H151	H15	0.168600	0.782400	0.625800
H161	H16	0.202000	0.699700	0.615400
C291	C29	0.129200	0.674300	0.799900
H171	H17	0.144600	0.626200	0.821700
H181	H18	0.132800	0.713800	0.817800
H191	H19	0.169200	0.674300	0.773400
C301	C30	0.181400	0.566700	0.634200
C311	C31	0.240300	0.536900	0.675200
H201	H20	0.226700	0.547800	0.706400
C321	C32	0.321900	0.489200	0.665900
H211	H21	0.362800	0.467400	0.691900
C331	C33	0.341700	0.474500	0.620000
C341	C34	0.285600	0.507900	0.581300
H221	H22	0.301900	0.500900	0.549600
C351	C35	0.204600	0.552100	0.588300
H231	H23	0.164800	0.572400	0.561500
C361	C36	0.428100	0.427200	0.611400
C371	C37	0.856900	0.586700	0.626900
C381	C38	0.864700	0.506000	0.641300
H241	H24	0.913000	0.474700	0.660200
C391	C39	0.796100	0.477500	0.625600
H251	H25	0.799500	0.425900	0.634200
C401	C40	0.725500	0.522100	0.598400
C411	C41	0.716200	0.600600	0.583700
H261	H26	0.668000	0.630400	0.564000
C421	C42	0.782900	0.633000	0.599900
H271	H27	0.776800	0.685100	0.592500
C431	C43	0.656600	0.479100	0.581600
C441	C44	0.551200	0.327400	0.489400
C451	C45	0.532200	0.317700	0.441100
C461	C46	0.495300	0.259000	0.430500
H281	H28	0.486900	0.220500	0.455300
C471	C47	0.471900	0.261300	0.381200
H291	H29	0.447000	0.222700	0.374700
C481	C48	0.481500	0.314400	0.341000
C491	C49	0.520800	0.371200	0.354200
H301	H30	0.529600	0.408900	0.329100
C501	C50	0.546200	0.373900	0.401100
H311	H31	0.572500	0.412000	0.407100
C511	C51	0.448300	0.320500	0.290900
C521	C52	0.467800	0.253800	0.266900
C531	C53	0.434700	0.262500	0.220300
C541	C54	0.383800	0.331200	0.192900
C551	C55	0.361400	0.394100	0.218300
C561	C56	0.398700	0.385400	0.265500
H321	H32	0.388300	0.427800	0.280700
C571	C57	0.252200	0.346100	0.140800
H331	H33	0.235200	0.360300	0.106300
H341	H34	0.224500	0.386200	0.157800
H351	H35	0.234000	0.300900	0.154200
C581	C58	0.603400	0.178600	0.302800
H361	H36	0.625100	0.134900	0.327900
H371	H37	0.610400	0.223100	0.314400
H381	H38	0.636000	0.173000	0.273500
C591	C59	0.307900	0.470300	0.193900
C601	C60	0.323900	0.498500	0.145300
H391	H39	0.366500	0.469600	0.128300
C611	C61	0.275100	0.571500	0.121800
H401	H40	0.286500	0.592100	0.089900
C621	C62	0.205800	0.613000	0.150000
C631	C63	0.190200	0.580700	0.197000
H411	H41	0.145800	0.607300	0.214200
C641	C64	0.240000	0.508000	0.220000
H421	H42	0.227600	0.486300	0.251500
C651	C65	0.148300	0.687200	0.127000
C661	C66	0.385300	0.154400	0.192300
C671	C67	0.396400	0.088500	0.173200
C681	C68	0.482400	0.057100	0.157900
H431	H43	0.492600	0.012300	0.145300
C691	C69	0.550700	0.091500	0.161500
C701	C70	0.532300	0.162000	0.177700
C711	C71	0.450400	0.190500	0.195500
C721	C72	0.597300	0.268700	0.150700
H441	H44	0.648700	0.286800	0.155900
H451	H45	0.545600	0.305000	0.157600
H461	H46	0.593600	0.261700	0.117100
C731	C73	0.287100	0.143900	0.258500
H471	H47	0.225300	0.154400	0.264700
H481	H48	0.318000	0.159300	0.283500
H491	H49	0.309100	0.090600	0.259000
C741	C74	0.640100	0.059700	0.144500
C751	C75	0.679700	0.983000	0.165400
H501	H50	0.650300	0.957200	0.189200
C761	C76	0.762900	0.945200	0.150800
H511	H51	0.793900	0.898900	0.168500
C771	C77	0.796300	0.980300	0.108700
C781	C78	0.757600	0.051500	0.087500
H521	H52	0.783300	0.075400	0.060900
C791	C79	0.677100	0.091300	0.105300
H531	H53	0.650100	0.140000	0.089300
C801	C80	0.881700	0.943300	0.092400
C811	C81	0.319200	0.055400	0.162000
C821	C82	0.246700	0.099300	0.137600
H541	H54	0.236800	0.151700	0.133500
C831	C83	0.184900	0.066600	0.118100
H551	H55	0.134000	0.097600	0.101400
C841	C84	0.198300	0.993900	0.123000
C851	C85	0.270700	0.942400	0.150200
H561	H56	0.276400	0.890300	0.155500
C861	C86	0.333600	0.975000	0.168800
H571	H57	0.384600	0.944200	0.185500
C871	C87	0.133400	0.954800	0.100000
C881	C88	0.978300	0.852100	0.590300
H581	H58	0.013400	0.801000	0.594000
H591	H59	0.015900	0.885800	0.592600
H601	H60	0.947300	0.865900	0.558700
O11	O1	0.632200	0.229800	0.645600
O21	O2	0.728200	0.243900	0.586200
O31	O3	0.061200	0.870300	0.004200
O41	O4	0.999100	0.772400	0.021800
O51	O5	0.474600	0.374800	0.647800
O61	O6	0.456800	0.427300	0.566600
O71	O7	0.657300	0.418200	0.601900
O81	O8	0.609500	0.524000	0.539800
O91	O9	0.038700	0.687500	0.779600
O101	O10	0.909400	0.858100	0.632800
O111	O11	0.836000	0.717400	0.678400
O121	O12	0.144500	0.702500	0.682400
O131	O13	0.539900	0.276100	0.526300
O141	O14	0.585000	0.380100	0.499400
O151	O15	0.079900	0.719800	0.147700
O161	O16	0.177200	0.722100	0.087500
O171	O17	0.088300	0.996700	0.064300
O181	O18	0.133000	0.887200	0.118900
O191	O19	0.900500	0.969100	0.047700
O201	O20	0.922700	0.878800	0.115600
O211	O21	0.513700	0.185500	0.291900
O221	O22	0.351000	0.331700	0.147200
O231	O23	0.603500	0.194900	0.184400
O241	O24	0.300300	0.185800	0.210100
Cd11	Cd1	0.410160	0.664890	0.413660
Cd21	Cd2	0.950690	0.175430	0.912030
C891	C89	0.296600	0.794700	0.377800
C901	C90	0.241500	0.872100	0.352500
C911	C91	0.254400	0.905000	0.304100
H611	H61	0.297100	0.879900	0.285300
C921	C92	0.201000	0.976900	0.285000
H621	H62	0.209300	0.999400	0.253000
C931	C93	0.134600	0.016700	0.312700
C941	C94	0.121100	0.979300	0.359300
H631	H63	0.076300	0.003600	0.377300
C951	C95	0.172100	0.905500	0.381200
H641	H64	0.160600	0.881200	0.412000
C961	C96	0.085000	0.090600	0.291800
C971	C97	0.059300	0.107100	0.241400
H651	H65	0.071800	0.066900	0.224100
C981	C98	0.017100	0.177300	0.215000
C991	C99	0.999800	0.240400	0.243100
C1001	C100	0.024900	0.225800	0.294100
C1011	C101	0.069200	0.152800	0.316800
C1021	C102	0.995900	0.185600	0.165000
C1031	C103	0.956800	0.131900	0.146900
H661	H66	0.937700	0.095600	0.169000
C1041	C104	0.947300	0.133900	0.096200
H671	H67	0.921100	0.099200	0.085000
C1051	C105	0.975200	0.184500	0.063500
C1061	C106	0.013700	0.240500	0.078800
H681	H68	0.031800	0.276400	0.055800
C1071	C107	0.023200	0.239700	0.128900
H691	H69	0.048200	0.275600	0.139400
C1081	C108	0.972800	0.181600	0.010600
C1091	C109	0.009100	0.293400	0.318400
C1101	C110	0.925300	0.327200	0.331200
C1111	C111	0.909400	0.390200	0.354100
C1121	C112	0.982500	0.417700	0.369500
H701	H70	0.973200	0.459600	0.385200
C1131	C113	0.069700	0.378300	0.359800
C1141	C114	0.080700	0.318500	0.333300
C1151	C115	0.193200	0.322300	0.276800
H711	H71	0.252200	0.296600	0.270800
H721	H72	0.154600	0.323100	0.249400
H731	H73	0.191900	0.373300	0.280600
C1161	C116	0.802400	0.268700	0.359900
H741	H74	0.744400	0.270200	0.347600
H751	H75	0.831400	0.217600	0.374200
H761	H76	0.798000	0.300300	0.384600
C1171	C117	0.870800	0.325700	0.200100
H771	H77	0.855400	0.373800	0.178300
H781	H78	0.867200	0.286200	0.182200
H791	H79	0.830800	0.325700	0.226600
C1181	C118	0.818600	0.433300	0.365800
C1191	C119	0.759700	0.463100	0.324800
H801	H80	0.773300	0.452200	0.293600
C1201	C120	0.678100	0.510800	0.334100
H811	H81	0.637200	0.532600	0.308100
C1211	C121	0.658300	0.525500	0.380000
C1221	C122	0.714400	0.492100	0.418700
H821	H82	0.698100	0.499100	0.450400
C1231	C123	0.795400	0.447900	0.411700
H831	H83	0.835200	0.427600	0.438500
C1241	C124	0.571900	0.572800	0.388600
C1251	C125	0.143100	0.413300	0.373100
C1261	C126	0.135300	0.494000	0.358700
H841	H84	0.087000	0.525300	0.339800
C1271	C127	0.203900	0.522500	0.374400
H851	H85	0.200500	0.574100	0.365800
C1281	C128	0.274500	0.477900	0.401600
C1291	C129	0.283800	0.399400	0.416300
H861	H86	0.332000	0.369600	0.436000
C1301	C130	0.217100	0.367000	0.400100
H871	H87	0.223200	0.314900	0.407500
C1311	C131	0.343400	0.520900	0.418400
C1321	C132	0.448800	0.672600	0.510600
C1331	C133	0.467800	0.682300	0.558900
C1341	C134	0.504700	0.741000	0.569500
H881	H88	0.513100	0.779500	0.544700
C1351	C135	0.528100	0.738700	0.618800
H891	H89	0.553000	0.777300	0.625300
C1361	C136	0.518500	0.685600	0.659000
C1371	C137	0.479200	0.628800	0.645800
H901	H90	0.470400	0.591100	0.670900
C1381	C138	0.453800	0.626100	0.598900
H911	H91	0.427500	0.588000	0.592900
C1391	C139	0.551700	0.679500	0.709100
C1401	C140	0.532200	0.746200	0.733100
C1411	C141	0.565300	0.737500	0.779700
C1421	C142	0.616200	0.668800	0.807100
C1431	C143	0.638600	0.605900	0.781700
C1441	C144	0.601300	0.614600	0.734500
H921	H92	0.611700	0.572200	0.719300
C1451	C145	0.747800	0.653900	0.859200
H931	H93	0.764800	0.639700	0.893700
H941	H94	0.775500	0.613800	0.842200
H951	H95	0.766000	0.699100	0.845800
C1461	C146	0.396600	0.821400	0.697200
H961	H96	0.374900	0.865100	0.672100
H971	H97	0.389600	0.776900	0.685600
H981	H98	0.364000	0.827000	0.726500
C1471	C147	0.692100	0.529700	0.806100
C1481	C148	0.676100	0.501500	0.854700
H991	H99	0.633500	0.530400	0.871700
C1491	C149	0.724900	0.428500	0.878200
H1001	H100	0.713500	0.407900	0.910100
C1501	C150	0.794200	0.387000	0.850000
C1511	C151	0.809800	0.419300	0.803000
H1011	H101	0.854200	0.392700	0.785800
C1521	C152	0.760000	0.492000	0.780000
H1021	H102	0.772400	0.513700	0.748500
C1531	C153	0.851700	0.312800	0.873000
C1541	C154	0.614700	0.845600	0.807700
C1551	C155	0.603600	0.911500	0.826800
C1561	C156	0.517600	0.942900	0.842100
H1031	H103	0.507400	0.987700	0.854700
C1571	C157	0.449300	0.908500	0.838500
C1581	C158	0.467700	0.838000	0.822300
C1591	C159	0.549600	0.809500	0.804500
C1601	C160	0.402700	0.731300	0.849300
H1041	H104	0.351300	0.713200	0.844100
H1051	H105	0.454400	0.695000	0.842400
H1061	H106	0.406400	0.738300	0.882900
C1611	C161	0.712900	0.856100	0.741500
H1071	H107	0.774700	0.845600	0.735300
H1081	H108	0.682000	0.840700	0.716500
H1091	H109	0.690900	0.909400	0.741000
C1621	C162	0.359900	0.940300	0.855500
C1631	C163	0.320300	0.017000	0.834600
H1101	H110	0.349700	0.042800	0.810800
C1641	C164	0.237100	0.054800	0.849200
H1111	H111	0.206100	0.101100	0.831500
C1651	C165	0.203700	0.019700	0.891300
C1661	C166	0.242400	0.948500	0.912500
H1121	H112	0.216700	0.924600	0.939100
C1671	C167	0.322900	0.908700	0.894700
H1131	H113	0.349900	0.860000	0.910700
C1681	C168	0.118300	0.056700	0.907600
C1691	C169	0.680800	0.944600	0.838000
C1701	C170	0.753300	0.900700	0.862400
H1141	H114	0.763200	0.848300	0.866500
C1711	C171	0.815100	0.933400	0.881900
H1151	H115	0.866000	0.902400	0.898600
C1721	C172	0.801700	0.006100	0.877000
C1731	C173	0.729300	0.057600	0.849800
H1161	H116	0.723600	0.109700	0.844500
C1741	C174	0.666400	0.025000	0.831200
H1171	H117	0.615400	0.055800	0.814500
C1751	C175	0.866600	0.045200	0.900000
C1761	C176	0.021700	0.147900	0.409700
H1181	H118	0.986600	0.199000	0.406000
H1191	H119	0.984100	0.114200	0.407400
H1201	H120	0.052700	0.134100	0.441300
O251	O25	0.367800	0.770200	0.354400
O261	O26	0.271800	0.756100	0.413800
O271	O27	0.938800	0.129700	0.995800
O281	O28	0.000900	0.227600	0.978200
O291	O29	0.525400	0.625200	0.352200
O301	O30	0.543200	0.572700	0.433400
O311	O31	0.342700	0.581800	0.398100
O321	O32	0.390500	0.476000	0.460200
O331	O33	0.961300	0.312500	0.220400
O341	O34	0.090600	0.141900	0.367200
O351	O35	0.164000	0.282600	0.321600
O361	O36	0.855500	0.297500	0.317600
O371	O37	0.460100	0.723900	0.473700
O381	O38	0.415000	0.619900	0.500600
O391	O39	0.920100	0.280200	0.852300
O401	O40	0.822800	0.277900	0.912500
O411	O41	0.911700	0.003300	0.935700
O421	O42	0.867000	0.112800	0.881100
O431	O43	0.099500	0.030900	0.952300
O441	O44	0.077300	0.121200	0.884400
O451	O45	0.486300	0.814500	0.708100
O461	O46	0.649000	0.668300	0.852800
O471	O47	0.396500	0.805100	0.815600
O481	O48	0.699700	0.814200	0.789900
Ca31	Ca3	0.500000	0.500000	0.500000
Ca41	Ca4	0.000000	0.000000	0.000000
