data_XACFEN_charged_PM
_symmetry_space_group_name_H-M	'P1'
_cell_length_a	11.630000
_cell_length_b	11.630000
_cell_length_c	15.731000
_cell_angle_alpha	90.000000
_cell_angle_beta	90.000000
_cell_angle_gamma	120.000000
_symmetry_Int_Tables_number 1

loop_
_symmetry_equiv_pos_as_xyz
'x,y,z'

loop_
_atom_site_label
_atom_site_type_symbol
_atom_site_fract_x
_atom_site_fract_y
_atom_site_fract_z
Cd11	Cd1	0.333330	0.666660	0.274200
Cd21	Cd2	0.666670	0.333340	0.774200
Cd31	Cd3	0.000000	0.000000	0.527600
Cd41	Cd4	0.000000	0.000000	0.027600
P11	P1	0.333330	0.666660	0.116100
P21	P2	0.666670	0.333340	0.616100
P31	P3	0.000000	0.000000	0.366200
P41	P4	0.000000	0.000000	0.866200
H11	H1	0.846300	0.937800	0.255900
H21	H2	0.800800	0.819600	0.320000
H31	H3	0.775600	0.042700	0.345300
H41	H4	0.740400	0.933600	0.415100
H51	H5	0.281700	0.761500	0.010200
H61	H6	0.161900	0.687300	0.071000
H71	H7	0.350500	0.936700	0.069200
H81	H8	0.277800	0.873500	0.154100
H91	H9	0.091500	0.153700	0.255900
H101	H10	0.018800	0.199200	0.320000
H111	H11	0.267100	0.224400	0.345300
H121	H12	0.193200	0.259600	0.415100
H131	H13	0.479800	0.718300	0.010200
H141	H14	0.525400	0.838100	0.071000
H151	H15	0.586200	0.649500	0.069200
H161	H16	0.595700	0.722200	0.154100
H171	H17	0.062200	0.908500	0.255900
H181	H18	0.180400	0.981200	0.320000
H191	H19	0.957300	0.732900	0.345300
H201	H20	0.066400	0.806800	0.415100
H211	H21	0.238500	0.520200	0.010200
H221	H22	0.312700	0.474600	0.071000
H231	H23	0.063300	0.413800	0.069200
H241	H24	0.126500	0.404300	0.154100
H251	H25	0.153700	0.062200	0.755900
H261	H26	0.199200	0.180400	0.820000
H271	H27	0.224400	0.957300	0.845300
H281	H28	0.259600	0.066400	0.915100
H291	H29	0.718300	0.238500	0.510200
H301	H30	0.838100	0.312700	0.571000
H311	H31	0.649500	0.063300	0.569200
H321	H32	0.722200	0.126500	0.654100
H331	H33	0.908500	0.846300	0.755900
H341	H34	0.981200	0.800800	0.820000
H351	H35	0.732900	0.775600	0.845300
H361	H36	0.806800	0.740400	0.915100
H371	H37	0.520200	0.281700	0.510200
H381	H38	0.474600	0.161900	0.571000
H391	H39	0.413800	0.350500	0.569200
H401	H40	0.404300	0.277800	0.654100
H411	H41	0.937800	0.091500	0.755900
H421	H42	0.819600	0.018800	0.820000
H431	H43	0.042700	0.267100	0.845300
H441	H44	0.933600	0.193200	0.915100
H451	H45	0.761500	0.479800	0.510200
H461	H46	0.687300	0.525400	0.571000
H471	H47	0.936700	0.586200	0.569200
H481	H48	0.873500	0.595700	0.654100
C11	C1	0.836700	0.914700	0.315700
C21	C2	0.743900	0.948900	0.354300
C31	C3	0.607000	0.868900	0.317700
C41	C4	0.256400	0.750900	0.069700
C51	C5	0.267300	0.867700	0.092800
C61	C6	0.167100	0.905000	0.072700
C71	C7	0.078000	0.163300	0.315700
C81	C8	0.205000	0.256100	0.354300
C91	C9	0.261900	0.393000	0.317700
C101	C10	0.494500	0.743600	0.069700
C111	C11	0.600400	0.732700	0.092800
C121	C12	0.737900	0.832900	0.072700
C131	C13	0.085300	0.922000	0.315700
C141	C14	0.051100	0.795000	0.354300
C151	C15	0.131100	0.738100	0.317700
C161	C16	0.249100	0.505500	0.069700
C171	C17	0.132300	0.399600	0.092800
C181	C18	0.095000	0.262100	0.072700
C191	C19	0.163300	0.085300	0.815700
C201	C20	0.256100	0.051100	0.854300
C211	C21	0.393000	0.131100	0.817700
C221	C22	0.743600	0.249100	0.569700
C231	C23	0.732700	0.132300	0.592800
C241	C24	0.832900	0.095000	0.572700
C251	C25	0.922000	0.836700	0.815700
C261	C26	0.795000	0.743900	0.854300
C271	C27	0.738100	0.607000	0.817700
C281	C28	0.505500	0.256400	0.569700
C291	C29	0.399600	0.267300	0.592800
C301	C30	0.262100	0.167100	0.572700
C311	C31	0.914700	0.078000	0.815700
C321	C32	0.948900	0.205000	0.854300
C331	C33	0.868900	0.261900	0.817700
C341	C34	0.750900	0.494500	0.569700
C351	C35	0.867700	0.600400	0.592800
C361	C36	0.905000	0.737900	0.572700
O11	O1	0.521500	0.760500	0.347100
O21	O2	0.567400	0.920700	0.254000
O31	O3	0.168000	0.003400	0.105300
O41	O4	0.077500	0.830900	0.019400
O51	O5	0.239000	0.478500	0.347100
O61	O6	0.353300	0.432600	0.254000
O71	O7	0.835400	0.832000	0.105300
O81	O8	0.753400	0.922500	0.019400
O91	O9	0.239500	0.761000	0.347100
O101	O10	0.079300	0.646700	0.254000
O111	O11	0.996600	0.164600	0.105300
O121	O12	0.169100	0.246600	0.019400
O131	O13	0.478500	0.239500	0.847100
O141	O14	0.432600	0.079300	0.754000
O151	O15	0.832000	0.996600	0.605300
O161	O16	0.922500	0.169100	0.519400
O171	O17	0.761000	0.521500	0.847100
O181	O18	0.646700	0.567400	0.754000
O191	O19	0.164600	0.168000	0.605300
O201	O20	0.246600	0.077500	0.519400
O211	O21	0.760500	0.239000	0.847100
O221	O22	0.920700	0.353300	0.754000
O231	O23	0.003400	0.835400	0.605300
O241	O24	0.830900	0.753400	0.519400
H491	H49	0.281000	0.911600	0.704800
H501	H50	0.144500	0.839300	0.651000
H511	H51	0.184800	0.761800	0.712700
H521	H52	0.258700	0.813700	0.630700
N11	N1	0.217300	0.831100	0.674800
H531	H53	0.630600	0.719000	0.704800
H541	H54	0.694800	0.855500	0.651000
H551	H55	0.577000	0.815200	0.712700
H561	H56	0.555000	0.741300	0.630700
N21	N2	0.613800	0.782700	0.674800
H571	H57	0.088400	0.369400	0.704800
H581	H58	0.160700	0.305200	0.651000
H591	H59	0.238200	0.423000	0.712700
H601	H60	0.186300	0.445000	0.630700
N31	N3	0.168900	0.386200	0.674800
H611	H61	0.719000	0.088400	0.204800
H621	H62	0.855500	0.160700	0.151000
H631	H63	0.815200	0.238200	0.212700
H641	H64	0.741300	0.186300	0.130700
N41	N4	0.782700	0.168900	0.174800
H651	H65	0.369400	0.281000	0.204800
H661	H66	0.305200	0.144500	0.151000
H671	H67	0.423000	0.184800	0.212700
H681	H68	0.445000	0.258700	0.130700
N51	N5	0.386200	0.217300	0.174800
H691	H69	0.911600	0.630600	0.204800
H701	H70	0.839300	0.694800	0.151000
H711	H71	0.761800	0.577000	0.212700
H721	H72	0.813700	0.555000	0.130700
N61	N6	0.831100	0.613800	0.174800
