data_XACFAJ_clean_PM
_symmetry_space_group_name_H-M	'P1'
_cell_length_a	11.528000
_cell_length_b	11.528000
_cell_length_c	15.168000
_cell_angle_alpha	90.000000
_cell_angle_beta	90.000000
_cell_angle_gamma	120.000000
_symmetry_Int_Tables_number 1

loop_
_symmetry_equiv_pos_as_xyz
'x,y,z'

loop_
_atom_site_label
_atom_site_type_symbol
_atom_site_fract_x
_atom_site_fract_y
_atom_site_fract_z
C11	C1	0.089500	0.166600	0.179800
H11	H1	0.184900	0.198600	0.181600
H21	H2	0.063100	0.158200	0.118400
C21	C2	0.063100	0.269900	0.223700
H31	H3	0.967200	0.235000	0.227100
H41	H4	0.098200	0.286100	0.283300
C31	C3	0.127600	0.400900	0.173000
O11	O1	0.245700	0.489200	0.195200
O21	O2	0.066400	0.415800	0.112100
C41	C4	0.493100	0.716400	0.929200
H51	H5	0.522400	0.654300	0.947100
H61	H6	0.481100	0.709300	0.865700
C51	C5	0.602200	0.857400	0.951700
H71	H7	0.581200	0.921200	0.924900
H81	H8	0.605400	0.869900	0.015100
C61	C6	0.737500	0.884200	0.919400
O31	O3	0.839600	0.990600	0.948200
O41	O4	0.746400	0.808500	0.865500
C71	C7	0.833400	0.922900	0.179800
H91	H9	0.801400	0.986300	0.181600
H101	H10	0.841800	0.904900	0.118400
C81	C8	0.730100	0.793200	0.223700
H111	H11	0.765000	0.732200	0.227100
H121	H12	0.713900	0.812100	0.283300
C91	C9	0.599100	0.726700	0.173000
O51	O5	0.510800	0.756500	0.195200
O61	O6	0.584200	0.650600	0.112100
C101	C10	0.283600	0.776700	0.929200
H131	H13	0.345700	0.868100	0.947100
H141	H14	0.290700	0.771800	0.865700
C111	C11	0.142600	0.744800	0.951700
H151	H15	0.078800	0.660000	0.924900
H161	H16	0.130100	0.735500	0.015100
C121	C12	0.115800	0.853300	0.919400
O71	O7	0.009400	0.849000	0.948200
O81	O8	0.191500	0.937900	0.865500
C131	C13	0.077100	0.910500	0.179800
H171	H17	0.013700	0.815100	0.181600
H181	H18	0.095100	0.936900	0.118400
C141	C14	0.206800	0.936900	0.223700
H191	H19	0.267800	0.032800	0.227100
H201	H20	0.187900	0.901800	0.283300
C151	C15	0.273300	0.872400	0.173000
O91	O9	0.243500	0.754300	0.195200
O101	O10	0.349400	0.933600	0.112100
C161	C16	0.223300	0.506900	0.929200
H211	H21	0.131900	0.477600	0.947100
H221	H22	0.228200	0.518900	0.865700
C171	C17	0.255200	0.397800	0.951700
H231	H23	0.340000	0.418800	0.924900
H241	H24	0.264500	0.394600	0.015100
C181	C18	0.146700	0.262500	0.919400
O111	O11	0.151000	0.160400	0.948200
O121	O12	0.062100	0.253600	0.865500
C191	C19	0.910500	0.833400	0.679800
H251	H25	0.815100	0.801400	0.681600
H261	H26	0.936900	0.841800	0.618400
C201	C20	0.936900	0.730100	0.723700
H271	H27	0.032800	0.765000	0.727100
H281	H28	0.901800	0.713900	0.783300
C211	C21	0.872400	0.599100	0.673000
O131	O13	0.754300	0.510800	0.695200
O141	O14	0.933600	0.584200	0.612100
C221	C22	0.506900	0.283600	0.429200
H291	H29	0.477600	0.345700	0.447100
H301	H30	0.518900	0.290700	0.365700
C231	C23	0.397800	0.142600	0.451700
H311	H31	0.418800	0.078800	0.424900
H321	H32	0.394600	0.130100	0.515100
C241	C24	0.262500	0.115800	0.419400
O151	O15	0.160400	0.009400	0.448200
O161	O16	0.253600	0.191500	0.365500
C251	C25	0.166600	0.077100	0.679800
H331	H33	0.198600	0.013700	0.681600
H341	H34	0.158200	0.095100	0.618400
C261	C26	0.269900	0.206800	0.723700
H351	H35	0.235000	0.267800	0.727100
H361	H36	0.286100	0.187900	0.783300
C271	C27	0.400900	0.273300	0.673000
O171	O17	0.489200	0.243500	0.695200
O181	O18	0.415800	0.349400	0.612100
C281	C28	0.716400	0.223300	0.429200
H371	H37	0.654300	0.131900	0.447100
H381	H38	0.709300	0.228200	0.365700
C291	C29	0.857400	0.255200	0.451700
H391	H39	0.921200	0.340000	0.424900
H401	H40	0.869900	0.264500	0.515100
C301	C30	0.884200	0.146700	0.419400
O191	O19	0.990600	0.151000	0.448200
O201	O20	0.808500	0.062100	0.365500
C311	C31	0.922900	0.089500	0.679800
H411	H41	0.986300	0.184900	0.681600
H421	H42	0.904900	0.063100	0.618400
C321	C32	0.793200	0.063100	0.723700
H431	H43	0.732200	0.967200	0.727100
H441	H44	0.812100	0.098200	0.783300
C331	C33	0.726700	0.127600	0.673000
O211	O21	0.756500	0.245700	0.695200
O221	O22	0.650600	0.066400	0.612100
C341	C34	0.776700	0.493100	0.429200
H451	H45	0.868100	0.522400	0.447100
H461	H46	0.771800	0.481100	0.365700
C351	C35	0.744800	0.602200	0.451700
H471	H47	0.660000	0.581200	0.424900
H481	H48	0.735500	0.605400	0.515100
C361	C36	0.853300	0.737500	0.419400
O231	O23	0.849000	0.839600	0.448200
O241	O24	0.937900	0.746400	0.365500
Zn11	Zn1	0.333330	0.666670	0.135920
P11	P1	0.333330	0.666670	0.980520
Zn21	Zn2	0.666670	0.333330	0.635920
P21	P2	0.666670	0.333330	0.480520
P31	P3	0.000000	0.000000	0.231640
Zn31	Zn3	0.000000	0.000000	0.388900
P41	P4	0.000000	0.000000	0.731640
Zn41	Zn4	0.000000	0.000000	0.888900
