data_XACSIG_clean_PM
_symmetry_space_group_name_H-M	'P1'
_cell_length_a	15.338000
_cell_length_b	22.100000
_cell_length_c	16.425000
_cell_angle_alpha	90.000000
_cell_angle_beta	102.640000
_cell_angle_gamma	90.000000
_symmetry_Int_Tables_number 1

loop_
_symmetry_equiv_pos_as_xyz
'x,y,z'

loop_
_atom_site_label
_atom_site_type_symbol
_atom_site_fract_x
_atom_site_fract_y
_atom_site_fract_z
Mn11	Mn1	0.454570	0.491780	0.635910
O11	O1	0.370500	0.558130	0.670000
O21	O2	0.233500	0.538700	0.602300
O31	O3	0.624270	0.574870	0.318380
O41	O4	0.575840	0.551110	0.184230
O51	O5	0.009710	0.936540	0.080830
O61	O6	0.079650	0.940960	0.976540
O71	O7	0.096800	0.717390	0.897860
O81	O8	0.926750	0.717200	0.100700
C11	C1	0.166800	0.632400	0.681600
H11	H1	0.130700	0.615200	0.634500
C21	C2	0.131500	0.675500	0.725200
H21	H2	0.072500	0.687900	0.707000
C31	C3	0.184800	0.700530	0.797250
C41	C4	0.272200	0.682460	0.822800
H31	H3	0.307800	0.699100	0.870700
C51	C5	0.307700	0.639160	0.777300
H41	H4	0.367000	0.627100	0.794800
C61	C6	0.254600	0.614200	0.706000
C71	C7	0.736400	0.688130	0.119200
H51	H5	0.725300	0.704700	0.065900
C81	C8	0.675500	0.647500	0.139900
H61	H6	0.624500	0.636800	0.100500
C91	C9	0.690910	0.623160	0.219090
C101	C10	0.766700	0.639360	0.276080
H71	H7	0.777300	0.623400	0.329700
C111	C11	0.827800	0.679360	0.254700
H81	H8	0.879400	0.689500	0.293700
C121	C12	0.812300	0.704180	0.175700
C131	C13	0.013900	0.720920	0.001000
H91	H9	0.008700	0.679100	0.996700
C141	C14	0.974600	0.752310	0.057110
C151	C15	0.984150	0.814540	0.065720
H101	H10	0.959100	0.835300	0.104200
C161	C16	0.031730	0.845330	0.015910
C171	C17	0.070170	0.815080	0.957960
H111	H11	0.101300	0.836300	0.924400
C181	C18	0.061000	0.752600	0.951460
C191	C19	0.291300	0.566500	0.656200
C201	C20	0.624200	0.579620	0.242000
C211	C21	0.039760	0.912960	0.024800
C221	C22	0.147100	0.748030	0.846000
H121	H12	0.195200	0.771300	0.880100
H131	H13	0.108700	0.775500	0.808100
C231	C23	0.876500	0.748960	0.151600
H141	H14	0.844000	0.782400	0.120700
H151	H15	0.916300	0.765000	0.201100
Mn21	Mn2	0.954570	0.991780	0.635910
O91	O9	0.870500	0.058130	0.670000
O101	O10	0.733500	0.038700	0.602300
O111	O11	0.124270	0.074870	0.318380
O121	O12	0.075840	0.051110	0.184230
O131	O13	0.509710	0.436540	0.080830
O141	O14	0.579650	0.440960	0.976540
O151	O15	0.596800	0.217390	0.897860
O161	O16	0.426750	0.217200	0.100700
C241	C24	0.666800	0.132400	0.681600
H161	H16	0.630700	0.115200	0.634500
C251	C25	0.631500	0.175500	0.725200
H171	H17	0.572500	0.187900	0.707000
C261	C26	0.684800	0.200530	0.797250
C271	C27	0.772200	0.182460	0.822800
H181	H18	0.807800	0.199100	0.870700
C281	C28	0.807700	0.139160	0.777300
H191	H19	0.867000	0.127100	0.794800
C291	C29	0.754600	0.114200	0.706000
C301	C30	0.236400	0.188130	0.119200
H201	H20	0.225300	0.204700	0.065900
C311	C31	0.175500	0.147500	0.139900
H211	H21	0.124500	0.136800	0.100500
C321	C32	0.190910	0.123160	0.219090
C331	C33	0.266700	0.139360	0.276080
H221	H22	0.277300	0.123400	0.329700
C341	C34	0.327800	0.179360	0.254700
H231	H23	0.379400	0.189500	0.293700
C351	C35	0.312300	0.204180	0.175700
C361	C36	0.513900	0.220920	0.001000
H241	H24	0.508700	0.179100	0.996700
C371	C37	0.474600	0.252310	0.057110
C381	C38	0.484150	0.314540	0.065720
H251	H25	0.459100	0.335300	0.104200
C391	C39	0.531730	0.345330	0.015910
C401	C40	0.570170	0.315080	0.957960
H261	H26	0.601300	0.336300	0.924400
C411	C41	0.561000	0.252600	0.951460
C421	C42	0.791300	0.066500	0.656200
C431	C43	0.124200	0.079620	0.242000
C441	C44	0.539760	0.412960	0.024800
C451	C45	0.647100	0.248030	0.846000
H271	H27	0.695200	0.271300	0.880100
H281	H28	0.608700	0.275500	0.808100
C461	C46	0.376500	0.248960	0.151600
H291	H29	0.344000	0.282400	0.120700
H301	H30	0.416300	0.265000	0.201100
Mn31	Mn3	0.545430	0.491780	0.864090
O171	O17	0.629500	0.558130	0.830000
O181	O18	0.766500	0.538700	0.897700
O191	O19	0.375730	0.574870	0.181620
O201	O20	0.424160	0.551110	0.315770
O211	O21	0.990290	0.936540	0.419170
O221	O22	0.920350	0.940960	0.523460
O231	O23	0.903200	0.717390	0.602140
O241	O24	0.073250	0.717200	0.399300
C471	C47	0.833200	0.632400	0.818400
H311	H31	0.869300	0.615200	0.865500
C481	C48	0.868500	0.675500	0.774800
H321	H32	0.927500	0.687900	0.793000
C491	C49	0.815200	0.700530	0.702750
C501	C50	0.727800	0.682460	0.677200
H331	H33	0.692200	0.699100	0.629300
C511	C51	0.692300	0.639160	0.722700
H341	H34	0.633000	0.627100	0.705200
C521	C52	0.745400	0.614200	0.794000
C531	C53	0.263600	0.688130	0.380800
H351	H35	0.274700	0.704700	0.434100
C541	C54	0.324500	0.647500	0.360100
H361	H36	0.375500	0.636800	0.399500
C551	C55	0.309090	0.623160	0.280910
C561	C56	0.233300	0.639360	0.223920
H371	H37	0.222700	0.623400	0.170300
C571	C57	0.172200	0.679360	0.245300
H381	H38	0.120600	0.689500	0.206300
C581	C58	0.187700	0.704180	0.324300
C591	C59	0.986100	0.720920	0.499000
H391	H39	0.991300	0.679100	0.503300
C601	C60	0.025400	0.752310	0.442890
C611	C61	0.015850	0.814540	0.434280
H401	H40	0.040900	0.835300	0.395800
C621	C62	0.968270	0.845330	0.484090
C631	C63	0.929830	0.815080	0.542040
H411	H41	0.898700	0.836300	0.575600
C641	C64	0.939000	0.752600	0.548540
C651	C65	0.708700	0.566500	0.843800
C661	C66	0.375800	0.579620	0.258000
C671	C67	0.960240	0.912960	0.475200
C681	C68	0.852900	0.748030	0.654000
H421	H42	0.804800	0.771300	0.619900
H431	H43	0.891300	0.775500	0.691900
C691	C69	0.123500	0.748960	0.348400
H441	H44	0.156000	0.782400	0.379300
H451	H45	0.083700	0.765000	0.298900
Mn41	Mn4	0.045430	0.991780	0.864090
O251	O25	0.129500	0.058130	0.830000
O261	O26	0.266500	0.038700	0.897700
O271	O27	0.875730	0.074870	0.181620
O281	O28	0.924160	0.051110	0.315770
O291	O29	0.490290	0.436540	0.419170
O301	O30	0.420350	0.440960	0.523460
O311	O31	0.403200	0.217390	0.602140
O321	O32	0.573250	0.217200	0.399300
C701	C70	0.333200	0.132400	0.818400
H461	H46	0.369300	0.115200	0.865500
C711	C71	0.368500	0.175500	0.774800
H471	H47	0.427500	0.187900	0.793000
C721	C72	0.315200	0.200530	0.702750
C731	C73	0.227800	0.182460	0.677200
H481	H48	0.192200	0.199100	0.629300
C741	C74	0.192300	0.139160	0.722700
H491	H49	0.133000	0.127100	0.705200
C751	C75	0.245400	0.114200	0.794000
C761	C76	0.763600	0.188130	0.380800
H501	H50	0.774700	0.204700	0.434100
C771	C77	0.824500	0.147500	0.360100
H511	H51	0.875500	0.136800	0.399500
C781	C78	0.809090	0.123160	0.280910
C791	C79	0.733300	0.139360	0.223920
H521	H52	0.722700	0.123400	0.170300
C801	C80	0.672200	0.179360	0.245300
H531	H53	0.620600	0.189500	0.206300
C811	C81	0.687700	0.204180	0.324300
C821	C82	0.486100	0.220920	0.499000
H541	H54	0.491300	0.179100	0.503300
C831	C83	0.525400	0.252310	0.442890
C841	C84	0.515850	0.314540	0.434280
H551	H55	0.540900	0.335300	0.395800
C851	C85	0.468270	0.345330	0.484090
C861	C86	0.429830	0.315080	0.542040
H561	H56	0.398700	0.336300	0.575600
C871	C87	0.439000	0.252600	0.548540
C881	C88	0.208700	0.066500	0.843800
C891	C89	0.875800	0.079620	0.258000
C901	C90	0.460240	0.412960	0.475200
C911	C91	0.352900	0.248030	0.654000
H571	H57	0.304800	0.271300	0.619900
H581	H58	0.391300	0.275500	0.691900
C921	C92	0.623500	0.248960	0.348400
H591	H59	0.656000	0.282400	0.379300
H601	H60	0.583700	0.265000	0.298900
Mn51	Mn5	0.545430	0.508220	0.364090
O331	O33	0.629500	0.441870	0.330000
O341	O34	0.766500	0.461300	0.397700
O351	O35	0.375730	0.425130	0.681620
O361	O36	0.424160	0.448890	0.815770
O371	O37	0.990290	0.063460	0.919170
O381	O38	0.920350	0.059040	0.023460
O391	O39	0.903200	0.282610	0.102140
O401	O40	0.073250	0.282800	0.899300
C931	C93	0.833200	0.367600	0.318400
H611	H61	0.869300	0.384800	0.365500
C941	C94	0.868500	0.324500	0.274800
H621	H62	0.927500	0.312100	0.293000
C951	C95	0.815200	0.299470	0.202750
C961	C96	0.727800	0.317540	0.177200
H631	H63	0.692200	0.300900	0.129300
C971	C97	0.692300	0.360840	0.222700
H641	H64	0.633000	0.372900	0.205200
C981	C98	0.745400	0.385800	0.294000
C991	C99	0.263600	0.311870	0.880800
H651	H65	0.274700	0.295300	0.934100
C1001	C100	0.324500	0.352500	0.860100
H661	H66	0.375500	0.363200	0.899500
C1011	C101	0.309090	0.376840	0.780910
C1021	C102	0.233300	0.360640	0.723920
H671	H67	0.222700	0.376600	0.670300
C1031	C103	0.172200	0.320640	0.745300
H681	H68	0.120600	0.310500	0.706300
C1041	C104	0.187700	0.295820	0.824300
C1051	C105	0.986100	0.279080	0.999000
H691	H69	0.991300	0.320900	0.003300
C1061	C106	0.025400	0.247690	0.942890
C1071	C107	0.015850	0.185460	0.934280
H701	H70	0.040900	0.164700	0.895800
C1081	C108	0.968270	0.154670	0.984090
C1091	C109	0.929830	0.184920	0.042040
H711	H71	0.898700	0.163700	0.075600
C1101	C110	0.939000	0.247400	0.048540
C1111	C111	0.708700	0.433500	0.343800
C1121	C112	0.375800	0.420380	0.758000
C1131	C113	0.960240	0.087040	0.975200
C1141	C114	0.852900	0.251970	0.154000
H721	H72	0.804800	0.228700	0.119900
H731	H73	0.891300	0.224500	0.191900
C1151	C115	0.123500	0.251040	0.848400
H741	H74	0.156000	0.217600	0.879300
H751	H75	0.083700	0.235000	0.798900
Mn61	Mn6	0.045430	0.008220	0.364090
O411	O41	0.129500	0.941870	0.330000
O421	O42	0.266500	0.961300	0.397700
O431	O43	0.875730	0.925130	0.681620
O441	O44	0.924160	0.948890	0.815770
O451	O45	0.490290	0.563460	0.919170
O461	O46	0.420350	0.559040	0.023460
O471	O47	0.403200	0.782610	0.102140
O481	O48	0.573250	0.782800	0.899300
C1161	C116	0.333200	0.867600	0.318400
H761	H76	0.369300	0.884800	0.365500
C1171	C117	0.368500	0.824500	0.274800
H771	H77	0.427500	0.812100	0.293000
C1181	C118	0.315200	0.799470	0.202750
C1191	C119	0.227800	0.817540	0.177200
H781	H78	0.192200	0.800900	0.129300
C1201	C120	0.192300	0.860840	0.222700
H791	H79	0.133000	0.872900	0.205200
C1211	C121	0.245400	0.885800	0.294000
C1221	C122	0.763600	0.811870	0.880800
H801	H80	0.774700	0.795300	0.934100
C1231	C123	0.824500	0.852500	0.860100
H811	H81	0.875500	0.863200	0.899500
C1241	C124	0.809090	0.876840	0.780910
C1251	C125	0.733300	0.860640	0.723920
H821	H82	0.722700	0.876600	0.670300
C1261	C126	0.672200	0.820640	0.745300
H831	H83	0.620600	0.810500	0.706300
C1271	C127	0.687700	0.795820	0.824300
C1281	C128	0.486100	0.779080	0.999000
H841	H84	0.491300	0.820900	0.003300
C1291	C129	0.525400	0.747690	0.942890
C1301	C130	0.515850	0.685460	0.934280
H851	H85	0.540900	0.664700	0.895800
C1311	C131	0.468270	0.654670	0.984090
C1321	C132	0.429830	0.684920	0.042040
H861	H86	0.398700	0.663700	0.075600
C1331	C133	0.439000	0.747400	0.048540
C1341	C134	0.208700	0.933500	0.343800
C1351	C135	0.875800	0.920380	0.758000
C1361	C136	0.460240	0.587040	0.975200
C1371	C137	0.352900	0.751970	0.154000
H871	H87	0.304800	0.728700	0.119900
H881	H88	0.391300	0.724500	0.191900
C1381	C138	0.623500	0.751040	0.848400
H891	H89	0.656000	0.717600	0.879300
H901	H90	0.583700	0.735000	0.798900
Mn71	Mn7	0.454570	0.508220	0.135910
O491	O49	0.370500	0.441870	0.170000
O501	O50	0.233500	0.461300	0.102300
O511	O51	0.624270	0.425130	0.818380
O521	O52	0.575840	0.448890	0.684230
O531	O53	0.009710	0.063460	0.580830
O541	O54	0.079650	0.059040	0.476540
O551	O55	0.096800	0.282610	0.397860
O561	O56	0.926750	0.282800	0.600700
C1391	C139	0.166800	0.367600	0.181600
H911	H91	0.130700	0.384800	0.134500
C1401	C140	0.131500	0.324500	0.225200
H921	H92	0.072500	0.312100	0.207000
C1411	C141	0.184800	0.299470	0.297250
C1421	C142	0.272200	0.317540	0.322800
H931	H93	0.307800	0.300900	0.370700
C1431	C143	0.307700	0.360840	0.277300
H941	H94	0.367000	0.372900	0.294800
C1441	C144	0.254600	0.385800	0.206000
C1451	C145	0.736400	0.311870	0.619200
H951	H95	0.725300	0.295300	0.565900
C1461	C146	0.675500	0.352500	0.639900
H961	H96	0.624500	0.363200	0.600500
C1471	C147	0.690910	0.376840	0.719090
C1481	C148	0.766700	0.360640	0.776080
H971	H97	0.777300	0.376600	0.829700
C1491	C149	0.827800	0.320640	0.754700
H981	H98	0.879400	0.310500	0.793700
C1501	C150	0.812300	0.295820	0.675700
C1511	C151	0.013900	0.279080	0.501000
H991	H99	0.008700	0.320900	0.496700
C1521	C152	0.974600	0.247690	0.557110
C1531	C153	0.984150	0.185460	0.565720
H1001	H100	0.959100	0.164700	0.604200
C1541	C154	0.031730	0.154670	0.515910
C1551	C155	0.070170	0.184920	0.457960
H1011	H101	0.101300	0.163700	0.424400
C1561	C156	0.061000	0.247400	0.451460
C1571	C157	0.291300	0.433500	0.156200
C1581	C158	0.624200	0.420380	0.742000
C1591	C159	0.039760	0.087040	0.524800
C1601	C160	0.147100	0.251970	0.346000
H1021	H102	0.195200	0.228700	0.380100
H1031	H103	0.108700	0.224500	0.308100
C1611	C161	0.876500	0.251040	0.651600
H1041	H104	0.844000	0.217600	0.620700
H1051	H105	0.916300	0.235000	0.701100
Mn81	Mn8	0.954570	0.008220	0.135910
O571	O57	0.870500	0.941870	0.170000
O581	O58	0.733500	0.961300	0.102300
O591	O59	0.124270	0.925130	0.818380
O601	O60	0.075840	0.948890	0.684230
O611	O61	0.509710	0.563460	0.580830
O621	O62	0.579650	0.559040	0.476540
O631	O63	0.596800	0.782610	0.397860
O641	O64	0.426750	0.782800	0.600700
C1621	C162	0.666800	0.867600	0.181600
H1061	H106	0.630700	0.884800	0.134500
C1631	C163	0.631500	0.824500	0.225200
H1071	H107	0.572500	0.812100	0.207000
C1641	C164	0.684800	0.799470	0.297250
C1651	C165	0.772200	0.817540	0.322800
H1081	H108	0.807800	0.800900	0.370700
C1661	C166	0.807700	0.860840	0.277300
H1091	H109	0.867000	0.872900	0.294800
C1671	C167	0.754600	0.885800	0.206000
C1681	C168	0.236400	0.811870	0.619200
H1101	H110	0.225300	0.795300	0.565900
C1691	C169	0.175500	0.852500	0.639900
H1111	H111	0.124500	0.863200	0.600500
C1701	C170	0.190910	0.876840	0.719090
C1711	C171	0.266700	0.860640	0.776080
H1121	H112	0.277300	0.876600	0.829700
C1721	C172	0.327800	0.820640	0.754700
H1131	H113	0.379400	0.810500	0.793700
C1731	C173	0.312300	0.795820	0.675700
C1741	C174	0.513900	0.779080	0.501000
H1141	H114	0.508700	0.820900	0.496700
C1751	C175	0.474600	0.747690	0.557110
C1761	C176	0.484150	0.685460	0.565720
H1151	H115	0.459100	0.664700	0.604200
C1771	C177	0.531730	0.654670	0.515910
C1781	C178	0.570170	0.684920	0.457960
H1161	H116	0.601300	0.663700	0.424400
C1791	C179	0.561000	0.747400	0.451460
C1801	C180	0.791300	0.933500	0.156200
C1811	C181	0.124200	0.920380	0.742000
C1821	C182	0.539760	0.587040	0.524800
C1831	C183	0.647100	0.751970	0.346000
H1171	H117	0.695200	0.728700	0.380100
H1181	H118	0.608700	0.724500	0.308100
C1841	C184	0.376500	0.751040	0.651600
H1191	H119	0.344000	0.717600	0.620700
H1201	H120	0.416300	0.735000	0.701100
