data_XADDOX_clean_PM
_symmetry_space_group_name_H-M	'P1'
_cell_length_a	10.896900
_cell_length_b	21.024000
_cell_length_c	28.741000
_cell_angle_alpha	90.000000
_cell_angle_beta	90.000000
_cell_angle_gamma	90.000000
_symmetry_Int_Tables_number 1

loop_
_symmetry_equiv_pos_as_xyz
'x,y,z'

loop_
_atom_site_label
_atom_site_type_symbol
_atom_site_fract_x
_atom_site_fract_y
_atom_site_fract_z
Co11	Co1	0.848110	0.534970	0.296300
Co21	Co2	0.289640	0.956670	0.293180
Co31	Co3	0.568440	0.543500	0.119560
Co41	Co4	0.978180	0.456710	0.386250
Co51	Co5	0.848930	0.582640	0.162010
Co61	Co6	0.704280	0.395570	0.336140
Co71	Co7	0.848110	0.465030	0.703700
Co81	Co8	0.289640	0.043330	0.706820
Co91	Co9	0.568440	0.456500	0.880440
Co101	Co10	0.978180	0.543290	0.613750
Co111	Co11	0.848930	0.417360	0.837990
Co121	Co12	0.704280	0.604430	0.663860
Co131	Co13	0.151890	0.965030	0.796300
Co141	Co14	0.710360	0.543330	0.793180
Co151	Co15	0.431560	0.956500	0.619560
Co161	Co16	0.021820	0.043290	0.886250
Co171	Co17	0.151070	0.917360	0.662010
Co181	Co18	0.295720	0.104430	0.836140
Co191	Co19	0.151890	0.034970	0.203700
Co201	Co20	0.710360	0.456670	0.206820
Co211	Co21	0.431560	0.043500	0.380440
Co221	Co22	0.021820	0.956710	0.113750
Co231	Co23	0.151070	0.082640	0.337990
Co241	Co24	0.295720	0.895570	0.163860
H11	H1	0.909100	0.423400	0.307800
H21	H2	0.349200	0.074400	0.301100
H31	H3	0.595700	0.634300	0.393700
H41	H4	0.479600	0.670500	0.456600
H51	H5	0.554100	0.659000	0.531700
H61	H6	0.845200	0.566800	0.483000
H71	H7	0.916300	0.677300	0.327800
H81	H8	0.038200	0.747000	0.367000
H91	H9	0.177900	0.812800	0.328500
H101	H10	0.053100	0.742500	0.206700
H111	H11	0.182800	0.634600	0.267200
H121	H12	0.369500	0.670100	0.241800
H131	H13	0.545700	0.610900	0.254600
H141	H14	0.346900	0.484000	0.325300
H151	H15	0.025100	0.385500	0.259700
H161	H16	0.201000	0.328900	0.273600
H171	H17	0.386000	0.363100	0.245500
H181	H18	0.213300	0.503400	0.176300
H191	H19	0.048600	0.870400	0.396100
H201	H20	0.925700	0.845300	0.456500
H211	H21	0.999700	0.849000	0.532600
H221	H22	0.304400	0.933000	0.483400
H231	H23	0.909100	0.576600	0.692200
H241	H24	0.349200	0.925600	0.698900
H251	H25	0.595700	0.365700	0.606300
H261	H26	0.479600	0.329500	0.543400
H271	H27	0.554100	0.341000	0.468300
H281	H28	0.845200	0.433200	0.517000
H291	H29	0.916300	0.322700	0.672200
H301	H30	0.038200	0.253000	0.633000
H311	H31	0.177900	0.187200	0.671500
H321	H32	0.053100	0.257500	0.793300
H331	H33	0.182800	0.365400	0.732800
H341	H34	0.369500	0.329900	0.758200
H351	H35	0.545700	0.389100	0.745400
H361	H36	0.346900	0.516000	0.674700
H371	H37	0.025100	0.614500	0.740300
H381	H38	0.201000	0.671100	0.726400
H391	H39	0.386000	0.636900	0.754500
H401	H40	0.213300	0.496600	0.823700
H411	H41	0.048600	0.129600	0.603900
H421	H42	0.925700	0.154700	0.543500
H431	H43	0.999700	0.151000	0.467400
H441	H44	0.304400	0.067000	0.516600
H451	H45	0.090900	0.076600	0.807800
H461	H46	0.650800	0.425600	0.801100
H471	H47	0.404300	0.865700	0.893700
H481	H48	0.520400	0.829500	0.956600
H491	H49	0.445900	0.841000	0.031700
H501	H50	0.154800	0.933200	0.983000
H511	H51	0.083700	0.822700	0.827800
H521	H52	0.961800	0.753000	0.867000
H531	H53	0.822100	0.687200	0.828500
H541	H54	0.946900	0.757500	0.706700
H551	H55	0.817200	0.865400	0.767200
H561	H56	0.630500	0.829900	0.741800
H571	H57	0.454300	0.889100	0.754600
H581	H58	0.653100	0.016000	0.825300
H591	H59	0.974900	0.114500	0.759700
H601	H60	0.799000	0.171100	0.773600
H611	H61	0.614000	0.136900	0.745500
H621	H62	0.786700	0.996600	0.676300
H631	H63	0.951400	0.629600	0.896100
H641	H64	0.074300	0.654700	0.956500
H651	H65	0.000300	0.651000	0.032600
H661	H66	0.695600	0.567000	0.983400
H671	H67	0.090900	0.923400	0.192200
H681	H68	0.650800	0.574400	0.198900
H691	H69	0.404300	0.134300	0.106300
H701	H70	0.520400	0.170500	0.043400
H711	H71	0.445900	0.159000	0.968300
H721	H72	0.154800	0.066800	0.017000
H731	H73	0.083700	0.177300	0.172200
H741	H74	0.961800	0.247000	0.133000
H751	H75	0.822100	0.312800	0.171500
H761	H76	0.946900	0.242500	0.293300
H771	H77	0.817200	0.134600	0.232800
H781	H78	0.630500	0.170100	0.258200
H791	H79	0.454300	0.110900	0.245400
H801	H80	0.653100	0.984000	0.174700
H811	H81	0.974900	0.885500	0.240300
H821	H82	0.799000	0.828900	0.226400
H831	H83	0.614000	0.863100	0.254500
H841	H84	0.786700	0.003400	0.323700
H851	H85	0.951400	0.370400	0.103900
H861	H86	0.074300	0.345300	0.043500
H871	H87	0.000300	0.349000	0.967400
H881	H88	0.695600	0.433000	0.016600
C11	C1	0.808900	0.571600	0.393500
C21	C2	0.736500	0.598300	0.432200
C31	C3	0.624000	0.628800	0.423900
C41	C4	0.554800	0.650800	0.461600
C51	C5	0.598800	0.642900	0.506700
C61	C6	0.706200	0.612200	0.514800
C71	C7	0.773100	0.589200	0.477300
C81	C8	0.753000	0.602100	0.562900
C91	C9	0.893500	0.656300	0.236000
C101	C10	0.973100	0.703400	0.262600
C111	C11	0.968800	0.704300	0.311700
C121	C12	0.042900	0.745300	0.334700
C131	C13	0.127000	0.785700	0.311800
C141	C14	0.131400	0.783600	0.263400
C151	C15	0.052100	0.742800	0.239100
C161	C16	0.212000	0.827500	0.236500
C171	C17	0.124400	0.533200	0.317200
C181	C18	0.245700	0.555600	0.300000
C191	C19	0.253400	0.611500	0.273900
C201	C20	0.364500	0.632000	0.258100
C211	C21	0.470600	0.596700	0.266000
C221	C22	0.464200	0.541900	0.290300
C231	C23	0.350800	0.521300	0.308010
C241	C24	0.575200	0.501200	0.296500
C251	C25	0.987900	0.487000	0.206800
C261	C26	0.100200	0.449700	0.216400
C271	C27	0.098400	0.398100	0.245900
C281	C28	0.204300	0.365100	0.255000
C291	C29	0.314100	0.384300	0.237400
C301	C30	0.317900	0.436300	0.206900
C311	C31	0.211200	0.468800	0.196500
C321	C32	0.438000	0.458200	0.187300
C331	C33	0.261500	0.931500	0.393800
C341	C34	0.184000	0.907700	0.433600
C351	C35	0.074800	0.878400	0.426400
C361	C36	0.004200	0.860800	0.462200
C371	C37	0.045800	0.865200	0.508100
C381	C38	0.158600	0.894500	0.515900
C391	C39	0.227800	0.914600	0.478400
C401	C40	0.205000	0.904900	0.565300
C411	C41	0.808900	0.428400	0.606500
C421	C42	0.736500	0.401700	0.567800
C431	C43	0.624000	0.371200	0.576100
C441	C44	0.554800	0.349200	0.538400
C451	C45	0.598800	0.357100	0.493300
C461	C46	0.706200	0.387800	0.485200
C471	C47	0.773100	0.410800	0.522700
C481	C48	0.753000	0.397900	0.437100
C491	C49	0.893500	0.343700	0.764000
C501	C50	0.973100	0.296600	0.737400
C511	C51	0.968800	0.295700	0.688300
C521	C52	0.042900	0.254700	0.665300
C531	C53	0.127000	0.214300	0.688200
C541	C54	0.131400	0.216400	0.736600
C551	C55	0.052100	0.257200	0.760900
C561	C56	0.212000	0.172500	0.763500
C571	C57	0.124400	0.466800	0.682800
C581	C58	0.245700	0.444400	0.700000
C591	C59	0.253400	0.388500	0.726100
C601	C60	0.364500	0.368000	0.741900
C611	C61	0.470600	0.403300	0.734000
C621	C62	0.464200	0.458100	0.709700
C631	C63	0.350800	0.478700	0.691990
C641	C64	0.575200	0.498800	0.703500
C651	C65	0.987900	0.513000	0.793200
C661	C66	0.100200	0.550300	0.783600
C671	C67	0.098400	0.601900	0.754100
C681	C68	0.204300	0.634900	0.745000
C691	C69	0.314100	0.615700	0.762600
C701	C70	0.317900	0.563700	0.793100
C711	C71	0.211200	0.531200	0.803500
C721	C72	0.438000	0.541800	0.812700
C731	C73	0.261500	0.068500	0.606200
C741	C74	0.184000	0.092300	0.566400
C751	C75	0.074800	0.121600	0.573600
C761	C76	0.004200	0.139200	0.537800
C771	C77	0.045800	0.134800	0.491900
C781	C78	0.158600	0.105500	0.484100
C791	C79	0.227800	0.085400	0.521600
C801	C80	0.205000	0.095100	0.434700
C811	C81	0.191100	0.928400	0.893500
C821	C82	0.263500	0.901700	0.932200
C831	C83	0.376000	0.871200	0.923900
C841	C84	0.445200	0.849200	0.961600
C851	C85	0.401200	0.857100	0.006700
C861	C86	0.293800	0.887800	0.014800
C871	C87	0.226900	0.910800	0.977300
C881	C88	0.247000	0.897900	0.062900
C891	C89	0.106500	0.843700	0.736000
C901	C90	0.026900	0.796600	0.762600
C911	C91	0.031200	0.795700	0.811700
C921	C92	0.957100	0.754700	0.834700
C931	C93	0.873000	0.714300	0.811800
C941	C94	0.868600	0.716400	0.763400
C951	C95	0.947900	0.757200	0.739100
C961	C96	0.788000	0.672500	0.736500
C971	C97	0.875600	0.966800	0.817200
C981	C98	0.754300	0.944400	0.800000
C991	C99	0.746600	0.888500	0.773900
C1001	C100	0.635500	0.868000	0.758100
C1011	C101	0.529400	0.903300	0.766000
C1021	C102	0.535800	0.958100	0.790300
C1031	C103	0.649200	0.978700	0.808010
C1041	C104	0.424800	0.998800	0.796500
C1051	C105	0.012100	0.013000	0.706800
C1061	C106	0.899800	0.050300	0.716400
C1071	C107	0.901600	0.101900	0.745900
C1081	C108	0.795700	0.134900	0.755000
C1091	C109	0.685900	0.115700	0.737400
C1101	C110	0.682100	0.063700	0.706900
C1111	C111	0.788800	0.031200	0.696500
C1121	C112	0.562000	0.041800	0.687300
C1131	C113	0.738500	0.568500	0.893800
C1141	C114	0.816000	0.592300	0.933600
C1151	C115	0.925200	0.621600	0.926400
C1161	C116	0.995800	0.639200	0.962200
C1171	C117	0.954200	0.634800	0.008100
C1181	C118	0.841400	0.605500	0.015900
C1191	C119	0.772200	0.585400	0.978400
C1201	C120	0.795000	0.595100	0.065300
C1211	C121	0.191100	0.071600	0.106500
C1221	C122	0.263500	0.098300	0.067800
C1231	C123	0.376000	0.128800	0.076100
C1241	C124	0.445200	0.150800	0.038400
C1251	C125	0.401200	0.142900	0.993300
C1261	C126	0.293800	0.112200	0.985200
C1271	C127	0.226900	0.089200	0.022700
C1281	C128	0.247000	0.102100	0.937100
C1291	C129	0.106500	0.156300	0.264000
C1301	C130	0.026900	0.203400	0.237400
C1311	C131	0.031200	0.204300	0.188300
C1321	C132	0.957100	0.245300	0.165300
C1331	C133	0.873000	0.285700	0.188200
C1341	C134	0.868600	0.283600	0.236600
C1351	C135	0.947900	0.242800	0.260900
C1361	C136	0.788000	0.327500	0.263500
C1371	C137	0.875600	0.033200	0.182800
C1381	C138	0.754300	0.055600	0.200000
C1391	C139	0.746600	0.111500	0.226100
C1401	C140	0.635500	0.132000	0.241900
C1411	C141	0.529400	0.096700	0.234000
C1421	C142	0.535800	0.041900	0.209700
C1431	C143	0.649200	0.021300	0.191990
C1441	C144	0.424800	0.001200	0.203500
C1451	C145	0.012100	0.987000	0.293200
C1461	C146	0.899800	0.949700	0.283600
C1471	C147	0.901600	0.898100	0.254100
C1481	C148	0.795700	0.865100	0.245000
C1491	C149	0.685900	0.884300	0.262600
C1501	C150	0.682100	0.936300	0.293100
C1511	C151	0.788800	0.968800	0.303500
C1521	C152	0.562000	0.958200	0.312700
C1531	C153	0.738500	0.431500	0.106200
C1541	C154	0.816000	0.407700	0.066400
C1551	C155	0.925200	0.378400	0.073600
C1561	C156	0.995800	0.360800	0.037800
C1571	C157	0.954200	0.365200	0.991900
C1581	C158	0.841400	0.394500	0.984100
C1591	C159	0.772200	0.414600	0.021600
C1601	C160	0.795000	0.404900	0.934700
O11	O1	0.860400	0.448600	0.329740
O21	O2	0.311400	0.046700	0.324500
O31	O3	0.909400	0.545100	0.402500
O41	O4	0.767400	0.577100	0.352240
O51	O5	0.858500	0.585200	0.567680
O61	O6	0.681900	0.613400	0.595120
O71	O7	0.831000	0.617400	0.255620
O81	O8	0.897900	0.661400	0.191950
O91	O9	0.217800	0.819700	0.192670
O101	O10	0.270100	0.870300	0.255500
O111	O11	0.124900	0.492700	0.350370
O121	O12	0.030700	0.556200	0.298220
O131	O13	0.666900	0.511200	0.271110
O141	O14	0.571500	0.459100	0.327240
O151	O15	0.891700	0.476800	0.231320
O161	O16	0.989700	0.527100	0.174640
O171	O17	0.533000	0.431600	0.201780
O181	O18	0.432500	0.504000	0.158800
O191	O19	0.217100	0.925200	0.353640
O201	O20	0.361000	0.958100	0.403000
O211	O21	0.123300	0.905000	0.595820
O221	O22	0.315800	0.911700	0.571900
O231	O23	0.860400	0.551400	0.670260
O241	O24	0.311400	0.953300	0.675500
O251	O25	0.909400	0.454900	0.597500
O261	O26	0.767400	0.422900	0.647760
O271	O27	0.858500	0.414800	0.432320
O281	O28	0.681900	0.386600	0.404880
O291	O29	0.831000	0.382600	0.744380
O301	O30	0.897900	0.338600	0.808050
O311	O31	0.217800	0.180300	0.807330
O321	O32	0.270100	0.129700	0.744500
O331	O33	0.124900	0.507300	0.649630
O341	O34	0.030700	0.443800	0.701780
O351	O35	0.666900	0.488800	0.728890
O361	O36	0.571500	0.540900	0.672760
O371	O37	0.891700	0.523200	0.768680
O381	O38	0.989700	0.472900	0.825360
O391	O39	0.533000	0.568400	0.798220
O401	O40	0.432500	0.496000	0.841200
O411	O41	0.217100	0.074800	0.646360
O421	O42	0.361000	0.041900	0.597000
O431	O43	0.123300	0.095000	0.404180
O441	O44	0.315800	0.088300	0.428100
O451	O45	0.139600	0.051400	0.829740
O461	O46	0.688600	0.453300	0.824500
O471	O47	0.090600	0.954900	0.902500
O481	O48	0.232600	0.922900	0.852240
O491	O49	0.141500	0.914800	0.067680
O501	O50	0.318100	0.886600	0.095120
O511	O51	0.169000	0.882600	0.755620
O521	O52	0.102100	0.838600	0.691950
O531	O53	0.782200	0.680300	0.692670
O541	O54	0.729900	0.629700	0.755500
O551	O55	0.875100	0.007300	0.850370
O561	O56	0.969300	0.943800	0.798220
O571	O57	0.333100	0.988800	0.771110
O581	O58	0.428500	0.040900	0.827240
O591	O59	0.108300	0.023200	0.731320
O601	O60	0.010300	0.972900	0.674640
O611	O61	0.467000	0.068400	0.701780
O621	O62	0.567500	0.996000	0.658800
O631	O63	0.782900	0.574800	0.853640
O641	O64	0.639000	0.541900	0.903000
O651	O65	0.876700	0.595000	0.095820
O661	O66	0.684200	0.588300	0.071900
O671	O67	0.139600	0.948600	0.170260
O681	O68	0.688600	0.546700	0.175500
O691	O69	0.090600	0.045100	0.097500
O701	O70	0.232600	0.077100	0.147760
O711	O71	0.141500	0.085200	0.932320
O721	O72	0.318100	0.113400	0.904880
O731	O73	0.169000	0.117400	0.244380
O741	O74	0.102100	0.161400	0.308050
O751	O75	0.782200	0.319700	0.307330
O761	O76	0.729900	0.370300	0.244500
O771	O77	0.875100	0.992700	0.149630
O781	O78	0.969300	0.056200	0.201780
O791	O79	0.333100	0.011200	0.228890
O801	O80	0.428500	0.959100	0.172760
O811	O81	0.108300	0.976800	0.268680
O821	O82	0.010300	0.027100	0.325360
O831	O83	0.467000	0.931600	0.298220
O841	O84	0.567500	0.004000	0.341200
O851	O85	0.782900	0.425200	0.146360
O861	O86	0.639000	0.458100	0.097000
O871	O87	0.876700	0.405000	0.904180
O881	O88	0.684200	0.411700	0.928100
