data_XADFEP_clean_PM
_symmetry_space_group_name_H-M	'P1'
_cell_length_a	9.949800
_cell_length_b	9.949800
_cell_length_c	14.376000
_cell_angle_alpha	98.351500
_cell_angle_beta	98.351500
_cell_angle_gamma	107.677000
_symmetry_Int_Tables_number 1

loop_
_symmetry_equiv_pos_as_xyz
'x,y,z'

loop_
_atom_site_label
_atom_site_type_symbol
_atom_site_fract_x
_atom_site_fract_y
_atom_site_fract_z
Ni11	Ni1	0.002360	0.500080	0.254660
Ni21	Ni2	0.499920	0.997640	0.245340
Ni31	Ni3	0.997640	0.499920	0.745340
Ni41	Ni4	0.500080	0.002360	0.754660
H11	H1	0.272200	0.399600	0.264600
H21	H2	0.736200	0.605000	0.255700
H31	H3	0.844400	0.827400	0.374800
H41	H4	0.600400	0.727800	0.235400
H51	H5	0.395000	0.263800	0.244300
H61	H6	0.172600	0.155600	0.125200
H71	H7	0.727800	0.600400	0.735400
H81	H8	0.263800	0.395000	0.744300
H91	H9	0.155600	0.172600	0.625200
H101	H10	0.399600	0.272200	0.764600
H111	H11	0.605000	0.736200	0.755700
H121	H12	0.827400	0.844400	0.874800
H131	H13	0.231000	0.769000	0.250000
H141	H14	0.772200	0.227800	0.250000
H151	H15	0.769000	0.231000	0.750000
H161	H16	0.227800	0.772200	0.750000
C11	C1	0.310600	0.494400	0.257700
C21	C2	0.693900	0.507100	0.253200
C31	C3	0.034700	0.876700	0.465400
C41	C4	0.130500	0.985100	0.541600
C51	C5	0.907100	0.897100	0.425800
C61	C6	0.059000	0.740200	0.427800
C71	C7	0.277400	0.981000	0.582300
C81	C8	0.505600	0.689400	0.242300
C91	C9	0.492900	0.306100	0.246800
C101	C10	0.123300	0.965300	0.034600
C111	C11	0.014900	0.869500	0.958400
C121	C12	0.102900	0.092900	0.074200
C131	C13	0.259800	0.941000	0.072200
C141	C14	0.019000	0.722600	0.917700
C151	C15	0.689400	0.505600	0.742300
C161	C16	0.306100	0.492900	0.746800
C171	C17	0.965300	0.123300	0.534600
C181	C18	0.869500	0.014900	0.458400
C191	C19	0.092900	0.102900	0.574200
C201	C20	0.941000	0.259800	0.572200
C211	C21	0.722600	0.019000	0.417700
C221	C22	0.494400	0.310600	0.757700
C231	C23	0.507100	0.693900	0.753200
C241	C24	0.876700	0.034700	0.965400
C251	C25	0.985100	0.130500	0.041600
C261	C26	0.897100	0.907100	0.925800
C271	C27	0.740200	0.059000	0.927800
C281	C28	0.981000	0.277400	0.082300
C291	C29	0.454000	0.546000	0.250000
C301	C30	0.288900	0.711100	0.250000
C311	C31	0.545800	0.454200	0.250000
C321	C32	0.714300	0.285700	0.250000
C331	C33	0.546000	0.454000	0.750000
C341	C34	0.711100	0.288900	0.750000
C351	C35	0.454200	0.545800	0.750000
C361	C36	0.285700	0.714300	0.750000
N11	N1	0.226300	0.575300	0.255400
N21	N2	0.778000	0.425200	0.252800
N31	N3	0.424700	0.773700	0.244600
N41	N4	0.574800	0.222000	0.247200
N51	N5	0.773700	0.424700	0.744600
N61	N6	0.222000	0.574800	0.747200
N71	N7	0.575300	0.226300	0.755400
N81	N8	0.425200	0.778000	0.752800
O11	O1	0.013900	0.688500	0.339400
O21	O2	0.118600	0.683600	0.486400
O31	O3	0.305100	0.984300	0.671900
O41	O4	0.363400	0.980600	0.529600
O51	O5	0.311500	0.986100	0.160600
O61	O6	0.316400	0.881400	0.013600
O71	O7	0.015700	0.694900	0.828100
O81	O8	0.019400	0.636600	0.970400
O91	O9	0.986100	0.311500	0.660600
O101	O10	0.881400	0.316400	0.513600
O111	O11	0.694900	0.015700	0.328100
O121	O12	0.636600	0.019400	0.470400
O131	O13	0.688500	0.013900	0.839400
O141	O14	0.683600	0.118600	0.986400
O151	O15	0.984300	0.305100	0.171900
O161	O16	0.980600	0.363400	0.029600
