data_XADGOA_clean_PM
_symmetry_space_group_name_H-M	'P1'
_cell_length_a	11.750000
_cell_length_b	9.832000
_cell_length_c	14.630000
_cell_angle_alpha	90.000000
_cell_angle_beta	97.730000
_cell_angle_gamma	90.000000
_symmetry_Int_Tables_number 1

loop_
_symmetry_equiv_pos_as_xyz
'x,y,z'

loop_
_atom_site_label
_atom_site_type_symbol
_atom_site_fract_x
_atom_site_fract_y
_atom_site_fract_z
C11	C1	0.275000	0.140600	0.218700
C21	C2	0.150000	0.122900	0.221700
C31	C3	0.092900	0.208600	0.276000
H11	H1	0.133400	0.274500	0.312600
C41	C4	0.975800	0.195400	0.275300
H21	H2	0.937800	0.252300	0.312000
C51	C5	0.914300	0.098500	0.220500
C61	C6	0.972000	0.007400	0.168600
C71	C7	0.088900	0.019600	0.169300
H31	H3	0.127500	0.959600	0.135100
C81	C8	0.914700	0.892500	0.108900
C91	C9	0.785700	0.092700	0.218200
O11	O1	0.488500	0.967300	0.911200
O21	O2	0.339700	0.200800	0.281100
O31	O3	0.319300	0.088700	0.151300
O41	O4	0.931800	0.769300	0.134100
O51	O5	0.859100	0.925700	0.031000
O61	O6	0.730200	0.004900	0.168400
O71	O7	0.736300	0.174500	0.263700
U11	U1	0.345670	0.030860	0.991130
U21	U2	0.472420	0.854830	0.778930
C101	C10	0.225000	0.640600	0.281300
C111	C11	0.350000	0.622900	0.278300
C121	C12	0.407100	0.708600	0.224000
H41	H4	0.366600	0.774500	0.187400
C131	C13	0.524200	0.695400	0.224700
H51	H5	0.562200	0.752300	0.188000
C141	C14	0.585700	0.598500	0.279500
C151	C15	0.528000	0.507400	0.331400
C161	C16	0.411100	0.519600	0.330700
H61	H6	0.372500	0.459600	0.364900
C171	C17	0.585300	0.392500	0.391100
C181	C18	0.714300	0.592700	0.281800
O81	O8	0.011500	0.467300	0.588800
O91	O9	0.160300	0.700800	0.218900
O101	O10	0.180700	0.588700	0.348700
O111	O11	0.568200	0.269300	0.365900
O121	O12	0.640900	0.425700	0.469000
O131	O13	0.769800	0.504900	0.331600
O141	O14	0.763700	0.674500	0.236300
U31	U3	0.154330	0.530860	0.508870
U41	U4	0.027580	0.354830	0.721070
C191	C19	0.725000	0.859400	0.781300
C201	C20	0.850000	0.877100	0.778300
C211	C21	0.907100	0.791400	0.724000
H71	H7	0.866600	0.725500	0.687400
C221	C22	0.024200	0.804600	0.724700
H81	H8	0.062200	0.747700	0.688000
C231	C23	0.085700	0.901500	0.779500
C241	C24	0.028000	0.992600	0.831400
C251	C25	0.911100	0.980400	0.830700
H91	H9	0.872500	0.040400	0.864900
C261	C26	0.085300	0.107500	0.891100
C271	C27	0.214300	0.907300	0.781800
O151	O15	0.511500	0.032700	0.088800
O161	O16	0.660300	0.799200	0.718900
O171	O17	0.680700	0.911300	0.848700
O181	O18	0.068200	0.230700	0.865900
O191	O19	0.140900	0.074300	0.969000
O201	O20	0.269800	0.995100	0.831600
O211	O21	0.263700	0.825500	0.736300
U51	U5	0.654330	0.969140	0.008870
U61	U6	0.527580	0.145170	0.221070
C281	C28	0.775000	0.359400	0.718700
C291	C29	0.650000	0.377100	0.721700
C301	C30	0.592900	0.291400	0.776000
H101	H10	0.633400	0.225500	0.812600
C311	C31	0.475800	0.304600	0.775300
H111	H11	0.437800	0.247700	0.812000
C321	C32	0.414300	0.401500	0.720500
C331	C33	0.472000	0.492600	0.668600
C341	C34	0.588900	0.480400	0.669300
H121	H12	0.627500	0.540400	0.635100
C351	C35	0.414700	0.607500	0.608900
C361	C36	0.285700	0.407300	0.718200
O221	O22	0.988500	0.532700	0.411200
O231	O23	0.839700	0.299200	0.781100
O241	O24	0.819300	0.411300	0.651300
O251	O25	0.431800	0.730700	0.634100
O261	O26	0.359100	0.574300	0.531000
O271	O27	0.230200	0.495100	0.668400
O281	O28	0.236300	0.325500	0.763700
U71	U7	0.845670	0.469140	0.491130
U81	U8	0.972420	0.645170	0.278930
