data_XAFFOB_clean_PM
_symmetry_space_group_name_H-M	'P1'
_cell_length_a	17.217000
_cell_length_b	22.938200
_cell_length_c	22.938200
_cell_angle_alpha	60.942000
_cell_angle_beta	67.957700
_cell_angle_gamma	67.957600
_symmetry_Int_Tables_number 1

loop_
_symmetry_equiv_pos_as_xyz
'x,y,z'

loop_
_atom_site_label
_atom_site_type_symbol
_atom_site_fract_x
_atom_site_fract_y
_atom_site_fract_z
Cu11	Cu1	0.476070	0.972640	0.972640
Cu21	Cu2	0.921350	0.527360	0.527360
Cu31	Cu3	0.078650	0.472640	0.472640
Cu41	Cu4	0.523930	0.027360	0.027360
H11	H1	0.728100	0.855900	0.110900
H21	H2	0.827900	0.756000	0.149600
H31	H3	0.744100	0.668600	0.077400
H41	H4	0.648400	0.770900	0.033100
H51	H5	0.936500	0.674500	0.011300
H61	H6	0.998400	0.611300	0.946100
H71	H7	0.194900	0.644100	0.389100
H81	H8	0.233500	0.744000	0.350400
H91	H9	0.990100	0.831400	0.422600
H101	H10	0.952400	0.729100	0.466900
H111	H11	0.122300	0.825500	0.488700
H121	H12	0.055800	0.888700	0.553900
H131	H13	0.805100	0.610900	0.355900
H141	H14	0.766500	0.649600	0.256000
H151	H15	0.009900	0.577400	0.168600
H161	H16	0.047600	0.533100	0.270900
H171	H17	0.877700	0.511300	0.174500
H181	H18	0.944200	0.446100	0.111300
H191	H19	0.271900	0.889100	0.144100
H201	H20	0.172100	0.850400	0.244000
H211	H21	0.255900	0.922600	0.331400
H221	H22	0.351600	0.966900	0.229100
H231	H23	0.063500	0.988700	0.325500
H241	H24	0.001600	0.053900	0.388700
H251	H25	0.271900	0.144100	0.889100
H261	H26	0.172100	0.244000	0.850400
H271	H27	0.255900	0.331400	0.922600
H281	H28	0.351600	0.229100	0.966900
H291	H29	0.063500	0.325500	0.988700
H301	H30	0.001600	0.388700	0.053900
H311	H31	0.805100	0.355900	0.610900
H321	H32	0.766500	0.256000	0.649600
H331	H33	0.009900	0.168600	0.577400
H341	H34	0.047600	0.270900	0.533100
H351	H35	0.877700	0.174500	0.511300
H361	H36	0.944200	0.111300	0.446100
H371	H37	0.194900	0.389100	0.644100
H381	H38	0.233500	0.350400	0.744000
H391	H39	0.990100	0.422600	0.831400
H401	H40	0.952400	0.466900	0.729100
H411	H41	0.122300	0.488700	0.825500
H421	H42	0.055800	0.553900	0.888700
H431	H43	0.728100	0.110900	0.855900
H441	H44	0.827900	0.149600	0.756000
H451	H45	0.744100	0.077400	0.668600
H461	H46	0.648400	0.033100	0.770900
H471	H47	0.936500	0.011300	0.674500
H481	H48	0.998400	0.946100	0.611300
C11	C1	0.731580	0.818430	0.103570
C21	C2	0.790940	0.758750	0.126950
C31	C3	0.796830	0.701750	0.117190
C41	C4	0.741690	0.706670	0.083150
C51	C5	0.683220	0.767640	0.057800
C61	C6	0.675730	0.824150	0.068790
C71	C7	0.611170	0.889040	0.042740
C81	C8	0.936940	0.628100	0.032020
C91	C9	0.975010	0.589760	0.992820
C101	C10	0.153580	0.681570	0.396430
C111	C11	0.176640	0.741250	0.373050
C121	C12	0.115770	0.798250	0.382810
C131	C13	0.031510	0.793330	0.416850
C141	C14	0.008660	0.732360	0.442200
C151	C15	0.068670	0.675850	0.431210
C161	C16	0.042950	0.610960	0.457260
C171	C17	0.097060	0.871900	0.467980
C181	C18	0.057590	0.910240	0.507180
C191	C19	0.846420	0.603570	0.318430
C201	C20	0.823360	0.626950	0.258750
C211	C21	0.884230	0.617190	0.201750
C221	C22	0.968490	0.583150	0.206670
C231	C23	0.991340	0.557800	0.267640
C241	C24	0.931330	0.568790	0.324150
C251	C25	0.957050	0.542740	0.389040
C261	C26	0.902940	0.532020	0.128100
C271	C27	0.942410	0.492820	0.089760
C281	C28	0.268420	0.896430	0.181570
C291	C29	0.209060	0.873050	0.241250
C301	C30	0.203170	0.882810	0.298250
C311	C31	0.258310	0.916850	0.293330
C321	C32	0.316780	0.942200	0.232360
C331	C33	0.324270	0.931210	0.175850
C341	C34	0.388830	0.957260	0.110960
C351	C35	0.063060	0.967980	0.371900
C361	C36	0.024990	0.007180	0.410240
C371	C37	0.268420	0.181570	0.896430
C381	C38	0.209060	0.241250	0.873050
C391	C39	0.203170	0.298250	0.882810
C401	C40	0.258310	0.293330	0.916850
C411	C41	0.316780	0.232360	0.942200
C421	C42	0.324270	0.175850	0.931210
C431	C43	0.388830	0.110960	0.957260
C441	C44	0.063060	0.371900	0.967980
C451	C45	0.024990	0.410240	0.007180
C461	C46	0.846420	0.318430	0.603570
C471	C47	0.823360	0.258750	0.626950
C481	C48	0.884230	0.201750	0.617190
C491	C49	0.968490	0.206670	0.583150
C501	C50	0.991340	0.267640	0.557800
C511	C51	0.931330	0.324150	0.568790
C521	C52	0.957050	0.389040	0.542740
C531	C53	0.902940	0.128100	0.532020
C541	C54	0.942410	0.089760	0.492820
C551	C55	0.153580	0.396430	0.681570
C561	C56	0.176640	0.373050	0.741250
C571	C57	0.115770	0.382810	0.798250
C581	C58	0.031510	0.416850	0.793330
C591	C59	0.008660	0.442200	0.732360
C601	C60	0.068670	0.431210	0.675850
C611	C61	0.042950	0.457260	0.610960
C621	C62	0.097060	0.467980	0.871900
C631	C63	0.057590	0.507180	0.910240
C641	C64	0.731580	0.103570	0.818430
C651	C65	0.790940	0.126950	0.758750
C661	C66	0.796830	0.117190	0.701750
C671	C67	0.741690	0.083150	0.706670
C681	C68	0.683220	0.057800	0.767640
C691	C69	0.675730	0.068790	0.824150
C701	C70	0.611170	0.042740	0.889040
C711	C71	0.936940	0.032020	0.628100
C721	C72	0.975010	0.992820	0.589760
C731	C73	0.900130	0.599870	0.099870
C741	C74	0.979130	0.520870	0.020870
C751	C75	0.099870	0.900130	0.400130
C761	C76	0.020870	0.979130	0.479130
C771	C77	0.099870	0.400130	0.900130
C781	C78	0.020870	0.479130	0.979130
C791	C79	0.900130	0.099870	0.599870
C801	C80	0.979130	0.020870	0.520870
N11	N1	0.859980	0.640020	0.140020
N21	N2	0.140020	0.859980	0.359980
N31	N3	0.140020	0.359980	0.859980
N41	N4	0.859980	0.140020	0.640020
O11	O1	0.565750	0.891200	0.010320
O21	O2	0.606450	0.937970	0.056530
O31	O3	0.967270	0.608800	0.489680
O41	O4	0.100950	0.562030	0.443470
O51	O5	0.032730	0.510320	0.391200
O61	O6	0.899050	0.556530	0.437970
O71	O7	0.434250	0.989680	0.108800
O81	O8	0.393550	0.943470	0.062030
O91	O9	0.434250	0.108800	0.989680
O101	O10	0.393550	0.062030	0.943470
O111	O11	0.032730	0.391200	0.510320
O121	O12	0.899050	0.437970	0.556530
O131	O13	0.967270	0.489680	0.608800
O141	O14	0.100950	0.443470	0.562030
O151	O15	0.565750	0.010320	0.891200
O161	O16	0.606450	0.056530	0.937970
