data_XAFFIV_clean_PM
_symmetry_space_group_name_H-M	'P1'
_cell_length_a	17.141000
_cell_length_b	23.099400
_cell_length_c	23.099400
_cell_angle_alpha	60.905900
_cell_angle_beta	68.221100
_cell_angle_gamma	68.221000
_symmetry_Int_Tables_number 1

loop_
_symmetry_equiv_pos_as_xyz
'x,y,z'

loop_
_atom_site_label
_atom_site_type_symbol
_atom_site_fract_x
_atom_site_fract_y
_atom_site_fract_z
Co11	Co1	0.972520	0.971420	0.971420
Co21	Co2	0.415360	0.528580	0.528580
Co31	Co3	0.584640	0.471420	0.471420
Co41	Co4	0.027480	0.028580	0.028580
H11	H1	0.768900	0.891100	0.146700
H21	H2	0.757600	0.923300	0.331700
H31	H3	0.665800	0.853700	0.246500
H41	H4	0.854500	0.965200	0.230000
H51	H5	0.566600	0.989600	0.325400
H61	H6	0.507700	0.054500	0.389500
H71	H7	0.306700	0.608900	0.353300
H81	H8	0.512600	0.576700	0.168300
H91	H9	0.266000	0.646300	0.253500
H101	H10	0.549700	0.534800	0.270000
H111	H11	0.381600	0.510400	0.174600
H121	H12	0.451700	0.445500	0.110500
H131	H13	0.693300	0.646700	0.391100
H141	H14	0.487400	0.831700	0.423300
H151	H15	0.734000	0.746500	0.353700
H161	H16	0.450300	0.730000	0.465200
H171	H17	0.618400	0.825400	0.489600
H181	H18	0.548300	0.889500	0.554500
H191	H19	0.231100	0.853300	0.108900
H201	H20	0.242400	0.668300	0.076700
H211	H21	0.334200	0.753500	0.146300
H221	H22	0.145500	0.770000	0.034800
H231	H23	0.433400	0.674600	0.010400
H241	H24	0.492300	0.610500	0.945500
H251	H25	0.231100	0.108900	0.853300
H261	H26	0.242400	0.076700	0.668300
H271	H27	0.334200	0.146300	0.753500
H281	H28	0.145500	0.034800	0.770000
H291	H29	0.433400	0.010400	0.674600
H301	H30	0.492300	0.945500	0.610500
H311	H31	0.693300	0.391100	0.646700
H321	H32	0.487400	0.423300	0.831700
H331	H33	0.734000	0.353700	0.746500
H341	H34	0.450300	0.465200	0.730000
H351	H35	0.618400	0.489600	0.825400
H361	H36	0.548300	0.554500	0.889500
H371	H37	0.306700	0.353300	0.608900
H381	H38	0.512600	0.168300	0.576700
H391	H39	0.266000	0.253500	0.646300
H401	H40	0.549700	0.270000	0.534800
H411	H41	0.381600	0.174600	0.510400
H421	H42	0.451700	0.110500	0.445500
H431	H43	0.768900	0.146700	0.891100
H441	H44	0.757600	0.331700	0.923300
H451	H45	0.665800	0.246500	0.853700
H461	H46	0.854500	0.230000	0.965200
H471	H47	0.566600	0.325400	0.989600
H481	H48	0.507700	0.389500	0.054500
C11	C1	0.888090	0.956030	0.110790
C21	C2	0.765400	0.898370	0.183830
C31	C3	0.758740	0.917930	0.293990
C41	C4	0.821720	0.931990	0.178570
C51	C5	0.703990	0.875410	0.243770
C61	C6	0.817500	0.942020	0.233560
C71	C7	0.700110	0.885070	0.299110
C81	C8	0.565230	0.968700	0.371640
C91	C9	0.527990	0.007750	0.411070
C101	C10	0.454910	0.543970	0.389210
C111	C11	0.347600	0.601630	0.316170
C121	C12	0.470660	0.582070	0.206010
C131	C13	0.432280	0.568010	0.321430
C141	C14	0.323170	0.624590	0.256230
C151	C15	0.493080	0.557980	0.266440
C161	C16	0.384290	0.614930	0.200890
C171	C17	0.405570	0.531300	0.128360
C181	C18	0.446810	0.492250	0.088930
C191	C19	0.545090	0.610790	0.456030
C201	C20	0.652400	0.683830	0.398370
C211	C21	0.529340	0.793990	0.417930
C221	C22	0.567720	0.678570	0.431990
C231	C23	0.676830	0.743770	0.375410
C241	C24	0.506920	0.733560	0.442020
C251	C25	0.615710	0.799110	0.385070
C261	C26	0.594430	0.871640	0.468700
C271	C27	0.553190	0.911070	0.507750
C281	C28	0.111910	0.889210	0.043970
C291	C29	0.234600	0.816170	0.101630
C301	C30	0.241260	0.706010	0.082070
C311	C31	0.178280	0.821430	0.068010
C321	C32	0.296010	0.756230	0.124590
C331	C33	0.182500	0.766440	0.057980
C341	C34	0.299890	0.700890	0.114930
C351	C35	0.434770	0.628360	0.031300
C361	C36	0.472010	0.588930	0.992250
C371	C37	0.111910	0.043970	0.889210
C381	C38	0.234600	0.101630	0.816170
C391	C39	0.241260	0.082070	0.706010
C401	C40	0.178280	0.068010	0.821430
C411	C41	0.296010	0.124590	0.756230
C421	C42	0.182500	0.057980	0.766440
C431	C43	0.299890	0.114930	0.700890
C441	C44	0.434770	0.031300	0.628360
C451	C45	0.472010	0.992250	0.588930
C461	C46	0.545090	0.456030	0.610790
C471	C47	0.652400	0.398370	0.683830
C481	C48	0.529340	0.417930	0.793990
C491	C49	0.567720	0.431990	0.678570
C501	C50	0.676830	0.375410	0.743770
C511	C51	0.506920	0.442020	0.733560
C521	C52	0.615710	0.385070	0.799110
C531	C53	0.594430	0.468700	0.871640
C541	C54	0.553190	0.507750	0.911070
C551	C55	0.454910	0.389210	0.543970
C561	C56	0.347600	0.316170	0.601630
C571	C57	0.470660	0.206010	0.582070
C581	C58	0.432280	0.321430	0.568010
C591	C59	0.323170	0.256230	0.624590
C601	C60	0.493080	0.266440	0.557980
C611	C61	0.384290	0.200890	0.614930
C621	C62	0.405570	0.128360	0.531300
C631	C63	0.446810	0.088930	0.492250
C641	C64	0.888090	0.110790	0.956030
C651	C65	0.765400	0.183830	0.898370
C661	C66	0.758740	0.293990	0.917930
C671	C67	0.821720	0.178570	0.931990
C681	C68	0.703990	0.243770	0.875410
C691	C69	0.817500	0.233560	0.942020
C701	C70	0.700110	0.299110	0.885070
C711	C71	0.565230	0.371640	0.968700
C721	C72	0.527990	0.411070	0.007750
C731	C73	0.599070	0.900930	0.400930
C741	C74	0.520630	0.979370	0.479370
C751	C75	0.400930	0.599070	0.099070
C761	C76	0.479370	0.520630	0.020630
C771	C77	0.400930	0.099070	0.599070
C781	C78	0.479370	0.020630	0.520630
C791	C79	0.599070	0.400930	0.900930
C801	C80	0.520630	0.479370	0.979370
N11	N1	0.638400	0.861600	0.361600
N21	N2	0.361600	0.638400	0.138400
N31	N3	0.361600	0.138400	0.638400
N41	N4	0.638400	0.361600	0.861600
O11	O1	0.890160	0.942920	0.063980
O21	O2	0.934830	0.988620	0.109980
O31	O3	0.397060	0.557080	0.436020
O41	O4	0.533430	0.511380	0.390020
O51	O5	0.602940	0.563980	0.442920
O61	O6	0.466570	0.609980	0.488620
O71	O7	0.109840	0.936020	0.057080
O81	O8	0.065170	0.890020	0.011380
O91	O9	0.109840	0.057080	0.936020
O101	O10	0.065170	0.011380	0.890020
O111	O11	0.602940	0.442920	0.563980
O121	O12	0.466570	0.488620	0.609980
O131	O13	0.397060	0.436020	0.557080
O141	O14	0.533430	0.390020	0.511380
O151	O15	0.890160	0.063980	0.942920
O161	O16	0.934830	0.109980	0.988620
