data_XAFNOH_clean_PM
_symmetry_space_group_name_H-M	'P1'
_cell_length_a	7.781500
_cell_length_b	9.260000
_cell_length_c	25.543000
_cell_angle_alpha	90.000000
_cell_angle_beta	90.000000
_cell_angle_gamma	97.360000
_symmetry_Int_Tables_number 1

loop_
_symmetry_equiv_pos_as_xyz
'x,y,z'

loop_
_atom_site_label
_atom_site_type_symbol
_atom_site_fract_x
_atom_site_fract_y
_atom_site_fract_z
Gd11	Gd1	0.412770	0.487750	0.349400
Gd21	Gd2	0.087230	0.512250	0.849400
Gd31	Gd3	0.587230	0.512250	0.650600
Gd41	Gd4	0.912770	0.487750	0.150600
Cu11	Cu1	0.500000	0.000000	0.500000
Cu21	Cu2	0.000000	0.000000	0.000000
C11	C1	0.720400	0.403500	0.272000
C21	C2	0.662800	0.254100	0.295100
C31	C3	0.729100	0.130200	0.277200
C41	C4	0.673100	0.997600	0.300900
C51	C5	0.552600	0.993200	0.341000
C61	C6	0.493100	0.122100	0.356300
C71	C7	0.483900	0.852200	0.368000
C81	C8	0.697600	0.777300	0.492700
C91	C9	0.800200	0.904400	0.463300
C101	C10	0.948300	0.893500	0.435000
C111	C11	0.030900	0.019000	0.411400
C121	C12	0.960100	0.149700	0.415200
C131	C13	0.808100	0.150200	0.443000
C141	C14	0.042500	0.288100	0.389400
C151	C15	0.779600	0.596500	0.772000
C161	C16	0.837200	0.745900	0.795100
C171	C17	0.770900	0.869800	0.777200
C181	C18	0.826900	0.002400	0.800900
C191	C19	0.947400	0.006800	0.841000
C201	C20	0.006900	0.877900	0.856300
C211	C21	0.016100	0.147800	0.868000
C221	C22	0.802400	0.222700	0.992700
C231	C23	0.699800	0.095600	0.963300
C241	C24	0.551700	0.106500	0.935000
C251	C25	0.469100	0.981000	0.911400
C261	C26	0.539900	0.850300	0.915200
C271	C27	0.691900	0.849800	0.943000
C281	C28	0.457500	0.711900	0.889400
C291	C29	0.279600	0.596500	0.728000
C301	C30	0.337200	0.745900	0.704900
C311	C31	0.270900	0.869800	0.722800
C321	C32	0.326900	0.002400	0.699100
C331	C33	0.447400	0.006800	0.659000
C341	C34	0.506900	0.877900	0.643700
C351	C35	0.516100	0.147800	0.632000
C361	C36	0.302400	0.222700	0.507300
C371	C37	0.199800	0.095600	0.536700
C381	C38	0.051700	0.106500	0.565000
C391	C39	0.969100	0.981000	0.588600
C401	C40	0.039900	0.850300	0.584800
C411	C41	0.191900	0.849800	0.557000
C421	C42	0.957500	0.711900	0.610600
C431	C43	0.220400	0.403500	0.228000
C441	C44	0.162800	0.254100	0.204900
C451	C45	0.229100	0.130200	0.222800
C461	C46	0.173100	0.997600	0.199100
C471	C47	0.052600	0.993200	0.159000
C481	C48	0.993100	0.122100	0.143700
C491	C49	0.983900	0.852200	0.132000
C501	C50	0.197600	0.777300	0.007300
C511	C51	0.300200	0.904400	0.036700
C521	C52	0.448300	0.893500	0.065000
C531	C53	0.530900	0.019000	0.088600
C541	C54	0.460100	0.149700	0.084800
C551	C55	0.308100	0.150200	0.057000
C561	C56	0.542500	0.288100	0.110600
N11	N1	0.545200	0.250600	0.333500
N21	N2	0.730100	0.030200	0.466600
N31	N3	0.954800	0.749400	0.833500
N41	N4	0.769900	0.969800	0.966600
N51	N5	0.454800	0.749400	0.666500
N61	N6	0.269900	0.969800	0.533400
N71	N7	0.045200	0.250600	0.166500
N81	N8	0.230100	0.030200	0.033400
O11	O1	0.665200	0.509800	0.293540
O21	O2	0.822100	0.409700	0.234340
O31	O3	0.507600	0.736800	0.343400
O41	O4	0.411200	0.858400	0.411170
O51	O5	0.563300	0.808600	0.516600
O61	O6	0.752200	0.657700	0.491620
O71	O7	0.200600	0.295600	0.376700
O81	O8	0.948200	0.385800	0.382900
O91	O9	0.834800	0.490200	0.793540
O101	O10	0.677900	0.590300	0.734340
O111	O11	0.992400	0.263200	0.843400
O121	O12	0.088800	0.141600	0.911170
O131	O13	0.936700	0.191400	0.016600
O141	O14	0.747800	0.342300	0.991620
O151	O15	0.299400	0.704400	0.876700
O161	O16	0.551800	0.614200	0.882900
O171	O17	0.334800	0.490200	0.706460
O181	O18	0.177900	0.590300	0.765660
O191	O19	0.492400	0.263200	0.656600
O201	O20	0.588800	0.141600	0.588830
O211	O21	0.436700	0.191400	0.483400
O221	O22	0.247800	0.342300	0.508380
O231	O23	0.799400	0.704400	0.623300
O241	O24	0.051800	0.614200	0.617100
O251	O25	0.165200	0.509800	0.206460
O261	O26	0.322100	0.409700	0.265660
O271	O27	0.007600	0.736800	0.156600
O281	O28	0.911200	0.858400	0.088830
O291	O29	0.063300	0.808600	0.983400
O301	O30	0.252200	0.657700	0.008380
O311	O31	0.700600	0.295600	0.123300
O321	O32	0.448200	0.385800	0.117100
