data_XAGCIS02_clean_PM
_symmetry_space_group_name_H-M	'P1'
_cell_length_a	20.448000
_cell_length_b	20.448000
_cell_length_c	20.448000
_cell_angle_alpha	90.000000
_cell_angle_beta	90.000000
_cell_angle_gamma	90.000000
_symmetry_Int_Tables_number 1

loop_
_symmetry_equiv_pos_as_xyz
'x,y,z'

loop_
_atom_site_label
_atom_site_type_symbol
_atom_site_fract_x
_atom_site_fract_y
_atom_site_fract_z
Co11	Co1	0.838670	0.601570	0.856820
Co21	Co2	0.993930	0.438750	0.724030
Co31	Co3	0.661330	0.398430	0.356820
Co41	Co4	0.506070	0.561250	0.224030
Co51	Co5	0.161330	0.101570	0.643180
Co61	Co6	0.006070	0.938750	0.775970
Co71	Co7	0.338670	0.898430	0.143180
Co81	Co8	0.493930	0.061250	0.275970
Co91	Co9	0.856820	0.838670	0.601570
Co101	Co10	0.724030	0.993930	0.438750
Co111	Co11	0.356820	0.661330	0.398430
Co121	Co12	0.224030	0.506070	0.561250
Co131	Co13	0.643180	0.161330	0.101570
Co141	Co14	0.775970	0.006070	0.938750
Co151	Co15	0.143180	0.338670	0.898430
Co161	Co16	0.275970	0.493930	0.061250
Co171	Co17	0.601570	0.856820	0.838670
Co181	Co18	0.438750	0.724030	0.993930
Co191	Co19	0.398430	0.356820	0.661330
Co201	Co20	0.561250	0.224030	0.506070
Co211	Co21	0.101570	0.643180	0.161330
Co221	Co22	0.938750	0.775970	0.006070
Co231	Co23	0.898430	0.143180	0.338670
Co241	Co24	0.061250	0.275970	0.493930
Co251	Co25	0.161330	0.398430	0.143180
Co261	Co26	0.006070	0.561250	0.275970
Co271	Co27	0.338670	0.601570	0.643180
Co281	Co28	0.493930	0.438750	0.775970
Co291	Co29	0.838670	0.898430	0.356820
Co301	Co30	0.993930	0.061250	0.224030
Co311	Co31	0.661330	0.101570	0.856820
Co321	Co32	0.506070	0.938750	0.724030
Co331	Co33	0.143180	0.161330	0.398430
Co341	Co34	0.275970	0.006070	0.561250
Co351	Co35	0.643180	0.338670	0.601570
Co361	Co36	0.775970	0.493930	0.438750
Co371	Co37	0.356820	0.838670	0.898430
Co381	Co38	0.224030	0.993930	0.061250
Co391	Co39	0.856820	0.661330	0.101570
Co401	Co40	0.724030	0.506070	0.938750
Co411	Co41	0.398430	0.143180	0.161330
Co421	Co42	0.561250	0.275970	0.006070
Co431	Co43	0.601570	0.643180	0.338670
Co441	Co44	0.438750	0.775970	0.493930
Co451	Co45	0.898430	0.356820	0.838670
Co461	Co46	0.061250	0.224030	0.993930
Co471	Co47	0.101570	0.856820	0.661330
Co481	Co48	0.938750	0.724030	0.506070
H11	H1	0.878800	0.622000	0.699000
H21	H2	0.997400	0.661200	0.692000
H31	H3	0.008500	0.699300	0.793200
H41	H4	0.888900	0.763200	0.804900
H51	H5	0.853300	0.494600	0.923100
H61	H6	0.841500	0.551700	0.973200
H71	H7	0.621200	0.378000	0.199000
H81	H8	0.502600	0.338800	0.192000
H91	H9	0.491500	0.300700	0.293200
H101	H10	0.611100	0.236800	0.304900
H111	H11	0.646700	0.505400	0.423100
H121	H12	0.658500	0.448300	0.473200
H131	H13	0.121200	0.122000	0.801000
H141	H14	0.002600	0.161200	0.808000
H151	H15	0.991500	0.199300	0.706800
H161	H16	0.111100	0.263200	0.695100
H171	H17	0.146700	0.994600	0.576900
H181	H18	0.158500	0.051700	0.526800
H191	H19	0.378800	0.878000	0.301000
H201	H20	0.497400	0.838800	0.308000
H211	H21	0.508500	0.800700	0.206800
H221	H22	0.388900	0.736800	0.195100
H231	H23	0.353300	0.005400	0.076900
H241	H24	0.341500	0.948300	0.026800
H251	H25	0.699000	0.878800	0.622000
H261	H26	0.692000	0.997400	0.661200
H271	H27	0.793200	0.008500	0.699300
H281	H28	0.804900	0.888900	0.763200
H291	H29	0.923100	0.853300	0.494600
H301	H30	0.973200	0.841500	0.551700
H311	H31	0.199000	0.621200	0.378000
H321	H32	0.192000	0.502600	0.338800
H331	H33	0.293200	0.491500	0.300700
H341	H34	0.304900	0.611100	0.236800
H351	H35	0.423100	0.646700	0.505400
H361	H36	0.473200	0.658500	0.448300
H371	H37	0.801000	0.121200	0.122000
H381	H38	0.808000	0.002600	0.161200
H391	H39	0.706800	0.991500	0.199300
H401	H40	0.695100	0.111100	0.263200
H411	H41	0.576900	0.146700	0.994600
H421	H42	0.526800	0.158500	0.051700
H431	H43	0.301000	0.378800	0.878000
H441	H44	0.308000	0.497400	0.838800
H451	H45	0.206800	0.508500	0.800700
H461	H46	0.195100	0.388900	0.736800
H471	H47	0.076900	0.353300	0.005400
H481	H48	0.026800	0.341500	0.948300
H491	H49	0.622000	0.699000	0.878800
H501	H50	0.661200	0.692000	0.997400
H511	H51	0.699300	0.793200	0.008500
H521	H52	0.763200	0.804900	0.888900
H531	H53	0.494600	0.923100	0.853300
H541	H54	0.551700	0.973200	0.841500
H551	H55	0.378000	0.199000	0.621200
H561	H56	0.338800	0.192000	0.502600
H571	H57	0.300700	0.293200	0.491500
H581	H58	0.236800	0.304900	0.611100
H591	H59	0.505400	0.423100	0.646700
H601	H60	0.448300	0.473200	0.658500
H611	H61	0.122000	0.801000	0.121200
H621	H62	0.161200	0.808000	0.002600
H631	H63	0.199300	0.706800	0.991500
H641	H64	0.263200	0.695100	0.111100
H651	H65	0.994600	0.576900	0.146700
H661	H66	0.051700	0.526800	0.158500
H671	H67	0.878000	0.301000	0.378800
H681	H68	0.838800	0.308000	0.497400
H691	H69	0.800700	0.206800	0.508500
H701	H70	0.736800	0.195100	0.388900
H711	H71	0.005400	0.076900	0.353300
H721	H72	0.948300	0.026800	0.341500
H731	H73	0.121200	0.378000	0.301000
H741	H74	0.002600	0.338800	0.308000
H751	H75	0.991500	0.300700	0.206800
H761	H76	0.111100	0.236800	0.195100
H771	H77	0.146700	0.505400	0.076900
H781	H78	0.158500	0.448300	0.026800
H791	H79	0.378800	0.622000	0.801000
H801	H80	0.497400	0.661200	0.808000
H811	H81	0.508500	0.699300	0.706800
H821	H82	0.388900	0.763200	0.695100
H831	H83	0.353300	0.494600	0.576900
H841	H84	0.341500	0.551700	0.526800
H851	H85	0.878800	0.878000	0.199000
H861	H86	0.997400	0.838800	0.192000
H871	H87	0.008500	0.800700	0.293200
H881	H88	0.888900	0.736800	0.304900
H891	H89	0.853300	0.005400	0.423100
H901	H90	0.841500	0.948300	0.473200
H911	H91	0.621200	0.122000	0.699000
H921	H92	0.502600	0.161200	0.692000
H931	H93	0.491500	0.199300	0.793200
H941	H94	0.611100	0.263200	0.804900
H951	H95	0.646700	0.994600	0.923100
H961	H96	0.658500	0.051700	0.973200
H971	H97	0.301000	0.121200	0.378000
H981	H98	0.308000	0.002600	0.338800
H991	H99	0.206800	0.991500	0.300700
H1001	H100	0.195100	0.111100	0.236800
H1011	H101	0.076900	0.146700	0.505400
H1021	H102	0.026800	0.158500	0.448300
H1031	H103	0.801000	0.378800	0.622000
H1041	H104	0.808000	0.497400	0.661200
H1051	H105	0.706800	0.508500	0.699300
H1061	H106	0.695100	0.388900	0.763200
H1071	H107	0.576900	0.353300	0.494600
H1081	H108	0.526800	0.341500	0.551700
H1091	H109	0.199000	0.878800	0.878000
H1101	H110	0.192000	0.997400	0.838800
H1111	H111	0.293200	0.008500	0.800700
H1121	H112	0.304900	0.888900	0.736800
H1131	H113	0.423100	0.853300	0.005400
H1141	H114	0.473200	0.841500	0.948300
H1151	H115	0.699000	0.621200	0.122000
H1161	H116	0.692000	0.502600	0.161200
H1171	H117	0.793200	0.491500	0.199300
H1181	H118	0.804900	0.611100	0.263200
H1191	H119	0.923100	0.646700	0.994600
H1201	H120	0.973200	0.658500	0.051700
H1211	H121	0.378000	0.301000	0.121200
H1221	H122	0.338800	0.308000	0.002600
H1231	H123	0.300700	0.206800	0.991500
H1241	H124	0.236800	0.195100	0.111100
H1251	H125	0.505400	0.076900	0.146700
H1261	H126	0.448300	0.026800	0.158500
H1271	H127	0.622000	0.801000	0.378800
H1281	H128	0.661200	0.808000	0.497400
H1291	H129	0.699300	0.706800	0.508500
H1301	H130	0.763200	0.695100	0.388900
H1311	H131	0.494600	0.576900	0.353300
H1321	H132	0.551700	0.526800	0.341500
H1331	H133	0.878000	0.199000	0.878800
H1341	H134	0.838800	0.192000	0.997400
H1351	H135	0.800700	0.293200	0.008500
H1361	H136	0.736800	0.304900	0.888900
H1371	H137	0.005400	0.423100	0.853300
H1381	H138	0.948300	0.473200	0.841500
H1391	H139	0.122000	0.699000	0.621200
H1401	H140	0.161200	0.692000	0.502600
H1411	H141	0.199300	0.793200	0.491500
H1421	H142	0.263200	0.804900	0.611100
H1431	H143	0.994600	0.923100	0.646700
H1441	H144	0.051700	0.973200	0.658500
C11	C1	0.909000	0.633600	0.734300
C21	C2	0.938200	0.571200	0.762000
C31	C3	0.958200	0.683700	0.708200
C41	C4	0.925900	0.721200	0.653200
C51	C5	0.975100	0.723800	0.769000
C61	C6	0.003700	0.791200	0.753900
C71	C7	0.912500	0.721800	0.809900
C81	C8	0.926100	0.709800	0.881600
C91	C9	0.591000	0.366400	0.234300
C101	C10	0.561800	0.428800	0.262000
C111	C11	0.541800	0.316300	0.208200
C121	C12	0.574100	0.278800	0.153200
C131	C13	0.524900	0.276200	0.269000
C141	C14	0.496300	0.208800	0.253900
C151	C15	0.587500	0.278200	0.309900
C161	C16	0.573900	0.290200	0.381600
C171	C17	0.091000	0.133600	0.765700
C181	C18	0.061800	0.071200	0.738000
C191	C19	0.041800	0.183700	0.791800
C201	C20	0.074100	0.221200	0.846800
C211	C21	0.024900	0.223800	0.731000
C221	C22	0.996300	0.291200	0.746100
C231	C23	0.087500	0.221800	0.690100
C241	C24	0.073900	0.209800	0.618400
C251	C25	0.409000	0.866400	0.265700
C261	C26	0.438200	0.928800	0.238000
C271	C27	0.458200	0.816300	0.291800
C281	C28	0.425900	0.778800	0.346800
C291	C29	0.475100	0.776200	0.231000
C301	C30	0.503700	0.708800	0.246100
C311	C31	0.412500	0.778200	0.190100
C321	C32	0.426100	0.790200	0.118400
C331	C33	0.734300	0.909000	0.633600
C341	C34	0.762000	0.938200	0.571200
C351	C35	0.708200	0.958200	0.683700
C361	C36	0.653200	0.925900	0.721200
C371	C37	0.769000	0.975100	0.723800
C381	C38	0.753900	0.003700	0.791200
C391	C39	0.809900	0.912500	0.721800
C401	C40	0.881600	0.926100	0.709800
C411	C41	0.234300	0.591000	0.366400
C421	C42	0.262000	0.561800	0.428800
C431	C43	0.208200	0.541800	0.316300
C441	C44	0.153200	0.574100	0.278800
C451	C45	0.269000	0.524900	0.276200
C461	C46	0.253900	0.496300	0.208800
C471	C47	0.309900	0.587500	0.278200
C481	C48	0.381600	0.573900	0.290200
C491	C49	0.765700	0.091000	0.133600
C501	C50	0.738000	0.061800	0.071200
C511	C51	0.791800	0.041800	0.183700
C521	C52	0.846800	0.074100	0.221200
C531	C53	0.731000	0.024900	0.223800
C541	C54	0.746100	0.996300	0.291200
C551	C55	0.690100	0.087500	0.221800
C561	C56	0.618400	0.073900	0.209800
C571	C57	0.265700	0.409000	0.866400
C581	C58	0.238000	0.438200	0.928800
C591	C59	0.291800	0.458200	0.816300
C601	C60	0.346800	0.425900	0.778800
C611	C61	0.231000	0.475100	0.776200
C621	C62	0.246100	0.503700	0.708800
C631	C63	0.190100	0.412500	0.778200
C641	C64	0.118400	0.426100	0.790200
C651	C65	0.633600	0.734300	0.909000
C661	C66	0.571200	0.762000	0.938200
C671	C67	0.683700	0.708200	0.958200
C681	C68	0.721200	0.653200	0.925900
C691	C69	0.723800	0.769000	0.975100
C701	C70	0.791200	0.753900	0.003700
C711	C71	0.721800	0.809900	0.912500
C721	C72	0.709800	0.881600	0.926100
C731	C73	0.366400	0.234300	0.591000
C741	C74	0.428800	0.262000	0.561800
C751	C75	0.316300	0.208200	0.541800
C761	C76	0.278800	0.153200	0.574100
C771	C77	0.276200	0.269000	0.524900
C781	C78	0.208800	0.253900	0.496300
C791	C79	0.278200	0.309900	0.587500
C801	C80	0.290200	0.381600	0.573900
C811	C81	0.133600	0.765700	0.091000
C821	C82	0.071200	0.738000	0.061800
C831	C83	0.183700	0.791800	0.041800
C841	C84	0.221200	0.846800	0.074100
C851	C85	0.223800	0.731000	0.024900
C861	C86	0.291200	0.746100	0.996300
C871	C87	0.221800	0.690100	0.087500
C881	C88	0.209800	0.618400	0.073900
C891	C89	0.866400	0.265700	0.409000
C901	C90	0.928800	0.238000	0.438200
C911	C91	0.816300	0.291800	0.458200
C921	C92	0.778800	0.346800	0.425900
C931	C93	0.776200	0.231000	0.475100
C941	C94	0.708800	0.246100	0.503700
C951	C95	0.778200	0.190100	0.412500
C961	C96	0.790200	0.118400	0.426100
C971	C97	0.091000	0.366400	0.265700
C981	C98	0.061800	0.428800	0.238000
C991	C99	0.041800	0.316300	0.291800
C1001	C100	0.074100	0.278800	0.346800
C1011	C101	0.024900	0.276200	0.231000
C1021	C102	0.996300	0.208800	0.246100
C1031	C103	0.087500	0.278200	0.190100
C1041	C104	0.073900	0.290200	0.118400
C1051	C105	0.409000	0.633600	0.765700
C1061	C106	0.438200	0.571200	0.738000
C1071	C107	0.458200	0.683700	0.791800
C1081	C108	0.425900	0.721200	0.846800
C1091	C109	0.475100	0.723800	0.731000
C1101	C110	0.503700	0.791200	0.746100
C1111	C111	0.412500	0.721800	0.690100
C1121	C112	0.426100	0.709800	0.618400
C1131	C113	0.909000	0.866400	0.234300
C1141	C114	0.938200	0.928800	0.262000
C1151	C115	0.958200	0.816300	0.208200
C1161	C116	0.925900	0.778800	0.153200
C1171	C117	0.975100	0.776200	0.269000
C1181	C118	0.003700	0.708800	0.253900
C1191	C119	0.912500	0.778200	0.309900
C1201	C120	0.926100	0.790200	0.381600
C1211	C121	0.591000	0.133600	0.734300
C1221	C122	0.561800	0.071200	0.762000
C1231	C123	0.541800	0.183700	0.708200
C1241	C124	0.574100	0.221200	0.653200
C1251	C125	0.524900	0.223800	0.769000
C1261	C126	0.496300	0.291200	0.753900
C1271	C127	0.587500	0.221800	0.809900
C1281	C128	0.573900	0.209800	0.881600
C1291	C129	0.265700	0.091000	0.366400
C1301	C130	0.238000	0.061800	0.428800
C1311	C131	0.291800	0.041800	0.316300
C1321	C132	0.346800	0.074100	0.278800
C1331	C133	0.231000	0.024900	0.276200
C1341	C134	0.246100	0.996300	0.208800
C1351	C135	0.190100	0.087500	0.278200
C1361	C136	0.118400	0.073900	0.290200
C1371	C137	0.765700	0.409000	0.633600
C1381	C138	0.738000	0.438200	0.571200
C1391	C139	0.791800	0.458200	0.683700
C1401	C140	0.846800	0.425900	0.721200
C1411	C141	0.731000	0.475100	0.723800
C1421	C142	0.746100	0.503700	0.791200
C1431	C143	0.690100	0.412500	0.721800
C1441	C144	0.618400	0.426100	0.709800
C1451	C145	0.234300	0.909000	0.866400
C1461	C146	0.262000	0.938200	0.928800
C1471	C147	0.208200	0.958200	0.816300
C1481	C148	0.153200	0.925900	0.778800
C1491	C149	0.269000	0.975100	0.776200
C1501	C150	0.253900	0.003700	0.708800
C1511	C151	0.309900	0.912500	0.778200
C1521	C152	0.381600	0.926100	0.790200
C1531	C153	0.734300	0.591000	0.133600
C1541	C154	0.762000	0.561800	0.071200
C1551	C155	0.708200	0.541800	0.183700
C1561	C156	0.653200	0.574100	0.221200
C1571	C157	0.769000	0.524900	0.223800
C1581	C158	0.753900	0.496300	0.291200
C1591	C159	0.809900	0.587500	0.221800
C1601	C160	0.881600	0.573900	0.209800
C1611	C161	0.366400	0.265700	0.091000
C1621	C162	0.428800	0.238000	0.061800
C1631	C163	0.316300	0.291800	0.041800
C1641	C164	0.278800	0.346800	0.074100
C1651	C165	0.276200	0.231000	0.024900
C1661	C166	0.208800	0.246100	0.996300
C1671	C167	0.278200	0.190100	0.087500
C1681	C168	0.290200	0.118400	0.073900
C1691	C169	0.633600	0.765700	0.409000
C1701	C170	0.571200	0.738000	0.438200
C1711	C171	0.683700	0.791800	0.458200
C1721	C172	0.721200	0.846800	0.425900
C1731	C173	0.723800	0.731000	0.475100
C1741	C174	0.791200	0.746100	0.503700
C1751	C175	0.721800	0.690100	0.412500
C1761	C176	0.709800	0.618400	0.426100
C1771	C177	0.866400	0.234300	0.909000
C1781	C178	0.928800	0.262000	0.938200
C1791	C179	0.816300	0.208200	0.958200
C1801	C180	0.778800	0.153200	0.925900
C1811	C181	0.776200	0.269000	0.975100
C1821	C182	0.708800	0.253900	0.003700
C1831	C183	0.778200	0.309900	0.912500
C1841	C184	0.790200	0.381600	0.926100
C1851	C185	0.133600	0.734300	0.591000
C1861	C186	0.071200	0.762000	0.561800
C1871	C187	0.183700	0.708200	0.541800
C1881	C188	0.221200	0.653200	0.574100
C1891	C189	0.223800	0.769000	0.524900
C1901	C190	0.291200	0.753900	0.496300
C1911	C191	0.221800	0.809900	0.587500
C1921	C192	0.209800	0.881600	0.573900
O11	O1	0.873100	0.668880	0.783840
O21	O2	0.919200	0.551400	0.816800
O31	O3	0.977200	0.541000	0.726000
O41	O4	0.929300	0.694100	0.598500
O51	O5	0.896800	0.772300	0.665500
O61	O6	0.051300	0.790500	0.715100
O71	O7	0.980700	0.840400	0.781500
O81	O8	0.957400	0.754100	0.910200
O91	O9	0.906600	0.658400	0.908200
O101	O10	0.827000	0.533100	0.932100
O111	O11	0.626900	0.331120	0.283840
O121	O12	0.580800	0.448600	0.316800
O131	O13	0.522800	0.459000	0.226000
O141	O14	0.570700	0.305900	0.098500
O151	O15	0.603200	0.227700	0.165500
O161	O16	0.448700	0.209500	0.215100
O171	O17	0.519300	0.159600	0.281500
O181	O18	0.542600	0.245900	0.410200
O191	O19	0.593400	0.341600	0.408200
O201	O20	0.673000	0.466900	0.432100
O211	O21	0.126900	0.168880	0.716160
O221	O22	0.080800	0.051400	0.683200
O231	O23	0.022800	0.041000	0.774000
O241	O24	0.070700	0.194100	0.901500
O251	O25	0.103200	0.272300	0.834500
O261	O26	0.948700	0.290500	0.784900
O271	O27	0.019300	0.340400	0.718500
O281	O28	0.042600	0.254100	0.589800
O291	O29	0.093400	0.158400	0.591800
O301	O30	0.173000	0.033100	0.567900
O311	O31	0.373100	0.831120	0.216160
O321	O32	0.419200	0.948600	0.183200
O331	O33	0.477200	0.959000	0.274000
O341	O34	0.429300	0.805900	0.401500
O351	O35	0.396800	0.727700	0.334500
O361	O36	0.551300	0.709500	0.284900
O371	O37	0.480700	0.659600	0.218500
O381	O38	0.457400	0.745900	0.089800
O391	O39	0.406600	0.841600	0.091800
O401	O40	0.327000	0.966900	0.067900
O411	O41	0.783840	0.873100	0.668880
O421	O42	0.816800	0.919200	0.551400
O431	O43	0.726000	0.977200	0.541000
O441	O44	0.598500	0.929300	0.694100
O451	O45	0.665500	0.896800	0.772300
O461	O46	0.715100	0.051300	0.790500
O471	O47	0.781500	0.980700	0.840400
O481	O48	0.910200	0.957400	0.754100
O491	O49	0.908200	0.906600	0.658400
O501	O50	0.932100	0.827000	0.533100
O511	O51	0.283840	0.626900	0.331120
O521	O52	0.316800	0.580800	0.448600
O531	O53	0.226000	0.522800	0.459000
O541	O54	0.098500	0.570700	0.305900
O551	O55	0.165500	0.603200	0.227700
O561	O56	0.215100	0.448700	0.209500
O571	O57	0.281500	0.519300	0.159600
O581	O58	0.410200	0.542600	0.245900
O591	O59	0.408200	0.593400	0.341600
O601	O60	0.432100	0.673000	0.466900
O611	O61	0.716160	0.126900	0.168880
O621	O62	0.683200	0.080800	0.051400
O631	O63	0.774000	0.022800	0.041000
O641	O64	0.901500	0.070700	0.194100
O651	O65	0.834500	0.103200	0.272300
O661	O66	0.784900	0.948700	0.290500
O671	O67	0.718500	0.019300	0.340400
O681	O68	0.589800	0.042600	0.254100
O691	O69	0.591800	0.093400	0.158400
O701	O70	0.567900	0.173000	0.033100
O711	O71	0.216160	0.373100	0.831120
O721	O72	0.183200	0.419200	0.948600
O731	O73	0.274000	0.477200	0.959000
O741	O74	0.401500	0.429300	0.805900
O751	O75	0.334500	0.396800	0.727700
O761	O76	0.284900	0.551300	0.709500
O771	O77	0.218500	0.480700	0.659600
O781	O78	0.089800	0.457400	0.745900
O791	O79	0.091800	0.406600	0.841600
O801	O80	0.067900	0.327000	0.966900
O811	O81	0.668880	0.783840	0.873100
O821	O82	0.551400	0.816800	0.919200
O831	O83	0.541000	0.726000	0.977200
O841	O84	0.694100	0.598500	0.929300
O851	O85	0.772300	0.665500	0.896800
O861	O86	0.790500	0.715100	0.051300
O871	O87	0.840400	0.781500	0.980700
O881	O88	0.754100	0.910200	0.957400
O891	O89	0.658400	0.908200	0.906600
O901	O90	0.533100	0.932100	0.827000
O911	O91	0.331120	0.283840	0.626900
O921	O92	0.448600	0.316800	0.580800
O931	O93	0.459000	0.226000	0.522800
O941	O94	0.305900	0.098500	0.570700
O951	O95	0.227700	0.165500	0.603200
O961	O96	0.209500	0.215100	0.448700
O971	O97	0.159600	0.281500	0.519300
O981	O98	0.245900	0.410200	0.542600
O991	O99	0.341600	0.408200	0.593400
O1001	O100	0.466900	0.432100	0.673000
O1011	O101	0.168880	0.716160	0.126900
O1021	O102	0.051400	0.683200	0.080800
O1031	O103	0.041000	0.774000	0.022800
O1041	O104	0.194100	0.901500	0.070700
O1051	O105	0.272300	0.834500	0.103200
O1061	O106	0.290500	0.784900	0.948700
O1071	O107	0.340400	0.718500	0.019300
O1081	O108	0.254100	0.589800	0.042600
O1091	O109	0.158400	0.591800	0.093400
O1101	O110	0.033100	0.567900	0.173000
O1111	O111	0.831120	0.216160	0.373100
O1121	O112	0.948600	0.183200	0.419200
O1131	O113	0.959000	0.274000	0.477200
O1141	O114	0.805900	0.401500	0.429300
O1151	O115	0.727700	0.334500	0.396800
O1161	O116	0.709500	0.284900	0.551300
O1171	O117	0.659600	0.218500	0.480700
O1181	O118	0.745900	0.089800	0.457400
O1191	O119	0.841600	0.091800	0.406600
O1201	O120	0.966900	0.067900	0.327000
O1211	O121	0.126900	0.331120	0.216160
O1221	O122	0.080800	0.448600	0.183200
O1231	O123	0.022800	0.459000	0.274000
O1241	O124	0.070700	0.305900	0.401500
O1251	O125	0.103200	0.227700	0.334500
O1261	O126	0.948700	0.209500	0.284900
O1271	O127	0.019300	0.159600	0.218500
O1281	O128	0.042600	0.245900	0.089800
O1291	O129	0.093400	0.341600	0.091800
O1301	O130	0.173000	0.466900	0.067900
O1311	O131	0.373100	0.668880	0.716160
O1321	O132	0.419200	0.551400	0.683200
O1331	O133	0.477200	0.541000	0.774000
O1341	O134	0.429300	0.694100	0.901500
O1351	O135	0.396800	0.772300	0.834500
O1361	O136	0.551300	0.790500	0.784900
O1371	O137	0.480700	0.840400	0.718500
O1381	O138	0.457400	0.754100	0.589800
O1391	O139	0.406600	0.658400	0.591800
O1401	O140	0.327000	0.533100	0.567900
O1411	O141	0.873100	0.831120	0.283840
O1421	O142	0.919200	0.948600	0.316800
O1431	O143	0.977200	0.959000	0.226000
O1441	O144	0.929300	0.805900	0.098500
O1451	O145	0.896800	0.727700	0.165500
O1461	O146	0.051300	0.709500	0.215100
O1471	O147	0.980700	0.659600	0.281500
O1481	O148	0.957400	0.745900	0.410200
O1491	O149	0.906600	0.841600	0.408200
O1501	O150	0.827000	0.966900	0.432100
O1511	O151	0.626900	0.168880	0.783840
O1521	O152	0.580800	0.051400	0.816800
O1531	O153	0.522800	0.041000	0.726000
O1541	O154	0.570700	0.194100	0.598500
O1551	O155	0.603200	0.272300	0.665500
O1561	O156	0.448700	0.290500	0.715100
O1571	O157	0.519300	0.340400	0.781500
O1581	O158	0.542600	0.254100	0.910200
O1591	O159	0.593400	0.158400	0.908200
O1601	O160	0.673000	0.033100	0.932100
O1611	O161	0.216160	0.126900	0.331120
O1621	O162	0.183200	0.080800	0.448600
O1631	O163	0.274000	0.022800	0.459000
O1641	O164	0.401500	0.070700	0.305900
O1651	O165	0.334500	0.103200	0.227700
O1661	O166	0.284900	0.948700	0.209500
O1671	O167	0.218500	0.019300	0.159600
O1681	O168	0.089800	0.042600	0.245900
O1691	O169	0.091800	0.093400	0.341600
O1701	O170	0.067900	0.173000	0.466900
O1711	O171	0.716160	0.373100	0.668880
O1721	O172	0.683200	0.419200	0.551400
O1731	O173	0.774000	0.477200	0.541000
O1741	O174	0.901500	0.429300	0.694100
O1751	O175	0.834500	0.396800	0.772300
O1761	O176	0.784900	0.551300	0.790500
O1771	O177	0.718500	0.480700	0.840400
O1781	O178	0.589800	0.457400	0.754100
O1791	O179	0.591800	0.406600	0.658400
O1801	O180	0.567900	0.327000	0.533100
O1811	O181	0.283840	0.873100	0.831120
O1821	O182	0.316800	0.919200	0.948600
O1831	O183	0.226000	0.977200	0.959000
O1841	O184	0.098500	0.929300	0.805900
O1851	O185	0.165500	0.896800	0.727700
O1861	O186	0.215100	0.051300	0.709500
O1871	O187	0.281500	0.980700	0.659600
O1881	O188	0.410200	0.957400	0.745900
O1891	O189	0.408200	0.906600	0.841600
O1901	O190	0.432100	0.827000	0.966900
O1911	O191	0.783840	0.626900	0.168880
O1921	O192	0.816800	0.580800	0.051400
O1931	O193	0.726000	0.522800	0.041000
O1941	O194	0.598500	0.570700	0.194100
O1951	O195	0.665500	0.603200	0.272300
O1961	O196	0.715100	0.448700	0.290500
O1971	O197	0.781500	0.519300	0.340400
O1981	O198	0.910200	0.542600	0.254100
O1991	O199	0.908200	0.593400	0.158400
O2001	O200	0.932100	0.673000	0.033100
O2011	O201	0.331120	0.216160	0.126900
O2021	O202	0.448600	0.183200	0.080800
O2031	O203	0.459000	0.274000	0.022800
O2041	O204	0.305900	0.401500	0.070700
O2051	O205	0.227700	0.334500	0.103200
O2061	O206	0.209500	0.284900	0.948700
O2071	O207	0.159600	0.218500	0.019300
O2081	O208	0.245900	0.089800	0.042600
O2091	O209	0.341600	0.091800	0.093400
O2101	O210	0.466900	0.067900	0.173000
O2111	O211	0.668880	0.716160	0.373100
O2121	O212	0.551400	0.683200	0.419200
O2131	O213	0.541000	0.774000	0.477200
O2141	O214	0.694100	0.901500	0.429300
O2151	O215	0.772300	0.834500	0.396800
O2161	O216	0.790500	0.784900	0.551300
O2171	O217	0.840400	0.718500	0.480700
O2181	O218	0.754100	0.589800	0.457400
O2191	O219	0.658400	0.591800	0.406600
O2201	O220	0.533100	0.567900	0.327000
O2211	O221	0.831120	0.283840	0.873100
O2221	O222	0.948600	0.316800	0.919200
O2231	O223	0.959000	0.226000	0.977200
O2241	O224	0.805900	0.098500	0.929300
O2251	O225	0.727700	0.165500	0.896800
O2261	O226	0.709500	0.215100	0.051300
O2271	O227	0.659600	0.281500	0.980700
O2281	O228	0.745900	0.410200	0.957400
O2291	O229	0.841600	0.408200	0.906600
O2301	O230	0.966900	0.432100	0.827000
O2311	O231	0.168880	0.783840	0.626900
O2321	O232	0.051400	0.816800	0.580800
O2331	O233	0.041000	0.726000	0.522800
O2341	O234	0.194100	0.598500	0.570700
O2351	O235	0.272300	0.665500	0.603200
O2361	O236	0.290500	0.715100	0.448700
O2371	O237	0.340400	0.781500	0.519300
O2381	O238	0.254100	0.910200	0.542600
O2391	O239	0.158400	0.908200	0.593400
O2401	O240	0.033100	0.932100	0.673000
