data_XAGCUE_clean_PM
_symmetry_space_group_name_H-M	'P1'
_cell_length_a	20.483000
_cell_length_b	20.483000
_cell_length_c	20.483000
_cell_angle_alpha	90.000000
_cell_angle_beta	90.000000
_cell_angle_gamma	90.000000
_symmetry_Int_Tables_number 1

loop_
_symmetry_equiv_pos_as_xyz
'x,y,z'

loop_
_atom_site_label
_atom_site_type_symbol
_atom_site_fract_x
_atom_site_fract_y
_atom_site_fract_z
Zn11	Zn1	0.608720	0.849650	0.827290
Zn21	Zn2	0.440020	0.753880	0.989280
Zn31	Zn3	0.484480	0.885220	0.903970
Zn41	Zn4	0.891280	0.150350	0.327290
Zn51	Zn5	0.059980	0.246120	0.489280
Zn61	Zn6	0.015520	0.114780	0.403970
Zn71	Zn7	0.391280	0.349650	0.672710
Zn81	Zn8	0.559980	0.253880	0.510720
Zn91	Zn9	0.515520	0.385220	0.596030
Zn101	Zn10	0.108720	0.650350	0.172710
Zn111	Zn11	0.940020	0.746120	0.010720
Zn121	Zn12	0.984480	0.614780	0.096030
Zn131	Zn13	0.827290	0.608720	0.849650
Zn141	Zn14	0.989280	0.440020	0.753880
Zn151	Zn15	0.903970	0.484480	0.885220
Zn161	Zn16	0.327290	0.891280	0.150350
Zn171	Zn17	0.489280	0.059980	0.246120
Zn181	Zn18	0.403970	0.015520	0.114780
Zn191	Zn19	0.672710	0.391280	0.349650
Zn201	Zn20	0.510720	0.559980	0.253880
Zn211	Zn21	0.596030	0.515520	0.385220
Zn221	Zn22	0.172710	0.108720	0.650350
Zn231	Zn23	0.010720	0.940020	0.746120
Zn241	Zn24	0.096030	0.984480	0.614780
Zn251	Zn25	0.849650	0.827290	0.608720
Zn261	Zn26	0.753880	0.989280	0.440020
Zn271	Zn27	0.885220	0.903970	0.484480
Zn281	Zn28	0.150350	0.327290	0.891280
Zn291	Zn29	0.246120	0.489280	0.059980
Zn301	Zn30	0.114780	0.403970	0.015520
Zn311	Zn31	0.349650	0.672710	0.391280
Zn321	Zn32	0.253880	0.510720	0.559980
Zn331	Zn33	0.385220	0.596030	0.515520
Zn341	Zn34	0.650350	0.172710	0.108720
Zn351	Zn35	0.746120	0.010720	0.940020
Zn361	Zn36	0.614780	0.096030	0.984480
Zn371	Zn37	0.391280	0.150350	0.172710
Zn381	Zn38	0.559980	0.246120	0.010720
Zn391	Zn39	0.515520	0.114780	0.096030
Zn401	Zn40	0.108720	0.849650	0.672710
Zn411	Zn41	0.940020	0.753880	0.510720
Zn421	Zn42	0.984480	0.885220	0.596030
Zn431	Zn43	0.608720	0.650350	0.327290
Zn441	Zn44	0.440020	0.746120	0.489280
Zn451	Zn45	0.484480	0.614780	0.403970
Zn461	Zn46	0.891280	0.349650	0.827290
Zn471	Zn47	0.059980	0.253880	0.989280
Zn481	Zn48	0.015520	0.385220	0.903970
Zn491	Zn49	0.172710	0.391280	0.150350
Zn501	Zn50	0.010720	0.559980	0.246120
Zn511	Zn51	0.096030	0.515520	0.114780
Zn521	Zn52	0.672710	0.108720	0.849650
Zn531	Zn53	0.510720	0.940020	0.753880
Zn541	Zn54	0.596030	0.984480	0.885220
Zn551	Zn55	0.327290	0.608720	0.650350
Zn561	Zn56	0.489280	0.440020	0.746120
Zn571	Zn57	0.403970	0.484480	0.614780
Zn581	Zn58	0.827290	0.891280	0.349650
Zn591	Zn59	0.989280	0.059980	0.253880
Zn601	Zn60	0.903970	0.015520	0.385220
Zn611	Zn61	0.150350	0.172710	0.391280
Zn621	Zn62	0.246120	0.010720	0.559980
Zn631	Zn63	0.114780	0.096030	0.515520
Zn641	Zn64	0.849650	0.672710	0.108720
Zn651	Zn65	0.753880	0.510720	0.940020
Zn661	Zn66	0.885220	0.596030	0.984480
Zn671	Zn67	0.650350	0.327290	0.608720
Zn681	Zn68	0.746120	0.489280	0.440020
Zn691	Zn69	0.614780	0.403970	0.484480
Zn701	Zn70	0.349650	0.827290	0.891280
Zn711	Zn71	0.253880	0.989280	0.059980
Zn721	Zn72	0.385220	0.903970	0.015520
H11	H1	0.622200	0.695700	0.887400
H21	H2	0.659500	0.690500	0.004700
H31	H3	0.693900	0.796900	0.009800
H41	H4	0.768000	0.795100	0.893700
H51	H5	0.877800	0.304300	0.387400
H61	H6	0.840500	0.309500	0.504700
H71	H7	0.806100	0.203100	0.509800
H81	H8	0.732000	0.204900	0.393700
H91	H9	0.377800	0.195700	0.612600
H101	H10	0.340500	0.190500	0.495300
H111	H11	0.306100	0.296900	0.490200
H121	H12	0.232000	0.295100	0.606300
H131	H13	0.122200	0.804300	0.112600
H141	H14	0.159500	0.809500	0.995300
H151	H15	0.193900	0.703100	0.990200
H161	H16	0.268000	0.704900	0.106300
H171	H17	0.887400	0.622200	0.695700
H181	H18	0.004700	0.659500	0.690500
H191	H19	0.009800	0.693900	0.796900
H201	H20	0.893700	0.768000	0.795100
H211	H21	0.387400	0.877800	0.304300
H221	H22	0.504700	0.840500	0.309500
H231	H23	0.509800	0.806100	0.203100
H241	H24	0.393700	0.732000	0.204900
H251	H25	0.612600	0.377800	0.195700
H261	H26	0.495300	0.340500	0.190500
H271	H27	0.490200	0.306100	0.296900
H281	H28	0.606300	0.232000	0.295100
H291	H29	0.112600	0.122200	0.804300
H301	H30	0.995300	0.159500	0.809500
H311	H31	0.990200	0.193900	0.703100
H321	H32	0.106300	0.268000	0.704900
H331	H33	0.695700	0.887400	0.622200
H341	H34	0.690500	0.004700	0.659500
H351	H35	0.796900	0.009800	0.693900
H361	H36	0.795100	0.893700	0.768000
H371	H37	0.304300	0.387400	0.877800
H381	H38	0.309500	0.504700	0.840500
H391	H39	0.203100	0.509800	0.806100
H401	H40	0.204900	0.393700	0.732000
H411	H41	0.195700	0.612600	0.377800
H421	H42	0.190500	0.495300	0.340500
H431	H43	0.296900	0.490200	0.306100
H441	H44	0.295100	0.606300	0.232000
H451	H45	0.804300	0.112600	0.122200
H461	H46	0.809500	0.995300	0.159500
H471	H47	0.703100	0.990200	0.193900
H481	H48	0.704900	0.106300	0.268000
H491	H49	0.377800	0.304300	0.112600
H501	H50	0.340500	0.309500	0.995300
H511	H51	0.306100	0.203100	0.990200
H521	H52	0.232000	0.204900	0.106300
H531	H53	0.122200	0.695700	0.612600
H541	H54	0.159500	0.690500	0.495300
H551	H55	0.193900	0.796900	0.490200
H561	H56	0.268000	0.795100	0.606300
H571	H57	0.622200	0.804300	0.387400
H581	H58	0.659500	0.809500	0.504700
H591	H59	0.693900	0.703100	0.509800
H601	H60	0.768000	0.704900	0.393700
H611	H61	0.877800	0.195700	0.887400
H621	H62	0.840500	0.190500	0.004700
H631	H63	0.806100	0.296900	0.009800
H641	H64	0.732000	0.295100	0.893700
H651	H65	0.112600	0.377800	0.304300
H661	H66	0.995300	0.340500	0.309500
H671	H67	0.990200	0.306100	0.203100
H681	H68	0.106300	0.232000	0.204900
H691	H69	0.612600	0.122200	0.695700
H701	H70	0.495300	0.159500	0.690500
H711	H71	0.490200	0.193900	0.796900
H721	H72	0.606300	0.268000	0.795100
H731	H73	0.387400	0.622200	0.804300
H741	H74	0.504700	0.659500	0.809500
H751	H75	0.509800	0.693900	0.703100
H761	H76	0.393700	0.768000	0.704900
H771	H77	0.887400	0.877800	0.195700
H781	H78	0.004700	0.840500	0.190500
H791	H79	0.009800	0.806100	0.296900
H801	H80	0.893700	0.732000	0.295100
H811	H81	0.304300	0.112600	0.377800
H821	H82	0.309500	0.995300	0.340500
H831	H83	0.203100	0.990200	0.306100
H841	H84	0.204900	0.106300	0.232000
H851	H85	0.695700	0.612600	0.122200
H861	H86	0.690500	0.495300	0.159500
H871	H87	0.796900	0.490200	0.193900
H881	H88	0.795100	0.606300	0.268000
H891	H89	0.804300	0.387400	0.622200
H901	H90	0.809500	0.504700	0.659500
H911	H91	0.703100	0.509800	0.693900
H921	H92	0.704900	0.393700	0.768000
H931	H93	0.195700	0.887400	0.877800
H941	H94	0.190500	0.004700	0.840500
H951	H95	0.296900	0.009800	0.806100
H961	H96	0.295100	0.893700	0.732000
C11	C1	0.635300	0.732000	0.915700
C21	C2	0.574100	0.764900	0.942800
C31	C3	0.682000	0.707400	0.965900
C41	C4	0.722300	0.654900	0.932200
C51	C5	0.720400	0.769600	0.980800
C61	C6	0.785900	0.756100	0.015000
C71	C7	0.726200	0.804600	0.914800
C81	C8	0.715000	0.877900	0.920800
C91	C9	0.864700	0.268000	0.415700
C101	C10	0.925900	0.235100	0.442800
C111	C11	0.818000	0.292600	0.465900
C121	C12	0.777700	0.345100	0.432200
C131	C13	0.779600	0.230400	0.480800
C141	C14	0.714100	0.243900	0.515000
C151	C15	0.773800	0.195400	0.414800
C161	C16	0.785000	0.122100	0.420800
C171	C17	0.364700	0.232000	0.584300
C181	C18	0.425900	0.264900	0.557200
C191	C19	0.318000	0.207400	0.534100
C201	C20	0.277700	0.154900	0.567800
C211	C21	0.279600	0.269600	0.519200
C221	C22	0.214100	0.256100	0.485000
C231	C23	0.273800	0.304600	0.585200
C241	C24	0.285000	0.377900	0.579200
C251	C25	0.135300	0.768000	0.084300
C261	C26	0.074100	0.735100	0.057200
C271	C27	0.182000	0.792600	0.034100
C281	C28	0.222300	0.845100	0.067800
C291	C29	0.220400	0.730400	0.019200
C301	C30	0.285900	0.743900	0.985000
C311	C31	0.226200	0.695400	0.085200
C321	C32	0.215000	0.622100	0.079200
C331	C33	0.915700	0.635300	0.732000
C341	C34	0.942800	0.574100	0.764900
C351	C35	0.965900	0.682000	0.707400
C361	C36	0.932200	0.722300	0.654900
C371	C37	0.980800	0.720400	0.769600
C381	C38	0.015000	0.785900	0.756100
C391	C39	0.914800	0.726200	0.804600
C401	C40	0.920800	0.715000	0.877900
C411	C41	0.415700	0.864700	0.268000
C421	C42	0.442800	0.925900	0.235100
C431	C43	0.465900	0.818000	0.292600
C441	C44	0.432200	0.777700	0.345100
C451	C45	0.480800	0.779600	0.230400
C461	C46	0.515000	0.714100	0.243900
C471	C47	0.414800	0.773800	0.195400
C481	C48	0.420800	0.785000	0.122100
C491	C49	0.584300	0.364700	0.232000
C501	C50	0.557200	0.425900	0.264900
C511	C51	0.534100	0.318000	0.207400
C521	C52	0.567800	0.277700	0.154900
C531	C53	0.519200	0.279600	0.269600
C541	C54	0.485000	0.214100	0.256100
C551	C55	0.585200	0.273800	0.304600
C561	C56	0.579200	0.285000	0.377900
C571	C57	0.084300	0.135300	0.768000
C581	C58	0.057200	0.074100	0.735100
C591	C59	0.034100	0.182000	0.792600
C601	C60	0.067800	0.222300	0.845100
C611	C61	0.019200	0.220400	0.730400
C621	C62	0.985000	0.285900	0.743900
C631	C63	0.085200	0.226200	0.695400
C641	C64	0.079200	0.215000	0.622100
C651	C65	0.732000	0.915700	0.635300
C661	C66	0.764900	0.942800	0.574100
C671	C67	0.707400	0.965900	0.682000
C681	C68	0.654900	0.932200	0.722300
C691	C69	0.769600	0.980800	0.720400
C701	C70	0.756100	0.015000	0.785900
C711	C71	0.804600	0.914800	0.726200
C721	C72	0.877900	0.920800	0.715000
C731	C73	0.268000	0.415700	0.864700
C741	C74	0.235100	0.442800	0.925900
C751	C75	0.292600	0.465900	0.818000
C761	C76	0.345100	0.432200	0.777700
C771	C77	0.230400	0.480800	0.779600
C781	C78	0.243900	0.515000	0.714100
C791	C79	0.195400	0.414800	0.773800
C801	C80	0.122100	0.420800	0.785000
C811	C81	0.232000	0.584300	0.364700
C821	C82	0.264900	0.557200	0.425900
C831	C83	0.207400	0.534100	0.318000
C841	C84	0.154900	0.567800	0.277700
C851	C85	0.269600	0.519200	0.279600
C861	C86	0.256100	0.485000	0.214100
C871	C87	0.304600	0.585200	0.273800
C881	C88	0.377900	0.579200	0.285000
C891	C89	0.768000	0.084300	0.135300
C901	C90	0.735100	0.057200	0.074100
C911	C91	0.792600	0.034100	0.182000
C921	C92	0.845100	0.067800	0.222300
C931	C93	0.730400	0.019200	0.220400
C941	C94	0.743900	0.985000	0.285900
C951	C95	0.695400	0.085200	0.226200
C961	C96	0.622100	0.079200	0.215000
C971	C97	0.364700	0.268000	0.084300
C981	C98	0.425900	0.235100	0.057200
C991	C99	0.318000	0.292600	0.034100
C1001	C100	0.277700	0.345100	0.067800
C1011	C101	0.279600	0.230400	0.019200
C1021	C102	0.214100	0.243900	0.985000
C1031	C103	0.273800	0.195400	0.085200
C1041	C104	0.285000	0.122100	0.079200
C1051	C105	0.135300	0.732000	0.584300
C1061	C106	0.074100	0.764900	0.557200
C1071	C107	0.182000	0.707400	0.534100
C1081	C108	0.222300	0.654900	0.567800
C1091	C109	0.220400	0.769600	0.519200
C1101	C110	0.285900	0.756100	0.485000
C1111	C111	0.226200	0.804600	0.585200
C1121	C112	0.215000	0.877900	0.579200
C1131	C113	0.635300	0.768000	0.415700
C1141	C114	0.574100	0.735100	0.442800
C1151	C115	0.682000	0.792600	0.465900
C1161	C116	0.722300	0.845100	0.432200
C1171	C117	0.720400	0.730400	0.480800
C1181	C118	0.785900	0.743900	0.515000
C1191	C119	0.726200	0.695400	0.414800
C1201	C120	0.715000	0.622100	0.420800
C1211	C121	0.864700	0.232000	0.915700
C1221	C122	0.925900	0.264900	0.942800
C1231	C123	0.818000	0.207400	0.965900
C1241	C124	0.777700	0.154900	0.932200
C1251	C125	0.779600	0.269600	0.980800
C1261	C126	0.714100	0.256100	0.015000
C1271	C127	0.773800	0.304600	0.914800
C1281	C128	0.785000	0.377900	0.920800
C1291	C129	0.084300	0.364700	0.268000
C1301	C130	0.057200	0.425900	0.235100
C1311	C131	0.034100	0.318000	0.292600
C1321	C132	0.067800	0.277700	0.345100
C1331	C133	0.019200	0.279600	0.230400
C1341	C134	0.985000	0.214100	0.243900
C1351	C135	0.085200	0.273800	0.195400
C1361	C136	0.079200	0.285000	0.122100
C1371	C137	0.584300	0.135300	0.732000
C1381	C138	0.557200	0.074100	0.764900
C1391	C139	0.534100	0.182000	0.707400
C1401	C140	0.567800	0.222300	0.654900
C1411	C141	0.519200	0.220400	0.769600
C1421	C142	0.485000	0.285900	0.756100
C1431	C143	0.585200	0.226200	0.804600
C1441	C144	0.579200	0.215000	0.877900
C1451	C145	0.415700	0.635300	0.768000
C1461	C146	0.442800	0.574100	0.735100
C1471	C147	0.465900	0.682000	0.792600
C1481	C148	0.432200	0.722300	0.845100
C1491	C149	0.480800	0.720400	0.730400
C1501	C150	0.515000	0.785900	0.743900
C1511	C151	0.414800	0.726200	0.695400
C1521	C152	0.420800	0.715000	0.622100
C1531	C153	0.915700	0.864700	0.232000
C1541	C154	0.942800	0.925900	0.264900
C1551	C155	0.965900	0.818000	0.207400
C1561	C156	0.932200	0.777700	0.154900
C1571	C157	0.980800	0.779600	0.269600
C1581	C158	0.015000	0.714100	0.256100
C1591	C159	0.914800	0.773800	0.304600
C1601	C160	0.920800	0.785000	0.377900
C1611	C161	0.268000	0.084300	0.364700
C1621	C162	0.235100	0.057200	0.425900
C1631	C163	0.292600	0.034100	0.318000
C1641	C164	0.345100	0.067800	0.277700
C1651	C165	0.230400	0.019200	0.279600
C1661	C166	0.243900	0.985000	0.214100
C1671	C167	0.195400	0.085200	0.273800
C1681	C168	0.122100	0.079200	0.285000
C1691	C169	0.732000	0.584300	0.135300
C1701	C170	0.764900	0.557200	0.074100
C1711	C171	0.707400	0.534100	0.182000
C1721	C172	0.654900	0.567800	0.222300
C1731	C173	0.769600	0.519200	0.220400
C1741	C174	0.756100	0.485000	0.285900
C1751	C175	0.804600	0.585200	0.226200
C1761	C176	0.877900	0.579200	0.215000
C1771	C177	0.768000	0.415700	0.635300
C1781	C178	0.735100	0.442800	0.574100
C1791	C179	0.792600	0.465900	0.682000
C1801	C180	0.845100	0.432200	0.722300
C1811	C181	0.730400	0.480800	0.720400
C1821	C182	0.743900	0.515000	0.785900
C1831	C183	0.695400	0.414800	0.726200
C1841	C184	0.622100	0.420800	0.715000
C1851	C185	0.232000	0.915700	0.864700
C1861	C186	0.264900	0.942800	0.925900
C1871	C187	0.207400	0.965900	0.818000
C1881	C188	0.154900	0.932200	0.777700
C1891	C189	0.269600	0.980800	0.779600
C1901	C190	0.256100	0.015000	0.714100
C1911	C191	0.304600	0.914800	0.773800
C1921	C192	0.377900	0.920800	0.785000
O11	O1	0.671700	0.780100	0.876600
O21	O2	0.556400	0.814400	0.913500
O31	O3	0.543100	0.736800	0.986200
O41	O4	0.701800	0.594900	0.943800
O51	O5	0.767300	0.668300	0.897900
O61	O6	0.780500	0.722400	0.065700
O71	O7	0.839000	0.777400	0.993000
O81	O8	0.758900	0.912500	0.948000
O91	O9	0.663300	0.902600	0.901800
O101	O10	0.543700	0.921500	0.841400
O111	O11	0.828300	0.219900	0.376600
O121	O12	0.943600	0.185600	0.413500
O131	O13	0.956900	0.263200	0.486200
O141	O14	0.798200	0.405100	0.443800
O151	O15	0.732700	0.331700	0.397900
O161	O16	0.719500	0.277600	0.565700
O171	O17	0.661000	0.222600	0.493000
O181	O18	0.741100	0.087500	0.448000
O191	O19	0.836700	0.097400	0.401800
O201	O20	0.956300	0.078500	0.341400
O211	O21	0.328300	0.280100	0.623400
O221	O22	0.443600	0.314400	0.586500
O231	O23	0.456900	0.236800	0.513800
O241	O24	0.298200	0.094900	0.556200
O251	O25	0.232700	0.168300	0.602100
O261	O26	0.219500	0.222400	0.434300
O271	O27	0.161000	0.277400	0.507000
O281	O28	0.241100	0.412500	0.552000
O291	O29	0.336700	0.402600	0.598200
O301	O30	0.456300	0.421500	0.658600
O311	O31	0.171700	0.719900	0.123400
O321	O32	0.056400	0.685600	0.086500
O331	O33	0.043100	0.763200	0.013800
O341	O34	0.201800	0.905100	0.056200
O351	O35	0.267300	0.831700	0.102100
O361	O36	0.280500	0.777600	0.934300
O371	O37	0.339000	0.722600	0.007000
O381	O38	0.258900	0.587500	0.052000
O391	O39	0.163300	0.597400	0.098200
O401	O40	0.043700	0.578500	0.158600
O411	O41	0.876600	0.671700	0.780100
O421	O42	0.913500	0.556400	0.814400
O431	O43	0.986200	0.543100	0.736800
O441	O44	0.943800	0.701800	0.594900
O451	O45	0.897900	0.767300	0.668300
O461	O46	0.065700	0.780500	0.722400
O471	O47	0.993000	0.839000	0.777400
O481	O48	0.948000	0.758900	0.912500
O491	O49	0.901800	0.663300	0.902600
O501	O50	0.841400	0.543700	0.921500
O511	O51	0.376600	0.828300	0.219900
O521	O52	0.413500	0.943600	0.185600
O531	O53	0.486200	0.956900	0.263200
O541	O54	0.443800	0.798200	0.405100
O551	O55	0.397900	0.732700	0.331700
O561	O56	0.565700	0.719500	0.277600
O571	O57	0.493000	0.661000	0.222600
O581	O58	0.448000	0.741100	0.087500
O591	O59	0.401800	0.836700	0.097400
O601	O60	0.341400	0.956300	0.078500
O611	O61	0.623400	0.328300	0.280100
O621	O62	0.586500	0.443600	0.314400
O631	O63	0.513800	0.456900	0.236800
O641	O64	0.556200	0.298200	0.094900
O651	O65	0.602100	0.232700	0.168300
O661	O66	0.434300	0.219500	0.222400
O671	O67	0.507000	0.161000	0.277400
O681	O68	0.552000	0.241100	0.412500
O691	O69	0.598200	0.336700	0.402600
O701	O70	0.658600	0.456300	0.421500
O711	O71	0.123400	0.171700	0.719900
O721	O72	0.086500	0.056400	0.685600
O731	O73	0.013800	0.043100	0.763200
O741	O74	0.056200	0.201800	0.905100
O751	O75	0.102100	0.267300	0.831700
O761	O76	0.934300	0.280500	0.777600
O771	O77	0.007000	0.339000	0.722600
O781	O78	0.052000	0.258900	0.587500
O791	O79	0.098200	0.163300	0.597400
O801	O80	0.158600	0.043700	0.578500
O811	O81	0.780100	0.876600	0.671700
O821	O82	0.814400	0.913500	0.556400
O831	O83	0.736800	0.986200	0.543100
O841	O84	0.594900	0.943800	0.701800
O851	O85	0.668300	0.897900	0.767300
O861	O86	0.722400	0.065700	0.780500
O871	O87	0.777400	0.993000	0.839000
O881	O88	0.912500	0.948000	0.758900
O891	O89	0.902600	0.901800	0.663300
O901	O90	0.921500	0.841400	0.543700
O911	O91	0.219900	0.376600	0.828300
O921	O92	0.185600	0.413500	0.943600
O931	O93	0.263200	0.486200	0.956900
O941	O94	0.405100	0.443800	0.798200
O951	O95	0.331700	0.397900	0.732700
O961	O96	0.277600	0.565700	0.719500
O971	O97	0.222600	0.493000	0.661000
O981	O98	0.087500	0.448000	0.741100
O991	O99	0.097400	0.401800	0.836700
O1001	O100	0.078500	0.341400	0.956300
O1011	O101	0.280100	0.623400	0.328300
O1021	O102	0.314400	0.586500	0.443600
O1031	O103	0.236800	0.513800	0.456900
O1041	O104	0.094900	0.556200	0.298200
O1051	O105	0.168300	0.602100	0.232700
O1061	O106	0.222400	0.434300	0.219500
O1071	O107	0.277400	0.507000	0.161000
O1081	O108	0.412500	0.552000	0.241100
O1091	O109	0.402600	0.598200	0.336700
O1101	O110	0.421500	0.658600	0.456300
O1111	O111	0.719900	0.123400	0.171700
O1121	O112	0.685600	0.086500	0.056400
O1131	O113	0.763200	0.013800	0.043100
O1141	O114	0.905100	0.056200	0.201800
O1151	O115	0.831700	0.102100	0.267300
O1161	O116	0.777600	0.934300	0.280500
O1171	O117	0.722600	0.007000	0.339000
O1181	O118	0.587500	0.052000	0.258900
O1191	O119	0.597400	0.098200	0.163300
O1201	O120	0.578500	0.158600	0.043700
O1211	O121	0.328300	0.219900	0.123400
O1221	O122	0.443600	0.185600	0.086500
O1231	O123	0.456900	0.263200	0.013800
O1241	O124	0.298200	0.405100	0.056200
O1251	O125	0.232700	0.331700	0.102100
O1261	O126	0.219500	0.277600	0.934300
O1271	O127	0.161000	0.222600	0.007000
O1281	O128	0.241100	0.087500	0.052000
O1291	O129	0.336700	0.097400	0.098200
O1301	O130	0.456300	0.078500	0.158600
O1311	O131	0.171700	0.780100	0.623400
O1321	O132	0.056400	0.814400	0.586500
O1331	O133	0.043100	0.736800	0.513800
O1341	O134	0.201800	0.594900	0.556200
O1351	O135	0.267300	0.668300	0.602100
O1361	O136	0.280500	0.722400	0.434300
O1371	O137	0.339000	0.777400	0.507000
O1381	O138	0.258900	0.912500	0.552000
O1391	O139	0.163300	0.902600	0.598200
O1401	O140	0.043700	0.921500	0.658600
O1411	O141	0.671700	0.719900	0.376600
O1421	O142	0.556400	0.685600	0.413500
O1431	O143	0.543100	0.763200	0.486200
O1441	O144	0.701800	0.905100	0.443800
O1451	O145	0.767300	0.831700	0.397900
O1461	O146	0.780500	0.777600	0.565700
O1471	O147	0.839000	0.722600	0.493000
O1481	O148	0.758900	0.587500	0.448000
O1491	O149	0.663300	0.597400	0.401800
O1501	O150	0.543700	0.578500	0.341400
O1511	O151	0.828300	0.280100	0.876600
O1521	O152	0.943600	0.314400	0.913500
O1531	O153	0.956900	0.236800	0.986200
O1541	O154	0.798200	0.094900	0.943800
O1551	O155	0.732700	0.168300	0.897900
O1561	O156	0.719500	0.222400	0.065700
O1571	O157	0.661000	0.277400	0.993000
O1581	O158	0.741100	0.412500	0.948000
O1591	O159	0.836700	0.402600	0.901800
O1601	O160	0.956300	0.421500	0.841400
O1611	O161	0.123400	0.328300	0.219900
O1621	O162	0.086500	0.443600	0.185600
O1631	O163	0.013800	0.456900	0.263200
O1641	O164	0.056200	0.298200	0.405100
O1651	O165	0.102100	0.232700	0.331700
O1661	O166	0.934300	0.219500	0.277600
O1671	O167	0.007000	0.161000	0.222600
O1681	O168	0.052000	0.241100	0.087500
O1691	O169	0.098200	0.336700	0.097400
O1701	O170	0.158600	0.456300	0.078500
O1711	O171	0.623400	0.171700	0.780100
O1721	O172	0.586500	0.056400	0.814400
O1731	O173	0.513800	0.043100	0.736800
O1741	O174	0.556200	0.201800	0.594900
O1751	O175	0.602100	0.267300	0.668300
O1761	O176	0.434300	0.280500	0.722400
O1771	O177	0.507000	0.339000	0.777400
O1781	O178	0.552000	0.258900	0.912500
O1791	O179	0.598200	0.163300	0.902600
O1801	O180	0.658600	0.043700	0.921500
O1811	O181	0.376600	0.671700	0.719900
O1821	O182	0.413500	0.556400	0.685600
O1831	O183	0.486200	0.543100	0.763200
O1841	O184	0.443800	0.701800	0.905100
O1851	O185	0.397900	0.767300	0.831700
O1861	O186	0.565700	0.780500	0.777600
O1871	O187	0.493000	0.839000	0.722600
O1881	O188	0.448000	0.758900	0.587500
O1891	O189	0.401800	0.663300	0.597400
O1901	O190	0.341400	0.543700	0.578500
O1911	O191	0.876600	0.828300	0.280100
O1921	O192	0.913500	0.943600	0.314400
O1931	O193	0.986200	0.956900	0.236800
O1941	O194	0.943800	0.798200	0.094900
O1951	O195	0.897900	0.732700	0.168300
O1961	O196	0.065700	0.719500	0.222400
O1971	O197	0.993000	0.661000	0.277400
O1981	O198	0.948000	0.741100	0.412500
O1991	O199	0.901800	0.836700	0.402600
O2001	O200	0.841400	0.956300	0.421500
O2011	O201	0.219900	0.123400	0.328300
O2021	O202	0.185600	0.086500	0.443600
O2031	O203	0.263200	0.013800	0.456900
O2041	O204	0.405100	0.056200	0.298200
O2051	O205	0.331700	0.102100	0.232700
O2061	O206	0.277600	0.934300	0.219500
O2071	O207	0.222600	0.007000	0.161000
O2081	O208	0.087500	0.052000	0.241100
O2091	O209	0.097400	0.098200	0.336700
O2101	O210	0.078500	0.158600	0.456300
O2111	O211	0.780100	0.623400	0.171700
O2121	O212	0.814400	0.586500	0.056400
O2131	O213	0.736800	0.513800	0.043100
O2141	O214	0.594900	0.556200	0.201800
O2151	O215	0.668300	0.602100	0.267300
O2161	O216	0.722400	0.434300	0.280500
O2171	O217	0.777400	0.507000	0.339000
O2181	O218	0.912500	0.552000	0.258900
O2191	O219	0.902600	0.598200	0.163300
O2201	O220	0.921500	0.658600	0.043700
O2211	O221	0.719900	0.376600	0.671700
O2221	O222	0.685600	0.413500	0.556400
O2231	O223	0.763200	0.486200	0.543100
O2241	O224	0.905100	0.443800	0.701800
O2251	O225	0.831700	0.397900	0.767300
O2261	O226	0.777600	0.565700	0.780500
O2271	O227	0.722600	0.493000	0.839000
O2281	O228	0.587500	0.448000	0.758900
O2291	O229	0.597400	0.401800	0.663300
O2301	O230	0.578500	0.341400	0.543700
O2311	O231	0.280100	0.876600	0.828300
O2321	O232	0.314400	0.913500	0.943600
O2331	O233	0.236800	0.986200	0.956900
O2341	O234	0.094900	0.943800	0.798200
O2351	O235	0.168300	0.897900	0.732700
O2361	O236	0.222400	0.065700	0.719500
O2371	O237	0.277400	0.993000	0.661000
O2381	O238	0.412500	0.948000	0.741100
O2391	O239	0.402600	0.901800	0.836700
O2401	O240	0.421500	0.841400	0.956300
