data_XAGPUT_clean_PM
_symmetry_space_group_name_H-M	'P1'
_cell_length_a	10.477200
_cell_length_b	15.675300
_cell_length_c	12.770800
_cell_angle_alpha	90.000000
_cell_angle_beta	102.047000
_cell_angle_gamma	90.000000
_symmetry_Int_Tables_number 1

loop_
_symmetry_equiv_pos_as_xyz
'x,y,z'

loop_
_atom_site_label
_atom_site_type_symbol
_atom_site_fract_x
_atom_site_fract_y
_atom_site_fract_z
O11	O1	0.855900	0.596460	0.216670
O21	O2	0.533800	0.849120	0.147900
O31	O3	0.955200	0.561450	0.087250
O41	O4	0.675900	0.948260	0.140200
C11	C1	0.877500	0.608820	0.123400
C21	C2	0.694000	0.813690	0.052600
C31	C3	0.810200	0.680040	0.057200
C41	C4	0.752800	0.743260	0.107600
C51	C5	0.631700	0.876100	0.115600
H11	H1	0.753940	0.738030	0.182720
O51	O5	0.355900	0.096460	0.216670
O61	O6	0.033800	0.349120	0.147900
O71	O7	0.455200	0.061450	0.087250
O81	O8	0.175900	0.448260	0.140200
C61	C6	0.377500	0.108820	0.123400
C71	C7	0.194000	0.313690	0.052600
C81	C8	0.310200	0.180040	0.057200
C91	C9	0.252800	0.243260	0.107600
C101	C10	0.131700	0.376100	0.115600
H21	H2	0.253940	0.238030	0.182720
O91	O9	0.144100	0.596460	0.283330
O101	O10	0.466200	0.849120	0.352100
O111	O11	0.044800	0.561450	0.412750
O121	O12	0.324100	0.948260	0.359800
C111	C11	0.122500	0.608820	0.376600
C121	C12	0.306000	0.813690	0.447400
C131	C13	0.189800	0.680040	0.442800
C141	C14	0.247200	0.743260	0.392400
C151	C15	0.368300	0.876100	0.384400
H31	H3	0.246060	0.738030	0.317280
O131	O13	0.644100	0.096460	0.283330
O141	O14	0.966200	0.349120	0.352100
O151	O15	0.544800	0.061450	0.412750
O161	O16	0.824100	0.448260	0.359800
C161	C16	0.622500	0.108820	0.376600
C171	C17	0.806000	0.313690	0.447400
C181	C18	0.689800	0.180040	0.442800
C191	C19	0.747200	0.243260	0.392400
C201	C20	0.868300	0.376100	0.384400
H41	H4	0.746060	0.238030	0.317280
O171	O17	0.144100	0.403540	0.783330
O181	O18	0.466200	0.150880	0.852100
O191	O19	0.044800	0.438550	0.912750
O201	O20	0.324100	0.051740	0.859800
C211	C21	0.122500	0.391180	0.876600
C221	C22	0.306000	0.186310	0.947400
C231	C23	0.189800	0.319960	0.942800
C241	C24	0.247200	0.256740	0.892400
C251	C25	0.368300	0.123900	0.884400
H51	H5	0.246060	0.261970	0.817280
O211	O21	0.644100	0.903540	0.783330
O221	O22	0.966200	0.650880	0.852100
O231	O23	0.544800	0.938550	0.912750
O241	O24	0.824100	0.551740	0.859800
C261	C26	0.622500	0.891180	0.876600
C271	C27	0.806000	0.686310	0.947400
C281	C28	0.689800	0.819960	0.942800
C291	C29	0.747200	0.756740	0.892400
C301	C30	0.868300	0.623900	0.884400
H61	H6	0.746060	0.761970	0.817280
O251	O25	0.855900	0.403540	0.716670
O261	O26	0.533800	0.150880	0.647900
O271	O27	0.955200	0.438550	0.587250
O281	O28	0.675900	0.051740	0.640200
C311	C31	0.877500	0.391180	0.623400
C321	C32	0.694000	0.186310	0.552600
C331	C33	0.810200	0.319960	0.557200
C341	C34	0.752800	0.256740	0.607600
C351	C35	0.631700	0.123900	0.615600
H71	H7	0.753940	0.261970	0.682720
O291	O29	0.355900	0.903540	0.716670
O301	O30	0.033800	0.650880	0.647900
O311	O31	0.455200	0.938550	0.587250
O321	O32	0.175900	0.551740	0.640200
C361	C36	0.377500	0.891180	0.623400
C371	C37	0.194000	0.686310	0.552600
C381	C38	0.310200	0.819960	0.557200
C391	C39	0.252800	0.756740	0.607600
C401	C40	0.131700	0.623900	0.615600
H81	H8	0.253940	0.761970	0.682720
U11	U1	0.000000	0.471750	0.250000
U21	U2	0.500000	0.971750	0.250000
U31	U3	0.000000	0.528250	0.750000
U41	U4	0.500000	0.028250	0.750000
