data_XAHPUT_clean_PM
_symmetry_space_group_name_H-M	'P1'
_cell_length_a	30.949200
_cell_length_b	30.949200
_cell_length_c	45.913600
_cell_angle_alpha	70.303500
_cell_angle_beta	70.303500
_cell_angle_gamma	89.999900
_symmetry_Int_Tables_number 1

loop_
_symmetry_equiv_pos_as_xyz
'x,y,z'

loop_
_atom_site_label
_atom_site_type_symbol
_atom_site_fract_x
_atom_site_fract_y
_atom_site_fract_z
Cu11	Cu1	0.638880	0.081580	0.780240
Cu21	Cu2	0.580880	0.138180	0.780240
Cu31	Cu3	0.831580	0.830880	0.280240
Cu41	Cu4	0.888180	0.888880	0.280240
Cu51	Cu5	0.169120	0.168420	0.719760
Cu61	Cu6	0.111120	0.111820	0.719760
Cu71	Cu7	0.861820	0.419120	0.219760
Cu81	Cu8	0.918420	0.361120	0.219760
H11	H1	0.713200	0.126500	0.888000
H21	H2	0.691300	0.103300	0.851400
H31	H3	0.596800	0.192300	0.852400
H41	H4	0.618800	0.215700	0.888800
H51	H5	0.929200	0.151100	0.835400
H61	H6	0.981900	0.133600	0.792600
H71	H7	0.085000	0.205200	0.798400
H81	H8	0.032300	0.222800	0.841200
H91	H9	0.672500	0.200700	0.973800
H101	H10	0.807800	0.184400	0.898800
H111	H11	0.909600	0.218700	0.925800
H121	H12	0.854700	0.232400	0.970400
H131	H13	0.742500	0.163000	0.910200
H141	H14	0.662500	0.207800	0.925800
H151	H15	0.887300	0.175700	0.866400
H161	H16	0.956000	0.218400	0.880400
H171	H17	0.398800	0.985500	0.888000
H181	H18	0.457300	0.045300	0.851400
H191	H19	0.550800	0.955300	0.852400
H201	H20	0.492400	0.895500	0.888800
H211	H21	0.235400	0.013500	0.835400
H221	H22	0.225500	0.073800	0.792600
H231	H23	0.116600	0.996400	0.798400
H241	H24	0.126500	0.936000	0.841200
H251	H25	0.353700	0.825500	0.973800
H261	H26	0.293400	0.916800	0.898800
H271	H27	0.164600	0.855500	0.925800
H281	H28	0.174900	0.797200	0.970400
H291	H29	0.347300	0.926800	0.910200
H301	H30	0.411700	0.866400	0.925800
H311	H31	0.246300	0.957900	0.866400
H321	H32	0.163600	0.901200	0.880400
H331	H33	0.876500	0.648800	0.388000
H341	H34	0.853300	0.707300	0.351400
H351	H35	0.942300	0.800800	0.352400
H361	H36	0.965700	0.742400	0.388800
H371	H37	0.901100	0.485400	0.335400
H381	H38	0.883600	0.475500	0.292600
H391	H39	0.955200	0.366600	0.298400
H401	H40	0.972800	0.376500	0.341200
H411	H41	0.950700	0.603700	0.473800
H421	H42	0.934400	0.543400	0.398800
H431	H43	0.968700	0.414600	0.425800
H441	H44	0.982400	0.424900	0.470400
H451	H45	0.913000	0.597300	0.410200
H461	H46	0.957800	0.661700	0.425800
H471	H47	0.925700	0.496300	0.366400
H481	H48	0.968400	0.413600	0.380400
H491	H49	0.735500	0.963200	0.388000
H501	H50	0.795300	0.941300	0.351400
H511	H51	0.705300	0.846800	0.352400
H521	H52	0.645500	0.868800	0.388800
H531	H53	0.763500	0.179200	0.335400
H541	H54	0.823800	0.231900	0.292600
H551	H55	0.746400	0.335000	0.298400
H561	H56	0.686000	0.282300	0.341200
H571	H57	0.575500	0.922500	0.473800
H581	H58	0.666800	0.057800	0.398800
H591	H59	0.605500	0.159600	0.425800
H601	H60	0.547200	0.104700	0.470400
H611	H61	0.676800	0.992500	0.410200
H621	H62	0.616400	0.912500	0.425800
H631	H63	0.707900	0.137300	0.366400
H641	H64	0.651200	0.206000	0.380400
H651	H65	0.351200	0.123500	0.612000
H661	H66	0.292700	0.146700	0.648600
H671	H67	0.199200	0.057700	0.647600
H681	H68	0.257600	0.034300	0.611200
H691	H69	0.514600	0.098900	0.664600
H701	H70	0.524500	0.116400	0.707400
H711	H71	0.633400	0.044800	0.701600
H721	H72	0.623500	0.027200	0.658800
H731	H73	0.396300	0.049300	0.526200
H741	H74	0.456600	0.065600	0.601200
H751	H75	0.585400	0.031300	0.574200
H761	H76	0.575100	0.017600	0.529600
H771	H77	0.402700	0.087000	0.589800
H781	H78	0.338300	0.042200	0.574200
H791	H79	0.503700	0.074300	0.633600
H801	H80	0.586400	0.031600	0.619600
H811	H81	0.036800	0.264500	0.612000
H821	H82	0.058700	0.204700	0.648600
H831	H83	0.153200	0.294700	0.647600
H841	H84	0.131200	0.354500	0.611200
H851	H85	0.820800	0.236500	0.664600
H861	H86	0.768100	0.176200	0.707400
H871	H87	0.665000	0.253600	0.701600
H881	H88	0.717700	0.314000	0.658800
H891	H89	0.077500	0.424500	0.526200
H901	H90	0.942200	0.333200	0.601200
H911	H91	0.840400	0.394500	0.574200
H921	H92	0.895300	0.452800	0.529600
H931	H93	0.007500	0.323200	0.589800
H941	H94	0.087500	0.383600	0.574200
H951	H95	0.862700	0.292100	0.633600
H961	H96	0.794000	0.348800	0.619600
H971	H97	0.014500	0.601200	0.112000
H981	H98	0.954700	0.542700	0.148600
H991	H99	0.044700	0.449200	0.147600
H1001	H100	0.104500	0.507600	0.111200
H1011	H101	0.986500	0.764600	0.164600
H1021	H102	0.926200	0.774500	0.207400
H1031	H103	0.003600	0.883400	0.201600
H1041	H104	0.064000	0.873500	0.158800
H1051	H105	0.174500	0.646300	0.026200
H1061	H106	0.083200	0.706600	0.101200
H1071	H107	0.144500	0.835400	0.074200
H1081	H108	0.202800	0.825100	0.029600
H1091	H109	0.073200	0.652700	0.089800
H1101	H110	0.133600	0.588300	0.074200
H1111	H111	0.042100	0.753700	0.133600
H1121	H112	0.098800	0.836400	0.119600
H1131	H113	0.873500	0.286800	0.112000
H1141	H114	0.896700	0.308700	0.148600
H1151	H115	0.807700	0.403200	0.147600
H1161	H116	0.784300	0.381200	0.111200
H1171	H117	0.848900	0.070800	0.164600
H1181	H118	0.866400	0.018100	0.207400
H1191	H119	0.794800	0.915000	0.201600
H1201	H120	0.777200	0.967700	0.158800
H1211	H121	0.799300	0.327500	0.026200
H1221	H122	0.815600	0.192200	0.101200
H1231	H123	0.781300	0.090400	0.074200
H1241	H124	0.767600	0.145300	0.029600
H1251	H125	0.837000	0.257500	0.089800
H1261	H126	0.792200	0.337500	0.074200
H1271	H127	0.824300	0.112700	0.133600
H1281	H128	0.781600	0.044000	0.119600
C11	C1	0.668160	0.173460	0.892080
C21	C2	0.689900	0.139800	0.880800
C31	C3	0.676700	0.125700	0.859000
C41	C4	0.641860	0.145460	0.848280
C51	C5	0.620200	0.179200	0.859400
C61	C6	0.633300	0.193100	0.881400
C71	C7	0.641900	0.228200	0.018400
C81	C8	0.644700	0.263600	0.984600
C91	C9	0.975530	0.188730	0.842540
C101	C10	0.960400	0.162000	0.828000
C111	C11	0.992000	0.151400	0.802400
C121	C12	0.038680	0.167680	0.791240
C131	C13	0.053800	0.194400	0.805800
C141	C14	0.022200	0.204900	0.831400
C151	C15	0.628900	0.130200	0.825600
C161	C16	0.074300	0.156700	0.765800
C171	C17	0.764400	0.225200	0.987200
C181	C18	0.717660	0.219460	0.991880
C191	C19	0.703800	0.204600	0.970600
C201	C20	0.736610	0.195510	0.944780
C211	C21	0.783310	0.201210	0.940180
C221	C22	0.797200	0.216100	0.961400
C231	C23	0.817600	0.193700	0.913000
C241	C24	0.865300	0.199300	0.907000
C251	C25	0.878400	0.214300	0.929000
C261	C26	0.845100	0.222700	0.956200
C271	C27	0.723100	0.179900	0.921200
C281	C28	0.681700	0.190300	0.915200
C291	C29	0.897800	0.189700	0.878200
C301	C30	0.944700	0.202600	0.870000
C311	C31	0.439760	0.934460	0.892080
C321	C32	0.429300	0.979400	0.880800
C331	C33	0.464300	0.015300	0.859000
C341	C34	0.509860	0.006260	0.848280
C351	C35	0.520400	0.961400	0.859400
C361	C36	0.485300	0.925500	0.881400
C371	C37	0.339700	0.753400	0.018400
C381	C38	0.370700	0.751800	0.984600
C391	C39	0.181930	0.968730	0.842540
C401	C40	0.211600	0.010000	0.828000
C411	C41	0.205600	0.046200	0.802400
C421	C42	0.170080	0.041080	0.791240
C431	C43	0.140400	0.999800	0.805800
C441	C44	0.146400	0.963700	0.831400
C451	C45	0.545500	0.044200	0.825600
C461	C46	0.159900	0.077500	0.765800
C471	C47	0.248400	0.787600	0.987200
C481	C48	0.290460	0.788660	0.991880
C491	C49	0.325600	0.824800	0.970600
C501	C50	0.318610	0.859710	0.944780
C511	C51	0.276510	0.858610	0.940180
C521	C52	0.241400	0.822500	0.961400
C531	C53	0.269400	0.893300	0.913000
C541	C54	0.227700	0.893700	0.907000
C551	C55	0.192600	0.856700	0.929000
C561	C56	0.198700	0.821100	0.956200
C571	C57	0.355700	0.898900	0.921200
C581	C58	0.403100	0.894500	0.915200
C591	C59	0.224000	0.932100	0.878200
C601	C60	0.185300	0.927400	0.870000
C611	C61	0.923460	0.689760	0.392080
C621	C62	0.889800	0.679300	0.380800
C631	C63	0.875700	0.714300	0.359000
C641	C64	0.895460	0.759860	0.348280
C651	C65	0.929200	0.770400	0.359400
C661	C66	0.943100	0.735300	0.381400
C671	C67	0.978200	0.589700	0.518400
C681	C68	0.013600	0.620700	0.484600
C691	C69	0.938730	0.431930	0.342540
C701	C70	0.912000	0.461600	0.328000
C711	C71	0.901400	0.455600	0.302400
C721	C72	0.917680	0.420080	0.291240
C731	C73	0.944400	0.390400	0.305800
C741	C74	0.954900	0.396400	0.331400
C751	C75	0.880200	0.795500	0.325600
C761	C76	0.906700	0.409900	0.265800
C771	C77	0.975200	0.498400	0.487200
C781	C78	0.969460	0.540460	0.491880
C791	C79	0.954600	0.575600	0.470600
C801	C80	0.945510	0.568610	0.444780
C811	C81	0.951210	0.526510	0.440180
C821	C82	0.966100	0.491400	0.461400
C831	C83	0.943700	0.519400	0.413000
C841	C84	0.949300	0.477700	0.407000
C851	C85	0.964300	0.442600	0.429000
C861	C86	0.972700	0.448700	0.456200
C871	C87	0.929900	0.605700	0.421200
C881	C88	0.940300	0.653100	0.415200
C891	C89	0.939700	0.474000	0.378200
C901	C90	0.952600	0.435300	0.370000
C911	C91	0.684460	0.918160	0.392080
C921	C92	0.729400	0.939900	0.380800
C931	C93	0.765300	0.926700	0.359000
C941	C94	0.756260	0.891860	0.348280
C951	C95	0.711400	0.870200	0.359400
C961	C96	0.675500	0.883300	0.381400
C971	C97	0.503400	0.891900	0.518400
C981	C98	0.501800	0.894700	0.484600
C991	C99	0.718730	0.225530	0.342540
C1001	C100	0.760000	0.210400	0.328000
C1011	C101	0.796200	0.242000	0.302400
C1021	C102	0.791080	0.288680	0.291240
C1031	C103	0.749800	0.303800	0.305800
C1041	C104	0.713700	0.272200	0.331400
C1051	C105	0.794200	0.878900	0.325600
C1061	C106	0.827500	0.324300	0.265800
C1071	C107	0.537600	0.014400	0.487200
C1081	C108	0.538660	0.967660	0.491880
C1091	C109	0.574800	0.953800	0.470600
C1101	C110	0.609710	0.986610	0.444780
C1111	C111	0.608610	0.033310	0.440180
C1121	C112	0.572500	0.047200	0.461400
C1131	C113	0.643300	0.067600	0.413000
C1141	C114	0.643700	0.115300	0.407000
C1151	C115	0.606700	0.128400	0.429000
C1161	C116	0.571100	0.095100	0.456200
C1171	C117	0.648900	0.973100	0.421200
C1181	C118	0.644500	0.931700	0.415200
C1191	C119	0.682100	0.147800	0.378200
C1201	C120	0.677400	0.194700	0.370000
C1211	C121	0.310240	0.076540	0.607920
C1221	C122	0.320700	0.110200	0.619200
C1231	C123	0.285700	0.124300	0.641000
C1241	C124	0.240140	0.104540	0.651720
C1251	C125	0.229600	0.070800	0.640600
C1261	C126	0.264700	0.056900	0.618600
C1271	C127	0.410300	0.021800	0.481600
C1281	C128	0.379300	0.986400	0.515400
C1291	C129	0.568070	0.061270	0.657460
C1301	C130	0.538400	0.088000	0.672000
C1311	C131	0.544400	0.098600	0.697600
C1321	C132	0.579920	0.082320	0.708760
C1331	C133	0.609600	0.055600	0.694200
C1341	C134	0.603600	0.045100	0.668600
C1351	C135	0.204500	0.119800	0.674400
C1361	C136	0.590100	0.093300	0.734200
C1371	C137	0.501600	0.024800	0.512800
C1381	C138	0.459540	0.030540	0.508120
C1391	C139	0.424400	0.045400	0.529400
C1401	C140	0.431390	0.054490	0.555220
C1411	C141	0.473490	0.048790	0.559820
C1421	C142	0.508600	0.033900	0.538600
C1431	C143	0.480600	0.056300	0.587000
C1441	C144	0.522300	0.050700	0.593000
C1451	C145	0.557400	0.035700	0.571000
C1461	C146	0.551300	0.027300	0.543800
C1471	C147	0.394300	0.070100	0.578800
C1481	C148	0.346900	0.059700	0.584800
C1491	C149	0.526000	0.060300	0.621800
C1501	C150	0.564700	0.047400	0.630000
C1511	C151	0.081840	0.315540	0.607920
C1521	C152	0.060100	0.270600	0.619200
C1531	C153	0.073300	0.234700	0.641000
C1541	C154	0.108140	0.243740	0.651720
C1551	C155	0.129800	0.288600	0.640600
C1561	C156	0.116700	0.324500	0.618600
C1571	C157	0.108100	0.496600	0.481600
C1581	C158	0.105300	0.498200	0.515400
C1591	C159	0.774470	0.281270	0.657460
C1601	C160	0.789600	0.240000	0.672000
C1611	C161	0.758000	0.203800	0.697600
C1621	C162	0.711320	0.208920	0.708760
C1631	C163	0.696200	0.250200	0.694200
C1641	C164	0.727800	0.286300	0.668600
C1651	C165	0.121100	0.205800	0.674400
C1661	C166	0.675700	0.172500	0.734200
C1671	C167	0.985600	0.462400	0.512800
C1681	C168	0.032340	0.461340	0.508120
C1691	C169	0.046200	0.425200	0.529400
C1701	C170	0.013390	0.390290	0.555220
C1711	C171	0.966690	0.391390	0.559820
C1721	C172	0.952800	0.427500	0.538600
C1731	C173	0.932400	0.356700	0.587000
C1741	C174	0.884700	0.356300	0.593000
C1751	C175	0.871600	0.393300	0.571000
C1761	C176	0.904900	0.428900	0.543800
C1771	C177	0.026900	0.351100	0.578800
C1781	C178	0.068300	0.355500	0.584800
C1791	C179	0.852200	0.317900	0.621800
C1801	C180	0.805300	0.322600	0.630000
C1811	C181	0.065540	0.560240	0.107920
C1821	C182	0.020600	0.570700	0.119200
C1831	C183	0.984700	0.535700	0.141000
C1841	C184	0.993740	0.490140	0.151720
C1851	C185	0.038600	0.479600	0.140600
C1861	C186	0.074500	0.514700	0.118600
C1871	C187	0.246600	0.660300	0.981600
C1881	C188	0.248200	0.629300	0.015400
C1891	C189	0.031270	0.818070	0.157460
C1901	C190	0.990000	0.788400	0.172000
C1911	C191	0.953800	0.794400	0.197600
C1921	C192	0.958920	0.829920	0.208760
C1931	C193	0.000200	0.859600	0.194200
C1941	C194	0.036300	0.853600	0.168600
C1951	C195	0.955800	0.454500	0.174400
C1961	C196	0.922500	0.840100	0.234200
C1971	C197	0.212400	0.751600	0.012800
C1981	C198	0.211340	0.709540	0.008120
C1991	C199	0.175200	0.674400	0.029400
C2001	C200	0.140290	0.681390	0.055220
C2011	C201	0.141390	0.723490	0.059820
C2021	C202	0.177500	0.758600	0.038600
C2031	C203	0.106700	0.730600	0.087000
C2041	C204	0.106300	0.772300	0.093000
C2051	C205	0.143300	0.807400	0.071000
C2061	C206	0.178900	0.801300	0.043800
C2071	C207	0.101100	0.644300	0.078800
C2081	C208	0.105500	0.596900	0.084800
C2091	C209	0.067900	0.776000	0.121800
C2101	C210	0.072600	0.814700	0.130000
C2111	C211	0.826540	0.331840	0.107920
C2121	C212	0.860200	0.310100	0.119200
C2131	C213	0.874300	0.323300	0.141000
C2141	C214	0.854540	0.358140	0.151720
C2151	C215	0.820800	0.379800	0.140600
C2161	C216	0.806900	0.366700	0.118600
C2171	C217	0.771800	0.358100	0.981600
C2181	C218	0.736400	0.355300	0.015400
C2191	C219	0.811270	0.024470	0.157460
C2201	C220	0.838000	0.039600	0.172000
C2211	C221	0.848600	0.008000	0.197600
C2221	C222	0.832320	0.961320	0.208760
C2231	C223	0.805600	0.946200	0.194200
C2241	C224	0.795100	0.977800	0.168600
C2251	C225	0.869800	0.371100	0.174400
C2261	C226	0.843300	0.925700	0.234200
C2271	C227	0.774800	0.235600	0.012800
C2281	C228	0.780540	0.282340	0.008120
C2291	C229	0.795400	0.296200	0.029400
C2301	C230	0.804490	0.263390	0.055220
C2311	C231	0.798790	0.216690	0.059820
C2321	C232	0.783900	0.202800	0.038600
C2331	C233	0.806300	0.182400	0.087000
C2341	C234	0.800700	0.134700	0.093000
C2351	C235	0.785700	0.121600	0.071000
C2361	C236	0.777300	0.154900	0.043800
C2371	C237	0.820100	0.276900	0.078800
C2381	C238	0.809700	0.318300	0.084800
C2391	C239	0.810300	0.102200	0.121800
C2401	C240	0.797400	0.055300	0.130000
O11	O1	0.648000	0.097300	0.816600
O21	O2	0.598300	0.148700	0.813800
O31	O3	0.117100	0.174400	0.757000
O41	O4	0.066000	0.130600	0.751200
O51	O5	0.687900	0.226200	0.018200
O61	O6	0.535400	0.086100	0.816600
O71	O7	0.587900	0.037500	0.813800
O81	O8	0.125900	0.068600	0.757000
O91	O9	0.182800	0.118200	0.751200
O101	O10	0.293900	0.755600	0.018200
O111	O11	0.847300	0.785400	0.316600
O121	O12	0.898700	0.837900	0.313800
O131	O13	0.924400	0.375900	0.257000
O141	O14	0.880600	0.432800	0.251200
O151	O15	0.976200	0.543900	0.518200
O161	O16	0.836100	0.898000	0.316600
O171	O17	0.787500	0.848300	0.313800
O181	O18	0.818600	0.367100	0.257000
O191	O19	0.868200	0.316000	0.251200
O201	O20	0.505600	0.937900	0.518200
O211	O21	0.214600	0.152700	0.683400
O221	O22	0.162100	0.101300	0.686200
O231	O23	0.624100	0.075600	0.743000
O241	O24	0.567200	0.119400	0.748800
O251	O25	0.456100	0.023800	0.481800
O261	O26	0.102000	0.163900	0.683400
O271	O27	0.151700	0.212500	0.686200
O281	O28	0.632900	0.181400	0.743000
O291	O29	0.684000	0.131800	0.748800
O301	O30	0.062100	0.494400	0.481800
O311	O31	0.913900	0.464600	0.183400
O321	O32	0.962500	0.412100	0.186200
O331	O33	0.931400	0.874100	0.243000
O341	O34	0.881800	0.817200	0.248800
O351	O35	0.244400	0.706100	0.981800
O361	O36	0.902700	0.352000	0.183400
O371	O37	0.851300	0.401700	0.186200
O381	O38	0.825600	0.882900	0.243000
O391	O39	0.869400	0.934000	0.248800
O401	O40	0.773800	0.312100	0.981800
