data_XAHPON_clean_PM
_symmetry_space_group_name_H-M	'P1'
_cell_length_a	23.849000
_cell_length_b	23.849000
_cell_length_c	40.257400
_cell_angle_alpha	107.230000
_cell_angle_beta	107.230000
_cell_angle_gamma	90.000200
_symmetry_Int_Tables_number 1

loop_
_symmetry_equiv_pos_as_xyz
'x,y,z'

loop_
_atom_site_label
_atom_site_type_symbol
_atom_site_fract_x
_atom_site_fract_y
_atom_site_fract_z
Cu11	Cu1	0.901920	0.904310	0.728700
Cu21	Cu2	0.826780	0.824390	0.728700
Cu31	Cu3	0.154310	0.576780	0.228700
Cu41	Cu4	0.074390	0.651920	0.228700
Cu51	Cu5	0.423220	0.845690	0.771300
Cu61	Cu6	0.348080	0.925610	0.771300
Cu71	Cu7	0.175610	0.173220	0.271300
Cu81	Cu8	0.095690	0.098080	0.271300
H11	H1	0.236400	0.626900	0.636000
H21	H2	0.310000	0.690000	0.685200
H31	H3	0.200700	0.819200	0.690400
H41	H4	0.127100	0.756100	0.641200
H51	H5	0.895500	0.600400	0.608400
H61	H6	0.868000	0.670400	0.653600
H71	H7	0.959900	0.799000	0.639600
H81	H8	0.987500	0.729100	0.594600
H91	H9	0.882300	0.578800	0.540800
H101	H10	0.185100	0.601000	0.577600
H111	H11	0.111600	0.537000	0.529600
H121	H12	0.059200	0.678100	0.619200
H131	H13	0.912000	0.470800	0.474200
H141	H14	0.399600	0.009100	0.636000
H151	H15	0.375200	0.995200	0.685200
H161	H16	0.489700	0.871200	0.690400
H171	H17	0.514100	0.885100	0.641200
H181	H18	0.712900	0.008000	0.608400
H191	H19	0.785600	0.983200	0.653600
H201	H20	0.679700	0.840600	0.639600
H211	H21	0.607100	0.865500	0.594600
H221	H22	0.658500	0.962000	0.540800
H231	H23	0.392500	0.976600	0.577600
H241	H24	0.418000	0.992600	0.529600
H251	H25	0.560000	0.941100	0.619200
H261	H26	0.562200	0.003400	0.474200
H271	H27	0.876900	0.149600	0.136000
H281	H28	0.940000	0.125200	0.185200
H291	H29	0.069200	0.239700	0.190400
H301	H30	0.006100	0.264100	0.141200
H311	H31	0.850400	0.462900	0.108400
H321	H32	0.920400	0.535600	0.153600
H331	H33	0.049000	0.429700	0.139600
H341	H34	0.979100	0.357100	0.094600
H351	H35	0.828800	0.408500	0.040800
H361	H36	0.851000	0.142500	0.077600
H371	H37	0.787000	0.168000	0.029600
H381	H38	0.928100	0.310000	0.119200
H391	H39	0.720800	0.312200	0.974200
H401	H40	0.259100	0.986400	0.136000
H411	H41	0.245200	0.060000	0.185200
H421	H42	0.121200	0.950700	0.190400
H431	H43	0.135100	0.877100	0.141200
H441	H44	0.258000	0.645500	0.108400
H451	H45	0.233200	0.618000	0.153600
H461	H46	0.090600	0.709900	0.139600
H471	H47	0.115500	0.737500	0.094600
H481	H48	0.212000	0.632300	0.040800
H491	H49	0.226600	0.935100	0.077600
H501	H50	0.242600	0.861600	0.029600
H511	H51	0.191100	0.809200	0.119200
H521	H52	0.253400	0.662000	0.974200
H531	H53	0.850400	0.123100	0.864000
H541	H54	0.874800	0.060000	0.814800
H551	H55	0.760300	0.930800	0.809600
H561	H56	0.735900	0.993900	0.858800
H571	H57	0.537100	0.149600	0.891600
H581	H58	0.464400	0.079600	0.846400
H591	H59	0.570300	0.951000	0.860400
H601	H60	0.642900	0.020900	0.905400
H611	H61	0.591500	0.171200	0.959200
H621	H62	0.857500	0.149000	0.922400
H631	H63	0.832000	0.213000	0.970400
H641	H64	0.690000	0.071900	0.880800
H651	H65	0.687800	0.279200	0.025800
H661	H66	0.013600	0.740900	0.864000
H671	H67	0.940000	0.754800	0.814800
H681	H68	0.049300	0.878800	0.809600
H691	H69	0.122900	0.864900	0.858800
H701	H70	0.354500	0.742000	0.891600
H711	H71	0.382000	0.766800	0.846400
H721	H72	0.290100	0.909400	0.860400
H731	H73	0.262500	0.884500	0.905400
H741	H74	0.367700	0.788000	0.959200
H751	H75	0.064900	0.773400	0.922400
H761	H76	0.138400	0.757400	0.970400
H771	H77	0.190800	0.808900	0.880800
H781	H78	0.338000	0.746600	0.025800
H791	H79	0.990900	0.600400	0.364000
H801	H80	0.004800	0.624800	0.314800
H811	H81	0.128800	0.510300	0.309600
H821	H82	0.114900	0.485900	0.358800
H831	H83	0.992000	0.287100	0.391600
H841	H84	0.016800	0.214400	0.346400
H851	H85	0.159400	0.320300	0.360400
H861	H86	0.134500	0.392900	0.405400
H871	H87	0.038000	0.341500	0.459200
H881	H88	0.023400	0.607500	0.422400
H891	H89	0.007400	0.582000	0.470400
H901	H90	0.058900	0.440000	0.380800
H911	H91	0.996600	0.437800	0.525800
H921	H92	0.373100	0.763600	0.364000
H931	H93	0.310000	0.690000	0.314800
H941	H94	0.180800	0.799300	0.309600
H951	H95	0.243900	0.872900	0.358800
H961	H96	0.399600	0.104500	0.391600
H971	H97	0.329600	0.132000	0.346400
H981	H98	0.201000	0.040100	0.360400
H991	H99	0.270900	0.012500	0.405400
H1001	H100	0.421200	0.117700	0.459200
H1011	H101	0.399000	0.814900	0.422400
H1021	H102	0.463000	0.888400	0.470400
H1031	H103	0.321900	0.940800	0.380800
H1041	H104	0.529200	0.088000	0.525800
C11	C1	0.898600	0.789600	0.679000
C21	C2	0.174640	0.685440	0.633880
C31	C3	0.229180	0.665680	0.646960
C41	C4	0.273030	0.703330	0.676260
C51	C5	0.262330	0.760630	0.692460
C61	C6	0.207890	0.780390	0.679380
C71	C7	0.164040	0.742840	0.650080
C81	C8	0.944180	0.657980	0.597160
C91	C9	0.908480	0.640480	0.614760
C101	C10	0.892040	0.682240	0.641680
C111	C11	0.911290	0.741490	0.650980
C121	C12	0.946890	0.758990	0.633380
C131	C13	0.963330	0.717230	0.606460
C141	C14	0.965950	0.614250	0.570700
C151	C15	0.024740	0.610340	0.572080
C161	C16	0.039570	0.568370	0.544540
C171	C17	0.995600	0.530200	0.515600
C181	C18	0.936810	0.534110	0.514220
C191	C19	0.921980	0.576180	0.541760
C201	C20	0.128460	0.644860	0.602920
C211	C21	0.145300	0.603500	0.576400
C221	C22	0.307600	0.803100	0.721400
C231	C23	0.100890	0.565690	0.547780
C241	C24	0.069340	0.648940	0.600880
C251	C25	0.780400	0.889400	0.679000
C261	C26	0.459240	0.948440	0.633880
C271	C27	0.417780	0.981280	0.646960
C281	C28	0.403230	0.972930	0.676260
C291	C29	0.430130	0.931830	0.692460
C301	C30	0.471490	0.898990	0.679380
C311	C31	0.486040	0.907240	0.650080
C321	C32	0.652980	0.939180	0.597160
C331	C33	0.706280	0.974280	0.614760
C341	C34	0.749640	0.959440	0.641680
C351	C35	0.739690	0.909490	0.650980
C361	C36	0.686490	0.874390	0.633380
C371	C37	0.643130	0.889230	0.606460
C381	C38	0.604750	0.956450	0.570700
C391	C39	0.547340	0.961740	0.572080
C401	C40	0.504970	0.976170	0.544540
C411	C41	0.520000	0.985400	0.515600
C421	C42	0.577410	0.980110	0.514220
C431	C43	0.619780	0.965580	0.541760
C441	C44	0.474460	0.958060	0.602920
C451	C45	0.431100	0.972900	0.576400
C461	C46	0.413800	0.918300	0.721400
C471	C47	0.446890	0.982090	0.547780
C481	C48	0.531540	0.951940	0.600880
C491	C49	0.039600	0.530400	0.179000
C501	C50	0.935440	0.209240	0.133880
C511	C51	0.915680	0.167780	0.146960
C521	C52	0.953330	0.153230	0.176260
C531	C53	0.010630	0.180130	0.192460
C541	C54	0.030390	0.221490	0.179380
C551	C55	0.992840	0.236040	0.150080
C561	C56	0.907980	0.402980	0.097160
C571	C57	0.890480	0.456280	0.114760
C581	C58	0.932240	0.499640	0.141680
C591	C59	0.991490	0.489690	0.150980
C601	C60	0.008990	0.436490	0.133380
C611	C61	0.967230	0.393130	0.106460
C621	C62	0.864250	0.354750	0.070700
C631	C63	0.860340	0.297340	0.072080
C641	C64	0.818370	0.254970	0.044540
C651	C65	0.780200	0.270000	0.015600
C661	C66	0.784110	0.327410	0.014220
C671	C67	0.826180	0.369780	0.041760
C681	C68	0.894860	0.224460	0.102920
C691	C69	0.853500	0.181100	0.076400
C701	C70	0.053100	0.163800	0.221400
C711	C71	0.815690	0.196890	0.047780
C721	C72	0.898940	0.281540	0.100880
C731	C73	0.139400	0.648600	0.179000
C741	C74	0.198440	0.924640	0.133880
C751	C75	0.231280	0.979180	0.146960
C761	C76	0.222930	0.023030	0.176260
C771	C77	0.181830	0.012330	0.192460
C781	C78	0.148990	0.957890	0.179380
C791	C79	0.157240	0.914040	0.150080
C801	C80	0.189180	0.694180	0.097160
C811	C81	0.224280	0.658480	0.114760
C821	C82	0.209440	0.642040	0.141680
C831	C83	0.159490	0.661290	0.150980
C841	C84	0.124390	0.696890	0.133380
C851	C85	0.139230	0.713330	0.106460
C861	C86	0.206450	0.715950	0.070700
C871	C87	0.211740	0.774740	0.072080
C881	C88	0.226170	0.789570	0.044540
C891	C89	0.235400	0.745600	0.015600
C901	C90	0.230110	0.686810	0.014220
C911	C91	0.215580	0.671980	0.041760
C921	C92	0.208060	0.878460	0.102920
C931	C93	0.222900	0.895300	0.076400
C941	C94	0.168300	0.057600	0.221400
C951	C95	0.232090	0.850890	0.047780
C961	C96	0.201940	0.819340	0.100880
C971	C97	0.469600	0.960400	0.821000
C981	C98	0.790760	0.064560	0.866120
C991	C99	0.832220	0.084320	0.853040
C1001	C100	0.846770	0.046670	0.823740
C1011	C101	0.819870	0.989370	0.807540
C1021	C102	0.778510	0.969610	0.820620
C1031	C103	0.763960	0.007160	0.849920
C1041	C104	0.597020	0.092020	0.902840
C1051	C105	0.543720	0.109520	0.885240
C1061	C106	0.500360	0.067760	0.858320
C1071	C107	0.510310	0.008510	0.849020
C1081	C108	0.563510	0.991010	0.866620
C1091	C109	0.606870	0.032770	0.893540
C1101	C110	0.645250	0.135750	0.929300
C1111	C111	0.702660	0.139660	0.927920
C1121	C112	0.745030	0.181630	0.955460
C1131	C113	0.730000	0.219800	0.984400
C1141	C114	0.672590	0.215890	0.985780
C1151	C115	0.630220	0.173820	0.958240
C1161	C116	0.775540	0.105140	0.897080
C1171	C117	0.818900	0.146500	0.923600
C1181	C118	0.836200	0.946900	0.778600
C1191	C119	0.803110	0.184310	0.952220
C1201	C120	0.718460	0.101060	0.899120
C1211	C121	0.351400	0.860600	0.821000
C1221	C122	0.075360	0.801560	0.866120
C1231	C123	0.020820	0.768720	0.853040
C1241	C124	0.976970	0.777070	0.823740
C1251	C125	0.987670	0.818170	0.807540
C1261	C126	0.042110	0.851010	0.820620
C1271	C127	0.085960	0.842760	0.849920
C1281	C128	0.305820	0.810820	0.902840
C1291	C129	0.341520	0.775720	0.885240
C1301	C130	0.357960	0.790560	0.858320
C1311	C131	0.338710	0.840510	0.849020
C1321	C132	0.303110	0.875610	0.866620
C1331	C133	0.286670	0.860770	0.893540
C1341	C134	0.284050	0.793550	0.929300
C1351	C135	0.225260	0.788260	0.927920
C1361	C136	0.210430	0.773830	0.955460
C1371	C137	0.254400	0.764600	0.984400
C1381	C138	0.313190	0.769890	0.985780
C1391	C139	0.328020	0.784420	0.958240
C1401	C140	0.121540	0.791940	0.897080
C1411	C141	0.104700	0.777100	0.923600
C1421	C142	0.942400	0.831700	0.778600
C1431	C143	0.149110	0.767910	0.952220
C1441	C144	0.180660	0.798060	0.899120
C1451	C145	0.110600	0.219600	0.321000
C1461	C146	0.051560	0.540760	0.366120
C1471	C147	0.018720	0.582220	0.353040
C1481	C148	0.027070	0.596770	0.323740
C1491	C149	0.068170	0.569870	0.307540
C1501	C150	0.101010	0.528510	0.320620
C1511	C151	0.092760	0.513960	0.349920
C1521	C152	0.060820	0.347020	0.402840
C1531	C153	0.025720	0.293720	0.385240
C1541	C154	0.040560	0.250360	0.358320
C1551	C155	0.090510	0.260310	0.349020
C1561	C156	0.125610	0.313510	0.366620
C1571	C157	0.110770	0.356870	0.393540
C1581	C158	0.043550	0.395250	0.429300
C1591	C159	0.038260	0.452660	0.427920
C1601	C160	0.023830	0.495030	0.455460
C1611	C161	0.014600	0.480000	0.484400
C1621	C162	0.019890	0.422590	0.485780
C1631	C163	0.034420	0.380220	0.458240
C1641	C164	0.041940	0.525540	0.397080
C1651	C165	0.027100	0.568900	0.423600
C1661	C166	0.081700	0.586200	0.278600
C1671	C167	0.017910	0.553110	0.452220
C1681	C168	0.048060	0.468460	0.399120
C1691	C169	0.210400	0.101400	0.321000
C1701	C170	0.314560	0.825360	0.366120
C1711	C171	0.334320	0.770820	0.353040
C1721	C172	0.296670	0.726970	0.323740
C1731	C173	0.239370	0.737670	0.307540
C1741	C174	0.219610	0.792110	0.320620
C1751	C175	0.257160	0.835960	0.349920
C1761	C176	0.342020	0.055820	0.402840
C1771	C177	0.359520	0.091520	0.385240
C1781	C178	0.317760	0.107960	0.358320
C1791	C179	0.258510	0.088710	0.349020
C1801	C180	0.241010	0.053110	0.366620
C1811	C181	0.282770	0.036670	0.393540
C1821	C182	0.385750	0.034050	0.429300
C1831	C183	0.389660	0.975260	0.427920
C1841	C184	0.431630	0.960430	0.455460
C1851	C185	0.469800	0.004400	0.484400
C1861	C186	0.465890	0.063190	0.485780
C1871	C187	0.423820	0.078020	0.458240
C1881	C188	0.355140	0.871540	0.397080
C1891	C189	0.396500	0.854700	0.423600
C1901	C190	0.196900	0.692400	0.278600
C1911	C191	0.434310	0.899110	0.452220
C1921	C192	0.351060	0.930660	0.399120
O11	O1	0.917940	0.841440	0.690480
O21	O2	0.359520	0.797220	0.732640
O31	O3	0.293340	0.862840	0.734680
O41	O4	0.858610	0.770410	0.693620
O51	O5	0.895700	0.495600	0.486600
O61	O6	0.772540	0.849040	0.690480
O71	O7	0.373120	0.935420	0.732640
O81	O8	0.441340	0.871840	0.734680
O91	O9	0.835010	0.923210	0.693620
O101	O10	0.590900	0.991000	0.486600
O111	O11	0.091440	0.522540	0.190480
O121	O12	0.047220	0.123120	0.232640
O131	O13	0.112840	0.191340	0.234680
O141	O14	0.020410	0.585010	0.193620
O151	O15	0.745600	0.340900	0.986600
O161	O16	0.099040	0.667940	0.190480
O171	O17	0.185420	0.109520	0.232640
O181	O18	0.121840	0.043340	0.234680
O191	O19	0.173210	0.608610	0.193620
O201	O20	0.241000	0.645700	0.986600
O211	O21	0.477460	0.908560	0.809520
O221	O22	0.876880	0.952780	0.767360
O231	O23	0.808660	0.887160	0.765320
O241	O24	0.414990	0.979590	0.806380
O251	O25	0.659100	0.254400	0.013400
O261	O26	0.332060	0.900960	0.809520
O271	O27	0.890480	0.814580	0.767360
O281	O28	0.956660	0.878160	0.765320
O291	O29	0.391390	0.826790	0.806380
O301	O30	0.354300	0.759000	0.013400
O311	O31	0.150960	0.227460	0.309520
O321	O32	0.064580	0.626880	0.267360
O331	O33	0.128160	0.558660	0.265320
O341	O34	0.076790	0.164990	0.306380
O351	O35	0.009000	0.409100	0.513400
O361	O36	0.158560	0.082060	0.309520
O371	O37	0.202780	0.640480	0.267360
O381	O38	0.137160	0.706660	0.265320
O391	O39	0.229590	0.141390	0.306380
O401	O40	0.504400	0.104300	0.513400
