data_XAHPIH_clean_PM
_symmetry_space_group_name_H-M	'P1'
_cell_length_a	21.049000
_cell_length_b	21.049000
_cell_length_c	32.542200
_cell_angle_alpha	108.869000
_cell_angle_beta	108.869000
_cell_angle_gamma	90.000100
_symmetry_Int_Tables_number 1

loop_
_symmetry_equiv_pos_as_xyz
'x,y,z'

loop_
_atom_site_label
_atom_site_type_symbol
_atom_site_fract_x
_atom_site_fract_y
_atom_site_fract_z
Cu11	Cu1	0.909650	0.895350	0.719320
Cu21	Cu2	0.809670	0.823970	0.719320
Cu31	Cu3	0.145350	0.559670	0.219320
Cu41	Cu4	0.073970	0.659650	0.219320
Cu51	Cu5	0.440330	0.854650	0.780680
Cu61	Cu6	0.340350	0.926030	0.780680
Cu71	Cu7	0.176030	0.190330	0.280680
Cu81	Cu8	0.104650	0.090350	0.280680
H11	H1	0.672200	0.943900	0.540800
H21	H2	0.743400	0.953000	0.611000
H31	H3	0.495000	0.909400	0.681200
H41	H4	0.569200	0.922700	0.642400
H51	H5	0.406500	0.989000	0.536400
H61	H6	0.384700	0.977400	0.599200
H71	H7	0.382700	0.970500	0.666600
H81	H8	0.646300	0.883300	0.622000
H91	H9	0.868600	0.596900	0.540800
H101	H10	0.867600	0.658000	0.611000
H111	H11	0.186200	0.771800	0.681200
H121	H12	0.073200	0.719700	0.642400
H131	H13	0.129900	0.547400	0.536400
H141	H14	0.214500	0.621800	0.599200
H151	H15	0.283900	0.696100	0.666600
H161	H16	0.975700	0.738700	0.622000
H171	H17	0.193900	0.618600	0.040800
H181	H18	0.203000	0.617600	0.111000
H191	H19	0.159400	0.936200	0.181200
H201	H20	0.172700	0.823200	0.142400
H211	H21	0.239000	0.879900	0.036400
H221	H22	0.227400	0.964500	0.099200
H231	H23	0.220500	0.033900	0.166600
H241	H24	0.133300	0.725700	0.122000
H251	H25	0.846900	0.422200	0.040800
H261	H26	0.908000	0.493400	0.111000
H271	H27	0.021800	0.245000	0.181200
H281	H28	0.969700	0.319200	0.142400
H291	H29	0.797400	0.156500	0.036400
H301	H30	0.871800	0.134700	0.099200
H311	H31	0.946100	0.132700	0.166600
H321	H32	0.988700	0.396300	0.122000
H331	H33	0.381400	0.806100	0.959200
H341	H34	0.382400	0.797000	0.889000
H351	H35	0.063800	0.840600	0.818800
H361	H36	0.176800	0.827300	0.857600
H371	H37	0.120100	0.761000	0.963600
H381	H38	0.035500	0.772600	0.900800
H391	H39	0.966100	0.779500	0.833400
H401	H40	0.274300	0.866700	0.878000
H411	H41	0.577800	0.153100	0.959200
H421	H42	0.506600	0.092000	0.889000
H431	H43	0.755000	0.978200	0.818800
H441	H44	0.680800	0.030300	0.857600
H451	H45	0.843500	0.202600	0.963600
H461	H46	0.865300	0.128200	0.900800
H471	H47	0.867300	0.053900	0.833400
H481	H48	0.603700	0.011300	0.878000
H491	H49	0.403100	0.131400	0.459200
H501	H50	0.342000	0.132400	0.389000
H511	H51	0.228200	0.813800	0.318800
H521	H52	0.280300	0.926800	0.357600
H531	H53	0.452600	0.870100	0.463600
H541	H54	0.378200	0.785500	0.400800
H551	H55	0.303900	0.716100	0.333400
H561	H56	0.261300	0.024300	0.378000
H571	H57	0.056100	0.327800	0.459200
H581	H58	0.047000	0.256600	0.389000
H591	H59	0.090600	0.505000	0.318800
H601	H60	0.077300	0.430800	0.357600
H611	H61	0.011000	0.593500	0.463600
H621	H62	0.022600	0.615300	0.400800
H631	H63	0.029500	0.617300	0.333400
H641	H64	0.116700	0.353700	0.378000
C11	C1	0.408500	0.926600	0.715600
C21	C2	0.616430	0.938530	0.580460
C31	C3	0.629650	0.950050	0.544100
C41	C4	0.579790	0.970690	0.512580
C51	C5	0.516910	0.979810	0.517420
C61	C6	0.503780	0.968280	0.553760
C71	C7	0.553540	0.947640	0.585280
C81	C8	0.775100	0.897200	0.658600
C91	C9	0.725520	0.925420	0.623240
C101	C10	0.462800	0.932800	0.666000
C111	C11	0.536740	0.937940	0.621280
C121	C12	0.476400	0.949100	0.627400
C131	C13	0.440560	0.977260	0.558720
C141	C14	0.426810	0.969310	0.595620
C151	C15	0.415480	0.946080	0.680160
C161	C16	0.663270	0.912670	0.610540
C171	C17	0.307100	0.789000	0.715600
C181	C18	0.964030	0.641930	0.580460
C191	C19	0.914450	0.594050	0.544100
C201	C20	0.932790	0.541890	0.512580
C211	C21	0.000510	0.537610	0.517420
C221	C22	0.049980	0.585480	0.553760
C231	C23	0.031740	0.637640	0.585280
C241	C24	0.883500	0.761400	0.658600
C251	C25	0.897720	0.697820	0.623240
C261	C26	0.203200	0.733200	0.666000
C271	C27	0.084540	0.683340	0.621280
C281	C28	0.151000	0.678300	0.627400
C291	C29	0.118160	0.581460	0.558720
C301	C30	0.168810	0.626310	0.595620
C311	C31	0.264680	0.734080	0.680160
C321	C32	0.947270	0.697870	0.610540
C331	C33	0.176600	0.057100	0.215600
C341	C34	0.188530	0.714030	0.080460
C351	C35	0.200050	0.664450	0.044100
C361	C36	0.220690	0.682790	0.012580
C371	C37	0.229810	0.750510	0.017420
C381	C38	0.218280	0.799980	0.053760
C391	C39	0.197640	0.781740	0.085280
C401	C40	0.147200	0.633500	0.158600
C411	C41	0.175420	0.647720	0.123240
C421	C42	0.182800	0.953200	0.166000
C431	C43	0.187940	0.834540	0.121280
C441	C44	0.199100	0.901000	0.127400
C451	C45	0.227260	0.868160	0.058720
C461	C46	0.219310	0.918810	0.095620
C471	C47	0.196080	0.014680	0.180160
C481	C48	0.162670	0.697270	0.110540
C491	C49	0.039000	0.158500	0.215600
C501	C50	0.891930	0.366430	0.080460
C511	C51	0.844050	0.379650	0.044100
C521	C52	0.791890	0.329790	0.012580
C531	C53	0.787610	0.266910	0.017420
C541	C54	0.835480	0.253780	0.053760
C551	C55	0.887640	0.303540	0.085280
C561	C56	0.011400	0.525100	0.158600
C571	C57	0.947820	0.475520	0.123240
C581	C58	0.983200	0.212800	0.166000
C591	C59	0.933340	0.286740	0.121280
C601	C60	0.928300	0.226400	0.127400
C611	C61	0.831460	0.190560	0.058720
C621	C62	0.876310	0.176810	0.095620
C631	C63	0.984080	0.165480	0.180160
C641	C64	0.947870	0.413270	0.110540
C651	C65	0.942900	0.823400	0.784400
C661	C66	0.285970	0.811470	0.919540
C671	C67	0.335550	0.799950	0.955900
C681	C68	0.317210	0.779310	0.987420
C691	C69	0.249490	0.770190	0.982580
C701	C70	0.200020	0.781720	0.946240
C711	C71	0.218260	0.802360	0.914720
C721	C72	0.366500	0.852800	0.841400
C731	C73	0.352280	0.824580	0.876760
C741	C74	0.046800	0.817200	0.834000
C751	C75	0.165460	0.812060	0.878720
C761	C76	0.099000	0.800900	0.872600
C771	C77	0.131840	0.772740	0.941280
C781	C78	0.081190	0.780690	0.904380
C791	C79	0.985320	0.803920	0.819840
C801	C80	0.302730	0.837330	0.889460
C811	C81	0.841500	0.961000	0.784400
C821	C82	0.633570	0.108070	0.919540
C831	C83	0.620350	0.155950	0.955900
C841	C84	0.670210	0.208110	0.987420
C851	C85	0.733090	0.212390	0.982580
C861	C86	0.746220	0.164520	0.946240
C871	C87	0.696460	0.112360	0.914720
C881	C88	0.474900	0.988600	0.841400
C891	C89	0.524480	0.052180	0.876760
C901	C90	0.787200	0.016800	0.834000
C911	C91	0.713260	0.066660	0.878720
C921	C92	0.773600	0.071700	0.872600
C931	C93	0.809440	0.168540	0.941280
C941	C94	0.823190	0.123690	0.904380
C951	C95	0.834520	0.015920	0.819840
C961	C96	0.586730	0.052130	0.889460
C971	C97	0.211000	0.692900	0.284400
C981	C98	0.358070	0.035970	0.419540
C991	C99	0.405950	0.085550	0.455900
C1001	C100	0.458110	0.067210	0.487420
C1011	C101	0.462390	0.999490	0.482580
C1021	C102	0.414520	0.950020	0.446240
C1031	C103	0.362360	0.968260	0.414720
C1041	C104	0.238600	0.116500	0.341400
C1051	C105	0.302180	0.102280	0.376760
C1061	C106	0.266800	0.796800	0.334000
C1071	C107	0.316660	0.915460	0.378720
C1081	C108	0.321700	0.849000	0.372600
C1091	C109	0.418540	0.881840	0.441280
C1101	C110	0.373690	0.831190	0.404380
C1111	C111	0.265920	0.735320	0.319840
C1121	C112	0.302130	0.052730	0.389460
C1131	C113	0.073400	0.591500	0.284400
C1141	C114	0.061470	0.383570	0.419540
C1151	C115	0.049950	0.370350	0.455900
C1161	C116	0.029310	0.420210	0.487420
C1171	C117	0.020190	0.483090	0.482580
C1181	C118	0.031720	0.496220	0.446240
C1191	C119	0.052360	0.446460	0.414720
C1201	C120	0.102800	0.224900	0.341400
C1211	C121	0.074580	0.274480	0.376760
C1221	C122	0.067200	0.537200	0.334000
C1231	C123	0.062060	0.463260	0.378720
C1241	C124	0.050900	0.523600	0.372600
C1251	C125	0.022740	0.559440	0.441280
C1261	C126	0.030690	0.573190	0.404380
C1271	C127	0.053920	0.584520	0.319840
C1281	C128	0.087330	0.336730	0.389460
O11	O1	0.840140	0.925140	0.674080
O21	O2	0.449730	0.891130	0.735860
O31	O3	0.360640	0.943040	0.730680
O41	O4	0.757240	0.854640	0.670280
O51	O5	0.596020	0.983420	0.479240
O61	O6	0.833940	0.748940	0.674080
O71	O7	0.286130	0.844730	0.735860
O81	O8	0.370040	0.787640	0.730680
O91	O9	0.913040	0.815640	0.670280
O101	O10	0.883220	0.495820	0.479240
O111	O11	0.175140	0.583940	0.174080
O121	O12	0.141130	0.036130	0.235860
O131	O13	0.193040	0.120040	0.230680
O141	O14	0.104640	0.663040	0.170280
O151	O15	0.233420	0.633220	0.979240
O161	O16	0.998940	0.590140	0.174080
O171	O17	0.094730	0.199730	0.235860
O181	O18	0.037640	0.110640	0.230680
O191	O19	0.065640	0.507240	0.170280
O201	O20	0.745820	0.346020	0.979240
O211	O21	0.416060	0.824860	0.825920
O221	O22	0.963870	0.858870	0.764140
O231	O23	0.879960	0.806960	0.769320
O241	O24	0.336960	0.895360	0.829720
O251	O25	0.366780	0.766580	0.020760
O261	O26	0.409860	0.001060	0.825920
O271	O27	0.800270	0.905270	0.764140
O281	O28	0.889360	0.962360	0.769320
O291	O29	0.492760	0.934360	0.829720
O301	O30	0.653980	0.254180	0.020760
O311	O31	0.251060	0.166060	0.325920
O321	O32	0.155270	0.713870	0.264140
O331	O33	0.212360	0.629960	0.269320
O341	O34	0.184360	0.086960	0.329720
O351	O35	0.504180	0.116780	0.520760
O361	O36	0.074860	0.159860	0.325920
O371	O37	0.108870	0.550270	0.264140
O381	O38	0.056960	0.639360	0.269320
O391	O39	0.145360	0.242760	0.329720
O401	O40	0.016580	0.403980	0.520760
