data_XAJQAC_SL_PM
_symmetry_space_group_name_H-M	'P1'
_cell_length_a	15.632300
_cell_length_b	16.185400
_cell_length_c	14.325300
_cell_angle_alpha	90.000000
_cell_angle_beta	103.237000
_cell_angle_gamma	90.000000
_symmetry_Int_Tables_number 1

loop_
_symmetry_equiv_pos_as_xyz
'x,y,z'

loop_
_atom_site_label
_atom_site_type_symbol
_atom_site_fract_x
_atom_site_fract_y
_atom_site_fract_z
H11	H1	0.699700	0.503500	0.651600
H21	H2	0.910900	0.719400	0.717400
H31	H3	0.910900	0.287800	0.715300
H41	H4	0.676800	0.801800	0.823700
H51	H5	0.728100	0.656200	0.825900
H61	H6	0.808200	0.706500	0.570700
H71	H7	0.717400	0.833700	0.550200
H81	H8	0.673400	0.207500	0.825400
H91	H9	0.731400	0.350800	0.829000
H101	H10	0.800000	0.301400	0.567000
H111	H11	0.702500	0.178500	0.545900
C121	C12	0.610400	0.881300	0.658700
C131	C13	0.610300	0.122500	0.665200
C141	C14	0.680600	0.819500	0.680200
C151	C15	0.675900	0.188900	0.681700
C161	C16	0.694100	0.775700	0.760300
C171	C17	0.691300	0.232700	0.762000
C181	C18	0.730500	0.695500	0.764800
C191	C19	0.730800	0.311800	0.766700
C201	C20	0.768700	0.665600	0.694500
C211	C21	0.768200	0.341100	0.695400
C221	C22	0.769300	0.720600	0.622800
C231	C23	0.763300	0.287600	0.621200
C241	C24	0.721200	0.795300	0.613600
C251	C25	0.712200	0.214400	0.611900
C261	C26	0.818600	0.581300	0.703100
C271	C27	0.818500	0.425600	0.702400
C281	C28	0.910500	0.582400	0.726100
C291	C29	0.910400	0.424500	0.726400
C301	C30	0.951700	0.664100	0.731200
C311	C31	0.951600	0.343000	0.730600
C321	C32	0.770300	0.503500	0.682000
C331	C33	0.955500	0.503400	0.734300
O341	O34	0.554800	0.998600	0.387000
O351	O35	0.578700	0.900400	0.574400
O361	O36	0.582700	0.105200	0.735800
O371	O37	0.573700	0.899500	0.731600
O381	O38	0.578100	0.098700	0.577700
H391	H39	0.381230	0.998600	0.113000
H401	H40	0.300300	0.503500	0.848400
H411	H41	0.089100	0.719400	0.782600
H421	H42	0.089100	0.287800	0.784700
H431	H43	0.323200	0.801800	0.676300
H441	H44	0.271900	0.656200	0.674100
H451	H45	0.191800	0.706500	0.929300
H461	H46	0.282600	0.833700	0.949800
H471	H47	0.326600	0.207500	0.674600
H481	H48	0.268600	0.350800	0.671000
H491	H49	0.200000	0.301400	0.933000
H501	H50	0.297500	0.178500	0.954100
C511	C51	0.389600	0.881300	0.841300
C521	C52	0.389700	0.122500	0.834800
C531	C53	0.319400	0.819500	0.819800
C541	C54	0.324100	0.188900	0.818300
C551	C55	0.305900	0.775700	0.739700
C561	C56	0.308700	0.232700	0.738000
C571	C57	0.269500	0.695500	0.735200
C581	C58	0.269200	0.311800	0.733300
C591	C59	0.231300	0.665600	0.805500
C601	C60	0.231800	0.341100	0.804600
C611	C61	0.230700	0.720600	0.877200
C621	C62	0.236700	0.287600	0.878800
C631	C63	0.278800	0.795300	0.886400
C641	C64	0.287800	0.214400	0.888100
C651	C65	0.181400	0.581300	0.796900
C661	C66	0.181500	0.425600	0.797600
C671	C67	0.089500	0.582400	0.773900
C681	C68	0.089600	0.424500	0.773600
C691	C69	0.048300	0.664100	0.768800
C701	C70	0.048400	0.343000	0.769400
C711	C71	0.229700	0.503500	0.818000
C721	C72	0.044500	0.503400	0.765700
O731	O73	0.445200	0.998600	0.113000
O741	O74	0.421300	0.900400	0.925600
O751	O75	0.417300	0.105200	0.764200
O761	O76	0.426300	0.899500	0.768400
O771	O77	0.421900	0.098700	0.922300
H781	H78	0.618770	0.998600	0.387000
H791	H79	0.300300	0.496500	0.348400
H801	H80	0.089100	0.280600	0.282600
H811	H81	0.089100	0.712200	0.284700
H821	H82	0.323200	0.198200	0.176300
H831	H83	0.271900	0.343800	0.174100
H841	H84	0.191800	0.293500	0.429300
H851	H85	0.282600	0.166300	0.449800
H861	H86	0.326600	0.792500	0.174600
H871	H87	0.268600	0.649200	0.171000
H881	H88	0.200000	0.698600	0.433000
H891	H89	0.297500	0.821500	0.454100
C901	C90	0.389600	0.118700	0.341300
C911	C91	0.389700	0.877500	0.334800
C921	C92	0.319400	0.180500	0.319800
C931	C93	0.324100	0.811100	0.318300
C941	C94	0.305900	0.224300	0.239700
C951	C95	0.308700	0.767300	0.238000
C961	C96	0.269500	0.304500	0.235200
C971	C97	0.269200	0.688200	0.233300
C981	C98	0.231300	0.334400	0.305500
C991	C99	0.231800	0.658900	0.304600
C1001	C100	0.230700	0.279400	0.377200
C1011	C101	0.236700	0.712400	0.378800
C1021	C102	0.278800	0.204700	0.386400
C1031	C103	0.287800	0.785600	0.388100
C1041	C104	0.181400	0.418700	0.296900
C1051	C105	0.181500	0.574400	0.297600
C1061	C106	0.089500	0.417600	0.273900
C1071	C107	0.089600	0.575500	0.273600
C1081	C108	0.048300	0.335900	0.268800
C1091	C109	0.048400	0.657000	0.269400
C1101	C110	0.229700	0.496500	0.318000
C1111	C111	0.044500	0.496600	0.265700
O1121	O112	0.445200	0.001400	0.613000
O1131	O113	0.421300	0.099600	0.425600
O1141	O114	0.417300	0.894800	0.264200
O1151	O115	0.426300	0.100500	0.268400
O1161	O116	0.421900	0.901300	0.422300
H1171	H117	0.618770	0.001400	0.887000
H1181	H118	0.699700	0.496500	0.151600
H1191	H119	0.910900	0.280600	0.217400
H1201	H120	0.910900	0.712200	0.215300
H1211	H121	0.676800	0.198200	0.323700
H1221	H122	0.728100	0.343800	0.325900
H1231	H123	0.808200	0.293500	0.070700
H1241	H124	0.717400	0.166300	0.050200
H1251	H125	0.673400	0.792500	0.325400
H1261	H126	0.731400	0.649200	0.329000
H1271	H127	0.800000	0.698600	0.067000
H1281	H128	0.702500	0.821500	0.045900
C1291	C129	0.610400	0.118700	0.158700
C1301	C130	0.610300	0.877500	0.165200
C1311	C131	0.680600	0.180500	0.180200
C1321	C132	0.675900	0.811100	0.181700
C1331	C133	0.694100	0.224300	0.260300
C1341	C134	0.691300	0.767300	0.262000
C1351	C135	0.730500	0.304500	0.264800
C1361	C136	0.730800	0.688200	0.266700
C1371	C137	0.768700	0.334400	0.194500
C1381	C138	0.768200	0.658900	0.195400
C1391	C139	0.769300	0.279400	0.122800
C1401	C140	0.763300	0.712400	0.121200
C1411	C141	0.721200	0.204700	0.113600
C1421	C142	0.712200	0.785600	0.111900
C1431	C143	0.818600	0.418700	0.203100
C1441	C144	0.818500	0.574400	0.202400
C1451	C145	0.910500	0.417600	0.226100
C1461	C146	0.910400	0.575500	0.226400
C1471	C147	0.951700	0.335900	0.231200
C1481	C148	0.951600	0.657000	0.230600
C1491	C149	0.770300	0.496500	0.182000
C1501	C150	0.955500	0.496600	0.234300
O1511	O151	0.554800	0.001400	0.887000
O1521	O152	0.578700	0.099600	0.074400
O1531	O153	0.582700	0.894800	0.235800
O1541	O154	0.573700	0.100500	0.231600
O1551	O155	0.578100	0.901300	0.077700
H1561	H156	0.381230	0.001400	0.613000
In1571	In157	0.500000	0.000000	0.500000
In1581	In158	0.500000	0.000000	0.000000
In1591	In159	0.500000	0.008200	0.750000
In1601	In160	0.500000	0.991800	0.250000
