data_XAJSEJ_clean_PM
_symmetry_space_group_name_H-M	'P1'
_cell_length_a	12.758000
_cell_length_b	17.520300
_cell_length_c	21.812900
_cell_angle_alpha	90.000000
_cell_angle_beta	90.000000
_cell_angle_gamma	90.000000
_symmetry_Int_Tables_number 1

loop_
_symmetry_equiv_pos_as_xyz
'x,y,z'

loop_
_atom_site_label
_atom_site_type_symbol
_atom_site_fract_x
_atom_site_fract_y
_atom_site_fract_z
In11	In1	0.919130	0.989580	0.826810
C11	C1	0.840000	0.764800	0.793700
C21	C2	0.906200	0.719200	0.759200
H11	H1	0.967000	0.739000	0.741900
C31	C3	0.879500	0.643200	0.751300
C41	C4	0.785800	0.614200	0.777400
H21	H2	0.768700	0.562900	0.773400
C51	C5	0.720700	0.663200	0.808700
C61	C6	0.748800	0.736300	0.820100
H31	H3	0.707800	0.767100	0.845200
C71	C7	0.539400	0.613200	0.799500
C81	C8	0.527300	0.626000	0.736400
H41	H4	0.578700	0.648700	0.712300
C91	C9	0.428900	0.600900	0.712500
H51	H5	0.415800	0.607000	0.670800
C101	C10	0.352600	0.568200	0.748700
C111	C11	0.368000	0.558300	0.811600
H61	H6	0.315400	0.537700	0.836100
C121	C12	0.465700	0.580500	0.837400
C131	C13	0.508500	0.578300	0.897300
C141	C14	0.474100	0.551800	0.953600
H71	H7	0.408600	0.528900	0.957300
C151	C15	0.538300	0.559600	0.004500
C161	C16	0.637400	0.590700	0.999700
H81	H8	0.679800	0.594500	0.034300
C171	C17	0.673400	0.615900	0.944300
H91	H9	0.739900	0.637200	0.940600
C181	C18	0.609400	0.609100	0.894500
C191	C19	0.871000	0.846300	0.804800
C201	C20	0.951700	0.590400	0.719800
C211	C21	0.251000	0.544500	0.722400
C221	C22	0.497100	0.535700	0.065000
N11	N1	0.627100	0.631800	0.833100
O11	O1	0.948100	0.873900	0.776500
O21	O2	0.822500	0.885400	0.843200
O31	O3	0.017600	0.612400	0.682300
O41	O4	0.947200	0.518800	0.734600
O51	O5	0.237900	0.550300	0.665500
O61	O6	0.180900	0.515200	0.754600
O71	O7	0.415000	0.497300	0.070400
O81	O8	0.546500	0.555300	0.113300
In21	In2	0.580870	0.010420	0.326810
C231	C23	0.660000	0.235200	0.293700
C241	C24	0.593800	0.280800	0.259200
H101	H10	0.533000	0.261000	0.241900
C251	C25	0.620500	0.356800	0.251300
C261	C26	0.714200	0.385800	0.277400
H111	H11	0.731300	0.437100	0.273400
C271	C27	0.779300	0.336800	0.308700
C281	C28	0.751200	0.263700	0.320100
H121	H12	0.792200	0.232900	0.345200
C291	C29	0.960600	0.386800	0.299500
C301	C30	0.972700	0.374000	0.236400
H131	H13	0.921300	0.351300	0.212300
C311	C31	0.071100	0.399100	0.212500
H141	H14	0.084200	0.393000	0.170800
C321	C32	0.147400	0.431800	0.248700
C331	C33	0.132000	0.441700	0.311600
H151	H15	0.184600	0.462300	0.336100
C341	C34	0.034300	0.419500	0.337400
C351	C35	0.991500	0.421700	0.397300
C361	C36	0.025900	0.448200	0.453600
H161	H16	0.091400	0.471100	0.457300
C371	C37	0.961700	0.440400	0.504500
C381	C38	0.862600	0.409300	0.499700
H171	H17	0.820200	0.405500	0.534300
C391	C39	0.826600	0.384100	0.444300
H181	H18	0.760100	0.362800	0.440600
C401	C40	0.890600	0.390900	0.394500
C411	C41	0.629000	0.153700	0.304800
C421	C42	0.548300	0.409600	0.219800
C431	C43	0.249000	0.455500	0.222400
C441	C44	0.002900	0.464300	0.565000
N21	N2	0.872900	0.368200	0.333100
O91	O9	0.551900	0.126100	0.276500
O101	O10	0.677500	0.114600	0.343200
O111	O11	0.482400	0.387600	0.182300
O121	O12	0.552800	0.481200	0.234600
O131	O13	0.262100	0.449700	0.165500
O141	O14	0.319100	0.484800	0.254600
O151	O15	0.085000	0.502700	0.570400
O161	O16	0.953500	0.444700	0.613300
In31	In3	0.080870	0.489580	0.673190
C451	C45	0.160000	0.264800	0.706300
C461	C46	0.093800	0.219200	0.740800
H191	H19	0.033000	0.239000	0.758100
C471	C47	0.120500	0.143200	0.748700
C481	C48	0.214200	0.114200	0.722600
H201	H20	0.231300	0.062900	0.726600
C491	C49	0.279300	0.163200	0.691300
C501	C50	0.251200	0.236300	0.679900
H211	H21	0.292200	0.267100	0.654800
C511	C51	0.460600	0.113200	0.700500
C521	C52	0.472700	0.126000	0.763600
H221	H22	0.421300	0.148700	0.787700
C531	C53	0.571100	0.100900	0.787500
H231	H23	0.584200	0.107000	0.829200
C541	C54	0.647400	0.068200	0.751300
C551	C55	0.632000	0.058300	0.688400
H241	H24	0.684600	0.037700	0.663900
C561	C56	0.534300	0.080500	0.662600
C571	C57	0.491500	0.078300	0.602700
C581	C58	0.525900	0.051800	0.546400
H251	H25	0.591400	0.028900	0.542700
C591	C59	0.461700	0.059600	0.495500
C601	C60	0.362600	0.090700	0.500300
H261	H26	0.320200	0.094500	0.465700
C611	C61	0.326600	0.115900	0.555700
H271	H27	0.260100	0.137200	0.559400
C621	C62	0.390600	0.109100	0.605500
C631	C63	0.129000	0.346300	0.695200
C641	C64	0.048300	0.090400	0.780200
C651	C65	0.749000	0.044500	0.777600
C661	C66	0.502900	0.035700	0.435000
N31	N3	0.372900	0.131800	0.666900
O171	O17	0.051900	0.373900	0.723500
O181	O18	0.177500	0.385400	0.656800
O191	O19	0.982400	0.112400	0.817700
O201	O20	0.052800	0.018800	0.765400
O211	O21	0.762100	0.050300	0.834500
O221	O22	0.819100	0.015200	0.745400
O231	O23	0.585000	0.997300	0.429600
O241	O24	0.453500	0.055300	0.386700
In41	In4	0.419130	0.510420	0.173190
C671	C67	0.340000	0.735200	0.206300
C681	C68	0.406200	0.780800	0.240800
H281	H28	0.467000	0.761000	0.258100
C691	C69	0.379500	0.856800	0.248700
C701	C70	0.285800	0.885800	0.222600
H291	H29	0.268700	0.937100	0.226600
C711	C71	0.220700	0.836800	0.191300
C721	C72	0.248800	0.763700	0.179900
H301	H30	0.207800	0.732900	0.154800
C731	C73	0.039400	0.886800	0.200500
C741	C74	0.027300	0.874000	0.263600
H311	H31	0.078700	0.851300	0.287700
C751	C75	0.928900	0.899100	0.287500
H321	H32	0.915800	0.893000	0.329200
C761	C76	0.852600	0.931800	0.251300
C771	C77	0.868000	0.941700	0.188400
H331	H33	0.815400	0.962300	0.163900
C781	C78	0.965700	0.919500	0.162600
C791	C79	0.008500	0.921700	0.102700
C801	C80	0.974100	0.948200	0.046400
H341	H34	0.908600	0.971100	0.042700
C811	C81	0.038300	0.940400	0.995500
C821	C82	0.137400	0.909300	0.000300
H351	H35	0.179800	0.905500	0.965700
C831	C83	0.173400	0.884100	0.055700
H361	H36	0.239900	0.862800	0.059400
C841	C84	0.109400	0.890900	0.105500
C851	C85	0.371000	0.653700	0.195200
C861	C86	0.451700	0.909600	0.280200
C871	C87	0.751000	0.955500	0.277600
C881	C88	0.997100	0.964300	0.935000
N41	N4	0.127100	0.868200	0.166900
O251	O25	0.448100	0.626100	0.223500
O261	O26	0.322500	0.614600	0.156800
O271	O27	0.517600	0.887600	0.317700
O281	O28	0.447200	0.981200	0.265400
O291	O29	0.737900	0.949700	0.334500
O301	O30	0.680900	0.984800	0.245400
O311	O31	0.915000	0.002700	0.929600
O321	O32	0.046500	0.944700	0.886700
