data_XAKVIP_clean_PM
_symmetry_space_group_name_H-M	'P1'
_cell_length_a	10.387000
_cell_length_b	13.009000
_cell_length_c	22.102000
_cell_angle_alpha	90.000000
_cell_angle_beta	90.000000
_cell_angle_gamma	90.000000
_symmetry_Int_Tables_number 1

loop_
_symmetry_equiv_pos_as_xyz
'x,y,z'

loop_
_atom_site_label
_atom_site_type_symbol
_atom_site_fract_x
_atom_site_fract_y
_atom_site_fract_z
Ce11	Ce1	0.696910	0.451590	0.520790
Ce21	Ce2	0.285830	0.538890	0.745090
Ce31	Ce3	0.303090	0.048410	0.020790
Ce41	Ce4	0.714170	0.961110	0.245090
Ce51	Ce5	0.196910	0.548410	0.979210
Ce61	Ce6	0.785830	0.461110	0.754910
Ce71	Ce7	0.803090	0.951590	0.479210
Ce81	Ce8	0.214170	0.038890	0.254910
Ce91	Ce9	0.303090	0.548410	0.479210
Ce101	Ce10	0.714170	0.461110	0.254910
Ce111	Ce11	0.696910	0.951590	0.979210
Ce121	Ce12	0.285830	0.038890	0.754910
Ce131	Ce13	0.803090	0.451590	0.020790
Ce141	Ce14	0.214170	0.538890	0.245090
Ce151	Ce15	0.196910	0.048410	0.520790
Ce161	Ce16	0.785830	0.961110	0.745090
H11	H1	0.473900	0.326500	0.467000
H21	H2	0.575000	0.175100	0.462500
H31	H3	0.598800	0.220900	0.403800
H41	H4	0.526100	0.173500	0.967000
H51	H5	0.425000	0.324900	0.962500
H61	H6	0.401200	0.279100	0.903800
H71	H7	0.973900	0.673500	0.033000
H81	H8	0.075000	0.824900	0.037500
H91	H9	0.098800	0.779100	0.096200
H101	H10	0.026100	0.826500	0.533000
H111	H11	0.925000	0.675100	0.537500
H121	H12	0.901200	0.720900	0.596200
H131	H13	0.526100	0.673500	0.533000
H141	H14	0.425000	0.824900	0.537500
H151	H15	0.401200	0.779100	0.596200
H161	H16	0.473900	0.826500	0.033000
H171	H17	0.575000	0.675100	0.037500
H181	H18	0.598800	0.720900	0.096200
H191	H19	0.026100	0.326500	0.967000
H201	H20	0.925000	0.175100	0.962500
H211	H21	0.901200	0.220900	0.903800
H221	H22	0.973900	0.173500	0.467000
H231	H23	0.075000	0.324900	0.462500
H241	H24	0.098800	0.279100	0.403800
C11	C1	0.014800	0.478200	0.531810
C21	C2	0.446400	0.488900	0.613660
C31	C3	0.561200	0.488200	0.657630
C41	C4	0.335400	0.288100	0.778260
C51	C5	0.227500	0.286000	0.729700
C61	C6	0.618300	0.228300	0.443200
C71	C7	0.760000	0.226100	0.457220
C81	C8	0.985200	0.021800	0.031810
C91	C9	0.553600	0.011100	0.113660
C101	C10	0.438800	0.011800	0.157630
C111	C11	0.664600	0.211900	0.278260
C121	C12	0.772500	0.214000	0.229700
C131	C13	0.381700	0.271700	0.943200
C141	C14	0.240000	0.273900	0.957220
C151	C15	0.514800	0.521800	0.968190
C161	C16	0.946400	0.511100	0.886340
C171	C17	0.061200	0.511800	0.842370
C181	C18	0.835400	0.711900	0.721740
C191	C19	0.727500	0.714000	0.770300
C201	C20	0.118300	0.771700	0.056800
C211	C21	0.260000	0.773900	0.042780
C221	C22	0.485200	0.978200	0.468190
C231	C23	0.053600	0.988900	0.386340
C241	C24	0.938800	0.988200	0.342370
C251	C25	0.164600	0.788100	0.221740
C261	C26	0.272500	0.786000	0.270300
C271	C27	0.881700	0.728300	0.556800
C281	C28	0.740000	0.726100	0.542780
C291	C29	0.985200	0.521800	0.468190
C301	C30	0.553600	0.511100	0.386340
C311	C31	0.438800	0.511800	0.342370
C321	C32	0.664600	0.711900	0.221740
C331	C33	0.772500	0.714000	0.270300
C341	C34	0.381700	0.771700	0.556800
C351	C35	0.240000	0.773900	0.542780
C361	C36	0.014800	0.978200	0.968190
C371	C37	0.446400	0.988900	0.886340
C381	C38	0.561200	0.988200	0.842370
C391	C39	0.335400	0.788100	0.721740
C401	C40	0.227500	0.786000	0.770300
C411	C41	0.618300	0.728300	0.056800
C421	C42	0.760000	0.726100	0.042780
C431	C43	0.485200	0.478200	0.031810
C441	C44	0.053600	0.488900	0.113660
C451	C45	0.938800	0.488200	0.157630
C461	C46	0.164600	0.288100	0.278260
C471	C47	0.272500	0.286000	0.229700
C481	C48	0.881700	0.228300	0.943200
C491	C49	0.740000	0.226100	0.957220
C501	C50	0.514800	0.021800	0.531810
C511	C51	0.946400	0.011100	0.613660
C521	C52	0.061200	0.011800	0.657630
C531	C53	0.835400	0.211900	0.778260
C541	C54	0.727500	0.214000	0.729700
C551	C55	0.118300	0.271700	0.443200
C561	C56	0.260000	0.273900	0.457220
O11	O1	0.917900	0.456700	0.563380
O21	O2	0.870800	0.532600	0.453870
O31	O3	0.469600	0.470900	0.557860
O41	O4	0.339500	0.508800	0.634220
O51	O5	0.672700	0.477200	0.636190
O61	O6	0.535800	0.497900	0.712930
O71	O7	0.369400	0.376000	0.795440
O81	O8	0.378300	0.704200	0.703970
O91	O9	0.191700	0.371500	0.709050
O101	O10	0.186000	0.700200	0.787310
O111	O11	0.569000	0.323300	0.462790
O121	O12	0.815700	0.309600	0.468300
O131	O13	0.682700	0.640200	0.544000
O141	O14	0.082100	0.043300	0.063380
O151	O15	0.129200	0.967400	0.953870
O161	O16	0.530400	0.029100	0.057860
O171	O17	0.660500	0.991200	0.134220
O181	O18	0.327300	0.022800	0.136190
O191	O19	0.464200	0.002100	0.212930
O201	O20	0.630600	0.124000	0.295440
O211	O21	0.621700	0.795800	0.203970
O221	O22	0.808300	0.128500	0.209050
O231	O23	0.814000	0.799800	0.287310
O241	O24	0.431000	0.176700	0.962790
O251	O25	0.184300	0.190400	0.968300
O261	O26	0.317300	0.859800	0.044000
O271	O27	0.417900	0.543300	0.936620
O281	O28	0.370800	0.467400	0.046130
O291	O29	0.969600	0.529100	0.942140
O301	O30	0.839500	0.491200	0.865780
O311	O31	0.172700	0.522800	0.863810
O321	O32	0.035800	0.502100	0.787070
O331	O33	0.869400	0.624000	0.704560
O341	O34	0.878300	0.295800	0.796030
O351	O35	0.691700	0.628500	0.790950
O361	O36	0.686000	0.299800	0.712690
O371	O37	0.069000	0.676700	0.037210
O381	O38	0.315700	0.690400	0.031700
O391	O39	0.182700	0.359800	0.956000
O401	O40	0.582100	0.956700	0.436620
O411	O41	0.629200	0.032600	0.546130
O421	O42	0.030400	0.970900	0.442140
O431	O43	0.160500	0.008800	0.365780
O441	O44	0.827300	0.977200	0.363810
O451	O45	0.964200	0.997900	0.287070
O461	O46	0.130600	0.876000	0.204560
O471	O47	0.121700	0.204200	0.296030
O481	O48	0.308300	0.871500	0.290950
O491	O49	0.314000	0.200200	0.212690
O501	O50	0.931000	0.823300	0.537210
O511	O51	0.684300	0.809600	0.531700
O521	O52	0.817300	0.140200	0.456000
O531	O53	0.082100	0.543300	0.436620
O541	O54	0.129200	0.467400	0.546130
O551	O55	0.530400	0.529100	0.442140
O561	O56	0.660500	0.491200	0.365780
O571	O57	0.327300	0.522800	0.363810
O581	O58	0.464200	0.502100	0.287070
O591	O59	0.630600	0.624000	0.204560
O601	O60	0.621700	0.295800	0.296030
O611	O61	0.808300	0.628500	0.290950
O621	O62	0.814000	0.299800	0.212690
O631	O63	0.431000	0.676700	0.537210
O641	O64	0.184300	0.690400	0.531700
O651	O65	0.317300	0.359800	0.456000
O661	O66	0.917900	0.956700	0.936620
O671	O67	0.870800	0.032600	0.046130
O681	O68	0.469600	0.970900	0.942140
O691	O69	0.339500	0.008800	0.865780
O701	O70	0.672700	0.977200	0.863810
O711	O71	0.535800	0.997900	0.787070
O721	O72	0.369400	0.876000	0.704560
O731	O73	0.378300	0.204200	0.796030
O741	O74	0.191700	0.871500	0.790950
O751	O75	0.186000	0.200200	0.712690
O761	O76	0.569000	0.823300	0.037210
O771	O77	0.815700	0.809600	0.031700
O781	O78	0.682700	0.140200	0.956000
O791	O79	0.582100	0.456700	0.063380
O801	O80	0.629200	0.532600	0.953870
O811	O81	0.030400	0.470900	0.057860
O821	O82	0.160500	0.508800	0.134220
O831	O83	0.827300	0.477200	0.136190
O841	O84	0.964200	0.497900	0.212930
O851	O85	0.130600	0.376000	0.295440
O861	O86	0.121700	0.704200	0.203970
O871	O87	0.308300	0.371500	0.209050
O881	O88	0.314000	0.700200	0.287310
O891	O89	0.931000	0.323300	0.962790
O901	O90	0.684300	0.309600	0.968300
O911	O91	0.817300	0.640200	0.044000
O921	O92	0.417900	0.043300	0.563380
O931	O93	0.370800	0.967400	0.453870
O941	O94	0.969600	0.029100	0.557860
O951	O95	0.839500	0.991200	0.634220
O961	O96	0.172700	0.022800	0.636190
O971	O97	0.035800	0.002100	0.712930
O981	O98	0.869400	0.124000	0.795440
O991	O99	0.878300	0.795800	0.703970
O1001	O100	0.691700	0.128500	0.709050
O1011	O101	0.686000	0.799800	0.787310
O1021	O102	0.069000	0.176700	0.462790
O1031	O103	0.315700	0.190400	0.468300
O1041	O104	0.182700	0.859800	0.544000
