data_XAKYUE_clean_PM
_symmetry_space_group_name_H-M	'P1'
_cell_length_a	17.617100
_cell_length_b	30.051600
_cell_length_c	30.051600
_cell_angle_alpha	85.071300
_cell_angle_beta	72.955500
_cell_angle_gamma	72.955500
_symmetry_Int_Tables_number 1

loop_
_symmetry_equiv_pos_as_xyz
'x,y,z'

loop_
_atom_site_label
_atom_site_type_symbol
_atom_site_fract_x
_atom_site_fract_y
_atom_site_fract_z
Mn11	Mn1	0.994830	0.085660	0.857200
Mn21	Mn2	0.120040	0.121210	0.969790
Mn31	Mn3	0.788580	0.003190	0.925270
Mn41	Mn4	0.437690	0.414340	0.642800
Mn51	Mn5	0.711040	0.378790	0.530210
Mn61	Mn6	0.217040	0.496810	0.574730
Mn71	Mn7	0.852030	0.142800	0.585660
Mn81	Mn8	0.089830	0.030210	0.621210
Mn91	Mn9	0.713850	0.074730	0.503190
Mn101	Mn10	0.080490	0.357200	0.914340
Mn111	Mn11	0.241250	0.469790	0.878790
Mn121	Mn12	0.791770	0.425270	0.996810
Mn131	Mn13	0.005170	0.914340	0.142800
Mn141	Mn14	0.879960	0.878790	0.030210
Mn151	Mn15	0.211420	0.996810	0.074730
Mn161	Mn16	0.562310	0.585660	0.357200
Mn171	Mn17	0.288960	0.621210	0.469790
Mn181	Mn18	0.782960	0.503190	0.425270
Mn191	Mn19	0.147970	0.857200	0.414340
Mn201	Mn20	0.910170	0.969790	0.378790
Mn211	Mn21	0.286150	0.925270	0.496810
Mn221	Mn22	0.919510	0.642800	0.085660
Mn231	Mn23	0.758750	0.530210	0.121210
Mn241	Mn24	0.208230	0.574730	0.003190
H11	H1	0.011500	0.246400	0.904800
H21	H2	0.948000	0.308200	0.862400
H31	H3	0.886200	0.292700	0.808500
H41	H4	0.878300	0.217100	0.800700
H51	H5	0.134800	0.010600	0.968600
H61	H6	0.099100	0.976100	0.947700
H71	H7	0.256100	0.996600	0.907400
H81	H8	0.239600	0.946800	0.909400
H91	H9	0.213100	0.984400	0.871800
H101	H10	0.182900	0.077100	0.839300
H111	H11	0.309400	0.068100	0.779900
H121	H12	0.184300	0.076800	0.685400
H131	H13	0.062200	0.086700	0.746900
H141	H14	0.328000	0.053300	0.659700
H151	H15	0.376400	0.028300	0.696500
H161	H16	0.421800	0.015300	0.968300
H171	H17	0.519100	0.028000	0.896800
H181	H18	0.474600	0.074300	0.841700
H191	H19	0.336400	0.114300	0.851100
H201	H20	0.015800	0.079100	0.124700
H211	H21	0.985800	0.046800	0.098000
H221	H22	0.880700	0.106900	0.086700
H231	H23	0.878500	0.109700	0.140100
H241	H24	0.916700	0.144100	0.102500
H251	H25	0.959600	0.013800	0.750000
H261	H26	0.931600	0.967400	0.701000
H271	H27	0.840500	0.924200	0.733200
H281	H28	0.772800	0.925900	0.811500
H291	H29	0.885900	0.091700	0.997500
H301	H30	0.870400	0.130100	0.958500
H311	H31	0.732500	0.152000	0.993800
H321	H32	0.779500	0.151500	0.032100
H331	H33	0.741400	0.109800	0.030000
H341	H34	0.610900	0.011900	0.571100
H351	H35	0.498300	0.017200	0.635800
H361	H36	0.445600	0.152700	0.633700
H371	H37	0.557600	0.148200	0.566200
H381	H38	0.401900	0.094000	0.709000
H391	H39	0.342600	0.123600	0.679400
H401	H40	0.662700	0.253600	0.595200
H411	H41	0.618600	0.191800	0.637600
H421	H42	0.487400	0.207300	0.691500
H431	H43	0.396100	0.282900	0.699300
H441	H44	0.614000	0.489400	0.531400
H451	H45	0.522900	0.523900	0.552300
H461	H46	0.660100	0.503400	0.592600
H471	H47	0.595800	0.553200	0.590600
H481	H48	0.569300	0.515600	0.628200
H491	H49	0.599300	0.422900	0.660700
H501	H50	0.657400	0.431900	0.720100
H511	H51	0.446500	0.423200	0.814600
H521	H52	0.395800	0.413300	0.753100
H531	H53	0.541000	0.446700	0.840300
H541	H54	0.601200	0.471700	0.803500
H551	H55	0.905400	0.484700	0.531700
H561	H56	0.943900	0.472000	0.603200
H571	H57	0.890600	0.425700	0.658300
H581	H58	0.801800	0.385700	0.648900
H591	H59	0.719600	0.420900	0.375300
H601	H60	0.630600	0.453200	0.402000
H611	H61	0.574300	0.393100	0.413300
H621	H62	0.628300	0.390300	0.359900
H631	H63	0.663300	0.355900	0.397500
H641	H64	0.223400	0.486200	0.750000
H651	H65	0.100000	0.532600	0.799000
H661	H66	0.997900	0.575800	0.766800
H671	H67	0.010200	0.574100	0.688500
H681	H68	0.475100	0.408300	0.502500
H691	H69	0.459000	0.369900	0.541500
H701	H70	0.378300	0.348000	0.506200
H711	H71	0.463100	0.348500	0.467900
H721	H72	0.381200	0.390200	0.470000
H731	H73	0.693900	0.488100	0.928900
H741	H74	0.651300	0.482800	0.864200
H751	H75	0.732000	0.347300	0.866300
H761	H76	0.772000	0.351800	0.933800
H771	H77	0.704900	0.406000	0.791000
H781	H78	0.645600	0.376400	0.820600
H791	H79	0.916300	0.095200	0.746400
H801	H80	0.810400	0.137600	0.808200
H811	H81	0.694700	0.191500	0.792700
H821	H82	0.679000	0.199300	0.717100
H831	H83	0.103400	0.031400	0.510600
H841	H84	0.046800	0.052300	0.476100
H851	H85	0.163500	0.092600	0.496600
H861	H86	0.149000	0.090600	0.446800
H871	H87	0.084900	0.128200	0.484400
H881	H88	0.022200	0.160700	0.577100
H891	H89	0.089300	0.220100	0.568100
H901	H90	0.869700	0.314600	0.576800
H911	H91	0.809100	0.253100	0.586700
H921	H92	0.987700	0.340300	0.553300
H931	H93	0.072900	0.303500	0.528300
H941	H94	0.390100	0.031700	0.515300
H951	H95	0.415900	0.103200	0.528000
H961	H96	0.316300	0.158300	0.574300
H971	H97	0.187500	0.148900	0.614300
H981	H98	0.140500	0.875300	0.579100
H991	H99	0.083800	0.902000	0.546800
H1001	H100	0.967400	0.913300	0.606900
H1011	H101	0.018600	0.859900	0.609700
H1021	H102	0.019200	0.897500	0.644100
H1031	H103	0.709600	0.250000	0.513800
H1041	H104	0.632600	0.299000	0.467400
H1051	H105	0.573700	0.266800	0.424200
H1061	H106	0.584300	0.188500	0.425900
H1071	H107	0.883400	0.002500	0.591700
H1081	H108	0.828900	0.041500	0.630100
H1091	H109	0.726300	0.006200	0.652000
H1101	H110	0.811600	0.967900	0.651500
H1111	H111	0.771400	0.970000	0.609800
H1121	H112	0.182000	0.428900	0.511900
H1131	H113	0.134100	0.364200	0.517200
H1141	H114	0.079300	0.366300	0.652700
H1151	H115	0.123800	0.433800	0.648200
H1161	H116	0.110900	0.291000	0.594000
H1171	H117	0.022000	0.320600	0.623600
H1181	H118	0.257900	0.404800	0.753600
H1191	H119	0.256200	0.362400	0.691800
H1201	H120	0.178900	0.308500	0.707300
H1211	H121	0.095400	0.300700	0.782900
H1221	H122	0.145400	0.468600	0.989400
H1231	H123	0.075200	0.447700	0.023900
H1241	H124	0.252700	0.407400	0.003400
H1251	H125	0.186400	0.409400	0.053200
H1261	H126	0.197500	0.371800	0.015600
H1271	H127	0.260000	0.339300	0.922900
H1281	H128	0.377500	0.279900	0.931900
H1291	H129	0.261100	0.185400	0.923200
H1301	H130	0.148900	0.246900	0.913300
H1311	H131	0.381300	0.159700	0.946700
H1321	H132	0.404700	0.196500	0.971700
H1331	H133	0.437100	0.468300	0.984700
H1341	H134	0.547100	0.396800	0.972000
H1351	H135	0.548900	0.341700	0.925700
H1361	H136	0.450700	0.351100	0.885700
H1371	H137	0.094900	0.624700	0.920900
H1381	H138	0.032600	0.598000	0.953200
H1391	H139	0.987600	0.586700	0.893100
H1401	H140	0.988200	0.640100	0.890300
H1411	H141	0.060800	0.602500	0.855900
H1421	H142	0.973400	0.250000	0.986200
H1431	H143	0.899000	0.201000	0.032600
H1441	H144	0.764700	0.233200	0.075800
H1451	H145	0.698700	0.311500	0.074100
H1461	H146	0.977600	0.497500	0.908300
H1471	H147	0.000500	0.458500	0.869900
H1481	H148	0.884500	0.493800	0.848000
H1491	H149	0.931000	0.532100	0.848500
H1501	H150	0.851200	0.530000	0.890200
H1511	H151	0.622800	0.071100	0.988100
H1521	H152	0.515500	0.135800	0.982800
H1531	H153	0.598300	0.133700	0.847300
H1541	H154	0.705800	0.066200	0.851800
H1551	H155	0.495900	0.209000	0.906000
H1561	H156	0.466200	0.179400	0.876400
H1571	H157	0.988500	0.753600	0.095200
H1581	H158	0.052000	0.691800	0.137600
H1591	H159	0.113800	0.707300	0.191500
H1601	H160	0.121700	0.782900	0.199300
H1611	H161	0.865200	0.989400	0.031400
H1621	H162	0.900900	0.023900	0.052300
H1631	H163	0.743900	0.003400	0.092600
H1641	H164	0.760400	0.053200	0.090600
H1651	H165	0.786900	0.015600	0.128200
H1661	H166	0.817100	0.922900	0.160700
H1671	H167	0.690600	0.931900	0.220100
H1681	H168	0.815700	0.923200	0.314600
H1691	H169	0.937800	0.913300	0.253100
H1701	H170	0.672000	0.946700	0.340300
H1711	H171	0.623600	0.971700	0.303500
H1721	H172	0.578200	0.984700	0.031700
H1731	H173	0.480900	0.972000	0.103200
H1741	H174	0.525400	0.925700	0.158300
H1751	H175	0.663600	0.885700	0.148900
H1761	H176	0.984200	0.920900	0.875300
H1771	H177	0.014200	0.953200	0.902000
H1781	H178	0.119300	0.893100	0.913300
H1791	H179	0.121500	0.890300	0.859900
H1801	H180	0.083300	0.855900	0.897500
H1811	H181	0.040400	0.986200	0.250000
H1821	H182	0.068400	0.032600	0.299000
H1831	H183	0.159500	0.075800	0.266800
H1841	H184	0.227200	0.074100	0.188500
H1851	H185	0.114100	0.908300	0.002500
H1861	H186	0.129600	0.869900	0.041500
H1871	H187	0.267500	0.848000	0.006200
H1881	H188	0.220500	0.848500	0.967900
H1891	H189	0.258600	0.890200	0.970000
H1901	H190	0.389100	0.988100	0.428900
H1911	H191	0.501700	0.982800	0.364200
H1921	H192	0.554400	0.847300	0.366300
H1931	H193	0.442400	0.851800	0.433800
H1941	H194	0.598100	0.906000	0.291000
H1951	H195	0.657400	0.876400	0.320600
H1961	H196	0.337300	0.746400	0.404800
H1971	H197	0.381400	0.808200	0.362400
H1981	H198	0.512600	0.792700	0.308500
H1991	H199	0.603900	0.717100	0.300700
H2001	H200	0.386000	0.510600	0.468600
H2011	H201	0.477100	0.476100	0.447700
H2021	H202	0.339900	0.496600	0.407400
H2031	H203	0.404200	0.446800	0.409400
H2041	H204	0.430700	0.484400	0.371800
H2051	H205	0.400700	0.577100	0.339300
H2061	H206	0.342600	0.568100	0.279900
H2071	H207	0.553500	0.576800	0.185400
H2081	H208	0.604200	0.586700	0.246900
H2091	H209	0.459000	0.553300	0.159700
H2101	H210	0.398800	0.528300	0.196500
H2111	H211	0.094600	0.515300	0.468300
H2121	H212	0.056100	0.528000	0.396800
H2131	H213	0.109400	0.574300	0.341700
H2141	H214	0.198200	0.614300	0.351100
H2151	H215	0.280400	0.579100	0.624700
H2161	H216	0.369400	0.546800	0.598000
H2171	H217	0.425700	0.606900	0.586700
H2181	H218	0.371700	0.609700	0.640100
H2191	H219	0.336700	0.644100	0.602500
H2201	H220	0.776600	0.513800	0.250000
H2211	H221	0.900000	0.467400	0.201000
H2221	H222	0.002100	0.424200	0.233200
H2231	H223	0.989800	0.425900	0.311500
H2241	H224	0.524900	0.591700	0.497500
H2251	H225	0.541000	0.630100	0.458500
H2261	H226	0.621700	0.652000	0.493800
H2271	H227	0.536900	0.651500	0.532100
H2281	H228	0.618800	0.609800	0.530000
H2291	H229	0.306100	0.511900	0.071100
H2301	H230	0.348700	0.517200	0.135800
H2311	H231	0.268000	0.652700	0.133700
H2321	H232	0.228000	0.648200	0.066200
H2331	H233	0.295100	0.594000	0.209000
H2341	H234	0.354400	0.623600	0.179400
H2351	H235	0.083700	0.904800	0.253600
H2361	H236	0.189600	0.862400	0.191800
H2371	H237	0.305300	0.808500	0.207300
H2381	H238	0.321000	0.800700	0.282900
H2391	H239	0.896600	0.968600	0.489400
H2401	H240	0.953200	0.947700	0.523900
H2411	H241	0.836500	0.907400	0.503400
H2421	H242	0.851000	0.909400	0.553200
H2431	H243	0.915100	0.871800	0.515600
H2441	H244	0.977800	0.839300	0.422900
H2451	H245	0.910700	0.779900	0.431900
H2461	H246	0.130300	0.685400	0.423200
H2471	H247	0.190900	0.746900	0.413300
H2481	H248	0.012300	0.659700	0.446700
H2491	H249	0.927100	0.696500	0.471700
H2501	H250	0.609900	0.968300	0.484700
H2511	H251	0.584100	0.896800	0.472000
H2521	H252	0.683700	0.841700	0.425700
H2531	H253	0.812500	0.851100	0.385700
H2541	H254	0.859500	0.124700	0.420900
H2551	H255	0.916200	0.098000	0.453200
H2561	H256	0.032600	0.086700	0.393100
H2571	H257	0.981400	0.140100	0.390300
H2581	H258	0.980800	0.102500	0.355900
H2591	H259	0.290400	0.750000	0.486200
H2601	H260	0.367400	0.701000	0.532600
H2611	H261	0.426300	0.733200	0.575800
H2621	H262	0.415700	0.811500	0.574100
H2631	H263	0.116600	0.997500	0.408300
H2641	H264	0.171100	0.958500	0.369900
H2651	H265	0.273700	0.993800	0.348000
H2661	H266	0.188400	0.032100	0.348500
H2671	H267	0.228600	0.030000	0.390200
H2681	H268	0.818000	0.571100	0.488100
H2691	H269	0.865900	0.635800	0.482800
H2701	H270	0.920700	0.633700	0.347300
H2711	H271	0.876200	0.566200	0.351800
H2721	H272	0.889100	0.709000	0.406000
H2731	H273	0.978000	0.679400	0.376400
H2741	H274	0.742100	0.595200	0.246400
H2751	H275	0.743800	0.637600	0.308200
H2761	H276	0.821100	0.691500	0.292700
H2771	H277	0.904600	0.699300	0.217100
H2781	H278	0.854600	0.531400	0.010600
H2791	H279	0.924800	0.552300	0.976100
H2801	H280	0.747300	0.592600	0.996600
H2811	H281	0.813600	0.590600	0.946800
H2821	H282	0.802500	0.628200	0.984400
H2831	H283	0.740000	0.660700	0.077100
H2841	H284	0.622500	0.720100	0.068100
H2851	H285	0.738900	0.814600	0.076800
H2861	H286	0.851100	0.753100	0.086700
H2871	H287	0.618700	0.840300	0.053300
H2881	H288	0.595300	0.803500	0.028300
H2891	H289	0.562900	0.531700	0.015300
H2901	H290	0.452900	0.603200	0.028000
H2911	H291	0.451100	0.658300	0.074300
H2921	H292	0.549300	0.648900	0.114300
H2931	H293	0.905100	0.375300	0.079100
H2941	H294	0.967400	0.402000	0.046800
H2951	H295	0.012400	0.413300	0.106900
H2961	H296	0.011800	0.359900	0.109700
H2971	H297	0.939200	0.397500	0.144100
H2981	H298	0.026600	0.750000	0.013800
H2991	H299	0.101000	0.799000	0.967400
H3001	H300	0.235300	0.766800	0.924200
H3011	H301	0.301300	0.688500	0.925900
H3021	H302	0.022400	0.502500	0.091700
H3031	H303	0.999500	0.541500	0.130100
H3041	H304	0.115500	0.506200	0.152000
H3051	H305	0.069000	0.467900	0.151500
H3061	H306	0.148800	0.470000	0.109800
H3071	H307	0.377200	0.928900	0.011900
H3081	H308	0.484500	0.864200	0.017200
H3091	H309	0.401700	0.866300	0.152700
H3101	H310	0.294200	0.933800	0.148200
H3111	H311	0.504100	0.791000	0.094000
H3121	H312	0.533800	0.820600	0.123600
C11	C1	0.943680	0.186020	0.846820
C21	C2	0.982650	0.195210	0.879090
C31	C3	0.984500	0.240400	0.883800
C41	C4	0.947400	0.277350	0.858250
C51	C5	0.909800	0.268100	0.826700
C61	C6	0.906100	0.222800	0.821400
C71	C7	0.025600	0.158350	0.906850
C81	C8	0.085120	0.039670	0.915690
C91	C9	0.129200	0.000100	0.939700
C101	C10	0.218100	0.980000	0.903600
C111	C11	0.183000	0.077100	0.807700
C121	C12	0.259900	0.070900	0.771900
C131	C13	0.262000	0.068700	0.726100
C141	C14	0.186500	0.076100	0.716700
C151	C15	0.113100	0.082500	0.753900
C161	C16	0.339600	0.058000	0.689000
C171	C17	0.295000	0.090840	0.917960
C181	C18	0.318200	0.060000	0.951800
C191	C19	0.403800	0.035600	0.945200
C201	C20	0.461700	0.043100	0.902100
C211	C21	0.435100	0.070900	0.870100
C221	C22	0.353100	0.095200	0.875400
C231	C23	0.261100	0.050970	0.995230
C241	C24	0.053880	0.085470	0.054170
C251	C25	0.992800	0.078200	0.098600
C261	C26	0.910200	0.112700	0.107700
C271	C27	0.826900	0.972370	0.831030
C281	C28	0.887180	0.996990	0.810650
C291	C29	0.922520	0.995580	0.763180
C301	C30	0.905700	0.968300	0.733500
C311	C31	0.851200	0.943200	0.753000
C321	C32	0.810800	0.943800	0.799600
C331	C33	0.905200	0.027760	0.838840
C341	C34	0.843220	0.071280	0.949480
C351	C35	0.846910	0.106990	0.979190
C361	C36	0.768600	0.132200	0.011400
C371	C37	0.576400	0.041700	0.582700
C381	C38	0.508500	0.045100	0.621100
C391	C39	0.455700	0.086900	0.638700
C401	C40	0.476800	0.123200	0.620200
C411	C41	0.545900	0.120400	0.580000
C421	C42	0.382600	0.093000	0.681400
C431	C43	0.476520	0.313980	0.653180
C441	C44	0.556950	0.304790	0.620910
C451	C45	0.608700	0.259600	0.616200
C461	C46	0.583000	0.222650	0.641750
C471	C47	0.504600	0.231900	0.673300
C481	C48	0.450300	0.277200	0.678600
C491	C49	0.590800	0.341650	0.593150
C501	C50	0.540480	0.460330	0.584310
C511	C51	0.569000	0.499900	0.560300
C521	C52	0.601700	0.520000	0.596400
C531	C53	0.567800	0.422900	0.692300
C541	C54	0.602700	0.429100	0.728100
C551	C55	0.556800	0.431300	0.773900
C561	C56	0.479300	0.423900	0.783300
C571	C57	0.449500	0.417500	0.746100
C581	C58	0.586600	0.442000	0.811000
C591	C59	0.803800	0.409160	0.582040
C601	C60	0.830000	0.440000	0.548200
C611	C61	0.884600	0.464400	0.554800
C621	C62	0.906900	0.456900	0.597900
C631	C63	0.876100	0.429100	0.629900
C641	C64	0.823700	0.404800	0.624600
C651	C65	0.807300	0.449030	0.504770
C661	C66	0.693520	0.414530	0.445830
C671	C67	0.669600	0.421800	0.401400
C681	C68	0.630600	0.387300	0.392300
C691	C69	0.130300	0.527630	0.668970
C701	C70	0.194820	0.503010	0.689350
C711	C71	0.181280	0.504420	0.736820
C721	C72	0.107500	0.531700	0.766500
C731	C73	0.047400	0.556800	0.747000
C741	C74	0.054200	0.556200	0.700400
C751	C75	0.271800	0.472240	0.661160
C761	C76	0.363980	0.428720	0.550520
C771	C77	0.433090	0.393010	0.520810
C781	C78	0.412200	0.367800	0.488600
C791	C79	0.700800	0.458300	0.917300
C801	C80	0.674700	0.454900	0.878900
C811	C81	0.681300	0.413100	0.861300
C821	C82	0.720200	0.376800	0.879800
C831	C83	0.746300	0.379600	0.920000
C841	C84	0.657000	0.407000	0.818600
C851	C85	0.790500	0.153180	0.686020
C861	C86	0.861740	0.120910	0.695210
C871	C87	0.868300	0.116200	0.740400
C881	C88	0.805650	0.141750	0.777350
C891	C89	0.736500	0.173300	0.768100
C901	C90	0.727500	0.178600	0.722800
C911	C91	0.932450	0.093150	0.658350
C921	C92	0.000810	0.084310	0.539670
C931	C93	0.068900	0.060300	0.500100
C941	C94	0.121700	0.096400	0.480000
C951	C95	0.990700	0.192300	0.577100
C961	C96	0.031800	0.228100	0.570900
C971	C97	0.988100	0.273900	0.568700
C981	C98	0.903200	0.283300	0.576100
C991	C99	0.867000	0.246100	0.582500
C1001	C100	0.028600	0.311000	0.558000
C1011	C101	0.212960	0.082040	0.590840
C1021	C102	0.270000	0.048200	0.560000
C1031	C103	0.349000	0.054800	0.535600
C1041	C104	0.363800	0.097900	0.543100
C1051	C105	0.305200	0.129900	0.570900
C1061	C106	0.228500	0.124600	0.595200
C1071	C107	0.256330	0.004770	0.550970
C1081	C108	0.108050	0.945830	0.585470
C1091	C109	0.091400	0.901400	0.578200
C1101	C110	0.017900	0.892300	0.612700
C1111	C111	0.657930	0.168970	0.472370
C1121	C112	0.697830	0.189350	0.496990
C1131	C113	0.685700	0.236820	0.495580
C1141	C114	0.639200	0.266500	0.468300
C1151	C115	0.604200	0.247000	0.443200
C1161	C116	0.610400	0.200400	0.443800
C1171	C117	0.744040	0.161160	0.527760
C1181	C118	0.792700	0.050520	0.571280
C1191	C119	0.826100	0.020810	0.606990
C1201	C120	0.780000	0.988600	0.632200
C1211	C121	0.159100	0.417300	0.541700
C1221	C122	0.129600	0.378900	0.545100
C1231	C123	0.094400	0.361300	0.586900
C1241	C124	0.097000	0.379800	0.623200
C1251	C125	0.125900	0.420000	0.620400
C1261	C126	0.064000	0.318600	0.593000
C1271	C127	0.129700	0.346820	0.813980
C1281	C128	0.177860	0.379090	0.804790
C1291	C129	0.224900	0.383800	0.759600
C1301	C130	0.224750	0.358250	0.722650
C1311	C131	0.177900	0.326700	0.731900
C1321	C132	0.128900	0.321400	0.777200
C1331	C133	0.183950	0.406850	0.841650
C1341	C134	0.124790	0.415690	0.960330
C1351	C135	0.129300	0.439700	0.999900
C1361	C136	0.198100	0.403600	0.020000
C1371	C137	0.260100	0.307700	0.922900
C1381	C138	0.330800	0.271900	0.929100
C1391	C139	0.330700	0.226100	0.931300
C1401	C140	0.262600	0.216700	0.923900
C1411	C141	0.195600	0.253900	0.917500
C1421	C142	0.397600	0.189000	0.942000
C1431	C143	0.385840	0.417960	0.909160
C1441	C144	0.378200	0.451800	0.940000
C1451	C145	0.439400	0.445200	0.964400
C1461	C146	0.504800	0.402100	0.956900
C1471	C147	0.506000	0.370100	0.929100
C1481	C148	0.448300	0.375400	0.904800
C1491	C149	0.312070	0.495230	0.949030
C1501	C150	0.139350	0.554170	0.914530
C1511	C151	0.071000	0.598600	0.921800
C1521	C152	0.022900	0.607700	0.887300
C1531	C153	0.799270	0.331030	0.027630
C1541	C154	0.884170	0.310650	0.003010
C1551	C155	0.918100	0.263180	0.004420
C1561	C156	0.874000	0.233500	0.031700
C1571	C157	0.794400	0.253000	0.056800
C1581	C158	0.754600	0.299600	0.056200
C1591	C159	0.932960	0.338840	0.972240
C1601	C160	0.914500	0.449480	0.928720
C1611	C161	0.953900	0.479190	0.893010
C1621	C162	0.900800	0.511400	0.867800
C1631	C163	0.618100	0.082700	0.958300
C1641	C164	0.553600	0.121100	0.954900
C1651	C165	0.542600	0.138700	0.913100
C1661	C166	0.600000	0.120200	0.876800
C1671	C167	0.666300	0.080000	0.879600
C1681	C168	0.475600	0.181400	0.907000
C1691	C169	0.056320	0.813980	0.153180
C1701	C170	0.017350	0.804790	0.120910
C1711	C171	0.015500	0.759600	0.116200
C1721	C172	0.052600	0.722650	0.141750
C1731	C173	0.090200	0.731900	0.173300
C1741	C174	0.093900	0.777200	0.178600
C1751	C175	0.974400	0.841650	0.093150
C1761	C176	0.914880	0.960330	0.084310
C1771	C177	0.870800	0.999900	0.060300
C1781	C178	0.781900	0.020000	0.096400
C1791	C179	0.817000	0.922900	0.192300
C1801	C180	0.740100	0.929100	0.228100
C1811	C181	0.738000	0.931300	0.273900
C1821	C182	0.813500	0.923900	0.283300
C1831	C183	0.886900	0.917500	0.246100
C1841	C184	0.660400	0.942000	0.311000
C1851	C185	0.705000	0.909160	0.082040
C1861	C186	0.681800	0.940000	0.048200
C1871	C187	0.596200	0.964400	0.054800
C1881	C188	0.538300	0.956900	0.097900
C1891	C189	0.564900	0.929100	0.129900
C1901	C190	0.646900	0.904800	0.124600
C1911	C191	0.738900	0.949030	0.004770
C1921	C192	0.946120	0.914530	0.945830
C1931	C193	0.007200	0.921800	0.901400
C1941	C194	0.089800	0.887300	0.892300
C1951	C195	0.173100	0.027630	0.168970
C1961	C196	0.112820	0.003010	0.189350
C1971	C197	0.077480	0.004420	0.236820
C1981	C198	0.094300	0.031700	0.266500
C1991	C199	0.148800	0.056800	0.247000
C2001	C200	0.189200	0.056200	0.200400
C2011	C201	0.094800	0.972240	0.161160
C2021	C202	0.156780	0.928720	0.050520
C2031	C203	0.153090	0.893010	0.020810
C2041	C204	0.231400	0.867800	0.988600
C2051	C205	0.423600	0.958300	0.417300
C2061	C206	0.491500	0.954900	0.378900
C2071	C207	0.544300	0.913100	0.361300
C2081	C208	0.523200	0.876800	0.379800
C2091	C209	0.454100	0.879600	0.420000
C2101	C210	0.617400	0.907000	0.318600
C2111	C211	0.523480	0.686020	0.346820
C2121	C212	0.443050	0.695210	0.379090
C2131	C213	0.391300	0.740400	0.383800
C2141	C214	0.417000	0.777350	0.358250
C2151	C215	0.495400	0.768100	0.326700
C2161	C216	0.549700	0.722800	0.321400
C2171	C217	0.409200	0.658350	0.406850
C2181	C218	0.459520	0.539670	0.415690
C2191	C219	0.431000	0.500100	0.439700
C2201	C220	0.398300	0.480000	0.403600
C2211	C221	0.432200	0.577100	0.307700
C2221	C222	0.397300	0.570900	0.271900
C2231	C223	0.443200	0.568700	0.226100
C2241	C224	0.520700	0.576100	0.216700
C2251	C225	0.550500	0.582500	0.253900
C2261	C226	0.413400	0.558000	0.189000
C2271	C227	0.196200	0.590840	0.417960
C2281	C228	0.170000	0.560000	0.451800
C2291	C229	0.115400	0.535600	0.445200
C2301	C230	0.093100	0.543100	0.402100
C2311	C231	0.123900	0.570900	0.370100
C2321	C232	0.176300	0.595200	0.375400
C2331	C233	0.192700	0.550970	0.495230
C2341	C234	0.306480	0.585470	0.554170
C2351	C235	0.330400	0.578200	0.598600
C2361	C236	0.369400	0.612700	0.607700
C2371	C237	0.869700	0.472370	0.331030
C2381	C238	0.805180	0.496990	0.310650
C2391	C239	0.818720	0.495580	0.263180
C2401	C240	0.892500	0.468300	0.233500
C2411	C241	0.952600	0.443200	0.253000
C2421	C242	0.945800	0.443800	0.299600
C2431	C243	0.728200	0.527760	0.338840
C2441	C244	0.636020	0.571280	0.449480
C2451	C245	0.566910	0.606990	0.479190
C2461	C246	0.587800	0.632200	0.511400
C2471	C247	0.299200	0.541700	0.082700
C2481	C248	0.325300	0.545100	0.121100
C2491	C249	0.318700	0.586900	0.138700
C2501	C250	0.279800	0.623200	0.120200
C2511	C251	0.253700	0.620400	0.080000
C2521	C252	0.343000	0.593000	0.181400
C2531	C253	0.209500	0.846820	0.313980
C2541	C254	0.138260	0.879090	0.304790
C2551	C255	0.131700	0.883800	0.259600
C2561	C256	0.194350	0.858250	0.222650
C2571	C257	0.263500	0.826700	0.231900
C2581	C258	0.272500	0.821400	0.277200
C2591	C259	0.067550	0.906850	0.341650
C2601	C260	0.999190	0.915690	0.460330
C2611	C261	0.931100	0.939700	0.499900
C2621	C262	0.878300	0.903600	0.520000
C2631	C263	0.009300	0.807700	0.422900
C2641	C264	0.968200	0.771900	0.429100
C2651	C265	0.011900	0.726100	0.431300
C2661	C266	0.096800	0.716700	0.423900
C2671	C267	0.133000	0.753900	0.417500
C2681	C268	0.971400	0.689000	0.442000
C2691	C269	0.787040	0.917960	0.409160
C2701	C270	0.730000	0.951800	0.440000
C2711	C271	0.651000	0.945200	0.464400
C2721	C272	0.636200	0.902100	0.456900
C2731	C273	0.694800	0.870100	0.429100
C2741	C274	0.771500	0.875400	0.404800
C2751	C275	0.743670	0.995230	0.449030
C2761	C276	0.891950	0.054170	0.414530
C2771	C277	0.908600	0.098600	0.421800
C2781	C278	0.982100	0.107700	0.387300
C2791	C279	0.342070	0.831030	0.527630
C2801	C280	0.302170	0.810650	0.503010
C2811	C281	0.314300	0.763180	0.504420
C2821	C282	0.360800	0.733500	0.531700
C2831	C283	0.395800	0.753000	0.556800
C2841	C284	0.389600	0.799600	0.556200
C2851	C285	0.255960	0.838840	0.472240
C2861	C286	0.207300	0.949480	0.428720
C2871	C287	0.173900	0.979190	0.393010
C2881	C288	0.220000	0.011400	0.367800
C2891	C289	0.840900	0.582700	0.458300
C2901	C290	0.870400	0.621100	0.454900
C2911	C291	0.905600	0.638700	0.413100
C2921	C292	0.903000	0.620200	0.376800
C2931	C293	0.874100	0.580000	0.379600
C2941	C294	0.936000	0.681400	0.407000
C2951	C295	0.870300	0.653180	0.186020
C2961	C296	0.822140	0.620910	0.195210
C2971	C297	0.775100	0.616200	0.240400
C2981	C298	0.775250	0.641750	0.277350
C2991	C299	0.822100	0.673300	0.268100
C3001	C300	0.871100	0.678600	0.222800
C3011	C301	0.816050	0.593150	0.158350
C3021	C302	0.875210	0.584310	0.039670
C3031	C303	0.870700	0.560300	0.000100
C3041	C304	0.801900	0.596400	0.980000
C3051	C305	0.739900	0.692300	0.077100
C3061	C306	0.669200	0.728100	0.070900
C3071	C307	0.669300	0.773900	0.068700
C3081	C308	0.737400	0.783300	0.076100
C3091	C309	0.804400	0.746100	0.082500
C3101	C310	0.602400	0.811000	0.058000
C3111	C311	0.614160	0.582040	0.090840
C3121	C312	0.621800	0.548200	0.060000
C3131	C313	0.560600	0.554800	0.035600
C3141	C314	0.495200	0.597900	0.043100
C3151	C315	0.494000	0.629900	0.070900
C3161	C316	0.551700	0.624600	0.095200
C3171	C317	0.687930	0.504770	0.050970
C3181	C318	0.860650	0.445830	0.085470
C3191	C319	0.929000	0.401400	0.078200
C3201	C320	0.977100	0.392300	0.112700
C3211	C321	0.200730	0.668970	0.972370
C3221	C322	0.115830	0.689350	0.996990
C3231	C323	0.081900	0.736820	0.995580
C3241	C324	0.126000	0.766500	0.968300
C3251	C325	0.205600	0.747000	0.943200
C3261	C326	0.245400	0.700400	0.943800
C3271	C327	0.067040	0.661160	0.027760
C3281	C328	0.085500	0.550520	0.071280
C3291	C329	0.046100	0.520810	0.106990
C3301	C330	0.099200	0.488600	0.132200
C3311	C331	0.381900	0.917300	0.041700
C3321	C332	0.446400	0.878900	0.045100
C3331	C333	0.457400	0.861300	0.086900
C3341	C334	0.400000	0.879800	0.123200
C3351	C335	0.333700	0.920000	0.120400
C3361	C336	0.524400	0.818600	0.093000
N11	N1	0.031090	0.114740	0.899680
N21	N2	0.074340	0.081830	0.927690
N31	N3	0.112200	0.082860	0.797940
N41	N4	0.181450	0.073150	0.003950
N51	N5	0.132810	0.059970	0.046810
N61	N6	0.864880	0.034110	0.883730
N71	N7	0.881870	0.068470	0.905790
N81	N8	0.593900	0.079300	0.561900
N91	N9	0.545510	0.385260	0.600320
N101	N10	0.583860	0.418170	0.572310
N111	N11	0.493000	0.417140	0.702060
N121	N12	0.758550	0.426850	0.496050
N131	N13	0.739590	0.440030	0.453190
N141	N14	0.282720	0.465890	0.616270
N151	N15	0.356130	0.431530	0.594210
N161	N16	0.735100	0.420700	0.938100
N171	N17	0.930770	0.100320	0.614740
N181	N18	0.002030	0.072310	0.581830
N191	N19	0.910140	0.202060	0.582860
N201	N20	0.185400	0.996050	0.573150
N211	N21	0.179620	0.953190	0.559970
N221	N22	0.748610	0.116270	0.534110
N231	N23	0.787660	0.094210	0.568470
N241	N24	0.155800	0.438100	0.579300
N251	N25	0.145830	0.399680	0.885260
N261	N26	0.156170	0.427690	0.918170
N271	N27	0.195060	0.297940	0.917140
N281	N28	0.254600	0.503950	0.926850
N291	N29	0.192780	0.546810	0.940030
N301	N30	0.898990	0.383730	0.965890
N311	N31	0.950340	0.405790	0.931530
N321	N32	0.673200	0.061900	0.920700
N331	N33	0.968910	0.885260	0.100320
N341	N34	0.925660	0.918170	0.072310
N351	N35	0.887800	0.917140	0.202060
N361	N36	0.818550	0.926850	0.996050
N371	N37	0.867190	0.940030	0.953190
N381	N38	0.135120	0.965890	0.116270
N391	N39	0.118130	0.931530	0.094210
N401	N40	0.406100	0.920700	0.438100
N411	N41	0.454490	0.614740	0.399680
N421	N42	0.416140	0.581830	0.427690
N431	N43	0.507000	0.582860	0.297940
N441	N44	0.241450	0.573150	0.503950
N451	N45	0.260410	0.559970	0.546810
N461	N46	0.717280	0.534110	0.383730
N471	N47	0.643870	0.568470	0.405790
N481	N48	0.264900	0.579300	0.061900
N491	N49	0.069230	0.899680	0.385260
N501	N50	0.997970	0.927690	0.418170
N511	N51	0.089860	0.797940	0.417140
N521	N52	0.814600	0.003950	0.426850
N531	N53	0.820380	0.046810	0.440030
N541	N54	0.251390	0.883730	0.465890
N551	N55	0.212340	0.905790	0.431530
N561	N56	0.844200	0.561900	0.420700
N571	N57	0.854170	0.600320	0.114740
N581	N58	0.843830	0.572310	0.081830
N591	N59	0.804940	0.702060	0.082860
N601	N60	0.745400	0.496050	0.073150
N611	N61	0.807220	0.453190	0.059970
N621	N62	0.101010	0.616270	0.034110
N631	N63	0.049660	0.594210	0.068470
N641	N64	0.326800	0.938100	0.079300
O11	O1	0.939260	0.143520	0.838960
O21	O2	0.052840	0.169930	0.937390
O31	O3	0.057020	0.030480	0.882480
O41	O4	0.216780	0.117850	0.922190
O51	O5	0.291000	0.022150	0.024050
O61	O6	0.030630	0.116070	0.024470
O71	O7	0.787140	0.971370	0.875550
O81	O8	0.960080	0.049620	0.818220
O91	O9	0.798940	0.042850	0.969470
O101	O10	0.421740	0.356480	0.661040
O111	O11	0.660160	0.330070	0.562610
O121	O12	0.469980	0.469520	0.617520
O131	O13	0.756820	0.382150	0.577810
O141	O14	0.837200	0.477850	0.475950
O151	O15	0.671170	0.383930	0.475530
O161	O16	0.134060	0.528630	0.624450
O171	O17	0.327920	0.450380	0.681780
O181	O18	0.311260	0.457150	0.530530
O191	O19	0.778220	0.161040	0.643520
O201	O20	0.990230	0.062610	0.669930
O211	O21	0.939500	0.117520	0.530480
O221	O22	0.138970	0.077810	0.617850
O231	O23	0.315050	0.975950	0.522150
O241	O24	0.055100	0.975530	0.616070
O251	O25	0.662690	0.124450	0.471370
O261	O26	0.778300	0.181780	0.549620
O271	O27	0.768410	0.030530	0.542850
O281	O28	0.082780	0.338960	0.856480
O291	O29	0.222770	0.437390	0.830070
O301	O30	0.087500	0.382480	0.969520
O311	O31	0.334630	0.422190	0.882150
O321	O32	0.313150	0.524050	0.977850
O331	O33	0.146700	0.524470	0.883930
O341	O34	0.758510	0.375550	0.028630
O351	O35	0.009700	0.318220	0.950380
O361	O36	0.841790	0.469470	0.957150
O371	O37	0.060740	0.856480	0.161040
O381	O38	0.947160	0.830070	0.062610
O391	O39	0.942980	0.969520	0.117520
O401	O40	0.783220	0.882150	0.077810
O411	O41	0.709000	0.977850	0.975950
O421	O42	0.969370	0.883930	0.975530
O431	O43	0.212860	0.028630	0.124450
O441	O44	0.039920	0.950380	0.181780
O451	O45	0.201060	0.957150	0.030530
O461	O46	0.578260	0.643520	0.338960
O471	O47	0.339840	0.669930	0.437390
O481	O48	0.530020	0.530480	0.382480
O491	O49	0.243180	0.617850	0.422190
O501	O50	0.162800	0.522150	0.524050
O511	O51	0.328830	0.616070	0.524470
O521	O52	0.865940	0.471370	0.375550
O531	O53	0.672080	0.549620	0.318220
O541	O54	0.688740	0.542850	0.469470
O551	O55	0.221780	0.838960	0.356480
O561	O56	0.009770	0.937390	0.330070
O571	O57	0.060500	0.882480	0.469520
O581	O58	0.861030	0.922190	0.382150
O591	O59	0.684950	0.024050	0.477850
O601	O60	0.944900	0.024470	0.383930
O611	O61	0.337310	0.875550	0.528630
O621	O62	0.221700	0.818220	0.450380
O631	O63	0.231590	0.969470	0.457150
O641	O64	0.917220	0.661040	0.143520
O651	O65	0.777230	0.562610	0.169930
O661	O66	0.912500	0.617520	0.030480
O671	O67	0.665370	0.577810	0.117850
O681	O68	0.686850	0.475950	0.022150
O691	O69	0.853300	0.475530	0.116070
O701	O70	0.241490	0.624450	0.971370
O711	O71	0.990300	0.681780	0.049620
O721	O72	0.158210	0.530530	0.042850
