data_XAKZOZ_clean_PM
_symmetry_space_group_name_H-M	'P1'
_cell_length_a	17.770300
_cell_length_b	29.790000
_cell_length_c	29.790000
_cell_angle_alpha	84.896300
_cell_angle_beta	72.646900
_cell_angle_gamma	72.646900
_symmetry_Int_Tables_number 1

loop_
_symmetry_equiv_pos_as_xyz
'x,y,z'

loop_
_atom_site_label
_atom_site_type_symbol
_atom_site_fract_x
_atom_site_fract_y
_atom_site_fract_z
Mn11	Mn1	0.784960	0.005000	0.925940
Mn21	Mn2	0.993260	0.084960	0.858000
Mn31	Mn3	0.878390	0.879780	0.031160
Mn41	Mn4	0.215900	0.495000	0.574060
Mn51	Mn5	0.436220	0.415040	0.642000
Mn61	Mn6	0.289330	0.620220	0.468840
Mn71	Mn7	0.710890	0.074070	0.505000
Mn81	Mn8	0.851260	0.142000	0.584960
Mn91	Mn9	0.909550	0.968840	0.379780
Mn101	Mn10	0.789970	0.425930	0.995000
Mn111	Mn11	0.078220	0.358000	0.915040
Mn121	Mn12	0.758170	0.531160	0.120220
Mn131	Mn13	0.215040	0.995000	0.074070
Mn141	Mn14	0.006740	0.915040	0.142000
Mn151	Mn15	0.121610	0.120220	0.968840
Mn161	Mn16	0.784100	0.505000	0.425940
Mn171	Mn17	0.563780	0.584960	0.358000
Mn181	Mn18	0.710670	0.379780	0.531160
Mn191	Mn19	0.289110	0.925930	0.495000
Mn201	Mn20	0.148740	0.858000	0.415040
Mn211	Mn21	0.090450	0.031160	0.620220
Mn221	Mn22	0.210030	0.574070	0.005000
Mn231	Mn23	0.921780	0.642000	0.084960
Mn241	Mn24	0.241830	0.468840	0.879780
H11	H1	0.766100	0.931100	0.812700
H21	H2	0.826600	0.929900	0.733500
H31	H3	0.922300	0.971700	0.699500
H41	H4	0.960000	0.012800	0.749400
H51	H5	0.888300	0.087300	0.000500
H61	H6	0.879000	0.127000	0.961000
H71	H7	0.799300	0.121300	0.001100
H81	H8	0.701800	0.069300	0.851700
H91	H9	0.592600	0.134400	0.848200
H101	H10	0.506200	0.132600	0.986800
H111	H11	0.620500	0.068200	0.988600
H121	H12	0.465900	0.181200	0.873800
H131	H13	0.481800	0.212100	0.909500
H141	H14	0.873500	0.218900	0.804500
H151	H15	0.880900	0.293600	0.811800
H161	H16	0.947600	0.308600	0.862000
H171	H17	0.011800	0.247600	0.903600
H181	H18	0.135600	0.008600	0.968200
H191	H19	0.073600	0.981800	0.961800
H201	H20	0.161700	0.974700	0.923900
H211	H21	0.147700	0.247500	0.910900
H221	H22	0.260600	0.186200	0.913000
H231	H23	0.371400	0.279900	0.930900
H241	H24	0.259500	0.338800	0.921400
H251	H25	0.389000	0.153500	0.932100
H261	H26	0.403100	0.186300	0.966700
H271	H27	0.667800	0.887400	0.152200
H281	H28	0.531600	0.925500	0.163700
H291	H29	0.484300	0.971400	0.103600
H301	H30	0.581400	0.983200	0.034200
H311	H31	0.038800	0.938800	0.907600
H321	H32	0.976400	0.939600	0.878200
H331	H33	0.037500	0.890700	0.888300
H341	H34	0.009900	0.568900	0.687300
H351	H35	0.990000	0.570100	0.766500
H361	H36	0.093500	0.528300	0.800500
H371	H37	0.222200	0.487200	0.750600
H381	H38	0.476100	0.412700	0.499500
H391	H39	0.467000	0.373000	0.539000
H401	H40	0.421700	0.378700	0.498900
H411	H41	0.122800	0.430700	0.648300
H421	H42	0.075200	0.365600	0.651800
H431	H43	0.125600	0.367400	0.513200
H441	H44	0.177300	0.431800	0.511400
H451	H45	0.020900	0.318800	0.626200
H461	H46	0.103400	0.287900	0.590500
H471	H47	0.396900	0.281100	0.695500
H481	H48	0.486300	0.206400	0.688200
H491	H49	0.618200	0.191400	0.638000
H501	H50	0.663000	0.252400	0.596400
H511	H51	0.612400	0.491400	0.531800
H521	H52	0.517200	0.518200	0.538200
H531	H53	0.560300	0.525300	0.576100
H541	H54	0.806100	0.252500	0.589100
H551	H55	0.859800	0.313800	0.587000
H561	H56	0.082200	0.220100	0.569100
H571	H57	0.019700	0.161200	0.578600
H581	H58	0.974600	0.346500	0.567900
H591	H59	0.056100	0.313700	0.533300
H601	H60	0.207400	0.612600	0.347800
H611	H61	0.120800	0.574500	0.336300
H621	H62	0.059300	0.528600	0.396400
H631	H63	0.098800	0.516800	0.465800
H641	H64	0.385200	0.561200	0.592400
H651	H65	0.294200	0.560400	0.621800
H661	H66	0.316500	0.609300	0.611700
H671	H67	0.578800	0.187300	0.431100
H681	H68	0.560100	0.266500	0.429900
H691	H69	0.621800	0.300500	0.471700
H701	H70	0.709400	0.250600	0.512800
H711	H71	0.888800	0.999500	0.587300
H721	H72	0.840000	0.039000	0.627000
H731	H73	0.800400	0.998900	0.621300
H741	H74	0.553500	0.148300	0.569300
H751	H75	0.440800	0.151800	0.634400
H761	H76	0.493000	0.013200	0.632600
H771	H77	0.609100	0.011400	0.568200
H781	H78	0.339700	0.126200	0.681200
H791	H79	0.391300	0.090500	0.712100
H801	H80	0.678000	0.195500	0.718900
H811	H81	0.692700	0.188200	0.793600
H821	H82	0.809600	0.138000	0.808600
H831	H83	0.915400	0.096400	0.747600
H841	H84	0.103800	0.031800	0.508600
H851	H85	0.035400	0.038200	0.481800
H861	H86	0.085600	0.076100	0.474700
H871	H87	0.058600	0.089100	0.747500
H881	H88	0.173600	0.087000	0.686200
H891	H89	0.302300	0.069100	0.779900
H901	H90	0.180900	0.078600	0.838800
H911	H91	0.321100	0.067900	0.653500
H921	H92	0.369800	0.033300	0.686300
H931	H93	0.820000	0.847800	0.387400
H941	H94	0.695300	0.836300	0.425500
H951	H95	0.587900	0.896400	0.471400
H961	H96	0.615600	0.965800	0.483200
H971	H97	0.946400	0.092400	0.438800
H981	H98	0.854600	0.121800	0.439600
H991	H99	0.925800	0.111700	0.390700
H1001	H100	0.697200	0.312700	0.068900
H1011	H101	0.756500	0.233500	0.070100
H1021	H102	0.894000	0.199500	0.028300
H1031	H103	0.972800	0.249400	0.987200
H1041	H104	0.975600	0.500500	0.912700
H1051	H105	0.006000	0.461000	0.873000
H1061	H106	0.920600	0.501100	0.878700
H1071	H107	0.771100	0.351700	0.930700
H1081	H108	0.727000	0.348200	0.865600
H1091	H109	0.638800	0.486800	0.867400
H1101	H110	0.688700	0.488600	0.931800
H1111	H111	0.647100	0.373800	0.818800
H1121	H112	0.693900	0.409500	0.787900
H1131	H113	0.092400	0.304500	0.781100
H1141	H114	0.174500	0.311800	0.706400
H1151	H115	0.256200	0.362000	0.691400
H1161	H116	0.259400	0.403600	0.752400
H1171	H117	0.144200	0.468200	0.991400
H1181	H118	0.055400	0.461800	0.018200
H1191	H119	0.136400	0.423900	0.025300
H1201	H120	0.395200	0.410900	0.752500
H1211	H121	0.446800	0.413000	0.813800
H1221	H122	0.651300	0.430900	0.720100
H1231	H123	0.598300	0.421400	0.661200
H1241	H124	0.542500	0.432100	0.846500
H1251	H125	0.589400	0.466700	0.813700
H1261	H126	0.555200	0.652200	0.112600
H1271	H127	0.457100	0.663700	0.074500
H1281	H128	0.455700	0.603600	0.028600
H1291	H129	0.564600	0.534200	0.016800
H1301	H130	0.977600	0.407600	0.061200
H1311	H131	0.916000	0.378200	0.060400
H1321	H132	0.928200	0.388300	0.109300
H1331	H133	0.233900	0.068900	0.187300
H1341	H134	0.173400	0.070100	0.266500
H1351	H135	0.077700	0.028300	0.300500
H1361	H136	0.040000	0.987200	0.250600
H1371	H137	0.111700	0.912700	0.999500
H1381	H138	0.121000	0.873000	0.039000
H1391	H139	0.200700	0.878700	0.998900
H1401	H140	0.298200	0.930700	0.148300
H1411	H141	0.407400	0.865600	0.151800
H1421	H142	0.493800	0.867400	0.013200
H1431	H143	0.379500	0.931800	0.011400
H1441	H144	0.534100	0.818800	0.126200
H1451	H145	0.518200	0.787900	0.090500
H1461	H146	0.126500	0.781100	0.195500
H1471	H147	0.119100	0.706400	0.188200
H1481	H148	0.052400	0.691400	0.138000
H1491	H149	0.988200	0.752400	0.096400
H1501	H150	0.864400	0.991400	0.031800
H1511	H151	0.926400	0.018200	0.038200
H1521	H152	0.838300	0.025300	0.076100
H1531	H153	0.852300	0.752500	0.089100
H1541	H154	0.739400	0.813800	0.087000
H1551	H155	0.628600	0.720100	0.069100
H1561	H156	0.740500	0.661200	0.078600
H1571	H157	0.611000	0.846500	0.067900
H1581	H158	0.596900	0.813700	0.033300
H1591	H159	0.332200	0.112600	0.847800
H1601	H160	0.468400	0.074500	0.836300
H1611	H161	0.515700	0.028600	0.896400
H1621	H162	0.418600	0.016800	0.965800
H1631	H163	0.961200	0.061200	0.092400
H1641	H164	0.023600	0.060400	0.121800
H1651	H165	0.962500	0.109300	0.111700
H1661	H166	0.990100	0.431100	0.312700
H1671	H167	0.010000	0.429900	0.233500
H1681	H168	0.906500	0.471700	0.199500
H1691	H169	0.777800	0.512800	0.249400
H1701	H170	0.523900	0.587300	0.500500
H1711	H171	0.533000	0.627000	0.461000
H1721	H172	0.578300	0.621300	0.501100
H1731	H173	0.877200	0.569300	0.351700
H1741	H174	0.924800	0.634400	0.348200
H1751	H175	0.874400	0.632600	0.486800
H1761	H176	0.822700	0.568200	0.488600
H1771	H177	0.979100	0.681200	0.373800
H1781	H178	0.896600	0.712100	0.409500
H1791	H179	0.603100	0.718900	0.304500
H1801	H180	0.513700	0.793600	0.311800
H1811	H181	0.381800	0.808600	0.362000
H1821	H182	0.337000	0.747600	0.403600
H1831	H183	0.387600	0.508600	0.468200
H1841	H184	0.482800	0.481800	0.461800
H1851	H185	0.439700	0.474700	0.423900
H1861	H186	0.193900	0.747500	0.410900
H1871	H187	0.140200	0.686200	0.413000
H1881	H188	0.917800	0.779900	0.430900
H1891	H189	0.980300	0.838800	0.421400
H1901	H190	0.025400	0.653500	0.432100
H1911	H191	0.943900	0.686300	0.466700
H1921	H192	0.792600	0.387400	0.652200
H1931	H193	0.879200	0.425500	0.663700
H1941	H194	0.940700	0.471400	0.603600
H1951	H195	0.901200	0.483200	0.534200
H1961	H196	0.614800	0.438800	0.407600
H1971	H197	0.705800	0.439600	0.378200
H1981	H198	0.683500	0.390700	0.388300
H1991	H199	0.421200	0.812700	0.568900
H2001	H200	0.439900	0.733500	0.570100
H2011	H201	0.378200	0.699500	0.528300
H2021	H202	0.290600	0.749400	0.487200
H2031	H203	0.111200	0.000500	0.412700
H2041	H204	0.160000	0.961000	0.373000
H2051	H205	0.199600	0.001100	0.378700
H2061	H206	0.446500	0.851700	0.430700
H2071	H207	0.559200	0.848200	0.365600
H2081	H208	0.507000	0.986800	0.367400
H2091	H209	0.390900	0.988600	0.431800
H2101	H210	0.660300	0.873800	0.318800
H2111	H211	0.608700	0.909500	0.287900
H2121	H212	0.322000	0.804500	0.281100
H2131	H213	0.307300	0.811800	0.206400
H2141	H214	0.190400	0.862000	0.191400
H2151	H215	0.084600	0.903600	0.252400
H2161	H216	0.896200	0.968200	0.491400
H2171	H217	0.964600	0.961800	0.518200
H2181	H218	0.914400	0.923900	0.525300
H2191	H219	0.941400	0.910900	0.252500
H2201	H220	0.826400	0.913000	0.313800
H2211	H221	0.697700	0.930900	0.220100
H2221	H222	0.819100	0.921400	0.161200
H2231	H223	0.678900	0.932100	0.346500
H2241	H224	0.630200	0.966700	0.313700
H2251	H225	0.180000	0.152200	0.612600
H2261	H226	0.304700	0.163700	0.574500
H2271	H227	0.412100	0.103600	0.528600
H2281	H228	0.384400	0.034200	0.516800
H2291	H229	0.053600	0.907600	0.561200
H2301	H230	0.145400	0.878200	0.560400
H2311	H231	0.074200	0.888300	0.609300
H2321	H232	0.302800	0.687300	0.931100
H2331	H233	0.243500	0.766500	0.929900
H2341	H234	0.106000	0.800500	0.971700
H2351	H235	0.027200	0.750600	0.012800
H2361	H236	0.024400	0.499500	0.087300
H2371	H237	0.994000	0.539000	0.127000
H2381	H238	0.079400	0.498900	0.121300
H2391	H239	0.228900	0.648300	0.069300
H2401	H240	0.273000	0.651800	0.134400
H2411	H241	0.361200	0.513200	0.132600
H2421	H242	0.311300	0.511400	0.068200
H2431	H243	0.352900	0.626200	0.181200
H2441	H244	0.306100	0.590500	0.212100
H2451	H245	0.907600	0.695500	0.218900
H2461	H246	0.825500	0.688200	0.293600
H2471	H247	0.743800	0.638000	0.308600
H2481	H248	0.740600	0.596400	0.247600
H2491	H249	0.855800	0.531800	0.008600
H2501	H250	0.944600	0.538200	0.981800
H2511	H251	0.863600	0.576100	0.974700
H2521	H252	0.604800	0.589100	0.247500
H2531	H253	0.553200	0.587000	0.186200
H2541	H254	0.348700	0.569100	0.279900
H2551	H255	0.401700	0.578600	0.338800
H2561	H256	0.457500	0.567900	0.153500
H2571	H257	0.410600	0.533300	0.186300
H2581	H258	0.444800	0.347800	0.887400
H2591	H259	0.542900	0.336300	0.925500
H2601	H260	0.544300	0.396400	0.971400
H2611	H261	0.435400	0.465800	0.983200
H2621	H262	0.022400	0.592400	0.938800
H2631	H263	0.084000	0.621800	0.939600
H2641	H264	0.071800	0.611700	0.890700
C11	C1	0.823280	0.973260	0.830040
C21	C2	0.805010	0.948280	0.800100
C31	C3	0.840930	0.947530	0.753010
C41	C4	0.898230	0.971960	0.732580
C51	C5	0.919250	0.996870	0.762410
C61	C6	0.882140	0.998830	0.810110
C71	C7	0.903070	0.029060	0.839180
C81	C8	0.843570	0.070700	0.950800
C91	C9	0.853380	0.104410	0.980890
C101	C10	0.661800	0.082140	0.880140
C111	C11	0.595430	0.121190	0.878150
C121	C12	0.538230	0.140090	0.914850
C131	C13	0.546300	0.120060	0.958340
C141	C14	0.614720	0.081200	0.959160
C151	C15	0.468720	0.182640	0.906320
C161	C16	0.941900	0.186070	0.848190
C171	C17	0.903050	0.224040	0.824440
C181	C18	0.906530	0.268560	0.829160
C191	C19	0.946270	0.277480	0.858580
C201	C20	0.984240	0.241260	0.883040
C211	C21	0.983330	0.194620	0.878500
C221	C22	0.024230	0.158280	0.906360
C231	C23	0.078710	0.038990	0.916870
C241	C24	0.115750	0.997320	0.945240
C251	C25	0.194670	0.254100	0.914500
C261	C26	0.260600	0.217540	0.916860
C271	C27	0.327430	0.225940	0.924800
C281	C28	0.325940	0.272260	0.926460
C291	C29	0.258880	0.307010	0.921590
C301	C30	0.400770	0.183550	0.934310
C311	C31	0.709330	0.909370	0.084970
C321	C32	0.650500	0.906090	0.127510
C331	C33	0.569820	0.928730	0.134430
C341	C34	0.541400	0.956830	0.099170
C351	C35	0.599340	0.962700	0.057620
C361	C36	0.682260	0.939770	0.049310
C371	C37	0.738710	0.949810	0.005750
C381	C38	0.941270	0.916420	0.944940
C391	C39	0.003710	0.921830	0.901130
C401	C40	0.126580	0.526740	0.669960
C411	C41	0.053390	0.551720	0.699900
C421	C42	0.041470	0.552470	0.746990
C431	C43	0.102770	0.528040	0.767420
C441	C44	0.178530	0.503130	0.737590
C451	C45	0.191080	0.501170	0.689890
C461	C46	0.271310	0.470940	0.660820
C471	C47	0.365070	0.429300	0.549200
C481	C48	0.438680	0.395590	0.519110
C491	C49	0.124080	0.417860	0.619860
C501	C50	0.094770	0.378810	0.621850
C511	C51	0.093170	0.359910	0.585150
C521	C52	0.124700	0.379940	0.541660
C531	C53	0.155080	0.418800	0.540840
C541	C54	0.057680	0.317360	0.593680
C551	C55	0.476160	0.313930	0.651810
C561	C56	0.451530	0.275960	0.675560
C571	C57	0.504250	0.231440	0.670840
C581	C58	0.582330	0.222520	0.641420
C591	C59	0.608540	0.258740	0.616960
C601	C60	0.556450	0.305380	0.621500
C611	C61	0.588870	0.341720	0.593640
C621	C62	0.534570	0.461010	0.583130
C631	C63	0.558310	0.502680	0.554760
C641	C64	0.863270	0.245900	0.585500
C651	C65	0.895000	0.282460	0.583140
C661	C66	0.978170	0.274060	0.575200
C671	C67	0.024660	0.227740	0.573540
C681	C68	0.987480	0.192990	0.578410
C691	C69	0.018630	0.316450	0.565690
C701	C70	0.203670	0.590630	0.415030
C711	C71	0.184100	0.593910	0.372490
C721	C72	0.132980	0.571270	0.365570
C731	C73	0.097400	0.543170	0.400830
C741	C74	0.119660	0.537300	0.442380
C751	C75	0.171340	0.560230	0.450690
C761	C76	0.194270	0.550190	0.494250
C771	C77	0.302630	0.583580	0.555060
C781	C78	0.326670	0.578170	0.598870
C791	C79	0.653320	0.169960	0.473260
C801	C80	0.605110	0.199900	0.448280
C811	C81	0.593940	0.246990	0.447530
C821	C82	0.630810	0.267420	0.471960
C831	C83	0.681660	0.237590	0.496870
C841	C84	0.692250	0.189890	0.498830
C851	C85	0.742250	0.160820	0.529060
C861	C86	0.794370	0.049200	0.570700
C871	C87	0.834270	0.019110	0.604410
C881	C88	0.541940	0.119860	0.582140
C891	C89	0.473580	0.121850	0.621190
C901	C90	0.453080	0.085150	0.640090
C911	C91	0.504640	0.041660	0.620060
C921	C92	0.573880	0.040840	0.581200
C931	C93	0.375040	0.093680	0.682640
C941	C94	0.790090	0.151810	0.686070
C951	C95	0.727490	0.175560	0.724040
C961	C96	0.735690	0.170840	0.768560
C971	C97	0.804850	0.141420	0.777480
C981	C98	0.867280	0.116960	0.741260
C991	C99	0.861830	0.121500	0.694620
C1001	C100	0.930590	0.093640	0.658280
C1011	C101	0.995580	0.083130	0.538990
C1021	C102	0.060990	0.054760	0.497320
C1031	C103	0.109170	0.085500	0.754100
C1041	C104	0.177460	0.083140	0.717540
C1051	C105	0.252230	0.075200	0.725940
C1061	C106	0.252400	0.073540	0.772260
C1071	C107	0.180470	0.078410	0.807010
C1081	C108	0.335080	0.065690	0.683550
C1091	C109	0.794300	0.915030	0.409370
C1101	C110	0.778010	0.872490	0.406090
C1111	C111	0.704250	0.865570	0.428730
C1121	C112	0.640570	0.900830	0.456830
C1131	C113	0.656960	0.942380	0.462700
C1141	C114	0.731570	0.950690	0.439770
C1151	C115	0.744460	0.994250	0.449810
C1161	C116	0.886210	0.055060	0.416420
C1171	C117	0.904840	0.098870	0.421830
C1181	C118	0.796540	0.330040	0.026740
C1191	C119	0.753290	0.300100	0.051720
C1201	C120	0.788460	0.253010	0.052470
C1211	C121	0.870190	0.232580	0.028040
C1221	C122	0.916120	0.262410	0.003130
C1231	C123	0.880970	0.310110	0.001170
C1241	C124	0.932130	0.339180	0.970940
C1251	C125	0.914270	0.450800	0.929300
C1261	C126	0.957790	0.480890	0.895590
C1271	C127	0.743940	0.380140	0.917860
C1281	C128	0.716620	0.378150	0.878810
C1291	C129	0.678320	0.414850	0.859910
C1301	C130	0.666360	0.458340	0.879940
C1311	C131	0.695920	0.459160	0.918800
C1321	C132	0.651360	0.406320	0.817360
C1331	C133	0.127970	0.348190	0.813930
C1341	C134	0.127090	0.324440	0.775960
C1351	C135	0.175090	0.329160	0.731440
C1361	C136	0.223750	0.358580	0.722520
C1371	C137	0.225500	0.383040	0.758740
C1381	C138	0.177950	0.378500	0.805380
C1391	C139	0.182510	0.406360	0.841720
C1401	C140	0.117700	0.416870	0.961010
C1411	C141	0.113070	0.445240	0.002680
C1421	C142	0.448770	0.414500	0.745900
C1431	C143	0.478140	0.416860	0.782460
C1441	C144	0.553370	0.424800	0.774060
C1451	C145	0.598200	0.426460	0.727740
C1461	C146	0.565890	0.421590	0.692990
C1471	C147	0.584320	0.434310	0.816450
C1481	C148	0.618700	0.584970	0.090630
C1491	C149	0.556590	0.627510	0.093910
C1501	C150	0.498550	0.634430	0.071270
C1511	C151	0.498230	0.599170	0.043170
C1521	C152	0.562040	0.557620	0.037300
C1531	C153	0.622030	0.549310	0.060230
C1541	C154	0.688520	0.505750	0.050190
C1551	C155	0.857690	0.444940	0.083580
C1561	C156	0.925540	0.401130	0.078170
C1571	C157	0.176720	0.026740	0.169960
C1581	C158	0.194990	0.051720	0.199900
C1591	C159	0.159070	0.052470	0.246990
C1601	C160	0.101770	0.028040	0.267420
C1611	C161	0.080750	0.003130	0.237590
C1621	C162	0.117860	0.001170	0.189890
C1631	C163	0.096930	0.970940	0.160820
C1641	C164	0.156430	0.929300	0.049200
C1651	C165	0.146620	0.895590	0.019110
C1661	C166	0.338200	0.917860	0.119860
C1671	C167	0.404570	0.878810	0.121850
C1681	C168	0.461770	0.859910	0.085150
C1691	C169	0.453700	0.879940	0.041660
C1701	C170	0.385280	0.918800	0.040840
C1711	C171	0.531280	0.817360	0.093680
C1721	C172	0.058100	0.813930	0.151810
C1731	C173	0.096950	0.775960	0.175560
C1741	C174	0.093470	0.731440	0.170840
C1751	C175	0.053730	0.722520	0.141420
C1761	C176	0.015760	0.758740	0.116960
C1771	C177	0.016670	0.805380	0.121500
C1781	C178	0.975770	0.841720	0.093640
C1791	C179	0.921290	0.961010	0.083130
C1801	C180	0.884250	0.002680	0.054760
C1811	C181	0.805330	0.745900	0.085500
C1821	C182	0.739400	0.782460	0.083140
C1831	C183	0.672570	0.774060	0.075200
C1841	C184	0.674060	0.727740	0.073540
C1851	C185	0.741120	0.692990	0.078410
C1861	C186	0.599230	0.816450	0.065690
C1871	C187	0.290670	0.090630	0.915030
C1881	C188	0.349500	0.093910	0.872490
C1891	C189	0.430180	0.071270	0.865570
C1901	C190	0.458600	0.043170	0.900830
C1911	C191	0.400660	0.037300	0.942380
C1921	C192	0.317740	0.060230	0.950690
C1931	C193	0.261290	0.050190	0.994250
C1941	C194	0.058730	0.083580	0.055060
C1951	C195	0.996290	0.078170	0.098870
C1961	C196	0.873420	0.473260	0.330040
C1971	C197	0.946610	0.448280	0.300100
C1981	C198	0.958530	0.447530	0.253010
C1991	C199	0.897230	0.471960	0.232580
C2001	C200	0.821470	0.496870	0.262410
C2011	C201	0.808920	0.498830	0.310110
C2021	C202	0.728690	0.529060	0.339180
C2031	C203	0.634930	0.570700	0.450800
C2041	C204	0.561320	0.604410	0.480890
C2051	C205	0.875920	0.582140	0.380140
C2061	C206	0.905230	0.621190	0.378150
C2071	C207	0.906830	0.640090	0.414850
C2081	C208	0.875300	0.620060	0.458340
C2091	C209	0.844920	0.581200	0.459160
C2101	C210	0.942320	0.682640	0.406320
C2111	C211	0.523840	0.686070	0.348190
C2121	C212	0.548470	0.724040	0.324440
C2131	C213	0.495750	0.768560	0.329160
C2141	C214	0.417670	0.777480	0.358580
C2151	C215	0.391460	0.741260	0.383040
C2161	C216	0.443550	0.694620	0.378500
C2171	C217	0.411130	0.658280	0.406360
C2181	C218	0.465430	0.538990	0.416870
C2191	C219	0.441690	0.497320	0.445240
C2201	C220	0.136730	0.754100	0.414500
C2211	C221	0.105000	0.717540	0.416860
C2221	C222	0.021830	0.725940	0.424800
C2231	C223	0.975340	0.772260	0.426460
C2241	C224	0.012520	0.807010	0.421590
C2251	C225	0.981370	0.683550	0.434310
C2261	C226	0.796330	0.409370	0.584970
C2271	C227	0.815900	0.406090	0.627510
C2281	C228	0.867020	0.428730	0.634430
C2291	C229	0.902600	0.456830	0.599170
C2301	C230	0.880340	0.462700	0.557620
C2311	C231	0.828660	0.439770	0.549310
C2321	C232	0.805730	0.449810	0.505750
C2331	C233	0.697370	0.416420	0.444940
C2341	C234	0.673330	0.421830	0.401130
C2351	C235	0.346680	0.830040	0.526740
C2361	C236	0.394890	0.800100	0.551720
C2371	C237	0.406060	0.753010	0.552470
C2381	C238	0.369190	0.732580	0.528040
C2391	C239	0.318340	0.762410	0.503130
C2401	C240	0.307750	0.810110	0.501170
C2411	C241	0.257750	0.839180	0.470940
C2421	C242	0.205630	0.950800	0.429300
C2431	C243	0.165730	0.980890	0.395590
C2441	C244	0.458060	0.880140	0.417860
C2451	C245	0.526420	0.878150	0.378810
C2461	C246	0.546920	0.914850	0.359910
C2471	C247	0.495360	0.958340	0.379940
C2481	C248	0.426120	0.959160	0.418800
C2491	C249	0.624960	0.906320	0.317360
C2501	C250	0.209910	0.848190	0.313930
C2511	C251	0.272510	0.824440	0.275960
C2521	C252	0.264310	0.829160	0.231440
C2531	C253	0.195150	0.858580	0.222520
C2541	C254	0.132720	0.883040	0.258740
C2551	C255	0.138170	0.878500	0.305380
C2561	C256	0.069410	0.906360	0.341720
C2571	C257	0.004420	0.916870	0.461010
C2581	C258	0.939010	0.945240	0.502680
C2591	C259	0.890830	0.914500	0.245900
C2601	C260	0.822540	0.916860	0.282460
C2611	C261	0.747770	0.924800	0.274060
C2621	C262	0.747600	0.926460	0.227740
C2631	C263	0.819530	0.921590	0.192990
C2641	C264	0.664920	0.934310	0.316450
C2651	C265	0.205700	0.084970	0.590630
C2661	C266	0.221990	0.127510	0.593910
C2671	C267	0.295750	0.134430	0.571270
C2681	C268	0.359430	0.099170	0.543170
C2691	C269	0.343040	0.057620	0.537300
C2701	C270	0.268430	0.049310	0.560230
C2711	C271	0.255540	0.005750	0.550190
C2721	C272	0.113790	0.944940	0.583580
C2731	C273	0.095160	0.901130	0.578170
C2741	C274	0.203460	0.669960	0.973260
C2751	C275	0.246710	0.699900	0.948280
C2761	C276	0.211540	0.746990	0.947530
C2771	C277	0.129810	0.767420	0.971960
C2781	C278	0.083880	0.737590	0.996870
C2791	C279	0.119030	0.689890	0.998830
C2801	C280	0.067870	0.660820	0.029060
C2811	C281	0.085730	0.549200	0.070700
C2821	C282	0.042210	0.519110	0.104410
C2831	C283	0.256060	0.619860	0.082140
C2841	C284	0.283380	0.621850	0.121190
C2851	C285	0.321680	0.585150	0.140090
C2861	C286	0.333640	0.541660	0.120060
C2871	C287	0.304080	0.540840	0.081200
C2881	C288	0.348640	0.593680	0.182640
C2891	C289	0.872030	0.651810	0.186070
C2901	C290	0.872910	0.675560	0.224040
C2911	C291	0.824910	0.670840	0.268560
C2921	C292	0.776250	0.641420	0.277480
C2931	C293	0.774500	0.616960	0.241260
C2941	C294	0.822050	0.621500	0.194620
C2951	C295	0.817490	0.593640	0.158280
C2961	C296	0.882300	0.583130	0.038990
C2971	C297	0.886930	0.554760	0.997320
C2981	C298	0.551230	0.585500	0.254100
C2991	C299	0.521860	0.583140	0.217540
C3001	C300	0.446630	0.575200	0.225940
C3011	C301	0.401800	0.573540	0.272260
C3021	C302	0.434110	0.578410	0.307010
C3031	C303	0.415680	0.565690	0.183550
C3041	C304	0.381300	0.415030	0.909370
C3051	C305	0.443410	0.372490	0.906090
C3061	C306	0.501450	0.365570	0.928730
C3071	C307	0.501770	0.400830	0.956830
C3081	C308	0.437960	0.442380	0.962700
C3091	C309	0.377970	0.450690	0.939770
C3101	C310	0.311480	0.494250	0.949810
C3111	C311	0.142310	0.555060	0.916420
C3121	C312	0.074460	0.598870	0.921830
N11	N1	0.861190	0.035570	0.884230
N21	N2	0.881200	0.068570	0.906490
N31	N3	0.670160	0.062560	0.920880
N41	N4	0.030350	0.113550	0.900330
N51	N5	0.071700	0.081640	0.928920
N61	N6	0.192640	0.298080	0.917020
N71	N7	0.817110	0.928260	0.997340
N81	N8	0.864910	0.941400	0.953780
N91	N9	0.280990	0.464430	0.615770
N101	N10	0.356260	0.431430	0.593510
N111	N11	0.153600	0.437440	0.579120
N121	N12	0.544230	0.386450	0.599670
N131	N13	0.582260	0.418360	0.571080
N141	N14	0.907740	0.201920	0.582980
N151	N15	0.242710	0.571740	0.502660
N161	N16	0.260090	0.558600	0.546220
N171	N17	0.745420	0.115770	0.535570
N181	N18	0.787690	0.093510	0.568570
N191	N19	0.591040	0.079120	0.562560
N201	N20	0.930680	0.099670	0.613550
N211	N21	0.000620	0.071080	0.581640
N221	N22	0.109660	0.082980	0.798080
N231	N23	0.814450	0.002660	0.428260
N241	N24	0.818690	0.046220	0.441400
N251	N25	0.896760	0.384230	0.964430
N261	N26	0.949770	0.406490	0.931430
N271	N27	0.732720	0.420880	0.937440
N281	N28	0.143900	0.400330	0.886450
N291	N29	0.153340	0.428920	0.918360
N301	N30	0.490720	0.417020	0.701920
N311	N31	0.745370	0.497340	0.071740
N321	N32	0.806310	0.453780	0.058600
N331	N33	0.138810	0.964430	0.115770
N341	N34	0.118800	0.931430	0.093510
N351	N35	0.329840	0.937440	0.079120
N361	N36	0.969650	0.886450	0.099670
N371	N37	0.928300	0.918360	0.071080
N381	N38	0.807360	0.701920	0.082980
N391	N39	0.182890	0.071740	0.002660
N401	N40	0.135090	0.058600	0.046220
N411	N41	0.719010	0.535570	0.384230
N421	N42	0.643740	0.568570	0.406490
N431	N43	0.846400	0.562560	0.420880
N441	N44	0.455770	0.613550	0.400330
N451	N45	0.417740	0.581640	0.428920
N461	N46	0.092260	0.798080	0.417020
N471	N47	0.757290	0.428260	0.497340
N481	N48	0.739910	0.441400	0.453780
N491	N49	0.254580	0.884230	0.464430
N501	N50	0.212310	0.906490	0.431430
N511	N51	0.408960	0.920880	0.437440
N521	N52	0.069320	0.900330	0.386450
N531	N53	0.999380	0.928920	0.418360
N541	N54	0.890340	0.917020	0.201920
N551	N55	0.185550	0.997340	0.571740
N561	N56	0.181310	0.953780	0.558600
N571	N57	0.103240	0.615770	0.035570
N581	N58	0.050230	0.593510	0.068570
N591	N59	0.267280	0.579120	0.062560
N601	N60	0.856100	0.599670	0.113550
N611	N61	0.846660	0.571080	0.081640
N621	N62	0.509280	0.582980	0.298080
N631	N63	0.254630	0.502660	0.928260
N641	N64	0.193690	0.546220	0.941400
O11	O1	0.783300	0.972980	0.875840
O21	O2	0.958540	0.049350	0.818930
O31	O3	0.795240	0.044180	0.970460
O41	O4	0.937550	0.143330	0.840330
O51	O5	0.054110	0.169830	0.936750
O61	O6	0.053750	0.029020	0.883840
O71	O7	0.784100	0.884670	0.081210
O81	O8	0.708680	0.979350	0.976710
O91	O9	0.966190	0.883880	0.974980
O101	O10	0.132120	0.527020	0.624160
O111	O11	0.326820	0.450650	0.681070
O121	O12	0.309880	0.455820	0.529540
O131	O13	0.421210	0.356670	0.659670
O141	O14	0.660690	0.330170	0.563250
O151	O15	0.466610	0.470980	0.616160
O161	O16	0.249980	0.615330	0.418790
O171	O17	0.164740	0.520650	0.523290
O181	O18	0.325050	0.616120	0.525020
O191	O19	0.659140	0.124160	0.472980
O201	O20	0.777470	0.181070	0.549350
O211	O21	0.765700	0.029540	0.544180
O221	O22	0.777880	0.159670	0.643330
O231	O23	0.990860	0.063250	0.669830
O241	O24	0.937590	0.116160	0.529020
O251	O25	0.865310	0.918790	0.384670
O261	O26	0.685390	0.023290	0.479350
O271	O27	0.941170	0.025020	0.383880
O281	O28	0.756280	0.375840	0.027020
O291	O29	0.007890	0.318930	0.950650
O301	O30	0.839420	0.470460	0.955820
O311	O31	0.080880	0.340330	0.856670
O321	O32	0.223940	0.436750	0.830170
O331	O33	0.082770	0.383840	0.970980
O341	O34	0.668770	0.581210	0.115330
O351	O35	0.688030	0.476710	0.020650
O361	O36	0.850070	0.474980	0.116120
O371	O37	0.216700	0.027020	0.124160
O381	O38	0.041460	0.950650	0.181070
O391	O39	0.204760	0.955820	0.029540
O401	O40	0.062450	0.856670	0.159670
O411	O41	0.945890	0.830170	0.063250
O421	O42	0.946250	0.970980	0.116160
O431	O43	0.215900	0.115330	0.918790
O441	O44	0.291320	0.020650	0.023290
O451	O45	0.033810	0.116120	0.025020
O461	O46	0.867880	0.472980	0.375840
O471	O47	0.673180	0.549350	0.318930
O481	O48	0.690120	0.544180	0.470460
O491	O49	0.578790	0.643330	0.340330
O501	O50	0.339310	0.669830	0.436750
O511	O51	0.533390	0.529020	0.383840
O521	O52	0.750020	0.384670	0.581210
O531	O53	0.835260	0.479350	0.476710
O541	O54	0.674950	0.383880	0.474980
O551	O55	0.340860	0.875840	0.527020
O561	O56	0.222530	0.818930	0.450650
O571	O57	0.234300	0.970460	0.455820
O581	O58	0.222120	0.840330	0.356670
O591	O59	0.009140	0.936750	0.330170
O601	O60	0.062410	0.883840	0.470980
O611	O61	0.134690	0.081210	0.615330
O621	O62	0.314610	0.976710	0.520650
O631	O63	0.058830	0.974980	0.616120
O641	O64	0.243720	0.624160	0.972980
O651	O65	0.992110	0.681070	0.049350
O661	O66	0.160580	0.529540	0.044180
O671	O67	0.919120	0.659670	0.143330
O681	O68	0.776060	0.563250	0.169830
O691	O69	0.917230	0.616160	0.029020
O701	O70	0.331230	0.418790	0.884670
O711	O71	0.311970	0.523290	0.979350
O721	O72	0.149930	0.525020	0.883880
