data_XAKZUF_clean_PM
_symmetry_space_group_name_H-M	'P1'
_cell_length_a	40.709000
_cell_length_b	40.709000
_cell_length_c	17.468000
_cell_angle_alpha	90.000000
_cell_angle_beta	90.000000
_cell_angle_gamma	90.000000
_symmetry_Int_Tables_number 1

loop_
_symmetry_equiv_pos_as_xyz
'x,y,z'

loop_
_atom_site_label
_atom_site_type_symbol
_atom_site_fract_x
_atom_site_fract_y
_atom_site_fract_z
Mn11	Mn1	0.295820	0.824200	0.078560
O11	O1	0.270790	0.844930	0.003600
O21	O2	0.277510	0.745270	0.934350
O31	O3	0.320310	0.795780	0.147420
N11	N1	0.290190	0.782620	0.026400
N21	N2	0.305900	0.755530	0.063900
C11	C1	0.255130	0.832650	0.945700
C21	C2	0.234970	0.854140	0.901000
H11	H1	0.231300	0.875900	0.918900
C31	C3	0.221100	0.844900	0.835300
H21	H2	0.208100	0.860200	0.807800
C41	C4	0.225200	0.813600	0.806200
H31	H3	0.215800	0.807600	0.758400
C51	C5	0.243800	0.790660	0.849700
H41	H4	0.246300	0.768800	0.831500
C61	C6	0.258290	0.799850	0.918400
C71	C7	0.276000	0.774730	0.961100
C81	C8	0.320210	0.765290	0.125900
C91	C9	0.337490	0.740040	0.174500
H51	H5	0.350300	0.725600	0.140000
H61	H6	0.320600	0.726300	0.199500
C101	C10	0.360400	0.752680	0.235900
H71	H7	0.376000	0.768200	0.213200
H81	H8	0.372400	0.734200	0.258500
H91	H9	0.347600	0.763800	0.275700
Mn21	Mn2	0.289130	0.709120	0.004610
O41	O4	0.330590	0.699690	0.964930
O51	O5	0.317440	0.634380	0.152140
O61	O6	0.246930	0.712620	0.055710
N31	N3	0.293700	0.674170	0.079270
N41	N4	0.265500	0.668810	0.124500
N51	N5	0.262910	0.676190	0.917400
C111	C11	0.352360	0.677030	0.986100
C121	C12	0.381530	0.675420	0.943500
H101	H10	0.385000	0.690500	0.902700
C131	C13	0.405280	0.652220	0.960200
H111	H11	0.424400	0.650900	0.929100
C141	C14	0.401750	0.631090	0.020800
H121	H12	0.418400	0.615500	0.032700
C151	C15	0.373420	0.632930	0.064300
H131	H13	0.370800	0.618400	0.106500
C161	C16	0.348500	0.655620	0.047700
C171	C17	0.318880	0.654470	0.095800
C181	C18	0.242780	0.689750	0.107200
C191	C19	0.209810	0.687070	0.144600
H141	H14	0.208900	0.666000	0.172800
H151	H15	0.207800	0.705000	0.182700
C201	C20	0.181140	0.688700	0.092300
H161	H16	0.183600	0.707500	0.057700
H171	H17	0.161000	0.691200	0.122400
H181	H18	0.179900	0.668400	0.062200
C211	C21	0.233400	0.685190	0.894000
H191	H19	0.225300	0.706200	0.908600
C221	C22	0.213300	0.665000	0.848500
H201	H20	0.191500	0.671100	0.835600
C231	C23	0.227300	0.634850	0.822800
C241	C24	0.253400	0.625870	0.855000
H211	H21	0.261100	0.604100	0.847400
C251	C25	0.271400	0.646890	0.901300
H221	H22	0.291300	0.638900	0.922500
C261	C26	0.210400	0.612330	0.764400
H231	H23	0.227500	0.602900	0.730700
H241	H24	0.200100	0.593900	0.792500
Mn31	Mn3	0.220440	0.863390	0.276200
O71	O7	0.240600	0.901050	0.312630
O81	O8	0.302920	0.865180	0.135730
O91	O9	0.205260	0.823410	0.227360
N61	N6	0.256180	0.856040	0.204260
N71	N7	0.253590	0.826640	0.162300
N81	N8	0.141990	0.560180	0.559400
C271	C27	0.265710	0.917760	0.283300
C281	C28	0.272250	0.948700	0.314600
H251	H25	0.258900	0.956400	0.355400
C291	C29	0.297240	0.968170	0.288700
H261	H26	0.300800	0.989100	0.311100
C301	C30	0.317690	0.957220	0.229000
H271	H27	0.335000	0.970700	0.210200
C311	C31	0.312020	0.926650	0.198700
H281	H28	0.326200	0.918800	0.159400
C321	C32	0.286340	0.906620	0.223100
C331	C33	0.281770	0.874750	0.186000
C341	C34	0.226250	0.811870	0.178300
C351	C35	0.217170	0.780920	0.138000
H291	H29	0.236800	0.771000	0.113900
H301	H30	0.207900	0.764900	0.174900
C361	C36	0.189600	0.790100	0.072000
H311	H31	0.197300	0.808900	0.041900
H321	H32	0.186500	0.771100	0.038100
H331	H33	0.168700	0.795600	0.096700
C371	C37	0.165080	0.580660	0.536400
H341	H34	0.171200	0.580800	0.483900
C381	C38	0.180840	0.602070	0.586800
H351	H35	0.198000	0.615900	0.569000
C391	C39	0.171300	0.603050	0.663600
C401	C40	0.148120	0.581350	0.685400
H361	H36	0.141400	0.580700	0.737400
C411	C41	0.134280	0.560450	0.634700
H371	H37	0.118400	0.545200	0.652800
C421	C42	0.187000	0.626700	0.719300
H381	H38	0.197200	0.644900	0.690200
H391	H39	0.169700	0.636200	0.752400
Mn41	Mn4	0.795820	0.324200	0.578560
O101	O10	0.770790	0.344930	0.503600
O111	O11	0.777510	0.245270	0.434350
O121	O12	0.820310	0.295780	0.647420
N91	N9	0.790190	0.282620	0.526400
N101	N10	0.805900	0.255530	0.563900
C431	C43	0.755130	0.332650	0.445700
C441	C44	0.734970	0.354140	0.401000
H401	H40	0.731300	0.375900	0.418900
C451	C45	0.721100	0.344900	0.335300
H411	H41	0.708100	0.360200	0.307800
C461	C46	0.725200	0.313600	0.306200
H421	H42	0.715800	0.307600	0.258400
C471	C47	0.743800	0.290660	0.349700
H431	H43	0.746300	0.268800	0.331500
C481	C48	0.758290	0.299850	0.418400
C491	C49	0.776000	0.274730	0.461100
C501	C50	0.820210	0.265290	0.625900
C511	C51	0.837490	0.240040	0.674500
H441	H44	0.850300	0.225600	0.640000
H451	H45	0.820600	0.226300	0.699500
C521	C52	0.860400	0.252680	0.735900
H461	H46	0.876000	0.268200	0.713200
H471	H47	0.872400	0.234200	0.758500
H481	H48	0.847600	0.263800	0.775700
Mn51	Mn5	0.789130	0.209120	0.504610
O131	O13	0.830590	0.199690	0.464930
O141	O14	0.817440	0.134380	0.652140
O151	O15	0.746930	0.212620	0.555710
N111	N11	0.793700	0.174170	0.579270
N121	N12	0.765500	0.168810	0.624500
N131	N13	0.762910	0.176190	0.417400
C531	C53	0.852360	0.177030	0.486100
C541	C54	0.881530	0.175420	0.443500
H491	H49	0.885000	0.190500	0.402700
C551	C55	0.905280	0.152220	0.460200
H501	H50	0.924400	0.150900	0.429100
C561	C56	0.901750	0.131090	0.520800
H511	H51	0.918400	0.115500	0.532700
C571	C57	0.873420	0.132930	0.564300
H521	H52	0.870800	0.118400	0.606500
C581	C58	0.848500	0.155620	0.547700
C591	C59	0.818880	0.154470	0.595800
C601	C60	0.742780	0.189750	0.607200
C611	C61	0.709810	0.187070	0.644600
H531	H53	0.708900	0.166000	0.672800
H541	H54	0.707800	0.205000	0.682700
C621	C62	0.681140	0.188700	0.592300
H551	H55	0.683600	0.207500	0.557700
H561	H56	0.661000	0.191200	0.622400
H571	H57	0.679900	0.168400	0.562200
C631	C63	0.733400	0.185190	0.394000
H581	H58	0.725300	0.206200	0.408600
C641	C64	0.713300	0.165000	0.348500
H591	H59	0.691500	0.171100	0.335600
C651	C65	0.727300	0.134850	0.322800
C661	C66	0.753400	0.125870	0.355000
H601	H60	0.761100	0.104100	0.347400
C671	C67	0.771400	0.146890	0.401300
H611	H61	0.791300	0.138900	0.422500
C681	C68	0.710400	0.112330	0.264400
H621	H62	0.727500	0.102900	0.230700
H631	H63	0.700100	0.093900	0.292500
Mn61	Mn6	0.720440	0.363390	0.776200
O161	O16	0.740600	0.401050	0.812630
O171	O17	0.802920	0.365180	0.635730
O181	O18	0.705260	0.323410	0.727360
N141	N14	0.756180	0.356040	0.704260
N151	N15	0.753590	0.326640	0.662300
N161	N16	0.641990	0.060180	0.059400
C691	C69	0.765710	0.417760	0.783300
C701	C70	0.772250	0.448700	0.814600
H641	H64	0.758900	0.456400	0.855400
C711	C71	0.797240	0.468170	0.788700
H651	H65	0.800800	0.489100	0.811100
C721	C72	0.817690	0.457220	0.729000
H661	H66	0.835000	0.470700	0.710200
C731	C73	0.812020	0.426650	0.698700
H671	H67	0.826200	0.418800	0.659400
C741	C74	0.786340	0.406620	0.723100
C751	C75	0.781770	0.374750	0.686000
C761	C76	0.726250	0.311870	0.678300
C771	C77	0.717170	0.280920	0.638000
H681	H68	0.736800	0.271000	0.613900
H691	H69	0.707900	0.264900	0.674900
C781	C78	0.689600	0.290100	0.572000
H701	H70	0.697300	0.308900	0.541900
H711	H71	0.686500	0.271100	0.538100
H721	H72	0.668700	0.295600	0.596700
C791	C79	0.665080	0.080660	0.036400
H731	H73	0.671200	0.080800	0.983900
C801	C80	0.680840	0.102070	0.086800
H741	H74	0.698000	0.115900	0.069000
C811	C81	0.671300	0.103050	0.163600
C821	C82	0.648120	0.081350	0.185400
H751	H75	0.641400	0.080700	0.237400
C831	C83	0.634280	0.060450	0.134700
H761	H76	0.618400	0.045200	0.152800
C841	C84	0.687000	0.126700	0.219300
H771	H77	0.697200	0.144900	0.190200
H781	H78	0.669700	0.136200	0.252400
Mn71	Mn7	0.204180	0.175800	0.578560
O191	O19	0.229210	0.155070	0.503600
O201	O20	0.222490	0.254730	0.434350
O211	O21	0.179690	0.204220	0.647420
N171	N17	0.209810	0.217380	0.526400
N181	N18	0.194100	0.244470	0.563900
C851	C85	0.244870	0.167350	0.445700
C861	C86	0.265030	0.145860	0.401000
H791	H79	0.268700	0.124100	0.418900
C871	C87	0.278900	0.155100	0.335300
H801	H80	0.291900	0.139800	0.307800
C881	C88	0.274800	0.186400	0.306200
H811	H81	0.284200	0.192400	0.258400
C891	C89	0.256200	0.209340	0.349700
H821	H82	0.253700	0.231200	0.331500
C901	C90	0.241710	0.200150	0.418400
C911	C91	0.224000	0.225270	0.461100
C921	C92	0.179790	0.234710	0.625900
C931	C93	0.162510	0.259960	0.674500
H831	H83	0.149700	0.274400	0.640000
H841	H84	0.179400	0.273700	0.699500
C941	C94	0.139600	0.247320	0.735900
H851	H85	0.124000	0.231800	0.713200
H861	H86	0.127600	0.265800	0.758500
H871	H87	0.152400	0.236200	0.775700
Mn81	Mn8	0.210870	0.290880	0.504610
O221	O22	0.169410	0.300310	0.464930
O231	O23	0.182560	0.365620	0.652140
O241	O24	0.253070	0.287380	0.555710
N191	N19	0.206300	0.325830	0.579270
N201	N20	0.234500	0.331190	0.624500
N211	N21	0.237090	0.323810	0.417400
C951	C95	0.147640	0.322970	0.486100
C961	C96	0.118470	0.324580	0.443500
H881	H88	0.115000	0.309500	0.402700
C971	C97	0.094720	0.347780	0.460200
H891	H89	0.075600	0.349100	0.429100
C981	C98	0.098250	0.368910	0.520800
H901	H90	0.081600	0.384500	0.532700
C991	C99	0.126580	0.367070	0.564300
H911	H91	0.129200	0.381600	0.606500
C1001	C100	0.151500	0.344380	0.547700
C1011	C101	0.181120	0.345530	0.595800
C1021	C102	0.257220	0.310250	0.607200
C1031	C103	0.290190	0.312930	0.644600
H921	H92	0.291100	0.334000	0.672800
H931	H93	0.292200	0.295000	0.682700
C1041	C104	0.318860	0.311300	0.592300
H941	H94	0.316400	0.292500	0.557700
H951	H95	0.339000	0.308800	0.622400
H961	H96	0.320100	0.331600	0.562200
C1051	C105	0.266600	0.314810	0.394000
H971	H97	0.274700	0.293800	0.408600
C1061	C106	0.286700	0.335000	0.348500
H981	H98	0.308500	0.328900	0.335600
C1071	C107	0.272700	0.365150	0.322800
C1081	C108	0.246600	0.374130	0.355000
H991	H99	0.238900	0.395900	0.347400
C1091	C109	0.228600	0.353110	0.401300
H1001	H100	0.208700	0.361100	0.422500
C1101	C110	0.289600	0.387670	0.264400
H1011	H101	0.272500	0.397100	0.230700
H1021	H102	0.299900	0.406100	0.292500
Mn91	Mn9	0.279560	0.136610	0.776200
O251	O25	0.259400	0.098950	0.812630
O261	O26	0.197080	0.134820	0.635730
O271	O27	0.294740	0.176590	0.727360
N221	N22	0.243820	0.143960	0.704260
N231	N23	0.246410	0.173360	0.662300
N241	N24	0.358010	0.439820	0.059400
C1111	C111	0.234290	0.082240	0.783300
C1121	C112	0.227750	0.051300	0.814600
H1031	H103	0.241100	0.043600	0.855400
C1131	C113	0.202760	0.031830	0.788700
H1041	H104	0.199200	0.010900	0.811100
C1141	C114	0.182310	0.042780	0.729000
H1051	H105	0.165000	0.029300	0.710200
C1151	C115	0.187980	0.073350	0.698700
H1061	H106	0.173800	0.081200	0.659400
C1161	C116	0.213660	0.093380	0.723100
C1171	C117	0.218230	0.125250	0.686000
C1181	C118	0.273750	0.188130	0.678300
C1191	C119	0.282830	0.219080	0.638000
H1071	H107	0.263200	0.229000	0.613900
H1081	H108	0.292100	0.235100	0.674900
C1201	C120	0.310400	0.209900	0.572000
H1091	H109	0.302700	0.191100	0.541900
H1101	H110	0.313500	0.228900	0.538100
H1111	H111	0.331300	0.204400	0.596700
C1211	C121	0.334920	0.419340	0.036400
H1121	H112	0.328800	0.419200	0.983900
C1221	C122	0.319160	0.397930	0.086800
H1131	H113	0.302000	0.384100	0.069000
C1231	C123	0.328700	0.396950	0.163600
C1241	C124	0.351880	0.418650	0.185400
H1141	H114	0.358600	0.419300	0.237400
C1251	C125	0.365720	0.439550	0.134700
H1151	H115	0.381600	0.454800	0.152800
C1261	C126	0.313000	0.373300	0.219300
H1161	H116	0.302800	0.355100	0.190200
H1171	H117	0.330300	0.363800	0.252400
Mn101	Mn10	0.704180	0.675800	0.078560
O281	O28	0.729210	0.655070	0.003600
O291	O29	0.722490	0.754730	0.934350
O301	O30	0.679690	0.704220	0.147420
N251	N25	0.709810	0.717380	0.026400
N261	N26	0.694100	0.744470	0.063900
C1271	C127	0.744870	0.667350	0.945700
C1281	C128	0.765030	0.645860	0.901000
H1181	H118	0.768700	0.624100	0.918900
C1291	C129	0.778900	0.655100	0.835300
H1191	H119	0.791900	0.639800	0.807800
C1301	C130	0.774800	0.686400	0.806200
H1201	H120	0.784200	0.692400	0.758400
C1311	C131	0.756200	0.709340	0.849700
H1211	H121	0.753700	0.731200	0.831500
C1321	C132	0.741710	0.700150	0.918400
C1331	C133	0.724000	0.725270	0.961100
C1341	C134	0.679790	0.734710	0.125900
C1351	C135	0.662510	0.759960	0.174500
H1221	H122	0.649700	0.774400	0.140000
H1231	H123	0.679400	0.773700	0.199500
C1361	C136	0.639600	0.747320	0.235900
H1241	H124	0.624000	0.731800	0.213200
H1251	H125	0.627600	0.765800	0.258500
H1261	H126	0.652400	0.736200	0.275700
Mn111	Mn11	0.710870	0.790880	0.004610
O311	O31	0.669410	0.800310	0.964930
O321	O32	0.682560	0.865620	0.152140
O331	O33	0.753070	0.787380	0.055710
N271	N27	0.706300	0.825830	0.079270
N281	N28	0.734500	0.831190	0.124500
N291	N29	0.737090	0.823810	0.917400
C1371	C137	0.647640	0.822970	0.986100
C1381	C138	0.618470	0.824580	0.943500
H1271	H127	0.615000	0.809500	0.902700
C1391	C139	0.594720	0.847780	0.960200
H1281	H128	0.575600	0.849100	0.929100
C1401	C140	0.598250	0.868910	0.020800
H1291	H129	0.581600	0.884500	0.032700
C1411	C141	0.626580	0.867070	0.064300
H1301	H130	0.629200	0.881600	0.106500
C1421	C142	0.651500	0.844380	0.047700
C1431	C143	0.681120	0.845530	0.095800
C1441	C144	0.757220	0.810250	0.107200
C1451	C145	0.790190	0.812930	0.144600
H1311	H131	0.791100	0.834000	0.172800
H1321	H132	0.792200	0.795000	0.182700
C1461	C146	0.818860	0.811300	0.092300
H1331	H133	0.816400	0.792500	0.057700
H1341	H134	0.839000	0.808800	0.122400
H1351	H135	0.820100	0.831600	0.062200
C1471	C147	0.766600	0.814810	0.894000
H1361	H136	0.774700	0.793800	0.908600
C1481	C148	0.786700	0.835000	0.848500
H1371	H137	0.808500	0.828900	0.835600
C1491	C149	0.772700	0.865150	0.822800
C1501	C150	0.746600	0.874130	0.855000
H1381	H138	0.738900	0.895900	0.847400
C1511	C151	0.728600	0.853110	0.901300
H1391	H139	0.708700	0.861100	0.922500
C1521	C152	0.789600	0.887670	0.764400
H1401	H140	0.772500	0.897100	0.730700
H1411	H141	0.799900	0.906100	0.792500
Mn121	Mn12	0.779560	0.636610	0.276200
O341	O34	0.759400	0.598950	0.312630
O351	O35	0.697080	0.634820	0.135730
O361	O36	0.794740	0.676590	0.227360
N301	N30	0.743820	0.643960	0.204260
N311	N31	0.746410	0.673360	0.162300
N321	N32	0.858010	0.939820	0.559400
C1531	C153	0.734290	0.582240	0.283300
C1541	C154	0.727750	0.551300	0.314600
H1421	H142	0.741100	0.543600	0.355400
C1551	C155	0.702760	0.531830	0.288700
H1431	H143	0.699200	0.510900	0.311100
C1561	C156	0.682310	0.542780	0.229000
H1441	H144	0.665000	0.529300	0.210200
C1571	C157	0.687980	0.573350	0.198700
H1451	H145	0.673800	0.581200	0.159400
C1581	C158	0.713660	0.593380	0.223100
C1591	C159	0.718230	0.625250	0.186000
C1601	C160	0.773750	0.688130	0.178300
C1611	C161	0.782830	0.719080	0.138000
H1461	H146	0.763200	0.729000	0.113900
H1471	H147	0.792100	0.735100	0.174900
C1621	C162	0.810400	0.709900	0.072000
H1481	H148	0.802700	0.691100	0.041900
H1491	H149	0.813500	0.728900	0.038100
H1501	H150	0.831300	0.704400	0.096700
C1631	C163	0.834920	0.919340	0.536400
H1511	H151	0.828800	0.919200	0.483900
C1641	C164	0.819160	0.897930	0.586800
H1521	H152	0.802000	0.884100	0.569000
C1651	C165	0.828700	0.896950	0.663600
C1661	C166	0.851880	0.918650	0.685400
H1531	H153	0.858600	0.919300	0.737400
C1671	C167	0.865720	0.939550	0.634700
H1541	H154	0.881600	0.954800	0.652800
C1681	C168	0.813000	0.873300	0.719300
H1551	H155	0.802800	0.855100	0.690200
H1561	H156	0.830300	0.863800	0.752400
Mn131	Mn13	0.925800	0.545820	0.328560
O371	O37	0.905070	0.520790	0.253600
O381	O38	0.004730	0.527510	0.184350
O391	O39	0.954220	0.570310	0.397420
N331	N33	0.967380	0.540190	0.276400
N341	N34	0.994470	0.555900	0.313900
C1691	C169	0.917350	0.505130	0.195700
C1701	C170	0.895860	0.484970	0.151000
H1571	H157	0.874100	0.481300	0.168900
C1711	C171	0.905100	0.471100	0.085300
H1581	H158	0.889800	0.458100	0.057800
C1721	C172	0.936400	0.475200	0.056200
H1591	H159	0.942400	0.465800	0.008400
C1731	C173	0.959340	0.493800	0.099700
H1601	H160	0.981200	0.496300	0.081500
C1741	C174	0.950150	0.508290	0.168400
C1751	C175	0.975270	0.526000	0.211100
C1761	C176	0.984710	0.570210	0.375900
C1771	C177	0.009960	0.587490	0.424500
H1611	H161	0.024400	0.600300	0.390000
H1621	H162	0.023700	0.570600	0.449500
C1781	C178	0.997320	0.610400	0.485900
H1631	H163	0.981800	0.626000	0.463200
H1641	H164	0.015800	0.622400	0.508500
H1651	H165	0.986200	0.597600	0.525700
Mn141	Mn14	0.040880	0.539130	0.254610
O401	O40	0.050310	0.580590	0.214930
O411	O41	0.115620	0.567440	0.402140
O421	O42	0.037380	0.496930	0.305710
N351	N35	0.075830	0.543700	0.329270
N361	N36	0.081190	0.515500	0.374500
N371	N37	0.073810	0.512910	0.167400
C1791	C179	0.072970	0.602360	0.236100
C1801	C180	0.074580	0.631530	0.193500
H1661	H166	0.059500	0.635000	0.152700
C1811	C181	0.097780	0.655280	0.210200
H1671	H167	0.099100	0.674400	0.179100
C1821	C182	0.118910	0.651750	0.270800
H1681	H168	0.134500	0.668400	0.282700
C1831	C183	0.117070	0.623420	0.314300
H1691	H169	0.131600	0.620800	0.356500
C1841	C184	0.094380	0.598500	0.297700
C1851	C185	0.095530	0.568880	0.345800
C1861	C186	0.060250	0.492780	0.357200
C1871	C187	0.062930	0.459810	0.394600
H1701	H170	0.084000	0.458900	0.422800
H1711	H171	0.045000	0.457800	0.432700
C1881	C188	0.061300	0.431140	0.342300
H1721	H172	0.042500	0.433600	0.307700
H1731	H173	0.058800	0.411000	0.372400
H1741	H174	0.081600	0.429900	0.312200
C1891	C189	0.064810	0.483400	0.144000
H1751	H175	0.043800	0.475300	0.158600
C1901	C190	0.085000	0.463300	0.098500
H1761	H176	0.078900	0.441500	0.085600
C1911	C191	0.115150	0.477300	0.072800
C1921	C192	0.124130	0.503400	0.105000
H1771	H177	0.145900	0.511100	0.097400
C1931	C193	0.103110	0.521400	0.151300
H1781	H178	0.111100	0.541300	0.172500
C1941	C194	0.137670	0.460400	0.014400
H1791	H179	0.147100	0.477500	0.980700
H1801	H180	0.156100	0.450100	0.042500
Mn151	Mn15	0.886610	0.470440	0.526200
O431	O43	0.848950	0.490600	0.562630
O441	O44	0.884820	0.552920	0.385730
O451	O45	0.926590	0.455260	0.477360
N381	N38	0.893960	0.506180	0.454260
N391	N39	0.923360	0.503590	0.412300
N401	N40	0.189820	0.391990	0.809400
C1951	C195	0.832240	0.515710	0.533300
C1961	C196	0.801300	0.522250	0.564600
H1811	H181	0.793600	0.508900	0.605400
C1971	C197	0.781830	0.547240	0.538700
H1821	H182	0.760900	0.550800	0.561100
C1981	C198	0.792780	0.567690	0.479000
H1831	H183	0.779300	0.585000	0.460200
C1991	C199	0.823350	0.562020	0.448700
H1841	H184	0.831200	0.576200	0.409400
C2001	C200	0.843380	0.536340	0.473100
C2011	C201	0.875250	0.531770	0.436000
C2021	C202	0.938130	0.476250	0.428300
C2031	C203	0.969080	0.467170	0.388000
H1851	H185	0.979000	0.486800	0.363900
H1861	H186	0.985100	0.457900	0.424900
C2041	C204	0.959900	0.439600	0.322000
H1871	H187	0.941100	0.447300	0.291900
H1881	H188	0.978900	0.436500	0.288100
H1891	H189	0.954400	0.418700	0.346700
C2051	C205	0.169340	0.415080	0.786400
H1901	H190	0.169200	0.421200	0.733900
C2061	C206	0.147930	0.430840	0.836800
H1911	H191	0.134100	0.448000	0.819000
C2071	C207	0.146950	0.421300	0.913600
C2081	C208	0.168650	0.398120	0.935400
H1921	H192	0.169300	0.391400	0.987400
C2091	C209	0.189550	0.384280	0.884700
H1931	H193	0.204800	0.368400	0.902800
C2101	C210	0.123300	0.437000	0.969300
H1941	H194	0.105100	0.447200	0.940200
H1951	H195	0.113800	0.419700	0.002400
Mn161	Mn16	0.425800	0.045820	0.828560
O461	O46	0.405070	0.020790	0.753600
O471	O47	0.504730	0.027510	0.684350
O481	O48	0.454220	0.070310	0.897420
N411	N41	0.467380	0.040190	0.776400
N421	N42	0.494470	0.055900	0.813900
C2111	C211	0.417350	0.005130	0.695700
C2121	C212	0.395860	0.984970	0.651000
H1961	H196	0.374100	0.981300	0.668900
C2131	C213	0.405100	0.971100	0.585300
H1971	H197	0.389800	0.958100	0.557800
C2141	C214	0.436400	0.975200	0.556200
H1981	H198	0.442400	0.965800	0.508400
C2151	C215	0.459340	0.993800	0.599700
H1991	H199	0.481200	0.996300	0.581500
C2161	C216	0.450150	0.008290	0.668400
C2171	C217	0.475270	0.026000	0.711100
C2181	C218	0.484710	0.070210	0.875900
C2191	C219	0.509960	0.087490	0.924500
H2001	H200	0.524400	0.100300	0.890000
H2011	H201	0.523700	0.070600	0.949500
C2201	C220	0.497320	0.110400	0.985900
H2021	H202	0.481800	0.126000	0.963200
H2031	H203	0.515800	0.122400	0.008500
H2041	H204	0.486200	0.097600	0.025700
Mn171	Mn17	0.540880	0.039130	0.754610
O491	O49	0.550310	0.080590	0.714930
O501	O50	0.615620	0.067440	0.902140
O511	O51	0.537380	0.996930	0.805710
N431	N43	0.575830	0.043700	0.829270
N441	N44	0.581190	0.015500	0.874500
N451	N45	0.573810	0.012910	0.667400
C2211	C221	0.572970	0.102360	0.736100
C2221	C222	0.574580	0.131530	0.693500
H2051	H205	0.559500	0.135000	0.652700
C2231	C223	0.597780	0.155280	0.710200
H2061	H206	0.599100	0.174400	0.679100
C2241	C224	0.618910	0.151750	0.770800
H2071	H207	0.634500	0.168400	0.782700
C2251	C225	0.617070	0.123420	0.814300
H2081	H208	0.631600	0.120800	0.856500
C2261	C226	0.594380	0.098500	0.797700
C2271	C227	0.595530	0.068880	0.845800
C2281	C228	0.560250	0.992780	0.857200
C2291	C229	0.562930	0.959810	0.894600
H2091	H209	0.584000	0.958900	0.922800
H2101	H210	0.545000	0.957800	0.932700
C2301	C230	0.561300	0.931140	0.842300
H2111	H211	0.542500	0.933600	0.807700
H2121	H212	0.558800	0.911000	0.872400
H2131	H213	0.581600	0.929900	0.812200
C2311	C231	0.564810	0.983400	0.644000
H2141	H214	0.543800	0.975300	0.658600
C2321	C232	0.585000	0.963300	0.598500
H2151	H215	0.578900	0.941500	0.585600
C2331	C233	0.615150	0.977300	0.572800
C2341	C234	0.624130	0.003400	0.605000
H2161	H216	0.645900	0.011100	0.597400
C2351	C235	0.603110	0.021400	0.651300
H2171	H217	0.611100	0.041300	0.672500
C2361	C236	0.637670	0.960400	0.514400
H2181	H218	0.647100	0.977500	0.480700
H2191	H219	0.656100	0.950100	0.542500
Mn181	Mn18	0.386610	0.970440	0.026200
O521	O52	0.348950	0.990600	0.062630
O531	O53	0.384820	0.052920	0.885730
O541	O54	0.426590	0.955260	0.977360
N461	N46	0.393960	0.006180	0.954260
N471	N47	0.423360	0.003590	0.912300
N481	N48	0.689820	0.891990	0.309400
C2371	C237	0.332240	0.015710	0.033300
C2381	C238	0.301300	0.022250	0.064600
H2201	H220	0.293600	0.008900	0.105400
C2391	C239	0.281830	0.047240	0.038700
H2211	H221	0.260900	0.050800	0.061100
C2401	C240	0.292780	0.067690	0.979000
H2221	H222	0.279300	0.085000	0.960200
C2411	C241	0.323350	0.062020	0.948700
H2231	H223	0.331200	0.076200	0.909400
C2421	C242	0.343380	0.036340	0.973100
C2431	C243	0.375250	0.031770	0.936000
C2441	C244	0.438130	0.976250	0.928300
C2451	C245	0.469080	0.967170	0.888000
H2241	H224	0.479000	0.986800	0.863900
H2251	H225	0.485100	0.957900	0.924900
C2461	C246	0.459900	0.939600	0.822000
H2261	H226	0.441100	0.947300	0.791900
H2271	H227	0.478900	0.936500	0.788100
H2281	H228	0.454400	0.918700	0.846700
C2471	C247	0.669340	0.915080	0.286400
H2291	H229	0.669200	0.921200	0.233900
C2481	C248	0.647930	0.930840	0.336800
H2301	H230	0.634100	0.948000	0.319000
C2491	C249	0.646950	0.921300	0.413600
C2501	C250	0.668650	0.898120	0.435400
H2311	H231	0.669300	0.891400	0.487400
C2511	C251	0.689550	0.884280	0.384700
H2321	H232	0.704800	0.868400	0.402800
C2521	C252	0.623300	0.937000	0.469300
H2331	H233	0.605100	0.947200	0.440200
H2341	H234	0.613800	0.919700	0.502400
Mn191	Mn19	0.574200	0.454180	0.828560
O551	O55	0.594930	0.479210	0.753600
O561	O56	0.495270	0.472490	0.684350
O571	O57	0.545780	0.429690	0.897420
N491	N49	0.532620	0.459810	0.776400
N501	N50	0.505530	0.444100	0.813900
C2531	C253	0.582650	0.494870	0.695700
C2541	C254	0.604140	0.515030	0.651000
H2351	H235	0.625900	0.518700	0.668900
C2551	C255	0.594900	0.528900	0.585300
H2361	H236	0.610200	0.541900	0.557800
C2561	C256	0.563600	0.524800	0.556200
H2371	H237	0.557600	0.534200	0.508400
C2571	C257	0.540660	0.506200	0.599700
H2381	H238	0.518800	0.503700	0.581500
C2581	C258	0.549850	0.491710	0.668400
C2591	C259	0.524730	0.474000	0.711100
C2601	C260	0.515290	0.429790	0.875900
C2611	C261	0.490040	0.412510	0.924500
H2391	H239	0.475600	0.399700	0.890000
H2401	H240	0.476300	0.429400	0.949500
C2621	C262	0.502680	0.389600	0.985900
H2411	H241	0.518200	0.374000	0.963200
H2421	H242	0.484200	0.377600	0.008500
H2431	H243	0.513800	0.402400	0.025700
Mn201	Mn20	0.459120	0.460870	0.754610
O581	O58	0.449690	0.419410	0.714930
O591	O59	0.384380	0.432560	0.902140
O601	O60	0.462620	0.503070	0.805710
N511	N51	0.424170	0.456300	0.829270
N521	N52	0.418810	0.484500	0.874500
N531	N53	0.426190	0.487090	0.667400
C2631	C263	0.427030	0.397640	0.736100
C2641	C264	0.425420	0.368470	0.693500
H2441	H244	0.440500	0.365000	0.652700
C2651	C265	0.402220	0.344720	0.710200
H2451	H245	0.400900	0.325600	0.679100
C2661	C266	0.381090	0.348250	0.770800
H2461	H246	0.365500	0.331600	0.782700
C2671	C267	0.382930	0.376580	0.814300
H2471	H247	0.368400	0.379200	0.856500
C2681	C268	0.405620	0.401500	0.797700
C2691	C269	0.404470	0.431120	0.845800
C2701	C270	0.439750	0.507220	0.857200
C2711	C271	0.437070	0.540190	0.894600
H2481	H248	0.416000	0.541100	0.922800
H2491	H249	0.455000	0.542200	0.932700
C2721	C272	0.438700	0.568860	0.842300
H2501	H250	0.457500	0.566400	0.807700
H2511	H251	0.441200	0.589000	0.872400
H2521	H252	0.418400	0.570100	0.812200
C2731	C273	0.435190	0.516600	0.644000
H2531	H253	0.456200	0.524700	0.658600
C2741	C274	0.415000	0.536700	0.598500
H2541	H254	0.421100	0.558500	0.585600
C2751	C275	0.384850	0.522700	0.572800
C2761	C276	0.375870	0.496600	0.605000
H2551	H255	0.354100	0.488900	0.597400
C2771	C277	0.396890	0.478600	0.651300
H2561	H256	0.388900	0.458700	0.672500
C2781	C278	0.362330	0.539600	0.514400
H2571	H257	0.352900	0.522500	0.480700
H2581	H258	0.343900	0.549900	0.542500
Mn211	Mn21	0.613390	0.529560	0.026200
O611	O61	0.651050	0.509400	0.062630
O621	O62	0.615180	0.447080	0.885730
O631	O63	0.573410	0.544740	0.977360
N541	N54	0.606040	0.493820	0.954260
N551	N55	0.576640	0.496410	0.912300
N561	N56	0.310180	0.608010	0.309400
C2791	C279	0.667760	0.484290	0.033300
C2801	C280	0.698700	0.477750	0.064600
H2591	H259	0.706400	0.491100	0.105400
C2811	C281	0.718170	0.452760	0.038700
H2601	H260	0.739100	0.449200	0.061100
C2821	C282	0.707220	0.432310	0.979000
H2611	H261	0.720700	0.415000	0.960200
C2831	C283	0.676650	0.437980	0.948700
H2621	H262	0.668800	0.423800	0.909400
C2841	C284	0.656620	0.463660	0.973100
C2851	C285	0.624750	0.468230	0.936000
C2861	C286	0.561870	0.523750	0.928300
C2871	C287	0.530920	0.532830	0.888000
H2631	H263	0.521000	0.513200	0.863900
H2641	H264	0.514900	0.542100	0.924900
C2881	C288	0.540100	0.560400	0.822000
H2651	H265	0.558900	0.552700	0.791900
H2661	H266	0.521100	0.563500	0.788100
H2671	H267	0.545600	0.581300	0.846700
C2891	C289	0.330660	0.584920	0.286400
H2681	H268	0.330800	0.578800	0.233900
C2901	C290	0.352070	0.569160	0.336800
H2691	H269	0.365900	0.552000	0.319000
C2911	C291	0.353050	0.578700	0.413600
C2921	C292	0.331350	0.601880	0.435400
H2701	H270	0.330700	0.608600	0.487400
C2931	C293	0.310450	0.615720	0.384700
H2711	H271	0.295200	0.631600	0.402800
C2941	C294	0.376700	0.563000	0.469300
H2721	H272	0.394900	0.552800	0.440200
H2731	H273	0.386200	0.580300	0.502400
Mn221	Mn22	0.074200	0.954180	0.328560
O641	O64	0.094930	0.979210	0.253600
O651	O65	0.995270	0.972490	0.184350
O661	O66	0.045780	0.929690	0.397420
N571	N57	0.032620	0.959810	0.276400
N581	N58	0.005530	0.944100	0.313900
C2951	C295	0.082650	0.994870	0.195700
C2961	C296	0.104140	0.015030	0.151000
H2741	H274	0.125900	0.018700	0.168900
C2971	C297	0.094900	0.028900	0.085300
H2751	H275	0.110200	0.041900	0.057800
C2981	C298	0.063600	0.024800	0.056200
H2761	H276	0.057600	0.034200	0.008400
C2991	C299	0.040660	0.006200	0.099700
H2771	H277	0.018800	0.003700	0.081500
C3001	C300	0.049850	0.991710	0.168400
C3011	C301	0.024730	0.974000	0.211100
C3021	C302	0.015290	0.929790	0.375900
C3031	C303	0.990040	0.912510	0.424500
H2781	H278	0.975600	0.899700	0.390000
H2791	H279	0.976300	0.929400	0.449500
C3041	C304	0.002680	0.889600	0.485900
H2801	H280	0.018200	0.874000	0.463200
H2811	H281	0.984200	0.877600	0.508500
H2821	H282	0.013800	0.902400	0.525700
Mn231	Mn23	0.959120	0.960870	0.254610
O671	O67	0.949690	0.919410	0.214930
O681	O68	0.884380	0.932560	0.402140
O691	O69	0.962620	0.003070	0.305710
N591	N59	0.924170	0.956300	0.329270
N601	N60	0.918810	0.984500	0.374500
N611	N61	0.926190	0.987090	0.167400
C3051	C305	0.927030	0.897640	0.236100
C3061	C306	0.925420	0.868470	0.193500
H2831	H283	0.940500	0.865000	0.152700
C3071	C307	0.902220	0.844720	0.210200
H2841	H284	0.900900	0.825600	0.179100
C3081	C308	0.881090	0.848250	0.270800
H2851	H285	0.865500	0.831600	0.282700
C3091	C309	0.882930	0.876580	0.314300
H2861	H286	0.868400	0.879200	0.356500
C3101	C310	0.905620	0.901500	0.297700
C3111	C311	0.904470	0.931120	0.345800
C3121	C312	0.939750	0.007220	0.357200
C3131	C313	0.937070	0.040190	0.394600
H2871	H287	0.916000	0.041100	0.422800
H2881	H288	0.955000	0.042200	0.432700
C3141	C314	0.938700	0.068860	0.342300
H2891	H289	0.957500	0.066400	0.307700
H2901	H290	0.941200	0.089000	0.372400
H2911	H291	0.918400	0.070100	0.312200
C3151	C315	0.935190	0.016600	0.144000
H2921	H292	0.956200	0.024700	0.158600
C3161	C316	0.915000	0.036700	0.098500
H2931	H293	0.921100	0.058500	0.085600
C3171	C317	0.884850	0.022700	0.072800
C3181	C318	0.875870	0.996600	0.105000
H2941	H294	0.854100	0.988900	0.097400
C3191	C319	0.896890	0.978600	0.151300
H2951	H295	0.888900	0.958700	0.172500
C3201	C320	0.862330	0.039600	0.014400
H2961	H296	0.852900	0.022500	0.980700
H2971	H297	0.843900	0.049900	0.042500
Mn241	Mn24	0.113390	0.029560	0.526200
O701	O70	0.151050	0.009400	0.562630
O711	O71	0.115180	0.947080	0.385730
O721	O72	0.073410	0.044740	0.477360
N621	N62	0.106040	0.993820	0.454260
N631	N63	0.076640	0.996410	0.412300
N641	N64	0.810180	0.108010	0.809400
C3211	C321	0.167760	0.984290	0.533300
C3221	C322	0.198700	0.977750	0.564600
H2981	H298	0.206400	0.991100	0.605400
C3231	C323	0.218170	0.952760	0.538700
H2991	H299	0.239100	0.949200	0.561100
C3241	C324	0.207220	0.932310	0.479000
H3001	H300	0.220700	0.915000	0.460200
C3251	C325	0.176650	0.937980	0.448700
H3011	H301	0.168800	0.923800	0.409400
C3261	C326	0.156620	0.963660	0.473100
C3271	C327	0.124750	0.968230	0.436000
C3281	C328	0.061870	0.023750	0.428300
C3291	C329	0.030920	0.032830	0.388000
H3021	H302	0.021000	0.013200	0.363900
H3031	H303	0.014900	0.042100	0.424900
C3301	C330	0.040100	0.060400	0.322000
H3041	H304	0.058900	0.052700	0.291900
H3051	H305	0.021100	0.063500	0.288100
H3061	H306	0.045600	0.081300	0.346700
C3311	C331	0.830660	0.084920	0.786400
H3071	H307	0.830800	0.078800	0.733900
C3321	C332	0.852070	0.069160	0.836800
H3081	H308	0.865900	0.052000	0.819000
C3331	C333	0.853050	0.078700	0.913600
C3341	C334	0.831350	0.101880	0.935400
H3091	H309	0.830700	0.108600	0.987400
C3351	C335	0.810450	0.115720	0.884700
H3101	H310	0.795200	0.131600	0.902800
C3361	C336	0.876700	0.063000	0.969300
H3111	H311	0.894900	0.052800	0.940200
H3121	H312	0.886200	0.080300	0.002400
Mn251	Mn25	0.704180	0.175800	0.921440
O731	O73	0.729210	0.155070	0.996400
O741	O74	0.722490	0.254730	0.065650
O751	O75	0.679690	0.204220	0.852580
N651	N65	0.709810	0.217380	0.973600
N661	N66	0.694100	0.244470	0.936100
C3371	C337	0.744870	0.167350	0.054300
C3381	C338	0.765030	0.145860	0.099000
H3131	H313	0.768700	0.124100	0.081100
C3391	C339	0.778900	0.155100	0.164700
H3141	H314	0.791900	0.139800	0.192200
C3401	C340	0.774800	0.186400	0.193800
H3151	H315	0.784200	0.192400	0.241600
C3411	C341	0.756200	0.209340	0.150300
H3161	H316	0.753700	0.231200	0.168500
C3421	C342	0.741710	0.200150	0.081600
C3431	C343	0.724000	0.225270	0.038900
C3441	C344	0.679790	0.234710	0.874100
C3451	C345	0.662510	0.259960	0.825500
H3171	H317	0.649700	0.274400	0.860000
H3181	H318	0.679400	0.273700	0.800500
C3461	C346	0.639600	0.247320	0.764100
H3191	H319	0.624000	0.231800	0.786800
H3201	H320	0.627600	0.265800	0.741500
H3211	H321	0.652400	0.236200	0.724300
Mn261	Mn26	0.710870	0.290880	0.995390
O761	O76	0.669410	0.300310	0.035070
O771	O77	0.682560	0.365620	0.847860
O781	O78	0.753070	0.287380	0.944290
N671	N67	0.706300	0.325830	0.920730
N681	N68	0.734500	0.331190	0.875500
N691	N69	0.737090	0.323810	0.082600
C3471	C347	0.647640	0.322970	0.013900
C3481	C348	0.618470	0.324580	0.056500
H3221	H322	0.615000	0.309500	0.097300
C3491	C349	0.594720	0.347780	0.039800
H3231	H323	0.575600	0.349100	0.070900
C3501	C350	0.598250	0.368910	0.979200
H3241	H324	0.581600	0.384500	0.967300
C3511	C351	0.626580	0.367070	0.935700
H3251	H325	0.629200	0.381600	0.893500
C3521	C352	0.651500	0.344380	0.952300
C3531	C353	0.681120	0.345530	0.904200
C3541	C354	0.757220	0.310250	0.892800
C3551	C355	0.790190	0.312930	0.855400
H3261	H326	0.791100	0.334000	0.827200
H3271	H327	0.792200	0.295000	0.817300
C3561	C356	0.818860	0.311300	0.907700
H3281	H328	0.816400	0.292500	0.942300
H3291	H329	0.839000	0.308800	0.877600
H3301	H330	0.820100	0.331600	0.937800
C3571	C357	0.766600	0.314810	0.106000
H3311	H331	0.774700	0.293800	0.091400
C3581	C358	0.786700	0.335000	0.151500
H3321	H332	0.808500	0.328900	0.164400
C3591	C359	0.772700	0.365150	0.177200
C3601	C360	0.746600	0.374130	0.145000
H3331	H333	0.738900	0.395900	0.152600
C3611	C361	0.728600	0.353110	0.098700
H3341	H334	0.708700	0.361100	0.077500
C3621	C362	0.789600	0.387670	0.235600
H3351	H335	0.772500	0.397100	0.269300
H3361	H336	0.799900	0.406100	0.207500
Mn271	Mn27	0.779560	0.136610	0.723800
O791	O79	0.759400	0.098950	0.687370
O801	O80	0.697080	0.134820	0.864270
O811	O81	0.794740	0.176590	0.772640
N701	N70	0.743820	0.143960	0.795740
N711	N71	0.746410	0.173360	0.837700
N721	N72	0.858010	0.439820	0.440600
C3631	C363	0.734290	0.082240	0.716700
C3641	C364	0.727750	0.051300	0.685400
H3371	H337	0.741100	0.043600	0.644600
C3651	C365	0.702760	0.031830	0.711300
H3381	H338	0.699200	0.010900	0.688900
C3661	C366	0.682310	0.042780	0.771000
H3391	H339	0.665000	0.029300	0.789800
C3671	C367	0.687980	0.073350	0.801300
H3401	H340	0.673800	0.081200	0.840600
C3681	C368	0.713660	0.093380	0.776900
C3691	C369	0.718230	0.125250	0.814000
C3701	C370	0.773750	0.188130	0.821700
C3711	C371	0.782830	0.219080	0.862000
H3411	H341	0.763200	0.229000	0.886100
H3421	H342	0.792100	0.235100	0.825100
C3721	C372	0.810400	0.209900	0.928000
H3431	H343	0.802700	0.191100	0.958100
H3441	H344	0.813500	0.228900	0.961900
H3451	H345	0.831300	0.204400	0.903300
C3731	C373	0.834920	0.419340	0.463600
H3461	H346	0.828800	0.419200	0.516100
C3741	C374	0.819160	0.397930	0.413200
H3471	H347	0.802000	0.384100	0.431000
C3751	C375	0.828700	0.396950	0.336400
C3761	C376	0.851880	0.418650	0.314600
H3481	H348	0.858600	0.419300	0.262600
C3771	C377	0.865720	0.439550	0.365300
H3491	H349	0.881600	0.454800	0.347200
C3781	C378	0.813000	0.373300	0.280700
H3501	H350	0.802800	0.355100	0.309800
H3511	H351	0.830300	0.363800	0.247600
Mn281	Mn28	0.204180	0.675800	0.421440
O821	O82	0.229210	0.655070	0.496400
O831	O83	0.222490	0.754730	0.565650
O841	O84	0.179690	0.704220	0.352580
N731	N73	0.209810	0.717380	0.473600
N741	N74	0.194100	0.744470	0.436100
C3791	C379	0.244870	0.667350	0.554300
C3801	C380	0.265030	0.645860	0.599000
H3521	H352	0.268700	0.624100	0.581100
C3811	C381	0.278900	0.655100	0.664700
H3531	H353	0.291900	0.639800	0.692200
C3821	C382	0.274800	0.686400	0.693800
H3541	H354	0.284200	0.692400	0.741600
C3831	C383	0.256200	0.709340	0.650300
H3551	H355	0.253700	0.731200	0.668500
C3841	C384	0.241710	0.700150	0.581600
C3851	C385	0.224000	0.725270	0.538900
C3861	C386	0.179790	0.734710	0.374100
C3871	C387	0.162510	0.759960	0.325500
H3561	H356	0.149700	0.774400	0.360000
H3571	H357	0.179400	0.773700	0.300500
C3881	C388	0.139600	0.747320	0.264100
H3581	H358	0.124000	0.731800	0.286800
H3591	H359	0.127600	0.765800	0.241500
H3601	H360	0.152400	0.736200	0.224300
Mn291	Mn29	0.210870	0.790880	0.495390
O851	O85	0.169410	0.800310	0.535070
O861	O86	0.182560	0.865620	0.347860
O871	O87	0.253070	0.787380	0.444290
N751	N75	0.206300	0.825830	0.420730
N761	N76	0.234500	0.831190	0.375500
N771	N77	0.237090	0.823810	0.582600
C3891	C389	0.147640	0.822970	0.513900
C3901	C390	0.118470	0.824580	0.556500
H3611	H361	0.115000	0.809500	0.597300
C3911	C391	0.094720	0.847780	0.539800
H3621	H362	0.075600	0.849100	0.570900
C3921	C392	0.098250	0.868910	0.479200
H3631	H363	0.081600	0.884500	0.467300
C3931	C393	0.126580	0.867070	0.435700
H3641	H364	0.129200	0.881600	0.393500
C3941	C394	0.151500	0.844380	0.452300
C3951	C395	0.181120	0.845530	0.404200
C3961	C396	0.257220	0.810250	0.392800
C3971	C397	0.290190	0.812930	0.355400
H3651	H365	0.291100	0.834000	0.327200
H3661	H366	0.292200	0.795000	0.317300
C3981	C398	0.318860	0.811300	0.407700
H3671	H367	0.316400	0.792500	0.442300
H3681	H368	0.339000	0.808800	0.377600
H3691	H369	0.320100	0.831600	0.437800
C3991	C399	0.266600	0.814810	0.606000
H3701	H370	0.274700	0.793800	0.591400
C4001	C400	0.286700	0.835000	0.651500
H3711	H371	0.308500	0.828900	0.664400
C4011	C401	0.272700	0.865150	0.677200
C4021	C402	0.246600	0.874130	0.645000
H3721	H372	0.238900	0.895900	0.652600
C4031	C403	0.228600	0.853110	0.598700
H3731	H373	0.208700	0.861100	0.577500
C4041	C404	0.289600	0.887670	0.735600
H3741	H374	0.272500	0.897100	0.769300
H3751	H375	0.299900	0.906100	0.707500
Mn301	Mn30	0.279560	0.636610	0.223800
O881	O88	0.259400	0.598950	0.187370
O891	O89	0.197080	0.634820	0.364270
O901	O90	0.294740	0.676590	0.272640
N781	N78	0.243820	0.643960	0.295740
N791	N79	0.246410	0.673360	0.337700
N801	N80	0.358010	0.939820	0.940600
C4051	C405	0.234290	0.582240	0.216700
C4061	C406	0.227750	0.551300	0.185400
H3761	H376	0.241100	0.543600	0.144600
C4071	C407	0.202760	0.531830	0.211300
H3771	H377	0.199200	0.510900	0.188900
C4081	C408	0.182310	0.542780	0.271000
H3781	H378	0.165000	0.529300	0.289800
C4091	C409	0.187980	0.573350	0.301300
H3791	H379	0.173800	0.581200	0.340600
C4101	C410	0.213660	0.593380	0.276900
C4111	C411	0.218230	0.625250	0.314000
C4121	C412	0.273750	0.688130	0.321700
C4131	C413	0.282830	0.719080	0.362000
H3801	H380	0.263200	0.729000	0.386100
H3811	H381	0.292100	0.735100	0.325100
C4141	C414	0.310400	0.709900	0.428000
H3821	H382	0.302700	0.691100	0.458100
H3831	H383	0.313500	0.728900	0.461900
H3841	H384	0.331300	0.704400	0.403300
C4151	C415	0.334920	0.919340	0.963600
H3851	H385	0.328800	0.919200	0.016100
C4161	C416	0.319160	0.897930	0.913200
H3861	H386	0.302000	0.884100	0.931000
C4171	C417	0.328700	0.896950	0.836400
C4181	C418	0.351880	0.918650	0.814600
H3871	H387	0.358600	0.919300	0.762600
C4191	C419	0.365720	0.939550	0.865300
H3881	H388	0.381600	0.954800	0.847200
C4201	C420	0.313000	0.873300	0.780700
H3891	H389	0.302800	0.855100	0.809800
H3901	H390	0.330300	0.863800	0.747600
Mn311	Mn31	0.795820	0.824200	0.421440
O911	O91	0.770790	0.844930	0.496400
O921	O92	0.777510	0.745270	0.565650
O931	O93	0.820310	0.795780	0.352580
N811	N81	0.790190	0.782620	0.473600
N821	N82	0.805900	0.755530	0.436100
C4211	C421	0.755130	0.832650	0.554300
C4221	C422	0.734970	0.854140	0.599000
H3911	H391	0.731300	0.875900	0.581100
C4231	C423	0.721100	0.844900	0.664700
H3921	H392	0.708100	0.860200	0.692200
C4241	C424	0.725200	0.813600	0.693800
H3931	H393	0.715800	0.807600	0.741600
C4251	C425	0.743800	0.790660	0.650300
H3941	H394	0.746300	0.768800	0.668500
C4261	C426	0.758290	0.799850	0.581600
C4271	C427	0.776000	0.774730	0.538900
C4281	C428	0.820210	0.765290	0.374100
C4291	C429	0.837490	0.740040	0.325500
H3951	H395	0.850300	0.725600	0.360000
H3961	H396	0.820600	0.726300	0.300500
C4301	C430	0.860400	0.752680	0.264100
H3971	H397	0.876000	0.768200	0.286800
H3981	H398	0.872400	0.734200	0.241500
H3991	H399	0.847600	0.763800	0.224300
Mn321	Mn32	0.789130	0.709120	0.495390
O941	O94	0.830590	0.699690	0.535070
O951	O95	0.817440	0.634380	0.347860
O961	O96	0.746930	0.712620	0.444290
N831	N83	0.793700	0.674170	0.420730
N841	N84	0.765500	0.668810	0.375500
N851	N85	0.762910	0.676190	0.582600
C4311	C431	0.852360	0.677030	0.513900
C4321	C432	0.881530	0.675420	0.556500
H4001	H400	0.885000	0.690500	0.597300
C4331	C433	0.905280	0.652220	0.539800
H4011	H401	0.924400	0.650900	0.570900
C4341	C434	0.901750	0.631090	0.479200
H4021	H402	0.918400	0.615500	0.467300
C4351	C435	0.873420	0.632930	0.435700
H4031	H403	0.870800	0.618400	0.393500
C4361	C436	0.848500	0.655620	0.452300
C4371	C437	0.818880	0.654470	0.404200
C4381	C438	0.742780	0.689750	0.392800
C4391	C439	0.709810	0.687070	0.355400
H4041	H404	0.708900	0.666000	0.327200
H4051	H405	0.707800	0.705000	0.317300
C4401	C440	0.681140	0.688700	0.407700
H4061	H406	0.683600	0.707500	0.442300
H4071	H407	0.661000	0.691200	0.377600
H4081	H408	0.679900	0.668400	0.437800
C4411	C441	0.733400	0.685190	0.606000
H4091	H409	0.725300	0.706200	0.591400
C4421	C442	0.713300	0.665000	0.651500
H4101	H410	0.691500	0.671100	0.664400
C4431	C443	0.727300	0.634850	0.677200
C4441	C444	0.753400	0.625870	0.645000
H4111	H411	0.761100	0.604100	0.652600
C4451	C445	0.771400	0.646890	0.598700
H4121	H412	0.791300	0.638900	0.577500
C4461	C446	0.710400	0.612330	0.735600
H4131	H413	0.727500	0.602900	0.769300
H4141	H414	0.700100	0.593900	0.707500
Mn331	Mn33	0.720440	0.863390	0.223800
O971	O97	0.740600	0.901050	0.187370
O981	O98	0.802920	0.865180	0.364270
O991	O99	0.705260	0.823410	0.272640
N861	N86	0.756180	0.856040	0.295740
N871	N87	0.753590	0.826640	0.337700
N881	N88	0.641990	0.560180	0.940600
C4471	C447	0.765710	0.917760	0.216700
C4481	C448	0.772250	0.948700	0.185400
H4151	H415	0.758900	0.956400	0.144600
C4491	C449	0.797240	0.968170	0.211300
H4161	H416	0.800800	0.989100	0.188900
C4501	C450	0.817690	0.957220	0.271000
H4171	H417	0.835000	0.970700	0.289800
C4511	C451	0.812020	0.926650	0.301300
H4181	H418	0.826200	0.918800	0.340600
C4521	C452	0.786340	0.906620	0.276900
C4531	C453	0.781770	0.874750	0.314000
C4541	C454	0.726250	0.811870	0.321700
C4551	C455	0.717170	0.780920	0.362000
H4191	H419	0.736800	0.771000	0.386100
H4201	H420	0.707900	0.764900	0.325100
C4561	C456	0.689600	0.790100	0.428000
H4211	H421	0.697300	0.808900	0.458100
H4221	H422	0.686500	0.771100	0.461900
H4231	H423	0.668700	0.795600	0.403300
C4571	C457	0.665080	0.580660	0.963600
H4241	H424	0.671200	0.580800	0.016100
C4581	C458	0.680840	0.602070	0.913200
H4251	H425	0.698000	0.615900	0.931000
C4591	C459	0.671300	0.603050	0.836400
C4601	C460	0.648120	0.581350	0.814600
H4261	H426	0.641400	0.580700	0.762600
C4611	C461	0.634280	0.560450	0.865300
H4271	H427	0.618400	0.545200	0.847200
C4621	C462	0.687000	0.626700	0.780700
H4281	H428	0.697200	0.644900	0.809800
H4291	H429	0.669700	0.636200	0.747600
Mn341	Mn34	0.295820	0.324200	0.921440
O1001	O100	0.270790	0.344930	0.996400
O1011	O101	0.277510	0.245270	0.065650
O1021	O102	0.320310	0.295780	0.852580
N891	N89	0.290190	0.282620	0.973600
N901	N90	0.305900	0.255530	0.936100
C4631	C463	0.255130	0.332650	0.054300
C4641	C464	0.234970	0.354140	0.099000
H4301	H430	0.231300	0.375900	0.081100
C4651	C465	0.221100	0.344900	0.164700
H4311	H431	0.208100	0.360200	0.192200
C4661	C466	0.225200	0.313600	0.193800
H4321	H432	0.215800	0.307600	0.241600
C4671	C467	0.243800	0.290660	0.150300
H4331	H433	0.246300	0.268800	0.168500
C4681	C468	0.258290	0.299850	0.081600
C4691	C469	0.276000	0.274730	0.038900
C4701	C470	0.320210	0.265290	0.874100
C4711	C471	0.337490	0.240040	0.825500
H4341	H434	0.350300	0.225600	0.860000
H4351	H435	0.320600	0.226300	0.800500
C4721	C472	0.360400	0.252680	0.764100
H4361	H436	0.376000	0.268200	0.786800
H4371	H437	0.372400	0.234200	0.741500
H4381	H438	0.347600	0.263800	0.724300
Mn351	Mn35	0.289130	0.209120	0.995390
O1031	O103	0.330590	0.199690	0.035070
O1041	O104	0.317440	0.134380	0.847860
O1051	O105	0.246930	0.212620	0.944290
N911	N91	0.293700	0.174170	0.920730
N921	N92	0.265500	0.168810	0.875500
N931	N93	0.262910	0.176190	0.082600
C4731	C473	0.352360	0.177030	0.013900
C4741	C474	0.381530	0.175420	0.056500
H4391	H439	0.385000	0.190500	0.097300
C4751	C475	0.405280	0.152220	0.039800
H4401	H440	0.424400	0.150900	0.070900
C4761	C476	0.401750	0.131090	0.979200
H4411	H441	0.418400	0.115500	0.967300
C4771	C477	0.373420	0.132930	0.935700
H4421	H442	0.370800	0.118400	0.893500
C4781	C478	0.348500	0.155620	0.952300
C4791	C479	0.318880	0.154470	0.904200
C4801	C480	0.242780	0.189750	0.892800
C4811	C481	0.209810	0.187070	0.855400
H4431	H443	0.208900	0.166000	0.827200
H4441	H444	0.207800	0.205000	0.817300
C4821	C482	0.181140	0.188700	0.907700
H4451	H445	0.183600	0.207500	0.942300
H4461	H446	0.161000	0.191200	0.877600
H4471	H447	0.179900	0.168400	0.937800
C4831	C483	0.233400	0.185190	0.106000
H4481	H448	0.225300	0.206200	0.091400
C4841	C484	0.213300	0.165000	0.151500
H4491	H449	0.191500	0.171100	0.164400
C4851	C485	0.227300	0.134850	0.177200
C4861	C486	0.253400	0.125870	0.145000
H4501	H450	0.261100	0.104100	0.152600
C4871	C487	0.271400	0.146890	0.098700
H4511	H451	0.291300	0.138900	0.077500
C4881	C488	0.210400	0.112330	0.235600
H4521	H452	0.227500	0.102900	0.269300
H4531	H453	0.200100	0.093900	0.207500
Mn361	Mn36	0.220440	0.363390	0.723800
O1061	O106	0.240600	0.401050	0.687370
O1071	O107	0.302920	0.365180	0.864270
O1081	O108	0.205260	0.323410	0.772640
N941	N94	0.256180	0.356040	0.795740
N951	N95	0.253590	0.326640	0.837700
N961	N96	0.141990	0.060180	0.440600
C4891	C489	0.265710	0.417760	0.716700
C4901	C490	0.272250	0.448700	0.685400
H4541	H454	0.258900	0.456400	0.644600
C4911	C491	0.297240	0.468170	0.711300
H4551	H455	0.300800	0.489100	0.688900
C4921	C492	0.317690	0.457220	0.771000
H4561	H456	0.335000	0.470700	0.789800
C4931	C493	0.312020	0.426650	0.801300
H4571	H457	0.326200	0.418800	0.840600
C4941	C494	0.286340	0.406620	0.776900
C4951	C495	0.281770	0.374750	0.814000
C4961	C496	0.226250	0.311870	0.821700
C4971	C497	0.217170	0.280920	0.862000
H4581	H458	0.236800	0.271000	0.886100
H4591	H459	0.207900	0.264900	0.825100
C4981	C498	0.189600	0.290100	0.928000
H4601	H460	0.197300	0.308900	0.958100
H4611	H461	0.186500	0.271100	0.961900
H4621	H462	0.168700	0.295600	0.903300
C4991	C499	0.165080	0.080660	0.463600
H4631	H463	0.171200	0.080800	0.516100
C5001	C500	0.180840	0.102070	0.413200
H4641	H464	0.198000	0.115900	0.431000
C5011	C501	0.171300	0.103050	0.336400
C5021	C502	0.148120	0.081350	0.314600
H4651	H465	0.141400	0.080700	0.262600
C5031	C503	0.134280	0.060450	0.365300
H4661	H466	0.118400	0.045200	0.347200
C5041	C504	0.187000	0.126700	0.280700
H4671	H467	0.197200	0.144900	0.309800
H4681	H468	0.169700	0.136200	0.247600
Mn371	Mn37	0.074200	0.454180	0.671440
O1091	O109	0.094930	0.479210	0.746400
O1101	O110	0.995270	0.472490	0.815650
O1111	O111	0.045780	0.429690	0.602580
N971	N97	0.032620	0.459810	0.723600
N981	N98	0.005530	0.444100	0.686100
C5051	C505	0.082650	0.494870	0.804300
C5061	C506	0.104140	0.515030	0.849000
H4691	H469	0.125900	0.518700	0.831100
C5071	C507	0.094900	0.528900	0.914700
H4701	H470	0.110200	0.541900	0.942200
C5081	C508	0.063600	0.524800	0.943800
H4711	H471	0.057600	0.534200	0.991600
C5091	C509	0.040660	0.506200	0.900300
H4721	H472	0.018800	0.503700	0.918500
C5101	C510	0.049850	0.491710	0.831600
C5111	C511	0.024730	0.474000	0.788900
C5121	C512	0.015290	0.429790	0.624100
C5131	C513	0.990040	0.412510	0.575500
H4731	H473	0.975600	0.399700	0.610000
H4741	H474	0.976300	0.429400	0.550500
C5141	C514	0.002680	0.389600	0.514100
H4751	H475	0.018200	0.374000	0.536800
H4761	H476	0.984200	0.377600	0.491500
H4771	H477	0.013800	0.402400	0.474300
Mn381	Mn38	0.959120	0.460870	0.745390
O1121	O112	0.949690	0.419410	0.785070
O1131	O113	0.884380	0.432560	0.597860
O1141	O114	0.962620	0.503070	0.694290
N991	N99	0.924170	0.456300	0.670730
N1001	N100	0.918810	0.484500	0.625500
N1011	N101	0.926190	0.487090	0.832600
C5151	C515	0.927030	0.397640	0.763900
C5161	C516	0.925420	0.368470	0.806500
H4781	H478	0.940500	0.365000	0.847300
C5171	C517	0.902220	0.344720	0.789800
H4791	H479	0.900900	0.325600	0.820900
C5181	C518	0.881090	0.348250	0.729200
H4801	H480	0.865500	0.331600	0.717300
C5191	C519	0.882930	0.376580	0.685700
H4811	H481	0.868400	0.379200	0.643500
C5201	C520	0.905620	0.401500	0.702300
C5211	C521	0.904470	0.431120	0.654200
C5221	C522	0.939750	0.507220	0.642800
C5231	C523	0.937070	0.540190	0.605400
H4821	H482	0.916000	0.541100	0.577200
H4831	H483	0.955000	0.542200	0.567300
C5241	C524	0.938700	0.568860	0.657700
H4841	H484	0.957500	0.566400	0.692300
H4851	H485	0.941200	0.589000	0.627600
H4861	H486	0.918400	0.570100	0.687800
C5251	C525	0.935190	0.516600	0.856000
H4871	H487	0.956200	0.524700	0.841400
C5261	C526	0.915000	0.536700	0.901500
H4881	H488	0.921100	0.558500	0.914400
C5271	C527	0.884850	0.522700	0.927200
C5281	C528	0.875870	0.496600	0.895000
H4891	H489	0.854100	0.488900	0.902600
C5291	C529	0.896890	0.478600	0.848700
H4901	H490	0.888900	0.458700	0.827500
C5301	C530	0.862330	0.539600	0.985600
H4911	H491	0.852900	0.522500	0.019300
H4921	H492	0.843900	0.549900	0.957500
Mn391	Mn39	0.113390	0.529560	0.473800
O1151	O115	0.151050	0.509400	0.437370
O1161	O116	0.115180	0.447080	0.614270
O1171	O117	0.073410	0.544740	0.522640
N1021	N102	0.106040	0.493820	0.545740
N1031	N103	0.076640	0.496410	0.587700
N1041	N104	0.810180	0.608010	0.190600
C5311	C531	0.167760	0.484290	0.466700
C5321	C532	0.198700	0.477750	0.435400
H4931	H493	0.206400	0.491100	0.394600
C5331	C533	0.218170	0.452760	0.461300
H4941	H494	0.239100	0.449200	0.438900
C5341	C534	0.207220	0.432310	0.521000
H4951	H495	0.220700	0.415000	0.539800
C5351	C535	0.176650	0.437980	0.551300
H4961	H496	0.168800	0.423800	0.590600
C5361	C536	0.156620	0.463660	0.526900
C5371	C537	0.124750	0.468230	0.564000
C5381	C538	0.061870	0.523750	0.571700
C5391	C539	0.030920	0.532830	0.612000
H4971	H497	0.021000	0.513200	0.636100
H4981	H498	0.014900	0.542100	0.575100
C5401	C540	0.040100	0.560400	0.678000
H4991	H499	0.058900	0.552700	0.708100
H5001	H500	0.021100	0.563500	0.711900
H5011	H501	0.045600	0.581300	0.653300
C5411	C541	0.830660	0.584920	0.213600
H5021	H502	0.830800	0.578800	0.266100
C5421	C542	0.852070	0.569160	0.163200
H5031	H503	0.865900	0.552000	0.181000
C5431	C543	0.853050	0.578700	0.086400
C5441	C544	0.831350	0.601880	0.064600
H5041	H504	0.830700	0.608600	0.012600
C5451	C545	0.810450	0.615720	0.115300
H5051	H505	0.795200	0.631600	0.097200
C5461	C546	0.876700	0.563000	0.030700
H5061	H506	0.894900	0.552800	0.059800
H5071	H507	0.886200	0.580300	0.997600
Mn401	Mn40	0.574200	0.954180	0.171440
O1181	O118	0.594930	0.979210	0.246400
O1191	O119	0.495270	0.972490	0.315650
O1201	O120	0.545780	0.929690	0.102580
N1051	N105	0.532620	0.959810	0.223600
N1061	N106	0.505530	0.944100	0.186100
C5471	C547	0.582650	0.994870	0.304300
C5481	C548	0.604140	0.015030	0.349000
H5081	H508	0.625900	0.018700	0.331100
C5491	C549	0.594900	0.028900	0.414700
H5091	H509	0.610200	0.041900	0.442200
C5501	C550	0.563600	0.024800	0.443800
H5101	H510	0.557600	0.034200	0.491600
C5511	C551	0.540660	0.006200	0.400300
H5111	H511	0.518800	0.003700	0.418500
C5521	C552	0.549850	0.991710	0.331600
C5531	C553	0.524730	0.974000	0.288900
C5541	C554	0.515290	0.929790	0.124100
C5551	C555	0.490040	0.912510	0.075500
H5121	H512	0.475600	0.899700	0.110000
H5131	H513	0.476300	0.929400	0.050500
C5561	C556	0.502680	0.889600	0.014100
H5141	H514	0.518200	0.874000	0.036800
H5151	H515	0.484200	0.877600	0.991500
H5161	H516	0.513800	0.902400	0.974300
Mn411	Mn41	0.459120	0.960870	0.245390
O1211	O121	0.449690	0.919410	0.285070
O1221	O122	0.384380	0.932560	0.097860
O1231	O123	0.462620	0.003070	0.194290
N1071	N107	0.424170	0.956300	0.170730
N1081	N108	0.418810	0.984500	0.125500
N1091	N109	0.426190	0.987090	0.332600
C5571	C557	0.427030	0.897640	0.263900
C5581	C558	0.425420	0.868470	0.306500
H5171	H517	0.440500	0.865000	0.347300
C5591	C559	0.402220	0.844720	0.289800
H5181	H518	0.400900	0.825600	0.320900
C5601	C560	0.381090	0.848250	0.229200
H5191	H519	0.365500	0.831600	0.217300
C5611	C561	0.382930	0.876580	0.185700
H5201	H520	0.368400	0.879200	0.143500
C5621	C562	0.405620	0.901500	0.202300
C5631	C563	0.404470	0.931120	0.154200
C5641	C564	0.439750	0.007220	0.142800
C5651	C565	0.437070	0.040190	0.105400
H5211	H521	0.416000	0.041100	0.077200
H5221	H522	0.455000	0.042200	0.067300
C5661	C566	0.438700	0.068860	0.157700
H5231	H523	0.457500	0.066400	0.192300
H5241	H524	0.441200	0.089000	0.127600
H5251	H525	0.418400	0.070100	0.187800
C5671	C567	0.435190	0.016600	0.356000
H5261	H526	0.456200	0.024700	0.341400
C5681	C568	0.415000	0.036700	0.401500
H5271	H527	0.421100	0.058500	0.414400
C5691	C569	0.384850	0.022700	0.427200
C5701	C570	0.375870	0.996600	0.395000
H5281	H528	0.354100	0.988900	0.402600
C5711	C571	0.396890	0.978600	0.348700
H5291	H529	0.388900	0.958700	0.327500
C5721	C572	0.362330	0.039600	0.485600
H5301	H530	0.352900	0.022500	0.519300
H5311	H531	0.343900	0.049900	0.457500
Mn421	Mn42	0.613390	0.029560	0.973800
O1241	O124	0.651050	0.009400	0.937370
O1251	O125	0.615180	0.947080	0.114270
O1261	O126	0.573410	0.044740	0.022640
N1101	N110	0.606040	0.993820	0.045740
N1111	N111	0.576640	0.996410	0.087700
N1121	N112	0.310180	0.108010	0.690600
C5731	C573	0.667760	0.984290	0.966700
C5741	C574	0.698700	0.977750	0.935400
H5321	H532	0.706400	0.991100	0.894600
C5751	C575	0.718170	0.952760	0.961300
H5331	H533	0.739100	0.949200	0.938900
C5761	C576	0.707220	0.932310	0.021000
H5341	H534	0.720700	0.915000	0.039800
C5771	C577	0.676650	0.937980	0.051300
H5351	H535	0.668800	0.923800	0.090600
C5781	C578	0.656620	0.963660	0.026900
C5791	C579	0.624750	0.968230	0.064000
C5801	C580	0.561870	0.023750	0.071700
C5811	C581	0.530920	0.032830	0.112000
H5361	H536	0.521000	0.013200	0.136100
H5371	H537	0.514900	0.042100	0.075100
C5821	C582	0.540100	0.060400	0.178000
H5381	H538	0.558900	0.052700	0.208100
H5391	H539	0.521100	0.063500	0.211900
H5401	H540	0.545600	0.081300	0.153300
C5831	C583	0.330660	0.084920	0.713600
H5411	H541	0.330800	0.078800	0.766100
C5841	C584	0.352070	0.069160	0.663200
H5421	H542	0.365900	0.052000	0.681000
C5851	C585	0.353050	0.078700	0.586400
C5861	C586	0.331350	0.101880	0.564600
H5431	H543	0.330700	0.108600	0.512600
C5871	C587	0.310450	0.115720	0.615300
H5441	H544	0.295200	0.131600	0.597200
C5881	C588	0.376700	0.063000	0.530700
H5451	H545	0.394900	0.052800	0.559800
H5461	H546	0.386200	0.080300	0.497600
Mn431	Mn43	0.425800	0.545820	0.171440
O1271	O127	0.405070	0.520790	0.246400
O1281	O128	0.504730	0.527510	0.315650
O1291	O129	0.454220	0.570310	0.102580
N1131	N113	0.467380	0.540190	0.223600
N1141	N114	0.494470	0.555900	0.186100
C5891	C589	0.417350	0.505130	0.304300
C5901	C590	0.395860	0.484970	0.349000
H5471	H547	0.374100	0.481300	0.331100
C5911	C591	0.405100	0.471100	0.414700
H5481	H548	0.389800	0.458100	0.442200
C5921	C592	0.436400	0.475200	0.443800
H5491	H549	0.442400	0.465800	0.491600
C5931	C593	0.459340	0.493800	0.400300
H5501	H550	0.481200	0.496300	0.418500
C5941	C594	0.450150	0.508290	0.331600
C5951	C595	0.475270	0.526000	0.288900
C5961	C596	0.484710	0.570210	0.124100
C5971	C597	0.509960	0.587490	0.075500
H5511	H551	0.524400	0.600300	0.110000
H5521	H552	0.523700	0.570600	0.050500
C5981	C598	0.497320	0.610400	0.014100
H5531	H553	0.481800	0.626000	0.036800
H5541	H554	0.515800	0.622400	0.991500
H5551	H555	0.486200	0.597600	0.974300
Mn441	Mn44	0.540880	0.539130	0.245390
O1301	O130	0.550310	0.580590	0.285070
O1311	O131	0.615620	0.567440	0.097860
O1321	O132	0.537380	0.496930	0.194290
N1151	N115	0.575830	0.543700	0.170730
N1161	N116	0.581190	0.515500	0.125500
N1171	N117	0.573810	0.512910	0.332600
C5991	C599	0.572970	0.602360	0.263900
C6001	C600	0.574580	0.631530	0.306500
H5561	H556	0.559500	0.635000	0.347300
C6011	C601	0.597780	0.655280	0.289800
H5571	H557	0.599100	0.674400	0.320900
C6021	C602	0.618910	0.651750	0.229200
H5581	H558	0.634500	0.668400	0.217300
C6031	C603	0.617070	0.623420	0.185700
H5591	H559	0.631600	0.620800	0.143500
C6041	C604	0.594380	0.598500	0.202300
C6051	C605	0.595530	0.568880	0.154200
C6061	C606	0.560250	0.492780	0.142800
C6071	C607	0.562930	0.459810	0.105400
H5601	H560	0.584000	0.458900	0.077200
H5611	H561	0.545000	0.457800	0.067300
C6081	C608	0.561300	0.431140	0.157700
H5621	H562	0.542500	0.433600	0.192300
H5631	H563	0.558800	0.411000	0.127600
H5641	H564	0.581600	0.429900	0.187800
C6091	C609	0.564810	0.483400	0.356000
H5651	H565	0.543800	0.475300	0.341400
C6101	C610	0.585000	0.463300	0.401500
H5661	H566	0.578900	0.441500	0.414400
C6111	C611	0.615150	0.477300	0.427200
C6121	C612	0.624130	0.503400	0.395000
H5671	H567	0.645900	0.511100	0.402600
C6131	C613	0.603110	0.521400	0.348700
H5681	H568	0.611100	0.541300	0.327500
C6141	C614	0.637670	0.460400	0.485600
H5691	H569	0.647100	0.477500	0.519300
H5701	H570	0.656100	0.450100	0.457500
Mn451	Mn45	0.386610	0.470440	0.973800
O1331	O133	0.348950	0.490600	0.937370
O1341	O134	0.384820	0.552920	0.114270
O1351	O135	0.426590	0.455260	0.022640
N1181	N118	0.393960	0.506180	0.045740
N1191	N119	0.423360	0.503590	0.087700
N1201	N120	0.689820	0.391990	0.690600
C6151	C615	0.332240	0.515710	0.966700
C6161	C616	0.301300	0.522250	0.935400
H5711	H571	0.293600	0.508900	0.894600
C6171	C617	0.281830	0.547240	0.961300
H5721	H572	0.260900	0.550800	0.938900
C6181	C618	0.292780	0.567690	0.021000
H5731	H573	0.279300	0.585000	0.039800
C6191	C619	0.323350	0.562020	0.051300
H5741	H574	0.331200	0.576200	0.090600
C6201	C620	0.343380	0.536340	0.026900
C6211	C621	0.375250	0.531770	0.064000
C6221	C622	0.438130	0.476250	0.071700
C6231	C623	0.469080	0.467170	0.112000
H5751	H575	0.479000	0.486800	0.136100
H5761	H576	0.485100	0.457900	0.075100
C6241	C624	0.459900	0.439600	0.178000
H5771	H577	0.441100	0.447300	0.208100
H5781	H578	0.478900	0.436500	0.211900
H5791	H579	0.454400	0.418700	0.153300
C6251	C625	0.669340	0.415080	0.713600
H5801	H580	0.669200	0.421200	0.766100
C6261	C626	0.647930	0.430840	0.663200
H5811	H581	0.634100	0.448000	0.681000
C6271	C627	0.646950	0.421300	0.586400
C6281	C628	0.668650	0.398120	0.564600
H5821	H582	0.669300	0.391400	0.512600
C6291	C629	0.689550	0.384280	0.615300
H5831	H583	0.704800	0.368400	0.597200
C6301	C630	0.623300	0.437000	0.530700
H5841	H584	0.605100	0.447200	0.559800
H5851	H585	0.613800	0.419700	0.497600
Mn461	Mn46	0.925800	0.045820	0.671440
O1361	O136	0.905070	0.020790	0.746400
O1371	O137	0.004730	0.027510	0.815650
O1381	O138	0.954220	0.070310	0.602580
N1211	N121	0.967380	0.040190	0.723600
N1221	N122	0.994470	0.055900	0.686100
C6311	C631	0.917350	0.005130	0.804300
C6321	C632	0.895860	0.984970	0.849000
H5861	H586	0.874100	0.981300	0.831100
C6331	C633	0.905100	0.971100	0.914700
H5871	H587	0.889800	0.958100	0.942200
C6341	C634	0.936400	0.975200	0.943800
H5881	H588	0.942400	0.965800	0.991600
C6351	C635	0.959340	0.993800	0.900300
H5891	H589	0.981200	0.996300	0.918500
C6361	C636	0.950150	0.008290	0.831600
C6371	C637	0.975270	0.026000	0.788900
C6381	C638	0.984710	0.070210	0.624100
C6391	C639	0.009960	0.087490	0.575500
H5901	H590	0.024400	0.100300	0.610000
H5911	H591	0.023700	0.070600	0.550500
C6401	C640	0.997320	0.110400	0.514100
H5921	H592	0.981800	0.126000	0.536800
H5931	H593	0.015800	0.122400	0.491500
H5941	H594	0.986200	0.097600	0.474300
Mn471	Mn47	0.040880	0.039130	0.745390
O1391	O139	0.050310	0.080590	0.785070
O1401	O140	0.115620	0.067440	0.597860
O1411	O141	0.037380	0.996930	0.694290
N1231	N123	0.075830	0.043700	0.670730
N1241	N124	0.081190	0.015500	0.625500
N1251	N125	0.073810	0.012910	0.832600
C6411	C641	0.072970	0.102360	0.763900
C6421	C642	0.074580	0.131530	0.806500
H5951	H595	0.059500	0.135000	0.847300
C6431	C643	0.097780	0.155280	0.789800
H5961	H596	0.099100	0.174400	0.820900
C6441	C644	0.118910	0.151750	0.729200
H5971	H597	0.134500	0.168400	0.717300
C6451	C645	0.117070	0.123420	0.685700
H5981	H598	0.131600	0.120800	0.643500
C6461	C646	0.094380	0.098500	0.702300
C6471	C647	0.095530	0.068880	0.654200
C6481	C648	0.060250	0.992780	0.642800
C6491	C649	0.062930	0.959810	0.605400
H5991	H599	0.084000	0.958900	0.577200
H6001	H600	0.045000	0.957800	0.567300
C6501	C650	0.061300	0.931140	0.657700
H6011	H601	0.042500	0.933600	0.692300
H6021	H602	0.058800	0.911000	0.627600
H6031	H603	0.081600	0.929900	0.687800
C6511	C651	0.064810	0.983400	0.856000
H6041	H604	0.043800	0.975300	0.841400
C6521	C652	0.085000	0.963300	0.901500
H6051	H605	0.078900	0.941500	0.914400
C6531	C653	0.115150	0.977300	0.927200
C6541	C654	0.124130	0.003400	0.895000
H6061	H606	0.145900	0.011100	0.902600
C6551	C655	0.103110	0.021400	0.848700
H6071	H607	0.111100	0.041300	0.827500
C6561	C656	0.137670	0.960400	0.985600
H6081	H608	0.147100	0.977500	0.019300
H6091	H609	0.156100	0.950100	0.957500
Mn481	Mn48	0.886610	0.970440	0.473800
O1421	O142	0.848950	0.990600	0.437370
O1431	O143	0.884820	0.052920	0.614270
O1441	O144	0.926590	0.955260	0.522640
N1261	N126	0.893960	0.006180	0.545740
N1271	N127	0.923360	0.003590	0.587700
N1281	N128	0.189820	0.891990	0.190600
C6571	C657	0.832240	0.015710	0.466700
C6581	C658	0.801300	0.022250	0.435400
H6101	H610	0.793600	0.008900	0.394600
C6591	C659	0.781830	0.047240	0.461300
H6111	H611	0.760900	0.050800	0.438900
C6601	C660	0.792780	0.067690	0.521000
H6121	H612	0.779300	0.085000	0.539800
C6611	C661	0.823350	0.062020	0.551300
H6131	H613	0.831200	0.076200	0.590600
C6621	C662	0.843380	0.036340	0.526900
C6631	C663	0.875250	0.031770	0.564000
C6641	C664	0.938130	0.976250	0.571700
C6651	C665	0.969080	0.967170	0.612000
H6141	H614	0.979000	0.986800	0.636100
H6151	H615	0.985100	0.957900	0.575100
C6661	C666	0.959900	0.939600	0.678000
H6161	H616	0.941100	0.947300	0.708100
H6171	H617	0.978900	0.936500	0.711900
H6181	H618	0.954400	0.918700	0.653300
C6671	C667	0.169340	0.915080	0.213600
H6191	H619	0.169200	0.921200	0.266100
C6681	C668	0.147930	0.930840	0.163200
H6201	H620	0.134100	0.948000	0.181000
C6691	C669	0.146950	0.921300	0.086400
C6701	C670	0.168650	0.898120	0.064600
H6211	H621	0.169300	0.891400	0.012600
C6711	C671	0.189550	0.884280	0.115300
H6221	H622	0.204800	0.868400	0.097200
C6721	C672	0.123300	0.937000	0.030700
H6231	H623	0.105100	0.947200	0.059800
H6241	H624	0.113800	0.919700	0.997600
