data_XAKZAL_clean_PM
_symmetry_space_group_name_H-M	'P1'
_cell_length_a	17.472600
_cell_length_b	30.073300
_cell_length_c	30.073300
_cell_angle_alpha	85.159000
_cell_angle_beta	73.112000
_cell_angle_gamma	73.112100
_symmetry_Int_Tables_number 1

loop_
_symmetry_equiv_pos_as_xyz
'x,y,z'

loop_
_atom_site_label
_atom_site_type_symbol
_atom_site_fract_x
_atom_site_fract_y
_atom_site_fract_z
Mn11	Mn1	0.088570	0.916720	0.356420
Mn21	Mn2	0.259500	0.883300	0.463680
Mn31	Mn3	0.796970	0.997600	0.421800
Mn41	Mn4	0.861710	0.583280	0.143580
Mn51	Mn5	0.106480	0.616700	0.036320
Mn61	Mn6	0.716370	0.502400	0.078200
Mn71	Mn7	0.444990	0.643580	0.416720
Mn81	Mn8	0.723180	0.536320	0.383300
Mn91	Mn9	0.218770	0.578200	0.497600
Mn101	Mn10	0.005290	0.856420	0.083280
Mn111	Mn11	0.142800	0.963680	0.116700
Mn121	Mn12	0.794570	0.921800	0.002400
Mn131	Mn13	0.911430	0.083280	0.643580
Mn141	Mn14	0.740500	0.116700	0.536320
Mn151	Mn15	0.203030	0.002400	0.578200
Mn161	Mn16	0.138290	0.416720	0.856420
Mn171	Mn17	0.893520	0.383300	0.963680
Mn181	Mn18	0.283630	0.497600	0.921800
Mn191	Mn19	0.555010	0.356420	0.583280
Mn201	Mn20	0.276820	0.463680	0.616700
Mn211	Mn21	0.781230	0.421800	0.502400
Mn221	Mn22	0.994710	0.143580	0.916720
Mn231	Mn23	0.857200	0.036320	0.883300
Mn241	Mn24	0.205430	0.078200	0.997600
H11	H1	0.270400	0.756800	0.401400
H21	H2	0.259600	0.695800	0.364000
H31	H3	0.168600	0.710400	0.318000
H41	H4	0.088200	0.784900	0.309900
H51	H5	0.111100	0.028600	0.434000
H61	H6	0.185700	0.993600	0.451000
H71	H7	0.208500	0.027300	0.356700
H81	H8	0.281600	0.997800	0.378200
H91	H9	0.192400	0.077800	0.427000
H101	H10	0.229400	0.088800	0.373800
H111	H11	0.304600	0.046700	0.433300
H121	H12	0.345300	0.052100	0.379300
H131	H13	0.258100	0.137600	0.425200
H141	H14	0.339900	0.109900	0.440300
H151	H15	0.347000	0.124500	0.387100
H161	H16	0.155500	0.906900	0.245900
H171	H17	0.270400	0.904800	0.183800
H181	H18	0.395600	0.913500	0.274100
H191	H19	0.277300	0.915000	0.333800
H201	H20	0.406100	0.940400	0.164000
H211	H21	0.428900	0.885400	0.159400
H221	H22	0.442000	0.987700	0.482900
H231	H23	0.554300	0.984400	0.417000
H241	H24	0.566800	0.942700	0.353100
H251	H25	0.470800	0.904100	0.353300
H261	H26	0.065300	0.944900	0.606300
H271	H27	0.021200	0.928200	0.573600
H281	H28	0.016200	0.879100	0.637300
H291	H29	0.079600	0.849400	0.593200
H301	H30	0.132100	0.889100	0.658100
H311	H31	0.193400	0.856600	0.615600
H321	H32	0.082400	0.826400	0.693200
H331	H33	0.142800	0.793700	0.650300
H341	H34	0.198600	0.833800	0.713000
H351	H35	0.201600	0.780200	0.712400
H361	H36	0.259300	0.801700	0.669900
H371	H37	0.979800	0.982100	0.247900
H381	H38	0.906000	0.023000	0.198400
H391	H39	0.771100	0.070300	0.228900
H401	H40	0.708700	0.072500	0.308300
H411	H41	0.955400	0.916800	0.508600
H421	H42	0.023000	0.889500	0.464100
H431	H43	0.946200	0.840700	0.515500
H441	H44	0.863400	0.871900	0.503500
H451	H45	0.005000	0.817400	0.437400
H461	H46	0.923200	0.849000	0.425000
H471	H47	0.924900	0.769700	0.484500
H481	H48	0.844800	0.800800	0.469800
H491	H49	0.925000	0.777700	0.390100
H501	H50	0.892100	0.738500	0.422900
H511	H51	0.987100	0.738700	0.412700
H521	H52	0.634000	0.980500	0.071100
H531	H53	0.530700	0.977500	0.137700
H541	H54	0.612700	0.839100	0.132500
H551	H55	0.715100	0.845000	0.066400
H561	H56	0.513800	0.876600	0.205800
H571	H57	0.491300	0.932000	0.209800
H581	H58	0.928600	0.743200	0.098600
H591	H59	0.819400	0.804200	0.136000
H601	H60	0.697000	0.789600	0.182000
H611	H61	0.683000	0.715100	0.190100
H621	H62	0.073700	0.471400	0.066000
H631	H63	0.130300	0.506400	0.049000
H641	H64	0.092500	0.472700	0.143300
H651	H65	0.157600	0.502200	0.121800
H661	H66	0.197200	0.422200	0.073000
H671	H67	0.192000	0.411200	0.126200
H681	H68	0.284600	0.453300	0.066700
H691	H69	0.276700	0.447900	0.120700
H701	H70	0.320900	0.362400	0.074800
H711	H71	0.390100	0.390100	0.059700
H721	H72	0.358600	0.375500	0.112900
H731	H73	0.808300	0.593100	0.254100
H741	H74	0.859000	0.595200	0.316200
H751	H75	0.083200	0.586500	0.225900
H761	H76	0.026100	0.585000	0.166200
H771	H77	0.010500	0.559600	0.336000
H781	H78	0.973700	0.614600	0.340600
H791	H79	0.412600	0.512300	0.017100
H801	H80	0.455700	0.515600	0.083000
H811	H81	0.362600	0.557300	0.146900
H821	H82	0.228200	0.595900	0.146700
H831	H83	0.116500	0.555100	0.893700
H841	H84	0.023000	0.571800	0.926400
H851	H85	0.032600	0.620900	0.862700
H861	H86	0.022200	0.650600	0.906800
H871	H87	0.179300	0.610900	0.841900
H881	H88	0.165600	0.643400	0.884400
H891	H89	0.102000	0.673600	0.806800
H901	H90	0.086800	0.706300	0.849700
H911	H91	0.245400	0.666200	0.787000
H921	H92	0.194200	0.719800	0.787600
H931	H93	0.230900	0.698300	0.830100
H941	H94	0.709800	0.517900	0.252100
H951	H95	0.627400	0.477000	0.301600
H961	H96	0.570300	0.429700	0.271100
H971	H97	0.589500	0.427500	0.191700
H981	H98	0.880800	0.583200	0.991400
H991	H99	0.876600	0.610500	0.035900
H1001	H100	0.802400	0.659300	0.984500
H1011	H101	0.738800	0.628100	0.996500
H1021	H102	0.759800	0.682600	0.062600
H1031	H103	0.697200	0.651000	0.075000
H1041	H104	0.679100	0.730300	0.015500
H1051	H105	0.615400	0.699200	0.030200
H1061	H106	0.592800	0.722300	0.109900
H1071	H107	0.553500	0.761500	0.077100
H1081	H108	0.638500	0.761300	0.087300
H1091	H109	0.185600	0.519500	0.428900
H1101	H110	0.145900	0.522500	0.362300
H1111	H111	0.084300	0.660900	0.367500
H1121	H112	0.126500	0.655000	0.433600
H1131	H113	0.096200	0.623400	0.294200
H1141	H114	0.133100	0.568000	0.290200
H1151	H115	0.671800	0.598600	0.256800
H1161	H116	0.623600	0.636000	0.195800
H1171	H117	0.486600	0.682000	0.210400
H1181	H118	0.398100	0.690100	0.284900
H1191	H119	0.545100	0.566000	0.528600
H1201	H120	0.636700	0.549000	0.493600
H1211	H121	0.565200	0.643300	0.527300
H1221	H122	0.659800	0.621800	0.497800
H1231	H123	0.619400	0.573000	0.577800
H1241	H124	0.603200	0.626200	0.588800
H1251	H125	0.737900	0.566700	0.546700
H1261	H126	0.724600	0.620700	0.552100
H1271	H127	0.683300	0.574800	0.637600
H1281	H128	0.780200	0.559700	0.609900
H1291	H129	0.734100	0.612900	0.624500
H1301	H130	0.401400	0.754100	0.406900
H1311	H131	0.454200	0.816200	0.404800
H1321	H132	0.669700	0.725900	0.413500
H1331	H133	0.611100	0.666200	0.415000
H1341	H134	0.570100	0.836000	0.440400
H1351	H135	0.588300	0.840600	0.385400
H1361	H136	0.924900	0.517100	0.487700
H1371	H137	0.971300	0.583000	0.484400
H1381	H138	0.919900	0.646900	0.442700
H1391	H139	0.824100	0.646700	0.404100
H1401	H140	0.671600	0.393700	0.444900
H1411	H141	0.594800	0.426400	0.428200
H1421	H142	0.653500	0.362700	0.379100
H1431	H143	0.672800	0.406800	0.349400
H1441	H144	0.790200	0.341900	0.389100
H1451	H145	0.809000	0.384400	0.356600
H1461	H146	0.775600	0.306800	0.326400
H1471	H147	0.793100	0.349700	0.293700
H1481	H148	0.911600	0.287000	0.333800
H1491	H149	0.914000	0.287600	0.280200
H1501	H150	0.929200	0.330100	0.301700
H1511	H151	0.227700	0.752100	0.482100
H1521	H152	0.104400	0.801600	0.523000
H1531	H153	0.000000	0.771100	0.570300
H1541	H154	0.017000	0.691700	0.572500
H1551	H155	0.464000	0.491400	0.416800
H1561	H156	0.487100	0.535900	0.389500
H1571	H157	0.461700	0.484500	0.340700
H1581	H158	0.366900	0.496500	0.371900
H1591	H159	0.442400	0.562600	0.317400
H1601	H160	0.348200	0.575000	0.349000
H1611	H161	0.409400	0.515500	0.269700
H1621	H162	0.314600	0.530200	0.300800
H1631	H163	0.315100	0.609900	0.277700
H1641	H164	0.315000	0.577100	0.238500
H1651	H165	0.399800	0.587300	0.238700
H1661	H166	0.705100	0.928900	0.480500
H1671	H167	0.668400	0.862300	0.477500
H1681	H168	0.745200	0.867500	0.339100
H1691	H169	0.781500	0.933600	0.345000
H1701	H170	0.719600	0.794200	0.376600
H1711	H171	0.701100	0.790200	0.432000
H1721	H172	0.027200	0.901400	0.243200
H1731	H173	0.955400	0.864000	0.304200
H1741	H174	0.879000	0.818000	0.289600
H1751	H175	0.873100	0.809900	0.215100
H1761	H176	0.139700	0.934000	0.971400
H1771	H177	0.179300	0.951000	0.006400
H1781	H178	0.235800	0.856700	0.972700
H1791	H179	0.279400	0.878200	0.002200
H1801	H180	0.270200	0.927000	0.922200
H1811	H181	0.318200	0.873800	0.911200
H1821	H182	0.351300	0.933300	0.953300
H1831	H183	0.397400	0.879300	0.947900
H1841	H184	0.395700	0.925200	0.862400
H1851	H185	0.449800	0.940300	0.890100
H1861	H186	0.471500	0.887100	0.875500
H1871	H187	0.062400	0.745900	0.093100
H1881	H188	0.175200	0.683800	0.095200
H1891	H189	0.309100	0.774100	0.086500
H1901	H190	0.192300	0.833800	0.085000
H1911	H191	0.346500	0.664000	0.059600
H1921	H192	0.314300	0.659400	0.114600
H1931	H193	0.429700	0.982900	0.012300
H1941	H194	0.538700	0.917000	0.015600
H1951	H195	0.509500	0.853100	0.057300
H1961	H196	0.374900	0.853300	0.095900
H1971	H197	0.010200	0.106300	0.055100
H1981	H198	0.949400	0.073600	0.071800
H1991	H199	0.895300	0.137300	0.120900
H2001	H200	0.929000	0.093200	0.150600
H2011	H201	0.021200	0.158100	0.110900
H2021	H202	0.050000	0.115600	0.143400
H2031	H203	0.908800	0.193200	0.173600
H2041	H204	0.936500	0.150300	0.206300
H2051	H205	0.032400	0.213000	0.166200
H2061	H206	0.981800	0.212400	0.219800
H2071	H207	0.061000	0.169900	0.198300
H2081	H208	0.961900	0.747900	0.017900
H2091	H209	0.929000	0.698400	0.977000
H2101	H210	0.841400	0.728900	0.929700
H2111	H211	0.781200	0.808300	0.927500
H2121	H212	0.872200	0.008600	0.083200
H2131	H213	0.912500	0.964100	0.110500
H2141	H214	0.786900	0.015500	0.159300
H2151	H215	0.735300	0.003500	0.128100
H2161	H216	0.822400	0.937400	0.182600
H2171	H217	0.772200	0.925000	0.151000
H2181	H218	0.694600	0.984500	0.230300
H2191	H219	0.645600	0.969800	0.199200
H2201	H220	0.702700	0.890100	0.222300
H2211	H221	0.630600	0.922900	0.261500
H2221	H222	0.725800	0.912700	0.261300
H2231	H223	0.614500	0.571100	0.019500
H2241	H224	0.508200	0.637700	0.022500
H2251	H225	0.451800	0.632500	0.160900
H2261	H226	0.560100	0.566400	0.155000
H2271	H227	0.390400	0.705800	0.123400
H2281	H228	0.423300	0.709800	0.068000
H2291	H229	0.729600	0.243200	0.598600
H2301	H230	0.740400	0.304200	0.636000
H2311	H231	0.831400	0.289600	0.682000
H2321	H232	0.911800	0.215100	0.690100
H2331	H233	0.888900	0.971400	0.566000
H2341	H234	0.814300	0.006400	0.549000
H2351	H235	0.791500	0.972700	0.643300
H2361	H236	0.718400	0.002200	0.621800
H2371	H237	0.807600	0.922200	0.573000
H2381	H238	0.770600	0.911200	0.626200
H2391	H239	0.695400	0.953300	0.566700
H2401	H240	0.654700	0.947900	0.620700
H2411	H241	0.741900	0.862400	0.574800
H2421	H242	0.660100	0.890100	0.559700
H2431	H243	0.653000	0.875500	0.612900
H2441	H244	0.844500	0.093100	0.754100
H2451	H245	0.729600	0.095200	0.816200
H2461	H246	0.604400	0.086500	0.725900
H2471	H247	0.722700	0.085000	0.666200
H2481	H248	0.593900	0.059600	0.836000
H2491	H249	0.571100	0.114600	0.840600
H2501	H250	0.558000	0.012300	0.517100
H2511	H251	0.445700	0.015600	0.583000
H2521	H252	0.433200	0.057300	0.646900
H2531	H253	0.529200	0.095900	0.646700
H2541	H254	0.934700	0.055100	0.393700
H2551	H255	0.978800	0.071800	0.426400
H2561	H256	0.983800	0.120900	0.362700
H2571	H257	0.920400	0.150600	0.406800
H2581	H258	0.867900	0.110900	0.341900
H2591	H259	0.806600	0.143400	0.384400
H2601	H260	0.917600	0.173600	0.306800
H2611	H261	0.857200	0.206300	0.349700
H2621	H262	0.801400	0.166200	0.287000
H2631	H263	0.798400	0.219800	0.287600
H2641	H264	0.740700	0.198300	0.330100
H2651	H265	0.020200	0.017900	0.752100
H2661	H266	0.094000	0.977000	0.801600
H2671	H267	0.228900	0.929700	0.771100
H2681	H268	0.291300	0.927500	0.691700
H2691	H269	0.044600	0.083200	0.491400
H2701	H270	0.977000	0.110500	0.535900
H2711	H271	0.053800	0.159300	0.484500
H2721	H272	0.136600	0.128100	0.496500
H2731	H273	0.995000	0.182600	0.562600
H2741	H274	0.076800	0.151000	0.575000
H2751	H275	0.075100	0.230300	0.515500
H2761	H276	0.155200	0.199200	0.530200
H2771	H277	0.075000	0.222300	0.609900
H2781	H278	0.107900	0.261500	0.577100
H2791	H279	0.012900	0.261300	0.587300
H2801	H280	0.366000	0.019500	0.928900
H2811	H281	0.469300	0.022500	0.862300
H2821	H282	0.387300	0.160900	0.867500
H2831	H283	0.284900	0.155000	0.933600
H2841	H284	0.486200	0.123400	0.794200
H2851	H285	0.508700	0.068000	0.790200
H2861	H286	0.071400	0.256800	0.901400
H2871	H287	0.180600	0.195800	0.864000
H2881	H288	0.303000	0.210400	0.818000
H2891	H289	0.317000	0.284900	0.809900
H2901	H290	0.926300	0.528600	0.934000
H2911	H291	0.869700	0.493600	0.951000
H2921	H292	0.907500	0.527300	0.856700
H2931	H293	0.842400	0.497800	0.878200
H2941	H294	0.802800	0.577800	0.927000
H2951	H295	0.808000	0.588800	0.873800
H2961	H296	0.715400	0.546700	0.933300
H2971	H297	0.723300	0.552100	0.879300
H2981	H298	0.679100	0.637600	0.925200
H2991	H299	0.609900	0.609900	0.940300
H3001	H300	0.641400	0.624500	0.887100
H3011	H301	0.191700	0.406900	0.745900
H3021	H302	0.141000	0.404800	0.683800
H3031	H303	0.916800	0.413500	0.774100
H3041	H304	0.973900	0.415000	0.833800
H3051	H305	0.989500	0.440400	0.664000
H3061	H306	0.026300	0.385400	0.659400
H3071	H307	0.587400	0.487700	0.982900
H3081	H308	0.544300	0.484400	0.917000
H3091	H309	0.637400	0.442700	0.853100
H3101	H310	0.771800	0.404100	0.853300
H3111	H311	0.883500	0.444900	0.106300
H3121	H312	0.977000	0.428200	0.073600
H3131	H313	0.967400	0.379100	0.137300
H3141	H314	0.977800	0.349400	0.093200
H3151	H315	0.820700	0.389100	0.158100
H3161	H316	0.834400	0.356600	0.115600
H3171	H317	0.898000	0.326400	0.193200
H3181	H318	0.913200	0.293700	0.150300
H3191	H319	0.754600	0.333800	0.213000
H3201	H320	0.805800	0.280200	0.212400
H3211	H321	0.769100	0.301700	0.169900
H3221	H322	0.290200	0.482100	0.747900
H3231	H323	0.372600	0.523000	0.698400
H3241	H324	0.429700	0.570300	0.728900
H3251	H325	0.410500	0.572500	0.808300
H3261	H326	0.119200	0.416800	0.008600
H3271	H327	0.123400	0.389500	0.964100
H3281	H328	0.197600	0.340700	0.015500
H3291	H329	0.261200	0.371900	0.003500
H3301	H330	0.240200	0.317400	0.937400
H3311	H331	0.302800	0.349000	0.925000
H3321	H332	0.320900	0.269700	0.984500
H3331	H333	0.384600	0.300800	0.969800
H3341	H334	0.407200	0.277700	0.890100
H3351	H335	0.446500	0.238500	0.922900
H3361	H336	0.361500	0.238700	0.912700
H3371	H337	0.814400	0.480500	0.571100
H3381	H338	0.854100	0.477500	0.637700
H3391	H339	0.915700	0.339100	0.632500
H3401	H340	0.873500	0.345000	0.566400
H3411	H341	0.903800	0.376600	0.705800
H3421	H342	0.866900	0.432000	0.709800
H3431	H343	0.328200	0.401400	0.743200
H3441	H344	0.376400	0.364000	0.804200
H3451	H345	0.513400	0.318000	0.789600
H3461	H346	0.601900	0.309900	0.715100
H3471	H347	0.454900	0.434000	0.471400
H3481	H348	0.363300	0.451000	0.506400
H3491	H349	0.434800	0.356700	0.472700
H3501	H350	0.340200	0.378200	0.502200
H3511	H351	0.380600	0.427000	0.422200
H3521	H352	0.396800	0.373800	0.411200
H3531	H353	0.262100	0.433300	0.453300
H3541	H354	0.275400	0.379300	0.447900
H3551	H355	0.316700	0.425200	0.362400
H3561	H356	0.219800	0.440300	0.390100
H3571	H357	0.265900	0.387100	0.375500
H3581	H358	0.598600	0.245900	0.593100
H3591	H359	0.545800	0.183800	0.595200
H3601	H360	0.330300	0.274100	0.586500
H3611	H361	0.388900	0.333800	0.585000
H3621	H362	0.429900	0.164000	0.559600
H3631	H363	0.411700	0.159400	0.614600
H3641	H364	0.075100	0.482900	0.512300
H3651	H365	0.028700	0.417000	0.515600
H3661	H366	0.080100	0.353100	0.557300
H3671	H367	0.175900	0.353300	0.595900
H3681	H368	0.328400	0.606300	0.555100
H3691	H369	0.405200	0.573600	0.571800
H3701	H370	0.346500	0.637300	0.620900
H3711	H371	0.327200	0.593200	0.650600
H3721	H372	0.209800	0.658100	0.610900
H3731	H373	0.191000	0.615600	0.643400
H3741	H374	0.224400	0.693200	0.673600
H3751	H375	0.206900	0.650300	0.706300
H3761	H376	0.088400	0.713000	0.666200
H3771	H377	0.086000	0.712400	0.719800
H3781	H378	0.070800	0.669900	0.698300
H3791	H379	0.772300	0.247900	0.517900
H3801	H380	0.895600	0.198400	0.477000
H3811	H381	0.000000	0.228900	0.429700
H3821	H382	0.983000	0.308300	0.427500
H3831	H383	0.536000	0.508600	0.583200
H3841	H384	0.512900	0.464100	0.610500
H3851	H385	0.538300	0.515500	0.659300
H3861	H386	0.633100	0.503500	0.628100
H3871	H387	0.557600	0.437400	0.682600
H3881	H388	0.651800	0.425000	0.651000
H3891	H389	0.590600	0.484500	0.730300
H3901	H390	0.685400	0.469800	0.699200
H3911	H391	0.684900	0.390100	0.722300
H3921	H392	0.685000	0.422900	0.761500
H3931	H393	0.600200	0.412700	0.761300
H3941	H394	0.294900	0.071100	0.519500
H3951	H395	0.331600	0.137700	0.522500
H3961	H396	0.254800	0.132500	0.660900
H3971	H397	0.218500	0.066400	0.655000
H3981	H398	0.280400	0.205800	0.623400
H3991	H399	0.298900	0.209800	0.568000
H4001	H400	0.972800	0.098600	0.756800
H4011	H401	0.044600	0.136000	0.695800
H4021	H402	0.121000	0.182000	0.710400
H4031	H403	0.126900	0.190100	0.784900
H4041	H404	0.860300	0.066000	0.028600
H4051	H405	0.820700	0.049000	0.993600
H4061	H406	0.764200	0.143300	0.027300
H4071	H407	0.720600	0.121800	0.997800
H4081	H408	0.729800	0.073000	0.077800
H4091	H409	0.681800	0.126200	0.088800
H4101	H410	0.648700	0.066700	0.046700
H4111	H411	0.602600	0.120700	0.052100
H4121	H412	0.604300	0.074800	0.137600
H4131	H413	0.550200	0.059700	0.109900
H4141	H414	0.528500	0.112900	0.124500
H4151	H415	0.937600	0.254100	0.906900
H4161	H416	0.824800	0.316200	0.904800
H4171	H417	0.690900	0.225900	0.913500
H4181	H418	0.807700	0.166200	0.915000
H4191	H419	0.653500	0.336000	0.940400
H4201	H420	0.685700	0.340600	0.885400
H4211	H421	0.570300	0.017100	0.987700
H4221	H422	0.461300	0.083000	0.984400
H4231	H423	0.490500	0.146900	0.942700
H4241	H424	0.625100	0.146700	0.904100
H4251	H425	0.989800	0.893700	0.944900
H4261	H426	0.050600	0.926400	0.928200
H4271	H427	0.104700	0.862700	0.879100
H4281	H428	0.071000	0.906800	0.849400
H4291	H429	0.978800	0.841900	0.889100
H4301	H430	0.950000	0.884400	0.856600
H4311	H431	0.091200	0.806800	0.826400
H4321	H432	0.063500	0.849700	0.793700
H4331	H433	0.967600	0.787000	0.833800
H4341	H434	0.018200	0.787600	0.780200
H4351	H435	0.939000	0.830100	0.801700
H4361	H436	0.038100	0.252100	0.982100
H4371	H437	0.071000	0.301600	0.023000
H4381	H438	0.158600	0.271100	0.070300
H4391	H439	0.218800	0.191700	0.072500
H4401	H440	0.127800	0.991400	0.916800
H4411	H441	0.087500	0.035900	0.889500
H4421	H442	0.213100	0.984500	0.840700
H4431	H443	0.264700	0.996500	0.871900
H4441	H444	0.177600	0.062600	0.817400
H4451	H445	0.227800	0.075000	0.849000
H4461	H446	0.305400	0.015500	0.769700
H4471	H447	0.354400	0.030200	0.800800
H4481	H448	0.297300	0.109900	0.777700
H4491	H449	0.369400	0.077100	0.738500
H4501	H450	0.274200	0.087300	0.738700
H4511	H451	0.385500	0.428900	0.980500
H4521	H452	0.491800	0.362300	0.977500
H4531	H453	0.548200	0.367500	0.839100
H4541	H454	0.439900	0.433600	0.845000
H4551	H455	0.609600	0.294200	0.876600
H4561	H456	0.576700	0.290200	0.932000
C11	C1	0.131850	0.817370	0.350330
C21	C2	0.186480	0.808740	0.378300
C31	C3	0.233180	0.762900	0.382540
C41	C4	0.227130	0.726570	0.360570
C51	C5	0.173030	0.735450	0.333490
C61	C6	0.125650	0.779670	0.328430
C71	C7	0.197130	0.845450	0.403290
C81	C8	0.145880	0.963110	0.406730
C91	C9	0.163480	0.003400	0.423840
C101	C10	0.227270	0.021760	0.385300
C111	C11	0.238300	0.066000	0.398800
C121	C12	0.298700	0.066900	0.406100
C131	C13	0.312200	0.114200	0.415600
C141	C14	0.205180	0.908500	0.251740
C151	C15	0.273240	0.907330	0.214590
C161	C16	0.345310	0.909820	0.221960
C171	C17	0.346340	0.912360	0.267360
C181	C18	0.275740	0.913240	0.302680
C191	C19	0.420560	0.910720	0.180760
C201	C20	0.400470	0.919230	0.419830
C211	C21	0.390310	0.946270	0.457910
C221	C22	0.448130	0.970110	0.456630
C231	C23	0.514460	0.968470	0.417610
C241	C24	0.521570	0.943700	0.380160
C251	C25	0.465310	0.920110	0.380470
C261	C26	0.318670	0.952510	0.499550
C271	C27	0.147570	0.914010	0.546250
C281	C28	0.070470	0.919400	0.585860
C291	C29	0.071080	0.875190	0.614050
C301	C30	0.138530	0.862400	0.638940
C311	C31	0.137000	0.820430	0.669370
C321	C32	0.205000	0.807980	0.693220
C331	C33	0.807310	0.027880	0.326900
C341	C34	0.889150	0.001150	0.308550
C351	C35	0.924120	0.000300	0.260460
C361	C36	0.881190	0.024740	0.231080
C371	C37	0.801010	0.052210	0.249170
C381	C38	0.764160	0.053700	0.296380
C391	C39	0.940420	0.972770	0.337190
C401	C40	0.921890	0.934810	0.448410
C411	C41	0.962530	0.901070	0.479470
C421	C42	0.924610	0.859790	0.490990
C431	C43	0.943760	0.829520	0.449560
C441	C44	0.906300	0.788690	0.459110
C451	C45	0.929600	0.758300	0.417700
C461	C46	0.630400	0.951020	0.083980
C471	C47	0.569340	0.949410	0.123910
C481	C48	0.563440	0.907450	0.144270
C491	C49	0.617030	0.868950	0.120990
C501	C50	0.677130	0.872640	0.081300
C511	C51	0.497100	0.906290	0.189510
C521	C52	0.799550	0.682630	0.149670
C531	C53	0.873520	0.691260	0.121700
C541	C54	0.878620	0.737100	0.117460
C551	C55	0.814270	0.773430	0.139430
C561	C56	0.741970	0.764550	0.166510
C571	C57	0.733750	0.720330	0.171570
C581	C58	0.945870	0.654550	0.096710
C591	C59	0.015720	0.536890	0.093270
C601	C60	0.090720	0.496600	0.076160
C611	C61	0.134330	0.478240	0.114700
C621	C62	0.203100	0.434000	0.101200
C631	C63	0.271700	0.433100	0.093900
C641	C64	0.342000	0.385800	0.084400
C651	C65	0.865420	0.591500	0.248260
C661	C66	0.895160	0.592670	0.285410
C671	C67	0.977090	0.590180	0.278040
C681	C68	0.026060	0.587640	0.232640
C691	C69	0.991660	0.586760	0.197320
C701	C70	0.012040	0.589280	0.319240
C711	C71	0.239530	0.580770	0.080170
C721	C72	0.294490	0.553730	0.042090
C731	C73	0.374870	0.529890	0.043370
C741	C74	0.400540	0.531530	0.082390
C751	C75	0.345430	0.556300	0.119840
C761	C76	0.265890	0.579890	0.119530
C771	C77	0.270730	0.547490	0.000450
C781	C78	0.107830	0.585990	0.953750
C791	C79	0.075730	0.580600	0.914140
C801	C80	0.060320	0.624810	0.885950
C811	C81	0.139870	0.637600	0.861060
C821	C82	0.126800	0.679570	0.830630
C831	C83	0.206200	0.692020	0.806780
C841	C84	0.662090	0.472120	0.173100
C851	C85	0.698850	0.498850	0.191450
C861	C86	0.684880	0.499700	0.239540
C871	C87	0.637010	0.475260	0.268920
C881	C88	0.602390	0.447790	0.250830
C891	C89	0.614240	0.446300	0.203620
C901	C90	0.750380	0.527230	0.162810
C911	C91	0.805110	0.565190	0.051590
C921	C92	0.843070	0.598930	0.020530
C931	C93	0.775390	0.640210	0.009010
C941	C94	0.722840	0.670480	0.050440
C951	C95	0.654100	0.711310	0.040890
C961	C96	0.605600	0.741700	0.082300
C971	C97	0.165400	0.548980	0.416020
C981	C98	0.142660	0.550590	0.376090
C991	C99	0.115160	0.592550	0.355730
C1001	C100	0.106970	0.631050	0.379010
C1011	C101	0.131070	0.627360	0.418700
C1021	C102	0.092900	0.593710	0.310490
C1031	C103	0.482180	0.649670	0.317370
C1041	C104	0.564780	0.621700	0.308740
C1051	C105	0.615720	0.617460	0.262900
C1061	C106	0.587700	0.639430	0.226570
C1071	C107	0.506520	0.666510	0.235450
C1081	C108	0.454080	0.671570	0.279670
C1091	C109	0.600420	0.596710	0.345450
C1101	C110	0.552610	0.593270	0.463110
C1111	C111	0.587320	0.576160	0.503400
C1121	C112	0.612570	0.614700	0.521760
C1131	C113	0.637100	0.601200	0.566000
C1141	C114	0.704800	0.593900	0.566900
C1151	C115	0.727800	0.584400	0.614200
C1161	C116	0.456920	0.748260	0.408500
C1171	C117	0.487830	0.785410	0.407330
C1181	C118	0.567270	0.778040	0.409820
C1191	C119	0.613700	0.732640	0.412360
C1201	C120	0.578420	0.697320	0.413240
C1211	C121	0.601320	0.819240	0.410720
C1221	C122	0.820300	0.580170	0.419230
C1231	C123	0.848220	0.542090	0.446270
C1241	C124	0.904760	0.543370	0.470110
C1251	C125	0.932070	0.582390	0.468470
C1261	C126	0.901730	0.619840	0.443700
C1271	C127	0.845780	0.619530	0.420110
C1281	C128	0.818220	0.500450	0.452510
C1291	C129	0.693820	0.453750	0.414010
C1301	C130	0.656330	0.414140	0.419400
C1311	C131	0.685130	0.385950	0.375190
C1321	C132	0.777470	0.361060	0.362400
C1331	C133	0.806370	0.330630	0.320430
C1341	C134	0.898220	0.306780	0.307980
C1351	C135	0.134210	0.673100	0.527880
C1361	C136	0.197700	0.691450	0.501150
C1371	C137	0.184580	0.739540	0.500300
C1381	C138	0.112270	0.768920	0.524740
C1391	C139	0.050180	0.750830	0.552210
C1401	C140	0.060540	0.703620	0.553700
C1411	C141	0.277610	0.662810	0.472770
C1421	C142	0.370300	0.551590	0.434810
C1431	C143	0.442000	0.520530	0.401070
C1441	C144	0.415600	0.509010	0.359790
C1451	C145	0.393320	0.550440	0.329520
C1461	C146	0.365410	0.540890	0.288690
C1471	C147	0.347300	0.582300	0.258300
C1481	C148	0.714380	0.916020	0.451020
C1491	C149	0.693250	0.876090	0.449410
C1501	C150	0.707710	0.855730	0.407450
C1511	C151	0.738020	0.879010	0.368950
C1521	C152	0.758430	0.918700	0.372640
C1531	C153	0.686610	0.810490	0.406290
C1541	C154	0.949220	0.850330	0.182630
C1551	C155	0.995220	0.878300	0.191260
C1561	C156	0.996080	0.882540	0.237100
C1571	C157	0.953700	0.860570	0.273430
C1581	C158	0.908480	0.833490	0.264550
C1591	C159	0.905320	0.828430	0.220330
C1601	C160	0.042580	0.903290	0.154550
C1611	C161	0.108990	0.906730	0.036890
C1621	C162	0.166880	0.923840	0.996600
C1631	C163	0.249030	0.885300	0.978240
C1641	C164	0.304300	0.898800	0.934000
C1651	C165	0.365600	0.906100	0.933100
C1661	C166	0.426400	0.915600	0.885800
C1671	C167	0.113680	0.751740	0.091500
C1681	C168	0.180570	0.714590	0.092670
C1691	C169	0.255130	0.721960	0.090180
C1701	C170	0.258700	0.767360	0.087640
C1711	C171	0.188980	0.802680	0.086760
C1721	C172	0.331280	0.680760	0.089280
C1731	C173	0.319700	0.919830	0.080770
C1741	C174	0.336580	0.957910	0.053730
C1751	C175	0.418240	0.956630	0.029890
C1761	C176	0.482930	0.917610	0.031530
C1771	C177	0.465270	0.880160	0.056300
C1781	C178	0.385420	0.880470	0.079890
C1791	C179	0.271180	0.999550	0.047490
C1801	C180	0.061580	0.046250	0.085990
C1811	C181	0.989870	0.085860	0.080600
C1821	C182	0.946270	0.114050	0.124810
C1831	C183	0.000930	0.138940	0.137600
C1841	C184	0.957430	0.169370	0.179570
C1851	C185	0.012980	0.193220	0.192020
C1861	C186	0.835190	0.826900	0.972120
C1871	C187	0.890300	0.808550	0.998850
C1881	C188	0.924420	0.760460	0.999700
C1891	C189	0.905930	0.731080	0.975260
C1901	C190	0.853220	0.749170	0.947790
C1911	C191	0.817860	0.796380	0.946300
C1921	C192	0.913190	0.837190	0.027230
C1931	C193	0.856700	0.948410	0.065190
C1941	C194	0.863600	0.979470	0.098930
C1951	C195	0.784400	0.990990	0.140210
C1961	C196	0.773280	0.949560	0.170480
C1971	C197	0.694990	0.959110	0.211310
C1981	C198	0.687900	0.917700	0.241700
C1991	C199	0.581420	0.583980	0.048980
C2001	C200	0.518750	0.623910	0.050590
C2011	C201	0.470890	0.644270	0.092550
C2021	C202	0.485980	0.620990	0.131050
C2031	C203	0.549770	0.581300	0.127360
C2041	C204	0.403390	0.689510	0.093710
C2051	C205	0.868150	0.182630	0.649670
C2061	C206	0.813520	0.191260	0.621700
C2071	C207	0.766820	0.237100	0.617460
C2081	C208	0.772870	0.273430	0.639430
C2091	C209	0.826970	0.264550	0.666510
C2101	C210	0.874350	0.220330	0.671570
C2111	C211	0.802870	0.154550	0.596710
C2121	C212	0.854120	0.036890	0.593270
C2131	C213	0.836520	0.996600	0.576160
C2141	C214	0.772730	0.978240	0.614700
C2151	C215	0.761700	0.934000	0.601200
C2161	C216	0.701300	0.933100	0.593900
C2171	C217	0.687800	0.885800	0.584400
C2181	C218	0.794820	0.091500	0.748260
C2191	C219	0.726760	0.092670	0.785410
C2201	C220	0.654690	0.090180	0.778040
C2211	C221	0.653660	0.087640	0.732640
C2221	C222	0.724260	0.086760	0.697320
C2231	C223	0.579440	0.089280	0.819240
C2241	C224	0.599530	0.080770	0.580170
C2251	C225	0.609690	0.053730	0.542090
C2261	C226	0.551870	0.029890	0.543370
C2271	C227	0.485540	0.031530	0.582390
C2281	C228	0.478430	0.056300	0.619840
C2291	C229	0.534690	0.079890	0.619530
C2301	C230	0.681330	0.047490	0.500450
C2311	C231	0.852430	0.085990	0.453750
C2321	C232	0.929530	0.080600	0.414140
C2331	C233	0.928920	0.124810	0.385950
C2341	C234	0.861470	0.137600	0.361060
C2351	C235	0.863000	0.179570	0.330630
C2361	C236	0.795000	0.192020	0.306780
C2371	C237	0.192690	0.972120	0.673100
C2381	C238	0.110850	0.998850	0.691450
C2391	C239	0.075880	0.999700	0.739540
C2401	C240	0.118810	0.975260	0.768920
C2411	C241	0.198990	0.947790	0.750830
C2421	C242	0.235840	0.946300	0.703620
C2431	C243	0.059580	0.027230	0.662810
C2441	C244	0.078110	0.065190	0.551590
C2451	C245	0.037470	0.098930	0.520530
C2461	C246	0.075390	0.140210	0.509010
C2471	C247	0.056240	0.170480	0.550440
C2481	C248	0.093700	0.211310	0.540890
C2491	C249	0.070400	0.241700	0.582300
C2501	C250	0.369600	0.048980	0.916020
C2511	C251	0.430660	0.050590	0.876090
C2521	C252	0.436560	0.092550	0.855730
C2531	C253	0.382970	0.131050	0.879010
C2541	C254	0.322870	0.127360	0.918700
C2551	C255	0.502900	0.093710	0.810490
C2561	C256	0.200450	0.317370	0.850330
C2571	C257	0.126480	0.308740	0.878300
C2581	C258	0.121380	0.262900	0.882540
C2591	C259	0.185730	0.226570	0.860570
C2601	C260	0.258030	0.235450	0.833490
C2611	C261	0.266250	0.279670	0.828430
C2621	C262	0.054130	0.345450	0.903290
C2631	C263	0.984280	0.463110	0.906730
C2641	C264	0.909280	0.503400	0.923840
C2651	C265	0.865670	0.521760	0.885300
C2661	C266	0.796900	0.566000	0.898800
C2671	C267	0.728300	0.566900	0.906100
C2681	C268	0.658000	0.614200	0.915600
C2691	C269	0.134580	0.408500	0.751740
C2701	C270	0.104840	0.407330	0.714590
C2711	C271	0.022910	0.409820	0.721960
C2721	C272	0.973940	0.412360	0.767360
C2731	C273	0.008340	0.413240	0.802680
C2741	C274	0.987960	0.410720	0.680760
C2751	C275	0.760470	0.419230	0.919830
C2761	C276	0.705510	0.446270	0.957910
C2771	C277	0.625130	0.470110	0.956630
C2781	C278	0.599460	0.468470	0.917610
C2791	C279	0.654570	0.443700	0.880160
C2801	C280	0.734110	0.420110	0.880470
C2811	C281	0.729270	0.452510	0.999550
C2821	C282	0.892170	0.414010	0.046250
C2831	C283	0.924270	0.419400	0.085860
C2841	C284	0.939680	0.375190	0.114050
C2851	C285	0.860130	0.362400	0.138940
C2861	C286	0.873200	0.320430	0.169370
C2871	C287	0.793800	0.307980	0.193220
C2881	C288	0.337910	0.527880	0.826900
C2891	C289	0.301150	0.501150	0.808550
C2901	C290	0.315120	0.500300	0.760460
C2911	C291	0.362990	0.524740	0.731080
C2921	C292	0.397610	0.552210	0.749170
C2931	C293	0.385760	0.553700	0.796380
C2941	C294	0.249620	0.472770	0.837190
C2951	C295	0.194890	0.434810	0.948410
C2961	C296	0.156930	0.401070	0.979470
C2971	C297	0.224610	0.359790	0.990990
C2981	C298	0.277160	0.329520	0.949560
C2991	C299	0.345900	0.288690	0.959110
C3001	C300	0.394400	0.258300	0.917700
C3011	C301	0.834600	0.451020	0.583980
C3021	C302	0.857340	0.449410	0.623910
C3031	C303	0.884840	0.407450	0.644270
C3041	C304	0.893030	0.368950	0.620990
C3051	C305	0.868930	0.372640	0.581300
C3061	C306	0.907100	0.406290	0.689510
C3071	C307	0.517820	0.350330	0.682630
C3081	C308	0.435220	0.378300	0.691260
C3091	C309	0.384280	0.382540	0.737100
C3101	C310	0.412300	0.360570	0.773430
C3111	C311	0.493480	0.333490	0.764550
C3121	C312	0.545920	0.328430	0.720330
C3131	C313	0.399580	0.403290	0.654550
C3141	C314	0.447390	0.406730	0.536890
C3151	C315	0.412680	0.423840	0.496600
C3161	C316	0.387430	0.385300	0.478240
C3171	C317	0.362900	0.398800	0.434000
C3181	C318	0.295200	0.406100	0.433100
C3191	C319	0.272200	0.415600	0.385800
C3201	C320	0.543080	0.251740	0.591500
C3211	C321	0.512170	0.214590	0.592670
C3221	C322	0.432730	0.221960	0.590180
C3231	C323	0.386300	0.267360	0.587640
C3241	C324	0.421580	0.302680	0.586760
C3251	C325	0.398680	0.180760	0.589280
C3261	C326	0.179700	0.419830	0.580770
C3271	C327	0.151780	0.457910	0.553730
C3281	C328	0.095240	0.456630	0.529890
C3291	C329	0.067930	0.417610	0.531530
C3301	C330	0.098270	0.380160	0.556300
C3311	C331	0.154220	0.380470	0.579890
C3321	C332	0.181780	0.499550	0.547490
C3331	C333	0.306180	0.546250	0.585990
C3341	C334	0.343670	0.585860	0.580600
C3351	C335	0.314870	0.614050	0.624810
C3361	C336	0.222530	0.638940	0.637600
C3371	C337	0.193630	0.669370	0.679570
C3381	C338	0.101780	0.693220	0.692020
C3391	C339	0.865790	0.326900	0.472120
C3401	C340	0.802300	0.308550	0.498850
C3411	C341	0.815420	0.260460	0.499700
C3421	C342	0.887730	0.231080	0.475260
C3431	C343	0.949820	0.249170	0.447790
C3441	C344	0.939460	0.296380	0.446300
C3451	C345	0.722390	0.337190	0.527230
C3461	C346	0.629700	0.448410	0.565190
C3471	C347	0.558000	0.479470	0.598930
C3481	C348	0.584400	0.490990	0.640210
C3491	C349	0.606680	0.449560	0.670480
C3501	C350	0.634590	0.459110	0.711310
C3511	C351	0.652700	0.417700	0.741700
C3521	C352	0.285620	0.083980	0.548980
C3531	C353	0.306750	0.123910	0.550590
C3541	C354	0.292290	0.144270	0.592550
C3551	C355	0.261980	0.120990	0.631050
C3561	C356	0.241570	0.081300	0.627360
C3571	C357	0.313390	0.189510	0.593710
C3581	C358	0.050780	0.149670	0.817370
C3591	C359	0.004780	0.121700	0.808740
C3601	C360	0.003920	0.117460	0.762900
C3611	C361	0.046300	0.139430	0.726570
C3621	C362	0.091520	0.166510	0.735450
C3631	C363	0.094680	0.171570	0.779670
C3641	C364	0.957420	0.096710	0.845450
C3651	C365	0.891010	0.093270	0.963110
C3661	C366	0.833120	0.076160	0.003400
C3671	C367	0.750970	0.114700	0.021760
C3681	C368	0.695700	0.101200	0.066000
C3691	C369	0.634400	0.093900	0.066900
C3701	C370	0.573600	0.084400	0.114200
C3711	C371	0.886320	0.248260	0.908500
C3721	C372	0.819430	0.285410	0.907330
C3731	C373	0.744870	0.278040	0.909820
C3741	C374	0.741300	0.232640	0.912360
C3751	C375	0.811020	0.197320	0.913240
C3761	C376	0.668720	0.319240	0.910720
C3771	C377	0.680300	0.080170	0.919230
C3781	C378	0.663420	0.042090	0.946270
C3791	C379	0.581760	0.043370	0.970110
C3801	C380	0.517070	0.082390	0.968470
C3811	C381	0.534730	0.119840	0.943700
C3821	C382	0.614580	0.119530	0.920110
C3831	C383	0.728820	0.000450	0.952510
C3841	C384	0.938420	0.953750	0.914010
C3851	C385	0.010130	0.914140	0.919400
C3861	C386	0.053730	0.885950	0.875190
C3871	C387	0.999070	0.861060	0.862400
C3881	C388	0.042570	0.830630	0.820430
C3891	C389	0.987020	0.806780	0.807980
C3901	C390	0.164810	0.173100	0.027880
C3911	C391	0.109700	0.191450	0.001150
C3921	C392	0.075580	0.239540	0.000300
C3931	C393	0.094070	0.268920	0.024740
C3941	C394	0.146780	0.250830	0.052210
C3951	C395	0.182140	0.203620	0.053700
C3961	C396	0.086810	0.162810	0.972770
C3971	C397	0.143300	0.051590	0.934810
C3981	C398	0.136400	0.020530	0.901070
C3991	C399	0.215600	0.009010	0.859790
C4001	C400	0.226720	0.050440	0.829520
C4011	C401	0.305010	0.040890	0.788690
C4021	C402	0.312100	0.082300	0.758300
C4031	C403	0.418580	0.416020	0.951020
C4041	C404	0.481250	0.376090	0.949410
C4051	C405	0.529110	0.355730	0.907450
C4061	C406	0.514020	0.379010	0.868950
C4071	C407	0.450230	0.418700	0.872640
C4081	C408	0.596610	0.310490	0.906290
N11	N1	0.156520	0.888940	0.397740
N21	N2	0.174700	0.921600	0.421180
N31	N3	0.204950	0.911670	0.295330
N41	N4	0.262530	0.930480	0.502520
N51	N5	0.195320	0.940640	0.543460
N61	N6	0.907570	0.969400	0.382040
N71	N7	0.960500	0.938170	0.405230
N81	N8	0.684970	0.913170	0.062490
N91	N9	0.943200	0.611060	0.102260
N101	N10	0.017480	0.578400	0.078820
N111	N11	0.911950	0.588330	0.204670
N121	N12	0.195530	0.569520	0.997480
N131	N13	0.179420	0.559360	0.956540
N141	N14	0.759010	0.530600	0.117960
N151	N15	0.803900	0.561830	0.094770
N161	N16	0.160630	0.586830	0.437510
N171	N17	0.554260	0.602260	0.388940
N181	N18	0.595880	0.578820	0.421600
N191	N19	0.500280	0.704670	0.411670
N201	N20	0.765050	0.497480	0.430480
N211	N21	0.738780	0.456540	0.440640
N221	N22	0.289610	0.617960	0.469400
N231	N23	0.365730	0.594770	0.438170
N241	N24	0.747460	0.937510	0.413170
N251	N25	0.045460	0.897740	0.111060
N261	N26	0.096300	0.921180	0.078400
N271	N27	0.116620	0.795330	0.088330
N281	N28	0.193010	0.002520	0.069520
N291	N29	0.135960	0.043460	0.059360
N301	N30	0.876970	0.882040	0.030600
N311	N31	0.898670	0.905230	0.061830
N321	N32	0.598140	0.562490	0.086830
N331	N33	0.843480	0.111060	0.602260
N341	N34	0.825300	0.078400	0.578820
N351	N35	0.795050	0.088330	0.704670
N361	N36	0.737470	0.069520	0.497480
N371	N37	0.804680	0.059360	0.456540
N381	N38	0.092430	0.030600	0.617960
N391	N39	0.039500	0.061830	0.594770
N401	N40	0.315030	0.086830	0.937510
N411	N41	0.056800	0.388940	0.897740
N421	N42	0.982520	0.421600	0.921180
N431	N43	0.088050	0.411670	0.795330
N441	N44	0.804470	0.430480	0.002520
N451	N45	0.820580	0.440640	0.043460
N461	N46	0.240990	0.469400	0.882040
N471	N47	0.196100	0.438170	0.905230
N481	N48	0.839370	0.413170	0.562490
N491	N49	0.445740	0.397740	0.611060
N501	N50	0.404120	0.421180	0.578400
N511	N51	0.499720	0.295330	0.588330
N521	N52	0.234950	0.502520	0.569520
N531	N53	0.261220	0.543460	0.559360
N541	N54	0.710390	0.382040	0.530600
N551	N55	0.634270	0.405230	0.561830
N561	N56	0.252540	0.062490	0.586830
N571	N57	0.954540	0.102260	0.888940
N581	N58	0.903700	0.078820	0.921600
N591	N59	0.883380	0.204670	0.911670
N601	N60	0.806990	0.997480	0.930480
N611	N61	0.864040	0.956540	0.940640
N621	N62	0.123030	0.117960	0.969400
N631	N63	0.101330	0.094770	0.938170
N641	N64	0.401860	0.437510	0.913170
O11	O1	0.083610	0.858920	0.343220
O21	O2	0.245980	0.834350	0.429410
O31	O3	0.104870	0.971840	0.375840
O41	O4	0.351270	0.893390	0.418590
O51	O5	0.311700	0.980290	0.531150
O61	O6	0.163950	0.882230	0.515450
O71	O7	0.766600	0.031100	0.371840
O81	O8	0.016860	0.951670	0.317430
O91	O9	0.845480	0.958780	0.466440
O101	O10	0.785750	0.641080	0.156780
O111	O11	0.009740	0.665650	0.070590
O121	O12	0.952550	0.528160	0.124160
O131	O13	0.163250	0.606610	0.081410
O141	O14	0.323140	0.519710	0.968850
O151	O15	0.061630	0.617770	0.984550
O161	O16	0.669540	0.468900	0.128160
O171	O17	0.785960	0.548330	0.182570
O181	O18	0.770700	0.541220	0.033560
O191	O19	0.426830	0.656780	0.358920
O201	O20	0.675390	0.570590	0.334350
O211	O21	0.480710	0.624160	0.471840
O221	O22	0.769860	0.581410	0.393390
O231	O23	0.842850	0.468850	0.480290
O241	O24	0.679400	0.484550	0.382230
O251	O25	0.138440	0.628160	0.531100
O261	O26	0.334290	0.682570	0.451670
O271	O27	0.311920	0.533560	0.458780
O281	O28	0.942530	0.843220	0.141080
O291	O29	0.080330	0.929410	0.165650
O301	O30	0.076710	0.875840	0.028160
O311	O31	0.244660	0.918590	0.106610
O321	O32	0.291990	0.031150	0.019710
O331	O33	0.046180	0.015450	0.117770
O341	O34	0.797700	0.871840	0.968900
O351	O35	0.968530	0.817430	0.048330
O361	O36	0.804260	0.966440	0.041220
O371	O37	0.916390	0.141080	0.656780
O381	O38	0.754020	0.165650	0.570590
O391	O39	0.895130	0.028160	0.624160
O401	O40	0.648730	0.106610	0.581410
O411	O41	0.688300	0.019710	0.468850
O421	O42	0.836050	0.117770	0.484550
O431	O43	0.233400	0.968900	0.628160
O441	O44	0.983140	0.048330	0.682570
O451	O45	0.154520	0.041220	0.533560
O461	O46	0.214250	0.358920	0.843220
O471	O47	0.990260	0.334350	0.929410
O481	O48	0.047450	0.471840	0.875840
O491	O49	0.836750	0.393390	0.918590
O501	O50	0.676860	0.480290	0.031150
O511	O51	0.938370	0.382230	0.015450
O521	O52	0.330460	0.531100	0.871840
O531	O53	0.214040	0.451670	0.817430
O541	O54	0.229300	0.458780	0.966440
O551	O55	0.573170	0.343220	0.641080
O561	O56	0.324610	0.429410	0.665650
O571	O57	0.519290	0.375840	0.528160
O581	O58	0.230140	0.418590	0.606610
O591	O59	0.157150	0.531150	0.519710
O601	O60	0.320600	0.515450	0.617770
O611	O61	0.861560	0.371840	0.468900
O621	O62	0.665710	0.317430	0.548330
O631	O63	0.688080	0.466440	0.541220
O641	O64	0.057470	0.156780	0.858920
O651	O65	0.919670	0.070590	0.834350
O661	O66	0.923290	0.124160	0.971840
O671	O67	0.755340	0.081410	0.893390
O681	O68	0.708010	0.968850	0.980290
O691	O69	0.953820	0.984550	0.882230
O701	O70	0.202300	0.128160	0.031100
O711	O71	0.031470	0.182570	0.951670
O721	O72	0.195740	0.033560	0.958780
