data_XAKZIT_clean_PM
_symmetry_space_group_name_H-M	'P1'
_cell_length_a	39.916000
_cell_length_b	39.916000
_cell_length_c	18.033000
_cell_angle_alpha	90.000000
_cell_angle_beta	90.000000
_cell_angle_gamma	90.000000
_symmetry_Int_Tables_number 1

loop_
_symmetry_equiv_pos_as_xyz
'x,y,z'

loop_
_atom_site_label
_atom_site_type_symbol
_atom_site_fract_x
_atom_site_fract_y
_atom_site_fract_z
Mn11	Mn1	0.074000	0.042480	0.168390
O11	O1	0.096740	0.013460	0.231500
O21	O2	0.997430	0.020020	0.315120
O31	O3	0.043810	0.069940	0.109840
N11	N1	0.032600	0.034470	0.220910
N21	N2	0.003950	0.050850	0.190560
C11	C1	0.086000	0.998970	0.292900
C21	C2	0.110170	0.979400	0.331000
H11	H1	0.131500	0.975200	0.309500
C31	C3	0.102070	0.966600	0.400500
H21	H2	0.118100	0.953400	0.426400
C41	C4	0.070910	0.972600	0.432700
H31	H3	0.066500	0.965600	0.482100
C51	C5	0.046910	0.988600	0.392300
H41	H4	0.024800	0.990100	0.411700
C61	C6	0.053910	0.002930	0.323200
C71	C7	0.026490	0.019750	0.285000
C81	C8	0.012990	0.068510	0.133480
C91	C9	0.987180	0.089060	0.093600
H51	H5	0.977800	0.076000	0.052500
H61	H6	0.997600	0.109500	0.074200
H71	H7	0.969200	0.095100	0.128100
Mn21	Mn2	0.958490	0.032590	0.253080
O41	O4	0.950010	0.074450	0.294410
O51	O5	0.885370	0.066360	0.108370
O61	O6	0.960520	0.989950	0.202170
N31	N3	0.922540	0.038790	0.181940
N41	N4	0.917110	0.011320	0.134870
N51	N5	0.926620	0.007000	0.340500
C101	C10	0.927320	0.097650	0.276400
C111	C11	0.925290	0.125660	0.322200
H81	H8	0.939700	0.127400	0.363800
C121	C12	0.902360	0.151110	0.307700
H91	H9	0.901100	0.169900	0.339900
C131	C13	0.881390	0.149170	0.246800
H101	H10	0.866200	0.166800	0.236200
C141	C14	0.882850	0.121380	0.201700
H111	H11	0.868200	0.119800	0.160400
C151	C15	0.905590	0.095210	0.215500
C161	C16	0.904360	0.065630	0.165950
C171	C17	0.937730	0.987110	0.151100
C181	C18	0.934970	0.954900	0.110500
H121	H12	0.950000	0.955200	0.067600
H131	H13	0.911800	0.951800	0.093600
H141	H14	0.941200	0.936400	0.143500
C191	C19	0.938280	0.977700	0.371100
H151	H15	0.959900	0.969700	0.358300
C201	C20	0.918600	0.959600	0.420700
H161	H16	0.926700	0.939300	0.441600
C211	C21	0.896220	0.012200	0.352200
H171	H17	0.886200	0.030300	0.326300
C221	C22	0.875830	0.994000	0.399600
H181	H18	0.852600	0.999100	0.401300
C231	C23	0.886610	0.971600	0.439500
C241	C24	0.864400	0.954500	0.495700
H191	H19	0.849200	0.971500	0.517200
H201	H20	0.850300	0.938000	0.469200
Mn31	Mn3	0.112260	0.971750	0.964030
O71	O7	0.151730	0.991730	0.934700
O81	O8	0.114840	0.052240	0.111600
O91	O9	0.069820	0.957270	0.004420
N61	N6	0.104870	0.006770	0.037330
N71	N7	0.073860	0.004340	0.075400
N81	N8	0.811900	0.889550	0.705310
C251	C25	0.168400	0.016900	0.965700
C261	C26	0.200540	0.023980	0.937000
H211	H21	0.208900	0.010800	0.897300
C271	C27	0.220100	0.049510	0.965200
H221	H22	0.241500	0.054000	0.944200
C281	C28	0.208530	0.068870	0.024800
H231	H23	0.221900	0.086300	0.044800
C291	C29	0.177870	0.062220	0.053100
H241	H24	0.170100	0.075200	0.093700
C301	C30	0.157260	0.036970	0.025000
C311	C31	0.123870	0.032100	0.059900
C321	C32	0.057820	0.978020	0.053400
C331	C33	0.023390	0.971140	0.082500
H251	H25	0.024000	0.951300	0.114400
H261	H26	0.015600	0.990500	0.111300
H271	H27	0.008100	0.967200	0.040900
C341	C34	0.826410	0.918480	0.722500
H281	H28	0.821400	0.928300	0.769300
C351	C35	0.848280	0.935060	0.676500
H291	H29	0.857800	0.955800	0.691100
C361	C36	0.818650	0.877140	0.638200
H301	H30	0.807800	0.857000	0.623600
C371	C37	0.840600	0.891900	0.588400
H311	H31	0.844700	0.882000	0.541400
C381	C38	0.856210	0.921020	0.608100
C391	C39	0.880600	0.937800	0.554500
H321	H32	0.894500	0.954200	0.582200
H331	H33	0.895900	0.920600	0.533800
Mn41	Mn4	0.574000	0.542480	0.668390
O101	O10	0.596740	0.513460	0.731500
O111	O11	0.497430	0.520020	0.815120
O121	O12	0.543810	0.569940	0.609840
N91	N9	0.532600	0.534470	0.720910
N101	N10	0.503950	0.550850	0.690560
C401	C40	0.586000	0.498970	0.792900
C411	C41	0.610170	0.479400	0.831000
H341	H34	0.631500	0.475200	0.809500
C421	C42	0.602070	0.466600	0.900500
H351	H35	0.618100	0.453400	0.926400
C431	C43	0.570910	0.472600	0.932700
H361	H36	0.566500	0.465600	0.982100
C441	C44	0.546910	0.488600	0.892300
H371	H37	0.524800	0.490100	0.911700
C451	C45	0.553910	0.502930	0.823200
C461	C46	0.526490	0.519750	0.785000
C471	C47	0.512990	0.568510	0.633480
C481	C48	0.487180	0.589060	0.593600
H381	H38	0.477800	0.576000	0.552500
H391	H39	0.497600	0.609500	0.574200
H401	H40	0.469200	0.595100	0.628100
Mn51	Mn5	0.458490	0.532590	0.753080
O131	O13	0.450010	0.574450	0.794410
O141	O14	0.385370	0.566360	0.608370
O151	O15	0.460520	0.489950	0.702170
N111	N11	0.422540	0.538790	0.681940
N121	N12	0.417110	0.511320	0.634870
N131	N13	0.426620	0.507000	0.840500
C491	C49	0.427320	0.597650	0.776400
C501	C50	0.425290	0.625660	0.822200
H411	H41	0.439700	0.627400	0.863800
C511	C51	0.402360	0.651110	0.807700
H421	H42	0.401100	0.669900	0.839900
C521	C52	0.381390	0.649170	0.746800
H431	H43	0.366200	0.666800	0.736200
C531	C53	0.382850	0.621380	0.701700
H441	H44	0.368200	0.619800	0.660400
C541	C54	0.405590	0.595210	0.715500
C551	C55	0.404360	0.565630	0.665950
C561	C56	0.437730	0.487110	0.651100
C571	C57	0.434970	0.454900	0.610500
H451	H45	0.450000	0.455200	0.567600
H461	H46	0.411800	0.451800	0.593600
H471	H47	0.441200	0.436400	0.643500
C581	C58	0.438280	0.477700	0.871100
H481	H48	0.459900	0.469700	0.858300
C591	C59	0.418600	0.459600	0.920700
H491	H49	0.426700	0.439300	0.941600
C601	C60	0.396220	0.512200	0.852200
H501	H50	0.386200	0.530300	0.826300
C611	C61	0.375830	0.494000	0.899600
H511	H51	0.352600	0.499100	0.901300
C621	C62	0.386610	0.471600	0.939500
C631	C63	0.364400	0.454500	0.995700
H521	H52	0.349200	0.471500	0.017200
H531	H53	0.350300	0.438000	0.969200
Mn61	Mn6	0.612260	0.471750	0.464030
O161	O16	0.651730	0.491730	0.434700
O171	O17	0.614840	0.552240	0.611600
O181	O18	0.569820	0.457270	0.504420
N141	N14	0.604870	0.506770	0.537330
N151	N15	0.573860	0.504340	0.575400
N161	N16	0.311900	0.389550	0.205310
C641	C64	0.668400	0.516900	0.465700
C651	C65	0.700540	0.523980	0.437000
H541	H54	0.708900	0.510800	0.397300
C661	C66	0.720100	0.549510	0.465200
H551	H55	0.741500	0.554000	0.444200
C671	C67	0.708530	0.568870	0.524800
H561	H56	0.721900	0.586300	0.544800
C681	C68	0.677870	0.562220	0.553100
H571	H57	0.670100	0.575200	0.593700
C691	C69	0.657260	0.536970	0.525000
C701	C70	0.623870	0.532100	0.559900
C711	C71	0.557820	0.478020	0.553400
C721	C72	0.523390	0.471140	0.582500
H581	H58	0.524000	0.451300	0.614400
H591	H59	0.515600	0.490500	0.611300
H601	H60	0.508100	0.467200	0.540900
C731	C73	0.326410	0.418480	0.222500
H611	H61	0.321400	0.428300	0.269300
C741	C74	0.348280	0.435060	0.176500
H621	H62	0.357800	0.455800	0.191100
C751	C75	0.318650	0.377140	0.138200
H631	H63	0.307800	0.357000	0.123600
C761	C76	0.340600	0.391900	0.088400
H641	H64	0.344700	0.382000	0.041400
C771	C77	0.356210	0.421020	0.108100
C781	C78	0.380600	0.437800	0.054500
H651	H65	0.394500	0.454200	0.082200
H661	H66	0.395900	0.420600	0.033800
Mn71	Mn7	0.426000	0.957520	0.668390
O191	O19	0.403260	0.986540	0.731500
O201	O20	0.502570	0.979980	0.815120
O211	O21	0.456190	0.930060	0.609840
N171	N17	0.467400	0.965530	0.720910
N181	N18	0.496050	0.949150	0.690560
C791	C79	0.414000	0.001030	0.792900
C801	C80	0.389830	0.020600	0.831000
H671	H67	0.368500	0.024800	0.809500
C811	C81	0.397930	0.033400	0.900500
H681	H68	0.381900	0.046600	0.926400
C821	C82	0.429090	0.027400	0.932700
H691	H69	0.433500	0.034400	0.982100
C831	C83	0.453090	0.011400	0.892300
H701	H70	0.475200	0.009900	0.911700
C841	C84	0.446090	0.997070	0.823200
C851	C85	0.473510	0.980250	0.785000
C861	C86	0.487010	0.931490	0.633480
C871	C87	0.512820	0.910940	0.593600
H711	H71	0.522200	0.924000	0.552500
H721	H72	0.502400	0.890500	0.574200
H731	H73	0.530800	0.904900	0.628100
Mn81	Mn8	0.541510	0.967410	0.753080
O221	O22	0.549990	0.925550	0.794410
O231	O23	0.614630	0.933640	0.608370
O241	O24	0.539480	0.010050	0.702170
N191	N19	0.577460	0.961210	0.681940
N201	N20	0.582890	0.988680	0.634870
N211	N21	0.573380	0.993000	0.840500
C881	C88	0.572680	0.902350	0.776400
C891	C89	0.574710	0.874340	0.822200
H741	H74	0.560300	0.872600	0.863800
C901	C90	0.597640	0.848890	0.807700
H751	H75	0.598900	0.830100	0.839900
C911	C91	0.618610	0.850830	0.746800
H761	H76	0.633800	0.833200	0.736200
C921	C92	0.617150	0.878620	0.701700
H771	H77	0.631800	0.880200	0.660400
C931	C93	0.594410	0.904790	0.715500
C941	C94	0.595640	0.934370	0.665950
C951	C95	0.562270	0.012890	0.651100
C961	C96	0.565030	0.045100	0.610500
H781	H78	0.550000	0.044800	0.567600
H791	H79	0.588200	0.048200	0.593600
H801	H80	0.558800	0.063600	0.643500
C971	C97	0.561720	0.022300	0.871100
H811	H81	0.540100	0.030300	0.858300
C981	C98	0.581400	0.040400	0.920700
H821	H82	0.573300	0.060700	0.941600
C991	C99	0.603780	0.987800	0.852200
H831	H83	0.613800	0.969700	0.826300
C1001	C100	0.624170	0.006000	0.899600
H841	H84	0.647400	0.000900	0.901300
C1011	C101	0.613390	0.028400	0.939500
C1021	C102	0.635600	0.045500	0.995700
H851	H85	0.650800	0.028500	0.017200
H861	H86	0.649700	0.062000	0.969200
Mn91	Mn9	0.387740	0.028250	0.464030
O251	O25	0.348270	0.008270	0.434700
O261	O26	0.385160	0.947760	0.611600
O271	O27	0.430180	0.042730	0.504420
N221	N22	0.395130	0.993230	0.537330
N231	N23	0.426140	0.995660	0.575400
N241	N24	0.688100	0.110450	0.205310
C1031	C103	0.331600	0.983100	0.465700
C1041	C104	0.299460	0.976020	0.437000
H871	H87	0.291100	0.989200	0.397300
C1051	C105	0.279900	0.950490	0.465200
H881	H88	0.258500	0.946000	0.444200
C1061	C106	0.291470	0.931130	0.524800
H891	H89	0.278100	0.913700	0.544800
C1071	C107	0.322130	0.937780	0.553100
H901	H90	0.329900	0.924800	0.593700
C1081	C108	0.342740	0.963030	0.525000
C1091	C109	0.376130	0.967900	0.559900
C1101	C110	0.442180	0.021980	0.553400
C1111	C111	0.476610	0.028860	0.582500
H911	H91	0.476000	0.048700	0.614400
H921	H92	0.484400	0.009500	0.611300
H931	H93	0.491900	0.032800	0.540900
C1121	C112	0.673590	0.081520	0.222500
H941	H94	0.678600	0.071700	0.269300
C1131	C113	0.651720	0.064940	0.176500
H951	H95	0.642200	0.044200	0.191100
C1141	C114	0.681350	0.122860	0.138200
H961	H96	0.692200	0.143000	0.123600
C1151	C115	0.659400	0.108100	0.088400
H971	H97	0.655300	0.118000	0.041400
C1161	C116	0.643790	0.078980	0.108100
C1171	C117	0.619400	0.062200	0.054500
H981	H98	0.605500	0.045800	0.082200
H991	H99	0.604100	0.079400	0.033800
Mn101	Mn10	0.926000	0.457520	0.168390
O281	O28	0.903260	0.486540	0.231500
O291	O29	0.002570	0.479980	0.315120
O301	O30	0.956190	0.430060	0.109840
N251	N25	0.967400	0.465530	0.220910
N261	N26	0.996050	0.449150	0.190560
C1181	C118	0.914000	0.501030	0.292900
C1191	C119	0.889830	0.520600	0.331000
H1001	H100	0.868500	0.524800	0.309500
C1201	C120	0.897930	0.533400	0.400500
H1011	H101	0.881900	0.546600	0.426400
C1211	C121	0.929090	0.527400	0.432700
H1021	H102	0.933500	0.534400	0.482100
C1221	C122	0.953090	0.511400	0.392300
H1031	H103	0.975200	0.509900	0.411700
C1231	C123	0.946090	0.497070	0.323200
C1241	C124	0.973510	0.480250	0.285000
C1251	C125	0.987010	0.431490	0.133480
C1261	C126	0.012820	0.410940	0.093600
H1041	H104	0.022200	0.424000	0.052500
H1051	H105	0.002400	0.390500	0.074200
H1061	H106	0.030800	0.404900	0.128100
Mn111	Mn11	0.041510	0.467410	0.253080
O311	O31	0.049990	0.425550	0.294410
O321	O32	0.114630	0.433640	0.108370
O331	O33	0.039480	0.510050	0.202170
N271	N27	0.077460	0.461210	0.181940
N281	N28	0.082890	0.488680	0.134870
N291	N29	0.073380	0.493000	0.340500
C1271	C127	0.072680	0.402350	0.276400
C1281	C128	0.074710	0.374340	0.322200
H1071	H107	0.060300	0.372600	0.363800
C1291	C129	0.097640	0.348890	0.307700
H1081	H108	0.098900	0.330100	0.339900
C1301	C130	0.118610	0.350830	0.246800
H1091	H109	0.133800	0.333200	0.236200
C1311	C131	0.117150	0.378620	0.201700
H1101	H110	0.131800	0.380200	0.160400
C1321	C132	0.094410	0.404790	0.215500
C1331	C133	0.095640	0.434370	0.165950
C1341	C134	0.062270	0.512890	0.151100
C1351	C135	0.065030	0.545100	0.110500
H1111	H111	0.050000	0.544800	0.067600
H1121	H112	0.088200	0.548200	0.093600
H1131	H113	0.058800	0.563600	0.143500
C1361	C136	0.061720	0.522300	0.371100
H1141	H114	0.040100	0.530300	0.358300
C1371	C137	0.081400	0.540400	0.420700
H1151	H115	0.073300	0.560700	0.441600
C1381	C138	0.103780	0.487800	0.352200
H1161	H116	0.113800	0.469700	0.326300
C1391	C139	0.124170	0.506000	0.399600
H1171	H117	0.147400	0.500900	0.401300
C1401	C140	0.113390	0.528400	0.439500
C1411	C141	0.135600	0.545500	0.495700
H1181	H118	0.150800	0.528500	0.517200
H1191	H119	0.149700	0.562000	0.469200
Mn121	Mn12	0.887740	0.528250	0.964030
O341	O34	0.848270	0.508270	0.934700
O351	O35	0.885160	0.447760	0.111600
O361	O36	0.930180	0.542730	0.004420
N301	N30	0.895130	0.493230	0.037330
N311	N31	0.926140	0.495660	0.075400
N321	N32	0.188100	0.610450	0.705310
C1421	C142	0.831600	0.483100	0.965700
C1431	C143	0.799460	0.476020	0.937000
H1201	H120	0.791100	0.489200	0.897300
C1441	C144	0.779900	0.450490	0.965200
H1211	H121	0.758500	0.446000	0.944200
C1451	C145	0.791470	0.431130	0.024800
H1221	H122	0.778100	0.413700	0.044800
C1461	C146	0.822130	0.437780	0.053100
H1231	H123	0.829900	0.424800	0.093700
C1471	C147	0.842740	0.463030	0.025000
C1481	C148	0.876130	0.467900	0.059900
C1491	C149	0.942180	0.521980	0.053400
C1501	C150	0.976610	0.528860	0.082500
H1241	H124	0.976000	0.548700	0.114400
H1251	H125	0.984400	0.509500	0.111300
H1261	H126	0.991900	0.532800	0.040900
C1511	C151	0.173590	0.581520	0.722500
H1271	H127	0.178600	0.571700	0.769300
C1521	C152	0.151720	0.564940	0.676500
H1281	H128	0.142200	0.544200	0.691100
C1531	C153	0.181350	0.622860	0.638200
H1291	H129	0.192200	0.643000	0.623600
C1541	C154	0.159400	0.608100	0.588400
H1301	H130	0.155300	0.618000	0.541400
C1551	C155	0.143790	0.578980	0.608100
C1561	C156	0.119400	0.562200	0.554500
H1311	H131	0.105500	0.545800	0.582200
H1321	H132	0.104100	0.579400	0.533800
Mn131	Mn13	0.707520	0.324000	0.418390
O371	O37	0.736540	0.346740	0.481500
O381	O38	0.729980	0.247430	0.565120
O391	O39	0.680060	0.293810	0.359840
N331	N33	0.715530	0.282600	0.470910
N341	N34	0.699150	0.253950	0.440560
C1571	C157	0.751030	0.336000	0.542900
C1581	C158	0.770600	0.360170	0.581000
H1331	H133	0.774800	0.381500	0.559500
C1591	C159	0.783400	0.352070	0.650500
H1341	H134	0.796600	0.368100	0.676400
C1601	C160	0.777400	0.320910	0.682700
H1351	H135	0.784400	0.316500	0.732100
C1611	C161	0.761400	0.296910	0.642300
H1361	H136	0.759900	0.274800	0.661700
C1621	C162	0.747070	0.303910	0.573200
C1631	C163	0.730250	0.276490	0.535000
C1641	C164	0.681490	0.262990	0.383480
C1651	C165	0.660940	0.237180	0.343600
H1371	H137	0.674000	0.227800	0.302500
H1381	H138	0.640500	0.247600	0.324200
H1391	H139	0.654900	0.219200	0.378100
Mn141	Mn14	0.717410	0.208490	0.503080
O401	O40	0.675550	0.200010	0.544410
O411	O41	0.683640	0.135370	0.358370
O421	O42	0.760050	0.210520	0.452170
N351	N35	0.711210	0.172540	0.431940
N361	N36	0.738680	0.167110	0.384870
N371	N37	0.743000	0.176620	0.590500
C1661	C166	0.652350	0.177320	0.526400
C1671	C167	0.624340	0.175290	0.572200
H1401	H140	0.622600	0.189700	0.613800
C1681	C168	0.598890	0.152360	0.557700
H1411	H141	0.580100	0.151100	0.589900
C1691	C169	0.600830	0.131390	0.496800
H1421	H142	0.583200	0.116200	0.486200
C1701	C170	0.628620	0.132850	0.451700
H1431	H143	0.630200	0.118200	0.410400
C1711	C171	0.654790	0.155590	0.465500
C1721	C172	0.684370	0.154360	0.415950
C1731	C173	0.762890	0.187730	0.401100
C1741	C174	0.795100	0.184970	0.360500
H1441	H144	0.794800	0.200000	0.317600
H1451	H145	0.798200	0.161800	0.343600
H1461	H146	0.813600	0.191200	0.393500
C1751	C175	0.772300	0.188280	0.621100
H1471	H147	0.780300	0.209900	0.608300
C1761	C176	0.790400	0.168600	0.670700
H1481	H148	0.810700	0.176700	0.691600
C1771	C177	0.737800	0.146220	0.602200
H1491	H149	0.719700	0.136200	0.576300
C1781	C178	0.756000	0.125830	0.649600
H1501	H150	0.750900	0.102600	0.651300
C1791	C179	0.778400	0.136610	0.689500
C1801	C180	0.795500	0.114400	0.745700
H1511	H151	0.778500	0.099200	0.767200
H1521	H152	0.812000	0.100300	0.719200
Mn151	Mn15	0.778250	0.362260	0.214030
O431	O43	0.758270	0.401730	0.184700
O441	O44	0.697760	0.364840	0.361600
O451	O45	0.792730	0.319820	0.254420
N381	N38	0.743230	0.354870	0.287330
N391	N39	0.745660	0.323860	0.325400
N401	N40	0.860450	0.061900	0.955310
C1811	C181	0.733100	0.418400	0.215700
C1821	C182	0.726020	0.450540	0.187000
H1531	H153	0.739200	0.458900	0.147300
C1831	C183	0.700490	0.470100	0.215200
H1541	H154	0.696000	0.491500	0.194200
C1841	C184	0.681130	0.458530	0.274800
H1551	H155	0.663700	0.471900	0.294800
C1851	C185	0.687780	0.427870	0.303100
H1561	H156	0.674800	0.420100	0.343700
C1861	C186	0.713030	0.407260	0.275000
C1871	C187	0.717900	0.373870	0.309900
C1881	C188	0.771980	0.307820	0.303400
C1891	C189	0.778860	0.273390	0.332500
H1571	H157	0.798700	0.274000	0.364400
H1581	H158	0.759500	0.265600	0.361300
H1591	H159	0.782800	0.258100	0.290900
C1901	C190	0.831520	0.076410	0.972500
H1601	H160	0.821700	0.071400	0.019300
C1911	C191	0.814940	0.098280	0.926500
H1611	H161	0.794200	0.107800	0.941100
C1921	C192	0.872860	0.068650	0.888200
H1621	H162	0.893000	0.057800	0.873600
C1931	C193	0.858100	0.090600	0.838400
H1631	H163	0.868000	0.094700	0.791400
C1941	C194	0.828980	0.106210	0.858100
C1951	C195	0.812200	0.130600	0.804500
H1641	H164	0.795800	0.144500	0.832200
H1651	H165	0.829400	0.145900	0.783800
Mn161	Mn16	0.207520	0.824000	0.918390
O461	O46	0.236540	0.846740	0.981500
O471	O47	0.229980	0.747430	0.065120
O481	O48	0.180060	0.793810	0.859840
N411	N41	0.215530	0.782600	0.970910
N421	N42	0.199150	0.753950	0.940560
C1961	C196	0.251030	0.836000	0.042900
C1971	C197	0.270600	0.860170	0.081000
H1661	H166	0.274800	0.881500	0.059500
C1981	C198	0.283400	0.852070	0.150500
H1671	H167	0.296600	0.868100	0.176400
C1991	C199	0.277400	0.820910	0.182700
H1681	H168	0.284400	0.816500	0.232100
C2001	C200	0.261400	0.796910	0.142300
H1691	H169	0.259900	0.774800	0.161700
C2011	C201	0.247070	0.803910	0.073200
C2021	C202	0.230250	0.776490	0.035000
C2031	C203	0.181490	0.762990	0.883480
C2041	C204	0.160940	0.737180	0.843600
H1701	H170	0.174000	0.727800	0.802500
H1711	H171	0.140500	0.747600	0.824200
H1721	H172	0.154900	0.719200	0.878100
Mn171	Mn17	0.217410	0.708490	0.003080
O491	O49	0.175550	0.700010	0.044410
O501	O50	0.183640	0.635370	0.858370
O511	O51	0.260050	0.710520	0.952170
N431	N43	0.211210	0.672540	0.931940
N441	N44	0.238680	0.667110	0.884870
N451	N45	0.243000	0.676620	0.090500
C2051	C205	0.152350	0.677320	0.026400
C2061	C206	0.124340	0.675290	0.072200
H1731	H173	0.122600	0.689700	0.113800
C2071	C207	0.098890	0.652360	0.057700
H1741	H174	0.080100	0.651100	0.089900
C2081	C208	0.100830	0.631390	0.996800
H1751	H175	0.083200	0.616200	0.986200
C2091	C209	0.128620	0.632850	0.951700
H1761	H176	0.130200	0.618200	0.910400
C2101	C210	0.154790	0.655590	0.965500
C2111	C211	0.184370	0.654360	0.915950
C2121	C212	0.262890	0.687730	0.901100
C2131	C213	0.295100	0.684970	0.860500
H1771	H177	0.294800	0.700000	0.817600
H1781	H178	0.298200	0.661800	0.843600
H1791	H179	0.313600	0.691200	0.893500
C2141	C214	0.272300	0.688280	0.121100
H1801	H180	0.280300	0.709900	0.108300
C2151	C215	0.290400	0.668600	0.170700
H1811	H181	0.310700	0.676700	0.191600
C2161	C216	0.237800	0.646220	0.102200
H1821	H182	0.219700	0.636200	0.076300
C2171	C217	0.256000	0.625830	0.149600
H1831	H183	0.250900	0.602600	0.151300
C2181	C218	0.278400	0.636610	0.189500
C2191	C219	0.295500	0.614400	0.245700
H1841	H184	0.278500	0.599200	0.267200
H1851	H185	0.312000	0.600300	0.219200
Mn181	Mn18	0.278250	0.862260	0.714030
O521	O52	0.258270	0.901730	0.684700
O531	O53	0.197760	0.864840	0.861600
O541	O54	0.292730	0.819820	0.754420
N461	N46	0.243230	0.854870	0.787330
N471	N47	0.245660	0.823860	0.825400
N481	N48	0.360450	0.561900	0.455310
C2201	C220	0.233100	0.918400	0.715700
C2211	C221	0.226020	0.950540	0.687000
H1861	H186	0.239200	0.958900	0.647300
C2221	C222	0.200490	0.970100	0.715200
H1871	H187	0.196000	0.991500	0.694200
C2231	C223	0.181130	0.958530	0.774800
H1881	H188	0.163700	0.971900	0.794800
C2241	C224	0.187780	0.927870	0.803100
H1891	H189	0.174800	0.920100	0.843700
C2251	C225	0.213030	0.907260	0.775000
C2261	C226	0.217900	0.873870	0.809900
C2271	C227	0.271980	0.807820	0.803400
C2281	C228	0.278860	0.773390	0.832500
H1901	H190	0.298700	0.774000	0.864400
H1911	H191	0.259500	0.765600	0.861300
H1921	H192	0.282800	0.758100	0.790900
C2291	C229	0.331520	0.576410	0.472500
H1931	H193	0.321700	0.571400	0.519300
C2301	C230	0.314940	0.598280	0.426500
H1941	H194	0.294200	0.607800	0.441100
C2311	C231	0.372860	0.568650	0.388200
H1951	H195	0.393000	0.557800	0.373600
C2321	C232	0.358100	0.590600	0.338400
H1961	H196	0.368000	0.594700	0.291400
C2331	C233	0.328980	0.606210	0.358100
C2341	C234	0.312200	0.630600	0.304500
H1971	H197	0.295800	0.644500	0.332200
H1981	H198	0.329400	0.645900	0.283800
Mn191	Mn19	0.792480	0.676000	0.918390
O551	O55	0.763460	0.653260	0.981500
O561	O56	0.770020	0.752570	0.065120
O571	O57	0.819940	0.706190	0.859840
N491	N49	0.784470	0.717400	0.970910
N501	N50	0.800850	0.746050	0.940560
C2351	C235	0.748970	0.664000	0.042900
C2361	C236	0.729400	0.639830	0.081000
H1991	H199	0.725200	0.618500	0.059500
C2371	C237	0.716600	0.647930	0.150500
H2001	H200	0.703400	0.631900	0.176400
C2381	C238	0.722600	0.679090	0.182700
H2011	H201	0.715600	0.683500	0.232100
C2391	C239	0.738600	0.703090	0.142300
H2021	H202	0.740100	0.725200	0.161700
C2401	C240	0.752930	0.696090	0.073200
C2411	C241	0.769750	0.723510	0.035000
C2421	C242	0.818510	0.737010	0.883480
C2431	C243	0.839060	0.762820	0.843600
H2031	H203	0.826000	0.772200	0.802500
H2041	H204	0.859500	0.752400	0.824200
H2051	H205	0.845100	0.780800	0.878100
Mn201	Mn20	0.782590	0.791510	0.003080
O581	O58	0.824450	0.799990	0.044410
O591	O59	0.816360	0.864630	0.858370
O601	O60	0.739950	0.789480	0.952170
N511	N51	0.788790	0.827460	0.931940
N521	N52	0.761320	0.832890	0.884870
N531	N53	0.757000	0.823380	0.090500
C2441	C244	0.847650	0.822680	0.026400
C2451	C245	0.875660	0.824710	0.072200
H2061	H206	0.877400	0.810300	0.113800
C2461	C246	0.901110	0.847640	0.057700
H2071	H207	0.919900	0.848900	0.089900
C2471	C247	0.899170	0.868610	0.996800
H2081	H208	0.916800	0.883800	0.986200
C2481	C248	0.871380	0.867150	0.951700
H2091	H209	0.869800	0.881800	0.910400
C2491	C249	0.845210	0.844410	0.965500
C2501	C250	0.815630	0.845640	0.915950
C2511	C251	0.737110	0.812270	0.901100
C2521	C252	0.704900	0.815030	0.860500
H2101	H210	0.705200	0.800000	0.817600
H2111	H211	0.701800	0.838200	0.843600
H2121	H212	0.686400	0.808800	0.893500
C2531	C253	0.727700	0.811720	0.121100
H2131	H213	0.719700	0.790100	0.108300
C2541	C254	0.709600	0.831400	0.170700
H2141	H214	0.689300	0.823300	0.191600
C2551	C255	0.762200	0.853780	0.102200
H2151	H215	0.780300	0.863800	0.076300
C2561	C256	0.744000	0.874170	0.149600
H2161	H216	0.749100	0.897400	0.151300
C2571	C257	0.721600	0.863390	0.189500
C2581	C258	0.704500	0.885600	0.245700
H2171	H217	0.721500	0.900800	0.267200
H2181	H218	0.688000	0.899700	0.219200
Mn211	Mn21	0.721750	0.637740	0.714030
O611	O61	0.741730	0.598270	0.684700
O621	O62	0.802240	0.635160	0.861600
O631	O63	0.707270	0.680180	0.754420
N541	N54	0.756770	0.645130	0.787330
N551	N55	0.754340	0.676140	0.825400
N561	N56	0.639550	0.938100	0.455310
C2591	C259	0.766900	0.581600	0.715700
C2601	C260	0.773980	0.549460	0.687000
H2191	H219	0.760800	0.541100	0.647300
C2611	C261	0.799510	0.529900	0.715200
H2201	H220	0.804000	0.508500	0.694200
C2621	C262	0.818870	0.541470	0.774800
H2211	H221	0.836300	0.528100	0.794800
C2631	C263	0.812220	0.572130	0.803100
H2221	H222	0.825200	0.579900	0.843700
C2641	C264	0.786970	0.592740	0.775000
C2651	C265	0.782100	0.626130	0.809900
C2661	C266	0.728020	0.692180	0.803400
C2671	C267	0.721140	0.726610	0.832500
H2231	H223	0.701300	0.726000	0.864400
H2241	H224	0.740500	0.734400	0.861300
H2251	H225	0.717200	0.741900	0.790900
C2681	C268	0.668480	0.923590	0.472500
H2261	H226	0.678300	0.928600	0.519300
C2691	C269	0.685060	0.901720	0.426500
H2271	H227	0.705800	0.892200	0.441100
C2701	C270	0.627140	0.931350	0.388200
H2281	H228	0.607000	0.942200	0.373600
C2711	C271	0.641900	0.909400	0.338400
H2291	H229	0.632000	0.905300	0.291400
C2721	C272	0.671020	0.893790	0.358100
C2731	C273	0.687800	0.869400	0.304500
H2301	H230	0.704200	0.855500	0.332200
H2311	H231	0.670600	0.854100	0.283800
Mn221	Mn22	0.292480	0.176000	0.418390
O641	O64	0.263460	0.153260	0.481500
O651	O65	0.270020	0.252570	0.565120
O661	O66	0.319940	0.206190	0.359840
N571	N57	0.284470	0.217400	0.470910
N581	N58	0.300850	0.246050	0.440560
C2741	C274	0.248970	0.164000	0.542900
C2751	C275	0.229400	0.139830	0.581000
H2321	H232	0.225200	0.118500	0.559500
C2761	C276	0.216600	0.147930	0.650500
H2331	H233	0.203400	0.131900	0.676400
C2771	C277	0.222600	0.179090	0.682700
H2341	H234	0.215600	0.183500	0.732100
C2781	C278	0.238600	0.203090	0.642300
H2351	H235	0.240100	0.225200	0.661700
C2791	C279	0.252930	0.196090	0.573200
C2801	C280	0.269750	0.223510	0.535000
C2811	C281	0.318510	0.237010	0.383480
C2821	C282	0.339060	0.262820	0.343600
H2361	H236	0.326000	0.272200	0.302500
H2371	H237	0.359500	0.252400	0.324200
H2381	H238	0.345100	0.280800	0.378100
Mn231	Mn23	0.282590	0.291510	0.503080
O671	O67	0.324450	0.299990	0.544410
O681	O68	0.316360	0.364630	0.358370
O691	O69	0.239950	0.289480	0.452170
N591	N59	0.288790	0.327460	0.431940
N601	N60	0.261320	0.332890	0.384870
N611	N61	0.257000	0.323380	0.590500
C2831	C283	0.347650	0.322680	0.526400
C2841	C284	0.375660	0.324710	0.572200
H2391	H239	0.377400	0.310300	0.613800
C2851	C285	0.401110	0.347640	0.557700
H2401	H240	0.419900	0.348900	0.589900
C2861	C286	0.399170	0.368610	0.496800
H2411	H241	0.416800	0.383800	0.486200
C2871	C287	0.371380	0.367150	0.451700
H2421	H242	0.369800	0.381800	0.410400
C2881	C288	0.345210	0.344410	0.465500
C2891	C289	0.315630	0.345640	0.415950
C2901	C290	0.237110	0.312270	0.401100
C2911	C291	0.204900	0.315030	0.360500
H2431	H243	0.205200	0.300000	0.317600
H2441	H244	0.201800	0.338200	0.343600
H2451	H245	0.186400	0.308800	0.393500
C2921	C292	0.227700	0.311720	0.621100
H2461	H246	0.219700	0.290100	0.608300
C2931	C293	0.209600	0.331400	0.670700
H2471	H247	0.189300	0.323300	0.691600
C2941	C294	0.262200	0.353780	0.602200
H2481	H248	0.280300	0.363800	0.576300
C2951	C295	0.244000	0.374170	0.649600
H2491	H249	0.249100	0.397400	0.651300
C2961	C296	0.221600	0.363390	0.689500
C2971	C297	0.204500	0.385600	0.745700
H2501	H250	0.221500	0.400800	0.767200
H2511	H251	0.188000	0.399700	0.719200
Mn241	Mn24	0.221750	0.137740	0.214030
O701	O70	0.241730	0.098270	0.184700
O711	O71	0.302240	0.135160	0.361600
O721	O72	0.207270	0.180180	0.254420
N621	N62	0.256770	0.145130	0.287330
N631	N63	0.254340	0.176140	0.325400
N641	N64	0.139550	0.438100	0.955310
C2981	C298	0.266900	0.081600	0.215700
C2991	C299	0.273980	0.049460	0.187000
H2521	H252	0.260800	0.041100	0.147300
C3001	C300	0.299510	0.029900	0.215200
H2531	H253	0.304000	0.008500	0.194200
C3011	C301	0.318870	0.041470	0.274800
H2541	H254	0.336300	0.028100	0.294800
C3021	C302	0.312220	0.072130	0.303100
H2551	H255	0.325200	0.079900	0.343700
C3031	C303	0.286970	0.092740	0.275000
C3041	C304	0.282100	0.126130	0.309900
C3051	C305	0.228020	0.192180	0.303400
C3061	C306	0.221140	0.226610	0.332500
H2561	H256	0.201300	0.226000	0.364400
H2571	H257	0.240500	0.234400	0.361300
H2581	H258	0.217200	0.241900	0.290900
C3071	C307	0.168480	0.423590	0.972500
H2591	H259	0.178300	0.428600	0.019300
C3081	C308	0.185060	0.401720	0.926500
H2601	H260	0.205800	0.392200	0.941100
C3091	C309	0.127140	0.431350	0.888200
H2611	H261	0.107000	0.442200	0.873600
C3101	C310	0.141900	0.409400	0.838400
H2621	H262	0.132000	0.405300	0.791400
C3111	C311	0.171020	0.393790	0.858100
C3121	C312	0.187800	0.369400	0.804500
H2631	H263	0.204200	0.355500	0.832200
H2641	H264	0.170600	0.354100	0.783800
Mn251	Mn25	0.926000	0.957520	0.831610
O731	O73	0.903260	0.986540	0.768500
O741	O74	0.002570	0.979980	0.684880
O751	O75	0.956190	0.930060	0.890160
N651	N65	0.967400	0.965530	0.779090
N661	N66	0.996050	0.949150	0.809440
C3131	C313	0.914000	0.001030	0.707100
C3141	C314	0.889830	0.020600	0.669000
H2651	H265	0.868500	0.024800	0.690500
C3151	C315	0.897930	0.033400	0.599500
H2661	H266	0.881900	0.046600	0.573600
C3161	C316	0.929090	0.027400	0.567300
H2671	H267	0.933500	0.034400	0.517900
C3171	C317	0.953090	0.011400	0.607700
H2681	H268	0.975200	0.009900	0.588300
C3181	C318	0.946090	0.997070	0.676800
C3191	C319	0.973510	0.980250	0.715000
C3201	C320	0.987010	0.931490	0.866520
C3211	C321	0.012820	0.910940	0.906400
H2691	H269	0.022200	0.924000	0.947500
H2701	H270	0.002400	0.890500	0.925800
H2711	H271	0.030800	0.904900	0.871900
Mn261	Mn26	0.041510	0.967410	0.746920
O761	O76	0.049990	0.925550	0.705590
O771	O77	0.114630	0.933640	0.891630
O781	O78	0.039480	0.010050	0.797830
N671	N67	0.077460	0.961210	0.818060
N681	N68	0.082890	0.988680	0.865130
N691	N69	0.073380	0.993000	0.659500
C3221	C322	0.072680	0.902350	0.723600
C3231	C323	0.074710	0.874340	0.677800
H2721	H272	0.060300	0.872600	0.636200
C3241	C324	0.097640	0.848890	0.692300
H2731	H273	0.098900	0.830100	0.660100
C3251	C325	0.118610	0.850830	0.753200
H2741	H274	0.133800	0.833200	0.763800
C3261	C326	0.117150	0.878620	0.798300
H2751	H275	0.131800	0.880200	0.839600
C3271	C327	0.094410	0.904790	0.784500
C3281	C328	0.095640	0.934370	0.834050
C3291	C329	0.062270	0.012890	0.848900
C3301	C330	0.065030	0.045100	0.889500
H2761	H276	0.050000	0.044800	0.932400
H2771	H277	0.088200	0.048200	0.906400
H2781	H278	0.058800	0.063600	0.856500
C3311	C331	0.061720	0.022300	0.628900
H2791	H279	0.040100	0.030300	0.641700
C3321	C332	0.081400	0.040400	0.579300
H2801	H280	0.073300	0.060700	0.558400
C3331	C333	0.103780	0.987800	0.647800
H2811	H281	0.113800	0.969700	0.673700
C3341	C334	0.124170	0.006000	0.600400
H2821	H282	0.147400	0.000900	0.598700
C3351	C335	0.113390	0.028400	0.560500
C3361	C336	0.135600	0.045500	0.504300
H2831	H283	0.150800	0.028500	0.482800
H2841	H284	0.149700	0.062000	0.530800
Mn271	Mn27	0.887740	0.028250	0.035970
O791	O79	0.848270	0.008270	0.065300
O801	O80	0.885160	0.947760	0.888400
O811	O81	0.930180	0.042730	0.995580
N701	N70	0.895130	0.993230	0.962670
N711	N71	0.926140	0.995660	0.924600
N721	N72	0.188100	0.110450	0.294690
C3371	C337	0.831600	0.983100	0.034300
C3381	C338	0.799460	0.976020	0.063000
H2851	H285	0.791100	0.989200	0.102700
C3391	C339	0.779900	0.950490	0.034800
H2861	H286	0.758500	0.946000	0.055800
C3401	C340	0.791470	0.931130	0.975200
H2871	H287	0.778100	0.913700	0.955200
C3411	C341	0.822130	0.937780	0.946900
H2881	H288	0.829900	0.924800	0.906300
C3421	C342	0.842740	0.963030	0.975000
C3431	C343	0.876130	0.967900	0.940100
C3441	C344	0.942180	0.021980	0.946600
C3451	C345	0.976610	0.028860	0.917500
H2891	H289	0.976000	0.048700	0.885600
H2901	H290	0.984400	0.009500	0.888700
H2911	H291	0.991900	0.032800	0.959100
C3461	C346	0.173590	0.081520	0.277500
H2921	H292	0.178600	0.071700	0.230700
C3471	C347	0.151720	0.064940	0.323500
H2931	H293	0.142200	0.044200	0.308900
C3481	C348	0.181350	0.122860	0.361800
H2941	H294	0.192200	0.143000	0.376400
C3491	C349	0.159400	0.108100	0.411600
H2951	H295	0.155300	0.118000	0.458600
C3501	C350	0.143790	0.078980	0.391900
C3511	C351	0.119400	0.062200	0.445500
H2961	H296	0.105500	0.045800	0.417800
H2971	H297	0.104100	0.079400	0.466200
Mn281	Mn28	0.426000	0.457520	0.331610
O821	O82	0.403260	0.486540	0.268500
O831	O83	0.502570	0.479980	0.184880
O841	O84	0.456190	0.430060	0.390160
N731	N73	0.467400	0.465530	0.279090
N741	N74	0.496050	0.449150	0.309440
C3521	C352	0.414000	0.501030	0.207100
C3531	C353	0.389830	0.520600	0.169000
H2981	H298	0.368500	0.524800	0.190500
C3541	C354	0.397930	0.533400	0.099500
H2991	H299	0.381900	0.546600	0.073600
C3551	C355	0.429090	0.527400	0.067300
H3001	H300	0.433500	0.534400	0.017900
C3561	C356	0.453090	0.511400	0.107700
H3011	H301	0.475200	0.509900	0.088300
C3571	C357	0.446090	0.497070	0.176800
C3581	C358	0.473510	0.480250	0.215000
C3591	C359	0.487010	0.431490	0.366520
C3601	C360	0.512820	0.410940	0.406400
H3021	H302	0.522200	0.424000	0.447500
H3031	H303	0.502400	0.390500	0.425800
H3041	H304	0.530800	0.404900	0.371900
Mn291	Mn29	0.541510	0.467410	0.246920
O851	O85	0.549990	0.425550	0.205590
O861	O86	0.614630	0.433640	0.391630
O871	O87	0.539480	0.510050	0.297830
N751	N75	0.577460	0.461210	0.318060
N761	N76	0.582890	0.488680	0.365130
N771	N77	0.573380	0.493000	0.159500
C3611	C361	0.572680	0.402350	0.223600
C3621	C362	0.574710	0.374340	0.177800
H3051	H305	0.560300	0.372600	0.136200
C3631	C363	0.597640	0.348890	0.192300
H3061	H306	0.598900	0.330100	0.160100
C3641	C364	0.618610	0.350830	0.253200
H3071	H307	0.633800	0.333200	0.263800
C3651	C365	0.617150	0.378620	0.298300
H3081	H308	0.631800	0.380200	0.339600
C3661	C366	0.594410	0.404790	0.284500
C3671	C367	0.595640	0.434370	0.334050
C3681	C368	0.562270	0.512890	0.348900
C3691	C369	0.565030	0.545100	0.389500
H3091	H309	0.550000	0.544800	0.432400
H3101	H310	0.588200	0.548200	0.406400
H3111	H311	0.558800	0.563600	0.356500
C3701	C370	0.561720	0.522300	0.128900
H3121	H312	0.540100	0.530300	0.141700
C3711	C371	0.581400	0.540400	0.079300
H3131	H313	0.573300	0.560700	0.058400
C3721	C372	0.603780	0.487800	0.147800
H3141	H314	0.613800	0.469700	0.173700
C3731	C373	0.624170	0.506000	0.100400
H3151	H315	0.647400	0.500900	0.098700
C3741	C374	0.613390	0.528400	0.060500
C3751	C375	0.635600	0.545500	0.004300
H3161	H316	0.650800	0.528500	0.982800
H3171	H317	0.649700	0.562000	0.030800
Mn301	Mn30	0.387740	0.528250	0.535970
O881	O88	0.348270	0.508270	0.565300
O891	O89	0.385160	0.447760	0.388400
O901	O90	0.430180	0.542730	0.495580
N781	N78	0.395130	0.493230	0.462670
N791	N79	0.426140	0.495660	0.424600
N801	N80	0.688100	0.610450	0.794690
C3761	C376	0.331600	0.483100	0.534300
C3771	C377	0.299460	0.476020	0.563000
H3181	H318	0.291100	0.489200	0.602700
C3781	C378	0.279900	0.450490	0.534800
H3191	H319	0.258500	0.446000	0.555800
C3791	C379	0.291470	0.431130	0.475200
H3201	H320	0.278100	0.413700	0.455200
C3801	C380	0.322130	0.437780	0.446900
H3211	H321	0.329900	0.424800	0.406300
C3811	C381	0.342740	0.463030	0.475000
C3821	C382	0.376130	0.467900	0.440100
C3831	C383	0.442180	0.521980	0.446600
C3841	C384	0.476610	0.528860	0.417500
H3221	H322	0.476000	0.548700	0.385600
H3231	H323	0.484400	0.509500	0.388700
H3241	H324	0.491900	0.532800	0.459100
C3851	C385	0.673590	0.581520	0.777500
H3251	H325	0.678600	0.571700	0.730700
C3861	C386	0.651720	0.564940	0.823500
H3261	H326	0.642200	0.544200	0.808900
C3871	C387	0.681350	0.622860	0.861800
H3271	H327	0.692200	0.643000	0.876400
C3881	C388	0.659400	0.608100	0.911600
H3281	H328	0.655300	0.618000	0.958600
C3891	C389	0.643790	0.578980	0.891900
C3901	C390	0.619400	0.562200	0.945500
H3291	H329	0.605500	0.545800	0.917800
H3301	H330	0.604100	0.579400	0.966200
Mn311	Mn31	0.574000	0.042480	0.331610
O911	O91	0.596740	0.013460	0.268500
O921	O92	0.497430	0.020020	0.184880
O931	O93	0.543810	0.069940	0.390160
N811	N81	0.532600	0.034470	0.279090
N821	N82	0.503950	0.050850	0.309440
C3911	C391	0.586000	0.998970	0.207100
C3921	C392	0.610170	0.979400	0.169000
H3311	H331	0.631500	0.975200	0.190500
C3931	C393	0.602070	0.966600	0.099500
H3321	H332	0.618100	0.953400	0.073600
C3941	C394	0.570910	0.972600	0.067300
H3331	H333	0.566500	0.965600	0.017900
C3951	C395	0.546910	0.988600	0.107700
H3341	H334	0.524800	0.990100	0.088300
C3961	C396	0.553910	0.002930	0.176800
C3971	C397	0.526490	0.019750	0.215000
C3981	C398	0.512990	0.068510	0.366520
C3991	C399	0.487180	0.089060	0.406400
H3351	H335	0.477800	0.076000	0.447500
H3361	H336	0.497600	0.109500	0.425800
H3371	H337	0.469200	0.095100	0.371900
Mn321	Mn32	0.458490	0.032590	0.246920
O941	O94	0.450010	0.074450	0.205590
O951	O95	0.385370	0.066360	0.391630
O961	O96	0.460520	0.989950	0.297830
N831	N83	0.422540	0.038790	0.318060
N841	N84	0.417110	0.011320	0.365130
N851	N85	0.426620	0.007000	0.159500
C4001	C400	0.427320	0.097650	0.223600
C4011	C401	0.425290	0.125660	0.177800
H3381	H338	0.439700	0.127400	0.136200
C4021	C402	0.402360	0.151110	0.192300
H3391	H339	0.401100	0.169900	0.160100
C4031	C403	0.381390	0.149170	0.253200
H3401	H340	0.366200	0.166800	0.263800
C4041	C404	0.382850	0.121380	0.298300
H3411	H341	0.368200	0.119800	0.339600
C4051	C405	0.405590	0.095210	0.284500
C4061	C406	0.404360	0.065630	0.334050
C4071	C407	0.437730	0.987110	0.348900
C4081	C408	0.434970	0.954900	0.389500
H3421	H342	0.450000	0.955200	0.432400
H3431	H343	0.411800	0.951800	0.406400
H3441	H344	0.441200	0.936400	0.356500
C4091	C409	0.438280	0.977700	0.128900
H3451	H345	0.459900	0.969700	0.141700
C4101	C410	0.418600	0.959600	0.079300
H3461	H346	0.426700	0.939300	0.058400
C4111	C411	0.396220	0.012200	0.147800
H3471	H347	0.386200	0.030300	0.173700
C4121	C412	0.375830	0.994000	0.100400
H3481	H348	0.352600	0.999100	0.098700
C4131	C413	0.386610	0.971600	0.060500
C4141	C414	0.364400	0.954500	0.004300
H3491	H349	0.349200	0.971500	0.982800
H3501	H350	0.350300	0.938000	0.030800
Mn331	Mn33	0.612260	0.971750	0.535970
O971	O97	0.651730	0.991730	0.565300
O981	O98	0.614840	0.052240	0.388400
O991	O99	0.569820	0.957270	0.495580
N861	N86	0.604870	0.006770	0.462670
N871	N87	0.573860	0.004340	0.424600
N881	N88	0.311900	0.889550	0.794690
C4151	C415	0.668400	0.016900	0.534300
C4161	C416	0.700540	0.023980	0.563000
H3511	H351	0.708900	0.010800	0.602700
C4171	C417	0.720100	0.049510	0.534800
H3521	H352	0.741500	0.054000	0.555800
C4181	C418	0.708530	0.068870	0.475200
H3531	H353	0.721900	0.086300	0.455200
C4191	C419	0.677870	0.062220	0.446900
H3541	H354	0.670100	0.075200	0.406300
C4201	C420	0.657260	0.036970	0.475000
C4211	C421	0.623870	0.032100	0.440100
C4221	C422	0.557820	0.978020	0.446600
C4231	C423	0.523390	0.971140	0.417500
H3551	H355	0.524000	0.951300	0.385600
H3561	H356	0.515600	0.990500	0.388700
H3571	H357	0.508100	0.967200	0.459100
C4241	C424	0.326410	0.918480	0.777500
H3581	H358	0.321400	0.928300	0.730700
C4251	C425	0.348280	0.935060	0.823500
H3591	H359	0.357800	0.955800	0.808900
C4261	C426	0.318650	0.877140	0.861800
H3601	H360	0.307800	0.857000	0.876400
C4271	C427	0.340600	0.891900	0.911600
H3611	H361	0.344700	0.882000	0.958600
C4281	C428	0.356210	0.921020	0.891900
C4291	C429	0.380600	0.937800	0.945500
H3621	H362	0.394500	0.954200	0.917800
H3631	H363	0.395900	0.920600	0.966200
Mn341	Mn34	0.074000	0.542480	0.831610
O1001	O100	0.096740	0.513460	0.768500
O1011	O101	0.997430	0.520020	0.684880
O1021	O102	0.043810	0.569940	0.890160
N891	N89	0.032600	0.534470	0.779090
N901	N90	0.003950	0.550850	0.809440
C4301	C430	0.086000	0.498970	0.707100
C4311	C431	0.110170	0.479400	0.669000
H3641	H364	0.131500	0.475200	0.690500
C4321	C432	0.102070	0.466600	0.599500
H3651	H365	0.118100	0.453400	0.573600
C4331	C433	0.070910	0.472600	0.567300
H3661	H366	0.066500	0.465600	0.517900
C4341	C434	0.046910	0.488600	0.607700
H3671	H367	0.024800	0.490100	0.588300
C4351	C435	0.053910	0.502930	0.676800
C4361	C436	0.026490	0.519750	0.715000
C4371	C437	0.012990	0.568510	0.866520
C4381	C438	0.987180	0.589060	0.906400
H3681	H368	0.977800	0.576000	0.947500
H3691	H369	0.997600	0.609500	0.925800
H3701	H370	0.969200	0.595100	0.871900
Mn351	Mn35	0.958490	0.532590	0.746920
O1031	O103	0.950010	0.574450	0.705590
O1041	O104	0.885370	0.566360	0.891630
O1051	O105	0.960520	0.489950	0.797830
N911	N91	0.922540	0.538790	0.818060
N921	N92	0.917110	0.511320	0.865130
N931	N93	0.926620	0.507000	0.659500
C4391	C439	0.927320	0.597650	0.723600
C4401	C440	0.925290	0.625660	0.677800
H3711	H371	0.939700	0.627400	0.636200
C4411	C441	0.902360	0.651110	0.692300
H3721	H372	0.901100	0.669900	0.660100
C4421	C442	0.881390	0.649170	0.753200
H3731	H373	0.866200	0.666800	0.763800
C4431	C443	0.882850	0.621380	0.798300
H3741	H374	0.868200	0.619800	0.839600
C4441	C444	0.905590	0.595210	0.784500
C4451	C445	0.904360	0.565630	0.834050
C4461	C446	0.937730	0.487110	0.848900
C4471	C447	0.934970	0.454900	0.889500
H3751	H375	0.950000	0.455200	0.932400
H3761	H376	0.911800	0.451800	0.906400
H3771	H377	0.941200	0.436400	0.856500
C4481	C448	0.938280	0.477700	0.628900
H3781	H378	0.959900	0.469700	0.641700
C4491	C449	0.918600	0.459600	0.579300
H3791	H379	0.926700	0.439300	0.558400
C4501	C450	0.896220	0.512200	0.647800
H3801	H380	0.886200	0.530300	0.673700
C4511	C451	0.875830	0.494000	0.600400
H3811	H381	0.852600	0.499100	0.598700
C4521	C452	0.886610	0.471600	0.560500
C4531	C453	0.864400	0.454500	0.504300
H3821	H382	0.849200	0.471500	0.482800
H3831	H383	0.850300	0.438000	0.530800
Mn361	Mn36	0.112260	0.471750	0.035970
O1061	O106	0.151730	0.491730	0.065300
O1071	O107	0.114840	0.552240	0.888400
O1081	O108	0.069820	0.457270	0.995580
N941	N94	0.104870	0.506770	0.962670
N951	N95	0.073860	0.504340	0.924600
N961	N96	0.811900	0.389550	0.294690
C4541	C454	0.168400	0.516900	0.034300
C4551	C455	0.200540	0.523980	0.063000
H3841	H384	0.208900	0.510800	0.102700
C4561	C456	0.220100	0.549510	0.034800
H3851	H385	0.241500	0.554000	0.055800
C4571	C457	0.208530	0.568870	0.975200
H3861	H386	0.221900	0.586300	0.955200
C4581	C458	0.177870	0.562220	0.946900
H3871	H387	0.170100	0.575200	0.906300
C4591	C459	0.157260	0.536970	0.975000
C4601	C460	0.123870	0.532100	0.940100
C4611	C461	0.057820	0.478020	0.946600
C4621	C462	0.023390	0.471140	0.917500
H3881	H388	0.024000	0.451300	0.885600
H3891	H389	0.015600	0.490500	0.888700
H3901	H390	0.008100	0.467200	0.959100
C4631	C463	0.826410	0.418480	0.277500
H3911	H391	0.821400	0.428300	0.230700
C4641	C464	0.848280	0.435060	0.323500
H3921	H392	0.857800	0.455800	0.308900
C4651	C465	0.818650	0.377140	0.361800
H3931	H393	0.807800	0.357000	0.376400
C4661	C466	0.840600	0.391900	0.411600
H3941	H394	0.844700	0.382000	0.458600
C4671	C467	0.856210	0.421020	0.391900
C4681	C468	0.880600	0.437800	0.445500
H3951	H395	0.894500	0.454200	0.417800
H3961	H396	0.895900	0.420600	0.466200
Mn371	Mn37	0.292480	0.676000	0.581610
O1091	O109	0.263460	0.653260	0.518500
O1101	O110	0.270020	0.752570	0.434880
O1111	O111	0.319940	0.706190	0.640160
N971	N97	0.284470	0.717400	0.529090
N981	N98	0.300850	0.746050	0.559440
C4691	C469	0.248970	0.664000	0.457100
C4701	C470	0.229400	0.639830	0.419000
H3971	H397	0.225200	0.618500	0.440500
C4711	C471	0.216600	0.647930	0.349500
H3981	H398	0.203400	0.631900	0.323600
C4721	C472	0.222600	0.679090	0.317300
H3991	H399	0.215600	0.683500	0.267900
C4731	C473	0.238600	0.703090	0.357700
H4001	H400	0.240100	0.725200	0.338300
C4741	C474	0.252930	0.696090	0.426800
C4751	C475	0.269750	0.723510	0.465000
C4761	C476	0.318510	0.737010	0.616520
C4771	C477	0.339060	0.762820	0.656400
H4011	H401	0.326000	0.772200	0.697500
H4021	H402	0.359500	0.752400	0.675800
H4031	H403	0.345100	0.780800	0.621900
Mn381	Mn38	0.282590	0.791510	0.496920
O1121	O112	0.324450	0.799990	0.455590
O1131	O113	0.316360	0.864630	0.641630
O1141	O114	0.239950	0.789480	0.547830
N991	N99	0.288790	0.827460	0.568060
N1001	N100	0.261320	0.832890	0.615130
N1011	N101	0.257000	0.823380	0.409500
C4781	C478	0.347650	0.822680	0.473600
C4791	C479	0.375660	0.824710	0.427800
H4041	H404	0.377400	0.810300	0.386200
C4801	C480	0.401110	0.847640	0.442300
H4051	H405	0.419900	0.848900	0.410100
C4811	C481	0.399170	0.868610	0.503200
H4061	H406	0.416800	0.883800	0.513800
C4821	C482	0.371380	0.867150	0.548300
H4071	H407	0.369800	0.881800	0.589600
C4831	C483	0.345210	0.844410	0.534500
C4841	C484	0.315630	0.845640	0.584050
C4851	C485	0.237110	0.812270	0.598900
C4861	C486	0.204900	0.815030	0.639500
H4081	H408	0.205200	0.800000	0.682400
H4091	H409	0.201800	0.838200	0.656400
H4101	H410	0.186400	0.808800	0.606500
C4871	C487	0.227700	0.811720	0.378900
H4111	H411	0.219700	0.790100	0.391700
C4881	C488	0.209600	0.831400	0.329300
H4121	H412	0.189300	0.823300	0.308400
C4891	C489	0.262200	0.853780	0.397800
H4131	H413	0.280300	0.863800	0.423700
C4901	C490	0.244000	0.874170	0.350400
H4141	H414	0.249100	0.897400	0.348700
C4911	C491	0.221600	0.863390	0.310500
C4921	C492	0.204500	0.885600	0.254300
H4151	H415	0.221500	0.900800	0.232800
H4161	H416	0.188000	0.899700	0.280800
Mn391	Mn39	0.221750	0.637740	0.785970
O1151	O115	0.241730	0.598270	0.815300
O1161	O116	0.302240	0.635160	0.638400
O1171	O117	0.207270	0.680180	0.745580
N1021	N102	0.256770	0.645130	0.712670
N1031	N103	0.254340	0.676140	0.674600
N1041	N104	0.139550	0.938100	0.044690
C4931	C493	0.266900	0.581600	0.784300
C4941	C494	0.273980	0.549460	0.813000
H4171	H417	0.260800	0.541100	0.852700
C4951	C495	0.299510	0.529900	0.784800
H4181	H418	0.304000	0.508500	0.805800
C4961	C496	0.318870	0.541470	0.725200
H4191	H419	0.336300	0.528100	0.705200
C4971	C497	0.312220	0.572130	0.696900
H4201	H420	0.325200	0.579900	0.656300
C4981	C498	0.286970	0.592740	0.725000
C4991	C499	0.282100	0.626130	0.690100
C5001	C500	0.228020	0.692180	0.696600
C5011	C501	0.221140	0.726610	0.667500
H4211	H421	0.201300	0.726000	0.635600
H4221	H422	0.240500	0.734400	0.638700
H4231	H423	0.217200	0.741900	0.709100
C5021	C502	0.168480	0.923590	0.027500
H4241	H424	0.178300	0.928600	0.980700
C5031	C503	0.185060	0.901720	0.073500
H4251	H425	0.205800	0.892200	0.058900
C5041	C504	0.127140	0.931350	0.111800
H4261	H426	0.107000	0.942200	0.126400
C5051	C505	0.141900	0.909400	0.161600
H4271	H427	0.132000	0.905300	0.208600
C5061	C506	0.171020	0.893790	0.141900
C5071	C507	0.187800	0.869400	0.195500
H4281	H428	0.204200	0.855500	0.167800
H4291	H429	0.170600	0.854100	0.216200
Mn401	Mn40	0.792480	0.176000	0.081610
O1181	O118	0.763460	0.153260	0.018500
O1191	O119	0.770020	0.252570	0.934880
O1201	O120	0.819940	0.206190	0.140160
N1051	N105	0.784470	0.217400	0.029090
N1061	N106	0.800850	0.246050	0.059440
C5081	C508	0.748970	0.164000	0.957100
C5091	C509	0.729400	0.139830	0.919000
H4301	H430	0.725200	0.118500	0.940500
C5101	C510	0.716600	0.147930	0.849500
H4311	H431	0.703400	0.131900	0.823600
C5111	C511	0.722600	0.179090	0.817300
H4321	H432	0.715600	0.183500	0.767900
C5121	C512	0.738600	0.203090	0.857700
H4331	H433	0.740100	0.225200	0.838300
C5131	C513	0.752930	0.196090	0.926800
C5141	C514	0.769750	0.223510	0.965000
C5151	C515	0.818510	0.237010	0.116520
C5161	C516	0.839060	0.262820	0.156400
H4341	H434	0.826000	0.272200	0.197500
H4351	H435	0.859500	0.252400	0.175800
H4361	H436	0.845100	0.280800	0.121900
Mn411	Mn41	0.782590	0.291510	0.996920
O1211	O121	0.824450	0.299990	0.955590
O1221	O122	0.816360	0.364630	0.141630
O1231	O123	0.739950	0.289480	0.047830
N1071	N107	0.788790	0.327460	0.068060
N1081	N108	0.761320	0.332890	0.115130
N1091	N109	0.757000	0.323380	0.909500
C5171	C517	0.847650	0.322680	0.973600
C5181	C518	0.875660	0.324710	0.927800
H4371	H437	0.877400	0.310300	0.886200
C5191	C519	0.901110	0.347640	0.942300
H4381	H438	0.919900	0.348900	0.910100
C5201	C520	0.899170	0.368610	0.003200
H4391	H439	0.916800	0.383800	0.013800
C5211	C521	0.871380	0.367150	0.048300
H4401	H440	0.869800	0.381800	0.089600
C5221	C522	0.845210	0.344410	0.034500
C5231	C523	0.815630	0.345640	0.084050
C5241	C524	0.737110	0.312270	0.098900
C5251	C525	0.704900	0.315030	0.139500
H4411	H441	0.705200	0.300000	0.182400
H4421	H442	0.701800	0.338200	0.156400
H4431	H443	0.686400	0.308800	0.106500
C5261	C526	0.727700	0.311720	0.878900
H4441	H444	0.719700	0.290100	0.891700
C5271	C527	0.709600	0.331400	0.829300
H4451	H445	0.689300	0.323300	0.808400
C5281	C528	0.762200	0.353780	0.897800
H4461	H446	0.780300	0.363800	0.923700
C5291	C529	0.744000	0.374170	0.850400
H4471	H447	0.749100	0.397400	0.848700
C5301	C530	0.721600	0.363390	0.810500
C5311	C531	0.704500	0.385600	0.754300
H4481	H448	0.721500	0.400800	0.732800
H4491	H449	0.688000	0.399700	0.780800
Mn421	Mn42	0.721750	0.137740	0.285970
O1241	O124	0.741730	0.098270	0.315300
O1251	O125	0.802240	0.135160	0.138400
O1261	O126	0.707270	0.180180	0.245580
N1101	N110	0.756770	0.145130	0.212670
N1111	N111	0.754340	0.176140	0.174600
N1121	N112	0.639550	0.438100	0.544690
C5321	C532	0.766900	0.081600	0.284300
C5331	C533	0.773980	0.049460	0.313000
H4501	H450	0.760800	0.041100	0.352700
C5341	C534	0.799510	0.029900	0.284800
H4511	H451	0.804000	0.008500	0.305800
C5351	C535	0.818870	0.041470	0.225200
H4521	H452	0.836300	0.028100	0.205200
C5361	C536	0.812220	0.072130	0.196900
H4531	H453	0.825200	0.079900	0.156300
C5371	C537	0.786970	0.092740	0.225000
C5381	C538	0.782100	0.126130	0.190100
C5391	C539	0.728020	0.192180	0.196600
C5401	C540	0.721140	0.226610	0.167500
H4541	H454	0.701300	0.226000	0.135600
H4551	H455	0.740500	0.234400	0.138700
H4561	H456	0.717200	0.241900	0.209100
C5411	C541	0.668480	0.423590	0.527500
H4571	H457	0.678300	0.428600	0.480700
C5421	C542	0.685060	0.401720	0.573500
H4581	H458	0.705800	0.392200	0.558900
C5431	C543	0.627140	0.431350	0.611800
H4591	H459	0.607000	0.442200	0.626400
C5441	C544	0.641900	0.409400	0.661600
H4601	H460	0.632000	0.405300	0.708600
C5451	C545	0.671020	0.393790	0.641900
C5461	C546	0.687800	0.369400	0.695500
H4611	H461	0.704200	0.355500	0.667800
H4621	H462	0.670600	0.354100	0.716200
Mn431	Mn43	0.207520	0.324000	0.081610
O1271	O127	0.236540	0.346740	0.018500
O1281	O128	0.229980	0.247430	0.934880
O1291	O129	0.180060	0.293810	0.140160
N1131	N113	0.215530	0.282600	0.029090
N1141	N114	0.199150	0.253950	0.059440
C5471	C547	0.251030	0.336000	0.957100
C5481	C548	0.270600	0.360170	0.919000
H4631	H463	0.274800	0.381500	0.940500
C5491	C549	0.283400	0.352070	0.849500
H4641	H464	0.296600	0.368100	0.823600
C5501	C550	0.277400	0.320910	0.817300
H4651	H465	0.284400	0.316500	0.767900
C5511	C551	0.261400	0.296910	0.857700
H4661	H466	0.259900	0.274800	0.838300
C5521	C552	0.247070	0.303910	0.926800
C5531	C553	0.230250	0.276490	0.965000
C5541	C554	0.181490	0.262990	0.116520
C5551	C555	0.160940	0.237180	0.156400
H4671	H467	0.174000	0.227800	0.197500
H4681	H468	0.140500	0.247600	0.175800
H4691	H469	0.154900	0.219200	0.121900
Mn441	Mn44	0.217410	0.208490	0.996920
O1301	O130	0.175550	0.200010	0.955590
O1311	O131	0.183640	0.135370	0.141630
O1321	O132	0.260050	0.210520	0.047830
N1151	N115	0.211210	0.172540	0.068060
N1161	N116	0.238680	0.167110	0.115130
N1171	N117	0.243000	0.176620	0.909500
C5561	C556	0.152350	0.177320	0.973600
C5571	C557	0.124340	0.175290	0.927800
H4701	H470	0.122600	0.189700	0.886200
C5581	C558	0.098890	0.152360	0.942300
H4711	H471	0.080100	0.151100	0.910100
C5591	C559	0.100830	0.131390	0.003200
H4721	H472	0.083200	0.116200	0.013800
C5601	C560	0.128620	0.132850	0.048300
H4731	H473	0.130200	0.118200	0.089600
C5611	C561	0.154790	0.155590	0.034500
C5621	C562	0.184370	0.154360	0.084050
C5631	C563	0.262890	0.187730	0.098900
C5641	C564	0.295100	0.184970	0.139500
H4741	H474	0.294800	0.200000	0.182400
H4751	H475	0.298200	0.161800	0.156400
H4761	H476	0.313600	0.191200	0.106500
C5651	C565	0.272300	0.188280	0.878900
H4771	H477	0.280300	0.209900	0.891700
C5661	C566	0.290400	0.168600	0.829300
H4781	H478	0.310700	0.176700	0.808400
C5671	C567	0.237800	0.146220	0.897800
H4791	H479	0.219700	0.136200	0.923700
C5681	C568	0.256000	0.125830	0.850400
H4801	H480	0.250900	0.102600	0.848700
C5691	C569	0.278400	0.136610	0.810500
C5701	C570	0.295500	0.114400	0.754300
H4811	H481	0.278500	0.099200	0.732800
H4821	H482	0.312000	0.100300	0.780800
Mn451	Mn45	0.278250	0.362260	0.285970
O1331	O133	0.258270	0.401730	0.315300
O1341	O134	0.197760	0.364840	0.138400
O1351	O135	0.292730	0.319820	0.245580
N1181	N118	0.243230	0.354870	0.212670
N1191	N119	0.245660	0.323860	0.174600
N1201	N120	0.360450	0.061900	0.544690
C5711	C571	0.233100	0.418400	0.284300
C5721	C572	0.226020	0.450540	0.313000
H4831	H483	0.239200	0.458900	0.352700
C5731	C573	0.200490	0.470100	0.284800
H4841	H484	0.196000	0.491500	0.305800
C5741	C574	0.181130	0.458530	0.225200
H4851	H485	0.163700	0.471900	0.205200
C5751	C575	0.187780	0.427870	0.196900
H4861	H486	0.174800	0.420100	0.156300
C5761	C576	0.213030	0.407260	0.225000
C5771	C577	0.217900	0.373870	0.190100
C5781	C578	0.271980	0.307820	0.196600
C5791	C579	0.278860	0.273390	0.167500
H4871	H487	0.298700	0.274000	0.135600
H4881	H488	0.259500	0.265600	0.138700
H4891	H489	0.282800	0.258100	0.209100
C5801	C580	0.331520	0.076410	0.527500
H4901	H490	0.321700	0.071400	0.480700
C5811	C581	0.314940	0.098280	0.573500
H4911	H491	0.294200	0.107800	0.558900
C5821	C582	0.372860	0.068650	0.611800
H4921	H492	0.393000	0.057800	0.626400
C5831	C583	0.358100	0.090600	0.661600
H4931	H493	0.368000	0.094700	0.708600
C5841	C584	0.328980	0.106210	0.641900
C5851	C585	0.312200	0.130600	0.695500
H4941	H494	0.295800	0.144500	0.667800
H4951	H495	0.329400	0.145900	0.716200
Mn461	Mn46	0.707520	0.824000	0.581610
O1361	O136	0.736540	0.846740	0.518500
O1371	O137	0.729980	0.747430	0.434880
O1381	O138	0.680060	0.793810	0.640160
N1211	N121	0.715530	0.782600	0.529090
N1221	N122	0.699150	0.753950	0.559440
C5861	C586	0.751030	0.836000	0.457100
C5871	C587	0.770600	0.860170	0.419000
H4961	H496	0.774800	0.881500	0.440500
C5881	C588	0.783400	0.852070	0.349500
H4971	H497	0.796600	0.868100	0.323600
C5891	C589	0.777400	0.820910	0.317300
H4981	H498	0.784400	0.816500	0.267900
C5901	C590	0.761400	0.796910	0.357700
H4991	H499	0.759900	0.774800	0.338300
C5911	C591	0.747070	0.803910	0.426800
C5921	C592	0.730250	0.776490	0.465000
C5931	C593	0.681490	0.762990	0.616520
C5941	C594	0.660940	0.737180	0.656400
H5001	H500	0.674000	0.727800	0.697500
H5011	H501	0.640500	0.747600	0.675800
H5021	H502	0.654900	0.719200	0.621900
Mn471	Mn47	0.717410	0.708490	0.496920
O1391	O139	0.675550	0.700010	0.455590
O1401	O140	0.683640	0.635370	0.641630
O1411	O141	0.760050	0.710520	0.547830
N1231	N123	0.711210	0.672540	0.568060
N1241	N124	0.738680	0.667110	0.615130
N1251	N125	0.743000	0.676620	0.409500
C5951	C595	0.652350	0.677320	0.473600
C5961	C596	0.624340	0.675290	0.427800
H5031	H503	0.622600	0.689700	0.386200
C5971	C597	0.598890	0.652360	0.442300
H5041	H504	0.580100	0.651100	0.410100
C5981	C598	0.600830	0.631390	0.503200
H5051	H505	0.583200	0.616200	0.513800
C5991	C599	0.628620	0.632850	0.548300
H5061	H506	0.630200	0.618200	0.589600
C6001	C600	0.654790	0.655590	0.534500
C6011	C601	0.684370	0.654360	0.584050
C6021	C602	0.762890	0.687730	0.598900
C6031	C603	0.795100	0.684970	0.639500
H5071	H507	0.794800	0.700000	0.682400
H5081	H508	0.798200	0.661800	0.656400
H5091	H509	0.813600	0.691200	0.606500
C6041	C604	0.772300	0.688280	0.378900
H5101	H510	0.780300	0.709900	0.391700
C6051	C605	0.790400	0.668600	0.329300
H5111	H511	0.810700	0.676700	0.308400
C6061	C606	0.737800	0.646220	0.397800
H5121	H512	0.719700	0.636200	0.423700
C6071	C607	0.756000	0.625830	0.350400
H5131	H513	0.750900	0.602600	0.348700
C6081	C608	0.778400	0.636610	0.310500
C6091	C609	0.795500	0.614400	0.254300
H5141	H514	0.778500	0.599200	0.232800
H5151	H515	0.812000	0.600300	0.280800
Mn481	Mn48	0.778250	0.862260	0.785970
O1421	O142	0.758270	0.901730	0.815300
O1431	O143	0.697760	0.864840	0.638400
O1441	O144	0.792730	0.819820	0.745580
N1261	N126	0.743230	0.854870	0.712670
N1271	N127	0.745660	0.823860	0.674600
N1281	N128	0.860450	0.561900	0.044690
C6101	C610	0.733100	0.918400	0.784300
C6111	C611	0.726020	0.950540	0.813000
H5161	H516	0.739200	0.958900	0.852700
C6121	C612	0.700490	0.970100	0.784800
H5171	H517	0.696000	0.991500	0.805800
C6131	C613	0.681130	0.958530	0.725200
H5181	H518	0.663700	0.971900	0.705200
C6141	C614	0.687780	0.927870	0.696900
H5191	H519	0.674800	0.920100	0.656300
C6151	C615	0.713030	0.907260	0.725000
C6161	C616	0.717900	0.873870	0.690100
C6171	C617	0.771980	0.807820	0.696600
C6181	C618	0.778860	0.773390	0.667500
H5201	H520	0.798700	0.774000	0.635600
H5211	H521	0.759500	0.765600	0.638700
H5221	H522	0.782800	0.758100	0.709100
C6191	C619	0.831520	0.576410	0.027500
H5231	H523	0.821700	0.571400	0.980700
C6201	C620	0.814940	0.598280	0.073500
H5241	H524	0.794200	0.607800	0.058900
C6211	C621	0.872860	0.568650	0.111800
H5251	H525	0.893000	0.557800	0.126400
C6221	C622	0.858100	0.590600	0.161600
H5261	H526	0.868000	0.594700	0.208600
C6231	C623	0.828980	0.606210	0.141900
C6241	C624	0.812200	0.630600	0.195500
H5271	H527	0.795800	0.644500	0.167800
H5281	H528	0.829400	0.645900	0.216200
