data_XALBIW_clean_PM
_symmetry_space_group_name_H-M	'P1'
_cell_length_a	17.564200
_cell_length_b	30.054100
_cell_length_c	30.054100
_cell_angle_alpha	85.101800
_cell_angle_beta	73.009700
_cell_angle_gamma	73.009700
_symmetry_Int_Tables_number 1

loop_
_symmetry_equiv_pos_as_xyz
'x,y,z'

loop_
_atom_site_label
_atom_site_type_symbol
_atom_site_fract_x
_atom_site_fract_y
_atom_site_fract_z
Mn11	Mn1	0.242510	0.878920	0.470380
Mn21	Mn2	0.206870	0.002690	0.576360
Mn31	Mn3	0.082630	0.914650	0.357010
Mn41	Mn4	0.091810	0.621080	0.029620
Mn51	Mn5	0.285930	0.497310	0.923640
Mn61	Mn6	0.854290	0.585350	0.142990
Mn71	Mn7	0.712890	0.529620	0.378920
Mn81	Mn8	0.783240	0.423640	0.502680
Mn91	Mn9	0.439640	0.642990	0.414650
Mn101	Mn10	0.121430	0.970380	0.121080
Mn111	Mn11	0.209560	0.076360	0.997320
Mn121	Mn12	0.997280	0.857010	0.085350
Mn131	Mn13	0.757490	0.121080	0.529620
Mn141	Mn14	0.793130	0.997310	0.423640
Mn151	Mn15	0.917370	0.085350	0.642990
Mn161	Mn16	0.908190	0.378920	0.970380
Mn171	Mn17	0.714070	0.502690	0.076360
Mn181	Mn18	0.145710	0.414650	0.857010
Mn191	Mn19	0.287110	0.470380	0.621080
Mn201	Mn20	0.216760	0.576360	0.497320
Mn211	Mn21	0.560360	0.357010	0.585350
Mn221	Mn22	0.878570	0.029620	0.878920
Mn231	Mn23	0.790440	0.923640	0.002680
Mn241	Mn24	0.002720	0.142990	0.914650
H11	H1	0.452600	0.886400	0.353000
H21	H2	0.549400	0.926200	0.342200
H31	H3	0.547800	0.972600	0.401800
H41	H4	0.437300	0.983100	0.471100
H51	H5	0.091200	0.922100	0.624700
H61	H6	0.030900	0.953800	0.596400
H71	H7	0.056200	0.856100	0.608300
H81	H8	0.976400	0.894500	0.637100
H91	H9	0.992900	0.889100	0.582300
H101	H10	0.296400	0.926700	0.690100
H111	H11	0.235400	0.926000	0.768200
H121	H12	0.095400	0.968600	0.800400
H131	H13	0.021400	0.012600	0.750800
H141	H14	0.021200	0.091300	0.502300
H151	H15	0.997300	0.129500	0.541700
H161	H16	0.150300	0.108500	0.469500
H171	H17	0.073500	0.153200	0.469600
H181	H18	0.122500	0.148400	0.507800
H191	H19	0.220800	0.067800	0.649400
H201	H20	0.267800	0.129300	0.658700
H211	H21	0.343900	0.137200	0.517800
H221	H22	0.303700	0.069700	0.514500
H231	H23	0.359900	0.178900	0.624300
H241	H24	0.296200	0.209000	0.597400
H251	H25	0.100200	0.782900	0.300500
H261	H26	0.178500	0.707700	0.310100
H271	H27	0.258500	0.692600	0.361600
H281	H28	0.260000	0.752700	0.404700
H291	H29	0.144900	0.990200	0.468600
H301	H30	0.077200	0.024700	0.445900
H311	H31	0.395900	0.337600	0.577800
H321	H32	0.341400	0.279800	0.567600
H331	H33	0.552300	0.185800	0.577000
H341	H34	0.601400	0.246700	0.587100
H351	H35	0.454900	0.158500	0.553500
H361	H36	0.391100	0.195200	0.530400
H371	H37	0.192000	0.613600	0.147000
H381	H38	0.317800	0.573800	0.157800
H391	H39	0.422200	0.527400	0.098200
H401	H40	0.391500	0.516900	0.028900
H411	H41	0.138000	0.577900	0.875300
H421	H42	0.081100	0.546200	0.903600
H431	H43	0.020600	0.643900	0.891700
H441	H44	0.008000	0.605500	0.862900
H451	H45	0.964300	0.610900	0.917700
H461	H46	0.413200	0.573300	0.809900
H471	H47	0.429600	0.574000	0.731800
H481	H48	0.364400	0.531400	0.699600
H491	H49	0.284800	0.487400	0.749200
H501	H50	0.114800	0.408700	0.997700
H511	H51	0.168500	0.370500	0.958300
H521	H52	0.228300	0.391500	0.030500
H531	H53	0.196300	0.346800	0.030400
H541	H54	0.278700	0.351600	0.992200
H551	H55	0.438000	0.432200	0.850600
H561	H56	0.555800	0.370700	0.841300
H571	H57	0.498900	0.362800	0.982200
H581	H58	0.387900	0.430300	0.985500
H591	H59	0.663100	0.321100	0.875700
H601	H60	0.602600	0.291000	0.902600
H611	H61	0.683600	0.717100	0.199500
H621	H62	0.696300	0.792300	0.189900
H631	H63	0.812700	0.807400	0.138400
H641	H64	0.917400	0.747300	0.095300
H651	H65	0.103700	0.509800	0.031400
H661	H66	0.047800	0.475300	0.054100
H671	H67	0.811300	0.162400	0.922200
H681	H68	0.688800	0.220200	0.932400
H691	H69	0.815100	0.314200	0.923000
H701	H70	0.935200	0.253300	0.912900
H711	H71	0.666900	0.341500	0.946500
H721	H72	0.616700	0.304800	0.969600
H731	H73	0.805600	0.647000	0.386400
H741	H74	0.891600	0.657800	0.426200
H751	H75	0.949600	0.598200	0.472600
H761	H76	0.908400	0.528900	0.483100
H771	H77	0.715900	0.375300	0.422100
H781	H78	0.627300	0.403600	0.453800
H791	H79	0.664500	0.391700	0.356100
H801	H80	0.613500	0.362900	0.394500
H811	H81	0.575200	0.417700	0.389100
H821	H82	0.986500	0.309900	0.426700
H831	H83	0.003600	0.231800	0.426000
H841	H84	0.895800	0.199600	0.468600
H851	H85	0.772200	0.249200	0.512600
H861	H86	0.523500	0.497700	0.591300
H871	H87	0.539000	0.458300	0.629500
H881	H88	0.619800	0.530500	0.608500
H891	H89	0.543100	0.530400	0.653200
H901	H90	0.630300	0.492200	0.648400
H911	H91	0.870200	0.350600	0.567800
H921	H92	0.926500	0.341300	0.629300
H931	H93	0.861700	0.482200	0.637200
H941	H94	0.818200	0.485500	0.569700
H951	H95	0.984200	0.375700	0.678900
H961	H96	0.893600	0.402600	0.709000
H971	H97	0.400700	0.699500	0.282900
H981	H98	0.488600	0.689900	0.207700
H991	H99	0.620100	0.638400	0.192600
H1001	H100	0.664700	0.595300	0.252700
H1011	H101	0.613500	0.531400	0.490200
H1021	H102	0.523100	0.554100	0.524700
H1031	H103	0.973700	0.422200	0.837600
H1041	H104	0.909000	0.432400	0.779800
H1051	H105	0.129300	0.423000	0.685800
H1061	H106	0.188500	0.412900	0.746700
H1071	H107	0.008400	0.446500	0.658500
H1081	H108	0.921500	0.469600	0.695200
H1091	H109	0.339000	0.853000	0.113600
H1101	H110	0.475600	0.842200	0.073800
H1111	H111	0.520400	0.901800	0.027400
H1121	H112	0.420400	0.971100	0.016900
H1131	H113	0.013300	0.124700	0.077900
H1141	H114	0.984700	0.096400	0.046200
H1151	H115	0.912300	0.108300	0.143900
H1161	H116	0.870900	0.137100	0.105500
H1171	H117	0.882000	0.082300	0.110900
H1181	H118	0.223100	0.190100	0.073300
H1191	H119	0.161400	0.268200	0.074000
H1201	H120	0.064000	0.300400	0.031400
H1211	H121	0.034000	0.250800	0.987400
H1221	H122	0.112500	0.002300	0.908700
H1231	H123	0.126800	0.041700	0.870500
H1241	H124	0.258800	0.969500	0.891500
H1251	H125	0.226700	0.969600	0.846800
H1261	H126	0.270900	0.007800	0.851600
H1271	H127	0.288600	0.149400	0.932200
H1281	H128	0.397100	0.158700	0.870700
H1291	H129	0.481100	0.017800	0.862800
H1301	H130	0.373400	0.014500	0.930300
H1311	H131	0.538800	0.124300	0.821100
H1321	H132	0.505200	0.097400	0.791000
H1331	H133	0.883100	0.800500	0.217100
H1341	H134	0.886200	0.810100	0.292300
H1351	H135	0.951100	0.861600	0.307400
H1361	H136	0.012700	0.904700	0.247300
H1371	H137	0.135100	0.968600	0.009800
H1381	H138	0.101900	0.945900	0.975300
H1391	H139	0.733500	0.077800	0.662400
H1401	H140	0.621200	0.067600	0.720200
H1411	H141	0.738100	0.077000	0.814200
H1421	H142	0.848100	0.087100	0.753300
H1431	H143	0.613400	0.053500	0.841500
H1441	H144	0.586300	0.030400	0.804800
H1451	H145	0.547400	0.113600	0.647000
H1461	H146	0.450600	0.073800	0.657800
H1471	H147	0.452200	0.027400	0.598200
H1481	H148	0.562700	0.016900	0.528900
H1491	H149	0.908800	0.077900	0.375300
H1501	H150	0.969100	0.046200	0.403600
H1511	H151	0.943800	0.143900	0.391700
H1521	H152	0.023600	0.105500	0.362900
H1531	H153	0.007100	0.110900	0.417700
H1541	H154	0.703600	0.073300	0.309900
H1551	H155	0.764600	0.074000	0.231800
H1561	H156	0.904600	0.031400	0.199600
H1571	H157	0.978600	0.987400	0.249200
H1581	H158	0.978800	0.908700	0.497700
H1591	H159	0.002700	0.870500	0.458300
H1601	H160	0.849700	0.891500	0.530500
H1611	H161	0.926500	0.846800	0.530400
H1621	H162	0.877500	0.851600	0.492200
H1631	H163	0.779200	0.932200	0.350600
H1641	H164	0.732200	0.870700	0.341300
H1651	H165	0.656100	0.862800	0.482200
H1661	H166	0.696300	0.930300	0.485500
H1671	H167	0.640100	0.821100	0.375700
H1681	H168	0.703800	0.791000	0.402600
H1691	H169	0.899800	0.217100	0.699500
H1701	H170	0.821500	0.292300	0.689900
H1711	H171	0.741500	0.307400	0.638400
H1721	H172	0.740000	0.247300	0.595300
H1731	H173	0.855100	0.009800	0.531400
H1741	H174	0.922800	0.975300	0.554100
H1751	H175	0.604100	0.662400	0.422200
H1761	H176	0.658600	0.720200	0.432400
H1771	H177	0.447700	0.814200	0.423000
H1781	H178	0.398600	0.753300	0.412900
H1791	H179	0.545100	0.841500	0.446500
H1801	H180	0.608900	0.804800	0.469600
H1811	H181	0.808000	0.386400	0.853000
H1821	H182	0.682200	0.426200	0.842200
H1831	H183	0.577800	0.472600	0.901800
H1841	H184	0.608500	0.483100	0.971100
H1851	H185	0.862000	0.422100	0.124700
H1861	H186	0.918900	0.453800	0.096400
H1871	H187	0.979400	0.356100	0.108300
H1881	H188	0.992000	0.394500	0.137100
H1891	H189	0.035700	0.389100	0.082300
H1901	H190	0.586800	0.426700	0.190100
H1911	H191	0.570400	0.426000	0.268200
H1921	H192	0.635600	0.468600	0.300400
H1931	H193	0.715200	0.512600	0.250800
H1941	H194	0.885200	0.591300	0.002300
H1951	H195	0.831500	0.629500	0.041700
H1961	H196	0.771700	0.608500	0.969500
H1971	H197	0.803700	0.653200	0.969600
H1981	H198	0.721300	0.648400	0.007800
H1991	H199	0.562000	0.567800	0.149400
H2001	H200	0.444200	0.629300	0.158700
H2011	H201	0.501100	0.637200	0.017800
H2021	H202	0.612100	0.569700	0.014500
H2031	H203	0.336900	0.678900	0.124300
H2041	H204	0.397400	0.709000	0.097400
H2051	H205	0.316400	0.282900	0.800500
H2061	H206	0.303700	0.207700	0.810100
H2071	H207	0.187300	0.192600	0.861600
H2081	H208	0.082600	0.252700	0.904700
H2091	H209	0.896300	0.490200	0.968600
H2101	H210	0.952200	0.524700	0.945900
H2111	H211	0.188700	0.837600	0.077800
H2121	H212	0.311200	0.779800	0.067600
H2131	H213	0.184900	0.685800	0.077000
H2141	H214	0.064800	0.746700	0.087100
H2151	H215	0.333100	0.658500	0.053500
H2161	H216	0.383300	0.695200	0.030400
H2171	H217	0.194400	0.353000	0.613600
H2181	H218	0.108400	0.342200	0.573800
H2191	H219	0.050400	0.401800	0.527400
H2201	H220	0.091600	0.471100	0.516900
H2211	H221	0.284100	0.624700	0.577900
H2221	H222	0.372700	0.596400	0.546200
H2231	H223	0.335500	0.608300	0.643900
H2241	H224	0.386500	0.637100	0.605500
H2251	H225	0.424800	0.582300	0.610900
H2261	H226	0.013500	0.690100	0.573300
H2271	H227	0.996400	0.768200	0.574000
H2281	H228	0.104200	0.800400	0.531400
H2291	H229	0.227800	0.750800	0.487400
H2301	H230	0.476500	0.502300	0.408700
H2311	H231	0.461000	0.541700	0.370500
H2321	H232	0.380200	0.469500	0.391500
H2331	H233	0.456900	0.469600	0.346800
H2341	H234	0.369700	0.507800	0.351600
H2351	H235	0.129800	0.649400	0.432200
H2361	H236	0.073500	0.658700	0.370700
H2371	H237	0.138300	0.517800	0.362800
H2381	H238	0.181800	0.514500	0.430300
H2391	H239	0.015800	0.624300	0.321100
H2401	H240	0.106400	0.597400	0.291000
H2411	H241	0.599300	0.300500	0.717100
H2421	H242	0.511400	0.310100	0.792300
H2431	H243	0.379900	0.361600	0.807400
H2441	H244	0.335300	0.404700	0.747300
H2451	H245	0.386500	0.468600	0.509800
H2461	H246	0.476900	0.445900	0.475300
H2471	H247	0.026300	0.577800	0.162400
H2481	H248	0.091000	0.567600	0.220200
H2491	H249	0.870700	0.577000	0.314200
H2501	H250	0.811500	0.587100	0.253300
H2511	H251	0.991600	0.553500	0.341500
H2521	H252	0.078500	0.530400	0.304800
H2531	H253	0.661000	0.147000	0.886400
H2541	H254	0.524400	0.157800	0.926200
H2551	H255	0.479600	0.098200	0.972600
H2561	H256	0.579600	0.028900	0.983100
H2571	H257	0.986700	0.875300	0.922100
H2581	H258	0.015300	0.903600	0.953800
H2591	H259	0.087700	0.891700	0.856100
H2601	H260	0.129100	0.862900	0.894500
H2611	H261	0.118000	0.917700	0.889100
H2621	H262	0.776900	0.809900	0.926700
H2631	H263	0.838600	0.731800	0.926000
H2641	H264	0.936000	0.699600	0.968600
H2651	H265	0.966000	0.749200	0.012600
H2661	H266	0.887500	0.997700	0.091300
H2671	H267	0.873200	0.958300	0.129500
H2681	H268	0.741200	0.030500	0.108500
H2691	H269	0.773300	0.030400	0.153200
H2701	H270	0.729100	0.992200	0.148400
H2711	H271	0.711400	0.850600	0.067800
H2721	H272	0.602900	0.841300	0.129300
H2731	H273	0.518900	0.982200	0.137200
H2741	H274	0.626600	0.985500	0.069700
H2751	H275	0.461200	0.875700	0.178900
H2761	H276	0.494800	0.902600	0.209000
H2771	H277	0.116900	0.199500	0.782900
H2781	H278	0.113800	0.189900	0.707700
H2791	H279	0.048900	0.138400	0.692600
H2801	H280	0.987300	0.095300	0.752700
H2811	H281	0.864900	0.031400	0.990200
H2821	H282	0.898100	0.054100	0.024700
H2831	H283	0.266500	0.922200	0.337600
H2841	H284	0.378800	0.932400	0.279800
H2851	H285	0.261900	0.923000	0.185800
H2861	H286	0.151900	0.912900	0.246700
H2871	H287	0.386600	0.946500	0.158500
H2881	H288	0.413700	0.969600	0.195200
C11	C1	0.385120	0.909040	0.418720
C21	C2	0.449450	0.905660	0.377240
C31	C3	0.507310	0.929120	0.370860
C41	C4	0.505730	0.957480	0.405860
C51	C5	0.440340	0.963120	0.447400
C61	C6	0.380490	0.939750	0.453870
C71	C7	0.312630	0.948510	0.497030
C81	C8	0.139550	0.914970	0.554470
C91	C9	0.069020	0.922450	0.597910
C101	C10	0.019300	0.887410	0.607190
C111	C11	0.197450	0.971260	0.671640
C121	C12	0.240440	0.944630	0.702290
C131	C13	0.204320	0.943910	0.748450
C141	C14	0.120970	0.969340	0.767920
C151	C15	0.077680	0.995390	0.738250
C161	C16	0.114440	0.997010	0.690510
C171	C17	0.063970	0.028260	0.662080
C181	C18	0.084630	0.070130	0.551210
C191	C19	0.044190	0.106290	0.521330
C201	C20	0.102840	0.131320	0.489200
C211	C21	0.250320	0.080610	0.622150
C221	C22	0.276960	0.118140	0.628340
C231	C23	0.314830	0.137670	0.591670
C241	C24	0.322490	0.121570	0.545250
C251	C25	0.296570	0.082240	0.543820
C261	C26	0.344030	0.181070	0.595070
C271	C27	0.131920	0.814510	0.347050
C281	C28	0.132520	0.777300	0.321860
C291	C29	0.179210	0.732430	0.327550
C301	C30	0.226380	0.723440	0.358000
C311	C31	0.227220	0.759260	0.383500
C321	C32	0.180380	0.805430	0.378570
C331	C33	0.184390	0.841840	0.406820
C341	C34	0.126210	0.960590	0.415390
C351	C35	0.130860	0.000270	0.439010
C361	C36	0.428810	0.306260	0.577320
C371	C37	0.396060	0.271900	0.570780
C381	C38	0.441760	0.226650	0.568830
C391	C39	0.519380	0.216960	0.576280
C401	C40	0.547770	0.253590	0.582670
C411	C41	0.409290	0.187730	0.559090
C421	C42	0.212880	0.590960	0.081280
C431	C43	0.232350	0.594340	0.122760
C441	C44	0.307290	0.570880	0.129140
C451	C45	0.369070	0.542520	0.094140
C461	C46	0.350860	0.536880	0.052600
C471	C47	0.274110	0.560250	0.046130
C481	C48	0.258170	0.551490	0.002970
C491	C49	0.108990	0.585030	0.945530
C501	C50	0.089380	0.577550	0.902090
C511	C51	0.013900	0.612590	0.892810
C521	C52	0.340350	0.528740	0.828360
C531	C53	0.387360	0.555370	0.797710
C541	C54	0.396680	0.556090	0.751550
C551	C55	0.358230	0.530660	0.732080
C561	C56	0.311320	0.504610	0.761750
C571	C57	0.301960	0.502990	0.809490
C581	C58	0.254310	0.471740	0.837920
C591	C59	0.205970	0.429870	0.948790
C601	C60	0.171810	0.393710	0.978670
C611	C61	0.223360	0.368680	0.010800
C621	C62	0.453080	0.419390	0.877850
C631	C63	0.523440	0.381860	0.871660
C641	C64	0.544170	0.362330	0.908330
C651	C65	0.489310	0.378430	0.954750
C661	C66	0.422630	0.417760	0.956180
C671	C67	0.620170	0.318930	0.904930
C681	C68	0.793480	0.685490	0.152950
C691	C69	0.731680	0.722700	0.178140
C701	C70	0.739190	0.767570	0.172450
C711	C71	0.807820	0.776560	0.142000
C721	C72	0.869980	0.740740	0.116500
C731	C73	0.864380	0.694570	0.121430
C741	C74	0.933050	0.658160	0.093180
C751	C75	0.002190	0.539410	0.084610
C761	C76	0.070140	0.499730	0.060990
C771	C77	0.812390	0.193740	0.922680
C781	C78	0.738740	0.228100	0.929220
C791	C79	0.737240	0.273350	0.931170
C801	C80	0.812620	0.283040	0.923720
C811	C81	0.884030	0.246410	0.917330
C821	C82	0.656110	0.312270	0.940910
C831	C83	0.803840	0.581280	0.409040
C841	C84	0.826690	0.622760	0.405660
C851	C85	0.878170	0.629140	0.429120
C861	C86	0.911590	0.594140	0.457480
C871	C87	0.887740	0.552600	0.463120
C881	C88	0.834360	0.546130	0.439750
C891	C89	0.809660	0.502970	0.448510
C901	C90	0.694020	0.445530	0.414970
C911	C91	0.666930	0.402090	0.422450
C921	C92	0.626490	0.392810	0.387410
C931	C93	0.869090	0.328360	0.471260
C941	C94	0.942730	0.297710	0.444630
C951	C95	0.952770	0.251550	0.443910
C961	C96	0.888890	0.232080	0.469340
C971	C97	0.815930	0.261750	0.495390
C981	C98	0.804950	0.309490	0.497010
C991	C99	0.726050	0.337920	0.528260
C1001	C100	0.635840	0.448790	0.570130
C1011	C101	0.565520	0.478670	0.606290
C1021	C102	0.592040	0.510800	0.631320
C1031	C103	0.872470	0.377850	0.580610
C1041	C104	0.905300	0.371660	0.618140
C1051	C105	0.906500	0.408330	0.637670
C1061	C106	0.867740	0.454750	0.621570
C1071	C107	0.840390	0.456180	0.582240
C1081	C108	0.939100	0.404930	0.681070
C1091	C109	0.478970	0.652950	0.314510
C1101	C110	0.454380	0.678140	0.277300
C1111	C111	0.506760	0.672450	0.232430
C1121	C112	0.584380	0.642000	0.223440
C1131	C113	0.610720	0.616500	0.259260
C1141	C114	0.558950	0.621430	0.305430
C1151	C115	0.591210	0.593180	0.341840
C1161	C116	0.541600	0.584610	0.460590
C1171	C117	0.569870	0.560990	0.500270
C1181	C118	0.006130	0.422680	0.806260
C1191	C119	0.966840	0.429220	0.771900
C1201	C120	0.010590	0.431170	0.726650
C1211	C121	0.095660	0.423720	0.716960
C1221	C122	0.130440	0.417330	0.753590
C1231	C123	0.968380	0.440910	0.687730
C1241	C124	0.294160	0.918720	0.090960
C1251	C125	0.355110	0.877240	0.094340
C1261	C126	0.436430	0.870860	0.070880
C1271	C127	0.463210	0.905860	0.042520
C1281	C128	0.403460	0.947400	0.036880
C1291	C129	0.320240	0.953870	0.060250
C1301	C130	0.261140	0.997030	0.051490
C1311	C131	0.054520	0.054470	0.085030
C1321	C132	0.991470	0.097910	0.077550
C1331	C133	0.906710	0.107190	0.112590
C1341	C134	0.168710	0.171640	0.028740
C1351	C135	0.185070	0.202290	0.055370
C1361	C136	0.148230	0.248450	0.056090
C1371	C137	0.090310	0.267920	0.030660
C1381	C138	0.073070	0.238250	0.004610
C1391	C139	0.111450	0.190510	0.002990
C1401	C140	0.092230	0.162080	0.971740
C1411	C141	0.154760	0.051210	0.929870
C1421	C142	0.150480	0.021330	0.893710
C1431	C143	0.234160	0.989200	0.868680
C1441	C144	0.330930	0.122150	0.919390
C1451	C145	0.395100	0.128340	0.881860
C1461	C146	0.452500	0.091670	0.862330
C1471	C147	0.444060	0.045250	0.878430
C1481	C148	0.378810	0.043820	0.917760
C1491	C149	0.525100	0.095070	0.818930
C1501	C150	0.946430	0.847050	0.185490
C1511	C151	0.909820	0.821860	0.222700
C1521	C152	0.911640	0.827550	0.267570
C1531	C153	0.949820	0.858000	0.276560
C1541	C154	0.986480	0.883500	0.240740
C1551	C155	0.985810	0.878570	0.194570
C1561	C156	0.026230	0.906820	0.158160
C1571	C157	0.086800	0.915390	0.039410
C1581	C158	0.131130	0.939010	0.999730
C1591	C159	0.735070	0.077320	0.693740
C1601	C160	0.667960	0.070780	0.728100
C1611	C161	0.668410	0.068830	0.773350
C1621	C162	0.736340	0.076280	0.783040
C1631	C163	0.801360	0.082670	0.746410
C1641	C164	0.597020	0.059090	0.812270
C1651	C165	0.614880	0.090960	0.581280
C1661	C166	0.550550	0.094340	0.622760
C1671	C167	0.492690	0.070880	0.629140
C1681	C168	0.494270	0.042520	0.594140
C1691	C169	0.559660	0.036880	0.552600
C1701	C170	0.619510	0.060250	0.546130
C1711	C171	0.687370	0.051490	0.502970
C1721	C172	0.860450	0.085030	0.445530
C1731	C173	0.930980	0.077550	0.402090
C1741	C174	0.980700	0.112590	0.392810
C1751	C175	0.802550	0.028740	0.328360
C1761	C176	0.759560	0.055370	0.297710
C1771	C177	0.795680	0.056090	0.251550
C1781	C178	0.879030	0.030660	0.232080
C1791	C179	0.922320	0.004610	0.261750
C1801	C180	0.885560	0.002990	0.309490
C1811	C181	0.936030	0.971740	0.337920
C1821	C182	0.915370	0.929870	0.448790
C1831	C183	0.955810	0.893710	0.478670
C1841	C184	0.897160	0.868680	0.510800
C1851	C185	0.749680	0.919390	0.377850
C1861	C186	0.723040	0.881860	0.371660
C1871	C187	0.685170	0.862330	0.408330
C1881	C188	0.677510	0.878430	0.454750
C1891	C189	0.703430	0.917760	0.456180
C1901	C190	0.655970	0.818930	0.404930
C1911	C191	0.868080	0.185490	0.652950
C1921	C192	0.867480	0.222700	0.678140
C1931	C193	0.820790	0.267570	0.672450
C1941	C194	0.773620	0.276560	0.642000
C1951	C195	0.772780	0.240740	0.616500
C1961	C196	0.819620	0.194570	0.621430
C1971	C197	0.815610	0.158160	0.593180
C1981	C198	0.873790	0.039410	0.584610
C1991	C199	0.869140	0.999730	0.560990
C2001	C200	0.571190	0.693740	0.422680
C2011	C201	0.603940	0.728100	0.429220
C2021	C202	0.558240	0.773350	0.431170
C2031	C203	0.480620	0.783040	0.423720
C2041	C204	0.452230	0.746410	0.417330
C2051	C205	0.590710	0.812270	0.440910
C2061	C206	0.787120	0.409040	0.918720
C2071	C207	0.767650	0.405660	0.877240
C2081	C208	0.692710	0.429120	0.870860
C2091	C209	0.630930	0.457480	0.905860
C2101	C210	0.649140	0.463120	0.947400
C2111	C211	0.725890	0.439750	0.953870
C2121	C212	0.741830	0.448510	0.997030
C2131	C213	0.891010	0.414970	0.054470
C2141	C214	0.910620	0.422450	0.097910
C2151	C215	0.986100	0.387410	0.107190
C2161	C216	0.659650	0.471260	0.171640
C2171	C217	0.612640	0.444630	0.202290
C2181	C218	0.603320	0.443910	0.248450
C2191	C219	0.641770	0.469340	0.267920
C2201	C220	0.688680	0.495390	0.238250
C2211	C221	0.698040	0.497010	0.190510
C2221	C222	0.745690	0.528260	0.162080
C2231	C223	0.794030	0.570130	0.051210
C2241	C224	0.828190	0.606290	0.021330
C2251	C225	0.776640	0.631320	0.989200
C2261	C226	0.546920	0.580610	0.122150
C2271	C227	0.476560	0.618140	0.128340
C2281	C228	0.455830	0.637670	0.091670
C2291	C229	0.510690	0.621570	0.045250
C2301	C230	0.577370	0.582240	0.043820
C2311	C231	0.379830	0.681070	0.095070
C2321	C232	0.206520	0.314510	0.847050
C2331	C233	0.268320	0.277300	0.821860
C2341	C234	0.260810	0.232430	0.827550
C2351	C235	0.192180	0.223440	0.858000
C2361	C236	0.130020	0.259260	0.883500
C2371	C237	0.135620	0.305430	0.878570
C2381	C238	0.066950	0.341840	0.906820
C2391	C239	0.997810	0.460590	0.915390
C2401	C240	0.929860	0.500270	0.939010
C2411	C241	0.187610	0.806260	0.077320
C2421	C242	0.261260	0.771900	0.070780
C2431	C243	0.262760	0.726650	0.068830
C2441	C244	0.187380	0.716960	0.076280
C2451	C245	0.115970	0.753590	0.082670
C2461	C246	0.343890	0.687730	0.059090
C2471	C247	0.196160	0.418720	0.590960
C2481	C248	0.173310	0.377240	0.594340
C2491	C249	0.121830	0.370860	0.570880
C2501	C250	0.088410	0.405860	0.542520
C2511	C251	0.112260	0.447400	0.536880
C2521	C252	0.165640	0.453870	0.560250
C2531	C253	0.190340	0.497030	0.551490
C2541	C254	0.305980	0.554470	0.585030
C2551	C255	0.333070	0.597910	0.577550
C2561	C256	0.373510	0.607190	0.612590
C2571	C257	0.130910	0.671640	0.528740
C2581	C258	0.057270	0.702290	0.555370
C2591	C259	0.047230	0.748450	0.556090
C2601	C260	0.111110	0.767920	0.530660
C2611	C261	0.184070	0.738250	0.504610
C2621	C262	0.195050	0.690510	0.502990
C2631	C263	0.273950	0.662080	0.471740
C2641	C264	0.364160	0.551210	0.429870
C2651	C265	0.434480	0.521330	0.393710
C2661	C266	0.407960	0.489200	0.368680
C2671	C267	0.127530	0.622150	0.419390
C2681	C268	0.094700	0.628340	0.381860
C2691	C269	0.093500	0.591670	0.362330
C2701	C270	0.132260	0.545250	0.378430
C2711	C271	0.159610	0.543820	0.417760
C2721	C272	0.060900	0.595070	0.318930
C2731	C273	0.521030	0.347050	0.685490
C2741	C274	0.545620	0.321860	0.722700
C2751	C275	0.493240	0.327550	0.767570
C2761	C276	0.415620	0.358000	0.776560
C2771	C277	0.389280	0.383500	0.740740
C2781	C278	0.441050	0.378570	0.694570
C2791	C279	0.408790	0.406820	0.658160
C2801	C280	0.458400	0.415390	0.539410
C2811	C281	0.430130	0.439010	0.499730
C2821	C282	0.993870	0.577320	0.193740
C2831	C283	0.033160	0.570780	0.228100
C2841	C284	0.989410	0.568830	0.273350
C2851	C285	0.904340	0.576280	0.283040
C2861	C286	0.869560	0.582670	0.246410
C2871	C287	0.031620	0.559090	0.312270
C2881	C288	0.705840	0.081280	0.909040
C2891	C289	0.644890	0.122760	0.905660
C2901	C290	0.563570	0.129140	0.929120
C2911	C291	0.536790	0.094140	0.957480
C2921	C292	0.596540	0.052600	0.963120
C2931	C293	0.679760	0.046130	0.939750
C2941	C294	0.738860	0.002970	0.948510
C2951	C295	0.945480	0.945530	0.914970
C2961	C296	0.008530	0.902090	0.922450
C2971	C297	0.093290	0.892810	0.887410
C2981	C298	0.831290	0.828360	0.971260
C2991	C299	0.814930	0.797710	0.944630
C3001	C300	0.851770	0.751550	0.943910
C3011	C301	0.909690	0.732080	0.969340
C3021	C302	0.926930	0.761750	0.995390
C3031	C303	0.888550	0.809490	0.997010
C3041	C304	0.907770	0.837920	0.028260
C3051	C305	0.845240	0.948790	0.070130
C3061	C306	0.849520	0.978670	0.106290
C3071	C307	0.765840	0.010800	0.131320
C3081	C308	0.669070	0.877850	0.080610
C3091	C309	0.604900	0.871660	0.118140
C3101	C310	0.547500	0.908330	0.137670
C3111	C311	0.555940	0.954750	0.121570
C3121	C312	0.621190	0.956180	0.082240
C3131	C313	0.474900	0.904930	0.181070
C3141	C314	0.053570	0.152950	0.814510
C3151	C315	0.090180	0.178140	0.777300
C3161	C316	0.088360	0.172450	0.732430
C3171	C317	0.050180	0.142000	0.723440
C3181	C318	0.013520	0.116500	0.759260
C3191	C319	0.014190	0.121430	0.805430
C3201	C320	0.973770	0.093180	0.841840
C3211	C321	0.913200	0.084610	0.960590
C3221	C322	0.868870	0.060990	0.000270
C3231	C323	0.264930	0.922680	0.306260
C3241	C324	0.332040	0.929220	0.271900
C3251	C325	0.331590	0.931170	0.226650
C3261	C326	0.263660	0.923720	0.216960
C3271	C327	0.198640	0.917330	0.253590
C3281	C328	0.402980	0.940910	0.187730
N11	N1	0.254500	0.927160	0.505200
N21	N2	0.192280	0.939560	0.547560
N31	N3	0.098450	0.033620	0.617540
N41	N4	0.047560	0.068210	0.595230
N51	N5	0.261520	0.061350	0.582810
N61	N6	0.147490	0.885960	0.399760
N71	N7	0.158560	0.918070	0.427790
N81	N8	0.504100	0.298010	0.582970
N91	N9	0.186860	0.572840	0.994800
N101	N10	0.179400	0.560440	0.952440
N111	N11	0.249610	0.466380	0.882460
N121	N12	0.211000	0.431790	0.904770
N131	N13	0.405680	0.438650	0.917190
N141	N14	0.933210	0.614040	0.100240
N151	N15	0.004420	0.581930	0.072210
N161	N16	0.885080	0.201990	0.917030
N171	N17	0.759700	0.494800	0.427160
N181	N18	0.739840	0.452440	0.439560
N191	N19	0.715990	0.382460	0.533620
N201	N20	0.642790	0.404770	0.568210
N211	N21	0.844330	0.417190	0.561350
N221	N22	0.547250	0.600240	0.385960
N231	N23	0.586350	0.572210	0.418070
N241	N24	0.087070	0.417030	0.798010
N251	N25	0.181660	0.005200	0.072840
N261	N26	0.131840	0.047560	0.060440
N271	N27	0.132070	0.117540	0.966380
N281	N28	0.115770	0.095230	0.931790
N291	N29	0.322870	0.082810	0.938650
N301	N30	0.033450	0.899760	0.114040
N311	N31	0.076630	0.927790	0.081930
N321	N32	0.802110	0.082970	0.701990
N331	N33	0.745500	0.072840	0.494800
N341	N34	0.807720	0.060440	0.452440
N351	N35	0.901550	0.966380	0.382460
N361	N36	0.952440	0.931790	0.404770
N371	N37	0.738480	0.938650	0.417190
N381	N38	0.852510	0.114040	0.600240
N391	N39	0.841440	0.081930	0.572210
N401	N40	0.495900	0.701990	0.417030
N411	N41	0.813140	0.427160	0.005200
N421	N42	0.820600	0.439560	0.047560
N431	N43	0.750390	0.533620	0.117540
N441	N44	0.789000	0.568210	0.095230
N451	N45	0.594320	0.561350	0.082810
N461	N46	0.066790	0.385960	0.899760
N471	N47	0.995580	0.418070	0.927790
N481	N48	0.114920	0.798010	0.082970
N491	N49	0.240300	0.505200	0.572840
N501	N50	0.260160	0.547560	0.560440
N511	N51	0.284010	0.617540	0.466380
N521	N52	0.357210	0.595230	0.431790
N531	N53	0.155670	0.582810	0.438650
N541	N54	0.452750	0.399760	0.614040
N551	N55	0.413650	0.427790	0.581930
N561	N56	0.912930	0.582970	0.201990
N571	N57	0.818340	0.994800	0.927160
N581	N58	0.868160	0.952440	0.939560
N591	N59	0.867930	0.882460	0.033620
N601	N60	0.884230	0.904770	0.068210
N611	N61	0.677130	0.917190	0.061350
N621	N62	0.966550	0.100240	0.885960
N631	N63	0.923370	0.072210	0.918070
N641	N64	0.197890	0.917030	0.298010
O11	O1	0.336170	0.882730	0.423010
O21	O2	0.311450	0.977840	0.526780
O31	O3	0.147700	0.883340	0.524540
O41	O4	0.239160	0.970420	0.626660
O51	O5	0.988350	0.049380	0.682220
O61	O6	0.157720	0.042260	0.531800
O71	O7	0.084960	0.856450	0.338810
O81	O8	0.224890	0.830380	0.437440
O91	O9	0.089880	0.969940	0.382240
O101	O10	0.141910	0.617270	0.076990
O111	O11	0.316070	0.522160	0.973220
O121	O12	0.055580	0.616660	0.975460
O131	O13	0.336240	0.529580	0.873340
O141	O14	0.219950	0.450620	0.817780
O151	O15	0.231780	0.457740	0.968200
O161	O16	0.780220	0.643550	0.161190
O171	O17	0.992710	0.669620	0.062560
O181	O18	0.942060	0.530060	0.117760
O191	O19	0.759180	0.576990	0.382730
O201	O20	0.838230	0.473220	0.477840
O211	O21	0.672240	0.475460	0.383340
O221	O22	0.865820	0.373340	0.470420
O231	O23	0.670570	0.317780	0.549380
O241	O24	0.689520	0.468200	0.542260
O251	O25	0.423770	0.661190	0.356450
O261	O26	0.662330	0.562560	0.330380
O271	O27	0.472120	0.617760	0.469940
O281	O28	0.218900	0.923010	0.117270
O291	O29	0.289290	0.026780	0.022160
O301	O30	0.031040	0.024540	0.116660
O311	O31	0.209580	0.126660	0.029580
O321	O32	0.037730	0.182220	0.950620
O331	O33	0.199980	0.031800	0.957740
O341	O34	0.941410	0.838810	0.143550
O351	O35	0.055270	0.937440	0.169620
O361	O36	0.059820	0.882240	0.030060
O371	O37	0.663830	0.117270	0.576990
O381	O38	0.688550	0.022160	0.473220
O391	O39	0.852300	0.116660	0.475460
O401	O40	0.760840	0.029580	0.373340
O411	O41	0.011650	0.950620	0.317780
O421	O42	0.842280	0.957740	0.468200
O431	O43	0.915040	0.143550	0.661190
O441	O44	0.775110	0.169620	0.562560
O451	O45	0.910120	0.030060	0.617760
O461	O46	0.858090	0.382730	0.923010
O471	O47	0.683930	0.477840	0.026780
O481	O48	0.944420	0.383340	0.024540
O491	O49	0.663760	0.470420	0.126660
O501	O50	0.780050	0.549380	0.182220
O511	O51	0.768220	0.542260	0.031800
O521	O52	0.219780	0.356450	0.838810
O531	O53	0.007290	0.330380	0.937440
O541	O54	0.057940	0.469940	0.882240
O551	O55	0.240820	0.423010	0.617270
O561	O56	0.161770	0.526780	0.522160
O571	O57	0.327760	0.524540	0.616660
O581	O58	0.134180	0.626660	0.529580
O591	O59	0.329430	0.682220	0.450620
O601	O60	0.310480	0.531800	0.457740
O611	O61	0.576230	0.338810	0.643550
O621	O62	0.337670	0.437440	0.669620
O631	O63	0.527880	0.382240	0.530060
O641	O64	0.781100	0.076990	0.882730
O651	O65	0.710710	0.973220	0.977840
O661	O66	0.968960	0.975460	0.883340
O671	O67	0.790420	0.873340	0.970420
O681	O68	0.962270	0.817780	0.049380
O691	O69	0.800020	0.968200	0.042260
O701	O70	0.058590	0.161190	0.856450
O711	O71	0.944730	0.062560	0.830380
O721	O72	0.940180	0.117760	0.969940
