data_XALBUI_clean_PM
_symmetry_space_group_name_H-M	'P1'
_cell_length_a	40.424500
_cell_length_b	40.424500
_cell_length_c	17.814300
_cell_angle_alpha	90.000000
_cell_angle_beta	90.000000
_cell_angle_gamma	90.000000
_symmetry_Int_Tables_number 1

loop_
_symmetry_equiv_pos_as_xyz
'x,y,z'

loop_
_atom_site_label
_atom_site_type_symbol
_atom_site_fract_x
_atom_site_fract_y
_atom_site_fract_z
Mn11	Mn1	0.926020	0.543340	0.826250
O11	O1	0.904730	0.516250	0.756290
O21	O2	0.004850	0.521370	0.686160
O31	O3	0.954770	0.569530	0.890000
N11	N1	0.967930	0.535950	0.776440
N21	N2	0.995410	0.551600	0.810970
C11	C1	0.916340	0.502040	0.696800
C21	C2	0.893870	0.483310	0.652400
H11	H1	0.872000	0.479600	0.670200
C31	C3	0.903320	0.470500	0.584100
H21	H2	0.887900	0.457600	0.556600
C41	C4	0.934200	0.475800	0.554200
H31	H3	0.939400	0.468800	0.504700
C51	C5	0.957980	0.492000	0.599800
H41	H4	0.980100	0.494200	0.582600
C61	C6	0.949170	0.504510	0.669600
C71	C7	0.975250	0.521290	0.712300
C81	C8	0.986000	0.568210	0.869890
C91	C9	0.011260	0.586460	0.915100
H51	H5	0.024900	0.599900	0.880500
H61	H6	0.026000	0.570100	0.939300
C101	C10	0.997770	0.608820	0.974800
H71	H7	0.986200	0.627400	0.951200
H81	H8	0.016000	0.617200	0.005600
H91	H9	0.982300	0.596500	0.006500
Mn21	Mn2	0.041830	0.533820	0.753120
O41	O4	0.051000	0.574870	0.711460
O51	O5	0.115280	0.565780	0.898850
O61	O6	0.039150	0.492140	0.805610
N31	N3	0.076890	0.539940	0.825970
N41	N4	0.082360	0.512100	0.872430
N51	N5	0.074500	0.506220	0.668900
C111	C11	0.073130	0.597440	0.730500
C121	C12	0.075170	0.626160	0.685300
H101	H10	0.060900	0.628400	0.643200
C131	C13	0.097400	0.650720	0.701400
H111	H11	0.098100	0.669800	0.670300
C141	C14	0.118870	0.648490	0.761900
H121	H12	0.134300	0.665700	0.772000
C151	C15	0.117430	0.620880	0.807100
H131	H13	0.132100	0.619200	0.848600
C161	C16	0.094700	0.594940	0.793100
C171	C17	0.095790	0.565670	0.842260
C181	C18	0.061860	0.488640	0.856600
C191	C19	0.064810	0.455980	0.894800
H141	H14	0.047000	0.454100	0.932600
H151	H15	0.086200	0.455200	0.921900
C201	C20	0.062900	0.426370	0.842700
H161	H16	0.041900	0.426900	0.815300
H171	H17	0.064300	0.406000	0.872200
H181	H18	0.081300	0.427200	0.806900
C211	C21	0.104540	0.510000	0.661200
H191	H19	0.114500	0.527200	0.689700
C221	C22	0.125480	0.491600	0.614700
H201	H20	0.148500	0.496300	0.614500
C231	C23	0.114630	0.469600	0.574200
C241	C24	0.082700	0.457400	0.593900
H211	H21	0.074900	0.436900	0.574600
C251	C25	0.063240	0.476000	0.641300
H221	H22	0.042000	0.468200	0.655300
C261	C26	0.136740	0.450900	0.519600
H231	H23	0.155200	0.465700	0.505200
H241	H24	0.146500	0.431800	0.546600
Mn31	Mn3	0.886970	0.471660	0.028450
O71	O7	0.848610	0.491840	0.060210
O81	O8	0.885220	0.551970	0.882450
O91	O9	0.927760	0.456280	0.984630
N61	N6	0.894300	0.506360	0.954860
N71	N7	0.924490	0.503780	0.915150
N81	N8	0.189370	0.390960	0.303730
C271	C27	0.831590	0.516510	0.028200
C281	C28	0.799920	0.522440	0.056000
H251	H25	0.791700	0.509100	0.095800
C291	C29	0.780130	0.547420	0.027000
H261	H26	0.758700	0.551000	0.047000
C301	C30	0.791610	0.567330	0.968400
H271	H27	0.778100	0.584300	0.948100
C311	C31	0.822830	0.561900	0.940600
H281	H28	0.830900	0.575500	0.901200
C321	C32	0.843220	0.536640	0.969100
C331	C33	0.875780	0.531910	0.933900
C341	C34	0.939720	0.477070	0.935200
C351	C35	0.971680	0.467920	0.898000
H291	H29	0.981800	0.487700	0.874900
H301	H30	0.987300	0.458900	0.935600
C361	C36	0.964300	0.441000	0.835500
H311	H31	0.951200	0.451000	0.795100
H321	H32	0.985200	0.432700	0.815000
H331	H33	0.951900	0.422600	0.857700
C371	C37	0.171950	0.417360	0.283700
H341	H34	0.174300	0.425300	0.233800
C381	C38	0.150620	0.433910	0.330800
H351	H35	0.138900	0.452800	0.313800
C391	C39	0.146670	0.422550	0.402700
C401	C40	0.164500	0.395800	0.423800
H361	H36	0.162200	0.387200	0.473100
C411	C41	0.186290	0.380750	0.374100
H371	H37	0.199300	0.362700	0.391000
C421	C42	0.122600	0.439600	0.456500
H381	H38	0.112100	0.458400	0.430100
H391	H39	0.105000	0.423700	0.470200
Mn41	Mn4	0.426020	0.043340	0.326250
O101	O10	0.404730	0.016250	0.256290
O111	O11	0.504850	0.021370	0.186160
O121	O12	0.454770	0.069530	0.390000
N91	N9	0.467930	0.035950	0.276440
N101	N10	0.495410	0.051600	0.310970
C431	C43	0.416340	0.002040	0.196800
C441	C44	0.393870	0.983310	0.152400
H401	H40	0.372000	0.979600	0.170200
C451	C45	0.403320	0.970500	0.084100
H411	H41	0.387900	0.957600	0.056600
C461	C46	0.434200	0.975800	0.054200
H421	H42	0.439400	0.968800	0.004700
C471	C47	0.457980	0.992000	0.099800
H431	H43	0.480100	0.994200	0.082600
C481	C48	0.449170	0.004510	0.169600
C491	C49	0.475250	0.021290	0.212300
C501	C50	0.486000	0.068210	0.369890
C511	C51	0.511260	0.086460	0.415100
H441	H44	0.524900	0.099900	0.380500
H451	H45	0.526000	0.070100	0.439300
C521	C52	0.497770	0.108820	0.474800
H461	H46	0.486200	0.127400	0.451200
H471	H47	0.516000	0.117200	0.505600
H481	H48	0.482300	0.096500	0.506500
Mn51	Mn5	0.541830	0.033820	0.253120
O131	O13	0.551000	0.074870	0.211460
O141	O14	0.615280	0.065780	0.398850
O151	O15	0.539150	0.992140	0.305610
N111	N11	0.576890	0.039940	0.325970
N121	N12	0.582360	0.012100	0.372430
N131	N13	0.574500	0.006220	0.168900
C531	C53	0.573130	0.097440	0.230500
C541	C54	0.575170	0.126160	0.185300
H491	H49	0.560900	0.128400	0.143200
C551	C55	0.597400	0.150720	0.201400
H501	H50	0.598100	0.169800	0.170300
C561	C56	0.618870	0.148490	0.261900
H511	H51	0.634300	0.165700	0.272000
C571	C57	0.617430	0.120880	0.307100
H521	H52	0.632100	0.119200	0.348600
C581	C58	0.594700	0.094940	0.293100
C591	C59	0.595790	0.065670	0.342260
C601	C60	0.561860	0.988640	0.356600
C611	C61	0.564810	0.955980	0.394800
H531	H53	0.547000	0.954100	0.432600
H541	H54	0.586200	0.955200	0.421900
C621	C62	0.562900	0.926370	0.342700
H551	H55	0.541900	0.926900	0.315300
H561	H56	0.564300	0.906000	0.372200
H571	H57	0.581300	0.927200	0.306900
C631	C63	0.604540	0.010000	0.161200
H581	H58	0.614500	0.027200	0.189700
C641	C64	0.625480	0.991600	0.114700
H591	H59	0.648500	0.996300	0.114500
C651	C65	0.614630	0.969600	0.074200
C661	C66	0.582700	0.957400	0.093900
H601	H60	0.574900	0.936900	0.074600
C671	C67	0.563240	0.976000	0.141300
H611	H61	0.542000	0.968200	0.155300
C681	C68	0.636740	0.950900	0.019600
H621	H62	0.655200	0.965700	0.005200
H631	H63	0.646500	0.931800	0.046600
Mn61	Mn6	0.386970	0.971660	0.528450
O161	O16	0.348610	0.991840	0.560210
O171	O17	0.385220	0.051970	0.382450
O181	O18	0.427760	0.956280	0.484630
N141	N14	0.394300	0.006360	0.454860
N151	N15	0.424490	0.003780	0.415150
N161	N16	0.689370	0.890960	0.803730
C691	C69	0.331590	0.016510	0.528200
C701	C70	0.299920	0.022440	0.556000
H641	H64	0.291700	0.009100	0.595800
C711	C71	0.280130	0.047420	0.527000
H651	H65	0.258700	0.051000	0.547000
C721	C72	0.291610	0.067330	0.468400
H661	H66	0.278100	0.084300	0.448100
C731	C73	0.322830	0.061900	0.440600
H671	H67	0.330900	0.075500	0.401200
C741	C74	0.343220	0.036640	0.469100
C751	C75	0.375780	0.031910	0.433900
C761	C76	0.439720	0.977070	0.435200
C771	C77	0.471680	0.967920	0.398000
H681	H68	0.481800	0.987700	0.374900
H691	H69	0.487300	0.958900	0.435600
C781	C78	0.464300	0.941000	0.335500
H701	H70	0.451200	0.951000	0.295100
H711	H71	0.485200	0.932700	0.315000
H721	H72	0.451900	0.922600	0.357700
C791	C79	0.671950	0.917360	0.783700
H731	H73	0.674300	0.925300	0.733800
C801	C80	0.650620	0.933910	0.830800
H741	H74	0.638900	0.952800	0.813800
C811	C81	0.646670	0.922550	0.902700
C821	C82	0.664500	0.895800	0.923800
H751	H75	0.662200	0.887200	0.973100
C831	C83	0.686290	0.880750	0.874100
H761	H76	0.699300	0.862700	0.891000
C841	C84	0.622600	0.939600	0.956500
H771	H77	0.612100	0.958400	0.930100
H781	H78	0.605000	0.923700	0.970200
Mn71	Mn7	0.573980	0.456660	0.326250
O191	O19	0.595270	0.483750	0.256290
O201	O20	0.495150	0.478630	0.186160
O211	O21	0.545230	0.430470	0.390000
N171	N17	0.532070	0.464050	0.276440
N181	N18	0.504590	0.448400	0.310970
C851	C85	0.583660	0.497960	0.196800
C861	C86	0.606130	0.516690	0.152400
H791	H79	0.628000	0.520400	0.170200
C871	C87	0.596680	0.529500	0.084100
H801	H80	0.612100	0.542400	0.056600
C881	C88	0.565800	0.524200	0.054200
H811	H81	0.560600	0.531200	0.004700
C891	C89	0.542020	0.508000	0.099800
H821	H82	0.519900	0.505800	0.082600
C901	C90	0.550830	0.495490	0.169600
C911	C91	0.524750	0.478710	0.212300
C921	C92	0.514000	0.431790	0.369890
C931	C93	0.488740	0.413540	0.415100
H831	H83	0.475100	0.400100	0.380500
H841	H84	0.474000	0.429900	0.439300
C941	C94	0.502230	0.391180	0.474800
H851	H85	0.513800	0.372600	0.451200
H861	H86	0.484000	0.382800	0.505600
H871	H87	0.517700	0.403500	0.506500
Mn81	Mn8	0.458170	0.466180	0.253120
O221	O22	0.449000	0.425130	0.211460
O231	O23	0.384720	0.434220	0.398850
O241	O24	0.460850	0.507860	0.305610
N191	N19	0.423110	0.460060	0.325970
N201	N20	0.417640	0.487900	0.372430
N211	N21	0.425500	0.493780	0.168900
C951	C95	0.426870	0.402560	0.230500
C961	C96	0.424830	0.373840	0.185300
H881	H88	0.439100	0.371600	0.143200
C971	C97	0.402600	0.349280	0.201400
H891	H89	0.401900	0.330200	0.170300
C981	C98	0.381130	0.351510	0.261900
H901	H90	0.365700	0.334300	0.272000
C991	C99	0.382570	0.379120	0.307100
H911	H91	0.367900	0.380800	0.348600
C1001	C100	0.405300	0.405060	0.293100
C1011	C101	0.404210	0.434330	0.342260
C1021	C102	0.438140	0.511360	0.356600
C1031	C103	0.435190	0.544020	0.394800
H921	H92	0.453000	0.545900	0.432600
H931	H93	0.413800	0.544800	0.421900
C1041	C104	0.437100	0.573630	0.342700
H941	H94	0.458100	0.573100	0.315300
H951	H95	0.435700	0.594000	0.372200
H961	H96	0.418700	0.572800	0.306900
C1051	C105	0.395460	0.490000	0.161200
H971	H97	0.385500	0.472800	0.189700
C1061	C106	0.374520	0.508400	0.114700
H981	H98	0.351500	0.503700	0.114500
C1071	C107	0.385370	0.530400	0.074200
C1081	C108	0.417300	0.542600	0.093900
H991	H99	0.425100	0.563100	0.074600
C1091	C109	0.436760	0.524000	0.141300
H1001	H100	0.458000	0.531800	0.155300
C1101	C110	0.363260	0.549100	0.019600
H1011	H101	0.344800	0.534300	0.005200
H1021	H102	0.353500	0.568200	0.046600
Mn91	Mn9	0.613030	0.528340	0.528450
O251	O25	0.651390	0.508160	0.560210
O261	O26	0.614780	0.448030	0.382450
O271	O27	0.572240	0.543720	0.484630
N221	N22	0.605700	0.493640	0.454860
N231	N23	0.575510	0.496220	0.415150
N241	N24	0.310630	0.609040	0.803730
C1111	C111	0.668410	0.483490	0.528200
C1121	C112	0.700080	0.477560	0.556000
H1031	H103	0.708300	0.490900	0.595800
C1131	C113	0.719870	0.452580	0.527000
H1041	H104	0.741300	0.449000	0.547000
C1141	C114	0.708390	0.432670	0.468400
H1051	H105	0.721900	0.415700	0.448100
C1151	C115	0.677170	0.438100	0.440600
H1061	H106	0.669100	0.424500	0.401200
C1161	C116	0.656780	0.463360	0.469100
C1171	C117	0.624220	0.468090	0.433900
C1181	C118	0.560280	0.522930	0.435200
C1191	C119	0.528320	0.532080	0.398000
H1071	H107	0.518200	0.512300	0.374900
H1081	H108	0.512700	0.541100	0.435600
C1201	C120	0.535700	0.559000	0.335500
H1091	H109	0.548800	0.549000	0.295100
H1101	H110	0.514800	0.567300	0.315000
H1111	H111	0.548100	0.577400	0.357700
C1211	C121	0.328050	0.582640	0.783700
H1121	H112	0.325700	0.574700	0.733800
C1221	C122	0.349380	0.566090	0.830800
H1131	H113	0.361100	0.547200	0.813800
C1231	C123	0.353330	0.577450	0.902700
C1241	C124	0.335500	0.604200	0.923800
H1141	H114	0.337800	0.612800	0.973100
C1251	C125	0.313710	0.619250	0.874100
H1151	H115	0.300700	0.637300	0.891000
C1261	C126	0.377400	0.560400	0.956500
H1161	H116	0.387900	0.541600	0.930100
H1171	H117	0.395000	0.576300	0.970200
Mn101	Mn10	0.073980	0.956660	0.826250
O281	O28	0.095270	0.983750	0.756290
O291	O29	0.995150	0.978630	0.686160
O301	O30	0.045230	0.930470	0.890000
N251	N25	0.032070	0.964050	0.776440
N261	N26	0.004590	0.948400	0.810970
C1271	C127	0.083660	0.997960	0.696800
C1281	C128	0.106130	0.016690	0.652400
H1181	H118	0.128000	0.020400	0.670200
C1291	C129	0.096680	0.029500	0.584100
H1191	H119	0.112100	0.042400	0.556600
C1301	C130	0.065800	0.024200	0.554200
H1201	H120	0.060600	0.031200	0.504700
C1311	C131	0.042020	0.008000	0.599800
H1211	H121	0.019900	0.005800	0.582600
C1321	C132	0.050830	0.995490	0.669600
C1331	C133	0.024750	0.978710	0.712300
C1341	C134	0.014000	0.931790	0.869890
C1351	C135	0.988740	0.913540	0.915100
H1221	H122	0.975100	0.900100	0.880500
H1231	H123	0.974000	0.929900	0.939300
C1361	C136	0.002230	0.891180	0.974800
H1241	H124	0.013800	0.872600	0.951200
H1251	H125	0.984000	0.882800	0.005600
H1261	H126	0.017700	0.903500	0.006500
Mn111	Mn11	0.958170	0.966180	0.753120
O311	O31	0.949000	0.925130	0.711460
O321	O32	0.884720	0.934220	0.898850
O331	O33	0.960850	0.007860	0.805610
N271	N27	0.923110	0.960060	0.825970
N281	N28	0.917640	0.987900	0.872430
N291	N29	0.925500	0.993780	0.668900
C1371	C137	0.926870	0.902560	0.730500
C1381	C138	0.924830	0.873840	0.685300
H1271	H127	0.939100	0.871600	0.643200
C1391	C139	0.902600	0.849280	0.701400
H1281	H128	0.901900	0.830200	0.670300
C1401	C140	0.881130	0.851510	0.761900
H1291	H129	0.865700	0.834300	0.772000
C1411	C141	0.882570	0.879120	0.807100
H1301	H130	0.867900	0.880800	0.848600
C1421	C142	0.905300	0.905060	0.793100
C1431	C143	0.904210	0.934330	0.842260
C1441	C144	0.938140	0.011360	0.856600
C1451	C145	0.935190	0.044020	0.894800
H1311	H131	0.953000	0.045900	0.932600
H1321	H132	0.913800	0.044800	0.921900
C1461	C146	0.937100	0.073630	0.842700
H1331	H133	0.958100	0.073100	0.815300
H1341	H134	0.935700	0.094000	0.872200
H1351	H135	0.918700	0.072800	0.806900
C1471	C147	0.895460	0.990000	0.661200
H1361	H136	0.885500	0.972800	0.689700
C1481	C148	0.874520	0.008400	0.614700
H1371	H137	0.851500	0.003700	0.614500
C1491	C149	0.885370	0.030400	0.574200
C1501	C150	0.917300	0.042600	0.593900
H1381	H138	0.925100	0.063100	0.574600
C1511	C151	0.936760	0.024000	0.641300
H1391	H139	0.958000	0.031800	0.655300
C1521	C152	0.863260	0.049100	0.519600
H1401	H140	0.844800	0.034300	0.505200
H1411	H141	0.853500	0.068200	0.546600
Mn121	Mn12	0.113030	0.028340	0.028450
O341	O34	0.151390	0.008160	0.060210
O351	O35	0.114780	0.948030	0.882450
O361	O36	0.072240	0.043720	0.984630
N301	N30	0.105700	0.993640	0.954860
N311	N31	0.075510	0.996220	0.915150
N321	N32	0.810630	0.109040	0.303730
C1531	C153	0.168410	0.983490	0.028200
C1541	C154	0.200080	0.977560	0.056000
H1421	H142	0.208300	0.990900	0.095800
C1551	C155	0.219870	0.952580	0.027000
H1431	H143	0.241300	0.949000	0.047000
C1561	C156	0.208390	0.932670	0.968400
H1441	H144	0.221900	0.915700	0.948100
C1571	C157	0.177170	0.938100	0.940600
H1451	H145	0.169100	0.924500	0.901200
C1581	C158	0.156780	0.963360	0.969100
C1591	C159	0.124220	0.968090	0.933900
C1601	C160	0.060280	0.022930	0.935200
C1611	C161	0.028320	0.032080	0.898000
H1461	H146	0.018200	0.012300	0.874900
H1471	H147	0.012700	0.041100	0.935600
C1621	C162	0.035700	0.059000	0.835500
H1481	H148	0.048800	0.049000	0.795100
H1491	H149	0.014800	0.067300	0.815000
H1501	H150	0.048100	0.077400	0.857700
C1631	C163	0.828050	0.082640	0.283700
H1511	H151	0.825700	0.074700	0.233800
C1641	C164	0.849380	0.066090	0.330800
H1521	H152	0.861100	0.047200	0.313800
C1651	C165	0.853330	0.077450	0.402700
C1661	C166	0.835500	0.104200	0.423800
H1531	H153	0.837800	0.112800	0.473100
C1671	C167	0.813710	0.119250	0.374100
H1541	H154	0.800700	0.137300	0.391000
C1681	C168	0.877400	0.060400	0.456500
H1551	H155	0.887900	0.041600	0.430100
H1561	H156	0.895000	0.076300	0.470200
Mn131	Mn13	0.206660	0.176020	0.076250
O371	O37	0.233750	0.154730	0.006290
O381	O38	0.228630	0.254850	0.936160
O391	O39	0.180470	0.204770	0.140000
N331	N33	0.214050	0.217930	0.026440
N341	N34	0.198400	0.245410	0.060970
C1691	C169	0.247960	0.166340	0.946800
C1701	C170	0.266690	0.143870	0.902400
H1571	H157	0.270400	0.122000	0.920200
C1711	C171	0.279500	0.153320	0.834100
H1581	H158	0.292400	0.137900	0.806600
C1721	C172	0.274200	0.184200	0.804200
H1591	H159	0.281200	0.189400	0.754700
C1731	C173	0.258000	0.207980	0.849800
H1601	H160	0.255800	0.230100	0.832600
C1741	C174	0.245490	0.199170	0.919600
C1751	C175	0.228710	0.225250	0.962300
C1761	C176	0.181790	0.236000	0.119890
C1771	C177	0.163540	0.261260	0.165100
H1611	H161	0.150100	0.274900	0.130500
H1621	H162	0.179900	0.276000	0.189300
C1781	C178	0.141180	0.247770	0.224800
H1631	H163	0.122600	0.236200	0.201200
H1641	H164	0.132800	0.266000	0.255600
H1651	H165	0.153500	0.232300	0.256500
Mn141	Mn14	0.216180	0.291830	0.003120
O401	O40	0.175130	0.301000	0.961460
O411	O41	0.184220	0.365280	0.148850
O421	O42	0.257860	0.289150	0.055610
N351	N35	0.210060	0.326890	0.075970
N361	N36	0.237900	0.332360	0.122430
N371	N37	0.243780	0.324500	0.918900
C1791	C179	0.152560	0.323130	0.980500
C1801	C180	0.123840	0.325170	0.935300
H1661	H166	0.121600	0.310900	0.893200
C1811	C181	0.099280	0.347400	0.951400
H1671	H167	0.080200	0.348100	0.920300
C1821	C182	0.101510	0.368870	0.011900
H1681	H168	0.084300	0.384300	0.022000
C1831	C183	0.129120	0.367430	0.057100
H1691	H169	0.130800	0.382100	0.098600
C1841	C184	0.155060	0.344700	0.043100
C1851	C185	0.184330	0.345790	0.092260
C1861	C186	0.261360	0.311860	0.106600
C1871	C187	0.294020	0.314810	0.144800
H1701	H170	0.295900	0.297000	0.182600
H1711	H171	0.294800	0.336200	0.171900
C1881	C188	0.323630	0.312900	0.092700
H1721	H172	0.323100	0.291900	0.065300
H1731	H173	0.344000	0.314300	0.122200
H1741	H174	0.322800	0.331300	0.056900
C1891	C189	0.240000	0.354540	0.911200
H1751	H175	0.222800	0.364500	0.939700
C1901	C190	0.258400	0.375480	0.864700
H1761	H176	0.253700	0.398500	0.864500
C1911	C191	0.280400	0.364630	0.824200
C1921	C192	0.292600	0.332700	0.843900
H1771	H177	0.313100	0.324900	0.824600
C1931	C193	0.274000	0.313240	0.891300
H1781	H178	0.281800	0.292000	0.905300
C1941	C194	0.299100	0.386740	0.769600
H1791	H179	0.284300	0.405200	0.755200
H1801	H180	0.318200	0.396500	0.796600
Mn151	Mn15	0.278340	0.136970	0.278450
O431	O43	0.258160	0.098610	0.310210
O441	O44	0.198030	0.135220	0.132450
O451	O45	0.293720	0.177760	0.234630
N381	N38	0.243640	0.144300	0.204860
N391	N39	0.246220	0.174490	0.165150
N401	N40	0.359040	0.439370	0.553730
C1951	C195	0.233490	0.081590	0.278200
C1961	C196	0.227560	0.049920	0.306000
H1811	H181	0.240900	0.041700	0.345800
C1971	C197	0.202580	0.030130	0.277000
H1821	H182	0.199000	0.008700	0.297000
C1981	C198	0.182670	0.041610	0.218400
H1831	H183	0.165700	0.028100	0.198100
C1991	C199	0.188100	0.072830	0.190600
H1841	H184	0.174500	0.080900	0.151200
C2001	C200	0.213360	0.093220	0.219100
C2011	C201	0.218090	0.125780	0.183900
C2021	C202	0.272930	0.189720	0.185200
C2031	C203	0.282080	0.221680	0.148000
H1851	H185	0.262300	0.231800	0.124900
H1861	H186	0.291100	0.237300	0.185600
C2041	C204	0.309000	0.214300	0.085500
H1871	H187	0.299000	0.201200	0.045100
H1881	H188	0.317300	0.235200	0.065000
H1891	H189	0.327400	0.201900	0.107700
C2051	C205	0.332640	0.421950	0.533700
H1901	H190	0.324700	0.424300	0.483800
C2061	C206	0.316090	0.400620	0.580800
H1911	H191	0.297200	0.388900	0.563800
C2071	C207	0.327450	0.396670	0.652700
C2081	C208	0.354200	0.414500	0.673800
H1921	H192	0.362800	0.412200	0.723100
C2091	C209	0.369250	0.436290	0.624100
H1931	H193	0.387300	0.449300	0.641000
C2101	C210	0.310400	0.372600	0.706500
H1941	H194	0.291600	0.362100	0.680100
H1951	H195	0.326300	0.355000	0.720200
Mn161	Mn16	0.706660	0.676020	0.576250
O461	O46	0.733750	0.654730	0.506290
O471	O47	0.728630	0.754850	0.436160
O481	O48	0.680470	0.704770	0.640000
N411	N41	0.714050	0.717930	0.526440
N421	N42	0.698400	0.745410	0.560970
C2111	C211	0.747960	0.666340	0.446800
C2121	C212	0.766690	0.643870	0.402400
H1961	H196	0.770400	0.622000	0.420200
C2131	C213	0.779500	0.653320	0.334100
H1971	H197	0.792400	0.637900	0.306600
C2141	C214	0.774200	0.684200	0.304200
H1981	H198	0.781200	0.689400	0.254700
C2151	C215	0.758000	0.707980	0.349800
H1991	H199	0.755800	0.730100	0.332600
C2161	C216	0.745490	0.699170	0.419600
C2171	C217	0.728710	0.725250	0.462300
C2181	C218	0.681790	0.736000	0.619890
C2191	C219	0.663540	0.761260	0.665100
H2001	H200	0.650100	0.774900	0.630500
H2011	H201	0.679900	0.776000	0.689300
C2201	C220	0.641180	0.747770	0.724800
H2021	H202	0.622600	0.736200	0.701200
H2031	H203	0.632800	0.766000	0.755600
H2041	H204	0.653500	0.732300	0.756500
Mn171	Mn17	0.716180	0.791830	0.503120
O491	O49	0.675130	0.801000	0.461460
O501	O50	0.684220	0.865280	0.648850
O511	O51	0.757860	0.789150	0.555610
N431	N43	0.710060	0.826890	0.575970
N441	N44	0.737900	0.832360	0.622430
N451	N45	0.743780	0.824500	0.418900
C2211	C221	0.652560	0.823130	0.480500
C2221	C222	0.623840	0.825170	0.435300
H2051	H205	0.621600	0.810900	0.393200
C2231	C223	0.599280	0.847400	0.451400
H2061	H206	0.580200	0.848100	0.420300
C2241	C224	0.601510	0.868870	0.511900
H2071	H207	0.584300	0.884300	0.522000
C2251	C225	0.629120	0.867430	0.557100
H2081	H208	0.630800	0.882100	0.598600
C2261	C226	0.655060	0.844700	0.543100
C2271	C227	0.684330	0.845790	0.592260
C2281	C228	0.761360	0.811860	0.606600
C2291	C229	0.794020	0.814810	0.644800
H2091	H209	0.795900	0.797000	0.682600
H2101	H210	0.794800	0.836200	0.671900
C2301	C230	0.823630	0.812900	0.592700
H2111	H211	0.823100	0.791900	0.565300
H2121	H212	0.844000	0.814300	0.622200
H2131	H213	0.822800	0.831300	0.556900
C2311	C231	0.740000	0.854540	0.411200
H2141	H214	0.722800	0.864500	0.439700
C2321	C232	0.758400	0.875480	0.364700
H2151	H215	0.753700	0.898500	0.364500
C2331	C233	0.780400	0.864630	0.324200
C2341	C234	0.792600	0.832700	0.343900
H2161	H216	0.813100	0.824900	0.324600
C2351	C235	0.774000	0.813240	0.391300
H2171	H217	0.781800	0.792000	0.405300
C2361	C236	0.799100	0.886740	0.269600
H2181	H218	0.784300	0.905200	0.255200
H2191	H219	0.818200	0.896500	0.296600
Mn181	Mn18	0.778340	0.636970	0.778450
O521	O52	0.758160	0.598610	0.810210
O531	O53	0.698030	0.635220	0.632450
O541	O54	0.793720	0.677760	0.734630
N461	N46	0.743640	0.644300	0.704860
N471	N47	0.746220	0.674490	0.665150
N481	N48	0.859040	0.939370	0.053730
C2371	C237	0.733490	0.581590	0.778200
C2381	C238	0.727560	0.549920	0.806000
H2201	H220	0.740900	0.541700	0.845800
C2391	C239	0.702580	0.530130	0.777000
H2211	H221	0.699000	0.508700	0.797000
C2401	C240	0.682670	0.541610	0.718400
H2221	H222	0.665700	0.528100	0.698100
C2411	C241	0.688100	0.572830	0.690600
H2231	H223	0.674500	0.580900	0.651200
C2421	C242	0.713360	0.593220	0.719100
C2431	C243	0.718090	0.625780	0.683900
C2441	C244	0.772930	0.689720	0.685200
C2451	C245	0.782080	0.721680	0.648000
H2241	H224	0.762300	0.731800	0.624900
H2251	H225	0.791100	0.737300	0.685600
C2461	C246	0.809000	0.714300	0.585500
H2261	H226	0.799000	0.701200	0.545100
H2271	H227	0.817300	0.735200	0.565000
H2281	H228	0.827400	0.701900	0.607700
C2471	C247	0.832640	0.921950	0.033700
H2291	H229	0.824700	0.924300	0.983800
C2481	C248	0.816090	0.900620	0.080800
H2301	H230	0.797200	0.888900	0.063800
C2491	C249	0.827450	0.896670	0.152700
C2501	C250	0.854200	0.914500	0.173800
H2311	H231	0.862800	0.912200	0.223100
C2511	C251	0.869250	0.936290	0.124100
H2321	H232	0.887300	0.949300	0.141000
C2521	C252	0.810400	0.872600	0.206500
H2331	H233	0.791600	0.862100	0.180100
H2341	H234	0.826300	0.855000	0.220200
Mn191	Mn19	0.293340	0.823980	0.576250
O551	O55	0.266250	0.845270	0.506290
O561	O56	0.271370	0.745150	0.436160
O571	O57	0.319530	0.795230	0.640000
N491	N49	0.285950	0.782070	0.526440
N501	N50	0.301600	0.754590	0.560970
C2531	C253	0.252040	0.833660	0.446800
C2541	C254	0.233310	0.856130	0.402400
H2351	H235	0.229600	0.878000	0.420200
C2551	C255	0.220500	0.846680	0.334100
H2361	H236	0.207600	0.862100	0.306600
C2561	C256	0.225800	0.815800	0.304200
H2371	H237	0.218800	0.810600	0.254700
C2571	C257	0.242000	0.792020	0.349800
H2381	H238	0.244200	0.769900	0.332600
C2581	C258	0.254510	0.800830	0.419600
C2591	C259	0.271290	0.774750	0.462300
C2601	C260	0.318210	0.764000	0.619890
C2611	C261	0.336460	0.738740	0.665100
H2391	H239	0.349900	0.725100	0.630500
H2401	H240	0.320100	0.724000	0.689300
C2621	C262	0.358820	0.752230	0.724800
H2411	H241	0.377400	0.763800	0.701200
H2421	H242	0.367200	0.734000	0.755600
H2431	H243	0.346500	0.767700	0.756500
Mn201	Mn20	0.283820	0.708170	0.503120
O581	O58	0.324870	0.699000	0.461460
O591	O59	0.315780	0.634720	0.648850
O601	O60	0.242140	0.710850	0.555610
N511	N51	0.289940	0.673110	0.575970
N521	N52	0.262100	0.667640	0.622430
N531	N53	0.256220	0.675500	0.418900
C2631	C263	0.347440	0.676870	0.480500
C2641	C264	0.376160	0.674830	0.435300
H2441	H244	0.378400	0.689100	0.393200
C2651	C265	0.400720	0.652600	0.451400
H2451	H245	0.419800	0.651900	0.420300
C2661	C266	0.398490	0.631130	0.511900
H2461	H246	0.415700	0.615700	0.522000
C2671	C267	0.370880	0.632570	0.557100
H2471	H247	0.369200	0.617900	0.598600
C2681	C268	0.344940	0.655300	0.543100
C2691	C269	0.315670	0.654210	0.592260
C2701	C270	0.238640	0.688140	0.606600
C2711	C271	0.205980	0.685190	0.644800
H2481	H248	0.204100	0.703000	0.682600
H2491	H249	0.205200	0.663800	0.671900
C2721	C272	0.176370	0.687100	0.592700
H2501	H250	0.176900	0.708100	0.565300
H2511	H251	0.156000	0.685700	0.622200
H2521	H252	0.177200	0.668700	0.556900
C2731	C273	0.260000	0.645460	0.411200
H2531	H253	0.277200	0.635500	0.439700
C2741	C274	0.241600	0.624520	0.364700
H2541	H254	0.246300	0.601500	0.364500
C2751	C275	0.219600	0.635370	0.324200
C2761	C276	0.207400	0.667300	0.343900
H2551	H255	0.186900	0.675100	0.324600
C2771	C277	0.226000	0.686760	0.391300
H2561	H256	0.218200	0.708000	0.405300
C2781	C278	0.200900	0.613260	0.269600
H2571	H257	0.215700	0.594800	0.255200
H2581	H258	0.181800	0.603500	0.296600
Mn211	Mn21	0.221660	0.863030	0.778450
O611	O61	0.241840	0.901390	0.810210
O621	O62	0.301970	0.864780	0.632450
O631	O63	0.206280	0.822240	0.734630
N541	N54	0.256360	0.855700	0.704860
N551	N55	0.253780	0.825510	0.665150
N561	N56	0.140960	0.560630	0.053730
C2791	C279	0.266510	0.918410	0.778200
C2801	C280	0.272440	0.950080	0.806000
H2591	H259	0.259100	0.958300	0.845800
C2811	C281	0.297420	0.969870	0.777000
H2601	H260	0.301000	0.991300	0.797000
C2821	C282	0.317330	0.958390	0.718400
H2611	H261	0.334300	0.971900	0.698100
C2831	C283	0.311900	0.927170	0.690600
H2621	H262	0.325500	0.919100	0.651200
C2841	C284	0.286640	0.906780	0.719100
C2851	C285	0.281910	0.874220	0.683900
C2861	C286	0.227070	0.810280	0.685200
C2871	C287	0.217920	0.778320	0.648000
H2631	H263	0.237700	0.768200	0.624900
H2641	H264	0.208900	0.762700	0.685600
C2881	C288	0.191000	0.785700	0.585500
H2651	H265	0.201000	0.798800	0.545100
H2661	H266	0.182700	0.764800	0.565000
H2671	H267	0.172600	0.798100	0.607700
C2891	C289	0.167360	0.578050	0.033700
H2681	H268	0.175300	0.575700	0.983800
C2901	C290	0.183910	0.599380	0.080800
H2691	H269	0.202800	0.611100	0.063800
C2911	C291	0.172550	0.603330	0.152700
C2921	C292	0.145800	0.585500	0.173800
H2701	H270	0.137200	0.587800	0.223100
C2931	C293	0.130750	0.563710	0.124100
H2711	H271	0.112700	0.550700	0.141000
C2941	C294	0.189600	0.627400	0.206500
H2721	H272	0.208400	0.637900	0.180100
H2731	H273	0.173700	0.645000	0.220200
Mn221	Mn22	0.793340	0.323980	0.076250
O641	O64	0.766250	0.345270	0.006290
O651	O65	0.771370	0.245150	0.936160
O661	O66	0.819530	0.295230	0.140000
N571	N57	0.785950	0.282070	0.026440
N581	N58	0.801600	0.254590	0.060970
C2951	C295	0.752040	0.333660	0.946800
C2961	C296	0.733310	0.356130	0.902400
H2741	H274	0.729600	0.378000	0.920200
C2971	C297	0.720500	0.346680	0.834100
H2751	H275	0.707600	0.362100	0.806600
C2981	C298	0.725800	0.315800	0.804200
H2761	H276	0.718800	0.310600	0.754700
C2991	C299	0.742000	0.292020	0.849800
H2771	H277	0.744200	0.269900	0.832600
C3001	C300	0.754510	0.300830	0.919600
C3011	C301	0.771290	0.274750	0.962300
C3021	C302	0.818210	0.264000	0.119890
C3031	C303	0.836460	0.238740	0.165100
H2781	H278	0.849900	0.225100	0.130500
H2791	H279	0.820100	0.224000	0.189300
C3041	C304	0.858820	0.252230	0.224800
H2801	H280	0.877400	0.263800	0.201200
H2811	H281	0.867200	0.234000	0.255600
H2821	H282	0.846500	0.267700	0.256500
Mn231	Mn23	0.783820	0.208170	0.003120
O671	O67	0.824870	0.199000	0.961460
O681	O68	0.815780	0.134720	0.148850
O691	O69	0.742140	0.210850	0.055610
N591	N59	0.789940	0.173110	0.075970
N601	N60	0.762100	0.167640	0.122430
N611	N61	0.756220	0.175500	0.918900
C3051	C305	0.847440	0.176870	0.980500
C3061	C306	0.876160	0.174830	0.935300
H2831	H283	0.878400	0.189100	0.893200
C3071	C307	0.900720	0.152600	0.951400
H2841	H284	0.919800	0.151900	0.920300
C3081	C308	0.898490	0.131130	0.011900
H2851	H285	0.915700	0.115700	0.022000
C3091	C309	0.870880	0.132570	0.057100
H2861	H286	0.869200	0.117900	0.098600
C3101	C310	0.844940	0.155300	0.043100
C3111	C311	0.815670	0.154210	0.092260
C3121	C312	0.738640	0.188140	0.106600
C3131	C313	0.705980	0.185190	0.144800
H2871	H287	0.704100	0.203000	0.182600
H2881	H288	0.705200	0.163800	0.171900
C3141	C314	0.676370	0.187100	0.092700
H2891	H289	0.676900	0.208100	0.065300
H2901	H290	0.656000	0.185700	0.122200
H2911	H291	0.677200	0.168700	0.056900
C3151	C315	0.760000	0.145460	0.911200
H2921	H292	0.777200	0.135500	0.939700
C3161	C316	0.741600	0.124520	0.864700
H2931	H293	0.746300	0.101500	0.864500
C3171	C317	0.719600	0.135370	0.824200
C3181	C318	0.707400	0.167300	0.843900
H2941	H294	0.686900	0.175100	0.824600
C3191	C319	0.726000	0.186760	0.891300
H2951	H295	0.718200	0.208000	0.905300
C3201	C320	0.700900	0.113260	0.769600
H2961	H296	0.715700	0.094800	0.755200
H2971	H297	0.681800	0.103500	0.796600
Mn241	Mn24	0.721660	0.363030	0.278450
O701	O70	0.741840	0.401390	0.310210
O711	O71	0.801970	0.364780	0.132450
O721	O72	0.706280	0.322240	0.234630
N621	N62	0.756360	0.355700	0.204860
N631	N63	0.753780	0.325510	0.165150
N641	N64	0.640960	0.060630	0.553730
C3211	C321	0.766510	0.418410	0.278200
C3221	C322	0.772440	0.450080	0.306000
H2981	H298	0.759100	0.458300	0.345800
C3231	C323	0.797420	0.469870	0.277000
H2991	H299	0.801000	0.491300	0.297000
C3241	C324	0.817330	0.458390	0.218400
H3001	H300	0.834300	0.471900	0.198100
C3251	C325	0.811900	0.427170	0.190600
H3011	H301	0.825500	0.419100	0.151200
C3261	C326	0.786640	0.406780	0.219100
C3271	C327	0.781910	0.374220	0.183900
C3281	C328	0.727070	0.310280	0.185200
C3291	C329	0.717920	0.278320	0.148000
H3021	H302	0.737700	0.268200	0.124900
H3031	H303	0.708900	0.262700	0.185600
C3301	C330	0.691000	0.285700	0.085500
H3041	H304	0.701000	0.298800	0.045100
H3051	H305	0.682700	0.264800	0.065000
H3061	H306	0.672600	0.298100	0.107700
C3311	C331	0.667360	0.078050	0.533700
H3071	H307	0.675300	0.075700	0.483800
C3321	C332	0.683910	0.099380	0.580800
H3081	H308	0.702800	0.111100	0.563800
C3331	C333	0.672550	0.103330	0.652700
C3341	C334	0.645800	0.085500	0.673800
H3091	H309	0.637200	0.087800	0.723100
C3351	C335	0.630750	0.063710	0.624100
H3101	H310	0.612700	0.050700	0.641000
C3361	C336	0.689600	0.127400	0.706500
H3111	H311	0.708400	0.137900	0.680100
H3121	H312	0.673700	0.145000	0.720200
Mn251	Mn25	0.073980	0.456660	0.173750
O731	O73	0.095270	0.483750	0.243710
O741	O74	0.995150	0.478630	0.313840
O751	O75	0.045230	0.430470	0.110000
N651	N65	0.032070	0.464050	0.223560
N661	N66	0.004590	0.448400	0.189030
C3371	C337	0.083660	0.497960	0.303200
C3381	C338	0.106130	0.516690	0.347600
H3131	H313	0.128000	0.520400	0.329800
C3391	C339	0.096680	0.529500	0.415900
H3141	H314	0.112100	0.542400	0.443400
C3401	C340	0.065800	0.524200	0.445800
H3151	H315	0.060600	0.531200	0.495300
C3411	C341	0.042020	0.508000	0.400200
H3161	H316	0.019900	0.505800	0.417400
C3421	C342	0.050830	0.495490	0.330400
C3431	C343	0.024750	0.478710	0.287700
C3441	C344	0.014000	0.431790	0.130110
C3451	C345	0.988740	0.413540	0.084900
H3171	H317	0.975100	0.400100	0.119500
H3181	H318	0.974000	0.429900	0.060700
C3461	C346	0.002230	0.391180	0.025200
H3191	H319	0.013800	0.372600	0.048800
H3201	H320	0.984000	0.382800	0.994400
H3211	H321	0.017700	0.403500	0.993500
Mn261	Mn26	0.958170	0.466180	0.246880
O761	O76	0.949000	0.425130	0.288540
O771	O77	0.884720	0.434220	0.101150
O781	O78	0.960850	0.507860	0.194390
N671	N67	0.923110	0.460060	0.174030
N681	N68	0.917640	0.487900	0.127570
N691	N69	0.925500	0.493780	0.331100
C3471	C347	0.926870	0.402560	0.269500
C3481	C348	0.924830	0.373840	0.314700
H3221	H322	0.939100	0.371600	0.356800
C3491	C349	0.902600	0.349280	0.298600
H3231	H323	0.901900	0.330200	0.329700
C3501	C350	0.881130	0.351510	0.238100
H3241	H324	0.865700	0.334300	0.228000
C3511	C351	0.882570	0.379120	0.192900
H3251	H325	0.867900	0.380800	0.151400
C3521	C352	0.905300	0.405060	0.206900
C3531	C353	0.904210	0.434330	0.157740
C3541	C354	0.938140	0.511360	0.143400
C3551	C355	0.935190	0.544020	0.105200
H3261	H326	0.953000	0.545900	0.067400
H3271	H327	0.913800	0.544800	0.078100
C3561	C356	0.937100	0.573630	0.157300
H3281	H328	0.958100	0.573100	0.184700
H3291	H329	0.935700	0.594000	0.127800
H3301	H330	0.918700	0.572800	0.193100
C3571	C357	0.895460	0.490000	0.338800
H3311	H331	0.885500	0.472800	0.310300
C3581	C358	0.874520	0.508400	0.385300
H3321	H332	0.851500	0.503700	0.385500
C3591	C359	0.885370	0.530400	0.425800
C3601	C360	0.917300	0.542600	0.406100
H3331	H333	0.925100	0.563100	0.425400
C3611	C361	0.936760	0.524000	0.358700
H3341	H334	0.958000	0.531800	0.344700
C3621	C362	0.863260	0.549100	0.480400
H3351	H335	0.844800	0.534300	0.494800
H3361	H336	0.853500	0.568200	0.453400
Mn271	Mn27	0.113030	0.528340	0.971550
O791	O79	0.151390	0.508160	0.939790
O801	O80	0.114780	0.448030	0.117550
O811	O81	0.072240	0.543720	0.015370
N701	N70	0.105700	0.493640	0.045140
N711	N71	0.075510	0.496220	0.084850
N721	N72	0.810630	0.609040	0.696270
C3631	C363	0.168410	0.483490	0.971800
C3641	C364	0.200080	0.477560	0.944000
H3371	H337	0.208300	0.490900	0.904200
C3651	C365	0.219870	0.452580	0.973000
H3381	H338	0.241300	0.449000	0.953000
C3661	C366	0.208390	0.432670	0.031600
H3391	H339	0.221900	0.415700	0.051900
C3671	C367	0.177170	0.438100	0.059400
H3401	H340	0.169100	0.424500	0.098800
C3681	C368	0.156780	0.463360	0.030900
C3691	C369	0.124220	0.468090	0.066100
C3701	C370	0.060280	0.522930	0.064800
C3711	C371	0.028320	0.532080	0.102000
H3411	H341	0.018200	0.512300	0.125100
H3421	H342	0.012700	0.541100	0.064400
C3721	C372	0.035700	0.559000	0.164500
H3431	H343	0.048800	0.549000	0.204900
H3441	H344	0.014800	0.567300	0.185000
H3451	H345	0.048100	0.577400	0.142300
C3731	C373	0.828050	0.582640	0.716300
H3461	H346	0.825700	0.574700	0.766200
C3741	C374	0.849380	0.566090	0.669200
H3471	H347	0.861100	0.547200	0.686200
C3751	C375	0.853330	0.577450	0.597300
C3761	C376	0.835500	0.604200	0.576200
H3481	H348	0.837800	0.612800	0.526900
C3771	C377	0.813710	0.619250	0.625900
H3491	H349	0.800700	0.637300	0.609000
C3781	C378	0.877400	0.560400	0.543500
H3501	H350	0.887900	0.541600	0.569900
H3511	H351	0.895000	0.576300	0.529800
Mn281	Mn28	0.573980	0.956660	0.673750
O821	O82	0.595270	0.983750	0.743710
O831	O83	0.495150	0.978630	0.813840
O841	O84	0.545230	0.930470	0.610000
N731	N73	0.532070	0.964050	0.723560
N741	N74	0.504590	0.948400	0.689030
C3791	C379	0.583660	0.997960	0.803200
C3801	C380	0.606130	0.016690	0.847600
H3521	H352	0.628000	0.020400	0.829800
C3811	C381	0.596680	0.029500	0.915900
H3531	H353	0.612100	0.042400	0.943400
C3821	C382	0.565800	0.024200	0.945800
H3541	H354	0.560600	0.031200	0.995300
C3831	C383	0.542020	0.008000	0.900200
H3551	H355	0.519900	0.005800	0.917400
C3841	C384	0.550830	0.995490	0.830400
C3851	C385	0.524750	0.978710	0.787700
C3861	C386	0.514000	0.931790	0.630110
C3871	C387	0.488740	0.913540	0.584900
H3561	H356	0.475100	0.900100	0.619500
H3571	H357	0.474000	0.929900	0.560700
C3881	C388	0.502230	0.891180	0.525200
H3581	H358	0.513800	0.872600	0.548800
H3591	H359	0.484000	0.882800	0.494400
H3601	H360	0.517700	0.903500	0.493500
Mn291	Mn29	0.458170	0.966180	0.746880
O851	O85	0.449000	0.925130	0.788540
O861	O86	0.384720	0.934220	0.601150
O871	O87	0.460850	0.007860	0.694390
N751	N75	0.423110	0.960060	0.674030
N761	N76	0.417640	0.987900	0.627570
N771	N77	0.425500	0.993780	0.831100
C3891	C389	0.426870	0.902560	0.769500
C3901	C390	0.424830	0.873840	0.814700
H3611	H361	0.439100	0.871600	0.856800
C3911	C391	0.402600	0.849280	0.798600
H3621	H362	0.401900	0.830200	0.829700
C3921	C392	0.381130	0.851510	0.738100
H3631	H363	0.365700	0.834300	0.728000
C3931	C393	0.382570	0.879120	0.692900
H3641	H364	0.367900	0.880800	0.651400
C3941	C394	0.405300	0.905060	0.706900
C3951	C395	0.404210	0.934330	0.657740
C3961	C396	0.438140	0.011360	0.643400
C3971	C397	0.435190	0.044020	0.605200
H3651	H365	0.453000	0.045900	0.567400
H3661	H366	0.413800	0.044800	0.578100
C3981	C398	0.437100	0.073630	0.657300
H3671	H367	0.458100	0.073100	0.684700
H3681	H368	0.435700	0.094000	0.627800
H3691	H369	0.418700	0.072800	0.693100
C3991	C399	0.395460	0.990000	0.838800
H3701	H370	0.385500	0.972800	0.810300
C4001	C400	0.374520	0.008400	0.885300
H3711	H371	0.351500	0.003700	0.885500
C4011	C401	0.385370	0.030400	0.925800
C4021	C402	0.417300	0.042600	0.906100
H3721	H372	0.425100	0.063100	0.925400
C4031	C403	0.436760	0.024000	0.858700
H3731	H373	0.458000	0.031800	0.844700
C4041	C404	0.363260	0.049100	0.980400
H3741	H374	0.344800	0.034300	0.994800
H3751	H375	0.353500	0.068200	0.953400
Mn301	Mn30	0.613030	0.028340	0.471550
O881	O88	0.651390	0.008160	0.439790
O891	O89	0.614780	0.948030	0.617550
O901	O90	0.572240	0.043720	0.515370
N781	N78	0.605700	0.993640	0.545140
N791	N79	0.575510	0.996220	0.584850
N801	N80	0.310630	0.109040	0.196270
C4051	C405	0.668410	0.983490	0.471800
C4061	C406	0.700080	0.977560	0.444000
H3761	H376	0.708300	0.990900	0.404200
C4071	C407	0.719870	0.952580	0.473000
H3771	H377	0.741300	0.949000	0.453000
C4081	C408	0.708390	0.932670	0.531600
H3781	H378	0.721900	0.915700	0.551900
C4091	C409	0.677170	0.938100	0.559400
H3791	H379	0.669100	0.924500	0.598800
C4101	C410	0.656780	0.963360	0.530900
C4111	C411	0.624220	0.968090	0.566100
C4121	C412	0.560280	0.022930	0.564800
C4131	C413	0.528320	0.032080	0.602000
H3801	H380	0.518200	0.012300	0.625100
H3811	H381	0.512700	0.041100	0.564400
C4141	C414	0.535700	0.059000	0.664500
H3821	H382	0.548800	0.049000	0.704900
H3831	H383	0.514800	0.067300	0.685000
H3841	H384	0.548100	0.077400	0.642300
C4151	C415	0.328050	0.082640	0.216300
H3851	H385	0.325700	0.074700	0.266200
C4161	C416	0.349380	0.066090	0.169200
H3861	H386	0.361100	0.047200	0.186200
C4171	C417	0.353330	0.077450	0.097300
C4181	C418	0.335500	0.104200	0.076200
H3871	H387	0.337800	0.112800	0.026900
C4191	C419	0.313710	0.119250	0.125900
H3881	H388	0.300700	0.137300	0.109000
C4201	C420	0.377400	0.060400	0.043500
H3891	H389	0.387900	0.041600	0.069900
H3901	H390	0.395000	0.076300	0.029800
Mn311	Mn31	0.426020	0.543340	0.673750
O911	O91	0.404730	0.516250	0.743710
O921	O92	0.504850	0.521370	0.813840
O931	O93	0.454770	0.569530	0.610000
N811	N81	0.467930	0.535950	0.723560
N821	N82	0.495410	0.551600	0.689030
C4211	C421	0.416340	0.502040	0.803200
C4221	C422	0.393870	0.483310	0.847600
H3911	H391	0.372000	0.479600	0.829800
C4231	C423	0.403320	0.470500	0.915900
H3921	H392	0.387900	0.457600	0.943400
C4241	C424	0.434200	0.475800	0.945800
H3931	H393	0.439400	0.468800	0.995300
C4251	C425	0.457980	0.492000	0.900200
H3941	H394	0.480100	0.494200	0.917400
C4261	C426	0.449170	0.504510	0.830400
C4271	C427	0.475250	0.521290	0.787700
C4281	C428	0.486000	0.568210	0.630110
C4291	C429	0.511260	0.586460	0.584900
H3951	H395	0.524900	0.599900	0.619500
H3961	H396	0.526000	0.570100	0.560700
C4301	C430	0.497770	0.608820	0.525200
H3971	H397	0.486200	0.627400	0.548800
H3981	H398	0.516000	0.617200	0.494400
H3991	H399	0.482300	0.596500	0.493500
Mn321	Mn32	0.541830	0.533820	0.746880
O941	O94	0.551000	0.574870	0.788540
O951	O95	0.615280	0.565780	0.601150
O961	O96	0.539150	0.492140	0.694390
N831	N83	0.576890	0.539940	0.674030
N841	N84	0.582360	0.512100	0.627570
N851	N85	0.574500	0.506220	0.831100
C4311	C431	0.573130	0.597440	0.769500
C4321	C432	0.575170	0.626160	0.814700
H4001	H400	0.560900	0.628400	0.856800
C4331	C433	0.597400	0.650720	0.798600
H4011	H401	0.598100	0.669800	0.829700
C4341	C434	0.618870	0.648490	0.738100
H4021	H402	0.634300	0.665700	0.728000
C4351	C435	0.617430	0.620880	0.692900
H4031	H403	0.632100	0.619200	0.651400
C4361	C436	0.594700	0.594940	0.706900
C4371	C437	0.595790	0.565670	0.657740
C4381	C438	0.561860	0.488640	0.643400
C4391	C439	0.564810	0.455980	0.605200
H4041	H404	0.547000	0.454100	0.567400
H4051	H405	0.586200	0.455200	0.578100
C4401	C440	0.562900	0.426370	0.657300
H4061	H406	0.541900	0.426900	0.684700
H4071	H407	0.564300	0.406000	0.627800
H4081	H408	0.581300	0.427200	0.693100
C4411	C441	0.604540	0.510000	0.838800
H4091	H409	0.614500	0.527200	0.810300
C4421	C442	0.625480	0.491600	0.885300
H4101	H410	0.648500	0.496300	0.885500
C4431	C443	0.614630	0.469600	0.925800
C4441	C444	0.582700	0.457400	0.906100
H4111	H411	0.574900	0.436900	0.925400
C4451	C445	0.563240	0.476000	0.858700
H4121	H412	0.542000	0.468200	0.844700
C4461	C446	0.636740	0.450900	0.980400
H4131	H413	0.655200	0.465700	0.994800
H4141	H414	0.646500	0.431800	0.953400
Mn331	Mn33	0.386970	0.471660	0.471550
O971	O97	0.348610	0.491840	0.439790
O981	O98	0.385220	0.551970	0.617550
O991	O99	0.427760	0.456280	0.515370
N861	N86	0.394300	0.506360	0.545140
N871	N87	0.424490	0.503780	0.584850
N881	N88	0.689370	0.390960	0.196270
C4471	C447	0.331590	0.516510	0.471800
C4481	C448	0.299920	0.522440	0.444000
H4151	H415	0.291700	0.509100	0.404200
C4491	C449	0.280130	0.547420	0.473000
H4161	H416	0.258700	0.551000	0.453000
C4501	C450	0.291610	0.567330	0.531600
H4171	H417	0.278100	0.584300	0.551900
C4511	C451	0.322830	0.561900	0.559400
H4181	H418	0.330900	0.575500	0.598800
C4521	C452	0.343220	0.536640	0.530900
C4531	C453	0.375780	0.531910	0.566100
C4541	C454	0.439720	0.477070	0.564800
C4551	C455	0.471680	0.467920	0.602000
H4191	H419	0.481800	0.487700	0.625100
H4201	H420	0.487300	0.458900	0.564400
C4561	C456	0.464300	0.441000	0.664500
H4211	H421	0.451200	0.451000	0.704900
H4221	H422	0.485200	0.432700	0.685000
H4231	H423	0.451900	0.422600	0.642300
C4571	C457	0.671950	0.417360	0.216300
H4241	H424	0.674300	0.425300	0.266200
C4581	C458	0.650620	0.433910	0.169200
H4251	H425	0.638900	0.452800	0.186200
C4591	C459	0.646670	0.422550	0.097300
C4601	C460	0.664500	0.395800	0.076200
H4261	H426	0.662200	0.387200	0.026900
C4611	C461	0.686290	0.380750	0.125900
H4271	H427	0.699300	0.362700	0.109000
C4621	C462	0.622600	0.439600	0.043500
H4281	H428	0.612100	0.458400	0.069900
H4291	H429	0.605000	0.423700	0.029800
Mn341	Mn34	0.926020	0.043340	0.173750
O1001	O100	0.904730	0.016250	0.243710
O1011	O101	0.004850	0.021370	0.313840
O1021	O102	0.954770	0.069530	0.110000
N891	N89	0.967930	0.035950	0.223560
N901	N90	0.995410	0.051600	0.189030
C4631	C463	0.916340	0.002040	0.303200
C4641	C464	0.893870	0.983310	0.347600
H4301	H430	0.872000	0.979600	0.329800
C4651	C465	0.903320	0.970500	0.415900
H4311	H431	0.887900	0.957600	0.443400
C4661	C466	0.934200	0.975800	0.445800
H4321	H432	0.939400	0.968800	0.495300
C4671	C467	0.957980	0.992000	0.400200
H4331	H433	0.980100	0.994200	0.417400
C4681	C468	0.949170	0.004510	0.330400
C4691	C469	0.975250	0.021290	0.287700
C4701	C470	0.986000	0.068210	0.130110
C4711	C471	0.011260	0.086460	0.084900
H4341	H434	0.024900	0.099900	0.119500
H4351	H435	0.026000	0.070100	0.060700
C4721	C472	0.997770	0.108820	0.025200
H4361	H436	0.986200	0.127400	0.048800
H4371	H437	0.016000	0.117200	0.994400
H4381	H438	0.982300	0.096500	0.993500
Mn351	Mn35	0.041830	0.033820	0.246880
O1031	O103	0.051000	0.074870	0.288540
O1041	O104	0.115280	0.065780	0.101150
O1051	O105	0.039150	0.992140	0.194390
N911	N91	0.076890	0.039940	0.174030
N921	N92	0.082360	0.012100	0.127570
N931	N93	0.074500	0.006220	0.331100
C4731	C473	0.073130	0.097440	0.269500
C4741	C474	0.075170	0.126160	0.314700
H4391	H439	0.060900	0.128400	0.356800
C4751	C475	0.097400	0.150720	0.298600
H4401	H440	0.098100	0.169800	0.329700
C4761	C476	0.118870	0.148490	0.238100
H4411	H441	0.134300	0.165700	0.228000
C4771	C477	0.117430	0.120880	0.192900
H4421	H442	0.132100	0.119200	0.151400
C4781	C478	0.094700	0.094940	0.206900
C4791	C479	0.095790	0.065670	0.157740
C4801	C480	0.061860	0.988640	0.143400
C4811	C481	0.064810	0.955980	0.105200
H4431	H443	0.047000	0.954100	0.067400
H4441	H444	0.086200	0.955200	0.078100
C4821	C482	0.062900	0.926370	0.157300
H4451	H445	0.041900	0.926900	0.184700
H4461	H446	0.064300	0.906000	0.127800
H4471	H447	0.081300	0.927200	0.193100
C4831	C483	0.104540	0.010000	0.338800
H4481	H448	0.114500	0.027200	0.310300
C4841	C484	0.125480	0.991600	0.385300
H4491	H449	0.148500	0.996300	0.385500
C4851	C485	0.114630	0.969600	0.425800
C4861	C486	0.082700	0.957400	0.406100
H4501	H450	0.074900	0.936900	0.425400
C4871	C487	0.063240	0.976000	0.358700
H4511	H451	0.042000	0.968200	0.344700
C4881	C488	0.136740	0.950900	0.480400
H4521	H452	0.155200	0.965700	0.494800
H4531	H453	0.146500	0.931800	0.453400
Mn361	Mn36	0.886970	0.971660	0.971550
O1061	O106	0.848610	0.991840	0.939790
O1071	O107	0.885220	0.051970	0.117550
O1081	O108	0.927760	0.956280	0.015370
N941	N94	0.894300	0.006360	0.045140
N951	N95	0.924490	0.003780	0.084850
N961	N96	0.189370	0.890960	0.696270
C4891	C489	0.831590	0.016510	0.971800
C4901	C490	0.799920	0.022440	0.944000
H4541	H454	0.791700	0.009100	0.904200
C4911	C491	0.780130	0.047420	0.973000
H4551	H455	0.758700	0.051000	0.953000
C4921	C492	0.791610	0.067330	0.031600
H4561	H456	0.778100	0.084300	0.051900
C4931	C493	0.822830	0.061900	0.059400
H4571	H457	0.830900	0.075500	0.098800
C4941	C494	0.843220	0.036640	0.030900
C4951	C495	0.875780	0.031910	0.066100
C4961	C496	0.939720	0.977070	0.064800
C4971	C497	0.971680	0.967920	0.102000
H4581	H458	0.981800	0.987700	0.125100
H4591	H459	0.987300	0.958900	0.064400
C4981	C498	0.964300	0.941000	0.164500
H4601	H460	0.951200	0.951000	0.204900
H4611	H461	0.985200	0.932700	0.185000
H4621	H462	0.951900	0.922600	0.142300
C4991	C499	0.171950	0.917360	0.716300
H4631	H463	0.174300	0.925300	0.766200
C5001	C500	0.150620	0.933910	0.669200
H4641	H464	0.138900	0.952800	0.686200
C5011	C501	0.146670	0.922550	0.597300
C5021	C502	0.164500	0.895800	0.576200
H4651	H465	0.162200	0.887200	0.526900
C5031	C503	0.186290	0.880750	0.625900
H4661	H466	0.199300	0.862700	0.609000
C5041	C504	0.122600	0.939600	0.543500
H4671	H467	0.112100	0.958400	0.569900
H4681	H468	0.105000	0.923700	0.529800
Mn371	Mn37	0.793340	0.823980	0.923750
O1091	O109	0.766250	0.845270	0.993710
O1101	O110	0.771370	0.745150	0.063840
O1111	O111	0.819530	0.795230	0.860000
N971	N97	0.785950	0.782070	0.973560
N981	N98	0.801600	0.754590	0.939030
C5051	C505	0.752040	0.833660	0.053200
C5061	C506	0.733310	0.856130	0.097600
H4691	H469	0.729600	0.878000	0.079800
C5071	C507	0.720500	0.846680	0.165900
H4701	H470	0.707600	0.862100	0.193400
C5081	C508	0.725800	0.815800	0.195800
H4711	H471	0.718800	0.810600	0.245300
C5091	C509	0.742000	0.792020	0.150200
H4721	H472	0.744200	0.769900	0.167400
C5101	C510	0.754510	0.800830	0.080400
C5111	C511	0.771290	0.774750	0.037700
C5121	C512	0.818210	0.764000	0.880110
C5131	C513	0.836460	0.738740	0.834900
H4731	H473	0.849900	0.725100	0.869500
H4741	H474	0.820100	0.724000	0.810700
C5141	C514	0.858820	0.752230	0.775200
H4751	H475	0.877400	0.763800	0.798800
H4761	H476	0.867200	0.734000	0.744400
H4771	H477	0.846500	0.767700	0.743500
Mn381	Mn38	0.783820	0.708170	0.996880
O1121	O112	0.824870	0.699000	0.038540
O1131	O113	0.815780	0.634720	0.851150
O1141	O114	0.742140	0.710850	0.944390
N991	N99	0.789940	0.673110	0.924030
N1001	N100	0.762100	0.667640	0.877570
N1011	N101	0.756220	0.675500	0.081100
C5151	C515	0.847440	0.676870	0.019500
C5161	C516	0.876160	0.674830	0.064700
H4781	H478	0.878400	0.689100	0.106800
C5171	C517	0.900720	0.652600	0.048600
H4791	H479	0.919800	0.651900	0.079700
C5181	C518	0.898490	0.631130	0.988100
H4801	H480	0.915700	0.615700	0.978000
C5191	C519	0.870880	0.632570	0.942900
H4811	H481	0.869200	0.617900	0.901400
C5201	C520	0.844940	0.655300	0.956900
C5211	C521	0.815670	0.654210	0.907740
C5221	C522	0.738640	0.688140	0.893400
C5231	C523	0.705980	0.685190	0.855200
H4821	H482	0.704100	0.703000	0.817400
H4831	H483	0.705200	0.663800	0.828100
C5241	C524	0.676370	0.687100	0.907300
H4841	H484	0.676900	0.708100	0.934700
H4851	H485	0.656000	0.685700	0.877800
H4861	H486	0.677200	0.668700	0.943100
C5251	C525	0.760000	0.645460	0.088800
H4871	H487	0.777200	0.635500	0.060300
C5261	C526	0.741600	0.624520	0.135300
H4881	H488	0.746300	0.601500	0.135500
C5271	C527	0.719600	0.635370	0.175800
C5281	C528	0.707400	0.667300	0.156100
H4891	H489	0.686900	0.675100	0.175400
C5291	C529	0.726000	0.686760	0.108700
H4901	H490	0.718200	0.708000	0.094700
C5301	C530	0.700900	0.613260	0.230400
H4911	H491	0.715700	0.594800	0.244800
H4921	H492	0.681800	0.603500	0.203400
Mn391	Mn39	0.721660	0.863030	0.721550
O1151	O115	0.741840	0.901390	0.689790
O1161	O116	0.801970	0.864780	0.867550
O1171	O117	0.706280	0.822240	0.765370
N1021	N102	0.756360	0.855700	0.795140
N1031	N103	0.753780	0.825510	0.834850
N1041	N104	0.640960	0.560630	0.446270
C5311	C531	0.766510	0.918410	0.721800
C5321	C532	0.772440	0.950080	0.694000
H4931	H493	0.759100	0.958300	0.654200
C5331	C533	0.797420	0.969870	0.723000
H4941	H494	0.801000	0.991300	0.703000
C5341	C534	0.817330	0.958390	0.781600
H4951	H495	0.834300	0.971900	0.801900
C5351	C535	0.811900	0.927170	0.809400
H4961	H496	0.825500	0.919100	0.848800
C5361	C536	0.786640	0.906780	0.780900
C5371	C537	0.781910	0.874220	0.816100
C5381	C538	0.727070	0.810280	0.814800
C5391	C539	0.717920	0.778320	0.852000
H4971	H497	0.737700	0.768200	0.875100
H4981	H498	0.708900	0.762700	0.814400
C5401	C540	0.691000	0.785700	0.914500
H4991	H499	0.701000	0.798800	0.954900
H5001	H500	0.682700	0.764800	0.935000
H5011	H501	0.672600	0.798100	0.892300
C5411	C541	0.667360	0.578050	0.466300
H5021	H502	0.675300	0.575700	0.516200
C5421	C542	0.683910	0.599380	0.419200
H5031	H503	0.702800	0.611100	0.436200
C5431	C543	0.672550	0.603330	0.347300
C5441	C544	0.645800	0.585500	0.326200
H5041	H504	0.637200	0.587800	0.276900
C5451	C545	0.630750	0.563710	0.375900
H5051	H505	0.612700	0.550700	0.359000
C5461	C546	0.689600	0.627400	0.293500
H5061	H506	0.708400	0.637900	0.319900
H5071	H507	0.673700	0.645000	0.279800
Mn401	Mn40	0.293340	0.323980	0.423750
O1181	O118	0.266250	0.345270	0.493710
O1191	O119	0.271370	0.245150	0.563840
O1201	O120	0.319530	0.295230	0.360000
N1051	N105	0.285950	0.282070	0.473560
N1061	N106	0.301600	0.254590	0.439030
C5471	C547	0.252040	0.333660	0.553200
C5481	C548	0.233310	0.356130	0.597600
H5081	H508	0.229600	0.378000	0.579800
C5491	C549	0.220500	0.346680	0.665900
H5091	H509	0.207600	0.362100	0.693400
C5501	C550	0.225800	0.315800	0.695800
H5101	H510	0.218800	0.310600	0.745300
C5511	C551	0.242000	0.292020	0.650200
H5111	H511	0.244200	0.269900	0.667400
C5521	C552	0.254510	0.300830	0.580400
C5531	C553	0.271290	0.274750	0.537700
C5541	C554	0.318210	0.264000	0.380110
C5551	C555	0.336460	0.238740	0.334900
H5121	H512	0.349900	0.225100	0.369500
H5131	H513	0.320100	0.224000	0.310700
C5561	C556	0.358820	0.252230	0.275200
H5141	H514	0.377400	0.263800	0.298800
H5151	H515	0.367200	0.234000	0.244400
H5161	H516	0.346500	0.267700	0.243500
Mn411	Mn41	0.283820	0.208170	0.496880
O1211	O121	0.324870	0.199000	0.538540
O1221	O122	0.315780	0.134720	0.351150
O1231	O123	0.242140	0.210850	0.444390
N1071	N107	0.289940	0.173110	0.424030
N1081	N108	0.262100	0.167640	0.377570
N1091	N109	0.256220	0.175500	0.581100
C5571	C557	0.347440	0.176870	0.519500
C5581	C558	0.376160	0.174830	0.564700
H5171	H517	0.378400	0.189100	0.606800
C5591	C559	0.400720	0.152600	0.548600
H5181	H518	0.419800	0.151900	0.579700
C5601	C560	0.398490	0.131130	0.488100
H5191	H519	0.415700	0.115700	0.478000
C5611	C561	0.370880	0.132570	0.442900
H5201	H520	0.369200	0.117900	0.401400
C5621	C562	0.344940	0.155300	0.456900
C5631	C563	0.315670	0.154210	0.407740
C5641	C564	0.238640	0.188140	0.393400
C5651	C565	0.205980	0.185190	0.355200
H5211	H521	0.204100	0.203000	0.317400
H5221	H522	0.205200	0.163800	0.328100
C5661	C566	0.176370	0.187100	0.407300
H5231	H523	0.176900	0.208100	0.434700
H5241	H524	0.156000	0.185700	0.377800
H5251	H525	0.177200	0.168700	0.443100
C5671	C567	0.260000	0.145460	0.588800
H5261	H526	0.277200	0.135500	0.560300
C5681	C568	0.241600	0.124520	0.635300
H5271	H527	0.246300	0.101500	0.635500
C5691	C569	0.219600	0.135370	0.675800
C5701	C570	0.207400	0.167300	0.656100
H5281	H528	0.186900	0.175100	0.675400
C5711	C571	0.226000	0.186760	0.608700
H5291	H529	0.218200	0.208000	0.594700
C5721	C572	0.200900	0.113260	0.730400
H5301	H530	0.215700	0.094800	0.744800
H5311	H531	0.181800	0.103500	0.703400
Mn421	Mn42	0.221660	0.363030	0.221550
O1241	O124	0.241840	0.401390	0.189790
O1251	O125	0.301970	0.364780	0.367550
O1261	O126	0.206280	0.322240	0.265370
N1101	N110	0.256360	0.355700	0.295140
N1111	N111	0.253780	0.325510	0.334850
N1121	N112	0.140960	0.060630	0.946270
C5731	C573	0.266510	0.418410	0.221800
C5741	C574	0.272440	0.450080	0.194000
H5321	H532	0.259100	0.458300	0.154200
C5751	C575	0.297420	0.469870	0.223000
H5331	H533	0.301000	0.491300	0.203000
C5761	C576	0.317330	0.458390	0.281600
H5341	H534	0.334300	0.471900	0.301900
C5771	C577	0.311900	0.427170	0.309400
H5351	H535	0.325500	0.419100	0.348800
C5781	C578	0.286640	0.406780	0.280900
C5791	C579	0.281910	0.374220	0.316100
C5801	C580	0.227070	0.310280	0.314800
C5811	C581	0.217920	0.278320	0.352000
H5361	H536	0.237700	0.268200	0.375100
H5371	H537	0.208900	0.262700	0.314400
C5821	C582	0.191000	0.285700	0.414500
H5381	H538	0.201000	0.298800	0.454900
H5391	H539	0.182700	0.264800	0.435000
H5401	H540	0.172600	0.298100	0.392300
C5831	C583	0.167360	0.078050	0.966300
H5411	H541	0.175300	0.075700	0.016200
C5841	C584	0.183910	0.099380	0.919200
H5421	H542	0.202800	0.111100	0.936200
C5851	C585	0.172550	0.103330	0.847300
C5861	C586	0.145800	0.085500	0.826200
H5431	H543	0.137200	0.087800	0.776900
C5871	C587	0.130750	0.063710	0.875900
H5441	H544	0.112700	0.050700	0.859000
C5881	C588	0.189600	0.127400	0.793500
H5451	H545	0.208400	0.137900	0.819900
H5461	H546	0.173700	0.145000	0.779800
Mn431	Mn43	0.706660	0.176020	0.423750
O1271	O127	0.733750	0.154730	0.493710
O1281	O128	0.728630	0.254850	0.563840
O1291	O129	0.680470	0.204770	0.360000
N1131	N113	0.714050	0.217930	0.473560
N1141	N114	0.698400	0.245410	0.439030
C5891	C589	0.747960	0.166340	0.553200
C5901	C590	0.766690	0.143870	0.597600
H5471	H547	0.770400	0.122000	0.579800
C5911	C591	0.779500	0.153320	0.665900
H5481	H548	0.792400	0.137900	0.693400
C5921	C592	0.774200	0.184200	0.695800
H5491	H549	0.781200	0.189400	0.745300
C5931	C593	0.758000	0.207980	0.650200
H5501	H550	0.755800	0.230100	0.667400
C5941	C594	0.745490	0.199170	0.580400
C5951	C595	0.728710	0.225250	0.537700
C5961	C596	0.681790	0.236000	0.380110
C5971	C597	0.663540	0.261260	0.334900
H5511	H551	0.650100	0.274900	0.369500
H5521	H552	0.679900	0.276000	0.310700
C5981	C598	0.641180	0.247770	0.275200
H5531	H553	0.622600	0.236200	0.298800
H5541	H554	0.632800	0.266000	0.244400
H5551	H555	0.653500	0.232300	0.243500
Mn441	Mn44	0.716180	0.291830	0.496880
O1301	O130	0.675130	0.301000	0.538540
O1311	O131	0.684220	0.365280	0.351150
O1321	O132	0.757860	0.289150	0.444390
N1151	N115	0.710060	0.326890	0.424030
N1161	N116	0.737900	0.332360	0.377570
N1171	N117	0.743780	0.324500	0.581100
C5991	C599	0.652560	0.323130	0.519500
C6001	C600	0.623840	0.325170	0.564700
H5561	H556	0.621600	0.310900	0.606800
C6011	C601	0.599280	0.347400	0.548600
H5571	H557	0.580200	0.348100	0.579700
C6021	C602	0.601510	0.368870	0.488100
H5581	H558	0.584300	0.384300	0.478000
C6031	C603	0.629120	0.367430	0.442900
H5591	H559	0.630800	0.382100	0.401400
C6041	C604	0.655060	0.344700	0.456900
C6051	C605	0.684330	0.345790	0.407740
C6061	C606	0.761360	0.311860	0.393400
C6071	C607	0.794020	0.314810	0.355200
H5601	H560	0.795900	0.297000	0.317400
H5611	H561	0.794800	0.336200	0.328100
C6081	C608	0.823630	0.312900	0.407300
H5621	H562	0.823100	0.291900	0.434700
H5631	H563	0.844000	0.314300	0.377800
H5641	H564	0.822800	0.331300	0.443100
C6091	C609	0.740000	0.354540	0.588800
H5651	H565	0.722800	0.364500	0.560300
C6101	C610	0.758400	0.375480	0.635300
H5661	H566	0.753700	0.398500	0.635500
C6111	C611	0.780400	0.364630	0.675800
C6121	C612	0.792600	0.332700	0.656100
H5671	H567	0.813100	0.324900	0.675400
C6131	C613	0.774000	0.313240	0.608700
H5681	H568	0.781800	0.292000	0.594700
C6141	C614	0.799100	0.386740	0.730400
H5691	H569	0.784300	0.405200	0.744800
H5701	H570	0.818200	0.396500	0.703400
Mn451	Mn45	0.778340	0.136970	0.221550
O1331	O133	0.758160	0.098610	0.189790
O1341	O134	0.698030	0.135220	0.367550
O1351	O135	0.793720	0.177760	0.265370
N1181	N118	0.743640	0.144300	0.295140
N1191	N119	0.746220	0.174490	0.334850
N1201	N120	0.859040	0.439370	0.946270
C6151	C615	0.733490	0.081590	0.221800
C6161	C616	0.727560	0.049920	0.194000
H5711	H571	0.740900	0.041700	0.154200
C6171	C617	0.702580	0.030130	0.223000
H5721	H572	0.699000	0.008700	0.203000
C6181	C618	0.682670	0.041610	0.281600
H5731	H573	0.665700	0.028100	0.301900
C6191	C619	0.688100	0.072830	0.309400
H5741	H574	0.674500	0.080900	0.348800
C6201	C620	0.713360	0.093220	0.280900
C6211	C621	0.718090	0.125780	0.316100
C6221	C622	0.772930	0.189720	0.314800
C6231	C623	0.782080	0.221680	0.352000
H5751	H575	0.762300	0.231800	0.375100
H5761	H576	0.791100	0.237300	0.314400
C6241	C624	0.809000	0.214300	0.414500
H5771	H577	0.799000	0.201200	0.454900
H5781	H578	0.817300	0.235200	0.435000
H5791	H579	0.827400	0.201900	0.392300
C6251	C625	0.832640	0.421950	0.966300
H5801	H580	0.824700	0.424300	0.016200
C6261	C626	0.816090	0.400620	0.919200
H5811	H581	0.797200	0.388900	0.936200
C6271	C627	0.827450	0.396670	0.847300
C6281	C628	0.854200	0.414500	0.826200
H5821	H582	0.862800	0.412200	0.776900
C6291	C629	0.869250	0.436290	0.875900
H5831	H583	0.887300	0.449300	0.859000
C6301	C630	0.810400	0.372600	0.793500
H5841	H584	0.791600	0.362100	0.819900
H5851	H585	0.826300	0.355000	0.779800
Mn461	Mn46	0.206660	0.676020	0.923750
O1361	O136	0.233750	0.654730	0.993710
O1371	O137	0.228630	0.754850	0.063840
O1381	O138	0.180470	0.704770	0.860000
N1211	N121	0.214050	0.717930	0.973560
N1221	N122	0.198400	0.745410	0.939030
C6311	C631	0.247960	0.666340	0.053200
C6321	C632	0.266690	0.643870	0.097600
H5861	H586	0.270400	0.622000	0.079800
C6331	C633	0.279500	0.653320	0.165900
H5871	H587	0.292400	0.637900	0.193400
C6341	C634	0.274200	0.684200	0.195800
H5881	H588	0.281200	0.689400	0.245300
C6351	C635	0.258000	0.707980	0.150200
H5891	H589	0.255800	0.730100	0.167400
C6361	C636	0.245490	0.699170	0.080400
C6371	C637	0.228710	0.725250	0.037700
C6381	C638	0.181790	0.736000	0.880110
C6391	C639	0.163540	0.761260	0.834900
H5901	H590	0.150100	0.774900	0.869500
H5911	H591	0.179900	0.776000	0.810700
C6401	C640	0.141180	0.747770	0.775200
H5921	H592	0.122600	0.736200	0.798800
H5931	H593	0.132800	0.766000	0.744400
H5941	H594	0.153500	0.732300	0.743500
Mn471	Mn47	0.216180	0.791830	0.996880
O1391	O139	0.175130	0.801000	0.038540
O1401	O140	0.184220	0.865280	0.851150
O1411	O141	0.257860	0.789150	0.944390
N1231	N123	0.210060	0.826890	0.924030
N1241	N124	0.237900	0.832360	0.877570
N1251	N125	0.243780	0.824500	0.081100
C6411	C641	0.152560	0.823130	0.019500
C6421	C642	0.123840	0.825170	0.064700
H5951	H595	0.121600	0.810900	0.106800
C6431	C643	0.099280	0.847400	0.048600
H5961	H596	0.080200	0.848100	0.079700
C6441	C644	0.101510	0.868870	0.988100
H5971	H597	0.084300	0.884300	0.978000
C6451	C645	0.129120	0.867430	0.942900
H5981	H598	0.130800	0.882100	0.901400
C6461	C646	0.155060	0.844700	0.956900
C6471	C647	0.184330	0.845790	0.907740
C6481	C648	0.261360	0.811860	0.893400
C6491	C649	0.294020	0.814810	0.855200
H5991	H599	0.295900	0.797000	0.817400
H6001	H600	0.294800	0.836200	0.828100
C6501	C650	0.323630	0.812900	0.907300
H6011	H601	0.323100	0.791900	0.934700
H6021	H602	0.344000	0.814300	0.877800
H6031	H603	0.322800	0.831300	0.943100
C6511	C651	0.240000	0.854540	0.088800
H6041	H604	0.222800	0.864500	0.060300
C6521	C652	0.258400	0.875480	0.135300
H6051	H605	0.253700	0.898500	0.135500
C6531	C653	0.280400	0.864630	0.175800
C6541	C654	0.292600	0.832700	0.156100
H6061	H606	0.313100	0.824900	0.175400
C6551	C655	0.274000	0.813240	0.108700
H6071	H607	0.281800	0.792000	0.094700
C6561	C656	0.299100	0.886740	0.230400
H6081	H608	0.284300	0.905200	0.244800
H6091	H609	0.318200	0.896500	0.203400
Mn481	Mn48	0.278340	0.636970	0.721550
O1421	O142	0.258160	0.598610	0.689790
O1431	O143	0.198030	0.635220	0.867550
O1441	O144	0.293720	0.677760	0.765370
N1261	N126	0.243640	0.644300	0.795140
N1271	N127	0.246220	0.674490	0.834850
N1281	N128	0.359040	0.939370	0.446270
C6571	C657	0.233490	0.581590	0.721800
C6581	C658	0.227560	0.549920	0.694000
H6101	H610	0.240900	0.541700	0.654200
C6591	C659	0.202580	0.530130	0.723000
H6111	H611	0.199000	0.508700	0.703000
C6601	C660	0.182670	0.541610	0.781600
H6121	H612	0.165700	0.528100	0.801900
C6611	C661	0.188100	0.572830	0.809400
H6131	H613	0.174500	0.580900	0.848800
C6621	C662	0.213360	0.593220	0.780900
C6631	C663	0.218090	0.625780	0.816100
C6641	C664	0.272930	0.689720	0.814800
C6651	C665	0.282080	0.721680	0.852000
H6141	H614	0.262300	0.731800	0.875100
H6151	H615	0.291100	0.737300	0.814400
C6661	C666	0.309000	0.714300	0.914500
H6161	H616	0.299000	0.701200	0.954900
H6171	H617	0.317300	0.735200	0.935000
H6181	H618	0.327400	0.701900	0.892300
C6671	C667	0.332640	0.921950	0.466300
H6191	H619	0.324700	0.924300	0.516200
C6681	C668	0.316090	0.900620	0.419200
H6201	H620	0.297200	0.888900	0.436200
C6691	C669	0.327450	0.896670	0.347300
C6701	C670	0.354200	0.914500	0.326200
H6211	H621	0.362800	0.912200	0.276900
C6711	C671	0.369250	0.936290	0.375900
H6221	H622	0.387300	0.949300	0.359000
C6721	C672	0.310400	0.872600	0.293500
H6231	H623	0.291600	0.862100	0.319900
H6241	H624	0.326300	0.855000	0.279800
