data_XALBAO_clean_PM
_symmetry_space_group_name_H-M	'P1'
_cell_length_a	40.376000
_cell_length_b	40.376000
_cell_length_c	17.567000
_cell_angle_alpha	90.000000
_cell_angle_beta	90.000000
_cell_angle_gamma	90.000000
_symmetry_Int_Tables_number 1

loop_
_symmetry_equiv_pos_as_xyz
'x,y,z'

loop_
_atom_site_label
_atom_site_type_symbol
_atom_site_fract_x
_atom_site_fract_y
_atom_site_fract_z
Mn11	Mn1	0.720270	0.135810	0.278180
O11	O1	0.740320	0.097970	0.313050
O21	O2	0.803000	0.134080	0.138920
O31	O3	0.705450	0.176520	0.231010
N11	N1	0.756120	0.143030	0.207300
N21	N2	0.753940	0.173290	0.164700
N31	N3	0.688640	0.108130	0.192400
C11	C1	0.765900	0.080640	0.284600
C21	C2	0.772640	0.049530	0.316000
H11	H1	0.759100	0.041300	0.356100
C31	C3	0.798480	0.030680	0.289700
H21	H2	0.802800	0.009800	0.312400
C41	C4	0.818240	0.041520	0.230700
H31	H3	0.835400	0.027900	0.211200
C51	C5	0.812670	0.072190	0.200900
H41	H4	0.827000	0.080100	0.162100
C61	C6	0.786510	0.092530	0.225300
C71	C7	0.782000	0.124770	0.188500
C81	C8	0.726380	0.188010	0.182000
C91	C9	0.717120	0.220210	0.143500
H51	H5	0.736700	0.229900	0.118000
H61	H6	0.709000	0.236300	0.181700
C101	C10	0.668270	0.084540	0.212800
H71	H7	0.667800	0.078600	0.265100
C111	C11	0.647530	0.067790	0.164500
H81	H8	0.634500	0.049800	0.182000
C121	C12	0.646240	0.077990	0.089400
C131	C13	0.667790	0.102530	0.068800
H91	H9	0.668000	0.110000	0.017600
C141	C14	0.688310	0.116110	0.118400
H101	H10	0.703500	0.132300	0.100700
C151	C15	0.622810	0.061700	0.034300
H111	H11	0.604000	0.052000	0.063000
H121	H12	0.613800	0.078700	0.999400
Mn21	Mn2	0.795730	0.175310	0.082030
O41	O4	0.770280	0.153690	0.008400
O51	O5	0.775690	0.254080	0.937830
O61	O6	0.820680	0.204310	0.149070
N41	N4	0.789110	0.216900	0.030200
N51	N5	0.805070	0.244480	0.065720
C161	C16	0.753570	0.166240	0.950700
C171	C17	0.733200	0.143700	0.910300
H131	H13	0.732200	0.121300	0.926100
C181	C18	0.715700	0.153400	0.851700
H141	H14	0.697100	0.140900	0.835300
C191	C19	0.724800	0.182300	0.813800
H151	H15	0.722700	0.184800	0.760200
C201	C20	0.737800	0.208100	0.862400
H161	H16	0.734500	0.230900	0.851000
C211	C21	0.755290	0.198270	0.926200
C221	C22	0.774680	0.224370	0.966400
C231	C23	0.820430	0.234580	0.126300
C241	C24	0.838150	0.260560	0.172800
H171	H17	0.821400	0.274900	0.197400
H181	H18	0.851400	0.274600	0.138100
C251	C25	0.861100	0.246500	0.234500
H191	H19	0.848200	0.232800	0.269800
H201	H20	0.871400	0.264800	0.262500
H211	H21	0.878400	0.233000	0.210600
Mn31	Mn3	0.711510	0.209220	0.494490
O71	O7	0.669350	0.201320	0.532730
O81	O8	0.682290	0.133810	0.349060
O91	O9	0.754230	0.211410	0.444910
N61	N6	0.706710	0.173870	0.421320
N71	N7	0.735220	0.167870	0.376900
C261	C26	0.646930	0.179260	0.511300
C271	C27	0.616680	0.178890	0.550400
H221	H22	0.613100	0.194400	0.590300
C281	C28	0.591900	0.156600	0.532300
H231	H23	0.571500	0.157100	0.559400
C291	C29	0.596510	0.134120	0.476400
H241	H24	0.579900	0.118100	0.465900
C301	C30	0.625340	0.134640	0.434800
H251	H25	0.627800	0.119500	0.393800
C311	C31	0.651140	0.156650	0.451000
C321	C32	0.680840	0.154610	0.404300
C331	C33	0.758110	0.188740	0.393700
C341	C34	0.791650	0.185580	0.357400
H261	H26	0.795700	0.205100	0.324800
H271	H27	0.791900	0.165700	0.324500
C351	C35	0.818880	0.182900	0.415100
H281	H28	0.815700	0.162800	0.445600
H291	H29	0.840300	0.181700	0.388900
H301	H30	0.818500	0.202400	0.448400
N81	N8	0.574080	0.986510	0.831400
C361	C36	0.563720	0.016990	0.860300
H311	H31	0.541800	0.024600	0.851000
C371	C37	0.585600	0.036400	0.903000
H321	H32	0.581700	0.059200	0.912300
C381	C38	0.615500	0.019100	0.933100
C391	C39	0.624300	0.995000	0.895500
H331	H33	0.645800	0.985800	0.901500
C401	C40	0.602100	0.981900	0.844400
H341	H34	0.611700	0.965500	0.812600
C411	C41	0.638500	0.035800	0.989600
H351	H35	0.657400	0.045500	0.961600
H361	H36	0.647400	0.018800	0.024700
Mn41	Mn4	0.220270	0.635810	0.778180
O101	O10	0.240320	0.597970	0.813050
O111	O11	0.303000	0.634080	0.638920
O121	O12	0.205450	0.676520	0.731010
N91	N9	0.256120	0.643030	0.707300
N101	N10	0.253940	0.673290	0.664700
N111	N11	0.188640	0.608130	0.692400
C421	C42	0.265900	0.580640	0.784600
C431	C43	0.272640	0.549530	0.816000
H371	H37	0.259100	0.541300	0.856100
C441	C44	0.298480	0.530680	0.789700
H381	H38	0.302800	0.509800	0.812400
C451	C45	0.318240	0.541520	0.730700
H391	H39	0.335400	0.527900	0.711200
C461	C46	0.312670	0.572190	0.700900
H401	H40	0.327000	0.580100	0.662100
C471	C47	0.286510	0.592530	0.725300
C481	C48	0.282000	0.624770	0.688500
C491	C49	0.226380	0.688010	0.682000
C501	C50	0.217120	0.720210	0.643500
H411	H41	0.236700	0.729900	0.618000
H421	H42	0.209000	0.736300	0.681700
C511	C51	0.168270	0.584540	0.712800
H431	H43	0.167800	0.578600	0.765100
C521	C52	0.147530	0.567790	0.664500
H441	H44	0.134500	0.549800	0.682000
C531	C53	0.146240	0.577990	0.589400
C541	C54	0.167790	0.602530	0.568800
H451	H45	0.168000	0.610000	0.517600
C551	C55	0.188310	0.616110	0.618400
H461	H46	0.203500	0.632300	0.600700
C561	C56	0.122810	0.561700	0.534300
H471	H47	0.104000	0.552000	0.563000
H481	H48	0.113800	0.578700	0.499400
Mn51	Mn5	0.295730	0.675310	0.582030
O131	O13	0.270280	0.653690	0.508400
O141	O14	0.275690	0.754080	0.437830
O151	O15	0.320680	0.704310	0.649070
N121	N12	0.289110	0.716900	0.530200
N131	N13	0.305070	0.744480	0.565720
C571	C57	0.253570	0.666240	0.450700
C581	C58	0.233200	0.643700	0.410300
H491	H49	0.232200	0.621300	0.426100
C591	C59	0.215700	0.653400	0.351700
H501	H50	0.197100	0.640900	0.335300
C601	C60	0.224800	0.682300	0.313800
H511	H51	0.222700	0.684800	0.260200
C611	C61	0.237800	0.708100	0.362400
H521	H52	0.234500	0.730900	0.351000
C621	C62	0.255290	0.698270	0.426200
C631	C63	0.274680	0.724370	0.466400
C641	C64	0.320430	0.734580	0.626300
C651	C65	0.338150	0.760560	0.672800
H531	H53	0.321400	0.774900	0.697400
H541	H54	0.351400	0.774600	0.638100
C661	C66	0.361100	0.746500	0.734500
H551	H55	0.348200	0.732800	0.769800
H561	H56	0.371400	0.764800	0.762500
H571	H57	0.378400	0.733000	0.710600
Mn61	Mn6	0.211510	0.709220	0.994490
O161	O16	0.169350	0.701320	0.032730
O171	O17	0.182290	0.633810	0.849060
O181	O18	0.254230	0.711410	0.944910
N141	N14	0.206710	0.673870	0.921320
N151	N15	0.235220	0.667870	0.876900
C671	C67	0.146930	0.679260	0.011300
C681	C68	0.116680	0.678890	0.050400
H581	H58	0.113100	0.694400	0.090300
C691	C69	0.091900	0.656600	0.032300
H591	H59	0.071500	0.657100	0.059400
C701	C70	0.096510	0.634120	0.976400
H601	H60	0.079900	0.618100	0.965900
C711	C71	0.125340	0.634640	0.934800
H611	H61	0.127800	0.619500	0.893800
C721	C72	0.151140	0.656650	0.951000
C731	C73	0.180840	0.654610	0.904300
C741	C74	0.258110	0.688740	0.893700
C751	C75	0.291650	0.685580	0.857400
H621	H62	0.295700	0.705100	0.824800
H631	H63	0.291900	0.665700	0.824500
C761	C76	0.318880	0.682900	0.915100
H641	H64	0.315700	0.662800	0.945600
H651	H65	0.340300	0.681700	0.888900
H661	H66	0.318500	0.702400	0.948400
N161	N16	0.074080	0.486510	0.331400
C771	C77	0.063720	0.516990	0.360300
H671	H67	0.041800	0.524600	0.351000
C781	C78	0.085600	0.536400	0.403000
H681	H68	0.081700	0.559200	0.412300
C791	C79	0.115500	0.519100	0.433100
C801	C80	0.124300	0.495000	0.395500
H691	H69	0.145800	0.485800	0.401500
C811	C81	0.102100	0.481900	0.344400
H701	H70	0.111700	0.465500	0.312600
C821	C82	0.138500	0.535800	0.489600
H711	H71	0.157400	0.545500	0.461600
H721	H72	0.147400	0.518800	0.524700
Mn71	Mn7	0.779730	0.864190	0.778180
O191	O19	0.759680	0.902030	0.813050
O201	O20	0.697000	0.865920	0.638920
O211	O21	0.794550	0.823480	0.731010
N171	N17	0.743880	0.856970	0.707300
N181	N18	0.746060	0.826710	0.664700
N191	N19	0.811360	0.891870	0.692400
C831	C83	0.734100	0.919360	0.784600
C841	C84	0.727360	0.950470	0.816000
H731	H73	0.740900	0.958700	0.856100
C851	C85	0.701520	0.969320	0.789700
H741	H74	0.697200	0.990200	0.812400
C861	C86	0.681760	0.958480	0.730700
H751	H75	0.664600	0.972100	0.711200
C871	C87	0.687330	0.927810	0.700900
H761	H76	0.673000	0.919900	0.662100
C881	C88	0.713490	0.907470	0.725300
C891	C89	0.718000	0.875230	0.688500
C901	C90	0.773620	0.811990	0.682000
C911	C91	0.782880	0.779790	0.643500
H771	H77	0.763300	0.770100	0.618000
H781	H78	0.791000	0.763700	0.681700
C921	C92	0.831730	0.915460	0.712800
H791	H79	0.832200	0.921400	0.765100
C931	C93	0.852470	0.932210	0.664500
H801	H80	0.865500	0.950200	0.682000
C941	C94	0.853760	0.922010	0.589400
C951	C95	0.832210	0.897470	0.568800
H811	H81	0.832000	0.890000	0.517600
C961	C96	0.811690	0.883890	0.618400
H821	H82	0.796500	0.867700	0.600700
C971	C97	0.877190	0.938300	0.534300
H831	H83	0.896000	0.948000	0.563000
H841	H84	0.886200	0.921300	0.499400
Mn81	Mn8	0.704270	0.824690	0.582030
O221	O22	0.729720	0.846310	0.508400
O231	O23	0.724310	0.745920	0.437830
O241	O24	0.679320	0.795690	0.649070
N201	N20	0.710890	0.783100	0.530200
N211	N21	0.694930	0.755520	0.565720
C981	C98	0.746430	0.833760	0.450700
C991	C99	0.766800	0.856300	0.410300
H851	H85	0.767800	0.878700	0.426100
C1001	C100	0.784300	0.846600	0.351700
H861	H86	0.802900	0.859100	0.335300
C1011	C101	0.775200	0.817700	0.313800
H871	H87	0.777300	0.815200	0.260200
C1021	C102	0.762200	0.791900	0.362400
H881	H88	0.765500	0.769100	0.351000
C1031	C103	0.744710	0.801730	0.426200
C1041	C104	0.725320	0.775630	0.466400
C1051	C105	0.679570	0.765420	0.626300
C1061	C106	0.661850	0.739440	0.672800
H891	H89	0.678600	0.725100	0.697400
H901	H90	0.648600	0.725400	0.638100
C1071	C107	0.638900	0.753500	0.734500
H911	H91	0.651800	0.767200	0.769800
H921	H92	0.628600	0.735200	0.762500
H931	H93	0.621600	0.767000	0.710600
Mn91	Mn9	0.788490	0.790780	0.994490
O251	O25	0.830650	0.798680	0.032730
O261	O26	0.817710	0.866190	0.849060
O271	O27	0.745770	0.788590	0.944910
N221	N22	0.793290	0.826130	0.921320
N231	N23	0.764780	0.832130	0.876900
C1081	C108	0.853070	0.820740	0.011300
C1091	C109	0.883320	0.821110	0.050400
H941	H94	0.886900	0.805600	0.090300
C1101	C110	0.908100	0.843400	0.032300
H951	H95	0.928500	0.842900	0.059400
C1111	C111	0.903490	0.865880	0.976400
H961	H96	0.920100	0.881900	0.965900
C1121	C112	0.874660	0.865360	0.934800
H971	H97	0.872200	0.880500	0.893800
C1131	C113	0.848860	0.843350	0.951000
C1141	C114	0.819160	0.845390	0.904300
C1151	C115	0.741890	0.811260	0.893700
C1161	C116	0.708350	0.814420	0.857400
H981	H98	0.704300	0.794900	0.824800
H991	H99	0.708100	0.834300	0.824500
C1171	C117	0.681120	0.817100	0.915100
H1001	H100	0.684300	0.837200	0.945600
H1011	H101	0.659700	0.818300	0.888900
H1021	H102	0.681500	0.797600	0.948400
N241	N24	0.925920	0.013490	0.331400
C1181	C118	0.936280	0.983010	0.360300
H1031	H103	0.958200	0.975400	0.351000
C1191	C119	0.914400	0.963600	0.403000
H1041	H104	0.918300	0.940800	0.412300
C1201	C120	0.884500	0.980900	0.433100
C1211	C121	0.875700	0.005000	0.395500
H1051	H105	0.854200	0.014200	0.401500
C1221	C122	0.897900	0.018100	0.344400
H1061	H106	0.888300	0.034500	0.312600
C1231	C123	0.861500	0.964200	0.489600
H1071	H107	0.842600	0.954500	0.461600
H1081	H108	0.852600	0.981200	0.524700
Mn101	Mn10	0.279730	0.364190	0.278180
O281	O28	0.259680	0.402030	0.313050
O291	O29	0.197000	0.365920	0.138920
O301	O30	0.294550	0.323480	0.231010
N251	N25	0.243880	0.356970	0.207300
N261	N26	0.246060	0.326710	0.164700
N271	N27	0.311360	0.391870	0.192400
C1241	C124	0.234100	0.419360	0.284600
C1251	C125	0.227360	0.450470	0.316000
H1091	H109	0.240900	0.458700	0.356100
C1261	C126	0.201520	0.469320	0.289700
H1101	H110	0.197200	0.490200	0.312400
C1271	C127	0.181760	0.458480	0.230700
H1111	H111	0.164600	0.472100	0.211200
C1281	C128	0.187330	0.427810	0.200900
H1121	H112	0.173000	0.419900	0.162100
C1291	C129	0.213490	0.407470	0.225300
C1301	C130	0.218000	0.375230	0.188500
C1311	C131	0.273620	0.311990	0.182000
C1321	C132	0.282880	0.279790	0.143500
H1131	H113	0.263300	0.270100	0.118000
H1141	H114	0.291000	0.263700	0.181700
C1331	C133	0.331730	0.415460	0.212800
H1151	H115	0.332200	0.421400	0.265100
C1341	C134	0.352470	0.432210	0.164500
H1161	H116	0.365500	0.450200	0.182000
C1351	C135	0.353760	0.422010	0.089400
C1361	C136	0.332210	0.397470	0.068800
H1171	H117	0.332000	0.390000	0.017600
C1371	C137	0.311690	0.383890	0.118400
H1181	H118	0.296500	0.367700	0.100700
C1381	C138	0.377190	0.438300	0.034300
H1191	H119	0.396000	0.448000	0.063000
H1201	H120	0.386200	0.421300	0.999400
Mn111	Mn11	0.204270	0.324690	0.082030
O311	O31	0.229720	0.346310	0.008400
O321	O32	0.224310	0.245920	0.937830
O331	O33	0.179320	0.295690	0.149070
N281	N28	0.210890	0.283100	0.030200
N291	N29	0.194930	0.255520	0.065720
C1391	C139	0.246430	0.333760	0.950700
C1401	C140	0.266800	0.356300	0.910300
H1211	H121	0.267800	0.378700	0.926100
C1411	C141	0.284300	0.346600	0.851700
H1221	H122	0.302900	0.359100	0.835300
C1421	C142	0.275200	0.317700	0.813800
H1231	H123	0.277300	0.315200	0.760200
C1431	C143	0.262200	0.291900	0.862400
H1241	H124	0.265500	0.269100	0.851000
C1441	C144	0.244710	0.301730	0.926200
C1451	C145	0.225320	0.275630	0.966400
C1461	C146	0.179570	0.265420	0.126300
C1471	C147	0.161850	0.239440	0.172800
H1251	H125	0.178600	0.225100	0.197400
H1261	H126	0.148600	0.225400	0.138100
C1481	C148	0.138900	0.253500	0.234500
H1271	H127	0.151800	0.267200	0.269800
H1281	H128	0.128600	0.235200	0.262500
H1291	H129	0.121600	0.267000	0.210600
Mn121	Mn12	0.288490	0.290780	0.494490
O341	O34	0.330650	0.298680	0.532730
O351	O35	0.317710	0.366190	0.349060
O361	O36	0.245770	0.288590	0.444910
N301	N30	0.293290	0.326130	0.421320
N311	N31	0.264780	0.332130	0.376900
C1491	C149	0.353070	0.320740	0.511300
C1501	C150	0.383320	0.321110	0.550400
H1301	H130	0.386900	0.305600	0.590300
C1511	C151	0.408100	0.343400	0.532300
H1311	H131	0.428500	0.342900	0.559400
C1521	C152	0.403490	0.365880	0.476400
H1321	H132	0.420100	0.381900	0.465900
C1531	C153	0.374660	0.365360	0.434800
H1331	H133	0.372200	0.380500	0.393800
C1541	C154	0.348860	0.343350	0.451000
C1551	C155	0.319160	0.345390	0.404300
C1561	C156	0.241890	0.311260	0.393700
C1571	C157	0.208350	0.314420	0.357400
H1341	H134	0.204300	0.294900	0.324800
H1351	H135	0.208100	0.334300	0.324500
C1581	C158	0.181120	0.317100	0.415100
H1361	H136	0.184300	0.337200	0.445600
H1371	H137	0.159700	0.318300	0.388900
H1381	H138	0.181500	0.297600	0.448400
N321	N32	0.425920	0.513490	0.831400
C1591	C159	0.436280	0.483010	0.860300
H1391	H139	0.458200	0.475400	0.851000
C1601	C160	0.414400	0.463600	0.903000
H1401	H140	0.418300	0.440800	0.912300
C1611	C161	0.384500	0.480900	0.933100
C1621	C162	0.375700	0.505000	0.895500
H1411	H141	0.354200	0.514200	0.901500
C1631	C163	0.397900	0.518100	0.844400
H1421	H142	0.388300	0.534500	0.812600
C1641	C164	0.361500	0.464200	0.989600
H1431	H143	0.342600	0.454500	0.961600
H1441	H144	0.352600	0.481200	0.024700
Mn131	Mn13	0.614190	0.970270	0.528180
O371	O37	0.652030	0.990320	0.563050
O381	O38	0.615920	0.053000	0.388920
O391	O39	0.573480	0.955450	0.481010
N331	N33	0.606970	0.006120	0.457300
N341	N34	0.576710	0.003940	0.414700
N351	N35	0.641870	0.938640	0.442400
C1651	C165	0.669360	0.015900	0.534600
C1661	C166	0.700470	0.022640	0.566000
H1451	H145	0.708700	0.009100	0.606100
C1671	C167	0.719320	0.048480	0.539700
H1461	H146	0.740200	0.052800	0.562400
C1681	C168	0.708480	0.068240	0.480700
H1471	H147	0.722100	0.085400	0.461200
C1691	C169	0.677810	0.062670	0.450900
H1481	H148	0.669900	0.077000	0.412100
C1701	C170	0.657470	0.036510	0.475300
C1711	C171	0.625230	0.032000	0.438500
C1721	C172	0.561990	0.976380	0.432000
C1731	C173	0.529790	0.967120	0.393500
H1491	H149	0.520100	0.986700	0.368000
H1501	H150	0.513700	0.959000	0.431700
C1741	C174	0.665460	0.918270	0.462800
H1511	H151	0.671400	0.917800	0.515100
C1751	C175	0.682210	0.897530	0.414500
H1521	H152	0.700200	0.884500	0.432000
C1761	C176	0.672010	0.896240	0.339400
C1771	C177	0.647470	0.917790	0.318800
H1531	H153	0.640000	0.918000	0.267600
C1781	C178	0.633890	0.938310	0.368400
H1541	H154	0.617700	0.953500	0.350700
C1791	C179	0.688300	0.872810	0.284300
H1551	H155	0.698000	0.854000	0.313000
H1561	H156	0.671300	0.863800	0.249400
Mn141	Mn14	0.574690	0.045730	0.332030
O401	O40	0.596310	0.020280	0.258400
O411	O41	0.495920	0.025690	0.187830
O421	O42	0.545690	0.070680	0.399070
N361	N36	0.533100	0.039110	0.280200
N371	N37	0.505520	0.055070	0.315720
C1801	C180	0.583760	0.003570	0.200700
C1811	C181	0.606300	0.983200	0.160300
H1571	H157	0.628700	0.982200	0.176100
C1821	C182	0.596600	0.965700	0.101700
H1581	H158	0.609100	0.947100	0.085300
C1831	C183	0.567700	0.974800	0.063800
H1591	H159	0.565200	0.972700	0.010200
C1841	C184	0.541900	0.987800	0.112400
H1601	H160	0.519100	0.984500	0.101000
C1851	C185	0.551730	0.005290	0.176200
C1861	C186	0.525630	0.024680	0.216400
C1871	C187	0.515420	0.070430	0.376300
C1881	C188	0.489440	0.088150	0.422800
H1611	H161	0.475100	0.071400	0.447400
H1621	H162	0.475400	0.101400	0.388100
C1891	C189	0.503500	0.111100	0.484500
H1631	H163	0.517200	0.098200	0.519800
H1641	H164	0.485200	0.121400	0.512500
H1651	H165	0.517000	0.128400	0.460600
Mn151	Mn15	0.540780	0.961510	0.744490
O431	O43	0.548680	0.919350	0.782730
O441	O44	0.616190	0.932290	0.599060
O451	O45	0.538590	0.004230	0.694910
N381	N38	0.576130	0.956710	0.671320
N391	N39	0.582130	0.985220	0.626900
C1901	C190	0.570740	0.896930	0.761300
C1911	C191	0.571110	0.866680	0.800400
H1661	H166	0.555600	0.863100	0.840300
C1921	C192	0.593400	0.841900	0.782300
H1671	H167	0.592900	0.821500	0.809400
C1931	C193	0.615880	0.846510	0.726400
H1681	H168	0.631900	0.829900	0.715900
C1941	C194	0.615360	0.875340	0.684800
H1691	H169	0.630500	0.877800	0.643800
C1951	C195	0.593350	0.901140	0.701000
C1961	C196	0.595390	0.930840	0.654300
C1971	C197	0.561260	0.008110	0.643700
C1981	C198	0.564420	0.041650	0.607400
H1701	H170	0.544900	0.045700	0.574800
H1711	H171	0.584300	0.041900	0.574500
C1991	C199	0.567100	0.068880	0.665100
H1721	H172	0.587200	0.065700	0.695600
H1731	H173	0.568300	0.090300	0.638900
H1741	H174	0.547600	0.068500	0.698400
N401	N40	0.763490	0.824080	0.081400
C2001	C200	0.733010	0.813720	0.110300
H1751	H175	0.725400	0.791800	0.101000
C2011	C201	0.713600	0.835600	0.153000
H1761	H176	0.690800	0.831700	0.162300
C2021	C202	0.730900	0.865500	0.183100
C2031	C203	0.755000	0.874300	0.145500
H1771	H177	0.764200	0.895800	0.151500
C2041	C204	0.768100	0.852100	0.094400
H1781	H178	0.784500	0.861700	0.062600
C2051	C205	0.714200	0.888500	0.239600
H1791	H179	0.704500	0.907400	0.211600
H1801	H180	0.731200	0.897400	0.274700
Mn161	Mn16	0.114190	0.470270	0.028180
O461	O46	0.152030	0.490320	0.063050
O471	O47	0.115920	0.553000	0.888920
O481	O48	0.073480	0.455450	0.981010
N411	N41	0.106970	0.506120	0.957300
N421	N42	0.076710	0.503940	0.914700
N431	N43	0.141870	0.438640	0.942400
C2061	C206	0.169360	0.515900	0.034600
C2071	C207	0.200470	0.522640	0.066000
H1811	H181	0.208700	0.509100	0.106100
C2081	C208	0.219320	0.548480	0.039700
H1821	H182	0.240200	0.552800	0.062400
C2091	C209	0.208480	0.568240	0.980700
H1831	H183	0.222100	0.585400	0.961200
C2101	C210	0.177810	0.562670	0.950900
H1841	H184	0.169900	0.577000	0.912100
C2111	C211	0.157470	0.536510	0.975300
C2121	C212	0.125230	0.532000	0.938500
C2131	C213	0.061990	0.476380	0.932000
C2141	C214	0.029790	0.467120	0.893500
H1851	H185	0.020100	0.486700	0.868000
H1861	H186	0.013700	0.459000	0.931700
C2151	C215	0.165460	0.418270	0.962800
H1871	H187	0.171400	0.417800	0.015100
C2161	C216	0.182210	0.397530	0.914500
H1881	H188	0.200200	0.384500	0.932000
C2171	C217	0.172010	0.396240	0.839400
C2181	C218	0.147470	0.417790	0.818800
H1891	H189	0.140000	0.418000	0.767600
C2191	C219	0.133890	0.438310	0.868400
H1901	H190	0.117700	0.453500	0.850700
C2201	C220	0.188300	0.372810	0.784300
H1911	H191	0.198000	0.354000	0.813000
H1921	H192	0.171300	0.363800	0.749400
Mn171	Mn17	0.074690	0.545730	0.832030
O491	O49	0.096310	0.520280	0.758400
O501	O50	0.995920	0.525690	0.687830
O511	O51	0.045690	0.570680	0.899070
N441	N44	0.033100	0.539110	0.780200
N451	N45	0.005520	0.555070	0.815720
C2211	C221	0.083760	0.503570	0.700700
C2221	C222	0.106300	0.483200	0.660300
H1931	H193	0.128700	0.482200	0.676100
C2231	C223	0.096600	0.465700	0.601700
H1941	H194	0.109100	0.447100	0.585300
C2241	C224	0.067700	0.474800	0.563800
H1951	H195	0.065200	0.472700	0.510200
C2251	C225	0.041900	0.487800	0.612400
H1961	H196	0.019100	0.484500	0.601000
C2261	C226	0.051730	0.505290	0.676200
C2271	C227	0.025630	0.524680	0.716400
C2281	C228	0.015420	0.570430	0.876300
C2291	C229	0.989440	0.588150	0.922800
H1971	H197	0.975100	0.571400	0.947400
H1981	H198	0.975400	0.601400	0.888100
C2301	C230	0.003500	0.611100	0.984500
H1991	H199	0.017200	0.598200	0.019800
H2001	H200	0.985200	0.621400	0.012500
H2011	H201	0.017000	0.628400	0.960600
Mn181	Mn18	0.040780	0.461510	0.244490
O521	O52	0.048680	0.419350	0.282730
O531	O53	0.116190	0.432290	0.099060
O541	O54	0.038590	0.504230	0.194910
N461	N46	0.076130	0.456710	0.171320
N471	N47	0.082130	0.485220	0.126900
C2311	C231	0.070740	0.396930	0.261300
C2321	C232	0.071110	0.366680	0.300400
H2021	H202	0.055600	0.363100	0.340300
C2331	C233	0.093400	0.341900	0.282300
H2031	H203	0.092900	0.321500	0.309400
C2341	C234	0.115880	0.346510	0.226400
H2041	H204	0.131900	0.329900	0.215900
C2351	C235	0.115360	0.375340	0.184800
H2051	H205	0.130500	0.377800	0.143800
C2361	C236	0.093350	0.401140	0.201000
C2371	C237	0.095390	0.430840	0.154300
C2381	C238	0.061260	0.508110	0.143700
C2391	C239	0.064420	0.541650	0.107400
H2061	H206	0.044900	0.545700	0.074800
H2071	H207	0.084300	0.541900	0.074500
C2401	C240	0.067100	0.568880	0.165100
H2081	H208	0.087200	0.565700	0.195600
H2091	H209	0.068300	0.590300	0.138900
H2101	H210	0.047600	0.568500	0.198400
N481	N48	0.263490	0.324080	0.581400
C2411	C241	0.233010	0.313720	0.610300
H2111	H211	0.225400	0.291800	0.601000
C2421	C242	0.213600	0.335600	0.653000
H2121	H212	0.190800	0.331700	0.662300
C2431	C243	0.230900	0.365500	0.683100
C2441	C244	0.255000	0.374300	0.645500
H2131	H213	0.264200	0.395800	0.651500
C2451	C245	0.268100	0.352100	0.594400
H2141	H214	0.284500	0.361700	0.562600
C2461	C246	0.214200	0.388500	0.739600
H2151	H215	0.204500	0.407400	0.711600
H2161	H216	0.231200	0.397400	0.774700
Mn191	Mn19	0.885810	0.029730	0.028180
O551	O55	0.847970	0.009680	0.063050
O561	O56	0.884080	0.947000	0.888920
O571	O57	0.926520	0.044550	0.981010
N491	N49	0.893030	0.993880	0.957300
N501	N50	0.923290	0.996060	0.914700
N511	N51	0.858130	0.061360	0.942400
C2471	C247	0.830640	0.984100	0.034600
C2481	C248	0.799530	0.977360	0.066000
H2171	H217	0.791300	0.990900	0.106100
C2491	C249	0.780680	0.951520	0.039700
H2181	H218	0.759800	0.947200	0.062400
C2501	C250	0.791520	0.931760	0.980700
H2191	H219	0.777900	0.914600	0.961200
C2511	C251	0.822190	0.937330	0.950900
H2201	H220	0.830100	0.923000	0.912100
C2521	C252	0.842530	0.963490	0.975300
C2531	C253	0.874770	0.968000	0.938500
C2541	C254	0.938010	0.023620	0.932000
C2551	C255	0.970210	0.032880	0.893500
H2211	H221	0.979900	0.013300	0.868000
H2221	H222	0.986300	0.041000	0.931700
C2561	C256	0.834540	0.081730	0.962800
H2231	H223	0.828600	0.082200	0.015100
C2571	C257	0.817790	0.102470	0.914500
H2241	H224	0.799800	0.115500	0.932000
C2581	C258	0.827990	0.103760	0.839400
C2591	C259	0.852530	0.082210	0.818800
H2251	H225	0.860000	0.082000	0.767600
C2601	C260	0.866110	0.061690	0.868400
H2261	H226	0.882300	0.046500	0.850700
C2611	C261	0.811700	0.127190	0.784300
H2271	H227	0.802000	0.146000	0.813000
H2281	H228	0.828700	0.136200	0.749400
Mn201	Mn20	0.925310	0.954270	0.832030
O581	O58	0.903690	0.979720	0.758400
O591	O59	0.004080	0.974310	0.687830
O601	O60	0.954310	0.929320	0.899070
N521	N52	0.966900	0.960890	0.780200
N531	N53	0.994480	0.944930	0.815720
C2621	C262	0.916240	0.996430	0.700700
C2631	C263	0.893700	0.016800	0.660300
H2291	H229	0.871300	0.017800	0.676100
C2641	C264	0.903400	0.034300	0.601700
H2301	H230	0.890900	0.052900	0.585300
C2651	C265	0.932300	0.025200	0.563800
H2311	H231	0.934800	0.027300	0.510200
C2661	C266	0.958100	0.012200	0.612400
H2321	H232	0.980900	0.015500	0.601000
C2671	C267	0.948270	0.994710	0.676200
C2681	C268	0.974370	0.975320	0.716400
C2691	C269	0.984580	0.929570	0.876300
C2701	C270	0.010560	0.911850	0.922800
H2331	H233	0.024900	0.928600	0.947400
H2341	H234	0.024600	0.898600	0.888100
C2711	C271	0.996500	0.888900	0.984500
H2351	H235	0.982800	0.901800	0.019800
H2361	H236	0.014800	0.878600	0.012500
H2371	H237	0.983000	0.871600	0.960600
Mn211	Mn21	0.959220	0.038490	0.244490
O611	O61	0.951320	0.080650	0.282730
O621	O62	0.883810	0.067710	0.099060
O631	O63	0.961410	0.995770	0.194910
N541	N54	0.923870	0.043290	0.171320
N551	N55	0.917870	0.014780	0.126900
C2721	C272	0.929260	0.103070	0.261300
C2731	C273	0.928890	0.133320	0.300400
H2381	H238	0.944400	0.136900	0.340300
C2741	C274	0.906600	0.158100	0.282300
H2391	H239	0.907100	0.178500	0.309400
C2751	C275	0.884120	0.153490	0.226400
H2401	H240	0.868100	0.170100	0.215900
C2761	C276	0.884640	0.124660	0.184800
H2411	H241	0.869500	0.122200	0.143800
C2771	C277	0.906650	0.098860	0.201000
C2781	C278	0.904610	0.069160	0.154300
C2791	C279	0.938740	0.991890	0.143700
C2801	C280	0.935580	0.958350	0.107400
H2421	H242	0.955100	0.954300	0.074800
H2431	H243	0.915700	0.958100	0.074500
C2811	C281	0.932900	0.931120	0.165100
H2441	H244	0.912800	0.934300	0.195600
H2451	H245	0.931700	0.909700	0.138900
H2461	H246	0.952400	0.931500	0.198400
N561	N56	0.736510	0.175920	0.581400
C2821	C282	0.766990	0.186280	0.610300
H2471	H247	0.774600	0.208200	0.601000
C2831	C283	0.786400	0.164400	0.653000
H2481	H248	0.809200	0.168300	0.662300
C2841	C284	0.769100	0.134500	0.683100
C2851	C285	0.745000	0.125700	0.645500
H2491	H249	0.735800	0.104200	0.651500
C2861	C286	0.731900	0.147900	0.594400
H2501	H250	0.715500	0.138300	0.562600
C2871	C287	0.785800	0.111500	0.739600
H2511	H251	0.795500	0.092600	0.711600
H2521	H252	0.768800	0.102600	0.774700
Mn221	Mn22	0.385810	0.529730	0.528180
O641	O64	0.347970	0.509680	0.563050
O651	O65	0.384080	0.447000	0.388920
O661	O66	0.426520	0.544550	0.481010
N571	N57	0.393030	0.493880	0.457300
N581	N58	0.423290	0.496060	0.414700
N591	N59	0.358130	0.561360	0.442400
C2881	C288	0.330640	0.484100	0.534600
C2891	C289	0.299530	0.477360	0.566000
H2531	H253	0.291300	0.490900	0.606100
C2901	C290	0.280680	0.451520	0.539700
H2541	H254	0.259800	0.447200	0.562400
C2911	C291	0.291520	0.431760	0.480700
H2551	H255	0.277900	0.414600	0.461200
C2921	C292	0.322190	0.437330	0.450900
H2561	H256	0.330100	0.423000	0.412100
C2931	C293	0.342530	0.463490	0.475300
C2941	C294	0.374770	0.468000	0.438500
C2951	C295	0.438010	0.523620	0.432000
C2961	C296	0.470210	0.532880	0.393500
H2571	H257	0.479900	0.513300	0.368000
H2581	H258	0.486300	0.541000	0.431700
C2971	C297	0.334540	0.581730	0.462800
H2591	H259	0.328600	0.582200	0.515100
C2981	C298	0.317790	0.602470	0.414500
H2601	H260	0.299800	0.615500	0.432000
C2991	C299	0.327990	0.603760	0.339400
C3001	C300	0.352530	0.582210	0.318800
H2611	H261	0.360000	0.582000	0.267600
C3011	C301	0.366110	0.561690	0.368400
H2621	H262	0.382300	0.546500	0.350700
C3021	C302	0.311700	0.627190	0.284300
H2631	H263	0.302000	0.646000	0.313000
H2641	H264	0.328700	0.636200	0.249400
Mn231	Mn23	0.425310	0.454270	0.332030
O671	O67	0.403690	0.479720	0.258400
O681	O68	0.504080	0.474310	0.187830
O691	O69	0.454310	0.429320	0.399070
N601	N60	0.466900	0.460890	0.280200
N611	N61	0.494480	0.444930	0.315720
C3031	C303	0.416240	0.496430	0.200700
C3041	C304	0.393700	0.516800	0.160300
H2651	H265	0.371300	0.517800	0.176100
C3051	C305	0.403400	0.534300	0.101700
H2661	H266	0.390900	0.552900	0.085300
C3061	C306	0.432300	0.525200	0.063800
H2671	H267	0.434800	0.527300	0.010200
C3071	C307	0.458100	0.512200	0.112400
H2681	H268	0.480900	0.515500	0.101000
C3081	C308	0.448270	0.494710	0.176200
C3091	C309	0.474370	0.475320	0.216400
C3101	C310	0.484580	0.429570	0.376300
C3111	C311	0.510560	0.411850	0.422800
H2691	H269	0.524900	0.428600	0.447400
H2701	H270	0.524600	0.398600	0.388100
C3121	C312	0.496500	0.388900	0.484500
H2711	H271	0.482800	0.401800	0.519800
H2721	H272	0.514800	0.378600	0.512500
H2731	H273	0.483000	0.371600	0.460600
Mn241	Mn24	0.459220	0.538490	0.744490
O701	O70	0.451320	0.580650	0.782730
O711	O71	0.383810	0.567710	0.599060
O721	O72	0.461410	0.495770	0.694910
N621	N62	0.423870	0.543290	0.671320
N631	N63	0.417870	0.514780	0.626900
C3131	C313	0.429260	0.603070	0.761300
C3141	C314	0.428890	0.633320	0.800400
H2741	H274	0.444400	0.636900	0.840300
C3151	C315	0.406600	0.658100	0.782300
H2751	H275	0.407100	0.678500	0.809400
C3161	C316	0.384120	0.653490	0.726400
H2761	H276	0.368100	0.670100	0.715900
C3171	C317	0.384640	0.624660	0.684800
H2771	H277	0.369500	0.622200	0.643800
C3181	C318	0.406650	0.598860	0.701000
C3191	C319	0.404610	0.569160	0.654300
C3201	C320	0.438740	0.491890	0.643700
C3211	C321	0.435580	0.458350	0.607400
H2781	H278	0.455100	0.454300	0.574800
H2791	H279	0.415700	0.458100	0.574500
C3221	C322	0.432900	0.431120	0.665100
H2801	H280	0.412800	0.434300	0.695600
H2811	H281	0.431700	0.409700	0.638900
H2821	H282	0.452400	0.431500	0.698400
N641	N64	0.236510	0.675920	0.081400
C3231	C323	0.266990	0.686280	0.110300
H2831	H283	0.274600	0.708200	0.101000
C3241	C324	0.286400	0.664400	0.153000
H2841	H284	0.309200	0.668300	0.162300
C3251	C325	0.269100	0.634500	0.183100
C3261	C326	0.245000	0.625700	0.145500
H2851	H285	0.235800	0.604200	0.151500
C3271	C327	0.231900	0.647900	0.094400
H2861	H286	0.215500	0.638300	0.062600
C3281	C328	0.285800	0.611500	0.239600
H2871	H287	0.295500	0.592600	0.211600
H2881	H288	0.268800	0.602600	0.274700
Mn251	Mn25	0.279730	0.864190	0.721820
O731	O73	0.259680	0.902030	0.686950
O741	O74	0.197000	0.865920	0.861080
O751	O75	0.294550	0.823480	0.768990
N651	N65	0.243880	0.856970	0.792700
N661	N66	0.246060	0.826710	0.835300
N671	N67	0.311360	0.891870	0.807600
C3291	C329	0.234100	0.919360	0.715400
C3301	C330	0.227360	0.950470	0.684000
H2891	H289	0.240900	0.958700	0.643900
C3311	C331	0.201520	0.969320	0.710300
H2901	H290	0.197200	0.990200	0.687600
C3321	C332	0.181760	0.958480	0.769300
H2911	H291	0.164600	0.972100	0.788800
C3331	C333	0.187330	0.927810	0.799100
H2921	H292	0.173000	0.919900	0.837900
C3341	C334	0.213490	0.907470	0.774700
C3351	C335	0.218000	0.875230	0.811500
C3361	C336	0.273620	0.811990	0.818000
C3371	C337	0.282880	0.779790	0.856500
H2931	H293	0.263300	0.770100	0.882000
H2941	H294	0.291000	0.763700	0.818300
C3381	C338	0.331730	0.915460	0.787200
H2951	H295	0.332200	0.921400	0.734900
C3391	C339	0.352470	0.932210	0.835500
H2961	H296	0.365500	0.950200	0.818000
C3401	C340	0.353760	0.922010	0.910600
C3411	C341	0.332210	0.897470	0.931200
H2971	H297	0.332000	0.890000	0.982400
C3421	C342	0.311690	0.883890	0.881600
H2981	H298	0.296500	0.867700	0.899300
C3431	C343	0.377190	0.938300	0.965700
H2991	H299	0.396000	0.948000	0.937000
H3001	H300	0.386200	0.921300	0.000600
Mn261	Mn26	0.204270	0.824690	0.917970
O761	O76	0.229720	0.846310	0.991600
O771	O77	0.224310	0.745920	0.062170
O781	O78	0.179320	0.795690	0.850930
N681	N68	0.210890	0.783100	0.969800
N691	N69	0.194930	0.755520	0.934280
C3441	C344	0.246430	0.833760	0.049300
C3451	C345	0.266800	0.856300	0.089700
H3011	H301	0.267800	0.878700	0.073900
C3461	C346	0.284300	0.846600	0.148300
H3021	H302	0.302900	0.859100	0.164700
C3471	C347	0.275200	0.817700	0.186200
H3031	H303	0.277300	0.815200	0.239800
C3481	C348	0.262200	0.791900	0.137600
H3041	H304	0.265500	0.769100	0.149000
C3491	C349	0.244710	0.801730	0.073800
C3501	C350	0.225320	0.775630	0.033600
C3511	C351	0.179570	0.765420	0.873700
C3521	C352	0.161850	0.739440	0.827200
H3051	H305	0.178600	0.725100	0.802600
H3061	H306	0.148600	0.725400	0.861900
C3531	C353	0.138900	0.753500	0.765500
H3071	H307	0.151800	0.767200	0.730200
H3081	H308	0.128600	0.735200	0.737500
H3091	H309	0.121600	0.767000	0.789400
Mn271	Mn27	0.288490	0.790780	0.505510
O791	O79	0.330650	0.798680	0.467270
O801	O80	0.317710	0.866190	0.650940
O811	O81	0.245770	0.788590	0.555090
N701	N70	0.293290	0.826130	0.578680
N711	N71	0.264780	0.832130	0.623100
C3541	C354	0.353070	0.820740	0.488700
C3551	C355	0.383320	0.821110	0.449600
H3101	H310	0.386900	0.805600	0.409700
C3561	C356	0.408100	0.843400	0.467700
H3111	H311	0.428500	0.842900	0.440600
C3571	C357	0.403490	0.865880	0.523600
H3121	H312	0.420100	0.881900	0.534100
C3581	C358	0.374660	0.865360	0.565200
H3131	H313	0.372200	0.880500	0.606200
C3591	C359	0.348860	0.843350	0.549000
C3601	C360	0.319160	0.845390	0.595700
C3611	C361	0.241890	0.811260	0.606300
C3621	C362	0.208350	0.814420	0.642600
H3141	H314	0.204300	0.794900	0.675200
H3151	H315	0.208100	0.834300	0.675500
C3631	C363	0.181120	0.817100	0.584900
H3161	H316	0.184300	0.837200	0.554400
H3171	H317	0.159700	0.818300	0.611100
H3181	H318	0.181500	0.797600	0.551600
N721	N72	0.425920	0.013490	0.168600
C3641	C364	0.436280	0.983010	0.139700
H3191	H319	0.458200	0.975400	0.149000
C3651	C365	0.414400	0.963600	0.097000
H3201	H320	0.418300	0.940800	0.087700
C3661	C366	0.384500	0.980900	0.066900
C3671	C367	0.375700	0.005000	0.104500
H3211	H321	0.354200	0.014200	0.098500
C3681	C368	0.397900	0.018100	0.155600
H3221	H322	0.388300	0.034500	0.187400
C3691	C369	0.361500	0.964200	0.010400
H3231	H323	0.342600	0.954500	0.038400
H3241	H324	0.352600	0.981200	0.975300
Mn281	Mn28	0.779730	0.364190	0.221820
O821	O82	0.759680	0.402030	0.186950
O831	O83	0.697000	0.365920	0.361080
O841	O84	0.794550	0.323480	0.268990
N731	N73	0.743880	0.356970	0.292700
N741	N74	0.746060	0.326710	0.335300
N751	N75	0.811360	0.391870	0.307600
C3701	C370	0.734100	0.419360	0.215400
C3711	C371	0.727360	0.450470	0.184000
H3251	H325	0.740900	0.458700	0.143900
C3721	C372	0.701520	0.469320	0.210300
H3261	H326	0.697200	0.490200	0.187600
C3731	C373	0.681760	0.458480	0.269300
H3271	H327	0.664600	0.472100	0.288800
C3741	C374	0.687330	0.427810	0.299100
H3281	H328	0.673000	0.419900	0.337900
C3751	C375	0.713490	0.407470	0.274700
C3761	C376	0.718000	0.375230	0.311500
C3771	C377	0.773620	0.311990	0.318000
C3781	C378	0.782880	0.279790	0.356500
H3291	H329	0.763300	0.270100	0.382000
H3301	H330	0.791000	0.263700	0.318300
C3791	C379	0.831730	0.415460	0.287200
H3311	H331	0.832200	0.421400	0.234900
C3801	C380	0.852470	0.432210	0.335500
H3321	H332	0.865500	0.450200	0.318000
C3811	C381	0.853760	0.422010	0.410600
C3821	C382	0.832210	0.397470	0.431200
H3331	H333	0.832000	0.390000	0.482400
C3831	C383	0.811690	0.383890	0.381600
H3341	H334	0.796500	0.367700	0.399300
C3841	C384	0.877190	0.438300	0.465700
H3351	H335	0.896000	0.448000	0.437000
H3361	H336	0.886200	0.421300	0.500600
Mn291	Mn29	0.704270	0.324690	0.417970
O851	O85	0.729720	0.346310	0.491600
O861	O86	0.724310	0.245920	0.562170
O871	O87	0.679320	0.295690	0.350930
N761	N76	0.710890	0.283100	0.469800
N771	N77	0.694930	0.255520	0.434280
C3851	C385	0.746430	0.333760	0.549300
C3861	C386	0.766800	0.356300	0.589700
H3371	H337	0.767800	0.378700	0.573900
C3871	C387	0.784300	0.346600	0.648300
H3381	H338	0.802900	0.359100	0.664700
C3881	C388	0.775200	0.317700	0.686200
H3391	H339	0.777300	0.315200	0.739800
C3891	C389	0.762200	0.291900	0.637600
H3401	H340	0.765500	0.269100	0.649000
C3901	C390	0.744710	0.301730	0.573800
C3911	C391	0.725320	0.275630	0.533600
C3921	C392	0.679570	0.265420	0.373700
C3931	C393	0.661850	0.239440	0.327200
H3411	H341	0.678600	0.225100	0.302600
H3421	H342	0.648600	0.225400	0.361900
C3941	C394	0.638900	0.253500	0.265500
H3431	H343	0.651800	0.267200	0.230200
H3441	H344	0.628600	0.235200	0.237500
H3451	H345	0.621600	0.267000	0.289400
Mn301	Mn30	0.788490	0.290780	0.005510
O881	O88	0.830650	0.298680	0.967270
O891	O89	0.817710	0.366190	0.150940
O901	O90	0.745770	0.288590	0.055090
N781	N78	0.793290	0.326130	0.078680
N791	N79	0.764780	0.332130	0.123100
C3951	C395	0.853070	0.320740	0.988700
C3961	C396	0.883320	0.321110	0.949600
H3461	H346	0.886900	0.305600	0.909700
C3971	C397	0.908100	0.343400	0.967700
H3471	H347	0.928500	0.342900	0.940600
C3981	C398	0.903490	0.365880	0.023600
H3481	H348	0.920100	0.381900	0.034100
C3991	C399	0.874660	0.365360	0.065200
H3491	H349	0.872200	0.380500	0.106200
C4001	C400	0.848860	0.343350	0.049000
C4011	C401	0.819160	0.345390	0.095700
C4021	C402	0.741890	0.311260	0.106300
C4031	C403	0.708350	0.314420	0.142600
H3501	H350	0.704300	0.294900	0.175200
H3511	H351	0.708100	0.334300	0.175500
C4041	C404	0.681120	0.317100	0.084900
H3521	H352	0.684300	0.337200	0.054400
H3531	H353	0.659700	0.318300	0.111100
H3541	H354	0.681500	0.297600	0.051600
N801	N80	0.925920	0.513490	0.668600
C4051	C405	0.936280	0.483010	0.639700
H3551	H355	0.958200	0.475400	0.649000
C4061	C406	0.914400	0.463600	0.597000
H3561	H356	0.918300	0.440800	0.587700
C4071	C407	0.884500	0.480900	0.566900
C4081	C408	0.875700	0.505000	0.604500
H3571	H357	0.854200	0.514200	0.598500
C4091	C409	0.897900	0.518100	0.655600
H3581	H358	0.888300	0.534500	0.687400
C4101	C410	0.861500	0.464200	0.510400
H3591	H359	0.842600	0.454500	0.538400
H3601	H360	0.852600	0.481200	0.475300
Mn311	Mn31	0.220270	0.135810	0.221820
O911	O91	0.240320	0.097970	0.186950
O921	O92	0.303000	0.134080	0.361080
O931	O93	0.205450	0.176520	0.268990
N811	N81	0.256120	0.143030	0.292700
N821	N82	0.253940	0.173290	0.335300
N831	N83	0.188640	0.108130	0.307600
C4111	C411	0.265900	0.080640	0.215400
C4121	C412	0.272640	0.049530	0.184000
H3611	H361	0.259100	0.041300	0.143900
C4131	C413	0.298480	0.030680	0.210300
H3621	H362	0.302800	0.009800	0.187600
C4141	C414	0.318240	0.041520	0.269300
H3631	H363	0.335400	0.027900	0.288800
C4151	C415	0.312670	0.072190	0.299100
H3641	H364	0.327000	0.080100	0.337900
C4161	C416	0.286510	0.092530	0.274700
C4171	C417	0.282000	0.124770	0.311500
C4181	C418	0.226380	0.188010	0.318000
C4191	C419	0.217120	0.220210	0.356500
H3651	H365	0.236700	0.229900	0.382000
H3661	H366	0.209000	0.236300	0.318300
C4201	C420	0.168270	0.084540	0.287200
H3671	H367	0.167800	0.078600	0.234900
C4211	C421	0.147530	0.067790	0.335500
H3681	H368	0.134500	0.049800	0.318000
C4221	C422	0.146240	0.077990	0.410600
C4231	C423	0.167790	0.102530	0.431200
H3691	H369	0.168000	0.110000	0.482400
C4241	C424	0.188310	0.116110	0.381600
H3701	H370	0.203500	0.132300	0.399300
C4251	C425	0.122810	0.061700	0.465700
H3711	H371	0.104000	0.052000	0.437000
H3721	H372	0.113800	0.078700	0.500600
Mn321	Mn32	0.295730	0.175310	0.417970
O941	O94	0.270280	0.153690	0.491600
O951	O95	0.275690	0.254080	0.562170
O961	O96	0.320680	0.204310	0.350930
N841	N84	0.289110	0.216900	0.469800
N851	N85	0.305070	0.244480	0.434280
C4261	C426	0.253570	0.166240	0.549300
C4271	C427	0.233200	0.143700	0.589700
H3731	H373	0.232200	0.121300	0.573900
C4281	C428	0.215700	0.153400	0.648300
H3741	H374	0.197100	0.140900	0.664700
C4291	C429	0.224800	0.182300	0.686200
H3751	H375	0.222700	0.184800	0.739800
C4301	C430	0.237800	0.208100	0.637600
H3761	H376	0.234500	0.230900	0.649000
C4311	C431	0.255290	0.198270	0.573800
C4321	C432	0.274680	0.224370	0.533600
C4331	C433	0.320430	0.234580	0.373700
C4341	C434	0.338150	0.260560	0.327200
H3771	H377	0.321400	0.274900	0.302600
H3781	H378	0.351400	0.274600	0.361900
C4351	C435	0.361100	0.246500	0.265500
H3791	H379	0.348200	0.232800	0.230200
H3801	H380	0.371400	0.264800	0.237500
H3811	H381	0.378400	0.233000	0.289400
Mn331	Mn33	0.211510	0.209220	0.005510
O971	O97	0.169350	0.201320	0.967270
O981	O98	0.182290	0.133810	0.150940
O991	O99	0.254230	0.211410	0.055090
N861	N86	0.206710	0.173870	0.078680
N871	N87	0.235220	0.167870	0.123100
C4361	C436	0.146930	0.179260	0.988700
C4371	C437	0.116680	0.178890	0.949600
H3821	H382	0.113100	0.194400	0.909700
C4381	C438	0.091900	0.156600	0.967700
H3831	H383	0.071500	0.157100	0.940600
C4391	C439	0.096510	0.134120	0.023600
H3841	H384	0.079900	0.118100	0.034100
C4401	C440	0.125340	0.134640	0.065200
H3851	H385	0.127800	0.119500	0.106200
C4411	C441	0.151140	0.156650	0.049000
C4421	C442	0.180840	0.154610	0.095700
C4431	C443	0.258110	0.188740	0.106300
C4441	C444	0.291650	0.185580	0.142600
H3861	H386	0.295700	0.205100	0.175200
H3871	H387	0.291900	0.165700	0.175500
C4451	C445	0.318880	0.182900	0.084900
H3881	H388	0.315700	0.162800	0.054400
H3891	H389	0.340300	0.181700	0.111100
H3901	H390	0.318500	0.202400	0.051600
N881	N88	0.074080	0.986510	0.668600
C4461	C446	0.063720	0.016990	0.639700
H3911	H391	0.041800	0.024600	0.649000
C4471	C447	0.085600	0.036400	0.597000
H3921	H392	0.081700	0.059200	0.587700
C4481	C448	0.115500	0.019100	0.566900
C4491	C449	0.124300	0.995000	0.604500
H3931	H393	0.145800	0.985800	0.598500
C4501	C450	0.102100	0.981900	0.655600
H3941	H394	0.111700	0.965500	0.687400
C4511	C451	0.138500	0.035800	0.510400
H3951	H395	0.157400	0.045500	0.538400
H3961	H396	0.147400	0.018800	0.475300
Mn341	Mn34	0.720270	0.635810	0.721820
O1001	O100	0.740320	0.597970	0.686950
O1011	O101	0.803000	0.634080	0.861080
O1021	O102	0.705450	0.676520	0.768990
N891	N89	0.756120	0.643030	0.792700
N901	N90	0.753940	0.673290	0.835300
N911	N91	0.688640	0.608130	0.807600
C4521	C452	0.765900	0.580640	0.715400
C4531	C453	0.772640	0.549530	0.684000
H3971	H397	0.759100	0.541300	0.643900
C4541	C454	0.798480	0.530680	0.710300
H3981	H398	0.802800	0.509800	0.687600
C4551	C455	0.818240	0.541520	0.769300
H3991	H399	0.835400	0.527900	0.788800
C4561	C456	0.812670	0.572190	0.799100
H4001	H400	0.827000	0.580100	0.837900
C4571	C457	0.786510	0.592530	0.774700
C4581	C458	0.782000	0.624770	0.811500
C4591	C459	0.726380	0.688010	0.818000
C4601	C460	0.717120	0.720210	0.856500
H4011	H401	0.736700	0.729900	0.882000
H4021	H402	0.709000	0.736300	0.818300
C4611	C461	0.668270	0.584540	0.787200
H4031	H403	0.667800	0.578600	0.734900
C4621	C462	0.647530	0.567790	0.835500
H4041	H404	0.634500	0.549800	0.818000
C4631	C463	0.646240	0.577990	0.910600
C4641	C464	0.667790	0.602530	0.931200
H4051	H405	0.668000	0.610000	0.982400
C4651	C465	0.688310	0.616110	0.881600
H4061	H406	0.703500	0.632300	0.899300
C4661	C466	0.622810	0.561700	0.965700
H4071	H407	0.604000	0.552000	0.937000
H4081	H408	0.613800	0.578700	0.000600
Mn351	Mn35	0.795730	0.675310	0.917970
O1031	O103	0.770280	0.653690	0.991600
O1041	O104	0.775690	0.754080	0.062170
O1051	O105	0.820680	0.704310	0.850930
N921	N92	0.789110	0.716900	0.969800
N931	N93	0.805070	0.744480	0.934280
C4671	C467	0.753570	0.666240	0.049300
C4681	C468	0.733200	0.643700	0.089700
H4091	H409	0.732200	0.621300	0.073900
C4691	C469	0.715700	0.653400	0.148300
H4101	H410	0.697100	0.640900	0.164700
C4701	C470	0.724800	0.682300	0.186200
H4111	H411	0.722700	0.684800	0.239800
C4711	C471	0.737800	0.708100	0.137600
H4121	H412	0.734500	0.730900	0.149000
C4721	C472	0.755290	0.698270	0.073800
C4731	C473	0.774680	0.724370	0.033600
C4741	C474	0.820430	0.734580	0.873700
C4751	C475	0.838150	0.760560	0.827200
H4131	H413	0.821400	0.774900	0.802600
H4141	H414	0.851400	0.774600	0.861900
C4761	C476	0.861100	0.746500	0.765500
H4151	H415	0.848200	0.732800	0.730200
H4161	H416	0.871400	0.764800	0.737500
H4171	H417	0.878400	0.733000	0.789400
Mn361	Mn36	0.711510	0.709220	0.505510
O1061	O106	0.669350	0.701320	0.467270
O1071	O107	0.682290	0.633810	0.650940
O1081	O108	0.754230	0.711410	0.555090
N941	N94	0.706710	0.673870	0.578680
N951	N95	0.735220	0.667870	0.623100
C4771	C477	0.646930	0.679260	0.488700
C4781	C478	0.616680	0.678890	0.449600
H4181	H418	0.613100	0.694400	0.409700
C4791	C479	0.591900	0.656600	0.467700
H4191	H419	0.571500	0.657100	0.440600
C4801	C480	0.596510	0.634120	0.523600
H4201	H420	0.579900	0.618100	0.534100
C4811	C481	0.625340	0.634640	0.565200
H4211	H421	0.627800	0.619500	0.606200
C4821	C482	0.651140	0.656650	0.549000
C4831	C483	0.680840	0.654610	0.595700
C4841	C484	0.758110	0.688740	0.606300
C4851	C485	0.791650	0.685580	0.642600
H4221	H422	0.795700	0.705100	0.675200
H4231	H423	0.791900	0.665700	0.675500
C4861	C486	0.818880	0.682900	0.584900
H4241	H424	0.815700	0.662800	0.554400
H4251	H425	0.840300	0.681700	0.611100
H4261	H426	0.818500	0.702400	0.551600
N961	N96	0.574080	0.486510	0.168600
C4871	C487	0.563720	0.516990	0.139700
H4271	H427	0.541800	0.524600	0.149000
C4881	C488	0.585600	0.536400	0.097000
H4281	H428	0.581700	0.559200	0.087700
C4891	C489	0.615500	0.519100	0.066900
C4901	C490	0.624300	0.495000	0.104500
H4291	H429	0.645800	0.485800	0.098500
C4911	C491	0.602100	0.481900	0.155600
H4301	H430	0.611700	0.465500	0.187400
C4921	C492	0.638500	0.535800	0.010400
H4311	H431	0.657400	0.545500	0.038400
H4321	H432	0.647400	0.518800	0.975300
Mn371	Mn37	0.385810	0.029730	0.471820
O1091	O109	0.347970	0.009680	0.436950
O1101	O110	0.384080	0.947000	0.611080
O1111	O111	0.426520	0.044550	0.518990
N971	N97	0.393030	0.993880	0.542700
N981	N98	0.423290	0.996060	0.585300
N991	N99	0.358130	0.061360	0.557600
C4931	C493	0.330640	0.984100	0.465400
C4941	C494	0.299530	0.977360	0.434000
H4331	H433	0.291300	0.990900	0.393900
C4951	C495	0.280680	0.951520	0.460300
H4341	H434	0.259800	0.947200	0.437600
C4961	C496	0.291520	0.931760	0.519300
H4351	H435	0.277900	0.914600	0.538800
C4971	C497	0.322190	0.937330	0.549100
H4361	H436	0.330100	0.923000	0.587900
C4981	C498	0.342530	0.963490	0.524700
C4991	C499	0.374770	0.968000	0.561500
C5001	C500	0.438010	0.023620	0.568000
C5011	C501	0.470210	0.032880	0.606500
H4371	H437	0.479900	0.013300	0.632000
H4381	H438	0.486300	0.041000	0.568300
C5021	C502	0.334540	0.081730	0.537200
H4391	H439	0.328600	0.082200	0.484900
C5031	C503	0.317790	0.102470	0.585500
H4401	H440	0.299800	0.115500	0.568000
C5041	C504	0.327990	0.103760	0.660600
C5051	C505	0.352530	0.082210	0.681200
H4411	H441	0.360000	0.082000	0.732400
C5061	C506	0.366110	0.061690	0.631600
H4421	H442	0.382300	0.046500	0.649300
C5071	C507	0.311700	0.127190	0.715700
H4431	H443	0.302000	0.146000	0.687000
H4441	H444	0.328700	0.136200	0.750600
Mn381	Mn38	0.425310	0.954270	0.667970
O1121	O112	0.403690	0.979720	0.741600
O1131	O113	0.504080	0.974310	0.812170
O1141	O114	0.454310	0.929320	0.600930
N1001	N100	0.466900	0.960890	0.719800
N1011	N101	0.494480	0.944930	0.684280
C5081	C508	0.416240	0.996430	0.799300
C5091	C509	0.393700	0.016800	0.839700
H4451	H445	0.371300	0.017800	0.823900
C5101	C510	0.403400	0.034300	0.898300
H4461	H446	0.390900	0.052900	0.914700
C5111	C511	0.432300	0.025200	0.936200
H4471	H447	0.434800	0.027300	0.989800
C5121	C512	0.458100	0.012200	0.887600
H4481	H448	0.480900	0.015500	0.899000
C5131	C513	0.448270	0.994710	0.823800
C5141	C514	0.474370	0.975320	0.783600
C5151	C515	0.484580	0.929570	0.623700
C5161	C516	0.510560	0.911850	0.577200
H4491	H449	0.524900	0.928600	0.552600
H4501	H450	0.524600	0.898600	0.611900
C5171	C517	0.496500	0.888900	0.515500
H4511	H451	0.482800	0.901800	0.480200
H4521	H452	0.514800	0.878600	0.487500
H4531	H453	0.483000	0.871600	0.539400
Mn391	Mn39	0.459220	0.038490	0.255510
O1151	O115	0.451320	0.080650	0.217270
O1161	O116	0.383810	0.067710	0.400940
O1171	O117	0.461410	0.995770	0.305090
N1021	N102	0.423870	0.043290	0.328680
N1031	N103	0.417870	0.014780	0.373100
C5181	C518	0.429260	0.103070	0.238700
C5191	C519	0.428890	0.133320	0.199600
H4541	H454	0.444400	0.136900	0.159700
C5201	C520	0.406600	0.158100	0.217700
H4551	H455	0.407100	0.178500	0.190600
C5211	C521	0.384120	0.153490	0.273600
H4561	H456	0.368100	0.170100	0.284100
C5221	C522	0.384640	0.124660	0.315200
H4571	H457	0.369500	0.122200	0.356200
C5231	C523	0.406650	0.098860	0.299000
C5241	C524	0.404610	0.069160	0.345700
C5251	C525	0.438740	0.991890	0.356300
C5261	C526	0.435580	0.958350	0.392600
H4581	H458	0.455100	0.954300	0.425200
H4591	H459	0.415700	0.958100	0.425500
C5271	C527	0.432900	0.931120	0.334900
H4601	H460	0.412800	0.934300	0.304400
H4611	H461	0.431700	0.909700	0.361100
H4621	H462	0.452400	0.931500	0.301600
N1041	N104	0.236510	0.175920	0.918600
C5281	C528	0.266990	0.186280	0.889700
H4631	H463	0.274600	0.208200	0.899000
C5291	C529	0.286400	0.164400	0.847000
H4641	H464	0.309200	0.168300	0.837700
C5301	C530	0.269100	0.134500	0.816900
C5311	C531	0.245000	0.125700	0.854500
H4651	H465	0.235800	0.104200	0.848500
C5321	C532	0.231900	0.147900	0.905600
H4661	H466	0.215500	0.138300	0.937400
C5331	C533	0.285800	0.111500	0.760400
H4671	H467	0.295500	0.092600	0.788400
H4681	H468	0.268800	0.102600	0.725300
Mn401	Mn40	0.885810	0.529730	0.971820
O1181	O118	0.847970	0.509680	0.936950
O1191	O119	0.884080	0.447000	0.111080
O1201	O120	0.926520	0.544550	0.018990
N1051	N105	0.893030	0.493880	0.042700
N1061	N106	0.923290	0.496060	0.085300
N1071	N107	0.858130	0.561360	0.057600
C5341	C534	0.830640	0.484100	0.965400
C5351	C535	0.799530	0.477360	0.934000
H4691	H469	0.791300	0.490900	0.893900
C5361	C536	0.780680	0.451520	0.960300
H4701	H470	0.759800	0.447200	0.937600
C5371	C537	0.791520	0.431760	0.019300
H4711	H471	0.777900	0.414600	0.038800
C5381	C538	0.822190	0.437330	0.049100
H4721	H472	0.830100	0.423000	0.087900
C5391	C539	0.842530	0.463490	0.024700
C5401	C540	0.874770	0.468000	0.061500
C5411	C541	0.938010	0.523620	0.068000
C5421	C542	0.970210	0.532880	0.106500
H4731	H473	0.979900	0.513300	0.132000
H4741	H474	0.986300	0.541000	0.068300
C5431	C543	0.834540	0.581730	0.037200
H4751	H475	0.828600	0.582200	0.984900
C5441	C544	0.817790	0.602470	0.085500
H4761	H476	0.799800	0.615500	0.068000
C5451	C545	0.827990	0.603760	0.160600
C5461	C546	0.852530	0.582210	0.181200
H4771	H477	0.860000	0.582000	0.232400
C5471	C547	0.866110	0.561690	0.131600
H4781	H478	0.882300	0.546500	0.149300
C5481	C548	0.811700	0.627190	0.215700
H4791	H479	0.802000	0.646000	0.187000
H4801	H480	0.828700	0.636200	0.250600
Mn411	Mn41	0.925310	0.454270	0.167970
O1211	O121	0.903690	0.479720	0.241600
O1221	O122	0.004080	0.474310	0.312170
O1231	O123	0.954310	0.429320	0.100930
N1081	N108	0.966900	0.460890	0.219800
N1091	N109	0.994480	0.444930	0.184280
C5491	C549	0.916240	0.496430	0.299300
C5501	C550	0.893700	0.516800	0.339700
H4811	H481	0.871300	0.517800	0.323900
C5511	C551	0.903400	0.534300	0.398300
H4821	H482	0.890900	0.552900	0.414700
C5521	C552	0.932300	0.525200	0.436200
H4831	H483	0.934800	0.527300	0.489800
C5531	C553	0.958100	0.512200	0.387600
H4841	H484	0.980900	0.515500	0.399000
C5541	C554	0.948270	0.494710	0.323800
C5551	C555	0.974370	0.475320	0.283600
C5561	C556	0.984580	0.429570	0.123700
C5571	C557	0.010560	0.411850	0.077200
H4851	H485	0.024900	0.428600	0.052600
H4861	H486	0.024600	0.398600	0.111900
C5581	C558	0.996500	0.388900	0.015500
H4871	H487	0.982800	0.401800	0.980200
H4881	H488	0.014800	0.378600	0.987500
H4891	H489	0.983000	0.371600	0.039400
Mn421	Mn42	0.959220	0.538490	0.755510
O1241	O124	0.951320	0.580650	0.717270
O1251	O125	0.883810	0.567710	0.900940
O1261	O126	0.961410	0.495770	0.805090
N1101	N110	0.923870	0.543290	0.828680
N1111	N111	0.917870	0.514780	0.873100
C5591	C559	0.929260	0.603070	0.738700
C5601	C560	0.928890	0.633320	0.699600
H4901	H490	0.944400	0.636900	0.659700
C5611	C561	0.906600	0.658100	0.717700
H4911	H491	0.907100	0.678500	0.690600
C5621	C562	0.884120	0.653490	0.773600
H4921	H492	0.868100	0.670100	0.784100
C5631	C563	0.884640	0.624660	0.815200
H4931	H493	0.869500	0.622200	0.856200
C5641	C564	0.906650	0.598860	0.799000
C5651	C565	0.904610	0.569160	0.845700
C5661	C566	0.938740	0.491890	0.856300
C5671	C567	0.935580	0.458350	0.892600
H4941	H494	0.955100	0.454300	0.925200
H4951	H495	0.915700	0.458100	0.925500
C5681	C568	0.932900	0.431120	0.834900
H4961	H496	0.912800	0.434300	0.804400
H4971	H497	0.931700	0.409700	0.861100
H4981	H498	0.952400	0.431500	0.801600
N1121	N112	0.736510	0.675920	0.418600
C5691	C569	0.766990	0.686280	0.389700
H4991	H499	0.774600	0.708200	0.399000
C5701	C570	0.786400	0.664400	0.347000
H5001	H500	0.809200	0.668300	0.337700
C5711	C571	0.769100	0.634500	0.316900
C5721	C572	0.745000	0.625700	0.354500
H5011	H501	0.735800	0.604200	0.348500
C5731	C573	0.731900	0.647900	0.405600
H5021	H502	0.715500	0.638300	0.437400
C5741	C574	0.785800	0.611500	0.260400
H5031	H503	0.795500	0.592600	0.288400
H5041	H504	0.768800	0.602600	0.225300
Mn431	Mn43	0.114190	0.970270	0.971820
O1271	O127	0.152030	0.990320	0.936950
O1281	O128	0.115920	0.053000	0.111080
O1291	O129	0.073480	0.955450	0.018990
N1131	N113	0.106970	0.006120	0.042700
N1141	N114	0.076710	0.003940	0.085300
N1151	N115	0.141870	0.938640	0.057600
C5751	C575	0.169360	0.015900	0.965400
C5761	C576	0.200470	0.022640	0.934000
H5051	H505	0.208700	0.009100	0.893900
C5771	C577	0.219320	0.048480	0.960300
H5061	H506	0.240200	0.052800	0.937600
C5781	C578	0.208480	0.068240	0.019300
H5071	H507	0.222100	0.085400	0.038800
C5791	C579	0.177810	0.062670	0.049100
H5081	H508	0.169900	0.077000	0.087900
C5801	C580	0.157470	0.036510	0.024700
C5811	C581	0.125230	0.032000	0.061500
C5821	C582	0.061990	0.976380	0.068000
C5831	C583	0.029790	0.967120	0.106500
H5091	H509	0.020100	0.986700	0.132000
H5101	H510	0.013700	0.959000	0.068300
C5841	C584	0.165460	0.918270	0.037200
H5111	H511	0.171400	0.917800	0.984900
C5851	C585	0.182210	0.897530	0.085500
H5121	H512	0.200200	0.884500	0.068000
C5861	C586	0.172010	0.896240	0.160600
C5871	C587	0.147470	0.917790	0.181200
H5131	H513	0.140000	0.918000	0.232400
C5881	C588	0.133890	0.938310	0.131600
H5141	H514	0.117700	0.953500	0.149300
C5891	C589	0.188300	0.872810	0.215700
H5151	H515	0.198000	0.854000	0.187000
H5161	H516	0.171300	0.863800	0.250600
Mn441	Mn44	0.074690	0.045730	0.167970
O1301	O130	0.096310	0.020280	0.241600
O1311	O131	0.995920	0.025690	0.312170
O1321	O132	0.045690	0.070680	0.100930
N1161	N116	0.033100	0.039110	0.219800
N1171	N117	0.005520	0.055070	0.184280
C5901	C590	0.083760	0.003570	0.299300
C5911	C591	0.106300	0.983200	0.339700
H5171	H517	0.128700	0.982200	0.323900
C5921	C592	0.096600	0.965700	0.398300
H5181	H518	0.109100	0.947100	0.414700
C5931	C593	0.067700	0.974800	0.436200
H5191	H519	0.065200	0.972700	0.489800
C5941	C594	0.041900	0.987800	0.387600
H5201	H520	0.019100	0.984500	0.399000
C5951	C595	0.051730	0.005290	0.323800
C5961	C596	0.025630	0.024680	0.283600
C5971	C597	0.015420	0.070430	0.123700
C5981	C598	0.989440	0.088150	0.077200
H5211	H521	0.975100	0.071400	0.052600
H5221	H522	0.975400	0.101400	0.111900
C5991	C599	0.003500	0.111100	0.015500
H5231	H523	0.017200	0.098200	0.980200
H5241	H524	0.985200	0.121400	0.987500
H5251	H525	0.017000	0.128400	0.039400
Mn451	Mn45	0.040780	0.961510	0.755510
O1331	O133	0.048680	0.919350	0.717270
O1341	O134	0.116190	0.932290	0.900940
O1351	O135	0.038590	0.004230	0.805090
N1181	N118	0.076130	0.956710	0.828680
N1191	N119	0.082130	0.985220	0.873100
C6001	C600	0.070740	0.896930	0.738700
C6011	C601	0.071110	0.866680	0.699600
H5261	H526	0.055600	0.863100	0.659700
C6021	C602	0.093400	0.841900	0.717700
H5271	H527	0.092900	0.821500	0.690600
C6031	C603	0.115880	0.846510	0.773600
H5281	H528	0.131900	0.829900	0.784100
C6041	C604	0.115360	0.875340	0.815200
H5291	H529	0.130500	0.877800	0.856200
C6051	C605	0.093350	0.901140	0.799000
C6061	C606	0.095390	0.930840	0.845700
C6071	C607	0.061260	0.008110	0.856300
C6081	C608	0.064420	0.041650	0.892600
H5301	H530	0.044900	0.045700	0.925200
H5311	H531	0.084300	0.041900	0.925500
C6091	C609	0.067100	0.068880	0.834900
H5321	H532	0.087200	0.065700	0.804400
H5331	H533	0.068300	0.090300	0.861100
H5341	H534	0.047600	0.068500	0.801600
N1201	N120	0.263490	0.824080	0.418600
C6101	C610	0.233010	0.813720	0.389700
H5351	H535	0.225400	0.791800	0.399000
C6111	C611	0.213600	0.835600	0.347000
H5361	H536	0.190800	0.831700	0.337700
C6121	C612	0.230900	0.865500	0.316900
C6131	C613	0.255000	0.874300	0.354500
H5371	H537	0.264200	0.895800	0.348500
C6141	C614	0.268100	0.852100	0.405600
H5381	H538	0.284500	0.861700	0.437400
C6151	C615	0.214200	0.888500	0.260400
H5391	H539	0.204500	0.907400	0.288400
H5401	H540	0.231200	0.897400	0.225300
Mn461	Mn46	0.614190	0.470270	0.471820
O1361	O136	0.652030	0.490320	0.436950
O1371	O137	0.615920	0.553000	0.611080
O1381	O138	0.573480	0.455450	0.518990
N1211	N121	0.606970	0.506120	0.542700
N1221	N122	0.576710	0.503940	0.585300
N1231	N123	0.641870	0.438640	0.557600
C6161	C616	0.669360	0.515900	0.465400
C6171	C617	0.700470	0.522640	0.434000
H5411	H541	0.708700	0.509100	0.393900
C6181	C618	0.719320	0.548480	0.460300
H5421	H542	0.740200	0.552800	0.437600
C6191	C619	0.708480	0.568240	0.519300
H5431	H543	0.722100	0.585400	0.538800
C6201	C620	0.677810	0.562670	0.549100
H5441	H544	0.669900	0.577000	0.587900
C6211	C621	0.657470	0.536510	0.524700
C6221	C622	0.625230	0.532000	0.561500
C6231	C623	0.561990	0.476380	0.568000
C6241	C624	0.529790	0.467120	0.606500
H5451	H545	0.520100	0.486700	0.632000
H5461	H546	0.513700	0.459000	0.568300
C6251	C625	0.665460	0.418270	0.537200
H5471	H547	0.671400	0.417800	0.484900
C6261	C626	0.682210	0.397530	0.585500
H5481	H548	0.700200	0.384500	0.568000
C6271	C627	0.672010	0.396240	0.660600
C6281	C628	0.647470	0.417790	0.681200
H5491	H549	0.640000	0.418000	0.732400
C6291	C629	0.633890	0.438310	0.631600
H5501	H550	0.617700	0.453500	0.649300
C6301	C630	0.688300	0.372810	0.715700
H5511	H551	0.698000	0.354000	0.687000
H5521	H552	0.671300	0.363800	0.750600
Mn471	Mn47	0.574690	0.545730	0.667970
O1391	O139	0.596310	0.520280	0.741600
O1401	O140	0.495920	0.525690	0.812170
O1411	O141	0.545690	0.570680	0.600930
N1241	N124	0.533100	0.539110	0.719800
N1251	N125	0.505520	0.555070	0.684280
C6311	C631	0.583760	0.503570	0.799300
C6321	C632	0.606300	0.483200	0.839700
H5531	H553	0.628700	0.482200	0.823900
C6331	C633	0.596600	0.465700	0.898300
H5541	H554	0.609100	0.447100	0.914700
C6341	C634	0.567700	0.474800	0.936200
H5551	H555	0.565200	0.472700	0.989800
C6351	C635	0.541900	0.487800	0.887600
H5561	H556	0.519100	0.484500	0.899000
C6361	C636	0.551730	0.505290	0.823800
C6371	C637	0.525630	0.524680	0.783600
C6381	C638	0.515420	0.570430	0.623700
C6391	C639	0.489440	0.588150	0.577200
H5571	H557	0.475100	0.571400	0.552600
H5581	H558	0.475400	0.601400	0.611900
C6401	C640	0.503500	0.611100	0.515500
H5591	H559	0.517200	0.598200	0.480200
H5601	H560	0.485200	0.621400	0.487500
H5611	H561	0.517000	0.628400	0.539400
Mn481	Mn48	0.540780	0.461510	0.255510
O1421	O142	0.548680	0.419350	0.217270
O1431	O143	0.616190	0.432290	0.400940
O1441	O144	0.538590	0.504230	0.305090
N1261	N126	0.576130	0.456710	0.328680
N1271	N127	0.582130	0.485220	0.373100
C6411	C641	0.570740	0.396930	0.238700
C6421	C642	0.571110	0.366680	0.199600
H5621	H562	0.555600	0.363100	0.159700
C6431	C643	0.593400	0.341900	0.217700
H5631	H563	0.592900	0.321500	0.190600
C6441	C644	0.615880	0.346510	0.273600
H5641	H564	0.631900	0.329900	0.284100
C6451	C645	0.615360	0.375340	0.315200
H5651	H565	0.630500	0.377800	0.356200
C6461	C646	0.593350	0.401140	0.299000
C6471	C647	0.595390	0.430840	0.345700
C6481	C648	0.561260	0.508110	0.356300
C6491	C649	0.564420	0.541650	0.392600
H5661	H566	0.544900	0.545700	0.425200
H5671	H567	0.584300	0.541900	0.425500
C6501	C650	0.567100	0.568880	0.334900
H5681	H568	0.587200	0.565700	0.304400
H5691	H569	0.568300	0.590300	0.361100
H5701	H570	0.547600	0.568500	0.301600
N1281	N128	0.763490	0.324080	0.918600
C6511	C651	0.733010	0.313720	0.889700
H5711	H571	0.725400	0.291800	0.899000
C6521	C652	0.713600	0.335600	0.847000
H5721	H572	0.690800	0.331700	0.837700
C6531	C653	0.730900	0.365500	0.816900
C6541	C654	0.755000	0.374300	0.854500
H5731	H573	0.764200	0.395800	0.848500
C6551	C655	0.768100	0.352100	0.905600
H5741	H574	0.784500	0.361700	0.937400
C6561	C656	0.714200	0.388500	0.760400
H5751	H575	0.704500	0.407400	0.788400
H5761	H576	0.731200	0.397400	0.725300
