data_XALBOC_clean_PM
_symmetry_space_group_name_H-M	'P1'
_cell_length_a	40.540800
_cell_length_b	40.540800
_cell_length_c	17.605500
_cell_angle_alpha	90.000000
_cell_angle_beta	90.000000
_cell_angle_gamma	90.000000
_symmetry_Int_Tables_number 1

loop_
_symmetry_equiv_pos_as_xyz
'x,y,z'

loop_
_atom_site_label
_atom_site_type_symbol
_atom_site_fract_x
_atom_site_fract_y
_atom_site_fract_z
Mn11	Mn1	0.574390	0.455180	0.328380
O11	O1	0.595640	0.481750	0.256200
O21	O2	0.496000	0.474970	0.183830
O31	O3	0.545620	0.429690	0.394550
N11	N1	0.532680	0.461520	0.276460
N21	N2	0.505350	0.445570	0.312240
C11	C1	0.584170	0.497100	0.199100
C21	C2	0.605350	0.517210	0.158000
H11	H1	0.627000	0.520700	0.176900
C31	C3	0.596700	0.532000	0.092700
H21	H2	0.611800	0.546500	0.068500
C41	C4	0.564800	0.526400	0.058300
H31	H3	0.559600	0.534000	0.008700
C51	C5	0.541730	0.508600	0.103800
H41	H4	0.519500	0.507000	0.087500
C61	C6	0.550990	0.494040	0.170500
C71	C7	0.525450	0.476420	0.212000
C81	C8	0.514760	0.429980	0.372900
C91	C9	0.489870	0.412200	0.419100
H51	H5	0.475700	0.399200	0.384300
H61	H6	0.475600	0.428800	0.444100
C101	C10	0.502900	0.389520	0.478600
H71	H7	0.518400	0.373900	0.455500
H81	H8	0.484600	0.377300	0.501700
H91	H9	0.514300	0.402400	0.517800
Mn21	Mn2	0.459020	0.462720	0.252530
O41	O4	0.449980	0.421090	0.212610
O51	O5	0.384830	0.432930	0.399660
O61	O6	0.461830	0.505000	0.303370
N31	N3	0.424080	0.457350	0.327130
N41	N4	0.418910	0.485580	0.372600
N51	N5	0.425700	0.488290	0.165800
C111	C11	0.427440	0.399000	0.232400
C121	C12	0.425260	0.370260	0.188000
H101	H10	0.439500	0.367500	0.145700
C131	C13	0.402810	0.346350	0.205300
H111	H11	0.401800	0.327000	0.174800
C141	C14	0.381490	0.349550	0.266000
H121	H12	0.366000	0.332600	0.277300
C151	C15	0.382920	0.377400	0.309900
H131	H13	0.368100	0.379700	0.351400
C161	C16	0.405640	0.402560	0.295100
C171	C17	0.404720	0.432090	0.343800
C181	C18	0.439400	0.508880	0.354900
C191	C19	0.436360	0.542080	0.393000
H141	H14	0.419300	0.540500	0.433100
H151	H15	0.457600	0.547300	0.418100
C201	C20	0.428200	0.568300	0.344200
H161	H16	0.447600	0.582300	0.336400
H171	H17	0.410400	0.581400	0.367000
H181	H18	0.420800	0.559500	0.295300
C211	C21	0.436700	0.519400	0.142200
H191	H19	0.458100	0.527000	0.156300
C221	C22	0.415600	0.539800	0.096700
H201	H20	0.421800	0.561700	0.082900
C231	C23	0.384810	0.525700	0.073100
C241	C24	0.375290	0.504600	0.114300
H211	H21	0.352300	0.500200	0.116900
C251	C25	0.396660	0.486200	0.159000
H221	H22	0.386500	0.469400	0.188500
C261	C26	0.361400	0.544500	0.019700
H231	H23	0.344800	0.528800	0.999900
H241	H24	0.349400	0.561300	0.049800
Mn31	Mn3	0.613010	0.529210	0.528360
O71	O7	0.650880	0.508680	0.564570
O81	O8	0.615260	0.447530	0.386030
O91	O9	0.572600	0.544400	0.481140
N61	N6	0.606020	0.493610	0.456230
N71	N7	0.575940	0.496080	0.415000
N81	N8	0.310040	0.608280	0.806300
C271	C27	0.667950	0.483880	0.534200
C281	C28	0.699280	0.477600	0.563300
H251	H25	0.707500	0.491100	0.603200
C291	C29	0.718590	0.452590	0.536300
H261	H26	0.739500	0.448700	0.558700
C301	C30	0.708280	0.432950	0.477200
H271	H27	0.722200	0.416100	0.457500
C311	C31	0.677180	0.438230	0.447200
H281	H28	0.669500	0.424200	0.407700
C321	C32	0.656800	0.463530	0.473300
C331	C33	0.624260	0.468070	0.436900
C341	C34	0.561070	0.523420	0.432400
C351	C35	0.529230	0.531680	0.394600
H291	H29	0.520000	0.512000	0.369000
H301	H30	0.513000	0.539600	0.432400
C361	C36	0.328980	0.583360	0.785300
H311	H31	0.328300	0.576600	0.733600
C371	C37	0.349440	0.566860	0.833500
H321	H32	0.362300	0.548900	0.815600
C381	C38	0.351290	0.576290	0.907900
C391	C39	0.331320	0.601530	0.930900
H331	H33	0.331600	0.608500	0.982400
C401	C40	0.310840	0.616940	0.879900
H341	H34	0.296900	0.634200	0.897200
C411	C41	0.375500	0.559200	0.961800
H351	H35	0.388300	0.542700	0.932800
H361	H36	0.391200	0.575900	0.981400
Mn41	Mn4	0.074390	0.955180	0.828380
O101	O10	0.095640	0.981750	0.756200
O111	O11	0.996000	0.974970	0.683830
O121	O12	0.045620	0.929690	0.894550
N91	N9	0.032680	0.961520	0.776460
N101	N10	0.005350	0.945570	0.812240
C421	C42	0.084170	0.997100	0.699100
C431	C43	0.105350	0.017210	0.658000
H371	H37	0.127000	0.020700	0.676900
C441	C44	0.096700	0.032000	0.592700
H381	H38	0.111800	0.046500	0.568500
C451	C45	0.064800	0.026400	0.558300
H391	H39	0.059600	0.034000	0.508700
C461	C46	0.041730	0.008600	0.603800
H401	H40	0.019500	0.007000	0.587500
C471	C47	0.050990	0.994040	0.670500
C481	C48	0.025450	0.976420	0.712000
C491	C49	0.014760	0.929980	0.872900
C501	C50	0.989870	0.912200	0.919100
H411	H41	0.975700	0.899200	0.884300
H421	H42	0.975600	0.928800	0.944100
C511	C51	0.002900	0.889520	0.978600
H431	H43	0.018400	0.873900	0.955500
H441	H44	0.984600	0.877300	0.001700
H451	H45	0.014300	0.902400	0.017800
Mn51	Mn5	0.959020	0.962720	0.752530
O131	O13	0.949980	0.921090	0.712610
O141	O14	0.884830	0.932930	0.899660
O151	O15	0.961830	0.005000	0.803370
N111	N11	0.924080	0.957350	0.827130
N121	N12	0.918910	0.985580	0.872600
N131	N13	0.925700	0.988290	0.665800
C521	C52	0.927440	0.899000	0.732400
C531	C53	0.925260	0.870260	0.688000
H461	H46	0.939500	0.867500	0.645700
C541	C54	0.902810	0.846350	0.705300
H471	H47	0.901800	0.827000	0.674800
C551	C55	0.881490	0.849550	0.766000
H481	H48	0.866000	0.832600	0.777300
C561	C56	0.882920	0.877400	0.809900
H491	H49	0.868100	0.879700	0.851400
C571	C57	0.905640	0.902560	0.795100
C581	C58	0.904720	0.932090	0.843800
C591	C59	0.939400	0.008880	0.854900
C601	C60	0.936360	0.042080	0.893000
H501	H50	0.919300	0.040500	0.933100
H511	H51	0.957600	0.047300	0.918100
C611	C61	0.928200	0.068300	0.844200
H521	H52	0.947600	0.082300	0.836400
H531	H53	0.910400	0.081400	0.867000
H541	H54	0.920800	0.059500	0.795300
C621	C62	0.936700	0.019400	0.642200
H551	H55	0.958100	0.027000	0.656300
C631	C63	0.915600	0.039800	0.596700
H561	H56	0.921800	0.061700	0.582900
C641	C64	0.884810	0.025700	0.573100
C651	C65	0.875290	0.004600	0.614300
H571	H57	0.852300	0.000200	0.616900
C661	C66	0.896660	0.986200	0.659000
H581	H58	0.886500	0.969400	0.688500
C671	C67	0.861400	0.044500	0.519700
H591	H59	0.844800	0.028800	0.499900
H601	H60	0.849400	0.061300	0.549800
Mn61	Mn6	0.113010	0.029210	0.028360
O161	O16	0.150880	0.008680	0.064570
O171	O17	0.115260	0.947530	0.886030
O181	O18	0.072600	0.044400	0.981140
N141	N14	0.106020	0.993610	0.956230
N151	N15	0.075940	0.996080	0.915000
N161	N16	0.810040	0.108280	0.306300
C681	C68	0.167950	0.983880	0.034200
C691	C69	0.199280	0.977600	0.063300
H611	H61	0.207500	0.991100	0.103200
C701	C70	0.218590	0.952590	0.036300
H621	H62	0.239500	0.948700	0.058700
C711	C71	0.208280	0.932950	0.977200
H631	H63	0.222200	0.916100	0.957500
C721	C72	0.177180	0.938230	0.947200
H641	H64	0.169500	0.924200	0.907700
C731	C73	0.156800	0.963530	0.973300
C741	C74	0.124260	0.968070	0.936900
C751	C75	0.061070	0.023420	0.932400
C761	C76	0.029230	0.031680	0.894600
H651	H65	0.020000	0.012000	0.869000
H661	H66	0.013000	0.039600	0.932400
C771	C77	0.828980	0.083360	0.285300
H671	H67	0.828300	0.076600	0.233600
C781	C78	0.849440	0.066860	0.333500
H681	H68	0.862300	0.048900	0.315600
C791	C79	0.851290	0.076290	0.407900
C801	C80	0.831320	0.101530	0.430900
H691	H69	0.831600	0.108500	0.482400
C811	C81	0.810840	0.116940	0.379900
H701	H70	0.796900	0.134200	0.397200
C821	C82	0.875500	0.059200	0.461800
H711	H71	0.888300	0.042700	0.432800
H721	H72	0.891200	0.075900	0.481400
Mn71	Mn7	0.925610	0.544820	0.828380
O191	O19	0.904360	0.518250	0.756200
O201	O20	0.004000	0.525030	0.683830
O211	O21	0.954380	0.570310	0.894550
N171	N17	0.967320	0.538480	0.776460
N181	N18	0.994650	0.554430	0.812240
C831	C83	0.915830	0.502900	0.699100
C841	C84	0.894650	0.482790	0.658000
H731	H73	0.873000	0.479300	0.676900
C851	C85	0.903300	0.468000	0.592700
H741	H74	0.888200	0.453500	0.568500
C861	C86	0.935200	0.473600	0.558300
H751	H75	0.940400	0.466000	0.508700
C871	C87	0.958270	0.491400	0.603800
H761	H76	0.980500	0.493000	0.587500
C881	C88	0.949010	0.505960	0.670500
C891	C89	0.974550	0.523580	0.712000
C901	C90	0.985240	0.570020	0.872900
C911	C91	0.010130	0.587800	0.919100
H771	H77	0.024300	0.600800	0.884300
H781	H78	0.024400	0.571200	0.944100
C921	C92	0.997100	0.610480	0.978600
H791	H79	0.981600	0.626100	0.955500
H801	H80	0.015400	0.622700	0.001700
H811	H81	0.985700	0.597600	0.017800
Mn81	Mn8	0.040980	0.537280	0.752530
O221	O22	0.050020	0.578910	0.712610
O231	O23	0.115170	0.567070	0.899660
O241	O24	0.038170	0.495000	0.803370
N191	N19	0.075920	0.542650	0.827130
N201	N20	0.081090	0.514420	0.872600
N211	N21	0.074300	0.511710	0.665800
C931	C93	0.072560	0.601000	0.732400
C941	C94	0.074740	0.629740	0.688000
H821	H82	0.060500	0.632500	0.645700
C951	C95	0.097190	0.653650	0.705300
H831	H83	0.098200	0.673000	0.674800
C961	C96	0.118510	0.650450	0.766000
H841	H84	0.134000	0.667400	0.777300
C971	C97	0.117080	0.622600	0.809900
H851	H85	0.131900	0.620300	0.851400
C981	C98	0.094360	0.597440	0.795100
C991	C99	0.095280	0.567910	0.843800
C1001	C100	0.060600	0.491120	0.854900
C1011	C101	0.063640	0.457920	0.893000
H861	H86	0.080700	0.459500	0.933100
H871	H87	0.042400	0.452700	0.918100
C1021	C102	0.071800	0.431700	0.844200
H881	H88	0.052400	0.417700	0.836400
H891	H89	0.089600	0.418600	0.867000
H901	H90	0.079200	0.440500	0.795300
C1031	C103	0.063300	0.480600	0.642200
H911	H91	0.041900	0.473000	0.656300
C1041	C104	0.084400	0.460200	0.596700
H921	H92	0.078200	0.438300	0.582900
C1051	C105	0.115190	0.474300	0.573100
C1061	C106	0.124710	0.495400	0.614300
H931	H93	0.147700	0.499800	0.616900
C1071	C107	0.103340	0.513800	0.659000
H941	H94	0.113500	0.530600	0.688500
C1081	C108	0.138600	0.455500	0.519700
H951	H95	0.155200	0.471200	0.499900
H961	H96	0.150600	0.438700	0.549800
Mn91	Mn9	0.886990	0.470790	0.028360
O251	O25	0.849120	0.491320	0.064570
O261	O26	0.884740	0.552470	0.886030
O271	O27	0.927400	0.455600	0.981140
N221	N22	0.893980	0.506390	0.956230
N231	N23	0.924060	0.503920	0.915000
N241	N24	0.189960	0.391720	0.306300
C1091	C109	0.832050	0.516120	0.034200
C1101	C110	0.800720	0.522400	0.063300
H971	H97	0.792500	0.508900	0.103200
C1111	C111	0.781410	0.547410	0.036300
H981	H98	0.760500	0.551300	0.058700
C1121	C112	0.791720	0.567050	0.977200
H991	H99	0.777800	0.583900	0.957500
C1131	C113	0.822820	0.561770	0.947200
H1001	H100	0.830500	0.575800	0.907700
C1141	C114	0.843200	0.536470	0.973300
C1151	C115	0.875740	0.531930	0.936900
C1161	C116	0.938930	0.476580	0.932400
C1171	C117	0.970770	0.468320	0.894600
H1011	H101	0.980000	0.488000	0.869000
H1021	H102	0.987000	0.460400	0.932400
C1181	C118	0.171020	0.416640	0.285300
H1031	H103	0.171700	0.423400	0.233600
C1191	C119	0.150560	0.433140	0.333500
H1041	H104	0.137700	0.451100	0.315600
C1201	C120	0.148710	0.423710	0.407900
C1211	C121	0.168680	0.398470	0.430900
H1051	H105	0.168400	0.391500	0.482400
C1221	C122	0.189160	0.383060	0.379900
H1061	H106	0.203100	0.365800	0.397200
C1231	C123	0.124500	0.440800	0.461800
H1071	H107	0.111700	0.457300	0.432800
H1081	H108	0.108800	0.424100	0.481400
Mn101	Mn10	0.425610	0.044820	0.328380
O281	O28	0.404360	0.018250	0.256200
O291	O29	0.504000	0.025030	0.183830
O301	O30	0.454380	0.070310	0.394550
N251	N25	0.467320	0.038480	0.276460
N261	N26	0.494650	0.054430	0.312240
C1241	C124	0.415830	0.002900	0.199100
C1251	C125	0.394650	0.982790	0.158000
H1091	H109	0.373000	0.979300	0.176900
C1261	C126	0.403300	0.968000	0.092700
H1101	H110	0.388200	0.953500	0.068500
C1271	C127	0.435200	0.973600	0.058300
H1111	H111	0.440400	0.966000	0.008700
C1281	C128	0.458270	0.991400	0.103800
H1121	H112	0.480500	0.993000	0.087500
C1291	C129	0.449010	0.005960	0.170500
C1301	C130	0.474550	0.023580	0.212000
C1311	C131	0.485240	0.070020	0.372900
C1321	C132	0.510130	0.087800	0.419100
H1131	H113	0.524300	0.100800	0.384300
H1141	H114	0.524400	0.071200	0.444100
C1331	C133	0.497100	0.110480	0.478600
H1151	H115	0.481600	0.126100	0.455500
H1161	H116	0.515400	0.122700	0.501700
H1171	H117	0.485700	0.097600	0.517800
Mn111	Mn11	0.540980	0.037280	0.252530
O311	O31	0.550020	0.078910	0.212610
O321	O32	0.615170	0.067070	0.399660
O331	O33	0.538170	0.995000	0.303370
N271	N27	0.575920	0.042650	0.327130
N281	N28	0.581090	0.014420	0.372600
N291	N29	0.574300	0.011710	0.165800
C1341	C134	0.572560	0.101000	0.232400
C1351	C135	0.574740	0.129740	0.188000
H1181	H118	0.560500	0.132500	0.145700
C1361	C136	0.597190	0.153650	0.205300
H1191	H119	0.598200	0.173000	0.174800
C1371	C137	0.618510	0.150450	0.266000
H1201	H120	0.634000	0.167400	0.277300
C1381	C138	0.617080	0.122600	0.309900
H1211	H121	0.631900	0.120300	0.351400
C1391	C139	0.594360	0.097440	0.295100
C1401	C140	0.595280	0.067910	0.343800
C1411	C141	0.560600	0.991120	0.354900
C1421	C142	0.563640	0.957920	0.393000
H1221	H122	0.580700	0.959500	0.433100
H1231	H123	0.542400	0.952700	0.418100
C1431	C143	0.571800	0.931700	0.344200
H1241	H124	0.552400	0.917700	0.336400
H1251	H125	0.589600	0.918600	0.367000
H1261	H126	0.579200	0.940500	0.295300
C1441	C144	0.563300	0.980600	0.142200
H1271	H127	0.541900	0.973000	0.156300
C1451	C145	0.584400	0.960200	0.096700
H1281	H128	0.578200	0.938300	0.082900
C1461	C146	0.615190	0.974300	0.073100
C1471	C147	0.624710	0.995400	0.114300
H1291	H129	0.647700	0.999800	0.116900
C1481	C148	0.603340	0.013800	0.159000
H1301	H130	0.613500	0.030600	0.188500
C1491	C149	0.638600	0.955500	0.019700
H1311	H131	0.655200	0.971200	0.999900
H1321	H132	0.650600	0.938700	0.049800
Mn121	Mn12	0.386990	0.970790	0.528360
O341	O34	0.349120	0.991320	0.564570
O351	O35	0.384740	0.052470	0.386030
O361	O36	0.427400	0.955600	0.481140
N301	N30	0.393980	0.006390	0.456230
N311	N31	0.424060	0.003920	0.415000
N321	N32	0.689960	0.891720	0.806300
C1501	C150	0.332050	0.016120	0.534200
C1511	C151	0.300720	0.022400	0.563300
H1331	H133	0.292500	0.008900	0.603200
C1521	C152	0.281410	0.047410	0.536300
H1341	H134	0.260500	0.051300	0.558700
C1531	C153	0.291720	0.067050	0.477200
H1351	H135	0.277800	0.083900	0.457500
C1541	C154	0.322820	0.061770	0.447200
H1361	H136	0.330500	0.075800	0.407700
C1551	C155	0.343200	0.036470	0.473300
C1561	C156	0.375740	0.031930	0.436900
C1571	C157	0.438930	0.976580	0.432400
C1581	C158	0.470770	0.968320	0.394600
H1371	H137	0.480000	0.988000	0.369000
H1381	H138	0.487000	0.960400	0.432400
C1591	C159	0.671020	0.916640	0.785300
H1391	H139	0.671700	0.923400	0.733600
C1601	C160	0.650560	0.933140	0.833500
H1401	H140	0.637700	0.951100	0.815600
C1611	C161	0.648710	0.923710	0.907900
C1621	C162	0.668680	0.898470	0.930900
H1411	H141	0.668400	0.891500	0.982400
C1631	C163	0.689160	0.883060	0.879900
H1421	H142	0.703100	0.865800	0.897200
C1641	C164	0.624500	0.940800	0.961800
H1431	H143	0.611700	0.957300	0.932800
H1441	H144	0.608800	0.924100	0.981400
Mn131	Mn13	0.294820	0.824390	0.578380
O371	O37	0.268250	0.845640	0.506200
O381	O38	0.275030	0.746000	0.433830
O391	O39	0.320310	0.795620	0.644550
N331	N33	0.288480	0.782680	0.526460
N341	N34	0.304430	0.755350	0.562240
C1651	C165	0.252900	0.834170	0.449100
C1661	C166	0.232790	0.855350	0.408000
H1451	H145	0.229300	0.877000	0.426900
C1671	C167	0.218000	0.846700	0.342700
H1461	H146	0.203500	0.861800	0.318500
C1681	C168	0.223600	0.814800	0.308300
H1471	H147	0.216000	0.809600	0.258700
C1691	C169	0.241400	0.791730	0.353800
H1481	H148	0.243000	0.769500	0.337500
C1701	C170	0.255960	0.800990	0.420500
C1711	C171	0.273580	0.775450	0.462000
C1721	C172	0.320020	0.764760	0.622900
C1731	C173	0.337800	0.739870	0.669100
H1491	H149	0.350800	0.725700	0.634300
H1501	H150	0.321200	0.725600	0.694100
C1741	C174	0.360480	0.752900	0.728600
H1511	H151	0.376100	0.768400	0.705500
H1521	H152	0.372700	0.734600	0.751700
H1531	H153	0.347600	0.764300	0.767800
Mn141	Mn14	0.287280	0.709020	0.502530
O401	O40	0.328910	0.699980	0.462610
O411	O41	0.317070	0.634830	0.649660
O421	O42	0.245000	0.711830	0.553370
N351	N35	0.292650	0.674080	0.577130
N361	N36	0.264420	0.668910	0.622600
N371	N37	0.261710	0.675700	0.415800
C1751	C175	0.351000	0.677440	0.482400
C1761	C176	0.379740	0.675260	0.438000
H1541	H154	0.382500	0.689500	0.395700
C1771	C177	0.403650	0.652810	0.455300
H1551	H155	0.423000	0.651800	0.424800
C1781	C178	0.400450	0.631490	0.516000
H1561	H156	0.417400	0.616000	0.527300
C1791	C179	0.372600	0.632920	0.559900
H1571	H157	0.370300	0.618100	0.601400
C1801	C180	0.347440	0.655640	0.545100
C1811	C181	0.317910	0.654720	0.593800
C1821	C182	0.241120	0.689400	0.604900
C1831	C183	0.207920	0.686360	0.643000
H1581	H158	0.209500	0.669300	0.683100
H1591	H159	0.202700	0.707600	0.668100
C1841	C184	0.181700	0.678200	0.594200
H1601	H160	0.167700	0.697600	0.586400
H1611	H161	0.168600	0.660400	0.617000
H1621	H162	0.190500	0.670800	0.545300
C1851	C185	0.230600	0.686700	0.392200
H1631	H163	0.223000	0.708100	0.406300
C1861	C186	0.210200	0.665600	0.346700
H1641	H164	0.188300	0.671800	0.332900
C1871	C187	0.224300	0.634810	0.323100
C1881	C188	0.245400	0.625290	0.364300
H1651	H165	0.249800	0.602300	0.366900
C1891	C189	0.263800	0.646660	0.409000
H1661	H166	0.280600	0.636500	0.438500
C1901	C190	0.205500	0.611400	0.269700
H1671	H167	0.221200	0.594800	0.249900
H1681	H168	0.188700	0.599400	0.299800
Mn151	Mn15	0.220790	0.863010	0.778360
O431	O43	0.241320	0.900880	0.814570
O441	O44	0.302470	0.865260	0.636030
O451	O45	0.205600	0.822600	0.731140
N381	N38	0.256390	0.856020	0.706230
N391	N39	0.253920	0.825940	0.665000
N401	N40	0.141720	0.560040	0.056300
C1911	C191	0.266120	0.917950	0.784200
C1921	C192	0.272400	0.949280	0.813300
H1691	H169	0.258900	0.957500	0.853200
C1931	C193	0.297410	0.968590	0.786300
H1701	H170	0.301300	0.989500	0.808700
C1941	C194	0.317050	0.958280	0.727200
H1711	H171	0.333900	0.972200	0.707500
C1951	C195	0.311770	0.927180	0.697200
H1721	H172	0.325800	0.919500	0.657700
C1961	C196	0.286470	0.906800	0.723300
C1971	C197	0.281930	0.874260	0.686900
C1981	C198	0.226580	0.811070	0.682400
C1991	C199	0.218320	0.779230	0.644600
H1731	H173	0.238000	0.770000	0.619000
H1741	H174	0.210400	0.763000	0.682400
C2001	C200	0.166640	0.578980	0.035300
H1751	H175	0.173400	0.578300	0.983600
C2011	C201	0.183140	0.599440	0.083500
H1761	H176	0.201100	0.612300	0.065600
C2021	C202	0.173710	0.601290	0.157900
C2031	C203	0.148470	0.581320	0.180900
H1771	H177	0.141500	0.581600	0.232400
C2041	C204	0.133060	0.560840	0.129900
H1781	H178	0.115800	0.546900	0.147200
C2051	C205	0.190800	0.625500	0.211800
H1791	H179	0.207300	0.638300	0.182800
H1801	H180	0.174100	0.641200	0.231400
Mn161	Mn16	0.794820	0.324390	0.078380
O461	O46	0.768250	0.345640	0.006200
O471	O47	0.775030	0.246000	0.933830
O481	O48	0.820310	0.295620	0.144550
N411	N41	0.788480	0.282680	0.026460
N421	N42	0.804430	0.255350	0.062240
C2061	C206	0.752900	0.334170	0.949100
C2071	C207	0.732790	0.355350	0.908000
H1811	H181	0.729300	0.377000	0.926900
C2081	C208	0.718000	0.346700	0.842700
H1821	H182	0.703500	0.361800	0.818500
C2091	C209	0.723600	0.314800	0.808300
H1831	H183	0.716000	0.309600	0.758700
C2101	C210	0.741400	0.291730	0.853800
H1841	H184	0.743000	0.269500	0.837500
C2111	C211	0.755960	0.300990	0.920500
C2121	C212	0.773580	0.275450	0.962000
C2131	C213	0.820020	0.264760	0.122900
C2141	C214	0.837800	0.239870	0.169100
H1851	H185	0.850800	0.225700	0.134300
H1861	H186	0.821200	0.225600	0.194100
C2151	C215	0.860480	0.252900	0.228600
H1871	H187	0.876100	0.268400	0.205500
H1881	H188	0.872700	0.234600	0.251700
H1891	H189	0.847600	0.264300	0.267800
Mn171	Mn17	0.787280	0.209020	0.002530
O491	O49	0.828910	0.199980	0.962610
O501	O50	0.817070	0.134830	0.149660
O511	O51	0.745000	0.211830	0.053370
N431	N43	0.792650	0.174080	0.077130
N441	N44	0.764420	0.168910	0.122600
N451	N45	0.761710	0.175700	0.915800
C2161	C216	0.851000	0.177440	0.982400
C2171	C217	0.879740	0.175260	0.938000
H1901	H190	0.882500	0.189500	0.895700
C2181	C218	0.903650	0.152810	0.955300
H1911	H191	0.923000	0.151800	0.924800
C2191	C219	0.900450	0.131490	0.016000
H1921	H192	0.917400	0.116000	0.027300
C2201	C220	0.872600	0.132920	0.059900
H1931	H193	0.870300	0.118100	0.101400
C2211	C221	0.847440	0.155640	0.045100
C2221	C222	0.817910	0.154720	0.093800
C2231	C223	0.741120	0.189400	0.104900
C2241	C224	0.707920	0.186360	0.143000
H1941	H194	0.709500	0.169300	0.183100
H1951	H195	0.702700	0.207600	0.168100
C2251	C225	0.681700	0.178200	0.094200
H1961	H196	0.667700	0.197600	0.086400
H1971	H197	0.668600	0.160400	0.117000
H1981	H198	0.690500	0.170800	0.045300
C2261	C226	0.730600	0.186700	0.892200
H1991	H199	0.723000	0.208100	0.906300
C2271	C227	0.710200	0.165600	0.846700
H2001	H200	0.688300	0.171800	0.832900
C2281	C228	0.724300	0.134810	0.823100
C2291	C229	0.745400	0.125290	0.864300
H2011	H201	0.749800	0.102300	0.866900
C2301	C230	0.763800	0.146660	0.909000
H2021	H202	0.780600	0.136500	0.938500
C2311	C231	0.705500	0.111400	0.769700
H2031	H203	0.721200	0.094800	0.749900
H2041	H204	0.688700	0.099400	0.799800
Mn181	Mn18	0.720790	0.363010	0.278360
O521	O52	0.741320	0.400880	0.314570
O531	O53	0.802470	0.365260	0.136030
O541	O54	0.705600	0.322600	0.231140
N461	N46	0.756390	0.356020	0.206230
N471	N47	0.753920	0.325940	0.165000
N481	N48	0.641720	0.060040	0.556300
C2321	C232	0.766120	0.417950	0.284200
C2331	C233	0.772400	0.449280	0.313300
H2051	H205	0.758900	0.457500	0.353200
C2341	C234	0.797410	0.468590	0.286300
H2061	H206	0.801300	0.489500	0.308700
C2351	C235	0.817050	0.458280	0.227200
H2071	H207	0.833900	0.472200	0.207500
C2361	C236	0.811770	0.427180	0.197200
H2081	H208	0.825800	0.419500	0.157700
C2371	C237	0.786470	0.406800	0.223300
C2381	C238	0.781930	0.374260	0.186900
C2391	C239	0.726580	0.311070	0.182400
C2401	C240	0.718320	0.279230	0.144600
H2091	H209	0.738000	0.270000	0.119000
H2101	H210	0.710400	0.263000	0.182400
C2411	C241	0.666640	0.078980	0.535300
H2111	H211	0.673400	0.078300	0.483600
C2421	C242	0.683140	0.099440	0.583500
H2121	H212	0.701100	0.112300	0.565600
C2431	C243	0.673710	0.101290	0.657900
C2441	C244	0.648470	0.081320	0.680900
H2131	H213	0.641500	0.081600	0.732400
C2451	C245	0.633060	0.060840	0.629900
H2141	H214	0.615800	0.046900	0.647200
C2461	C246	0.690800	0.125500	0.711800
H2151	H215	0.707300	0.138300	0.682800
H2161	H216	0.674100	0.141200	0.731400
Mn191	Mn19	0.205180	0.175610	0.078380
O551	O55	0.231750	0.154360	0.006200
O561	O56	0.224970	0.254000	0.933830
O571	O57	0.179690	0.204380	0.144550
N491	N49	0.211520	0.217320	0.026460
N501	N50	0.195570	0.244650	0.062240
C2471	C247	0.247100	0.165830	0.949100
C2481	C248	0.267210	0.144650	0.908000
H2171	H217	0.270700	0.123000	0.926900
C2491	C249	0.282000	0.153300	0.842700
H2181	H218	0.296500	0.138200	0.818500
C2501	C250	0.276400	0.185200	0.808300
H2191	H219	0.284000	0.190400	0.758700
C2511	C251	0.258600	0.208270	0.853800
H2201	H220	0.257000	0.230500	0.837500
C2521	C252	0.244040	0.199010	0.920500
C2531	C253	0.226420	0.224550	0.962000
C2541	C254	0.179980	0.235240	0.122900
C2551	C255	0.162200	0.260130	0.169100
H2211	H221	0.149200	0.274300	0.134300
H2221	H222	0.178800	0.274400	0.194100
C2561	C256	0.139520	0.247100	0.228600
H2231	H223	0.123900	0.231600	0.205500
H2241	H224	0.127300	0.265400	0.251700
H2251	H225	0.152400	0.235700	0.267800
Mn201	Mn20	0.212720	0.290980	0.002530
O581	O58	0.171090	0.300020	0.962610
O591	O59	0.182930	0.365170	0.149660
O601	O60	0.255000	0.288170	0.053370
N511	N51	0.207350	0.325920	0.077130
N521	N52	0.235580	0.331090	0.122600
N531	N53	0.238290	0.324300	0.915800
C2571	C257	0.149000	0.322560	0.982400
C2581	C258	0.120260	0.324740	0.938000
H2261	H226	0.117500	0.310500	0.895700
C2591	C259	0.096350	0.347190	0.955300
H2271	H227	0.077000	0.348200	0.924800
C2601	C260	0.099550	0.368510	0.016000
H2281	H228	0.082600	0.384000	0.027300
C2611	C261	0.127400	0.367080	0.059900
H2291	H229	0.129700	0.381900	0.101400
C2621	C262	0.152560	0.344360	0.045100
C2631	C263	0.182090	0.345280	0.093800
C2641	C264	0.258880	0.310600	0.104900
C2651	C265	0.292080	0.313640	0.143000
H2301	H230	0.290500	0.330700	0.183100
H2311	H231	0.297300	0.292400	0.168100
C2661	C266	0.318300	0.321800	0.094200
H2321	H232	0.332300	0.302400	0.086400
H2331	H233	0.331400	0.339600	0.117000
H2341	H234	0.309500	0.329200	0.045300
C2671	C267	0.269400	0.313300	0.892200
H2351	H235	0.277000	0.291900	0.906300
C2681	C268	0.289800	0.334400	0.846700
H2361	H236	0.311700	0.328200	0.832900
C2691	C269	0.275700	0.365190	0.823100
C2701	C270	0.254600	0.374710	0.864300
H2371	H237	0.250200	0.397700	0.866900
C2711	C271	0.236200	0.353340	0.909000
H2381	H238	0.219400	0.363500	0.938500
C2721	C272	0.294500	0.388600	0.769700
H2391	H239	0.278800	0.405200	0.749900
H2401	H240	0.311300	0.400600	0.799800
Mn211	Mn21	0.279210	0.136990	0.278360
O611	O61	0.258680	0.099120	0.314570
O621	O62	0.197530	0.134740	0.136030
O631	O63	0.294400	0.177400	0.231140
N541	N54	0.243610	0.143980	0.206230
N551	N55	0.246080	0.174060	0.165000
N561	N56	0.358280	0.439960	0.556300
C2731	C273	0.233880	0.082050	0.284200
C2741	C274	0.227600	0.050720	0.313300
H2411	H241	0.241100	0.042500	0.353200
C2751	C275	0.202590	0.031410	0.286300
H2421	H242	0.198700	0.010500	0.308700
C2761	C276	0.182950	0.041720	0.227200
H2431	H243	0.166100	0.027800	0.207500
C2771	C277	0.188230	0.072820	0.197200
H2441	H244	0.174200	0.080500	0.157700
C2781	C278	0.213530	0.093200	0.223300
C2791	C279	0.218070	0.125740	0.186900
C2801	C280	0.273420	0.188930	0.182400
C2811	C281	0.281680	0.220770	0.144600
H2451	H245	0.262000	0.230000	0.119000
H2461	H246	0.289600	0.237000	0.182400
C2821	C282	0.333360	0.421020	0.535300
H2471	H247	0.326600	0.421700	0.483600
C2831	C283	0.316860	0.400560	0.583500
H2481	H248	0.298900	0.387700	0.565600
C2841	C284	0.326290	0.398710	0.657900
C2851	C285	0.351530	0.418680	0.680900
H2491	H249	0.358500	0.418400	0.732400
C2861	C286	0.366940	0.439160	0.629900
H2501	H250	0.384200	0.453100	0.647200
C2871	C287	0.309200	0.374500	0.711800
H2511	H251	0.292700	0.361700	0.682800
H2521	H252	0.325900	0.358800	0.731400
Mn221	Mn22	0.705180	0.675610	0.578380
O641	O64	0.731750	0.654360	0.506200
O651	O65	0.724970	0.754000	0.433830
O661	O66	0.679690	0.704380	0.644550
N571	N57	0.711520	0.717320	0.526460
N581	N58	0.695570	0.744650	0.562240
C2881	C288	0.747100	0.665830	0.449100
C2891	C289	0.767210	0.644650	0.408000
H2531	H253	0.770700	0.623000	0.426900
C2901	C290	0.782000	0.653300	0.342700
H2541	H254	0.796500	0.638200	0.318500
C2911	C291	0.776400	0.685200	0.308300
H2551	H255	0.784000	0.690400	0.258700
C2921	C292	0.758600	0.708270	0.353800
H2561	H256	0.757000	0.730500	0.337500
C2931	C293	0.744040	0.699010	0.420500
C2941	C294	0.726420	0.724550	0.462000
C2951	C295	0.679980	0.735240	0.622900
C2961	C296	0.662200	0.760130	0.669100
H2571	H257	0.649200	0.774300	0.634300
H2581	H258	0.678800	0.774400	0.694100
C2971	C297	0.639520	0.747100	0.728600
H2591	H259	0.623900	0.731600	0.705500
H2601	H260	0.627300	0.765400	0.751700
H2611	H261	0.652400	0.735700	0.767800
Mn231	Mn23	0.712720	0.790980	0.502530
O671	O67	0.671090	0.800020	0.462610
O681	O68	0.682930	0.865170	0.649660
O691	O69	0.755000	0.788170	0.553370
N591	N59	0.707350	0.825920	0.577130
N601	N60	0.735580	0.831090	0.622600
N611	N61	0.738290	0.824300	0.415800
C2981	C298	0.649000	0.822560	0.482400
C2991	C299	0.620260	0.824740	0.438000
H2621	H262	0.617500	0.810500	0.395700
C3001	C300	0.596350	0.847190	0.455300
H2631	H263	0.577000	0.848200	0.424800
C3011	C301	0.599550	0.868510	0.516000
H2641	H264	0.582600	0.884000	0.527300
C3021	C302	0.627400	0.867080	0.559900
H2651	H265	0.629700	0.881900	0.601400
C3031	C303	0.652560	0.844360	0.545100
C3041	C304	0.682090	0.845280	0.593800
C3051	C305	0.758880	0.810600	0.604900
C3061	C306	0.792080	0.813640	0.643000
H2661	H266	0.790500	0.830700	0.683100
H2671	H267	0.797300	0.792400	0.668100
C3071	C307	0.818300	0.821800	0.594200
H2681	H268	0.832300	0.802400	0.586400
H2691	H269	0.831400	0.839600	0.617000
H2701	H270	0.809500	0.829200	0.545300
C3081	C308	0.769400	0.813300	0.392200
H2711	H271	0.777000	0.791900	0.406300
C3091	C309	0.789800	0.834400	0.346700
H2721	H272	0.811700	0.828200	0.332900
C3101	C310	0.775700	0.865190	0.323100
C3111	C311	0.754600	0.874710	0.364300
H2731	H273	0.750200	0.897700	0.366900
C3121	C312	0.736200	0.853340	0.409000
H2741	H274	0.719400	0.863500	0.438500
C3131	C313	0.794500	0.888600	0.269700
H2751	H275	0.778800	0.905200	0.249900
H2761	H276	0.811300	0.900600	0.299800
Mn241	Mn24	0.779210	0.636990	0.778360
O701	O70	0.758680	0.599120	0.814570
O711	O71	0.697530	0.634740	0.636030
O721	O72	0.794400	0.677400	0.731140
N621	N62	0.743610	0.643980	0.706230
N631	N63	0.746080	0.674060	0.665000
N641	N64	0.858280	0.939960	0.056300
C3141	C314	0.733880	0.582050	0.784200
C3151	C315	0.727600	0.550720	0.813300
H2771	H277	0.741100	0.542500	0.853200
C3161	C316	0.702590	0.531410	0.786300
H2781	H278	0.698700	0.510500	0.808700
C3171	C317	0.682950	0.541720	0.727200
H2791	H279	0.666100	0.527800	0.707500
C3181	C318	0.688230	0.572820	0.697200
H2801	H280	0.674200	0.580500	0.657700
C3191	C319	0.713530	0.593200	0.723300
C3201	C320	0.718070	0.625740	0.686900
C3211	C321	0.773420	0.688930	0.682400
C3221	C322	0.781680	0.720770	0.644600
H2811	H281	0.762000	0.730000	0.619000
H2821	H282	0.789600	0.737000	0.682400
C3231	C323	0.833360	0.921020	0.035300
H2831	H283	0.826600	0.921700	0.983600
C3241	C324	0.816860	0.900560	0.083500
H2841	H284	0.798900	0.887700	0.065600
C3251	C325	0.826290	0.898710	0.157900
C3261	C326	0.851530	0.918680	0.180900
H2851	H285	0.858500	0.918400	0.232400
C3271	C327	0.866940	0.939160	0.129900
H2861	H286	0.884200	0.953100	0.147200
C3281	C328	0.809200	0.874500	0.211800
H2871	H287	0.792700	0.861700	0.182800
H2881	H288	0.825900	0.858800	0.231400
Mn251	Mn25	0.425610	0.544820	0.671620
O731	O73	0.404360	0.518250	0.743800
O741	O74	0.504000	0.525030	0.816170
O751	O75	0.454380	0.570310	0.605450
N651	N65	0.467320	0.538480	0.723540
N661	N66	0.494650	0.554430	0.687760
C3291	C329	0.415830	0.502900	0.800900
C3301	C330	0.394650	0.482790	0.842000
H2891	H289	0.373000	0.479300	0.823100
C3311	C331	0.403300	0.468000	0.907300
H2901	H290	0.388200	0.453500	0.931500
C3321	C332	0.435200	0.473600	0.941700
H2911	H291	0.440400	0.466000	0.991300
C3331	C333	0.458270	0.491400	0.896200
H2921	H292	0.480500	0.493000	0.912500
C3341	C334	0.449010	0.505960	0.829500
C3351	C335	0.474550	0.523580	0.788000
C3361	C336	0.485240	0.570020	0.627100
C3371	C337	0.510130	0.587800	0.580900
H2931	H293	0.524300	0.600800	0.615700
H2941	H294	0.524400	0.571200	0.555900
C3381	C338	0.497100	0.610480	0.521400
H2951	H295	0.481600	0.626100	0.544500
H2961	H296	0.515400	0.622700	0.498300
H2971	H297	0.485700	0.597600	0.482200
Mn261	Mn26	0.540980	0.537280	0.747470
O761	O76	0.550020	0.578910	0.787390
O771	O77	0.615170	0.567070	0.600340
O781	O78	0.538170	0.495000	0.696630
N671	N67	0.575920	0.542650	0.672870
N681	N68	0.581090	0.514420	0.627400
N691	N69	0.574300	0.511710	0.834200
C3391	C339	0.572560	0.601000	0.767600
C3401	C340	0.574740	0.629740	0.812000
H2981	H298	0.560500	0.632500	0.854300
C3411	C341	0.597190	0.653650	0.794700
H2991	H299	0.598200	0.673000	0.825200
C3421	C342	0.618510	0.650450	0.734000
H3001	H300	0.634000	0.667400	0.722700
C3431	C343	0.617080	0.622600	0.690100
H3011	H301	0.631900	0.620300	0.648600
C3441	C344	0.594360	0.597440	0.704900
C3451	C345	0.595280	0.567910	0.656200
C3461	C346	0.560600	0.491120	0.645100
C3471	C347	0.563640	0.457920	0.607000
H3021	H302	0.580700	0.459500	0.566900
H3031	H303	0.542400	0.452700	0.581900
C3481	C348	0.571800	0.431700	0.655800
H3041	H304	0.552400	0.417700	0.663600
H3051	H305	0.589600	0.418600	0.633000
H3061	H306	0.579200	0.440500	0.704700
C3491	C349	0.563300	0.480600	0.857800
H3071	H307	0.541900	0.473000	0.843700
C3501	C350	0.584400	0.460200	0.903300
H3081	H308	0.578200	0.438300	0.917100
C3511	C351	0.615190	0.474300	0.926900
C3521	C352	0.624710	0.495400	0.885700
H3091	H309	0.647700	0.499800	0.883100
C3531	C353	0.603340	0.513800	0.841000
H3101	H310	0.613500	0.530600	0.811500
C3541	C354	0.638600	0.455500	0.980300
H3111	H311	0.655200	0.471200	0.000100
H3121	H312	0.650600	0.438700	0.950200
Mn271	Mn27	0.386990	0.470790	0.471640
O791	O79	0.349120	0.491320	0.435430
O801	O80	0.384740	0.552470	0.613970
O811	O81	0.427400	0.455600	0.518860
N701	N70	0.393980	0.506390	0.543770
N711	N71	0.424060	0.503920	0.585000
N721	N72	0.689960	0.391720	0.193700
C3551	C355	0.332050	0.516120	0.465800
C3561	C356	0.300720	0.522400	0.436700
H3131	H313	0.292500	0.508900	0.396800
C3571	C357	0.281410	0.547410	0.463700
H3141	H314	0.260500	0.551300	0.441300
C3581	C358	0.291720	0.567050	0.522800
H3151	H315	0.277800	0.583900	0.542500
C3591	C359	0.322820	0.561770	0.552800
H3161	H316	0.330500	0.575800	0.592300
C3601	C360	0.343200	0.536470	0.526700
C3611	C361	0.375740	0.531930	0.563100
C3621	C362	0.438930	0.476580	0.567600
C3631	C363	0.470770	0.468320	0.605400
H3171	H317	0.480000	0.488000	0.631000
H3181	H318	0.487000	0.460400	0.567600
C3641	C364	0.671020	0.416640	0.214700
H3191	H319	0.671700	0.423400	0.266400
C3651	C365	0.650560	0.433140	0.166500
H3201	H320	0.637700	0.451100	0.184400
C3661	C366	0.648710	0.423710	0.092100
C3671	C367	0.668680	0.398470	0.069100
H3211	H321	0.668400	0.391500	0.017600
C3681	C368	0.689160	0.383060	0.120100
H3221	H322	0.703100	0.365800	0.102800
C3691	C369	0.624500	0.440800	0.038200
H3231	H323	0.611700	0.457300	0.067200
H3241	H324	0.608800	0.424100	0.018600
Mn281	Mn28	0.925610	0.044820	0.171620
O821	O82	0.904360	0.018250	0.243800
O831	O83	0.004000	0.025030	0.316170
O841	O84	0.954380	0.070310	0.105450
N731	N73	0.967320	0.038480	0.223540
N741	N74	0.994650	0.054430	0.187760
C3701	C370	0.915830	0.002900	0.300900
C3711	C371	0.894650	0.982790	0.342000
H3251	H325	0.873000	0.979300	0.323100
C3721	C372	0.903300	0.968000	0.407300
H3261	H326	0.888200	0.953500	0.431500
C3731	C373	0.935200	0.973600	0.441700
H3271	H327	0.940400	0.966000	0.491300
C3741	C374	0.958270	0.991400	0.396200
H3281	H328	0.980500	0.993000	0.412500
C3751	C375	0.949010	0.005960	0.329500
C3761	C376	0.974550	0.023580	0.288000
C3771	C377	0.985240	0.070020	0.127100
C3781	C378	0.010130	0.087800	0.080900
H3291	H329	0.024300	0.100800	0.115700
H3301	H330	0.024400	0.071200	0.055900
C3791	C379	0.997100	0.110480	0.021400
H3311	H331	0.981600	0.126100	0.044500
H3321	H332	0.015400	0.122700	0.998300
H3331	H333	0.985700	0.097600	0.982200
Mn291	Mn29	0.040980	0.037280	0.247470
O851	O85	0.050020	0.078910	0.287390
O861	O86	0.115170	0.067070	0.100340
O871	O87	0.038170	0.995000	0.196630
N751	N75	0.075920	0.042650	0.172870
N761	N76	0.081090	0.014420	0.127400
N771	N77	0.074300	0.011710	0.334200
C3801	C380	0.072560	0.101000	0.267600
C3811	C381	0.074740	0.129740	0.312000
H3341	H334	0.060500	0.132500	0.354300
C3821	C382	0.097190	0.153650	0.294700
H3351	H335	0.098200	0.173000	0.325200
C3831	C383	0.118510	0.150450	0.234000
H3361	H336	0.134000	0.167400	0.222700
C3841	C384	0.117080	0.122600	0.190100
H3371	H337	0.131900	0.120300	0.148600
C3851	C385	0.094360	0.097440	0.204900
C3861	C386	0.095280	0.067910	0.156200
C3871	C387	0.060600	0.991120	0.145100
C3881	C388	0.063640	0.957920	0.107000
H3381	H338	0.080700	0.959500	0.066900
H3391	H339	0.042400	0.952700	0.081900
C3891	C389	0.071800	0.931700	0.155800
H3401	H340	0.052400	0.917700	0.163600
H3411	H341	0.089600	0.918600	0.133000
H3421	H342	0.079200	0.940500	0.204700
C3901	C390	0.063300	0.980600	0.357800
H3431	H343	0.041900	0.973000	0.343700
C3911	C391	0.084400	0.960200	0.403300
H3441	H344	0.078200	0.938300	0.417100
C3921	C392	0.115190	0.974300	0.426900
C3931	C393	0.124710	0.995400	0.385700
H3451	H345	0.147700	0.999800	0.383100
C3941	C394	0.103340	0.013800	0.341000
H3461	H346	0.113500	0.030600	0.311500
C3951	C395	0.138600	0.955500	0.480300
H3471	H347	0.155200	0.971200	0.500100
H3481	H348	0.150600	0.938700	0.450200
Mn301	Mn30	0.886990	0.970790	0.971640
O881	O88	0.849120	0.991320	0.935430
O891	O89	0.884740	0.052470	0.113970
O901	O90	0.927400	0.955600	0.018860
N781	N78	0.893980	0.006390	0.043770
N791	N79	0.924060	0.003920	0.085000
N801	N80	0.189960	0.891720	0.693700
C3961	C396	0.832050	0.016120	0.965800
C3971	C397	0.800720	0.022400	0.936700
H3491	H349	0.792500	0.008900	0.896800
C3981	C398	0.781410	0.047410	0.963700
H3501	H350	0.760500	0.051300	0.941300
C3991	C399	0.791720	0.067050	0.022800
H3511	H351	0.777800	0.083900	0.042500
C4001	C400	0.822820	0.061770	0.052800
H3521	H352	0.830500	0.075800	0.092300
C4011	C401	0.843200	0.036470	0.026700
C4021	C402	0.875740	0.031930	0.063100
C4031	C403	0.938930	0.976580	0.067600
C4041	C404	0.970770	0.968320	0.105400
H3531	H353	0.980000	0.988000	0.131000
H3541	H354	0.987000	0.960400	0.067600
C4051	C405	0.171020	0.916640	0.714700
H3551	H355	0.171700	0.923400	0.766400
C4061	C406	0.150560	0.933140	0.666500
H3561	H356	0.137700	0.951100	0.684400
C4071	C407	0.148710	0.923710	0.592100
C4081	C408	0.168680	0.898470	0.569100
H3571	H357	0.168400	0.891500	0.517600
C4091	C409	0.189160	0.883060	0.620100
H3581	H358	0.203100	0.865800	0.602800
C4101	C410	0.124500	0.940800	0.538200
H3591	H359	0.111700	0.957300	0.567200
H3601	H360	0.108800	0.924100	0.518600
Mn311	Mn31	0.074390	0.455180	0.171620
O911	O91	0.095640	0.481750	0.243800
O921	O92	0.996000	0.474970	0.316170
O931	O93	0.045620	0.429690	0.105450
N811	N81	0.032680	0.461520	0.223540
N821	N82	0.005350	0.445570	0.187760
C4111	C411	0.084170	0.497100	0.300900
C4121	C412	0.105350	0.517210	0.342000
H3611	H361	0.127000	0.520700	0.323100
C4131	C413	0.096700	0.532000	0.407300
H3621	H362	0.111800	0.546500	0.431500
C4141	C414	0.064800	0.526400	0.441700
H3631	H363	0.059600	0.534000	0.491300
C4151	C415	0.041730	0.508600	0.396200
H3641	H364	0.019500	0.507000	0.412500
C4161	C416	0.050990	0.494040	0.329500
C4171	C417	0.025450	0.476420	0.288000
C4181	C418	0.014760	0.429980	0.127100
C4191	C419	0.989870	0.412200	0.080900
H3651	H365	0.975700	0.399200	0.115700
H3661	H366	0.975600	0.428800	0.055900
C4201	C420	0.002900	0.389520	0.021400
H3671	H367	0.018400	0.373900	0.044500
H3681	H368	0.984600	0.377300	0.998300
H3691	H369	0.014300	0.402400	0.982200
Mn321	Mn32	0.959020	0.462720	0.247470
O941	O94	0.949980	0.421090	0.287390
O951	O95	0.884830	0.432930	0.100340
O961	O96	0.961830	0.505000	0.196630
N831	N83	0.924080	0.457350	0.172870
N841	N84	0.918910	0.485580	0.127400
N851	N85	0.925700	0.488290	0.334200
C4211	C421	0.927440	0.399000	0.267600
C4221	C422	0.925260	0.370260	0.312000
H3701	H370	0.939500	0.367500	0.354300
C4231	C423	0.902810	0.346350	0.294700
H3711	H371	0.901800	0.327000	0.325200
C4241	C424	0.881490	0.349550	0.234000
H3721	H372	0.866000	0.332600	0.222700
C4251	C425	0.882920	0.377400	0.190100
H3731	H373	0.868100	0.379700	0.148600
C4261	C426	0.905640	0.402560	0.204900
C4271	C427	0.904720	0.432090	0.156200
C4281	C428	0.939400	0.508880	0.145100
C4291	C429	0.936360	0.542080	0.107000
H3741	H374	0.919300	0.540500	0.066900
H3751	H375	0.957600	0.547300	0.081900
C4301	C430	0.928200	0.568300	0.155800
H3761	H376	0.947600	0.582300	0.163600
H3771	H377	0.910400	0.581400	0.133000
H3781	H378	0.920800	0.559500	0.204700
C4311	C431	0.936700	0.519400	0.357800
H3791	H379	0.958100	0.527000	0.343700
C4321	C432	0.915600	0.539800	0.403300
H3801	H380	0.921800	0.561700	0.417100
C4331	C433	0.884810	0.525700	0.426900
C4341	C434	0.875290	0.504600	0.385700
H3811	H381	0.852300	0.500200	0.383100
C4351	C435	0.896660	0.486200	0.341000
H3821	H382	0.886500	0.469400	0.311500
C4361	C436	0.861400	0.544500	0.480300
H3831	H383	0.844800	0.528800	0.500100
H3841	H384	0.849400	0.561300	0.450200
Mn331	Mn33	0.113010	0.529210	0.971640
O971	O97	0.150880	0.508680	0.935430
O981	O98	0.115260	0.447530	0.113970
O991	O99	0.072600	0.544400	0.018860
N861	N86	0.106020	0.493610	0.043770
N871	N87	0.075940	0.496080	0.085000
N881	N88	0.810040	0.608280	0.693700
C4371	C437	0.167950	0.483880	0.965800
C4381	C438	0.199280	0.477600	0.936700
H3851	H385	0.207500	0.491100	0.896800
C4391	C439	0.218590	0.452590	0.963700
H3861	H386	0.239500	0.448700	0.941300
C4401	C440	0.208280	0.432950	0.022800
H3871	H387	0.222200	0.416100	0.042500
C4411	C441	0.177180	0.438230	0.052800
H3881	H388	0.169500	0.424200	0.092300
C4421	C442	0.156800	0.463530	0.026700
C4431	C443	0.124260	0.468070	0.063100
C4441	C444	0.061070	0.523420	0.067600
C4451	C445	0.029230	0.531680	0.105400
H3891	H389	0.020000	0.512000	0.131000
H3901	H390	0.013000	0.539600	0.067600
C4461	C446	0.828980	0.583360	0.714700
H3911	H391	0.828300	0.576600	0.766400
C4471	C447	0.849440	0.566860	0.666500
H3921	H392	0.862300	0.548900	0.684400
C4481	C448	0.851290	0.576290	0.592100
C4491	C449	0.831320	0.601530	0.569100
H3931	H393	0.831600	0.608500	0.517600
C4501	C450	0.810840	0.616940	0.620100
H3941	H394	0.796900	0.634200	0.602800
C4511	C451	0.875500	0.559200	0.538200
H3951	H395	0.888300	0.542700	0.567200
H3961	H396	0.891200	0.575900	0.518600
Mn341	Mn34	0.574390	0.955180	0.671620
O1001	O100	0.595640	0.981750	0.743800
O1011	O101	0.496000	0.974970	0.816170
O1021	O102	0.545620	0.929690	0.605450
N891	N89	0.532680	0.961520	0.723540
N901	N90	0.505350	0.945570	0.687760
C4521	C452	0.584170	0.997100	0.800900
C4531	C453	0.605350	0.017210	0.842000
H3971	H397	0.627000	0.020700	0.823100
C4541	C454	0.596700	0.032000	0.907300
H3981	H398	0.611800	0.046500	0.931500
C4551	C455	0.564800	0.026400	0.941700
H3991	H399	0.559600	0.034000	0.991300
C4561	C456	0.541730	0.008600	0.896200
H4001	H400	0.519500	0.007000	0.912500
C4571	C457	0.550990	0.994040	0.829500
C4581	C458	0.525450	0.976420	0.788000
C4591	C459	0.514760	0.929980	0.627100
C4601	C460	0.489870	0.912200	0.580900
H4011	H401	0.475700	0.899200	0.615700
H4021	H402	0.475600	0.928800	0.555900
C4611	C461	0.502900	0.889520	0.521400
H4031	H403	0.518400	0.873900	0.544500
H4041	H404	0.484600	0.877300	0.498300
H4051	H405	0.514300	0.902400	0.482200
Mn351	Mn35	0.459020	0.962720	0.747470
O1031	O103	0.449980	0.921090	0.787390
O1041	O104	0.384830	0.932930	0.600340
O1051	O105	0.461830	0.005000	0.696630
N911	N91	0.424080	0.957350	0.672870
N921	N92	0.418910	0.985580	0.627400
N931	N93	0.425700	0.988290	0.834200
C4621	C462	0.427440	0.899000	0.767600
C4631	C463	0.425260	0.870260	0.812000
H4061	H406	0.439500	0.867500	0.854300
C4641	C464	0.402810	0.846350	0.794700
H4071	H407	0.401800	0.827000	0.825200
C4651	C465	0.381490	0.849550	0.734000
H4081	H408	0.366000	0.832600	0.722700
C4661	C466	0.382920	0.877400	0.690100
H4091	H409	0.368100	0.879700	0.648600
C4671	C467	0.405640	0.902560	0.704900
C4681	C468	0.404720	0.932090	0.656200
C4691	C469	0.439400	0.008880	0.645100
C4701	C470	0.436360	0.042080	0.607000
H4101	H410	0.419300	0.040500	0.566900
H4111	H411	0.457600	0.047300	0.581900
C4711	C471	0.428200	0.068300	0.655800
H4121	H412	0.447600	0.082300	0.663600
H4131	H413	0.410400	0.081400	0.633000
H4141	H414	0.420800	0.059500	0.704700
C4721	C472	0.436700	0.019400	0.857800
H4151	H415	0.458100	0.027000	0.843700
C4731	C473	0.415600	0.039800	0.903300
H4161	H416	0.421800	0.061700	0.917100
C4741	C474	0.384810	0.025700	0.926900
C4751	C475	0.375290	0.004600	0.885700
H4171	H417	0.352300	0.000200	0.883100
C4761	C476	0.396660	0.986200	0.841000
H4181	H418	0.386500	0.969400	0.811500
C4771	C477	0.361400	0.044500	0.980300
H4191	H419	0.344800	0.028800	0.000100
H4201	H420	0.349400	0.061300	0.950200
Mn361	Mn36	0.613010	0.029210	0.471640
O1061	O106	0.650880	0.008680	0.435430
O1071	O107	0.615260	0.947530	0.613970
O1081	O108	0.572600	0.044400	0.518860
N941	N94	0.606020	0.993610	0.543770
N951	N95	0.575940	0.996080	0.585000
N961	N96	0.310040	0.108280	0.193700
C4781	C478	0.667950	0.983880	0.465800
C4791	C479	0.699280	0.977600	0.436700
H4211	H421	0.707500	0.991100	0.396800
C4801	C480	0.718590	0.952590	0.463700
H4221	H422	0.739500	0.948700	0.441300
C4811	C481	0.708280	0.932950	0.522800
H4231	H423	0.722200	0.916100	0.542500
C4821	C482	0.677180	0.938230	0.552800
H4241	H424	0.669500	0.924200	0.592300
C4831	C483	0.656800	0.963530	0.526700
C4841	C484	0.624260	0.968070	0.563100
C4851	C485	0.561070	0.023420	0.567600
C4861	C486	0.529230	0.031680	0.605400
H4251	H425	0.520000	0.012000	0.631000
H4261	H426	0.513000	0.039600	0.567600
C4871	C487	0.328980	0.083360	0.214700
H4271	H427	0.328300	0.076600	0.266400
C4881	C488	0.349440	0.066860	0.166500
H4281	H428	0.362300	0.048900	0.184400
C4891	C489	0.351290	0.076290	0.092100
C4901	C490	0.331320	0.101530	0.069100
H4291	H429	0.331600	0.108500	0.017600
C4911	C491	0.310840	0.116940	0.120100
H4301	H430	0.296900	0.134200	0.102800
C4921	C492	0.375500	0.059200	0.038200
H4311	H431	0.388300	0.042700	0.067200
H4321	H432	0.391200	0.075900	0.018600
Mn371	Mn37	0.705180	0.175610	0.421620
O1091	O109	0.731750	0.154360	0.493800
O1101	O110	0.724970	0.254000	0.566170
O1111	O111	0.679690	0.204380	0.355450
N971	N97	0.711520	0.217320	0.473540
N981	N98	0.695570	0.244650	0.437760
C4931	C493	0.747100	0.165830	0.550900
C4941	C494	0.767210	0.144650	0.592000
H4331	H433	0.770700	0.123000	0.573100
C4951	C495	0.782000	0.153300	0.657300
H4341	H434	0.796500	0.138200	0.681500
C4961	C496	0.776400	0.185200	0.691700
H4351	H435	0.784000	0.190400	0.741300
C4971	C497	0.758600	0.208270	0.646200
H4361	H436	0.757000	0.230500	0.662500
C4981	C498	0.744040	0.199010	0.579500
C4991	C499	0.726420	0.224550	0.538000
C5001	C500	0.679980	0.235240	0.377100
C5011	C501	0.662200	0.260130	0.330900
H4371	H437	0.649200	0.274300	0.365700
H4381	H438	0.678800	0.274400	0.305900
C5021	C502	0.639520	0.247100	0.271400
H4391	H439	0.623900	0.231600	0.294500
H4401	H440	0.627300	0.265400	0.248300
H4411	H441	0.652400	0.235700	0.232200
Mn381	Mn38	0.712720	0.290980	0.497470
O1121	O112	0.671090	0.300020	0.537390
O1131	O113	0.682930	0.365170	0.350340
O1141	O114	0.755000	0.288170	0.446630
N991	N99	0.707350	0.325920	0.422870
N1001	N100	0.735580	0.331090	0.377400
N1011	N101	0.738290	0.324300	0.584200
C5031	C503	0.649000	0.322560	0.517600
C5041	C504	0.620260	0.324740	0.562000
H4421	H442	0.617500	0.310500	0.604300
C5051	C505	0.596350	0.347190	0.544700
H4431	H443	0.577000	0.348200	0.575200
C5061	C506	0.599550	0.368510	0.484000
H4441	H444	0.582600	0.384000	0.472700
C5071	C507	0.627400	0.367080	0.440100
H4451	H445	0.629700	0.381900	0.398600
C5081	C508	0.652560	0.344360	0.454900
C5091	C509	0.682090	0.345280	0.406200
C5101	C510	0.758880	0.310600	0.395100
C5111	C511	0.792080	0.313640	0.357000
H4461	H446	0.790500	0.330700	0.316900
H4471	H447	0.797300	0.292400	0.331900
C5121	C512	0.818300	0.321800	0.405800
H4481	H448	0.832300	0.302400	0.413600
H4491	H449	0.831400	0.339600	0.383000
H4501	H450	0.809500	0.329200	0.454700
C5131	C513	0.769400	0.313300	0.607800
H4511	H451	0.777000	0.291900	0.593700
C5141	C514	0.789800	0.334400	0.653300
H4521	H452	0.811700	0.328200	0.667100
C5151	C515	0.775700	0.365190	0.676900
C5161	C516	0.754600	0.374710	0.635700
H4531	H453	0.750200	0.397700	0.633100
C5171	C517	0.736200	0.353340	0.591000
H4541	H454	0.719400	0.363500	0.561500
C5181	C518	0.794500	0.388600	0.730300
H4551	H455	0.778800	0.405200	0.750100
H4561	H456	0.811300	0.400600	0.700200
Mn391	Mn39	0.779210	0.136990	0.221640
O1151	O115	0.758680	0.099120	0.185430
O1161	O116	0.697530	0.134740	0.363970
O1171	O117	0.794400	0.177400	0.268860
N1021	N102	0.743610	0.143980	0.293770
N1031	N103	0.746080	0.174060	0.335000
N1041	N104	0.858280	0.439960	0.943700
C5191	C519	0.733880	0.082050	0.215800
C5201	C520	0.727600	0.050720	0.186700
H4571	H457	0.741100	0.042500	0.146800
C5211	C521	0.702590	0.031410	0.213700
H4581	H458	0.698700	0.010500	0.191300
C5221	C522	0.682950	0.041720	0.272800
H4591	H459	0.666100	0.027800	0.292500
C5231	C523	0.688230	0.072820	0.302800
H4601	H460	0.674200	0.080500	0.342300
C5241	C524	0.713530	0.093200	0.276700
C5251	C525	0.718070	0.125740	0.313100
C5261	C526	0.773420	0.188930	0.317600
C5271	C527	0.781680	0.220770	0.355400
H4611	H461	0.762000	0.230000	0.381000
H4621	H462	0.789600	0.237000	0.317600
C5281	C528	0.833360	0.421020	0.964700
H4631	H463	0.826600	0.421700	0.016400
C5291	C529	0.816860	0.400560	0.916500
H4641	H464	0.798900	0.387700	0.934400
C5301	C530	0.826290	0.398710	0.842100
C5311	C531	0.851530	0.418680	0.819100
H4651	H465	0.858500	0.418400	0.767600
C5321	C532	0.866940	0.439160	0.870100
H4661	H466	0.884200	0.453100	0.852800
C5331	C533	0.809200	0.374500	0.788200
H4671	H467	0.792700	0.361700	0.817200
H4681	H468	0.825900	0.358800	0.768600
Mn401	Mn40	0.205180	0.675610	0.921620
O1181	O118	0.231750	0.654360	0.993800
O1191	O119	0.224970	0.754000	0.066170
O1201	O120	0.179690	0.704380	0.855450
N1051	N105	0.211520	0.717320	0.973540
N1061	N106	0.195570	0.744650	0.937760
C5341	C534	0.247100	0.665830	0.050900
C5351	C535	0.267210	0.644650	0.092000
H4691	H469	0.270700	0.623000	0.073100
C5361	C536	0.282000	0.653300	0.157300
H4701	H470	0.296500	0.638200	0.181500
C5371	C537	0.276400	0.685200	0.191700
H4711	H471	0.284000	0.690400	0.241300
C5381	C538	0.258600	0.708270	0.146200
H4721	H472	0.257000	0.730500	0.162500
C5391	C539	0.244040	0.699010	0.079500
C5401	C540	0.226420	0.724550	0.038000
C5411	C541	0.179980	0.735240	0.877100
C5421	C542	0.162200	0.760130	0.830900
H4731	H473	0.149200	0.774300	0.865700
H4741	H474	0.178800	0.774400	0.805900
C5431	C543	0.139520	0.747100	0.771400
H4751	H475	0.123900	0.731600	0.794500
H4761	H476	0.127300	0.765400	0.748300
H4771	H477	0.152400	0.735700	0.732200
Mn411	Mn41	0.212720	0.790980	0.997470
O1211	O121	0.171090	0.800020	0.037390
O1221	O122	0.182930	0.865170	0.850340
O1231	O123	0.255000	0.788170	0.946630
N1071	N107	0.207350	0.825920	0.922870
N1081	N108	0.235580	0.831090	0.877400
N1091	N109	0.238290	0.824300	0.084200
C5441	C544	0.149000	0.822560	0.017600
C5451	C545	0.120260	0.824740	0.062000
H4781	H478	0.117500	0.810500	0.104300
C5461	C546	0.096350	0.847190	0.044700
H4791	H479	0.077000	0.848200	0.075200
C5471	C547	0.099550	0.868510	0.984000
H4801	H480	0.082600	0.884000	0.972700
C5481	C548	0.127400	0.867080	0.940100
H4811	H481	0.129700	0.881900	0.898600
C5491	C549	0.152560	0.844360	0.954900
C5501	C550	0.182090	0.845280	0.906200
C5511	C551	0.258880	0.810600	0.895100
C5521	C552	0.292080	0.813640	0.857000
H4821	H482	0.290500	0.830700	0.816900
H4831	H483	0.297300	0.792400	0.831900
C5531	C553	0.318300	0.821800	0.905800
H4841	H484	0.332300	0.802400	0.913600
H4851	H485	0.331400	0.839600	0.883000
H4861	H486	0.309500	0.829200	0.954700
C5541	C554	0.269400	0.813300	0.107800
H4871	H487	0.277000	0.791900	0.093700
C5551	C555	0.289800	0.834400	0.153300
H4881	H488	0.311700	0.828200	0.167100
C5561	C556	0.275700	0.865190	0.176900
C5571	C557	0.254600	0.874710	0.135700
H4891	H489	0.250200	0.897700	0.133100
C5581	C558	0.236200	0.853340	0.091000
H4901	H490	0.219400	0.863500	0.061500
C5591	C559	0.294500	0.888600	0.230300
H4911	H491	0.278800	0.905200	0.250100
H4921	H492	0.311300	0.900600	0.200200
Mn421	Mn42	0.279210	0.636990	0.721640
O1241	O124	0.258680	0.599120	0.685430
O1251	O125	0.197530	0.634740	0.863970
O1261	O126	0.294400	0.677400	0.768860
N1101	N110	0.243610	0.643980	0.793770
N1111	N111	0.246080	0.674060	0.835000
N1121	N112	0.358280	0.939960	0.443700
C5601	C560	0.233880	0.582050	0.715800
C5611	C561	0.227600	0.550720	0.686700
H4931	H493	0.241100	0.542500	0.646800
C5621	C562	0.202590	0.531410	0.713700
H4941	H494	0.198700	0.510500	0.691300
C5631	C563	0.182950	0.541720	0.772800
H4951	H495	0.166100	0.527800	0.792500
C5641	C564	0.188230	0.572820	0.802800
H4961	H496	0.174200	0.580500	0.842300
C5651	C565	0.213530	0.593200	0.776700
C5661	C566	0.218070	0.625740	0.813100
C5671	C567	0.273420	0.688930	0.817600
C5681	C568	0.281680	0.720770	0.855400
H4971	H497	0.262000	0.730000	0.881000
H4981	H498	0.289600	0.737000	0.817600
C5691	C569	0.333360	0.921020	0.464700
H4991	H499	0.326600	0.921700	0.516400
C5701	C570	0.316860	0.900560	0.416500
H5001	H500	0.298900	0.887700	0.434400
C5711	C571	0.326290	0.898710	0.342100
C5721	C572	0.351530	0.918680	0.319100
H5011	H501	0.358500	0.918400	0.267600
C5731	C573	0.366940	0.939160	0.370100
H5021	H502	0.384200	0.953100	0.352800
C5741	C574	0.309200	0.874500	0.288200
H5031	H503	0.292700	0.861700	0.317200
H5041	H504	0.325900	0.858800	0.268600
Mn431	Mn43	0.794820	0.824390	0.921620
O1271	O127	0.768250	0.845640	0.993800
O1281	O128	0.775030	0.746000	0.066170
O1291	O129	0.820310	0.795620	0.855450
N1131	N113	0.788480	0.782680	0.973540
N1141	N114	0.804430	0.755350	0.937760
C5751	C575	0.752900	0.834170	0.050900
C5761	C576	0.732790	0.855350	0.092000
H5051	H505	0.729300	0.877000	0.073100
C5771	C577	0.718000	0.846700	0.157300
H5061	H506	0.703500	0.861800	0.181500
C5781	C578	0.723600	0.814800	0.191700
H5071	H507	0.716000	0.809600	0.241300
C5791	C579	0.741400	0.791730	0.146200
H5081	H508	0.743000	0.769500	0.162500
C5801	C580	0.755960	0.800990	0.079500
C5811	C581	0.773580	0.775450	0.038000
C5821	C582	0.820020	0.764760	0.877100
C5831	C583	0.837800	0.739870	0.830900
H5091	H509	0.850800	0.725700	0.865700
H5101	H510	0.821200	0.725600	0.805900
C5841	C584	0.860480	0.752900	0.771400
H5111	H511	0.876100	0.768400	0.794500
H5121	H512	0.872700	0.734600	0.748300
H5131	H513	0.847600	0.764300	0.732200
Mn441	Mn44	0.787280	0.709020	0.997470
O1301	O130	0.828910	0.699980	0.037390
O1311	O131	0.817070	0.634830	0.850340
O1321	O132	0.745000	0.711830	0.946630
N1151	N115	0.792650	0.674080	0.922870
N1161	N116	0.764420	0.668910	0.877400
N1171	N117	0.761710	0.675700	0.084200
C5851	C585	0.851000	0.677440	0.017600
C5861	C586	0.879740	0.675260	0.062000
H5141	H514	0.882500	0.689500	0.104300
C5871	C587	0.903650	0.652810	0.044700
H5151	H515	0.923000	0.651800	0.075200
C5881	C588	0.900450	0.631490	0.984000
H5161	H516	0.917400	0.616000	0.972700
C5891	C589	0.872600	0.632920	0.940100
H5171	H517	0.870300	0.618100	0.898600
C5901	C590	0.847440	0.655640	0.954900
C5911	C591	0.817910	0.654720	0.906200
C5921	C592	0.741120	0.689400	0.895100
C5931	C593	0.707920	0.686360	0.857000
H5181	H518	0.709500	0.669300	0.816900
H5191	H519	0.702700	0.707600	0.831900
C5941	C594	0.681700	0.678200	0.905800
H5201	H520	0.667700	0.697600	0.913600
H5211	H521	0.668600	0.660400	0.883000
H5221	H522	0.690500	0.670800	0.954700
C5951	C595	0.730600	0.686700	0.107800
H5231	H523	0.723000	0.708100	0.093700
C5961	C596	0.710200	0.665600	0.153300
H5241	H524	0.688300	0.671800	0.167100
C5971	C597	0.724300	0.634810	0.176900
C5981	C598	0.745400	0.625290	0.135700
H5251	H525	0.749800	0.602300	0.133100
C5991	C599	0.763800	0.646660	0.091000
H5261	H526	0.780600	0.636500	0.061500
C6001	C600	0.705500	0.611400	0.230300
H5271	H527	0.721200	0.594800	0.250100
H5281	H528	0.688700	0.599400	0.200200
Mn451	Mn45	0.720790	0.863010	0.721640
O1331	O133	0.741320	0.900880	0.685430
O1341	O134	0.802470	0.865260	0.863970
O1351	O135	0.705600	0.822600	0.768860
N1181	N118	0.756390	0.856020	0.793770
N1191	N119	0.753920	0.825940	0.835000
N1201	N120	0.641720	0.560040	0.443700
C6011	C601	0.766120	0.917950	0.715800
C6021	C602	0.772400	0.949280	0.686700
H5291	H529	0.758900	0.957500	0.646800
C6031	C603	0.797410	0.968590	0.713700
H5301	H530	0.801300	0.989500	0.691300
C6041	C604	0.817050	0.958280	0.772800
H5311	H531	0.833900	0.972200	0.792500
C6051	C605	0.811770	0.927180	0.802800
H5321	H532	0.825800	0.919500	0.842300
C6061	C606	0.786470	0.906800	0.776700
C6071	C607	0.781930	0.874260	0.813100
C6081	C608	0.726580	0.811070	0.817600
C6091	C609	0.718320	0.779230	0.855400
H5331	H533	0.738000	0.770000	0.881000
H5341	H534	0.710400	0.763000	0.817600
C6101	C610	0.666640	0.578980	0.464700
H5351	H535	0.673400	0.578300	0.516400
C6111	C611	0.683140	0.599440	0.416500
H5361	H536	0.701100	0.612300	0.434400
C6121	C612	0.673710	0.601290	0.342100
C6131	C613	0.648470	0.581320	0.319100
H5371	H537	0.641500	0.581600	0.267600
C6141	C614	0.633060	0.560840	0.370100
H5381	H538	0.615800	0.546900	0.352800
C6151	C615	0.690800	0.625500	0.288200
H5391	H539	0.707300	0.638300	0.317200
H5401	H540	0.674100	0.641200	0.268600
Mn461	Mn46	0.294820	0.324390	0.421620
O1361	O136	0.268250	0.345640	0.493800
O1371	O137	0.275030	0.246000	0.566170
O1381	O138	0.320310	0.295620	0.355450
N1211	N121	0.288480	0.282680	0.473540
N1221	N122	0.304430	0.255350	0.437760
C6161	C616	0.252900	0.334170	0.550900
C6171	C617	0.232790	0.355350	0.592000
H5411	H541	0.229300	0.377000	0.573100
C6181	C618	0.218000	0.346700	0.657300
H5421	H542	0.203500	0.361800	0.681500
C6191	C619	0.223600	0.314800	0.691700
H5431	H543	0.216000	0.309600	0.741300
C6201	C620	0.241400	0.291730	0.646200
H5441	H544	0.243000	0.269500	0.662500
C6211	C621	0.255960	0.300990	0.579500
C6221	C622	0.273580	0.275450	0.538000
C6231	C623	0.320020	0.264760	0.377100
C6241	C624	0.337800	0.239870	0.330900
H5451	H545	0.350800	0.225700	0.365700
H5461	H546	0.321200	0.225600	0.305900
C6251	C625	0.360480	0.252900	0.271400
H5471	H547	0.376100	0.268400	0.294500
H5481	H548	0.372700	0.234600	0.248300
H5491	H549	0.347600	0.264300	0.232200
Mn471	Mn47	0.287280	0.209020	0.497470
O1391	O139	0.328910	0.199980	0.537390
O1401	O140	0.317070	0.134830	0.350340
O1411	O141	0.245000	0.211830	0.446630
N1231	N123	0.292650	0.174080	0.422870
N1241	N124	0.264420	0.168910	0.377400
N1251	N125	0.261710	0.175700	0.584200
C6261	C626	0.351000	0.177440	0.517600
C6271	C627	0.379740	0.175260	0.562000
H5501	H550	0.382500	0.189500	0.604300
C6281	C628	0.403650	0.152810	0.544700
H5511	H551	0.423000	0.151800	0.575200
C6291	C629	0.400450	0.131490	0.484000
H5521	H552	0.417400	0.116000	0.472700
C6301	C630	0.372600	0.132920	0.440100
H5531	H553	0.370300	0.118100	0.398600
C6311	C631	0.347440	0.155640	0.454900
C6321	C632	0.317910	0.154720	0.406200
C6331	C633	0.241120	0.189400	0.395100
C6341	C634	0.207920	0.186360	0.357000
H5541	H554	0.209500	0.169300	0.316900
H5551	H555	0.202700	0.207600	0.331900
C6351	C635	0.181700	0.178200	0.405800
H5561	H556	0.167700	0.197600	0.413600
H5571	H557	0.168600	0.160400	0.383000
H5581	H558	0.190500	0.170800	0.454700
C6361	C636	0.230600	0.186700	0.607800
H5591	H559	0.223000	0.208100	0.593700
C6371	C637	0.210200	0.165600	0.653300
H5601	H560	0.188300	0.171800	0.667100
C6381	C638	0.224300	0.134810	0.676900
C6391	C639	0.245400	0.125290	0.635700
H5611	H561	0.249800	0.102300	0.633100
C6401	C640	0.263800	0.146660	0.591000
H5621	H562	0.280600	0.136500	0.561500
C6411	C641	0.205500	0.111400	0.730300
H5631	H563	0.221200	0.094800	0.750100
H5641	H564	0.188700	0.099400	0.700200
Mn481	Mn48	0.220790	0.363010	0.221640
O1421	O142	0.241320	0.400880	0.185430
O1431	O143	0.302470	0.365260	0.363970
O1441	O144	0.205600	0.322600	0.268860
N1261	N126	0.256390	0.356020	0.293770
N1271	N127	0.253920	0.325940	0.335000
N1281	N128	0.141720	0.060040	0.943700
C6421	C642	0.266120	0.417950	0.215800
C6431	C643	0.272400	0.449280	0.186700
H5651	H565	0.258900	0.457500	0.146800
C6441	C644	0.297410	0.468590	0.213700
H5661	H566	0.301300	0.489500	0.191300
C6451	C645	0.317050	0.458280	0.272800
H5671	H567	0.333900	0.472200	0.292500
C6461	C646	0.311770	0.427180	0.302800
H5681	H568	0.325800	0.419500	0.342300
C6471	C647	0.286470	0.406800	0.276700
C6481	C648	0.281930	0.374260	0.313100
C6491	C649	0.226580	0.311070	0.317600
C6501	C650	0.218320	0.279230	0.355400
H5691	H569	0.238000	0.270000	0.381000
H5701	H570	0.210400	0.263000	0.317600
C6511	C651	0.166640	0.078980	0.964700
H5711	H571	0.173400	0.078300	0.016400
C6521	C652	0.183140	0.099440	0.916500
H5721	H572	0.201100	0.112300	0.934400
C6531	C653	0.173710	0.101290	0.842100
C6541	C654	0.148470	0.081320	0.819100
H5731	H573	0.141500	0.081600	0.767600
C6551	C655	0.133060	0.060840	0.870100
H5741	H574	0.115800	0.046900	0.852800
C6561	C656	0.190800	0.125500	0.788200
H5751	H575	0.207300	0.138300	0.817200
H5761	H576	0.174100	0.141200	0.768600
