data_XALCOD_clean_PM
_symmetry_space_group_name_H-M	'P1'
_cell_length_a	40.906400
_cell_length_b	40.906400
_cell_length_c	17.457400
_cell_angle_alpha	90.000000
_cell_angle_beta	90.000000
_cell_angle_gamma	90.000000
_symmetry_Int_Tables_number 1

loop_
_symmetry_equiv_pos_as_xyz
'x,y,z'

loop_
_atom_site_label
_atom_site_type_symbol
_atom_site_fract_x
_atom_site_fract_y
_atom_site_fract_z
Mn11	Mn1	0.076620	0.040190	0.184110
O11	O1	0.094540	0.013030	0.259690
O21	O2	0.994530	0.025220	0.319640
O31	O3	0.051250	0.066340	0.113090
N11	N1	0.033990	0.036110	0.230840
N21	N2	0.008350	0.051370	0.188900
C11	C1	0.080750	0.000160	0.322130
C21	C2	0.100290	0.980210	0.368100
H11	H1	0.122100	0.975600	0.352900
C31	C3	0.088400	0.967080	0.435500
H21	H2	0.102100	0.953400	0.465600
C41	C4	0.056890	0.973430	0.460100
H31	H3	0.049100	0.965100	0.507500
C51	C5	0.036850	0.992340	0.413400
H41	H4	0.015000	0.996400	0.428900
C61	C6	0.048110	0.005570	0.344060
C71	C7	0.024400	0.023210	0.296610
C81	C8	0.019910	0.065940	0.128270
C91	C9	0.997630	0.083130	0.073330
H51	H5	0.974800	0.080600	0.091000
H61	H6	0.999500	0.072700	0.022400
C101	C10	0.005330	0.119320	0.065500
H71	H7	0.991400	0.128800	0.024800
H81	H8	0.028400	0.121900	0.049800
C111	C11	0.999620	0.138140	0.140400
H91	H9	0.014300	0.129300	0.180400
H101	H10	0.976800	0.134600	0.157400
C121	C12	0.005710	0.175040	0.132400
H111	H11	0.991200	0.184000	0.092100
H121	H12	0.028600	0.178800	0.116400
C131	C13	0.999210	0.193190	0.208700
H131	H13	0.977600	0.187100	0.228300
H141	H14	0.000000	0.216800	0.200000
H151	H15	0.016000	0.187100	0.246300
Mn21	Mn2	0.960170	0.037850	0.245070
N31	N3	0.926160	0.043550	0.168660
N41	N4	0.921700	0.016320	0.119370
N51	N5	0.926180	0.011590	0.328750
O41	O4	0.951530	0.079090	0.284290
O51	O5	0.885060	0.066980	0.099680
O61	O6	0.963120	0.996170	0.193150
C141	C14	0.927740	0.100080	0.268190
C151	C15	0.925130	0.128110	0.314500
H161	H16	0.940300	0.131500	0.354900
C161	C16	0.900740	0.150820	0.302000
H171	H17	0.899400	0.169600	0.333900
C171	C17	0.878430	0.146690	0.244200
H181	H18	0.861400	0.162200	0.236700
C181	C18	0.880950	0.119860	0.197210
H191	H19	0.865800	0.117300	0.156500
C191	C19	0.905330	0.096160	0.207830
C201	C20	0.905480	0.067710	0.155780
C211	C21	0.941810	0.992970	0.138220
C221	C22	0.939840	0.960320	0.098800
H201	H20	0.962000	0.953400	0.082900
H211	H21	0.926100	0.962300	0.052300
C231	C23	0.925040	0.934510	0.152800
H221	H22	0.927600	0.912700	0.129100
H231	H23	0.937500	0.934500	0.201400
C241	C24	0.889290	0.940110	0.170300
H241	H24	0.877000	0.940500	0.121500
H251	H25	0.886800	0.961900	0.194500
C251	C25	0.874160	0.914550	0.222600
H261	H26	0.886600	0.913800	0.271200
H271	H27	0.876000	0.892800	0.198000
C261	C26	0.838000	0.921520	0.240300
H281	H28	0.835700	0.944000	0.259000
H291	H29	0.830300	0.906200	0.279500
H301	H30	0.825000	0.918800	0.193600
C271	C27	0.896150	0.021340	0.345500
H311	H31	0.889400	0.042500	0.329400
C281	C28	0.874250	0.001930	0.385400
H321	H32	0.853000	0.010000	0.396700
C291	C29	0.883100	0.971090	0.408700
C301	C30	0.914000	0.961370	0.392400
H331	H33	0.921300	0.940400	0.408500
C311	C31	0.934830	0.981610	0.352700
H341	H34	0.956300	0.974000	0.341700
C321	C32	0.860230	0.949180	0.454000
H351	H35	0.837300	0.955300	0.442800
H361	H36	0.863500	0.926200	0.438100
Mn31	Mn3	0.112880	0.970010	0.974160
O71	O7	0.148670	0.991950	0.934050
O81	O8	0.118130	0.047460	0.127790
O91	O9	0.075370	0.952440	0.027200
N61	N6	0.106290	0.004390	0.050040
N71	N7	0.078490	0.999690	0.097080
N81	N8	0.808750	0.895000	0.692000
C331	C33	0.165700	0.016520	0.964270
C341	C34	0.195560	0.024200	0.928790
H371	H37	0.202400	0.012000	0.885300
C351	C35	0.214990	0.049110	0.956100
H381	H38	0.235100	0.053800	0.931200
C361	C36	0.205750	0.067390	0.019430
H391	H39	0.219300	0.084500	0.038200
C371	C37	0.176510	0.060120	0.054340
H401	H40	0.170000	0.072600	0.097600
C381	C38	0.155920	0.035070	0.028800
C391	C39	0.125410	0.028800	0.070190
C401	C40	0.064750	0.971920	0.080980
C411	C41	0.036280	0.960020	0.127800
H411	H41	0.027900	0.978200	0.159700
H421	H42	0.018500	0.952900	0.093100
C421	C42	0.046350	0.931020	0.180400
H431	H43	0.062800	0.938800	0.217700
H441	H44	0.056800	0.913900	0.148600
C431	C43	0.018030	0.916100	0.223500
H451	H45	0.020100	0.892100	0.217600
H461	H46	0.997900	0.922600	0.195700
C441	C44	0.013000	0.921000	0.288300
H471	H47	0.033900	0.917700	0.315900
H481	H48	0.007400	0.944400	0.293600
C451	C45	0.986520	0.901200	0.331200
H491	H49	0.981300	0.881400	0.302200
H501	H50	0.994600	0.895200	0.382100
H511	H51	0.966800	0.914600	0.336600
C461	C46	0.806830	0.890090	0.616810
H521	H52	0.792400	0.873600	0.598700
C471	C47	0.824710	0.907640	0.563600
H531	H53	0.822600	0.903100	0.510400
C481	C48	0.845630	0.931790	0.588900
C491	C49	0.847180	0.937410	0.666700
H541	H54	0.860900	0.954200	0.686500
C501	C50	0.828640	0.918500	0.715600
H551	H55	0.830200	0.922500	0.769100
C511	C51	0.866200	0.952190	0.534500
H561	H56	0.863200	0.975500	0.548600
H571	H57	0.889400	0.946700	0.543800
Mn41	Mn4	0.576620	0.540190	0.684110
O101	O10	0.594540	0.513030	0.759690
O111	O11	0.494530	0.525220	0.819640
O121	O12	0.551250	0.566340	0.613090
N91	N9	0.533990	0.536110	0.730840
N101	N10	0.508350	0.551370	0.688900
C521	C52	0.580750	0.500160	0.822130
C531	C53	0.600290	0.480210	0.868100
H581	H58	0.622100	0.475600	0.852900
C541	C54	0.588400	0.467080	0.935500
H591	H59	0.602100	0.453400	0.965600
C551	C55	0.556890	0.473430	0.960100
H601	H60	0.549100	0.465100	0.007500
C561	C56	0.536850	0.492340	0.913400
H611	H61	0.515000	0.496400	0.928900
C571	C57	0.548110	0.505570	0.844060
C581	C58	0.524400	0.523210	0.796610
C591	C59	0.519910	0.565940	0.628270
C601	C60	0.497630	0.583130	0.573330
H621	H62	0.474800	0.580600	0.591000
H631	H63	0.499500	0.572700	0.522400
C611	C61	0.505330	0.619320	0.565500
H641	H64	0.491400	0.628800	0.524800
H651	H65	0.528400	0.621900	0.549800
C621	C62	0.499620	0.638140	0.640400
H661	H66	0.514300	0.629300	0.680400
H671	H67	0.476800	0.634600	0.657400
C631	C63	0.505710	0.675040	0.632400
H681	H68	0.491200	0.684000	0.592100
H691	H69	0.528600	0.678800	0.616400
C641	C64	0.499210	0.693190	0.708700
H701	H70	0.477600	0.687100	0.728300
H711	H71	0.500000	0.716800	0.700000
H721	H72	0.516000	0.687100	0.746300
Mn51	Mn5	0.460170	0.537850	0.745070
N111	N11	0.426160	0.543550	0.668660
N121	N12	0.421700	0.516320	0.619370
N131	N13	0.426180	0.511590	0.828750
O131	O13	0.451530	0.579090	0.784290
O141	O14	0.385060	0.566980	0.599680
O151	O15	0.463120	0.496170	0.693150
C651	C65	0.427740	0.600080	0.768190
C661	C66	0.425130	0.628110	0.814500
H731	H73	0.440300	0.631500	0.854900
C671	C67	0.400740	0.650820	0.802000
H741	H74	0.399400	0.669600	0.833900
C681	C68	0.378430	0.646690	0.744200
H751	H75	0.361400	0.662200	0.736700
C691	C69	0.380950	0.619860	0.697210
H761	H76	0.365800	0.617300	0.656500
C701	C70	0.405330	0.596160	0.707830
C711	C71	0.405480	0.567710	0.655780
C721	C72	0.441810	0.492970	0.638220
C731	C73	0.439840	0.460320	0.598800
H771	H77	0.462000	0.453400	0.582900
H781	H78	0.426100	0.462300	0.552300
C741	C74	0.425040	0.434510	0.652800
H791	H79	0.427600	0.412700	0.629100
H801	H80	0.437500	0.434500	0.701400
C751	C75	0.389290	0.440110	0.670300
H811	H81	0.377000	0.440500	0.621500
H821	H82	0.386800	0.461900	0.694500
C761	C76	0.374160	0.414550	0.722600
H831	H83	0.386600	0.413800	0.771200
H841	H84	0.376000	0.392800	0.698000
C771	C77	0.338000	0.421520	0.740300
H851	H85	0.335700	0.444000	0.759000
H861	H86	0.330300	0.406200	0.779500
H871	H87	0.325000	0.418800	0.693600
C781	C78	0.396150	0.521340	0.845500
H881	H88	0.389400	0.542500	0.829400
C791	C79	0.374250	0.501930	0.885400
H891	H89	0.353000	0.510000	0.896700
C801	C80	0.383100	0.471090	0.908700
C811	C81	0.414000	0.461370	0.892400
H901	H90	0.421300	0.440400	0.908500
C821	C82	0.434830	0.481610	0.852700
H911	H91	0.456300	0.474000	0.841700
C831	C83	0.360230	0.449180	0.954000
H921	H92	0.337300	0.455300	0.942800
H931	H93	0.363500	0.426200	0.938100
Mn61	Mn6	0.612880	0.470010	0.474160
O161	O16	0.648670	0.491950	0.434050
O171	O17	0.618130	0.547460	0.627790
O181	O18	0.575370	0.452440	0.527200
N141	N14	0.606290	0.504390	0.550040
N151	N15	0.578490	0.499690	0.597080
N161	N16	0.308750	0.395000	0.192000
C841	C84	0.665700	0.516520	0.464270
C851	C85	0.695560	0.524200	0.428790
H941	H94	0.702400	0.512000	0.385300
C861	C86	0.714990	0.549110	0.456100
H951	H95	0.735100	0.553800	0.431200
C871	C87	0.705750	0.567390	0.519430
H961	H96	0.719300	0.584500	0.538200
C881	C88	0.676510	0.560120	0.554340
H971	H97	0.670000	0.572600	0.597600
C891	C89	0.655920	0.535070	0.528800
C901	C90	0.625410	0.528800	0.570190
C911	C91	0.564750	0.471920	0.580980
C921	C92	0.536280	0.460020	0.627800
H981	H98	0.527900	0.478200	0.659700
H991	H99	0.518500	0.452900	0.593100
C931	C93	0.546350	0.431020	0.680400
H1001	H100	0.562800	0.438800	0.717700
H1011	H101	0.556800	0.413900	0.648600
C941	C94	0.518030	0.416100	0.723500
H1021	H102	0.520100	0.392100	0.717600
H1031	H103	0.497900	0.422600	0.695700
C951	C95	0.513000	0.421000	0.788300
H1041	H104	0.533900	0.417700	0.815900
H1051	H105	0.507400	0.444400	0.793600
C961	C96	0.486520	0.401200	0.831200
H1061	H106	0.481300	0.381400	0.802200
H1071	H107	0.494600	0.395200	0.882100
H1081	H108	0.466800	0.414600	0.836600
C971	C97	0.306830	0.390090	0.116810
H1091	H109	0.292400	0.373600	0.098700
C981	C98	0.324710	0.407640	0.063600
H1101	H110	0.322600	0.403100	0.010400
C991	C99	0.345630	0.431790	0.088900
C1001	C100	0.347180	0.437410	0.166700
H1111	H111	0.360900	0.454200	0.186500
C1011	C101	0.328640	0.418500	0.215600
H1121	H112	0.330200	0.422500	0.269100
C1021	C102	0.366200	0.452190	0.034500
H1131	H113	0.363200	0.475500	0.048600
H1141	H114	0.389400	0.446700	0.043800
Mn71	Mn7	0.423380	0.959810	0.684110
O191	O19	0.405460	0.986970	0.759690
O201	O20	0.505470	0.974780	0.819640
O211	O21	0.448750	0.933660	0.613090
N171	N17	0.466010	0.963890	0.730840
N181	N18	0.491650	0.948630	0.688900
C1031	C103	0.419250	0.999840	0.822130
C1041	C104	0.399710	0.019790	0.868100
H1151	H115	0.377900	0.024400	0.852900
C1051	C105	0.411600	0.032920	0.935500
H1161	H116	0.397900	0.046600	0.965600
C1061	C106	0.443110	0.026570	0.960100
H1171	H117	0.450900	0.034900	0.007500
C1071	C107	0.463150	0.007660	0.913400
H1181	H118	0.485000	0.003600	0.928900
C1081	C108	0.451890	0.994430	0.844060
C1091	C109	0.475600	0.976790	0.796610
C1101	C110	0.480090	0.934060	0.628270
C1111	C111	0.502370	0.916870	0.573330
H1191	H119	0.525200	0.919400	0.591000
H1201	H120	0.500500	0.927300	0.522400
C1121	C112	0.494670	0.880680	0.565500
H1211	H121	0.508600	0.871200	0.524800
H1221	H122	0.471600	0.878100	0.549800
C1131	C113	0.500380	0.861860	0.640400
H1231	H123	0.485700	0.870700	0.680400
H1241	H124	0.523200	0.865400	0.657400
C1141	C114	0.494290	0.824960	0.632400
H1251	H125	0.508800	0.816000	0.592100
H1261	H126	0.471400	0.821200	0.616400
C1151	C115	0.500790	0.806810	0.708700
H1271	H127	0.522400	0.812900	0.728300
H1281	H128	0.500000	0.783200	0.700000
H1291	H129	0.484000	0.812900	0.746300
Mn81	Mn8	0.539830	0.962150	0.745070
N191	N19	0.573840	0.956450	0.668660
N201	N20	0.578300	0.983680	0.619370
N211	N21	0.573820	0.988410	0.828750
O221	O22	0.548470	0.920910	0.784290
O231	O23	0.614940	0.933020	0.599680
O241	O24	0.536880	0.003830	0.693150
C1161	C116	0.572260	0.899920	0.768190
C1171	C117	0.574870	0.871890	0.814500
H1301	H130	0.559700	0.868500	0.854900
C1181	C118	0.599260	0.849180	0.802000
H1311	H131	0.600600	0.830400	0.833900
C1191	C119	0.621570	0.853310	0.744200
H1321	H132	0.638600	0.837800	0.736700
C1201	C120	0.619050	0.880140	0.697210
H1331	H133	0.634200	0.882700	0.656500
C1211	C121	0.594670	0.903840	0.707830
C1221	C122	0.594520	0.932290	0.655780
C1231	C123	0.558190	0.007030	0.638220
C1241	C124	0.560160	0.039680	0.598800
H1341	H134	0.538000	0.046600	0.582900
H1351	H135	0.573900	0.037700	0.552300
C1251	C125	0.574960	0.065490	0.652800
H1361	H136	0.572400	0.087300	0.629100
H1371	H137	0.562500	0.065500	0.701400
C1261	C126	0.610710	0.059890	0.670300
H1381	H138	0.623000	0.059500	0.621500
H1391	H139	0.613200	0.038100	0.694500
C1271	C127	0.625840	0.085450	0.722600
H1401	H140	0.613400	0.086200	0.771200
H1411	H141	0.624000	0.107200	0.698000
C1281	C128	0.662000	0.078480	0.740300
H1421	H142	0.664300	0.056000	0.759000
H1431	H143	0.669700	0.093800	0.779500
H1441	H144	0.675000	0.081200	0.693600
C1291	C129	0.603850	0.978660	0.845500
H1451	H145	0.610600	0.957500	0.829400
C1301	C130	0.625750	0.998070	0.885400
H1461	H146	0.647000	0.990000	0.896700
C1311	C131	0.616900	0.028910	0.908700
C1321	C132	0.586000	0.038630	0.892400
H1471	H147	0.578700	0.059600	0.908500
C1331	C133	0.565170	0.018390	0.852700
H1481	H148	0.543700	0.026000	0.841700
C1341	C134	0.639770	0.050820	0.954000
H1491	H149	0.662700	0.044700	0.942800
H1501	H150	0.636500	0.073800	0.938100
Mn91	Mn9	0.387120	0.029990	0.474160
O251	O25	0.351330	0.008050	0.434050
O261	O26	0.381870	0.952540	0.627790
O271	O27	0.424630	0.047560	0.527200
N221	N22	0.393710	0.995610	0.550040
N231	N23	0.421510	0.000310	0.597080
N241	N24	0.691250	0.105000	0.192000
C1351	C135	0.334300	0.983480	0.464270
C1361	C136	0.304440	0.975800	0.428790
H1511	H151	0.297600	0.988000	0.385300
C1371	C137	0.285010	0.950890	0.456100
H1521	H152	0.264900	0.946200	0.431200
C1381	C138	0.294250	0.932610	0.519430
H1531	H153	0.280700	0.915500	0.538200
C1391	C139	0.323490	0.939880	0.554340
H1541	H154	0.330000	0.927400	0.597600
C1401	C140	0.344080	0.964930	0.528800
C1411	C141	0.374590	0.971200	0.570190
C1421	C142	0.435250	0.028080	0.580980
C1431	C143	0.463720	0.039980	0.627800
H1551	H155	0.472100	0.021800	0.659700
H1561	H156	0.481500	0.047100	0.593100
C1441	C144	0.453650	0.068980	0.680400
H1571	H157	0.437200	0.061200	0.717700
H1581	H158	0.443200	0.086100	0.648600
C1451	C145	0.481970	0.083900	0.723500
H1591	H159	0.479900	0.107900	0.717600
H1601	H160	0.502100	0.077400	0.695700
C1461	C146	0.487000	0.079000	0.788300
H1611	H161	0.466100	0.082300	0.815900
H1621	H162	0.492600	0.055600	0.793600
C1471	C147	0.513480	0.098800	0.831200
H1631	H163	0.518700	0.118600	0.802200
H1641	H164	0.505400	0.104800	0.882100
H1651	H165	0.533200	0.085400	0.836600
C1481	C148	0.693170	0.109910	0.116810
H1661	H166	0.707600	0.126400	0.098700
C1491	C149	0.675290	0.092360	0.063600
H1671	H167	0.677400	0.096900	0.010400
C1501	C150	0.654370	0.068210	0.088900
C1511	C151	0.652820	0.062590	0.166700
H1681	H168	0.639100	0.045800	0.186500
C1521	C152	0.671360	0.081500	0.215600
H1691	H169	0.669800	0.077500	0.269100
C1531	C153	0.633800	0.047810	0.034500
H1701	H170	0.636800	0.024500	0.048600
H1711	H171	0.610600	0.053300	0.043800
Mn101	Mn10	0.923380	0.459810	0.184110
O281	O28	0.905460	0.486970	0.259690
O291	O29	0.005470	0.474780	0.319640
O301	O30	0.948750	0.433660	0.113090
N251	N25	0.966010	0.463890	0.230840
N261	N26	0.991650	0.448630	0.188900
C1541	C154	0.919250	0.499840	0.322130
C1551	C155	0.899710	0.519790	0.368100
H1721	H172	0.877900	0.524400	0.352900
C1561	C156	0.911600	0.532920	0.435500
H1731	H173	0.897900	0.546600	0.465600
C1571	C157	0.943110	0.526570	0.460100
H1741	H174	0.950900	0.534900	0.507500
C1581	C158	0.963150	0.507660	0.413400
H1751	H175	0.985000	0.503600	0.428900
C1591	C159	0.951890	0.494430	0.344060
C1601	C160	0.975600	0.476790	0.296610
C1611	C161	0.980090	0.434060	0.128270
C1621	C162	0.002370	0.416870	0.073330
H1761	H176	0.025200	0.419400	0.091000
H1771	H177	0.000500	0.427300	0.022400
C1631	C163	0.994670	0.380680	0.065500
H1781	H178	0.008600	0.371200	0.024800
H1791	H179	0.971600	0.378100	0.049800
C1641	C164	0.000380	0.361860	0.140400
H1801	H180	0.985700	0.370700	0.180400
H1811	H181	0.023200	0.365400	0.157400
C1651	C165	0.994290	0.324960	0.132400
H1821	H182	0.008800	0.316000	0.092100
H1831	H183	0.971400	0.321200	0.116400
C1661	C166	0.000790	0.306810	0.208700
H1841	H184	0.022400	0.312900	0.228300
H1851	H185	0.000000	0.283200	0.200000
H1861	H186	0.984000	0.312900	0.246300
Mn111	Mn11	0.039830	0.462150	0.245070
N271	N27	0.073840	0.456450	0.168660
N281	N28	0.078300	0.483680	0.119370
N291	N29	0.073820	0.488410	0.328750
O311	O31	0.048470	0.420910	0.284290
O321	O32	0.114940	0.433020	0.099680
O331	O33	0.036880	0.503830	0.193150
C1671	C167	0.072260	0.399920	0.268190
C1681	C168	0.074870	0.371890	0.314500
H1871	H187	0.059700	0.368500	0.354900
C1691	C169	0.099260	0.349180	0.302000
H1881	H188	0.100600	0.330400	0.333900
C1701	C170	0.121570	0.353310	0.244200
H1891	H189	0.138600	0.337800	0.236700
C1711	C171	0.119050	0.380140	0.197210
H1901	H190	0.134200	0.382700	0.156500
C1721	C172	0.094670	0.403840	0.207830
C1731	C173	0.094520	0.432290	0.155780
C1741	C174	0.058190	0.507030	0.138220
C1751	C175	0.060160	0.539680	0.098800
H1911	H191	0.038000	0.546600	0.082900
H1921	H192	0.073900	0.537700	0.052300
C1761	C176	0.074960	0.565490	0.152800
H1931	H193	0.072400	0.587300	0.129100
H1941	H194	0.062500	0.565500	0.201400
C1771	C177	0.110710	0.559890	0.170300
H1951	H195	0.123000	0.559500	0.121500
H1961	H196	0.113200	0.538100	0.194500
C1781	C178	0.125840	0.585450	0.222600
H1971	H197	0.113400	0.586200	0.271200
H1981	H198	0.124000	0.607200	0.198000
C1791	C179	0.162000	0.578480	0.240300
H1991	H199	0.164300	0.556000	0.259000
H2001	H200	0.169700	0.593800	0.279500
H2011	H201	0.175000	0.581200	0.193600
C1801	C180	0.103850	0.478660	0.345500
H2021	H202	0.110600	0.457500	0.329400
C1811	C181	0.125750	0.498070	0.385400
H2031	H203	0.147000	0.490000	0.396700
C1821	C182	0.116900	0.528910	0.408700
C1831	C183	0.086000	0.538630	0.392400
H2041	H204	0.078700	0.559600	0.408500
C1841	C184	0.065170	0.518390	0.352700
H2051	H205	0.043700	0.526000	0.341700
C1851	C185	0.139770	0.550820	0.454000
H2061	H206	0.162700	0.544700	0.442800
H2071	H207	0.136500	0.573800	0.438100
Mn121	Mn12	0.887120	0.529990	0.974160
O341	O34	0.851330	0.508050	0.934050
O351	O35	0.881870	0.452540	0.127790
O361	O36	0.924630	0.547560	0.027200
N301	N30	0.893710	0.495610	0.050040
N311	N31	0.921510	0.500310	0.097080
N321	N32	0.191250	0.605000	0.692000
C1861	C186	0.834300	0.483480	0.964270
C1871	C187	0.804440	0.475800	0.928790
H2081	H208	0.797600	0.488000	0.885300
C1881	C188	0.785010	0.450890	0.956100
H2091	H209	0.764900	0.446200	0.931200
C1891	C189	0.794250	0.432610	0.019430
H2101	H210	0.780700	0.415500	0.038200
C1901	C190	0.823490	0.439880	0.054340
H2111	H211	0.830000	0.427400	0.097600
C1911	C191	0.844080	0.464930	0.028800
C1921	C192	0.874590	0.471200	0.070190
C1931	C193	0.935250	0.528080	0.080980
C1941	C194	0.963720	0.539980	0.127800
H2121	H212	0.972100	0.521800	0.159700
H2131	H213	0.981500	0.547100	0.093100
C1951	C195	0.953650	0.568980	0.180400
H2141	H214	0.937200	0.561200	0.217700
H2151	H215	0.943200	0.586100	0.148600
C1961	C196	0.981970	0.583900	0.223500
H2161	H216	0.979900	0.607900	0.217600
H2171	H217	0.002100	0.577400	0.195700
C1971	C197	0.987000	0.579000	0.288300
H2181	H218	0.966100	0.582300	0.315900
H2191	H219	0.992600	0.555600	0.293600
C1981	C198	0.013480	0.598800	0.331200
H2201	H220	0.018700	0.618600	0.302200
H2211	H221	0.005400	0.604800	0.382100
H2221	H222	0.033200	0.585400	0.336600
C1991	C199	0.193170	0.609910	0.616810
H2231	H223	0.207600	0.626400	0.598700
C2001	C200	0.175290	0.592360	0.563600
H2241	H224	0.177400	0.596900	0.510400
C2011	C201	0.154370	0.568210	0.588900
C2021	C202	0.152820	0.562590	0.666700
H2251	H225	0.139100	0.545800	0.686500
C2031	C203	0.171360	0.581500	0.715600
H2261	H226	0.169800	0.577500	0.769100
C2041	C204	0.133800	0.547810	0.534500
H2271	H227	0.136800	0.524500	0.548600
H2281	H228	0.110600	0.553300	0.543800
Mn131	Mn13	0.709810	0.326620	0.434110
O371	O37	0.736970	0.344540	0.509690
O381	O38	0.724780	0.244530	0.569640
O391	O39	0.683660	0.301250	0.363090
N331	N33	0.713890	0.283990	0.480840
N341	N34	0.698630	0.258350	0.438900
C2051	C205	0.749840	0.330750	0.572130
C2061	C206	0.769790	0.350290	0.618100
H2291	H229	0.774400	0.372100	0.602900
C2071	C207	0.782920	0.338400	0.685500
H2301	H230	0.796600	0.352100	0.715600
C2081	C208	0.776570	0.306890	0.710100
H2311	H231	0.784900	0.299100	0.757500
C2091	C209	0.757660	0.286850	0.663400
H2321	H232	0.753600	0.265000	0.678900
C2101	C210	0.744430	0.298110	0.594060
C2111	C211	0.726790	0.274400	0.546610
C2121	C212	0.684060	0.269910	0.378270
C2131	C213	0.666870	0.247630	0.323330
H2331	H233	0.669400	0.224800	0.341000
H2341	H234	0.677300	0.249500	0.272400
C2141	C214	0.630680	0.255330	0.315500
H2351	H235	0.621200	0.241400	0.274800
H2361	H236	0.628100	0.278400	0.299800
C2151	C215	0.611860	0.249620	0.390400
H2371	H237	0.620700	0.264300	0.430400
H2381	H238	0.615400	0.226800	0.407400
C2161	C216	0.574960	0.255710	0.382400
H2391	H239	0.566000	0.241200	0.342100
H2401	H240	0.571200	0.278600	0.366400
C2171	C217	0.556810	0.249210	0.458700
H2411	H241	0.562900	0.227600	0.478300
H2421	H242	0.533200	0.250000	0.450000
H2431	H243	0.562900	0.266000	0.496300
Mn141	Mn14	0.712150	0.210170	0.495070
N351	N35	0.706450	0.176160	0.418660
N361	N36	0.733680	0.171700	0.369370
N371	N37	0.738410	0.176180	0.578750
O401	O40	0.670910	0.201530	0.534290
O411	O41	0.683020	0.135060	0.349680
O421	O42	0.753830	0.213120	0.443150
C2181	C218	0.649920	0.177740	0.518190
C2191	C219	0.621890	0.175130	0.564500
H2441	H244	0.618500	0.190300	0.604900
C2201	C220	0.599180	0.150740	0.552000
H2451	H245	0.580400	0.149400	0.583900
C2211	C221	0.603310	0.128430	0.494200
H2461	H246	0.587800	0.111400	0.486700
C2221	C222	0.630140	0.130950	0.447210
H2471	H247	0.632700	0.115800	0.406500
C2231	C223	0.653840	0.155330	0.457830
C2241	C224	0.682290	0.155480	0.405780
C2251	C225	0.757030	0.191810	0.388220
C2261	C226	0.789680	0.189840	0.348800
H2481	H248	0.796600	0.212000	0.332900
H2491	H249	0.787700	0.176100	0.302300
C2271	C227	0.815490	0.175040	0.402800
H2501	H250	0.837300	0.177600	0.379100
H2511	H251	0.815500	0.187500	0.451400
C2281	C228	0.809890	0.139290	0.420300
H2521	H252	0.809500	0.127000	0.371500
H2531	H253	0.788100	0.136800	0.444500
C2291	C229	0.835450	0.124160	0.472600
H2541	H254	0.836200	0.136600	0.521200
H2551	H255	0.857200	0.126000	0.448000
C2301	C230	0.828480	0.088000	0.490300
H2561	H256	0.806000	0.085700	0.509000
H2571	H257	0.843800	0.080300	0.529500
H2581	H258	0.831200	0.075000	0.443600
C2311	C231	0.728660	0.146150	0.595500
H2591	H259	0.707500	0.139400	0.579400
C2321	C232	0.748070	0.124250	0.635400
H2601	H260	0.740000	0.103000	0.646700
C2331	C233	0.778910	0.133100	0.658700
C2341	C234	0.788630	0.164000	0.642400
H2611	H261	0.809600	0.171300	0.658500
C2351	C235	0.768390	0.184830	0.602700
H2621	H262	0.776000	0.206300	0.591700
C2361	C236	0.800820	0.110230	0.704000
H2631	H263	0.794700	0.087300	0.692800
H2641	H264	0.823800	0.113500	0.688100
Mn151	Mn15	0.779990	0.362880	0.224160
O431	O43	0.758050	0.398670	0.184050
O441	O44	0.702540	0.368130	0.377790
O451	O45	0.797560	0.325370	0.277200
N381	N38	0.745610	0.356290	0.300040
N391	N39	0.750310	0.328490	0.347080
N401	N40	0.855000	0.058750	0.942000
C2371	C237	0.733480	0.415700	0.214270
C2381	C238	0.725800	0.445560	0.178790
H2651	H265	0.738000	0.452400	0.135300
C2391	C239	0.700890	0.464990	0.206100
H2661	H266	0.696200	0.485100	0.181200
C2401	C240	0.682610	0.455750	0.269430
H2671	H267	0.665500	0.469300	0.288200
C2411	C241	0.689880	0.426510	0.304340
H2681	H268	0.677400	0.420000	0.347600
C2421	C242	0.714930	0.405920	0.278800
C2431	C243	0.721200	0.375410	0.320190
C2441	C244	0.778080	0.314750	0.330980
C2451	C245	0.789980	0.286280	0.377800
H2691	H269	0.771800	0.277900	0.409700
H2701	H270	0.797100	0.268500	0.343100
C2461	C246	0.818980	0.296350	0.430400
H2711	H271	0.811200	0.312800	0.467700
H2721	H272	0.836100	0.306800	0.398600
C2471	C247	0.833900	0.268030	0.473500
H2731	H273	0.857900	0.270100	0.467600
H2741	H274	0.827400	0.247900	0.445700
C2481	C248	0.829000	0.263000	0.538300
H2751	H275	0.832300	0.283900	0.565900
H2761	H276	0.805600	0.257400	0.543600
C2491	C249	0.848800	0.236520	0.581200
H2771	H277	0.868600	0.231300	0.552200
H2781	H278	0.854800	0.244600	0.632100
H2791	H279	0.835400	0.216800	0.586600
C2501	C250	0.859910	0.056830	0.866810
H2801	H280	0.876400	0.042400	0.848700
C2511	C251	0.842360	0.074710	0.813600
H2811	H281	0.846900	0.072600	0.760400
C2521	C252	0.818210	0.095630	0.838900
C2531	C253	0.812590	0.097180	0.916700
H2821	H282	0.795800	0.110900	0.936500
C2541	C254	0.831500	0.078640	0.965600
H2831	H283	0.827500	0.080200	0.019100
C2551	C255	0.797810	0.116200	0.784500
H2841	H284	0.774500	0.113200	0.798600
H2851	H285	0.803300	0.139400	0.793800
Mn161	Mn16	0.209810	0.826620	0.934110
O461	O46	0.236970	0.844540	0.009690
O471	O47	0.224780	0.744530	0.069640
O481	O48	0.183660	0.801250	0.863090
N411	N41	0.213890	0.783990	0.980840
N421	N42	0.198630	0.758350	0.938900
C2561	C256	0.249840	0.830750	0.072130
C2571	C257	0.269790	0.850290	0.118100
H2861	H286	0.274400	0.872100	0.102900
C2581	C258	0.282920	0.838400	0.185500
H2871	H287	0.296600	0.852100	0.215600
C2591	C259	0.276570	0.806890	0.210100
H2881	H288	0.284900	0.799100	0.257500
C2601	C260	0.257660	0.786850	0.163400
H2891	H289	0.253600	0.765000	0.178900
C2611	C261	0.244430	0.798110	0.094060
C2621	C262	0.226790	0.774400	0.046610
C2631	C263	0.184060	0.769910	0.878270
C2641	C264	0.166870	0.747630	0.823330
H2901	H290	0.169400	0.724800	0.841000
H2911	H291	0.177300	0.749500	0.772400
C2651	C265	0.130680	0.755330	0.815500
H2921	H292	0.121200	0.741400	0.774800
H2931	H293	0.128100	0.778400	0.799800
C2661	C266	0.111860	0.749620	0.890400
H2941	H294	0.120700	0.764300	0.930400
H2951	H295	0.115400	0.726800	0.907400
C2671	C267	0.074960	0.755710	0.882400
H2961	H296	0.066000	0.741200	0.842100
H2971	H297	0.071200	0.778600	0.866400
C2681	C268	0.056810	0.749210	0.958700
H2981	H298	0.062900	0.727600	0.978300
H2991	H299	0.033200	0.750000	0.950000
H3001	H300	0.062900	0.766000	0.996300
Mn171	Mn17	0.212150	0.710170	0.995070
N431	N43	0.206450	0.676160	0.918660
N441	N44	0.233680	0.671700	0.869370
N451	N45	0.238410	0.676180	0.078750
O491	O49	0.170910	0.701530	0.034290
O501	O50	0.183020	0.635060	0.849680
O511	O51	0.253830	0.713120	0.943150
C2691	C269	0.149920	0.677740	0.018190
C2701	C270	0.121890	0.675130	0.064500
H3011	H301	0.118500	0.690300	0.104900
C2711	C271	0.099180	0.650740	0.052000
H3021	H302	0.080400	0.649400	0.083900
C2721	C272	0.103310	0.628430	0.994200
H3031	H303	0.087800	0.611400	0.986700
C2731	C273	0.130140	0.630950	0.947210
H3041	H304	0.132700	0.615800	0.906500
C2741	C274	0.153840	0.655330	0.957830
C2751	C275	0.182290	0.655480	0.905780
C2761	C276	0.257030	0.691810	0.888220
C2771	C277	0.289680	0.689840	0.848800
H3051	H305	0.296600	0.712000	0.832900
H3061	H306	0.287700	0.676100	0.802300
C2781	C278	0.315490	0.675040	0.902800
H3071	H307	0.337300	0.677600	0.879100
H3081	H308	0.315500	0.687500	0.951400
C2791	C279	0.309890	0.639290	0.920300
H3091	H309	0.309500	0.627000	0.871500
H3101	H310	0.288100	0.636800	0.944500
C2801	C280	0.335450	0.624160	0.972600
H3111	H311	0.336200	0.636600	0.021200
H3121	H312	0.357200	0.626000	0.948000
C2811	C281	0.328480	0.588000	0.990300
H3131	H313	0.306000	0.585700	0.009000
H3141	H314	0.343800	0.580300	0.029500
H3151	H315	0.331200	0.575000	0.943600
C2821	C282	0.228660	0.646150	0.095500
H3161	H316	0.207500	0.639400	0.079400
C2831	C283	0.248070	0.624250	0.135400
H3171	H317	0.240000	0.603000	0.146700
C2841	C284	0.278910	0.633100	0.158700
C2851	C285	0.288630	0.664000	0.142400
H3181	H318	0.309600	0.671300	0.158500
C2861	C286	0.268390	0.684830	0.102700
H3191	H319	0.276000	0.706300	0.091700
C2871	C287	0.300820	0.610230	0.204000
H3201	H320	0.294700	0.587300	0.192800
H3211	H321	0.323800	0.613500	0.188100
Mn181	Mn18	0.279990	0.862880	0.724160
O521	O52	0.258050	0.898670	0.684050
O531	O53	0.202540	0.868130	0.877790
O541	O54	0.297560	0.825370	0.777200
N461	N46	0.245610	0.856290	0.800040
N471	N47	0.250310	0.828490	0.847080
N481	N48	0.355000	0.558750	0.442000
C2881	C288	0.233480	0.915700	0.714270
C2891	C289	0.225800	0.945560	0.678790
H3221	H322	0.238000	0.952400	0.635300
C2901	C290	0.200890	0.964990	0.706100
H3231	H323	0.196200	0.985100	0.681200
C2911	C291	0.182610	0.955750	0.769430
H3241	H324	0.165500	0.969300	0.788200
C2921	C292	0.189880	0.926510	0.804340
H3251	H325	0.177400	0.920000	0.847600
C2931	C293	0.214930	0.905920	0.778800
C2941	C294	0.221200	0.875410	0.820190
C2951	C295	0.278080	0.814750	0.830980
C2961	C296	0.289980	0.786280	0.877800
H3261	H326	0.271800	0.777900	0.909700
H3271	H327	0.297100	0.768500	0.843100
C2971	C297	0.318980	0.796350	0.930400
H3281	H328	0.311200	0.812800	0.967700
H3291	H329	0.336100	0.806800	0.898600
C2981	C298	0.333900	0.768030	0.973500
H3301	H330	0.357900	0.770100	0.967600
H3311	H331	0.327400	0.747900	0.945700
C2991	C299	0.329000	0.763000	0.038300
H3321	H332	0.332300	0.783900	0.065900
H3331	H333	0.305600	0.757400	0.043600
C3001	C300	0.348800	0.736520	0.081200
H3341	H334	0.368600	0.731300	0.052200
H3351	H335	0.354800	0.744600	0.132100
H3361	H336	0.335400	0.716800	0.086600
C3011	C301	0.359910	0.556830	0.366810
H3371	H337	0.376400	0.542400	0.348700
C3021	C302	0.342360	0.574710	0.313600
H3381	H338	0.346900	0.572600	0.260400
C3031	C303	0.318210	0.595630	0.338900
C3041	C304	0.312590	0.597180	0.416700
H3391	H339	0.295800	0.610900	0.436500
C3051	C305	0.331500	0.578640	0.465600
H3401	H340	0.327500	0.580200	0.519100
C3061	C306	0.297810	0.616200	0.284500
H3411	H341	0.274500	0.613200	0.298600
H3421	H342	0.303300	0.639400	0.293800
Mn191	Mn19	0.790190	0.673380	0.934110
O551	O55	0.763030	0.655460	0.009690
O561	O56	0.775220	0.755470	0.069640
O571	O57	0.816340	0.698750	0.863090
N491	N49	0.786110	0.716010	0.980840
N501	N50	0.801370	0.741650	0.938900
C3071	C307	0.750160	0.669250	0.072130
C3081	C308	0.730210	0.649710	0.118100
H3431	H343	0.725600	0.627900	0.102900
C3091	C309	0.717080	0.661600	0.185500
H3441	H344	0.703400	0.647900	0.215600
C3101	C310	0.723430	0.693110	0.210100
H3451	H345	0.715100	0.700900	0.257500
C3111	C311	0.742340	0.713150	0.163400
H3461	H346	0.746400	0.735000	0.178900
C3121	C312	0.755570	0.701890	0.094060
C3131	C313	0.773210	0.725600	0.046610
C3141	C314	0.815940	0.730090	0.878270
C3151	C315	0.833130	0.752370	0.823330
H3471	H347	0.830600	0.775200	0.841000
H3481	H348	0.822700	0.750500	0.772400
C3161	C316	0.869320	0.744670	0.815500
H3491	H349	0.878800	0.758600	0.774800
H3501	H350	0.871900	0.721600	0.799800
C3171	C317	0.888140	0.750380	0.890400
H3511	H351	0.879300	0.735700	0.930400
H3521	H352	0.884600	0.773200	0.907400
C3181	C318	0.925040	0.744290	0.882400
H3531	H353	0.934000	0.758800	0.842100
H3541	H354	0.928800	0.721400	0.866400
C3191	C319	0.943190	0.750790	0.958700
H3551	H355	0.937100	0.772400	0.978300
H3561	H356	0.966800	0.750000	0.950000
H3571	H357	0.937100	0.734000	0.996300
Mn201	Mn20	0.787850	0.789830	0.995070
N511	N51	0.793550	0.823840	0.918660
N521	N52	0.766320	0.828300	0.869370
N531	N53	0.761590	0.823820	0.078750
O581	O58	0.829090	0.798470	0.034290
O591	O59	0.816980	0.864940	0.849680
O601	O60	0.746170	0.786880	0.943150
C3201	C320	0.850080	0.822260	0.018190
C3211	C321	0.878110	0.824870	0.064500
H3581	H358	0.881500	0.809700	0.104900
C3221	C322	0.900820	0.849260	0.052000
H3591	H359	0.919600	0.850600	0.083900
C3231	C323	0.896690	0.871570	0.994200
H3601	H360	0.912200	0.888600	0.986700
C3241	C324	0.869860	0.869050	0.947210
H3611	H361	0.867300	0.884200	0.906500
C3251	C325	0.846160	0.844670	0.957830
C3261	C326	0.817710	0.844520	0.905780
C3271	C327	0.742970	0.808190	0.888220
C3281	C328	0.710320	0.810160	0.848800
H3621	H362	0.703400	0.788000	0.832900
H3631	H363	0.712300	0.823900	0.802300
C3291	C329	0.684510	0.824960	0.902800
H3641	H364	0.662700	0.822400	0.879100
H3651	H365	0.684500	0.812500	0.951400
C3301	C330	0.690110	0.860710	0.920300
H3661	H366	0.690500	0.873000	0.871500
H3671	H367	0.711900	0.863200	0.944500
C3311	C331	0.664550	0.875840	0.972600
H3681	H368	0.663800	0.863400	0.021200
H3691	H369	0.642800	0.874000	0.948000
C3321	C332	0.671520	0.912000	0.990300
H3701	H370	0.694000	0.914300	0.009000
H3711	H371	0.656200	0.919700	0.029500
H3721	H372	0.668800	0.925000	0.943600
C3331	C333	0.771340	0.853850	0.095500
H3731	H373	0.792500	0.860600	0.079400
C3341	C334	0.751930	0.875750	0.135400
H3741	H374	0.760000	0.897000	0.146700
C3351	C335	0.721090	0.866900	0.158700
C3361	C336	0.711370	0.836000	0.142400
H3751	H375	0.690400	0.828700	0.158500
C3371	C337	0.731610	0.815170	0.102700
H3761	H376	0.724000	0.793700	0.091700
C3381	C338	0.699180	0.889770	0.204000
H3771	H377	0.705300	0.912700	0.192800
H3781	H378	0.676200	0.886500	0.188100
Mn211	Mn21	0.720010	0.637120	0.724160
O611	O61	0.741950	0.601330	0.684050
O621	O62	0.797460	0.631870	0.877790
O631	O63	0.702440	0.674630	0.777200
N541	N54	0.754390	0.643710	0.800040
N551	N55	0.749690	0.671510	0.847080
N561	N56	0.645000	0.941250	0.442000
C3391	C339	0.766520	0.584300	0.714270
C3401	C340	0.774200	0.554440	0.678790
H3791	H379	0.762000	0.547600	0.635300
C3411	C341	0.799110	0.535010	0.706100
H3801	H380	0.803800	0.514900	0.681200
C3421	C342	0.817390	0.544250	0.769430
H3811	H381	0.834500	0.530700	0.788200
C3431	C343	0.810120	0.573490	0.804340
H3821	H382	0.822600	0.580000	0.847600
C3441	C344	0.785070	0.594080	0.778800
C3451	C345	0.778800	0.624590	0.820190
C3461	C346	0.721920	0.685250	0.830980
C3471	C347	0.710020	0.713720	0.877800
H3831	H383	0.728200	0.722100	0.909700
H3841	H384	0.702900	0.731500	0.843100
C3481	C348	0.681020	0.703650	0.930400
H3851	H385	0.688800	0.687200	0.967700
H3861	H386	0.663900	0.693200	0.898600
C3491	C349	0.666100	0.731970	0.973500
H3871	H387	0.642100	0.729900	0.967600
H3881	H388	0.672600	0.752100	0.945700
C3501	C350	0.671000	0.737000	0.038300
H3891	H389	0.667700	0.716100	0.065900
H3901	H390	0.694400	0.742600	0.043600
C3511	C351	0.651200	0.763480	0.081200
H3911	H391	0.631400	0.768700	0.052200
H3921	H392	0.645200	0.755400	0.132100
H3931	H393	0.664600	0.783200	0.086600
C3521	C352	0.640090	0.943170	0.366810
H3941	H394	0.623600	0.957600	0.348700
C3531	C353	0.657640	0.925290	0.313600
H3951	H395	0.653100	0.927400	0.260400
C3541	C354	0.681790	0.904370	0.338900
C3551	C355	0.687410	0.902820	0.416700
H3961	H396	0.704200	0.889100	0.436500
C3561	C356	0.668500	0.921360	0.465600
H3971	H397	0.672500	0.919800	0.519100
C3571	C357	0.702190	0.883800	0.284500
H3981	H398	0.725500	0.886800	0.298600
H3991	H399	0.696700	0.860600	0.293800
Mn221	Mn22	0.290190	0.173380	0.434110
O641	O64	0.263030	0.155460	0.509690
O651	O65	0.275220	0.255470	0.569640
O661	O66	0.316340	0.198750	0.363090
N571	N57	0.286110	0.216010	0.480840
N581	N58	0.301370	0.241650	0.438900
C3581	C358	0.250160	0.169250	0.572130
C3591	C359	0.230210	0.149710	0.618100
H4001	H400	0.225600	0.127900	0.602900
C3601	C360	0.217080	0.161600	0.685500
H4011	H401	0.203400	0.147900	0.715600
C3611	C361	0.223430	0.193110	0.710100
H4021	H402	0.215100	0.200900	0.757500
C3621	C362	0.242340	0.213150	0.663400
H4031	H403	0.246400	0.235000	0.678900
C3631	C363	0.255570	0.201890	0.594060
C3641	C364	0.273210	0.225600	0.546610
C3651	C365	0.315940	0.230090	0.378270
C3661	C366	0.333130	0.252370	0.323330
H4041	H404	0.330600	0.275200	0.341000
H4051	H405	0.322700	0.250500	0.272400
C3671	C367	0.369320	0.244670	0.315500
H4061	H406	0.378800	0.258600	0.274800
H4071	H407	0.371900	0.221600	0.299800
C3681	C368	0.388140	0.250380	0.390400
H4081	H408	0.379300	0.235700	0.430400
H4091	H409	0.384600	0.273200	0.407400
C3691	C369	0.425040	0.244290	0.382400
H4101	H410	0.434000	0.258800	0.342100
H4111	H411	0.428800	0.221400	0.366400
C3701	C370	0.443190	0.250790	0.458700
H4121	H412	0.437100	0.272400	0.478300
H4131	H413	0.466800	0.250000	0.450000
H4141	H414	0.437100	0.234000	0.496300
Mn231	Mn23	0.287850	0.289830	0.495070
N591	N59	0.293550	0.323840	0.418660
N601	N60	0.266320	0.328300	0.369370
N611	N61	0.261590	0.323820	0.578750
O671	O67	0.329090	0.298470	0.534290
O681	O68	0.316980	0.364940	0.349680
O691	O69	0.246170	0.286880	0.443150
C3711	C371	0.350080	0.322260	0.518190
C3721	C372	0.378110	0.324870	0.564500
H4151	H415	0.381500	0.309700	0.604900
C3731	C373	0.400820	0.349260	0.552000
H4161	H416	0.419600	0.350600	0.583900
C3741	C374	0.396690	0.371570	0.494200
H4171	H417	0.412200	0.388600	0.486700
C3751	C375	0.369860	0.369050	0.447210
H4181	H418	0.367300	0.384200	0.406500
C3761	C376	0.346160	0.344670	0.457830
C3771	C377	0.317710	0.344520	0.405780
C3781	C378	0.242970	0.308190	0.388220
C3791	C379	0.210320	0.310160	0.348800
H4191	H419	0.203400	0.288000	0.332900
H4201	H420	0.212300	0.323900	0.302300
C3801	C380	0.184510	0.324960	0.402800
H4211	H421	0.162700	0.322400	0.379100
H4221	H422	0.184500	0.312500	0.451400
C3811	C381	0.190110	0.360710	0.420300
H4231	H423	0.190500	0.373000	0.371500
H4241	H424	0.211900	0.363200	0.444500
C3821	C382	0.164550	0.375840	0.472600
H4251	H425	0.163800	0.363400	0.521200
H4261	H426	0.142800	0.374000	0.448000
C3831	C383	0.171520	0.412000	0.490300
H4271	H427	0.194000	0.414300	0.509000
H4281	H428	0.156200	0.419700	0.529500
H4291	H429	0.168800	0.425000	0.443600
C3841	C384	0.271340	0.353850	0.595500
H4301	H430	0.292500	0.360600	0.579400
C3851	C385	0.251930	0.375750	0.635400
H4311	H431	0.260000	0.397000	0.646700
C3861	C386	0.221090	0.366900	0.658700
C3871	C387	0.211370	0.336000	0.642400
H4321	H432	0.190400	0.328700	0.658500
C3881	C388	0.231610	0.315170	0.602700
H4331	H433	0.224000	0.293700	0.591700
C3891	C389	0.199180	0.389770	0.704000
H4341	H434	0.205300	0.412700	0.692800
H4351	H435	0.176200	0.386500	0.688100
Mn241	Mn24	0.220010	0.137120	0.224160
O701	O70	0.241950	0.101330	0.184050
O711	O71	0.297460	0.131870	0.377790
O721	O72	0.202440	0.174630	0.277200
N621	N62	0.254390	0.143710	0.300040
N631	N63	0.249690	0.171510	0.347080
N641	N64	0.145000	0.441250	0.942000
C3901	C390	0.266520	0.084300	0.214270
C3911	C391	0.274200	0.054440	0.178790
H4361	H436	0.262000	0.047600	0.135300
C3921	C392	0.299110	0.035010	0.206100
H4371	H437	0.303800	0.014900	0.181200
C3931	C393	0.317390	0.044250	0.269430
H4381	H438	0.334500	0.030700	0.288200
C3941	C394	0.310120	0.073490	0.304340
H4391	H439	0.322600	0.080000	0.347600
C3951	C395	0.285070	0.094080	0.278800
C3961	C396	0.278800	0.124590	0.320190
C3971	C397	0.221920	0.185250	0.330980
C3981	C398	0.210020	0.213720	0.377800
H4401	H440	0.228200	0.222100	0.409700
H4411	H441	0.202900	0.231500	0.343100
C3991	C399	0.181020	0.203650	0.430400
H4421	H442	0.188800	0.187200	0.467700
H4431	H443	0.163900	0.193200	0.398600
C4001	C400	0.166100	0.231970	0.473500
H4441	H444	0.142100	0.229900	0.467600
H4451	H445	0.172600	0.252100	0.445700
C4011	C401	0.171000	0.237000	0.538300
H4461	H446	0.167700	0.216100	0.565900
H4471	H447	0.194400	0.242600	0.543600
C4021	C402	0.151200	0.263480	0.581200
H4481	H448	0.131400	0.268700	0.552200
H4491	H449	0.145200	0.255400	0.632100
H4501	H450	0.164600	0.283200	0.586600
C4031	C403	0.140090	0.443170	0.866810
H4511	H451	0.123600	0.457600	0.848700
C4041	C404	0.157640	0.425290	0.813600
H4521	H452	0.153100	0.427400	0.760400
C4051	C405	0.181790	0.404370	0.838900
C4061	C406	0.187410	0.402820	0.916700
H4531	H453	0.204200	0.389100	0.936500
C4071	C407	0.168500	0.421360	0.965600
H4541	H454	0.172500	0.419800	0.019100
C4081	C408	0.202190	0.383800	0.784500
H4551	H455	0.225500	0.386800	0.798600
H4561	H456	0.196700	0.360600	0.793800
Mn251	Mn25	0.923380	0.959810	0.815890
O731	O73	0.905460	0.986970	0.740310
O741	O74	0.005470	0.974780	0.680360
O751	O75	0.948750	0.933660	0.886910
N651	N65	0.966010	0.963890	0.769160
N661	N66	0.991650	0.948630	0.811100
C4091	C409	0.919250	0.999840	0.677870
C4101	C410	0.899710	0.019790	0.631900
H4571	H457	0.877900	0.024400	0.647100
C4111	C411	0.911600	0.032920	0.564500
H4581	H458	0.897900	0.046600	0.534400
C4121	C412	0.943110	0.026570	0.539900
H4591	H459	0.950900	0.034900	0.492500
C4131	C413	0.963150	0.007660	0.586600
H4601	H460	0.985000	0.003600	0.571100
C4141	C414	0.951890	0.994430	0.655940
C4151	C415	0.975600	0.976790	0.703390
C4161	C416	0.980090	0.934060	0.871730
C4171	C417	0.002370	0.916870	0.926670
H4611	H461	0.025200	0.919400	0.909000
H4621	H462	0.000500	0.927300	0.977600
C4181	C418	0.994670	0.880680	0.934500
H4631	H463	0.008600	0.871200	0.975200
H4641	H464	0.971600	0.878100	0.950200
C4191	C419	0.000380	0.861860	0.859600
H4651	H465	0.985700	0.870700	0.819600
H4661	H466	0.023200	0.865400	0.842600
C4201	C420	0.994290	0.824960	0.867600
H4671	H467	0.008800	0.816000	0.907900
H4681	H468	0.971400	0.821200	0.883600
C4211	C421	0.000790	0.806810	0.791300
H4691	H469	0.022400	0.812900	0.771700
H4701	H470	0.000000	0.783200	0.800000
H4711	H471	0.984000	0.812900	0.753700
Mn261	Mn26	0.039830	0.962150	0.754930
N671	N67	0.073840	0.956450	0.831340
N681	N68	0.078300	0.983680	0.880630
N691	N69	0.073820	0.988410	0.671250
O761	O76	0.048470	0.920910	0.715710
O771	O77	0.114940	0.933020	0.900320
O781	O78	0.036880	0.003830	0.806850
C4221	C422	0.072260	0.899920	0.731810
C4231	C423	0.074870	0.871890	0.685500
H4721	H472	0.059700	0.868500	0.645100
C4241	C424	0.099260	0.849180	0.698000
H4731	H473	0.100600	0.830400	0.666100
C4251	C425	0.121570	0.853310	0.755800
H4741	H474	0.138600	0.837800	0.763300
C4261	C426	0.119050	0.880140	0.802790
H4751	H475	0.134200	0.882700	0.843500
C4271	C427	0.094670	0.903840	0.792170
C4281	C428	0.094520	0.932290	0.844220
C4291	C429	0.058190	0.007030	0.861780
C4301	C430	0.060160	0.039680	0.901200
H4761	H476	0.038000	0.046600	0.917100
H4771	H477	0.073900	0.037700	0.947700
C4311	C431	0.074960	0.065490	0.847200
H4781	H478	0.072400	0.087300	0.870900
H4791	H479	0.062500	0.065500	0.798600
C4321	C432	0.110710	0.059890	0.829700
H4801	H480	0.123000	0.059500	0.878500
H4811	H481	0.113200	0.038100	0.805500
C4331	C433	0.125840	0.085450	0.777400
H4821	H482	0.113400	0.086200	0.728800
H4831	H483	0.124000	0.107200	0.802000
C4341	C434	0.162000	0.078480	0.759700
H4841	H484	0.164300	0.056000	0.741000
H4851	H485	0.169700	0.093800	0.720500
H4861	H486	0.175000	0.081200	0.806400
C4351	C435	0.103850	0.978660	0.654500
H4871	H487	0.110600	0.957500	0.670600
C4361	C436	0.125750	0.998070	0.614600
H4881	H488	0.147000	0.990000	0.603300
C4371	C437	0.116900	0.028910	0.591300
C4381	C438	0.086000	0.038630	0.607600
H4891	H489	0.078700	0.059600	0.591500
C4391	C439	0.065170	0.018390	0.647300
H4901	H490	0.043700	0.026000	0.658300
C4401	C440	0.139770	0.050820	0.546000
H4911	H491	0.162700	0.044700	0.557200
H4921	H492	0.136500	0.073800	0.561900
Mn271	Mn27	0.887120	0.029990	0.025840
O791	O79	0.851330	0.008050	0.065950
O801	O80	0.881870	0.952540	0.872210
O811	O81	0.924630	0.047560	0.972800
N701	N70	0.893710	0.995610	0.949960
N711	N71	0.921510	0.000310	0.902920
N721	N72	0.191250	0.105000	0.308000
C4411	C441	0.834300	0.983480	0.035730
C4421	C442	0.804440	0.975800	0.071210
H4931	H493	0.797600	0.988000	0.114700
C4431	C443	0.785010	0.950890	0.043900
H4941	H494	0.764900	0.946200	0.068800
C4441	C444	0.794250	0.932610	0.980570
H4951	H495	0.780700	0.915500	0.961800
C4451	C445	0.823490	0.939880	0.945660
H4961	H496	0.830000	0.927400	0.902400
C4461	C446	0.844080	0.964930	0.971200
C4471	C447	0.874590	0.971200	0.929810
C4481	C448	0.935250	0.028080	0.919020
C4491	C449	0.963720	0.039980	0.872200
H4971	H497	0.972100	0.021800	0.840300
H4981	H498	0.981500	0.047100	0.906900
C4501	C450	0.953650	0.068980	0.819600
H4991	H499	0.937200	0.061200	0.782300
H5001	H500	0.943200	0.086100	0.851400
C4511	C451	0.981970	0.083900	0.776500
H5011	H501	0.979900	0.107900	0.782400
H5021	H502	0.002100	0.077400	0.804300
C4521	C452	0.987000	0.079000	0.711700
H5031	H503	0.966100	0.082300	0.684100
H5041	H504	0.992600	0.055600	0.706400
C4531	C453	0.013480	0.098800	0.668800
H5051	H505	0.018700	0.118600	0.697800
H5061	H506	0.005400	0.104800	0.617900
H5071	H507	0.033200	0.085400	0.663400
C4541	C454	0.193170	0.109910	0.383190
H5081	H508	0.207600	0.126400	0.401300
C4551	C455	0.175290	0.092360	0.436400
H5091	H509	0.177400	0.096900	0.489600
C4561	C456	0.154370	0.068210	0.411100
C4571	C457	0.152820	0.062590	0.333300
H5101	H510	0.139100	0.045800	0.313500
C4581	C458	0.171360	0.081500	0.284400
H5111	H511	0.169800	0.077500	0.230900
C4591	C459	0.133800	0.047810	0.465500
H5121	H512	0.136800	0.024500	0.451400
H5131	H513	0.110600	0.053300	0.456200
Mn281	Mn28	0.423380	0.459810	0.315890
O821	O82	0.405460	0.486970	0.240310
O831	O83	0.505470	0.474780	0.180360
O841	O84	0.448750	0.433660	0.386910
N731	N73	0.466010	0.463890	0.269160
N741	N74	0.491650	0.448630	0.311100
C4601	C460	0.419250	0.499840	0.177870
C4611	C461	0.399710	0.519790	0.131900
H5141	H514	0.377900	0.524400	0.147100
C4621	C462	0.411600	0.532920	0.064500
H5151	H515	0.397900	0.546600	0.034400
C4631	C463	0.443110	0.526570	0.039900
H5161	H516	0.450900	0.534900	0.992500
C4641	C464	0.463150	0.507660	0.086600
H5171	H517	0.485000	0.503600	0.071100
C4651	C465	0.451890	0.494430	0.155940
C4661	C466	0.475600	0.476790	0.203390
C4671	C467	0.480090	0.434060	0.371730
C4681	C468	0.502370	0.416870	0.426670
H5181	H518	0.525200	0.419400	0.409000
H5191	H519	0.500500	0.427300	0.477600
C4691	C469	0.494670	0.380680	0.434500
H5201	H520	0.508600	0.371200	0.475200
H5211	H521	0.471600	0.378100	0.450200
C4701	C470	0.500380	0.361860	0.359600
H5221	H522	0.485700	0.370700	0.319600
H5231	H523	0.523200	0.365400	0.342600
C4711	C471	0.494290	0.324960	0.367600
H5241	H524	0.508800	0.316000	0.407900
H5251	H525	0.471400	0.321200	0.383600
C4721	C472	0.500790	0.306810	0.291300
H5261	H526	0.522400	0.312900	0.271700
H5271	H527	0.500000	0.283200	0.300000
H5281	H528	0.484000	0.312900	0.253700
Mn291	Mn29	0.539830	0.462150	0.254930
N751	N75	0.573840	0.456450	0.331340
N761	N76	0.578300	0.483680	0.380630
N771	N77	0.573820	0.488410	0.171250
O851	O85	0.548470	0.420910	0.215710
O861	O86	0.614940	0.433020	0.400320
O871	O87	0.536880	0.503830	0.306850
C4731	C473	0.572260	0.399920	0.231810
C4741	C474	0.574870	0.371890	0.185500
H5291	H529	0.559700	0.368500	0.145100
C4751	C475	0.599260	0.349180	0.198000
H5301	H530	0.600600	0.330400	0.166100
C4761	C476	0.621570	0.353310	0.255800
H5311	H531	0.638600	0.337800	0.263300
C4771	C477	0.619050	0.380140	0.302790
H5321	H532	0.634200	0.382700	0.343500
C4781	C478	0.594670	0.403840	0.292170
C4791	C479	0.594520	0.432290	0.344220
C4801	C480	0.558190	0.507030	0.361780
C4811	C481	0.560160	0.539680	0.401200
H5331	H533	0.538000	0.546600	0.417100
H5341	H534	0.573900	0.537700	0.447700
C4821	C482	0.574960	0.565490	0.347200
H5351	H535	0.572400	0.587300	0.370900
H5361	H536	0.562500	0.565500	0.298600
C4831	C483	0.610710	0.559890	0.329700
H5371	H537	0.623000	0.559500	0.378500
H5381	H538	0.613200	0.538100	0.305500
C4841	C484	0.625840	0.585450	0.277400
H5391	H539	0.613400	0.586200	0.228800
H5401	H540	0.624000	0.607200	0.302000
C4851	C485	0.662000	0.578480	0.259700
H5411	H541	0.664300	0.556000	0.241000
H5421	H542	0.669700	0.593800	0.220500
H5431	H543	0.675000	0.581200	0.306400
C4861	C486	0.603850	0.478660	0.154500
H5441	H544	0.610600	0.457500	0.170600
C4871	C487	0.625750	0.498070	0.114600
H5451	H545	0.647000	0.490000	0.103300
C4881	C488	0.616900	0.528910	0.091300
C4891	C489	0.586000	0.538630	0.107600
H5461	H546	0.578700	0.559600	0.091500
C4901	C490	0.565170	0.518390	0.147300
H5471	H547	0.543700	0.526000	0.158300
C4911	C491	0.639770	0.550820	0.046000
H5481	H548	0.662700	0.544700	0.057200
H5491	H549	0.636500	0.573800	0.061900
Mn301	Mn30	0.387120	0.529990	0.525840
O881	O88	0.351330	0.508050	0.565950
O891	O89	0.381870	0.452540	0.372210
O901	O90	0.424630	0.547560	0.472800
N781	N78	0.393710	0.495610	0.449960
N791	N79	0.421510	0.500310	0.402920
N801	N80	0.691250	0.605000	0.808000
C4921	C492	0.334300	0.483480	0.535730
C4931	C493	0.304440	0.475800	0.571210
H5501	H550	0.297600	0.488000	0.614700
C4941	C494	0.285010	0.450890	0.543900
H5511	H551	0.264900	0.446200	0.568800
C4951	C495	0.294250	0.432610	0.480570
H5521	H552	0.280700	0.415500	0.461800
C4961	C496	0.323490	0.439880	0.445660
H5531	H553	0.330000	0.427400	0.402400
C4971	C497	0.344080	0.464930	0.471200
C4981	C498	0.374590	0.471200	0.429810
C4991	C499	0.435250	0.528080	0.419020
C5001	C500	0.463720	0.539980	0.372200
H5541	H554	0.472100	0.521800	0.340300
H5551	H555	0.481500	0.547100	0.406900
C5011	C501	0.453650	0.568980	0.319600
H5561	H556	0.437200	0.561200	0.282300
H5571	H557	0.443200	0.586100	0.351400
C5021	C502	0.481970	0.583900	0.276500
H5581	H558	0.479900	0.607900	0.282400
H5591	H559	0.502100	0.577400	0.304300
C5031	C503	0.487000	0.579000	0.211700
H5601	H560	0.466100	0.582300	0.184100
H5611	H561	0.492600	0.555600	0.206400
C5041	C504	0.513480	0.598800	0.168800
H5621	H562	0.518700	0.618600	0.197800
H5631	H563	0.505400	0.604800	0.117900
H5641	H564	0.533200	0.585400	0.163400
C5051	C505	0.693170	0.609910	0.883190
H5651	H565	0.707600	0.626400	0.901300
C5061	C506	0.675290	0.592360	0.936400
H5661	H566	0.677400	0.596900	0.989600
C5071	C507	0.654370	0.568210	0.911100
C5081	C508	0.652820	0.562590	0.833300
H5671	H567	0.639100	0.545800	0.813500
C5091	C509	0.671360	0.581500	0.784400
H5681	H568	0.669800	0.577500	0.730900
C5101	C510	0.633800	0.547810	0.965500
H5691	H569	0.636800	0.524500	0.951400
H5701	H570	0.610600	0.553300	0.956200
Mn311	Mn31	0.576620	0.040190	0.315890
O911	O91	0.594540	0.013030	0.240310
O921	O92	0.494530	0.025220	0.180360
O931	O93	0.551250	0.066340	0.386910
N811	N81	0.533990	0.036110	0.269160
N821	N82	0.508350	0.051370	0.311100
C5111	C511	0.580750	0.000160	0.177870
C5121	C512	0.600290	0.980210	0.131900
H5711	H571	0.622100	0.975600	0.147100
C5131	C513	0.588400	0.967080	0.064500
H5721	H572	0.602100	0.953400	0.034400
C5141	C514	0.556890	0.973430	0.039900
H5731	H573	0.549100	0.965100	0.992500
C5151	C515	0.536850	0.992340	0.086600
H5741	H574	0.515000	0.996400	0.071100
C5161	C516	0.548110	0.005570	0.155940
C5171	C517	0.524400	0.023210	0.203390
C5181	C518	0.519910	0.065940	0.371730
C5191	C519	0.497630	0.083130	0.426670
H5751	H575	0.474800	0.080600	0.409000
H5761	H576	0.499500	0.072700	0.477600
C5201	C520	0.505330	0.119320	0.434500
H5771	H577	0.491400	0.128800	0.475200
H5781	H578	0.528400	0.121900	0.450200
C5211	C521	0.499620	0.138140	0.359600
H5791	H579	0.514300	0.129300	0.319600
H5801	H580	0.476800	0.134600	0.342600
C5221	C522	0.505710	0.175040	0.367600
H5811	H581	0.491200	0.184000	0.407900
H5821	H582	0.528600	0.178800	0.383600
C5231	C523	0.499210	0.193190	0.291300
H5831	H583	0.477600	0.187100	0.271700
H5841	H584	0.500000	0.216800	0.300000
H5851	H585	0.516000	0.187100	0.253700
Mn321	Mn32	0.460170	0.037850	0.254930
N831	N83	0.426160	0.043550	0.331340
N841	N84	0.421700	0.016320	0.380630
N851	N85	0.426180	0.011590	0.171250
O941	O94	0.451530	0.079090	0.215710
O951	O95	0.385060	0.066980	0.400320
O961	O96	0.463120	0.996170	0.306850
C5241	C524	0.427740	0.100080	0.231810
C5251	C525	0.425130	0.128110	0.185500
H5861	H586	0.440300	0.131500	0.145100
C5261	C526	0.400740	0.150820	0.198000
H5871	H587	0.399400	0.169600	0.166100
C5271	C527	0.378430	0.146690	0.255800
H5881	H588	0.361400	0.162200	0.263300
C5281	C528	0.380950	0.119860	0.302790
H5891	H589	0.365800	0.117300	0.343500
C5291	C529	0.405330	0.096160	0.292170
C5301	C530	0.405480	0.067710	0.344220
C5311	C531	0.441810	0.992970	0.361780
C5321	C532	0.439840	0.960320	0.401200
H5901	H590	0.462000	0.953400	0.417100
H5911	H591	0.426100	0.962300	0.447700
C5331	C533	0.425040	0.934510	0.347200
H5921	H592	0.427600	0.912700	0.370900
H5931	H593	0.437500	0.934500	0.298600
C5341	C534	0.389290	0.940110	0.329700
H5941	H594	0.377000	0.940500	0.378500
H5951	H595	0.386800	0.961900	0.305500
C5351	C535	0.374160	0.914550	0.277400
H5961	H596	0.386600	0.913800	0.228800
H5971	H597	0.376000	0.892800	0.302000
C5361	C536	0.338000	0.921520	0.259700
H5981	H598	0.335700	0.944000	0.241000
H5991	H599	0.330300	0.906200	0.220500
H6001	H600	0.325000	0.918800	0.306400
C5371	C537	0.396150	0.021340	0.154500
H6011	H601	0.389400	0.042500	0.170600
C5381	C538	0.374250	0.001930	0.114600
H6021	H602	0.353000	0.010000	0.103300
C5391	C539	0.383100	0.971090	0.091300
C5401	C540	0.414000	0.961370	0.107600
H6031	H603	0.421300	0.940400	0.091500
C5411	C541	0.434830	0.981610	0.147300
H6041	H604	0.456300	0.974000	0.158300
C5421	C542	0.360230	0.949180	0.046000
H6051	H605	0.337300	0.955300	0.057200
H6061	H606	0.363500	0.926200	0.061900
Mn331	Mn33	0.612880	0.970010	0.525840
O971	O97	0.648670	0.991950	0.565950
O981	O98	0.618130	0.047460	0.372210
O991	O99	0.575370	0.952440	0.472800
N861	N86	0.606290	0.004390	0.449960
N871	N87	0.578490	0.999690	0.402920
N881	N88	0.308750	0.895000	0.808000
C5431	C543	0.665700	0.016520	0.535730
C5441	C544	0.695560	0.024200	0.571210
H6071	H607	0.702400	0.012000	0.614700
C5451	C545	0.714990	0.049110	0.543900
H6081	H608	0.735100	0.053800	0.568800
C5461	C546	0.705750	0.067390	0.480570
H6091	H609	0.719300	0.084500	0.461800
C5471	C547	0.676510	0.060120	0.445660
H6101	H610	0.670000	0.072600	0.402400
C5481	C548	0.655920	0.035070	0.471200
C5491	C549	0.625410	0.028800	0.429810
C5501	C550	0.564750	0.971920	0.419020
C5511	C551	0.536280	0.960020	0.372200
H6111	H611	0.527900	0.978200	0.340300
H6121	H612	0.518500	0.952900	0.406900
C5521	C552	0.546350	0.931020	0.319600
H6131	H613	0.562800	0.938800	0.282300
H6141	H614	0.556800	0.913900	0.351400
C5531	C553	0.518030	0.916100	0.276500
H6151	H615	0.520100	0.892100	0.282400
H6161	H616	0.497900	0.922600	0.304300
C5541	C554	0.513000	0.921000	0.211700
H6171	H617	0.533900	0.917700	0.184100
H6181	H618	0.507400	0.944400	0.206400
C5551	C555	0.486520	0.901200	0.168800
H6191	H619	0.481300	0.881400	0.197800
H6201	H620	0.494600	0.895200	0.117900
H6211	H621	0.466800	0.914600	0.163400
C5561	C556	0.306830	0.890090	0.883190
H6221	H622	0.292400	0.873600	0.901300
C5571	C557	0.324710	0.907640	0.936400
H6231	H623	0.322600	0.903100	0.989600
C5581	C558	0.345630	0.931790	0.911100
C5591	C559	0.347180	0.937410	0.833300
H6241	H624	0.360900	0.954200	0.813500
C5601	C560	0.328640	0.918500	0.784400
H6251	H625	0.330200	0.922500	0.730900
C5611	C561	0.366200	0.952190	0.965500
H6261	H626	0.363200	0.975500	0.951400
H6271	H627	0.389400	0.946700	0.956200
Mn341	Mn34	0.076620	0.540190	0.815890
O1001	O100	0.094540	0.513030	0.740310
O1011	O101	0.994530	0.525220	0.680360
O1021	O102	0.051250	0.566340	0.886910
N891	N89	0.033990	0.536110	0.769160
N901	N90	0.008350	0.551370	0.811100
C5621	C562	0.080750	0.500160	0.677870
C5631	C563	0.100290	0.480210	0.631900
H6281	H628	0.122100	0.475600	0.647100
C5641	C564	0.088400	0.467080	0.564500
H6291	H629	0.102100	0.453400	0.534400
C5651	C565	0.056890	0.473430	0.539900
H6301	H630	0.049100	0.465100	0.492500
C5661	C566	0.036850	0.492340	0.586600
H6311	H631	0.015000	0.496400	0.571100
C5671	C567	0.048110	0.505570	0.655940
C5681	C568	0.024400	0.523210	0.703390
C5691	C569	0.019910	0.565940	0.871730
C5701	C570	0.997630	0.583130	0.926670
H6321	H632	0.974800	0.580600	0.909000
H6331	H633	0.999500	0.572700	0.977600
C5711	C571	0.005330	0.619320	0.934500
H6341	H634	0.991400	0.628800	0.975200
H6351	H635	0.028400	0.621900	0.950200
C5721	C572	0.999620	0.638140	0.859600
H6361	H636	0.014300	0.629300	0.819600
H6371	H637	0.976800	0.634600	0.842600
C5731	C573	0.005710	0.675040	0.867600
H6381	H638	0.991200	0.684000	0.907900
H6391	H639	0.028600	0.678800	0.883600
C5741	C574	0.999210	0.693190	0.791300
H6401	H640	0.977600	0.687100	0.771700
H6411	H641	0.000000	0.716800	0.800000
H6421	H642	0.016000	0.687100	0.753700
Mn351	Mn35	0.960170	0.537850	0.754930
N911	N91	0.926160	0.543550	0.831340
N921	N92	0.921700	0.516320	0.880630
N931	N93	0.926180	0.511590	0.671250
O1031	O103	0.951530	0.579090	0.715710
O1041	O104	0.885060	0.566980	0.900320
O1051	O105	0.963120	0.496170	0.806850
C5751	C575	0.927740	0.600080	0.731810
C5761	C576	0.925130	0.628110	0.685500
H6431	H643	0.940300	0.631500	0.645100
C5771	C577	0.900740	0.650820	0.698000
H6441	H644	0.899400	0.669600	0.666100
C5781	C578	0.878430	0.646690	0.755800
H6451	H645	0.861400	0.662200	0.763300
C5791	C579	0.880950	0.619860	0.802790
H6461	H646	0.865800	0.617300	0.843500
C5801	C580	0.905330	0.596160	0.792170
C5811	C581	0.905480	0.567710	0.844220
C5821	C582	0.941810	0.492970	0.861780
C5831	C583	0.939840	0.460320	0.901200
H6471	H647	0.962000	0.453400	0.917100
H6481	H648	0.926100	0.462300	0.947700
C5841	C584	0.925040	0.434510	0.847200
H6491	H649	0.927600	0.412700	0.870900
H6501	H650	0.937500	0.434500	0.798600
C5851	C585	0.889290	0.440110	0.829700
H6511	H651	0.877000	0.440500	0.878500
H6521	H652	0.886800	0.461900	0.805500
C5861	C586	0.874160	0.414550	0.777400
H6531	H653	0.886600	0.413800	0.728800
H6541	H654	0.876000	0.392800	0.802000
C5871	C587	0.838000	0.421520	0.759700
H6551	H655	0.835700	0.444000	0.741000
H6561	H656	0.830300	0.406200	0.720500
H6571	H657	0.825000	0.418800	0.806400
C5881	C588	0.896150	0.521340	0.654500
H6581	H658	0.889400	0.542500	0.670600
C5891	C589	0.874250	0.501930	0.614600
H6591	H659	0.853000	0.510000	0.603300
C5901	C590	0.883100	0.471090	0.591300
C5911	C591	0.914000	0.461370	0.607600
H6601	H660	0.921300	0.440400	0.591500
C5921	C592	0.934830	0.481610	0.647300
H6611	H661	0.956300	0.474000	0.658300
C5931	C593	0.860230	0.449180	0.546000
H6621	H662	0.837300	0.455300	0.557200
H6631	H663	0.863500	0.426200	0.561900
Mn361	Mn36	0.112880	0.470010	0.025840
O1061	O106	0.148670	0.491950	0.065950
O1071	O107	0.118130	0.547460	0.872210
O1081	O108	0.075370	0.452440	0.972800
N941	N94	0.106290	0.504390	0.949960
N951	N95	0.078490	0.499690	0.902920
N961	N96	0.808750	0.395000	0.308000
C5941	C594	0.165700	0.516520	0.035730
C5951	C595	0.195560	0.524200	0.071210
H6641	H664	0.202400	0.512000	0.114700
C5961	C596	0.214990	0.549110	0.043900
H6651	H665	0.235100	0.553800	0.068800
C5971	C597	0.205750	0.567390	0.980570
H6661	H666	0.219300	0.584500	0.961800
C5981	C598	0.176510	0.560120	0.945660
H6671	H667	0.170000	0.572600	0.902400
C5991	C599	0.155920	0.535070	0.971200
C6001	C600	0.125410	0.528800	0.929810
C6011	C601	0.064750	0.471920	0.919020
C6021	C602	0.036280	0.460020	0.872200
H6681	H668	0.027900	0.478200	0.840300
H6691	H669	0.018500	0.452900	0.906900
C6031	C603	0.046350	0.431020	0.819600
H6701	H670	0.062800	0.438800	0.782300
H6711	H671	0.056800	0.413900	0.851400
C6041	C604	0.018030	0.416100	0.776500
H6721	H672	0.020100	0.392100	0.782400
H6731	H673	0.997900	0.422600	0.804300
C6051	C605	0.013000	0.421000	0.711700
H6741	H674	0.033900	0.417700	0.684100
H6751	H675	0.007400	0.444400	0.706400
C6061	C606	0.986520	0.401200	0.668800
H6761	H676	0.981300	0.381400	0.697800
H6771	H677	0.994600	0.395200	0.617900
H6781	H678	0.966800	0.414600	0.663400
C6071	C607	0.806830	0.390090	0.383190
H6791	H679	0.792400	0.373600	0.401300
C6081	C608	0.824710	0.407640	0.436400
H6801	H680	0.822600	0.403100	0.489600
C6091	C609	0.845630	0.431790	0.411100
C6101	C610	0.847180	0.437410	0.333300
H6811	H681	0.860900	0.454200	0.313500
C6111	C611	0.828640	0.418500	0.284400
H6821	H682	0.830200	0.422500	0.230900
C6121	C612	0.866200	0.452190	0.465500
H6831	H683	0.863200	0.475500	0.451400
H6841	H684	0.889400	0.446700	0.456200
Mn371	Mn37	0.290190	0.673380	0.565890
O1091	O109	0.263030	0.655460	0.490310
O1101	O110	0.275220	0.755470	0.430360
O1111	O111	0.316340	0.698750	0.636910
N971	N97	0.286110	0.716010	0.519160
N981	N98	0.301370	0.741650	0.561100
C6131	C613	0.250160	0.669250	0.427870
C6141	C614	0.230210	0.649710	0.381900
H6851	H685	0.225600	0.627900	0.397100
C6151	C615	0.217080	0.661600	0.314500
H6861	H686	0.203400	0.647900	0.284400
C6161	C616	0.223430	0.693110	0.289900
H6871	H687	0.215100	0.700900	0.242500
C6171	C617	0.242340	0.713150	0.336600
H6881	H688	0.246400	0.735000	0.321100
C6181	C618	0.255570	0.701890	0.405940
C6191	C619	0.273210	0.725600	0.453390
C6201	C620	0.315940	0.730090	0.621730
C6211	C621	0.333130	0.752370	0.676670
H6891	H689	0.330600	0.775200	0.659000
H6901	H690	0.322700	0.750500	0.727600
C6221	C622	0.369320	0.744670	0.684500
H6911	H691	0.378800	0.758600	0.725200
H6921	H692	0.371900	0.721600	0.700200
C6231	C623	0.388140	0.750380	0.609600
H6931	H693	0.379300	0.735700	0.569600
H6941	H694	0.384600	0.773200	0.592600
C6241	C624	0.425040	0.744290	0.617600
H6951	H695	0.434000	0.758800	0.657900
H6961	H696	0.428800	0.721400	0.633600
C6251	C625	0.443190	0.750790	0.541300
H6971	H697	0.437100	0.772400	0.521700
H6981	H698	0.466800	0.750000	0.550000
H6991	H699	0.437100	0.734000	0.503700
Mn381	Mn38	0.287850	0.789830	0.504930
N991	N99	0.293550	0.823840	0.581340
N1001	N100	0.266320	0.828300	0.630630
N1011	N101	0.261590	0.823820	0.421250
O1121	O112	0.329090	0.798470	0.465710
O1131	O113	0.316980	0.864940	0.650320
O1141	O114	0.246170	0.786880	0.556850
C6261	C626	0.350080	0.822260	0.481810
C6271	C627	0.378110	0.824870	0.435500
H7001	H700	0.381500	0.809700	0.395100
C6281	C628	0.400820	0.849260	0.448000
H7011	H701	0.419600	0.850600	0.416100
C6291	C629	0.396690	0.871570	0.505800
H7021	H702	0.412200	0.888600	0.513300
C6301	C630	0.369860	0.869050	0.552790
H7031	H703	0.367300	0.884200	0.593500
C6311	C631	0.346160	0.844670	0.542170
C6321	C632	0.317710	0.844520	0.594220
C6331	C633	0.242970	0.808190	0.611780
C6341	C634	0.210320	0.810160	0.651200
H7041	H704	0.203400	0.788000	0.667100
H7051	H705	0.212300	0.823900	0.697700
C6351	C635	0.184510	0.824960	0.597200
H7061	H706	0.162700	0.822400	0.620900
H7071	H707	0.184500	0.812500	0.548600
C6361	C636	0.190110	0.860710	0.579700
H7081	H708	0.190500	0.873000	0.628500
H7091	H709	0.211900	0.863200	0.555500
C6371	C637	0.164550	0.875840	0.527400
H7101	H710	0.163800	0.863400	0.478800
H7111	H711	0.142800	0.874000	0.552000
C6381	C638	0.171520	0.912000	0.509700
H7121	H712	0.194000	0.914300	0.491000
H7131	H713	0.156200	0.919700	0.470500
H7141	H714	0.168800	0.925000	0.556400
C6391	C639	0.271340	0.853850	0.404500
H7151	H715	0.292500	0.860600	0.420600
C6401	C640	0.251930	0.875750	0.364600
H7161	H716	0.260000	0.897000	0.353300
C6411	C641	0.221090	0.866900	0.341300
C6421	C642	0.211370	0.836000	0.357600
H7171	H717	0.190400	0.828700	0.341500
C6431	C643	0.231610	0.815170	0.397300
H7181	H718	0.224000	0.793700	0.408300
C6441	C644	0.199180	0.889770	0.296000
H7191	H719	0.205300	0.912700	0.307200
H7201	H720	0.176200	0.886500	0.311900
Mn391	Mn39	0.220010	0.637120	0.775840
O1151	O115	0.241950	0.601330	0.815950
O1161	O116	0.297460	0.631870	0.622210
O1171	O117	0.202440	0.674630	0.722800
N1021	N102	0.254390	0.643710	0.699960
N1031	N103	0.249690	0.671510	0.652920
N1041	N104	0.145000	0.941250	0.058000
C6451	C645	0.266520	0.584300	0.785730
C6461	C646	0.274200	0.554440	0.821210
H7211	H721	0.262000	0.547600	0.864700
C6471	C647	0.299110	0.535010	0.793900
H7221	H722	0.303800	0.514900	0.818800
C6481	C648	0.317390	0.544250	0.730570
H7231	H723	0.334500	0.530700	0.711800
C6491	C649	0.310120	0.573490	0.695660
H7241	H724	0.322600	0.580000	0.652400
C6501	C650	0.285070	0.594080	0.721200
C6511	C651	0.278800	0.624590	0.679810
C6521	C652	0.221920	0.685250	0.669020
C6531	C653	0.210020	0.713720	0.622200
H7251	H725	0.228200	0.722100	0.590300
H7261	H726	0.202900	0.731500	0.656900
C6541	C654	0.181020	0.703650	0.569600
H7271	H727	0.188800	0.687200	0.532300
H7281	H728	0.163900	0.693200	0.601400
C6551	C655	0.166100	0.731970	0.526500
H7291	H729	0.142100	0.729900	0.532400
H7301	H730	0.172600	0.752100	0.554300
C6561	C656	0.171000	0.737000	0.461700
H7311	H731	0.167700	0.716100	0.434100
H7321	H732	0.194400	0.742600	0.456400
C6571	C657	0.151200	0.763480	0.418800
H7331	H733	0.131400	0.768700	0.447800
H7341	H734	0.145200	0.755400	0.367900
H7351	H735	0.164600	0.783200	0.413400
C6581	C658	0.140090	0.943170	0.133190
H7361	H736	0.123600	0.957600	0.151300
C6591	C659	0.157640	0.925290	0.186400
H7371	H737	0.153100	0.927400	0.239600
C6601	C660	0.181790	0.904370	0.161100
C6611	C661	0.187410	0.902820	0.083300
H7381	H738	0.204200	0.889100	0.063500
C6621	C662	0.168500	0.921360	0.034400
H7391	H739	0.172500	0.919800	0.980900
C6631	C663	0.202190	0.883800	0.215500
H7401	H740	0.225500	0.886800	0.201400
H7411	H741	0.196700	0.860600	0.206200
Mn401	Mn40	0.790190	0.173380	0.065890
O1181	O118	0.763030	0.155460	0.990310
O1191	O119	0.775220	0.255470	0.930360
O1201	O120	0.816340	0.198750	0.136910
N1051	N105	0.786110	0.216010	0.019160
N1061	N106	0.801370	0.241650	0.061100
C6641	C664	0.750160	0.169250	0.927870
C6651	C665	0.730210	0.149710	0.881900
H7421	H742	0.725600	0.127900	0.897100
C6661	C666	0.717080	0.161600	0.814500
H7431	H743	0.703400	0.147900	0.784400
C6671	C667	0.723430	0.193110	0.789900
H7441	H744	0.715100	0.200900	0.742500
C6681	C668	0.742340	0.213150	0.836600
H7451	H745	0.746400	0.235000	0.821100
C6691	C669	0.755570	0.201890	0.905940
C6701	C670	0.773210	0.225600	0.953390
C6711	C671	0.815940	0.230090	0.121730
C6721	C672	0.833130	0.252370	0.176670
H7461	H746	0.830600	0.275200	0.159000
H7471	H747	0.822700	0.250500	0.227600
C6731	C673	0.869320	0.244670	0.184500
H7481	H748	0.878800	0.258600	0.225200
H7491	H749	0.871900	0.221600	0.200200
C6741	C674	0.888140	0.250380	0.109600
H7501	H750	0.879300	0.235700	0.069600
H7511	H751	0.884600	0.273200	0.092600
C6751	C675	0.925040	0.244290	0.117600
H7521	H752	0.934000	0.258800	0.157900
H7531	H753	0.928800	0.221400	0.133600
C6761	C676	0.943190	0.250790	0.041300
H7541	H754	0.937100	0.272400	0.021700
H7551	H755	0.966800	0.250000	0.050000
H7561	H756	0.937100	0.234000	0.003700
Mn411	Mn41	0.787850	0.289830	0.004930
N1071	N107	0.793550	0.323840	0.081340
N1081	N108	0.766320	0.328300	0.130630
N1091	N109	0.761590	0.323820	0.921250
O1211	O121	0.829090	0.298470	0.965710
O1221	O122	0.816980	0.364940	0.150320
O1231	O123	0.746170	0.286880	0.056850
C6771	C677	0.850080	0.322260	0.981810
C6781	C678	0.878110	0.324870	0.935500
H7571	H757	0.881500	0.309700	0.895100
C6791	C679	0.900820	0.349260	0.948000
H7581	H758	0.919600	0.350600	0.916100
C6801	C680	0.896690	0.371570	0.005800
H7591	H759	0.912200	0.388600	0.013300
C6811	C681	0.869860	0.369050	0.052790
H7601	H760	0.867300	0.384200	0.093500
C6821	C682	0.846160	0.344670	0.042170
C6831	C683	0.817710	0.344520	0.094220
C6841	C684	0.742970	0.308190	0.111780
C6851	C685	0.710320	0.310160	0.151200
H7611	H761	0.703400	0.288000	0.167100
H7621	H762	0.712300	0.323900	0.197700
C6861	C686	0.684510	0.324960	0.097200
H7631	H763	0.662700	0.322400	0.120900
H7641	H764	0.684500	0.312500	0.048600
C6871	C687	0.690110	0.360710	0.079700
H7651	H765	0.690500	0.373000	0.128500
H7661	H766	0.711900	0.363200	0.055500
C6881	C688	0.664550	0.375840	0.027400
H7671	H767	0.663800	0.363400	0.978800
H7681	H768	0.642800	0.374000	0.052000
C6891	C689	0.671520	0.412000	0.009700
H7691	H769	0.694000	0.414300	0.991000
H7701	H770	0.656200	0.419700	0.970500
H7711	H771	0.668800	0.425000	0.056400
C6901	C690	0.771340	0.353850	0.904500
H7721	H772	0.792500	0.360600	0.920600
C6911	C691	0.751930	0.375750	0.864600
H7731	H773	0.760000	0.397000	0.853300
C6921	C692	0.721090	0.366900	0.841300
C6931	C693	0.711370	0.336000	0.857600
H7741	H774	0.690400	0.328700	0.841500
C6941	C694	0.731610	0.315170	0.897300
H7751	H775	0.724000	0.293700	0.908300
C6951	C695	0.699180	0.389770	0.796000
H7761	H776	0.705300	0.412700	0.807200
H7771	H777	0.676200	0.386500	0.811900
Mn421	Mn42	0.720010	0.137120	0.275840
O1241	O124	0.741950	0.101330	0.315950
O1251	O125	0.797460	0.131870	0.122210
O1261	O126	0.702440	0.174630	0.222800
N1101	N110	0.754390	0.143710	0.199960
N1111	N111	0.749690	0.171510	0.152920
N1121	N112	0.645000	0.441250	0.558000
C6961	C696	0.766520	0.084300	0.285730
C6971	C697	0.774200	0.054440	0.321210
H7781	H778	0.762000	0.047600	0.364700
C6981	C698	0.799110	0.035010	0.293900
H7791	H779	0.803800	0.014900	0.318800
C6991	C699	0.817390	0.044250	0.230570
H7801	H780	0.834500	0.030700	0.211800
C7001	C700	0.810120	0.073490	0.195660
H7811	H781	0.822600	0.080000	0.152400
C7011	C701	0.785070	0.094080	0.221200
C7021	C702	0.778800	0.124590	0.179810
C7031	C703	0.721920	0.185250	0.169020
C7041	C704	0.710020	0.213720	0.122200
H7821	H782	0.728200	0.222100	0.090300
H7831	H783	0.702900	0.231500	0.156900
C7051	C705	0.681020	0.203650	0.069600
H7841	H784	0.688800	0.187200	0.032300
H7851	H785	0.663900	0.193200	0.101400
C7061	C706	0.666100	0.231970	0.026500
H7861	H786	0.642100	0.229900	0.032400
H7871	H787	0.672600	0.252100	0.054300
C7071	C707	0.671000	0.237000	0.961700
H7881	H788	0.667700	0.216100	0.934100
H7891	H789	0.694400	0.242600	0.956400
C7081	C708	0.651200	0.263480	0.918800
H7901	H790	0.631400	0.268700	0.947800
H7911	H791	0.645200	0.255400	0.867900
H7921	H792	0.664600	0.283200	0.913400
C7091	C709	0.640090	0.443170	0.633190
H7931	H793	0.623600	0.457600	0.651300
C7101	C710	0.657640	0.425290	0.686400
H7941	H794	0.653100	0.427400	0.739600
C7111	C711	0.681790	0.404370	0.661100
C7121	C712	0.687410	0.402820	0.583300
H7951	H795	0.704200	0.389100	0.563500
C7131	C713	0.668500	0.421360	0.534400
H7961	H796	0.672500	0.419800	0.480900
C7141	C714	0.702190	0.383800	0.715500
H7971	H797	0.725500	0.386800	0.701400
H7981	H798	0.696700	0.360600	0.706200
Mn431	Mn43	0.209810	0.326620	0.065890
O1271	O127	0.236970	0.344540	0.990310
O1281	O128	0.224780	0.244530	0.930360
O1291	O129	0.183660	0.301250	0.136910
N1131	N113	0.213890	0.283990	0.019160
N1141	N114	0.198630	0.258350	0.061100
C7151	C715	0.249840	0.330750	0.927870
C7161	C716	0.269790	0.350290	0.881900
H7991	H799	0.274400	0.372100	0.897100
C7171	C717	0.282920	0.338400	0.814500
H8001	H800	0.296600	0.352100	0.784400
C7181	C718	0.276570	0.306890	0.789900
H8011	H801	0.284900	0.299100	0.742500
C7191	C719	0.257660	0.286850	0.836600
H8021	H802	0.253600	0.265000	0.821100
C7201	C720	0.244430	0.298110	0.905940
C7211	C721	0.226790	0.274400	0.953390
C7221	C722	0.184060	0.269910	0.121730
C7231	C723	0.166870	0.247630	0.176670
H8031	H803	0.169400	0.224800	0.159000
H8041	H804	0.177300	0.249500	0.227600
C7241	C724	0.130680	0.255330	0.184500
H8051	H805	0.121200	0.241400	0.225200
H8061	H806	0.128100	0.278400	0.200200
C7251	C725	0.111860	0.249620	0.109600
H8071	H807	0.120700	0.264300	0.069600
H8081	H808	0.115400	0.226800	0.092600
C7261	C726	0.074960	0.255710	0.117600
H8091	H809	0.066000	0.241200	0.157900
H8101	H810	0.071200	0.278600	0.133600
C7271	C727	0.056810	0.249210	0.041300
H8111	H811	0.062900	0.227600	0.021700
H8121	H812	0.033200	0.250000	0.050000
H8131	H813	0.062900	0.266000	0.003700
Mn441	Mn44	0.212150	0.210170	0.004930
N1151	N115	0.206450	0.176160	0.081340
N1161	N116	0.233680	0.171700	0.130630
N1171	N117	0.238410	0.176180	0.921250
O1301	O130	0.170910	0.201530	0.965710
O1311	O131	0.183020	0.135060	0.150320
O1321	O132	0.253830	0.213120	0.056850
C7281	C728	0.149920	0.177740	0.981810
C7291	C729	0.121890	0.175130	0.935500
H8141	H814	0.118500	0.190300	0.895100
C7301	C730	0.099180	0.150740	0.948000
H8151	H815	0.080400	0.149400	0.916100
C7311	C731	0.103310	0.128430	0.005800
H8161	H816	0.087800	0.111400	0.013300
C7321	C732	0.130140	0.130950	0.052790
H8171	H817	0.132700	0.115800	0.093500
C7331	C733	0.153840	0.155330	0.042170
C7341	C734	0.182290	0.155480	0.094220
C7351	C735	0.257030	0.191810	0.111780
C7361	C736	0.289680	0.189840	0.151200
H8181	H818	0.296600	0.212000	0.167100
H8191	H819	0.287700	0.176100	0.197700
C7371	C737	0.315490	0.175040	0.097200
H8201	H820	0.337300	0.177600	0.120900
H8211	H821	0.315500	0.187500	0.048600
C7381	C738	0.309890	0.139290	0.079700
H8221	H822	0.309500	0.127000	0.128500
H8231	H823	0.288100	0.136800	0.055500
C7391	C739	0.335450	0.124160	0.027400
H8241	H824	0.336200	0.136600	0.978800
H8251	H825	0.357200	0.126000	0.052000
C7401	C740	0.328480	0.088000	0.009700
H8261	H826	0.306000	0.085700	0.991000
H8271	H827	0.343800	0.080300	0.970500
H8281	H828	0.331200	0.075000	0.056400
C7411	C741	0.228660	0.146150	0.904500
H8291	H829	0.207500	0.139400	0.920600
C7421	C742	0.248070	0.124250	0.864600
H8301	H830	0.240000	0.103000	0.853300
C7431	C743	0.278910	0.133100	0.841300
C7441	C744	0.288630	0.164000	0.857600
H8311	H831	0.309600	0.171300	0.841500
C7451	C745	0.268390	0.184830	0.897300
H8321	H832	0.276000	0.206300	0.908300
C7461	C746	0.300820	0.110230	0.796000
H8331	H833	0.294700	0.087300	0.807200
H8341	H834	0.323800	0.113500	0.811900
Mn451	Mn45	0.279990	0.362880	0.275840
O1331	O133	0.258050	0.398670	0.315950
O1341	O134	0.202540	0.368130	0.122210
O1351	O135	0.297560	0.325370	0.222800
N1181	N118	0.245610	0.356290	0.199960
N1191	N119	0.250310	0.328490	0.152920
N1201	N120	0.355000	0.058750	0.558000
C7471	C747	0.233480	0.415700	0.285730
C7481	C748	0.225800	0.445560	0.321210
H8351	H835	0.238000	0.452400	0.364700
C7491	C749	0.200890	0.464990	0.293900
H8361	H836	0.196200	0.485100	0.318800
C7501	C750	0.182610	0.455750	0.230570
H8371	H837	0.165500	0.469300	0.211800
C7511	C751	0.189880	0.426510	0.195660
H8381	H838	0.177400	0.420000	0.152400
C7521	C752	0.214930	0.405920	0.221200
C7531	C753	0.221200	0.375410	0.179810
C7541	C754	0.278080	0.314750	0.169020
C7551	C755	0.289980	0.286280	0.122200
H8391	H839	0.271800	0.277900	0.090300
H8401	H840	0.297100	0.268500	0.156900
C7561	C756	0.318980	0.296350	0.069600
H8411	H841	0.311200	0.312800	0.032300
H8421	H842	0.336100	0.306800	0.101400
C7571	C757	0.333900	0.268030	0.026500
H8431	H843	0.357900	0.270100	0.032400
H8441	H844	0.327400	0.247900	0.054300
C7581	C758	0.329000	0.263000	0.961700
H8451	H845	0.332300	0.283900	0.934100
H8461	H846	0.305600	0.257400	0.956400
C7591	C759	0.348800	0.236520	0.918800
H8471	H847	0.368600	0.231300	0.947800
H8481	H848	0.354800	0.244600	0.867900
H8491	H849	0.335400	0.216800	0.913400
C7601	C760	0.359910	0.056830	0.633190
H8501	H850	0.376400	0.042400	0.651300
C7611	C761	0.342360	0.074710	0.686400
H8511	H851	0.346900	0.072600	0.739600
C7621	C762	0.318210	0.095630	0.661100
C7631	C763	0.312590	0.097180	0.583300
H8521	H852	0.295800	0.110900	0.563500
C7641	C764	0.331500	0.078640	0.534400
H8531	H853	0.327500	0.080200	0.480900
C7651	C765	0.297810	0.116200	0.715500
H8541	H854	0.274500	0.113200	0.701400
H8551	H855	0.303300	0.139400	0.706200
Mn461	Mn46	0.709810	0.826620	0.565890
O1361	O136	0.736970	0.844540	0.490310
O1371	O137	0.724780	0.744530	0.430360
O1381	O138	0.683660	0.801250	0.636910
N1211	N121	0.713890	0.783990	0.519160
N1221	N122	0.698630	0.758350	0.561100
C7661	C766	0.749840	0.830750	0.427870
C7671	C767	0.769790	0.850290	0.381900
H8561	H856	0.774400	0.872100	0.397100
C7681	C768	0.782920	0.838400	0.314500
H8571	H857	0.796600	0.852100	0.284400
C7691	C769	0.776570	0.806890	0.289900
H8581	H858	0.784900	0.799100	0.242500
C7701	C770	0.757660	0.786850	0.336600
H8591	H859	0.753600	0.765000	0.321100
C7711	C771	0.744430	0.798110	0.405940
C7721	C772	0.726790	0.774400	0.453390
C7731	C773	0.684060	0.769910	0.621730
C7741	C774	0.666870	0.747630	0.676670
H8601	H860	0.669400	0.724800	0.659000
H8611	H861	0.677300	0.749500	0.727600
C7751	C775	0.630680	0.755330	0.684500
H8621	H862	0.621200	0.741400	0.725200
H8631	H863	0.628100	0.778400	0.700200
C7761	C776	0.611860	0.749620	0.609600
H8641	H864	0.620700	0.764300	0.569600
H8651	H865	0.615400	0.726800	0.592600
C7771	C777	0.574960	0.755710	0.617600
H8661	H866	0.566000	0.741200	0.657900
H8671	H867	0.571200	0.778600	0.633600
C7781	C778	0.556810	0.749210	0.541300
H8681	H868	0.562900	0.727600	0.521700
H8691	H869	0.533200	0.750000	0.550000
H8701	H870	0.562900	0.766000	0.503700
Mn471	Mn47	0.712150	0.710170	0.504930
N1231	N123	0.706450	0.676160	0.581340
N1241	N124	0.733680	0.671700	0.630630
N1251	N125	0.738410	0.676180	0.421250
O1391	O139	0.670910	0.701530	0.465710
O1401	O140	0.683020	0.635060	0.650320
O1411	O141	0.753830	0.713120	0.556850
C7791	C779	0.649920	0.677740	0.481810
C7801	C780	0.621890	0.675130	0.435500
H8711	H871	0.618500	0.690300	0.395100
C7811	C781	0.599180	0.650740	0.448000
H8721	H872	0.580400	0.649400	0.416100
C7821	C782	0.603310	0.628430	0.505800
H8731	H873	0.587800	0.611400	0.513300
C7831	C783	0.630140	0.630950	0.552790
H8741	H874	0.632700	0.615800	0.593500
C7841	C784	0.653840	0.655330	0.542170
C7851	C785	0.682290	0.655480	0.594220
C7861	C786	0.757030	0.691810	0.611780
C7871	C787	0.789680	0.689840	0.651200
H8751	H875	0.796600	0.712000	0.667100
H8761	H876	0.787700	0.676100	0.697700
C7881	C788	0.815490	0.675040	0.597200
H8771	H877	0.837300	0.677600	0.620900
H8781	H878	0.815500	0.687500	0.548600
C7891	C789	0.809890	0.639290	0.579700
H8791	H879	0.809500	0.627000	0.628500
H8801	H880	0.788100	0.636800	0.555500
C7901	C790	0.835450	0.624160	0.527400
H8811	H881	0.836200	0.636600	0.478800
H8821	H882	0.857200	0.626000	0.552000
C7911	C791	0.828480	0.588000	0.509700
H8831	H883	0.806000	0.585700	0.491000
H8841	H884	0.843800	0.580300	0.470500
H8851	H885	0.831200	0.575000	0.556400
C7921	C792	0.728660	0.646150	0.404500
H8861	H886	0.707500	0.639400	0.420600
C7931	C793	0.748070	0.624250	0.364600
H8871	H887	0.740000	0.603000	0.353300
C7941	C794	0.778910	0.633100	0.341300
C7951	C795	0.788630	0.664000	0.357600
H8881	H888	0.809600	0.671300	0.341500
C7961	C796	0.768390	0.684830	0.397300
H8891	H889	0.776000	0.706300	0.408300
C7971	C797	0.800820	0.610230	0.296000
H8901	H890	0.794700	0.587300	0.307200
H8911	H891	0.823800	0.613500	0.311900
Mn481	Mn48	0.779990	0.862880	0.775840
O1421	O142	0.758050	0.898670	0.815950
O1431	O143	0.702540	0.868130	0.622210
O1441	O144	0.797560	0.825370	0.722800
N1261	N126	0.745610	0.856290	0.699960
N1271	N127	0.750310	0.828490	0.652920
N1281	N128	0.855000	0.558750	0.058000
C7981	C798	0.733480	0.915700	0.785730
C7991	C799	0.725800	0.945560	0.821210
H8921	H892	0.738000	0.952400	0.864700
C8001	C800	0.700890	0.964990	0.793900
H8931	H893	0.696200	0.985100	0.818800
C8011	C801	0.682610	0.955750	0.730570
H8941	H894	0.665500	0.969300	0.711800
C8021	C802	0.689880	0.926510	0.695660
H8951	H895	0.677400	0.920000	0.652400
C8031	C803	0.714930	0.905920	0.721200
C8041	C804	0.721200	0.875410	0.679810
C8051	C805	0.778080	0.814750	0.669020
C8061	C806	0.789980	0.786280	0.622200
H8961	H896	0.771800	0.777900	0.590300
H8971	H897	0.797100	0.768500	0.656900
C8071	C807	0.818980	0.796350	0.569600
H8981	H898	0.811200	0.812800	0.532300
H8991	H899	0.836100	0.806800	0.601400
C8081	C808	0.833900	0.768030	0.526500
H9001	H900	0.857900	0.770100	0.532400
H9011	H901	0.827400	0.747900	0.554300
C8091	C809	0.829000	0.763000	0.461700
H9021	H902	0.832300	0.783900	0.434100
H9031	H903	0.805600	0.757400	0.456400
C8101	C810	0.848800	0.736520	0.418800
H9041	H904	0.868600	0.731300	0.447800
H9051	H905	0.854800	0.744600	0.367900
H9061	H906	0.835400	0.716800	0.413400
C8111	C811	0.859910	0.556830	0.133190
H9071	H907	0.876400	0.542400	0.151300
C8121	C812	0.842360	0.574710	0.186400
H9081	H908	0.846900	0.572600	0.239600
C8131	C813	0.818210	0.595630	0.161100
C8141	C814	0.812590	0.597180	0.083300
H9091	H909	0.795800	0.610900	0.063500
C8151	C815	0.831500	0.578640	0.034400
H9101	H910	0.827500	0.580200	0.980900
C8161	C816	0.797810	0.616200	0.215500
H9111	H911	0.774500	0.613200	0.201400
H9121	H912	0.803300	0.639400	0.206200
