data_XALCET_clean_PM
_symmetry_space_group_name_H-M	'P1'
_cell_length_a	17.215100
_cell_length_b	30.207800
_cell_length_c	30.207800
_cell_angle_alpha	85.342800
_cell_angle_beta	73.444500
_cell_angle_gamma	73.444500
_symmetry_Int_Tables_number 1

loop_
_symmetry_equiv_pos_as_xyz
'x,y,z'

loop_
_atom_site_label
_atom_site_type_symbol
_atom_site_fract_x
_atom_site_fract_y
_atom_site_fract_z
Mn11	Mn1	0.870330	0.879790	0.028750
Mn21	Mn2	0.791820	0.000890	0.920570
Mn31	Mn3	0.997090	0.916510	0.141350
Mn41	Mn4	0.278870	0.620210	0.471250
Mn51	Mn5	0.213280	0.499110	0.579430
Mn61	Mn6	0.554950	0.583490	0.358650
Mn71	Mn7	0.899080	0.971250	0.379790
Mn81	Mn8	0.712390	0.079430	0.500890
Mn91	Mn9	0.138440	0.858650	0.416510
Mn101	Mn10	0.750120	0.528750	0.120210
Mn111	Mn11	0.792710	0.420570	0.999110
Mn121	Mn12	0.913600	0.641350	0.083490
Mn131	Mn13	0.129670	0.120210	0.971250
Mn141	Mn14	0.208180	0.999110	0.079430
Mn151	Mn15	0.002910	0.083490	0.858650
Mn161	Mn16	0.721130	0.379790	0.528750
Mn171	Mn17	0.786720	0.500890	0.420570
Mn181	Mn18	0.445050	0.416510	0.641350
Mn191	Mn19	0.100920	0.028750	0.620210
Mn201	Mn20	0.287610	0.920570	0.499110
Mn211	Mn21	0.861560	0.141350	0.583490
Mn221	Mn22	0.249880	0.471250	0.879790
Mn231	Mn23	0.207290	0.579430	0.000890
Mn241	Mn24	0.086400	0.358650	0.916510
H11	H1	0.644500	0.892000	0.142200
H21	H2	0.508700	0.936600	0.151800
H31	H3	0.468400	0.982900	0.091100
H41	H4	0.572000	0.986000	0.021200
H51	H5	0.025200	0.949200	0.909200
H61	H6	0.987700	0.926000	0.877600
H71	H7	0.079400	0.857800	0.880200
H81	H8	0.131800	0.895400	0.869000
H91	H9	0.108800	0.874700	0.920100
H101	H10	0.776300	0.929200	0.805800
H111	H11	0.840900	0.928700	0.728500
H121	H12	0.939800	0.971700	0.698300
H131	H13	0.971600	0.012400	0.749400
H141	H14	0.892300	0.118600	0.959200
H151	H15	0.885600	0.083200	0.001400
H161	H16	0.731600	0.117300	0.004100
H171	H17	0.779200	0.135200	0.034400
H181	H18	0.768900	0.160500	0.986900
H191	H19	0.631000	0.066400	0.981200
H201	H20	0.519300	0.132800	0.980400
H211	H21	0.610200	0.135400	0.844400
H221	H22	0.714800	0.069600	0.847800
H231	H23	0.465500	0.178800	0.876000
H241	H24	0.498500	0.209100	0.903500
H251	H25	0.122200	0.785900	0.192900
H261	H26	0.119000	0.712700	0.184300
H271	H27	0.048800	0.695800	0.134800
H281	H28	0.981500	0.756100	0.094300
H291	H29	0.841000	0.990600	0.036600
H301	H30	0.875600	0.025900	0.057500
H311	H31	0.726600	0.994800	0.111200
H321	H32	0.717900	0.045100	0.088500
H331	H33	0.759900	0.031700	0.130300
H341	H34	0.155500	0.249800	0.907200
H351	H35	0.263600	0.187900	0.917500
H361	H36	0.382000	0.279700	0.936900
H371	H37	0.270800	0.338000	0.923400
H381	H38	0.390700	0.158100	0.944300
H391	H39	0.417500	0.194700	0.968100
H401	H40	0.178700	0.608000	0.357800
H411	H41	0.097100	0.563400	0.348200
H421	H42	0.042400	0.517100	0.408900
H431	H43	0.079200	0.514000	0.478800
H441	H44	0.383600	0.550800	0.590800
H451	H45	0.291300	0.574000	0.622400
H461	H46	0.317400	0.642200	0.619800
H471	H47	0.396200	0.604600	0.631000
H481	H48	0.403600	0.625300	0.579900
H491	H49	0.011300	0.570800	0.694200
H501	H50	0.998100	0.571300	0.771500
H511	H51	0.109800	0.528300	0.801700
H521	H52	0.233400	0.487600	0.750600
H531	H53	0.470100	0.381400	0.540800
H541	H54	0.470200	0.416800	0.498600
H551	H55	0.353000	0.382700	0.495900
H561	H56	0.448800	0.364800	0.465600
H571	H57	0.416300	0.339500	0.513100
H581	H58	0.178600	0.433600	0.518800
H591	H59	0.132500	0.367200	0.519600
H601	H60	0.090000	0.364600	0.655600
H611	H61	0.132200	0.430400	0.652200
H621	H62	0.020300	0.321200	0.624000
H631	H63	0.111100	0.290900	0.596500
H641	H64	0.601000	0.714100	0.307100
H651	H65	0.516000	0.787300	0.315700
H661	H66	0.379400	0.804200	0.365200
H671	H67	0.331900	0.743900	0.405700
H681	H68	0.368200	0.509400	0.463400
H691	H69	0.459000	0.474100	0.442500
H701	H70	0.332600	0.505200	0.388800
H711	H71	0.351500	0.454900	0.411500
H721	H72	0.421900	0.468300	0.369700
H731	H73	0.812500	0.250200	0.592800
H741	H74	0.869000	0.312100	0.582500
H751	H75	0.098600	0.220300	0.563100
H761	H76	0.032200	0.162000	0.576600
H771	H77	0.993100	0.341900	0.555700
H781	H78	0.080300	0.305300	0.531900
H791	H79	0.786700	0.857800	0.392000
H801	H80	0.660500	0.848200	0.436600
H811	H81	0.559500	0.908900	0.482900
H821	H82	0.593200	0.978800	0.486000
H831	H83	0.934400	0.090800	0.449200
H841	H84	0.865300	0.122400	0.426000
H851	H85	0.959600	0.119800	0.357800
H861	H86	0.000800	0.131000	0.395400
H871	H87	0.028900	0.079900	0.374700
H881	H88	0.582100	0.194200	0.429200
H891	H89	0.569400	0.271500	0.428700
H901	H90	0.638100	0.301700	0.471700
H911	H91	0.721000	0.250600	0.512400
H921	H92	0.851500	0.040800	0.618600
H931	H93	0.887000	0.998600	0.583200
H941	H94	0.735700	0.995900	0.617300
H951	H95	0.813600	0.965600	0.635200
H961	H96	0.755800	0.013100	0.660500
H971	H97	0.612200	0.018800	0.566400
H981	H98	0.499700	0.019600	0.632800
H991	H99	0.454600	0.155600	0.635400
H1001	H100	0.562600	0.152200	0.569600
H1011	H101	0.341500	0.124000	0.678800
H1021	H102	0.402000	0.096500	0.709100
H1031	H103	0.315100	0.807100	0.285900
H1041	H104	0.303300	0.815700	0.212700
H1051	H105	0.183600	0.865200	0.195800
H1061	H106	0.075800	0.905700	0.256100
H1071	H107	0.877600	0.963400	0.490600
H1081	H108	0.933100	0.942500	0.525900
H1091	H109	0.837800	0.888800	0.494800
H1101	H110	0.806400	0.911500	0.545100
H1111	H111	0.890200	0.869700	0.531700
H1121	H112	0.062700	0.092800	0.749800
H1131	H113	0.181100	0.082500	0.687900
H1141	H114	0.318900	0.063100	0.779700
H1151	H115	0.194200	0.076600	0.838000
H1161	H116	0.335000	0.055700	0.658100
H1171	H117	0.385600	0.031900	0.694700
H1181	H118	0.536500	0.642200	0.108000
H1191	H119	0.445300	0.651800	0.063400
H1201	H120	0.451300	0.591100	0.017100
H1211	H121	0.558000	0.521200	0.014000
H1221	H122	0.974400	0.409200	0.050800
H1231	H123	0.913700	0.377600	0.074000
H1241	H124	0.937200	0.380200	0.142200
H1251	H125	0.027200	0.369000	0.104600
H1261	H126	0.983500	0.420100	0.125300
H1271	H127	0.705500	0.305800	0.070800
H1281	H128	0.769600	0.228500	0.071300
H1291	H129	0.911500	0.198300	0.028300
H1301	H130	0.984000	0.249400	0.987600
H1311	H131	0.010900	0.459200	0.881400
H1321	H132	0.968800	0.501400	0.916800
H1331	H133	0.848900	0.504100	0.882700
H1341	H134	0.914400	0.534400	0.864800
H1351	H135	0.929400	0.486900	0.839500
H1361	H136	0.697400	0.481200	0.933600
H1371	H137	0.652100	0.480400	0.867200
H1381	H138	0.745600	0.344400	0.864600
H1391	H139	0.784400	0.347800	0.930400
H1401	H140	0.644300	0.376000	0.821200
H1411	H141	0.707600	0.403500	0.790900
H1421	H142	0.908100	0.692900	0.214100
H1431	H143	0.831700	0.684300	0.287300
H1441	H144	0.744600	0.634800	0.304200
H1451	H145	0.737600	0.594300	0.243900
H1461	H146	0.831600	0.536600	0.009400
H1471	H147	0.901500	0.557500	0.974100
H1481	H148	0.721400	0.611200	0.005200
H1491	H149	0.763000	0.588500	0.954900
H1501	H150	0.791600	0.630300	0.968300
H1511	H151	0.405300	0.407200	0.750200
H1521	H152	0.451500	0.417500	0.812100
H1531	H153	0.661700	0.436900	0.720300
H1541	H154	0.608800	0.423400	0.662000
H1551	H155	0.548800	0.444300	0.841900
H1561	H156	0.612200	0.468100	0.805300
H1571	H157	0.355500	0.108000	0.857800
H1581	H158	0.491300	0.063400	0.848200
H1591	H159	0.531600	0.017100	0.908900
H1601	H160	0.428000	0.014000	0.978800
H1611	H161	0.974800	0.050800	0.090800
H1621	H162	0.012300	0.074000	0.122400
H1631	H163	0.920600	0.142200	0.119800
H1641	H164	0.868200	0.104600	0.131000
H1651	H165	0.891200	0.125300	0.079900
H1661	H166	0.223700	0.070800	0.194200
H1671	H167	0.159100	0.071300	0.271500
H1681	H168	0.060200	0.028300	0.301700
H1691	H169	0.028400	0.987600	0.250600
H1701	H170	0.107700	0.881400	0.040800
H1711	H171	0.114400	0.916800	0.998600
H1721	H172	0.268400	0.882700	0.995900
H1731	H173	0.220800	0.864800	0.965600
H1741	H174	0.231100	0.839500	0.013100
H1751	H175	0.369000	0.933600	0.018800
H1761	H176	0.480700	0.867200	0.019600
H1771	H177	0.389800	0.864600	0.155600
H1781	H178	0.285200	0.930400	0.152200
H1791	H179	0.534500	0.821200	0.124000
H1801	H180	0.501500	0.790900	0.096500
H1811	H181	0.877800	0.214100	0.807100
H1821	H182	0.881000	0.287300	0.815700
H1831	H183	0.951200	0.304200	0.865200
H1841	H184	0.018500	0.243900	0.905700
H1851	H185	0.159000	0.009400	0.963400
H1861	H186	0.124400	0.974100	0.942500
H1871	H187	0.273400	0.005200	0.888800
H1881	H188	0.282100	0.954900	0.911500
H1891	H189	0.240100	0.968300	0.869700
H1901	H190	0.844500	0.750200	0.092800
H1911	H191	0.736400	0.812100	0.082500
H1921	H192	0.618000	0.720300	0.063100
H1931	H193	0.729200	0.662000	0.076600
H1941	H194	0.609300	0.841900	0.055700
H1951	H195	0.582500	0.805300	0.031900
H1961	H196	0.821300	0.392000	0.642200
H1971	H197	0.902900	0.436600	0.651800
H1981	H198	0.957600	0.482900	0.591100
H1991	H199	0.920800	0.486000	0.521200
H2001	H200	0.616400	0.449200	0.409200
H2011	H201	0.708700	0.426000	0.377600
H2021	H202	0.682600	0.357800	0.380200
H2031	H203	0.603800	0.395400	0.369000
H2041	H204	0.596400	0.374700	0.420100
H2051	H205	0.988700	0.429200	0.305800
H2061	H206	0.001900	0.428700	0.228500
H2071	H207	0.890200	0.471700	0.198300
H2081	H208	0.766600	0.512400	0.249400
H2091	H209	0.529900	0.618600	0.459200
H2101	H210	0.529800	0.583200	0.501400
H2111	H211	0.647000	0.617300	0.504100
H2121	H212	0.551200	0.635200	0.534400
H2131	H213	0.583700	0.660500	0.486900
H2141	H214	0.821400	0.566400	0.481200
H2151	H215	0.867500	0.632800	0.480400
H2161	H216	0.910000	0.635400	0.344400
H2171	H217	0.867800	0.569600	0.347800
H2181	H218	0.979700	0.678800	0.376000
H2191	H219	0.888900	0.709100	0.403500
H2201	H220	0.399000	0.285900	0.692900
H2211	H221	0.484000	0.212700	0.684300
H2221	H222	0.620600	0.195800	0.634800
H2231	H223	0.668100	0.256100	0.594300
H2241	H224	0.631800	0.490600	0.536600
H2251	H225	0.541000	0.525900	0.557500
H2261	H226	0.667400	0.494800	0.611200
H2271	H227	0.648500	0.545100	0.588500
H2281	H228	0.578100	0.531700	0.630300
H2291	H229	0.187500	0.749800	0.407200
H2301	H230	0.131000	0.687900	0.417500
H2311	H231	0.901400	0.779700	0.436900
H2321	H232	0.967800	0.838000	0.423400
H2331	H233	0.006900	0.658100	0.444300
H2341	H234	0.919700	0.694700	0.468100
H2351	H235	0.213300	0.142200	0.608000
H2361	H236	0.339500	0.151800	0.563400
H2371	H237	0.440500	0.091100	0.517100
H2381	H238	0.406800	0.021200	0.514000
H2391	H239	0.065600	0.909200	0.550800
H2401	H240	0.134700	0.877600	0.574000
H2411	H241	0.040400	0.880200	0.642200
H2421	H242	0.999200	0.869000	0.604600
H2431	H243	0.971100	0.920100	0.625300
H2441	H244	0.417900	0.805800	0.570800
H2451	H245	0.430600	0.728500	0.571300
H2461	H246	0.361900	0.698300	0.528300
H2471	H247	0.279000	0.749400	0.487600
H2481	H248	0.148500	0.959200	0.381400
H2491	H249	0.113000	0.001400	0.416800
H2501	H250	0.264300	0.004100	0.382700
H2511	H251	0.186400	0.034400	0.364800
H2521	H252	0.244200	0.986900	0.339500
H2531	H253	0.387800	0.981200	0.433600
H2541	H254	0.500300	0.980400	0.367200
H2551	H255	0.545400	0.844400	0.364600
H2561	H256	0.437400	0.847800	0.430400
H2571	H257	0.658500	0.876000	0.321200
H2581	H258	0.598000	0.903500	0.290900
H2591	H259	0.684900	0.192900	0.714100
H2601	H260	0.696700	0.184300	0.787300
H2611	H261	0.816400	0.134800	0.804200
H2621	H262	0.924200	0.094300	0.743900
H2631	H263	0.122400	0.036600	0.509400
H2641	H264	0.066900	0.057500	0.474100
H2651	H265	0.162200	0.111200	0.505200
H2661	H266	0.193600	0.088500	0.454900
H2671	H267	0.109800	0.130300	0.468300
H2681	H268	0.937300	0.907200	0.250200
H2691	H269	0.818900	0.917500	0.312100
H2701	H270	0.681100	0.936900	0.220300
H2711	H271	0.805800	0.923400	0.162000
H2721	H272	0.665000	0.944300	0.341900
H2731	H273	0.614400	0.968100	0.305300
H2741	H274	0.463500	0.357800	0.892000
H2751	H275	0.554700	0.348200	0.936600
H2761	H276	0.548700	0.408900	0.982900
H2771	H277	0.442000	0.478800	0.986000
H2781	H278	0.025600	0.590800	0.949200
H2791	H279	0.086300	0.622400	0.926000
H2801	H280	0.062800	0.619800	0.857800
H2811	H281	0.972800	0.631000	0.895400
H2821	H282	0.016500	0.579900	0.874700
H2831	H283	0.294500	0.694200	0.929200
H2841	H284	0.230400	0.771500	0.928700
H2851	H285	0.088500	0.801700	0.971700
H2861	H286	0.016000	0.750600	0.012400
H2871	H287	0.989100	0.540800	0.118600
H2881	H288	0.031200	0.498600	0.083200
H2891	H289	0.151100	0.495900	0.117300
H2901	H290	0.085600	0.465600	0.135200
H2911	H291	0.070600	0.513100	0.160500
H2921	H292	0.302600	0.518800	0.066400
H2931	H293	0.347900	0.519600	0.132800
H2941	H294	0.254400	0.655600	0.135400
H2951	H295	0.215600	0.652200	0.069600
H2961	H296	0.355700	0.624000	0.178800
H2971	H297	0.292400	0.596500	0.209100
H2981	H298	0.091900	0.307100	0.785900
H2991	H299	0.168300	0.315700	0.712700
H3001	H300	0.255400	0.365200	0.695800
H3011	H301	0.262400	0.405700	0.756100
H3021	H302	0.168400	0.463400	0.990600
H3031	H303	0.098500	0.442500	0.025900
H3041	H304	0.278600	0.388800	0.994800
H3051	H305	0.237000	0.411500	0.045100
H3061	H306	0.208400	0.369700	0.031700
H3071	H307	0.594700	0.592800	0.249800
H3081	H308	0.548500	0.582500	0.187900
H3091	H309	0.338300	0.563100	0.279700
H3101	H310	0.391200	0.576600	0.338000
H3111	H311	0.451200	0.555700	0.158100
H3121	H312	0.387800	0.531900	0.194700
C11	C1	0.692960	0.912770	0.076110
C21	C2	0.630150	0.911380	0.117720
C31	C3	0.549620	0.937430	0.123130
C41	C4	0.525370	0.965530	0.087330
C51	C5	0.587250	0.967430	0.045870
C61	C6	0.671060	0.942210	0.040670
C71	C7	0.733080	0.948480	0.998360
C81	C8	0.943530	0.913750	0.946190
C91	C9	0.011320	0.920700	0.904460
C101	C10	0.089060	0.884190	0.892490
C111	C11	0.832440	0.971530	0.825990
C121	C12	0.816000	0.946650	0.794550
C131	C13	0.854210	0.946200	0.748580
C141	C14	0.913160	0.971420	0.730460
C151	C15	0.930850	0.995600	0.761100
C161	C16	0.892840	0.996900	0.807820
C171	C17	0.913860	0.025840	0.837040
C181	C18	0.850750	0.064840	0.947860
C191	C19	0.856570	0.099860	0.978400
C201	C20	0.777840	0.130660	0.002860
C211	C21	0.625350	0.079890	0.952410
C221	C22	0.558140	0.119580	0.952340
C231	C23	0.550440	0.138760	0.909960
C241	C24	0.610410	0.120910	0.873470
C251	C25	0.674070	0.081750	0.875710
C261	C26	0.478370	0.181200	0.905460
C271	C27	0.051920	0.817230	0.149330
C281	C28	0.092580	0.780250	0.172790
C291	C29	0.091060	0.736960	0.167520
C301	C30	0.049780	0.726590	0.138250
C311	C31	0.010320	0.762470	0.114490
C321	C32	0.011010	0.807510	0.118870
C331	C33	0.966690	0.844640	0.092180
C341	C34	0.899380	0.961490	0.086350
C351	C35	0.847440	0.000790	0.065330
C361	C36	0.753330	0.020060	0.102680
C371	C37	0.202480	0.255710	0.913730
C381	C38	0.266490	0.218620	0.919600
C391	C39	0.334550	0.226630	0.928470
C401	C40	0.335900	0.272590	0.930610
C411	C41	0.268720	0.306940	0.923420
C421	C42	0.407550	0.187260	0.939240
C431	C43	0.181840	0.587230	0.423890
C441	C44	0.159250	0.588620	0.382280
C451	C45	0.110180	0.562570	0.376870
C461	C46	0.078230	0.534470	0.412670
C471	C47	0.100550	0.532570	0.454130
C481	C48	0.153940	0.557790	0.459330
C491	C49	0.179920	0.551520	0.501640
C501	C50	0.303470	0.586250	0.553810
C511	C51	0.336480	0.579300	0.595540
C521	C52	0.365740	0.615810	0.607510
C531	C53	0.129960	0.528470	0.674010
C541	C54	0.057200	0.553350	0.705450
C551	C55	0.048990	0.553800	0.751420
C561	C56	0.115040	0.528580	0.769540
C571	C57	0.187550	0.504400	0.738900
C581	C58	0.197560	0.503100	0.692180
C591	C59	0.276740	0.474160	0.662960
C601	C60	0.363450	0.435160	0.552140
C611	C61	0.434830	0.400140	0.521600
C621	C62	0.411360	0.369340	0.497140
C631	C63	0.157650	0.420110	0.547590
C641	C64	0.130060	0.380420	0.547660
C651	C65	0.099160	0.361240	0.590040
C661	C66	0.104790	0.379090	0.626530
C671	C67	0.131530	0.418250	0.624290
C681	C68	0.065030	0.318800	0.594540
C691	C69	0.518480	0.682770	0.350670
C701	C70	0.545620	0.719750	0.327210
C711	C71	0.495540	0.763040	0.332480
C721	C72	0.414620	0.773410	0.361750
C731	C73	0.387280	0.737530	0.385510
C741	C74	0.437390	0.692490	0.381130
C751	C75	0.403510	0.655360	0.407820
C761	C76	0.447220	0.538510	0.413650
C771	C77	0.413560	0.499210	0.434670
C781	C78	0.376070	0.479940	0.397320
C791	C79	0.871920	0.244290	0.586270
C801	C80	0.904710	0.281380	0.580400
C811	C81	0.989650	0.273370	0.571530
C821	C82	0.039100	0.227410	0.569390
C831	C83	0.999080	0.193060	0.576580
C841	C84	0.034050	0.312740	0.560760
C851	C85	0.769070	0.923890	0.412770
C861	C86	0.747870	0.882280	0.411380
C871	C87	0.672750	0.876870	0.437430
C881	C88	0.612700	0.912670	0.465530
C891	C89	0.633120	0.954130	0.467430
C901	C90	0.711730	0.959330	0.442210
C911	C91	0.731440	0.001640	0.448480
C921	C92	0.889720	0.053810	0.413750
C931	C93	0.915780	0.095540	0.420700
C941	C94	0.981550	0.107510	0.384190
C951	C95	0.658430	0.174010	0.471530
C961	C96	0.610550	0.205450	0.446650
C971	C97	0.602790	0.251420	0.446200
C981	C98	0.643620	0.269540	0.471420
C991	C99	0.691950	0.238900	0.495600
C1001	C100	0.700660	0.192180	0.496900
C1011	C101	0.750900	0.162960	0.525840
C1021	C102	0.798610	0.052140	0.564840
C1031	C103	0.834970	0.021600	0.599860
C1041	C104	0.780700	0.997140	0.630660
C1051	C105	0.577760	0.047590	0.579890
C1061	C106	0.510480	0.047660	0.619580
C1071	C107	0.460400	0.090040	0.638760
C1081	C108	0.483880	0.126530	0.620910
C1091	C109	0.549780	0.124290	0.581750
C1101	C110	0.383830	0.094540	0.681200
C1111	C111	0.201250	0.850670	0.317230
C1121	C112	0.265370	0.827210	0.280250
C1131	C113	0.258580	0.832480	0.236960
C1141	C114	0.188030	0.861750	0.226590
C1151	C115	0.124810	0.885510	0.262470
C1161	C116	0.129880	0.881130	0.307510
C1171	C117	0.058870	0.907820	0.344640
C1181	C118	0.985730	0.913650	0.461490
C1191	C119	0.912770	0.934670	0.500790
C1201	C120	0.856010	0.897320	0.520060
C1211	C121	0.116210	0.086270	0.755710
C1221	C122	0.186090	0.080400	0.718620
C1231	C123	0.263020	0.071530	0.726630
C1241	C124	0.266510	0.069390	0.772590
C1251	C125	0.192140	0.076580	0.806940
C1261	C126	0.346790	0.060760	0.687260
C1271	C127	0.605730	0.576110	0.087230
C1281	C128	0.541530	0.617720	0.088620
C1291	C129	0.487050	0.623130	0.062570
C1301	C130	0.490900	0.587330	0.034470
C1311	C131	0.554680	0.545870	0.032570
C1321	C132	0.613270	0.540670	0.057790
C1331	C133	0.681560	0.498360	0.051520
C1341	C134	0.857280	0.446190	0.086250
C1351	C135	0.932020	0.404460	0.079300
C1361	C136	0.973250	0.392490	0.115810
C1371	C137	0.803970	0.325990	0.028470
C1381	C138	0.762650	0.294550	0.053350
C1391	C139	0.800410	0.248580	0.053800
C1401	C140	0.884580	0.230460	0.028580
C1411	C141	0.926450	0.261100	0.004400
C1421	C142	0.889740	0.307820	0.003100
C1431	C143	0.939700	0.337040	0.974160
C1441	C144	0.915590	0.447860	0.935160
C1451	C145	0.956430	0.478400	0.900140
C1461	C146	0.908500	0.502860	0.869340
C1471	C147	0.705240	0.452410	0.920110
C1481	C148	0.677720	0.452340	0.880420
C1491	C149	0.689200	0.409960	0.861240
C1501	C150	0.731320	0.373470	0.879090
C1511	C151	0.755820	0.375710	0.918250
C1521	C152	0.659570	0.405460	0.818800
C1531	C153	0.869150	0.649330	0.182770
C1541	C154	0.872830	0.672790	0.219750
C1551	C155	0.828020	0.667520	0.263040
C1561	C156	0.776370	0.638250	0.273410
C1571	C157	0.772790	0.614490	0.237530
C1581	C158	0.818520	0.618870	0.192490
C1591	C159	0.811330	0.592180	0.155360
C1601	C160	0.860870	0.586350	0.038510
C1611	C161	0.848230	0.565330	0.999210
C1621	C162	0.773390	0.602680	0.979940
C1631	C163	0.458190	0.413730	0.744290
C1641	C164	0.485110	0.419600	0.781380
C1651	C165	0.561180	0.428470	0.773370
C1661	C166	0.608490	0.430610	0.727410
C1671	C167	0.575660	0.423420	0.693060
C1681	C168	0.594810	0.439240	0.812740
C1691	C169	0.307040	0.087230	0.923890
C1701	C170	0.369850	0.088620	0.882280
C1711	C171	0.450380	0.062570	0.876870
C1721	C172	0.474630	0.034470	0.912670
C1731	C173	0.412750	0.032570	0.954130
C1741	C174	0.328940	0.057790	0.959330
C1751	C175	0.266920	0.051520	0.001640
C1761	C176	0.056470	0.086250	0.053810
C1771	C177	0.988680	0.079300	0.095540
C1781	C178	0.910940	0.115810	0.107510
C1791	C179	0.167560	0.028470	0.174010
C1801	C180	0.184000	0.053350	0.205450
C1811	C181	0.145790	0.053800	0.251420
C1821	C182	0.086840	0.028580	0.269540
C1831	C183	0.069150	0.004400	0.238900
C1841	C184	0.107160	0.003100	0.192180
C1851	C185	0.086140	0.974160	0.162960
C1861	C186	0.149250	0.935160	0.052140
C1871	C187	0.143430	0.900140	0.021600
C1881	C188	0.222160	0.869340	0.997140
C1891	C189	0.374650	0.920110	0.047590
C1901	C190	0.441860	0.880420	0.047660
C1911	C191	0.449560	0.861240	0.090040
C1921	C192	0.389590	0.879090	0.126530
C1931	C193	0.325930	0.918250	0.124290
C1941	C194	0.521630	0.818800	0.094540
C1951	C195	0.948080	0.182770	0.850670
C1961	C196	0.907420	0.219750	0.827210
C1971	C197	0.908940	0.263040	0.832480
C1981	C198	0.950220	0.273410	0.861750
C1991	C199	0.989680	0.237530	0.885510
C2001	C200	0.988990	0.192490	0.881130
C2011	C201	0.033310	0.155360	0.907820
C2021	C202	0.100620	0.038510	0.913650
C2031	C203	0.152560	0.999210	0.934670
C2041	C204	0.246670	0.979940	0.897320
C2051	C205	0.797520	0.744290	0.086270
C2061	C206	0.733510	0.781380	0.080400
C2071	C207	0.665450	0.773370	0.071530
C2081	C208	0.664100	0.727410	0.069390
C2091	C209	0.731280	0.693060	0.076580
C2101	C210	0.592450	0.812740	0.060760
C2111	C211	0.818160	0.412770	0.576110
C2121	C212	0.840750	0.411380	0.617720
C2131	C213	0.889820	0.437430	0.623130
C2141	C214	0.921770	0.465530	0.587330
C2151	C215	0.899450	0.467430	0.545870
C2161	C216	0.846060	0.442210	0.540670
C2171	C217	0.820080	0.448480	0.498360
C2181	C218	0.696530	0.413750	0.446190
C2191	C219	0.663520	0.420700	0.404460
C2201	C220	0.634260	0.384190	0.392490
C2211	C221	0.870040	0.471530	0.325990
C2221	C222	0.942800	0.446650	0.294550
C2231	C223	0.951010	0.446200	0.248580
C2241	C224	0.884960	0.471420	0.230460
C2251	C225	0.812450	0.495600	0.261100
C2261	C226	0.802440	0.496900	0.307820
C2271	C227	0.723260	0.525840	0.337040
C2281	C228	0.636550	0.564840	0.447860
C2291	C229	0.565170	0.599860	0.478400
C2301	C230	0.588640	0.630660	0.502860
C2311	C231	0.842350	0.579890	0.452410
C2321	C232	0.869940	0.619580	0.452340
C2331	C233	0.900840	0.638760	0.409960
C2341	C234	0.895210	0.620910	0.373470
C2351	C235	0.868470	0.581750	0.375710
C2361	C236	0.934970	0.681200	0.405460
C2371	C237	0.481520	0.317230	0.649330
C2381	C238	0.454380	0.280250	0.672790
C2391	C239	0.504460	0.236960	0.667520
C2401	C240	0.585380	0.226590	0.638250
C2411	C241	0.612720	0.262470	0.614490
C2421	C242	0.562610	0.307510	0.618870
C2431	C243	0.596490	0.344640	0.592180
C2441	C244	0.552780	0.461490	0.586350
C2451	C245	0.586440	0.500790	0.565330
C2461	C246	0.623930	0.520060	0.602680
C2471	C247	0.128080	0.755710	0.413730
C2481	C248	0.095290	0.718620	0.419600
C2491	C249	0.010350	0.726630	0.428470
C2501	C250	0.960900	0.772590	0.430610
C2511	C251	0.000920	0.806940	0.423420
C2521	C252	0.965950	0.687260	0.439240
C2531	C253	0.230930	0.076110	0.587230
C2541	C254	0.252130	0.117720	0.588620
C2551	C255	0.327250	0.123130	0.562570
C2561	C256	0.387300	0.087330	0.534470
C2571	C257	0.366880	0.045870	0.532570
C2581	C258	0.288270	0.040670	0.557790
C2591	C259	0.268560	0.998360	0.551520
C2601	C260	0.110280	0.946190	0.586250
C2611	C261	0.084220	0.904460	0.579300
C2621	C262	0.018450	0.892490	0.615810
C2631	C263	0.341570	0.825990	0.528470
C2641	C264	0.389450	0.794550	0.553350
C2651	C265	0.397210	0.748580	0.553800
C2661	C266	0.356380	0.730460	0.528580
C2671	C267	0.308050	0.761100	0.504400
C2681	C268	0.299340	0.807820	0.503100
C2691	C269	0.249100	0.837040	0.474160
C2701	C270	0.201390	0.947860	0.435160
C2711	C271	0.165030	0.978400	0.400140
C2721	C272	0.219300	0.002860	0.369340
C2731	C273	0.422240	0.952410	0.420110
C2741	C274	0.489520	0.952340	0.380420
C2751	C275	0.539600	0.909960	0.361240
C2761	C276	0.516120	0.873470	0.379090
C2771	C277	0.450220	0.875710	0.418250
C2781	C278	0.616170	0.905460	0.318800
C2791	C279	0.798750	0.149330	0.682770
C2801	C280	0.734630	0.172790	0.719750
C2811	C281	0.741420	0.167520	0.763040
C2821	C282	0.811970	0.138250	0.773410
C2831	C283	0.875190	0.114490	0.737530
C2841	C284	0.870120	0.118870	0.692490
C2851	C285	0.941130	0.092180	0.655360
C2861	C286	0.014270	0.086350	0.538510
C2871	C287	0.087230	0.065330	0.499210
C2881	C288	0.143990	0.102680	0.479940
C2891	C289	0.883790	0.913730	0.244290
C2901	C290	0.813910	0.919600	0.281380
C2911	C291	0.736980	0.928470	0.273370
C2921	C292	0.733490	0.930610	0.227410
C2931	C293	0.807860	0.923420	0.193060
C2941	C294	0.653210	0.939240	0.312740
C2951	C295	0.394270	0.423890	0.912770
C2961	C296	0.458470	0.382280	0.911380
C2971	C297	0.512950	0.376870	0.937430
C2981	C298	0.509100	0.412670	0.965530
C2991	C299	0.445320	0.454130	0.967430
C3001	C300	0.386730	0.459330	0.942210
C3011	C301	0.318440	0.501640	0.948480
C3021	C302	0.142720	0.553810	0.913750
C3031	C303	0.067980	0.595540	0.920700
C3041	C304	0.026750	0.607510	0.884190
C3051	C305	0.196030	0.674010	0.971530
C3061	C306	0.237350	0.705450	0.946650
C3071	C307	0.199590	0.751420	0.946200
C3081	C308	0.115420	0.769540	0.971420
C3091	C309	0.073550	0.738900	0.995600
C3101	C310	0.110260	0.692180	0.996900
C3111	C311	0.060300	0.662960	0.025840
C3121	C312	0.084410	0.552140	0.064840
C3131	C313	0.043570	0.521600	0.099860
C3141	C314	0.091500	0.497140	0.130660
C3151	C315	0.294760	0.547590	0.079890
C3161	C316	0.322280	0.547660	0.119580
C3171	C317	0.310800	0.590040	0.138760
C3181	C318	0.268680	0.626530	0.120910
C3191	C319	0.244180	0.624290	0.081750
C3201	C320	0.340430	0.594540	0.181200
C3211	C321	0.130850	0.350670	0.817230
C3221	C322	0.127170	0.327210	0.780250
C3231	C323	0.171980	0.332480	0.736960
C3241	C324	0.223630	0.361750	0.726590
C3251	C325	0.227210	0.385510	0.762470
C3261	C326	0.181480	0.381130	0.807510
C3271	C327	0.188670	0.407820	0.844640
C3281	C328	0.139130	0.413650	0.961490
C3291	C329	0.151770	0.434670	0.000790
C3301	C330	0.226610	0.397320	0.020060
C3311	C331	0.541810	0.586270	0.255710
C3321	C332	0.514890	0.580400	0.218620
C3331	C333	0.438820	0.571530	0.226630
C3341	C334	0.391510	0.569390	0.272590
C3351	C335	0.424340	0.576580	0.306940
C3361	C336	0.405190	0.560760	0.187260
N11	N1	0.813270	0.926390	0.992370
N21	N2	0.866580	0.937780	0.950200
N31	N3	0.872560	0.030580	0.881680
N41	N4	0.891350	0.063110	0.904710
N51	N5	0.681030	0.060560	0.914180
N61	N6	0.958950	0.888100	0.099280
N71	N7	0.912910	0.919410	0.072770
N81	N8	0.202060	0.299230	0.916650
N91	N9	0.232030	0.573610	0.507630
N101	N10	0.254560	0.562220	0.549800
N111	N11	0.284820	0.469420	0.618320
N121	N12	0.359170	0.436890	0.595290
N131	N13	0.155770	0.439440	0.585820
N141	N14	0.446330	0.611900	0.400720
N151	N15	0.405090	0.580590	0.427230
N161	N16	0.917940	0.200770	0.583350
N171	N17	0.805640	0.007630	0.426390
N181	N18	0.816780	0.049800	0.437780
N191	N19	0.754240	0.118320	0.530580
N201	N20	0.796060	0.095290	0.563110
N211	N21	0.595210	0.085820	0.560560
N221	N22	0.058230	0.900720	0.388100
N231	N23	0.985680	0.927230	0.419410
N241	N24	0.118710	0.083350	0.799230
N251	N25	0.739660	0.492370	0.073610
N261	N26	0.804360	0.450200	0.062220
N271	N27	0.903140	0.381680	0.969420
N281	N28	0.954460	0.404710	0.936890
N291	N29	0.741590	0.414180	0.939440
N301	N30	0.847050	0.599280	0.111900
N311	N31	0.832320	0.572770	0.080590
N321	N32	0.501290	0.416650	0.700770
N331	N33	0.186730	0.073610	0.007630
N341	N34	0.133420	0.062220	0.049800
N351	N35	0.127440	0.969420	0.118320
N361	N36	0.108650	0.936890	0.095290
N371	N37	0.318970	0.939440	0.085820
N381	N38	0.041050	0.111900	0.900720
N391	N39	0.087090	0.080590	0.927230
N401	N40	0.797940	0.700770	0.083350
N411	N41	0.767970	0.426390	0.492370
N421	N42	0.745440	0.437780	0.450200
N431	N43	0.715180	0.530580	0.381680
N441	N44	0.640830	0.563110	0.404710
N451	N45	0.844230	0.560560	0.414180
N461	N46	0.553670	0.388100	0.599280
N471	N47	0.594910	0.419410	0.572770
N481	N48	0.082060	0.799230	0.416650
N491	N49	0.194360	0.992370	0.573610
N501	N50	0.183220	0.950200	0.562220
N511	N51	0.245760	0.881680	0.469420
N521	N52	0.203940	0.904710	0.436890
N531	N53	0.404790	0.914180	0.439440
N541	N54	0.941770	0.099280	0.611900
N551	N55	0.014320	0.072770	0.580590
N561	N56	0.881290	0.916650	0.200770
N571	N57	0.260340	0.507630	0.926390
N581	N58	0.195640	0.549800	0.937780
N591	N59	0.096860	0.618320	0.030580
N601	N60	0.045540	0.595290	0.063110
N611	N61	0.258410	0.585820	0.060560
N621	N62	0.152950	0.400720	0.888100
N631	N63	0.167680	0.427230	0.919410
N641	N64	0.498710	0.583350	0.299230
O11	O1	0.769200	0.884260	0.073320
O21	O2	0.707590	0.976820	0.967780
O31	O3	0.965000	0.882940	0.976300
O41	O4	0.790830	0.970680	0.869800
O51	O5	0.968950	0.047910	0.818670
O61	O6	0.802640	0.037890	0.965730
O71	O7	0.057130	0.859540	0.157100
O81	O8	0.935130	0.832350	0.062550
O91	O9	0.929250	0.970960	0.118420
O101	O10	0.226780	0.615740	0.426680
O111	O11	0.152190	0.523180	0.532220
O121	O12	0.324240	0.617060	0.523700
O131	O13	0.131310	0.529320	0.630200
O141	O14	0.335530	0.452090	0.681330
O151	O15	0.306260	0.462110	0.534270
O161	O16	0.573770	0.640460	0.342900
O171	O17	0.330030	0.667650	0.437450
O181	O18	0.518630	0.529040	0.381580
O191	O19	0.842520	0.926680	0.384260
O201	O20	0.675370	0.032220	0.476820
O211	O21	0.941300	0.023700	0.382940
O221	O22	0.660630	0.130200	0.470680
O231	O23	0.787620	0.181330	0.547910
O241	O24	0.768370	0.034270	0.537890
O251	O25	0.214230	0.842900	0.359540
O261	O26	0.997680	0.937450	0.332350
O271	O27	0.047670	0.881580	0.470960
O281	O28	0.653460	0.573320	0.115740
O291	O29	0.684410	0.467780	0.023180
O301	O30	0.847940	0.476300	0.117060
O311	O31	0.761510	0.369800	0.029320
O321	O32	0.016860	0.318670	0.952090
O331	O33	0.840530	0.465730	0.962110
O341	O34	0.916670	0.657100	0.140460
O351	O35	0.767480	0.562550	0.167650
O361	O36	0.900210	0.618420	0.029040
O371	O37	0.230800	0.115740	0.926680
O381	O38	0.292410	0.023180	0.032220
O391	O39	0.035000	0.117060	0.023700
O401	O40	0.209170	0.029320	0.130200
O411	O41	0.031050	0.952090	0.181330
O421	O42	0.197360	0.962110	0.034270
O431	O43	0.942870	0.140460	0.842900
O441	O44	0.064870	0.167650	0.937450
O451	O45	0.070750	0.029040	0.881580
O461	O46	0.773220	0.384260	0.573320
O471	O47	0.847810	0.476820	0.467780
O481	O48	0.675760	0.382940	0.476300
O491	O49	0.868690	0.470680	0.369800
O501	O50	0.664470	0.547910	0.318670
O511	O51	0.693740	0.537890	0.465730
O521	O52	0.426230	0.359540	0.657100
O531	O53	0.669970	0.332350	0.562550
O541	O54	0.481370	0.470960	0.618420
O551	O55	0.157480	0.073320	0.615740
O561	O56	0.324630	0.967780	0.523180
O571	O57	0.058700	0.976300	0.617060
O581	O58	0.339370	0.869800	0.529320
O591	O59	0.212380	0.818670	0.452090
O601	O60	0.231630	0.965730	0.462110
O611	O61	0.785770	0.157100	0.640460
O621	O62	0.002320	0.062550	0.667650
O631	O63	0.952330	0.118420	0.529040
O641	O64	0.346540	0.426680	0.884260
O651	O65	0.315590	0.532220	0.976820
O661	O66	0.152060	0.523700	0.882940
O671	O67	0.238490	0.630200	0.970680
O681	O68	0.983140	0.681330	0.047910
O691	O69	0.159470	0.534270	0.037890
O701	O70	0.083330	0.342900	0.859540
O711	O71	0.232520	0.437450	0.832350
O721	O72	0.099790	0.381580	0.970960
