data_XALCIX_clean_PM
_symmetry_space_group_name_H-M	'P1'
_cell_length_a	40.906000
_cell_length_b	40.906000
_cell_length_c	17.295000
_cell_angle_alpha	90.000000
_cell_angle_beta	90.000000
_cell_angle_gamma	90.000000
_symmetry_Int_Tables_number 1

loop_
_symmetry_equiv_pos_as_xyz
'x,y,z'

loop_
_atom_site_label
_atom_site_type_symbol
_atom_site_fract_x
_atom_site_fract_y
_atom_site_fract_z
Mn11	Mn1	0.576460	0.541150	0.181840
O11	O1	0.594980	0.514000	0.256700
O21	O2	0.495500	0.525600	0.321030
O31	O3	0.550580	0.567360	0.111520
N11	N1	0.534030	0.536650	0.230000
N21	N2	0.508200	0.552190	0.189400
C11	C1	0.581820	0.500880	0.319500
C21	C2	0.601760	0.480220	0.364900
H11	H1	0.623400	0.475300	0.348500
C31	C3	0.590130	0.467320	0.432300
H21	H2	0.604200	0.454000	0.462600
C41	C4	0.558850	0.472840	0.457800
H31	H3	0.551400	0.463900	0.505300
C51	C5	0.538390	0.491920	0.412200
H41	H4	0.516600	0.495900	0.429100
C61	C6	0.548770	0.505440	0.342500
C71	C7	0.524820	0.523480	0.296000
C81	C8	0.519480	0.566930	0.128300
C91	C9	0.496590	0.584420	0.075000
H51	H5	0.474000	0.582200	0.094700
H61	H6	0.497500	0.574100	0.023200
C101	C10	0.504930	0.620240	0.067500
H71	H7	0.491100	0.630200	0.026900
H81	H8	0.528000	0.622500	0.051500
C111	C11	0.499670	0.638480	0.143500
H91	H9	0.477100	0.634500	0.161900
H101	H10	0.514900	0.629700	0.182800
C121	C12	0.505000	0.675000	0.135800
H111	H11	0.527700	0.679000	0.118500
H121	H12	0.490100	0.683600	0.095600
C131	C13	0.499200	0.693000	0.209400
H131	H13	0.476000	0.698800	0.213300
H141	H14	0.512500	0.712900	0.210100
H151	H15	0.505300	0.679000	0.253200
Mn21	Mn2	0.460600	0.538070	0.246700
O41	O4	0.452280	0.579450	0.286700
O51	O5	0.385260	0.566980	0.100260
O61	O6	0.463390	0.496330	0.194290
N31	N3	0.426270	0.543640	0.170600
N41	N4	0.421530	0.516110	0.121800
N51	N5	0.426500	0.511730	0.331200
C141	C14	0.428440	0.600230	0.269700
C151	C15	0.426260	0.628600	0.315800
H161	H16	0.441800	0.632200	0.355800
C161	C16	0.401550	0.651290	0.303100
H171	H17	0.400200	0.670100	0.335100
C171	C17	0.378980	0.646940	0.245000
H181	H18	0.362000	0.662400	0.237000
C181	C18	0.381580	0.620050	0.199000
H191	H19	0.366200	0.617200	0.158500
C191	C19	0.406020	0.596320	0.208900
C201	C20	0.405670	0.567720	0.156200
C211	C21	0.441920	0.492880	0.140400
C221	C22	0.439100	0.460150	0.102000
H201	H20	0.461100	0.452800	0.085300
H211	H21	0.425200	0.462200	0.055300
C231	C23	0.424260	0.434640	0.156300
H221	H22	0.426500	0.412700	0.132600
H231	H23	0.436600	0.434600	0.205500
C241	C24	0.388350	0.441190	0.173400
H241	H24	0.376000	0.441500	0.124200
H251	H25	0.386200	0.463000	0.197600
C251	C25	0.373100	0.415450	0.227300
H261	H26	0.375300	0.393500	0.203500
H271	H27	0.385100	0.415300	0.277100
C261	C26	0.336900	0.422800	0.242100
H281	H28	0.334200	0.446300	0.252100
H291	H29	0.329400	0.410400	0.287000
H301	H30	0.324100	0.416600	0.196600
C271	C27	0.435150	0.482720	0.356100
H311	H31	0.456800	0.475400	0.346000
C281	C28	0.414300	0.462400	0.396500
H321	H32	0.421600	0.441600	0.413900
C291	C29	0.382420	0.472800	0.411500
C301	C30	0.374610	0.502950	0.386600
H331	H33	0.353400	0.511300	0.397600
C311	C31	0.396000	0.522190	0.345900
H341	H34	0.389200	0.543100	0.328000
C321	C32	0.359790	0.451100	0.457700
H351	H35	0.337100	0.459000	0.451200
H361	H36	0.360900	0.428600	0.436800
Mn31	Mn3	0.612900	0.470130	0.972750
O71	O7	0.649190	0.491690	0.932880
O81	O8	0.617590	0.548450	0.125460
O91	O9	0.574970	0.453260	0.026020
N61	N6	0.606220	0.505050	0.048300
N71	N7	0.578130	0.500650	0.094600
N81	N8	0.308590	0.394320	0.693100
C331	C33	0.665880	0.515950	0.963300
C341	C34	0.696370	0.522920	0.928900
H371	H37	0.703500	0.510400	0.885900
C351	C35	0.715980	0.547650	0.956900
H381	H38	0.736600	0.551700	0.933600
C361	C36	0.705900	0.566660	0.018500
H391	H39	0.719300	0.583900	0.036900
C371	C37	0.676540	0.560440	0.052600
H401	H40	0.669700	0.573700	0.094700
C381	C38	0.656170	0.535050	0.027200
C391	C39	0.625210	0.529620	0.068100
C401	C40	0.563970	0.473140	0.077800
C411	C41	0.534910	0.462210	0.123500
H411	H41	0.525900	0.481000	0.152500
H421	H42	0.517800	0.454200	0.087700
C421	C42	0.544400	0.433900	0.182300
H431	H43	0.551800	0.414600	0.152600
H441	H44	0.563000	0.441300	0.214500
C431	C43	0.514600	0.422900	0.239000
H451	H45	0.497200	0.412200	0.208200
H461	H46	0.505000	0.442500	0.264000
C441	C44	0.525200	0.402600	0.292400
H471	H47	0.533800	0.381900	0.270600
H481	H48	0.541600	0.412600	0.327300
C451	C45	0.488700	0.398200	0.333800
H491	H49	0.477700	0.419400	0.336500
H501	H50	0.475400	0.383100	0.303000
H511	H51	0.491400	0.389400	0.386100
C461	C46	0.306410	0.389410	0.616700
H521	H52	0.291600	0.373200	0.598400
C471	C47	0.324360	0.406550	0.563400
H531	H53	0.322100	0.402100	0.509800
C481	C48	0.345930	0.430610	0.589100
C491	C49	0.347490	0.436010	0.667300
H541	H54	0.361600	0.452400	0.687400
C501	C50	0.328620	0.417730	0.716400
H551	H55	0.330000	0.422100	0.770300
C511	C51	0.367000	0.450300	0.534200
H561	H56	0.367100	0.473100	0.553000
H571	H57	0.389700	0.442000	0.539200
Mn41	Mn4	0.076460	0.041150	0.681840
O101	O10	0.094980	0.014000	0.756700
O111	O11	0.995500	0.025600	0.821030
O121	O12	0.050580	0.067360	0.611520
N91	N9	0.034030	0.036650	0.730000
N101	N10	0.008200	0.052190	0.689400
C521	C52	0.081820	0.000880	0.819500
C531	C53	0.101760	0.980220	0.864900
H581	H58	0.123400	0.975300	0.848500
C541	C54	0.090130	0.967320	0.932300
H591	H59	0.104200	0.954000	0.962600
C551	C55	0.058850	0.972840	0.957800
H601	H60	0.051400	0.963900	0.005300
C561	C56	0.038390	0.991920	0.912200
H611	H61	0.016600	0.995900	0.929100
C571	C57	0.048770	0.005440	0.842500
C581	C58	0.024820	0.023480	0.796000
C591	C59	0.019480	0.066930	0.628300
C601	C60	0.996590	0.084420	0.575000
H621	H62	0.974000	0.082200	0.594700
H631	H63	0.997500	0.074100	0.523200
C611	C61	0.004930	0.120240	0.567500
H641	H64	0.991100	0.130200	0.526900
H651	H65	0.028000	0.122500	0.551500
C621	C62	0.999670	0.138480	0.643500
H661	H66	0.977100	0.134500	0.661900
H671	H67	0.014900	0.129700	0.682800
C631	C63	0.005000	0.175000	0.635800
H681	H68	0.027700	0.179000	0.618500
H691	H69	0.990100	0.183600	0.595600
C641	C64	0.999200	0.193000	0.709400
H701	H70	0.976000	0.198800	0.713300
H711	H71	0.012500	0.212900	0.710100
H721	H72	0.005300	0.179000	0.753200
Mn51	Mn5	0.960600	0.038070	0.746700
O131	O13	0.952280	0.079450	0.786700
O141	O14	0.885260	0.066980	0.600260
O151	O15	0.963390	0.996330	0.694290
N111	N11	0.926270	0.043640	0.670600
N121	N12	0.921530	0.016110	0.621800
N131	N13	0.926500	0.011730	0.831200
C651	C65	0.928440	0.100230	0.769700
C661	C66	0.926260	0.128600	0.815800
H731	H73	0.941800	0.132200	0.855800
C671	C67	0.901550	0.151290	0.803100
H741	H74	0.900200	0.170100	0.835100
C681	C68	0.878980	0.146940	0.745000
H751	H75	0.862000	0.162400	0.737000
C691	C69	0.881580	0.120050	0.699000
H761	H76	0.866200	0.117200	0.658500
C701	C70	0.906020	0.096320	0.708900
C711	C71	0.905670	0.067720	0.656200
C721	C72	0.941920	0.992880	0.640400
C731	C73	0.939100	0.960150	0.602000
H771	H77	0.961100	0.952800	0.585300
H781	H78	0.925200	0.962200	0.555300
C741	C74	0.924260	0.934640	0.656300
H791	H79	0.926500	0.912700	0.632600
H801	H80	0.936600	0.934600	0.705500
C751	C75	0.888350	0.941190	0.673400
H811	H81	0.876000	0.941500	0.624200
H821	H82	0.886200	0.963000	0.697600
C761	C76	0.873100	0.915450	0.727300
H831	H83	0.875300	0.893500	0.703500
H841	H84	0.885100	0.915300	0.777100
C771	C77	0.836900	0.922800	0.742100
H851	H85	0.834200	0.946300	0.752100
H861	H86	0.829400	0.910400	0.787000
H871	H87	0.824100	0.916600	0.696600
C781	C78	0.935150	0.982720	0.856100
H881	H88	0.956800	0.975400	0.846000
C791	C79	0.914300	0.962400	0.896500
H891	H89	0.921600	0.941600	0.913900
C801	C80	0.882420	0.972800	0.911500
C811	C81	0.874610	0.002950	0.886600
H901	H90	0.853400	0.011300	0.897600
C821	C82	0.896000	0.022190	0.845900
H911	H91	0.889200	0.043100	0.828000
C831	C83	0.859790	0.951100	0.957700
H921	H92	0.837100	0.959000	0.951200
H931	H93	0.860900	0.928600	0.936800
Mn61	Mn6	0.112900	0.970130	0.472750
O161	O16	0.149190	0.991690	0.432880
O171	O17	0.117590	0.048450	0.625460
O181	O18	0.074970	0.953260	0.526020
N141	N14	0.106220	0.005050	0.548300
N151	N15	0.078130	0.000650	0.594600
N161	N16	0.808590	0.894320	0.193100
C841	C84	0.165880	0.015950	0.463300
C851	C85	0.196370	0.022920	0.428900
H941	H94	0.203500	0.010400	0.385900
C861	C86	0.215980	0.047650	0.456900
H951	H95	0.236600	0.051700	0.433600
C871	C87	0.205900	0.066660	0.518500
H961	H96	0.219300	0.083900	0.536900
C881	C88	0.176540	0.060440	0.552600
H971	H97	0.169700	0.073700	0.594700
C891	C89	0.156170	0.035050	0.527200
C901	C90	0.125210	0.029620	0.568100
C911	C91	0.063970	0.973140	0.577800
C921	C92	0.034910	0.962210	0.623500
H981	H98	0.025900	0.981000	0.652500
H991	H99	0.017800	0.954200	0.587700
C931	C93	0.044400	0.933900	0.682300
H1001	H100	0.051800	0.914600	0.652600
H1011	H101	0.063000	0.941300	0.714500
C941	C94	0.014600	0.922900	0.739000
H1021	H102	0.997200	0.912200	0.708200
H1031	H103	0.005000	0.942500	0.764000
C951	C95	0.025200	0.902600	0.792400
H1041	H104	0.033800	0.881900	0.770600
H1051	H105	0.041600	0.912600	0.827300
C961	C96	0.988700	0.898200	0.833800
H1061	H106	0.977700	0.919400	0.836500
H1071	H107	0.975400	0.883100	0.803000
H1081	H108	0.991400	0.889400	0.886100
C971	C97	0.806410	0.889410	0.116700
H1091	H109	0.791600	0.873200	0.098400
C981	C98	0.824360	0.906550	0.063400
H1101	H110	0.822100	0.902100	0.009800
C991	C99	0.845930	0.930610	0.089100
C1001	C100	0.847490	0.936010	0.167300
H1111	H111	0.861600	0.952400	0.187400
C1011	C101	0.828620	0.917730	0.216400
H1121	H112	0.830000	0.922100	0.270300
C1021	C102	0.867000	0.950300	0.034200
H1131	H113	0.867100	0.973100	0.053000
H1141	H114	0.889700	0.942000	0.039200
Mn71	Mn7	0.923540	0.458850	0.681840
O191	O19	0.905020	0.486000	0.756700
O201	O20	0.004500	0.474400	0.821030
O211	O21	0.949420	0.432640	0.611520
N171	N17	0.965970	0.463350	0.730000
N181	N18	0.991800	0.447810	0.689400
C1031	C103	0.918180	0.499120	0.819500
C1041	C104	0.898240	0.519780	0.864900
H1151	H115	0.876600	0.524700	0.848500
C1051	C105	0.909870	0.532680	0.932300
H1161	H116	0.895800	0.546000	0.962600
C1061	C106	0.941150	0.527160	0.957800
H1171	H117	0.948600	0.536100	0.005300
C1071	C107	0.961610	0.508080	0.912200
H1181	H118	0.983400	0.504100	0.929100
C1081	C108	0.951230	0.494560	0.842500
C1091	C109	0.975180	0.476520	0.796000
C1101	C110	0.980520	0.433070	0.628300
C1111	C111	0.003410	0.415580	0.575000
H1191	H119	0.026000	0.417800	0.594700
H1201	H120	0.002500	0.425900	0.523200
C1121	C112	0.995070	0.379760	0.567500
H1211	H121	0.008900	0.369800	0.526900
H1221	H122	0.972000	0.377500	0.551500
C1131	C113	0.000330	0.361520	0.643500
H1231	H123	0.022900	0.365500	0.661900
H1241	H124	0.985100	0.370300	0.682800
C1141	C114	0.995000	0.325000	0.635800
H1251	H125	0.972300	0.321000	0.618500
H1261	H126	0.009900	0.316400	0.595600
C1151	C115	0.000800	0.307000	0.709400
H1271	H127	0.024000	0.301200	0.713300
H1281	H128	0.987500	0.287100	0.710100
H1291	H129	0.994700	0.321000	0.753200
Mn81	Mn8	0.039400	0.461930	0.746700
O221	O22	0.047720	0.420550	0.786700
O231	O23	0.114740	0.433020	0.600260
O241	O24	0.036610	0.503670	0.694290
N191	N19	0.073730	0.456360	0.670600
N201	N20	0.078470	0.483890	0.621800
N211	N21	0.073500	0.488270	0.831200
C1161	C116	0.071560	0.399770	0.769700
C1171	C117	0.073740	0.371400	0.815800
H1301	H130	0.058200	0.367800	0.855800
C1181	C118	0.098450	0.348710	0.803100
H1311	H131	0.099800	0.329900	0.835100
C1191	C119	0.121020	0.353060	0.745000
H1321	H132	0.138000	0.337600	0.737000
C1201	C120	0.118420	0.379950	0.699000
H1331	H133	0.133800	0.382800	0.658500
C1211	C121	0.093980	0.403680	0.708900
C1221	C122	0.094330	0.432280	0.656200
C1231	C123	0.058080	0.507120	0.640400
C1241	C124	0.060900	0.539850	0.602000
H1341	H134	0.038900	0.547200	0.585300
H1351	H135	0.074800	0.537800	0.555300
C1251	C125	0.075740	0.565360	0.656300
H1361	H136	0.073500	0.587300	0.632600
H1371	H137	0.063400	0.565400	0.705500
C1261	C126	0.111650	0.558810	0.673400
H1381	H138	0.124000	0.558500	0.624200
H1391	H139	0.113800	0.537000	0.697600
C1271	C127	0.126900	0.584550	0.727300
H1401	H140	0.124700	0.606500	0.703500
H1411	H141	0.114900	0.584700	0.777100
C1281	C128	0.163100	0.577200	0.742100
H1421	H142	0.165800	0.553700	0.752100
H1431	H143	0.170600	0.589600	0.787000
H1441	H144	0.175900	0.583400	0.696600
C1291	C129	0.064850	0.517280	0.856100
H1451	H145	0.043200	0.524600	0.846000
C1301	C130	0.085700	0.537600	0.896500
H1461	H146	0.078400	0.558400	0.913900
C1311	C131	0.117580	0.527200	0.911500
C1321	C132	0.125390	0.497050	0.886600
H1471	H147	0.146600	0.488700	0.897600
C1331	C133	0.104000	0.477810	0.845900
H1481	H148	0.110800	0.456900	0.828000
C1341	C134	0.140210	0.548900	0.957700
H1491	H149	0.162900	0.541000	0.951200
H1501	H150	0.139100	0.571400	0.936800
Mn91	Mn9	0.887100	0.529870	0.472750
O251	O25	0.850810	0.508310	0.432880
O261	O26	0.882410	0.451550	0.625460
O271	O27	0.925030	0.546740	0.526020
N221	N22	0.893780	0.494950	0.548300
N231	N23	0.921870	0.499350	0.594600
N241	N24	0.191410	0.605680	0.193100
C1351	C135	0.834120	0.484050	0.463300
C1361	C136	0.803630	0.477080	0.428900
H1511	H151	0.796500	0.489600	0.385900
C1371	C137	0.784020	0.452350	0.456900
H1521	H152	0.763400	0.448300	0.433600
C1381	C138	0.794100	0.433340	0.518500
H1531	H153	0.780700	0.416100	0.536900
C1391	C139	0.823460	0.439560	0.552600
H1541	H154	0.830300	0.426300	0.594700
C1401	C140	0.843830	0.464950	0.527200
C1411	C141	0.874790	0.470380	0.568100
C1421	C142	0.936030	0.526860	0.577800
C1431	C143	0.965090	0.537790	0.623500
H1551	H155	0.974100	0.519000	0.652500
H1561	H156	0.982200	0.545800	0.587700
C1441	C144	0.955600	0.566100	0.682300
H1571	H157	0.948200	0.585400	0.652600
H1581	H158	0.937000	0.558700	0.714500
C1451	C145	0.985400	0.577100	0.739000
H1591	H159	0.002800	0.587800	0.708200
H1601	H160	0.995000	0.557500	0.764000
C1461	C146	0.974800	0.597400	0.792400
H1611	H161	0.966200	0.618100	0.770600
H1621	H162	0.958400	0.587400	0.827300
C1471	C147	0.011300	0.601800	0.833800
H1631	H163	0.022300	0.580600	0.836500
H1641	H164	0.024600	0.616900	0.803000
H1651	H165	0.008600	0.610600	0.886100
C1481	C148	0.193590	0.610590	0.116700
H1661	H166	0.208400	0.626800	0.098400
C1491	C149	0.175640	0.593450	0.063400
H1671	H167	0.177900	0.597900	0.009800
C1501	C150	0.154070	0.569390	0.089100
C1511	C151	0.152510	0.563990	0.167300
H1681	H168	0.138400	0.547600	0.187400
C1521	C152	0.171380	0.582270	0.216400
H1691	H169	0.170000	0.577900	0.270300
C1531	C153	0.133000	0.549700	0.034200
H1701	H170	0.132900	0.526900	0.053000
H1711	H171	0.110300	0.558000	0.039200
Mn101	Mn10	0.423540	0.958850	0.181840
O281	O28	0.405020	0.986000	0.256700
O291	O29	0.504500	0.974400	0.321030
O301	O30	0.449420	0.932640	0.111520
N251	N25	0.465970	0.963350	0.230000
N261	N26	0.491800	0.947810	0.189400
C1541	C154	0.418180	0.999120	0.319500
C1551	C155	0.398240	0.019780	0.364900
H1721	H172	0.376600	0.024700	0.348500
C1561	C156	0.409870	0.032680	0.432300
H1731	H173	0.395800	0.046000	0.462600
C1571	C157	0.441150	0.027160	0.457800
H1741	H174	0.448600	0.036100	0.505300
C1581	C158	0.461610	0.008080	0.412200
H1751	H175	0.483400	0.004100	0.429100
C1591	C159	0.451230	0.994560	0.342500
C1601	C160	0.475180	0.976520	0.296000
C1611	C161	0.480520	0.933070	0.128300
C1621	C162	0.503410	0.915580	0.075000
H1761	H176	0.526000	0.917800	0.094700
H1771	H177	0.502500	0.925900	0.023200
C1631	C163	0.495070	0.879760	0.067500
H1781	H178	0.508900	0.869800	0.026900
H1791	H179	0.472000	0.877500	0.051500
C1641	C164	0.500330	0.861520	0.143500
H1801	H180	0.522900	0.865500	0.161900
H1811	H181	0.485100	0.870300	0.182800
C1651	C165	0.495000	0.825000	0.135800
H1821	H182	0.472300	0.821000	0.118500
H1831	H183	0.509900	0.816400	0.095600
C1661	C166	0.500800	0.807000	0.209400
H1841	H184	0.524000	0.801200	0.213300
H1851	H185	0.487500	0.787100	0.210100
H1861	H186	0.494700	0.821000	0.253200
Mn111	Mn11	0.539400	0.961930	0.246700
O311	O31	0.547720	0.920550	0.286700
O321	O32	0.614740	0.933020	0.100260
O331	O33	0.536610	0.003670	0.194290
N271	N27	0.573730	0.956360	0.170600
N281	N28	0.578470	0.983890	0.121800
N291	N29	0.573500	0.988270	0.331200
C1671	C167	0.571560	0.899770	0.269700
C1681	C168	0.573740	0.871400	0.315800
H1871	H187	0.558200	0.867800	0.355800
C1691	C169	0.598450	0.848710	0.303100
H1881	H188	0.599800	0.829900	0.335100
C1701	C170	0.621020	0.853060	0.245000
H1891	H189	0.638000	0.837600	0.237000
C1711	C171	0.618420	0.879950	0.199000
H1901	H190	0.633800	0.882800	0.158500
C1721	C172	0.593980	0.903680	0.208900
C1731	C173	0.594330	0.932280	0.156200
C1741	C174	0.558080	0.007120	0.140400
C1751	C175	0.560900	0.039850	0.102000
H1911	H191	0.538900	0.047200	0.085300
H1921	H192	0.574800	0.037800	0.055300
C1761	C176	0.575740	0.065360	0.156300
H1931	H193	0.573500	0.087300	0.132600
H1941	H194	0.563400	0.065400	0.205500
C1771	C177	0.611650	0.058810	0.173400
H1951	H195	0.624000	0.058500	0.124200
H1961	H196	0.613800	0.037000	0.197600
C1781	C178	0.626900	0.084550	0.227300
H1971	H197	0.624700	0.106500	0.203500
H1981	H198	0.614900	0.084700	0.277100
C1791	C179	0.663100	0.077200	0.242100
H1991	H199	0.665800	0.053700	0.252100
H2001	H200	0.670600	0.089600	0.287000
H2011	H201	0.675900	0.083400	0.196600
C1801	C180	0.564850	0.017280	0.356100
H2021	H202	0.543200	0.024600	0.346000
C1811	C181	0.585700	0.037600	0.396500
H2031	H203	0.578400	0.058400	0.413900
C1821	C182	0.617580	0.027200	0.411500
C1831	C183	0.625390	0.997050	0.386600
H2041	H204	0.646600	0.988700	0.397600
C1841	C184	0.604000	0.977810	0.345900
H2051	H205	0.610800	0.956900	0.328000
C1851	C185	0.640210	0.048900	0.457700
H2061	H206	0.662900	0.041000	0.451200
H2071	H207	0.639100	0.071400	0.436800
Mn121	Mn12	0.387100	0.029870	0.972750
O341	O34	0.350810	0.008310	0.932880
O351	O35	0.382410	0.951550	0.125460
O361	O36	0.425030	0.046740	0.026020
N301	N30	0.393780	0.994950	0.048300
N311	N31	0.421870	0.999350	0.094600
N321	N32	0.691410	0.105680	0.693100
C1861	C186	0.334120	0.984050	0.963300
C1871	C187	0.303630	0.977080	0.928900
H2081	H208	0.296500	0.989600	0.885900
C1881	C188	0.284020	0.952350	0.956900
H2091	H209	0.263400	0.948300	0.933600
C1891	C189	0.294100	0.933340	0.018500
H2101	H210	0.280700	0.916100	0.036900
C1901	C190	0.323460	0.939560	0.052600
H2111	H211	0.330300	0.926300	0.094700
C1911	C191	0.343830	0.964950	0.027200
C1921	C192	0.374790	0.970380	0.068100
C1931	C193	0.436030	0.026860	0.077800
C1941	C194	0.465090	0.037790	0.123500
H2121	H212	0.474100	0.019000	0.152500
H2131	H213	0.482200	0.045800	0.087700
C1951	C195	0.455600	0.066100	0.182300
H2141	H214	0.448200	0.085400	0.152600
H2151	H215	0.437000	0.058700	0.214500
C1961	C196	0.485400	0.077100	0.239000
H2161	H216	0.502800	0.087800	0.208200
H2171	H217	0.495000	0.057500	0.264000
C1971	C197	0.474800	0.097400	0.292400
H2181	H218	0.466200	0.118100	0.270600
H2191	H219	0.458400	0.087400	0.327300
C1981	C198	0.511300	0.101800	0.333800
H2201	H220	0.522300	0.080600	0.336500
H2211	H221	0.524600	0.116900	0.303000
H2221	H222	0.508600	0.110600	0.386100
C1991	C199	0.693590	0.110590	0.616700
H2231	H223	0.708400	0.126800	0.598400
C2001	C200	0.675640	0.093450	0.563400
H2241	H224	0.677900	0.097900	0.509800
C2011	C201	0.654070	0.069390	0.589100
C2021	C202	0.652510	0.063990	0.667300
H2251	H225	0.638400	0.047600	0.687400
C2031	C203	0.671380	0.082270	0.716400
H2261	H226	0.670000	0.077900	0.770300
C2041	C204	0.633000	0.049700	0.534200
H2271	H227	0.632900	0.026900	0.553000
H2281	H228	0.610300	0.058000	0.539200
Mn131	Mn13	0.208850	0.826460	0.431840
O371	O37	0.236000	0.844980	0.506700
O381	O38	0.224400	0.745500	0.571030
O391	O39	0.182640	0.800580	0.361520
N331	N33	0.213350	0.784030	0.480000
N341	N34	0.197810	0.758200	0.439400
C2051	C205	0.249120	0.831820	0.569500
C2061	C206	0.269780	0.851760	0.614900
H2291	H229	0.274700	0.873400	0.598500
C2071	C207	0.282680	0.840130	0.682300
H2301	H230	0.296000	0.854200	0.712600
C2081	C208	0.277160	0.808850	0.707800
H2311	H231	0.286100	0.801400	0.755300
C2091	C209	0.258080	0.788390	0.662200
H2321	H232	0.254100	0.766600	0.679100
C2101	C210	0.244560	0.798770	0.592500
C2111	C211	0.226520	0.774820	0.546000
C2121	C212	0.183070	0.769480	0.378300
C2131	C213	0.165580	0.746590	0.325000
H2331	H233	0.167800	0.724000	0.344700
H2341	H234	0.175900	0.747500	0.273200
C2141	C214	0.129760	0.754930	0.317500
H2351	H235	0.119800	0.741100	0.276900
H2361	H236	0.127500	0.778000	0.301500
C2151	C215	0.111520	0.749670	0.393500
H2371	H237	0.115500	0.727100	0.411900
H2381	H238	0.120300	0.764900	0.432800
C2161	C216	0.075000	0.755000	0.385800
H2391	H239	0.071000	0.777700	0.368500
H2401	H240	0.066400	0.740100	0.345600
C2171	C217	0.057000	0.749200	0.459400
H2411	H241	0.051200	0.726000	0.463300
H2421	H242	0.037100	0.762500	0.460100
H2431	H243	0.071000	0.755300	0.503200
Mn141	Mn14	0.211930	0.710600	0.496700
O401	O40	0.170550	0.702280	0.536700
O411	O41	0.183020	0.635260	0.350260
O421	O42	0.253670	0.713390	0.444290
N351	N35	0.206360	0.676270	0.420600
N361	N36	0.233890	0.671530	0.371800
N371	N37	0.238270	0.676500	0.581200
C2181	C218	0.149770	0.678440	0.519700
C2191	C219	0.121400	0.676260	0.565800
H2441	H244	0.117800	0.691800	0.605800
C2201	C220	0.098710	0.651550	0.553100
H2451	H245	0.079900	0.650200	0.585100
C2211	C221	0.103060	0.628980	0.495000
H2461	H246	0.087600	0.612000	0.487000
C2221	C222	0.129950	0.631580	0.449000
H2471	H247	0.132800	0.616200	0.408500
C2231	C223	0.153680	0.656020	0.458900
C2241	C224	0.182280	0.655670	0.406200
C2251	C225	0.257120	0.691920	0.390400
C2261	C226	0.289850	0.689100	0.352000
H2481	H248	0.297200	0.711100	0.335300
H2491	H249	0.287800	0.675200	0.305300
C2271	C227	0.315360	0.674260	0.406300
H2501	H250	0.337300	0.676500	0.382600
H2511	H251	0.315400	0.686600	0.455500
C2281	C228	0.308810	0.638350	0.423400
H2521	H252	0.308500	0.626000	0.374200
H2531	H253	0.287000	0.636200	0.447600
C2291	C229	0.334550	0.623100	0.477300
H2541	H254	0.356500	0.625300	0.453500
H2551	H255	0.334700	0.635100	0.527100
C2301	C230	0.327200	0.586900	0.492100
H2561	H256	0.303700	0.584200	0.502100
H2571	H257	0.339600	0.579400	0.537000
H2581	H258	0.333400	0.574100	0.446600
C2311	C231	0.267280	0.685150	0.606100
H2591	H259	0.274600	0.706800	0.596000
C2321	C232	0.287600	0.664300	0.646500
H2601	H260	0.308400	0.671600	0.663900
C2331	C233	0.277200	0.632420	0.661500
C2341	C234	0.247050	0.624610	0.636600
H2611	H261	0.238700	0.603400	0.647600
C2351	C235	0.227810	0.646000	0.595900
H2621	H262	0.206900	0.639200	0.578000
C2361	C236	0.298900	0.609790	0.707700
H2631	H263	0.291000	0.587100	0.701200
H2641	H264	0.321400	0.610900	0.686800
Mn151	Mn15	0.279870	0.862900	0.222750
O431	O43	0.258310	0.899190	0.182880
O441	O44	0.201550	0.867590	0.375460
O451	O45	0.296740	0.824970	0.276020
N381	N38	0.244950	0.856220	0.298300
N391	N39	0.249350	0.828130	0.344600
N401	N40	0.355680	0.558590	0.943100
C2371	C237	0.234050	0.915880	0.213300
C2381	C238	0.227080	0.946370	0.178900
H2651	H265	0.239600	0.953500	0.135900
C2391	C239	0.202350	0.965980	0.206900
H2661	H266	0.198300	0.986600	0.183600
C2401	C240	0.183340	0.955900	0.268500
H2671	H267	0.166100	0.969300	0.286900
C2411	C241	0.189560	0.926540	0.302600
H2681	H268	0.176300	0.919700	0.344700
C2421	C242	0.214950	0.906170	0.277200
C2431	C243	0.220380	0.875210	0.318100
C2441	C244	0.276860	0.813970	0.327800
C2451	C245	0.287790	0.784910	0.373500
H2691	H269	0.269000	0.775900	0.402500
H2701	H270	0.295800	0.767800	0.337700
C2461	C246	0.316100	0.794400	0.432300
H2711	H271	0.335400	0.801800	0.402600
H2721	H272	0.308700	0.813000	0.464500
C2471	C247	0.327100	0.764600	0.489000
H2731	H273	0.337800	0.747200	0.458200
H2741	H274	0.307500	0.755000	0.514000
C2481	C248	0.347400	0.775200	0.542400
H2751	H275	0.368100	0.783800	0.520600
H2761	H276	0.337400	0.791600	0.577300
C2491	C249	0.351800	0.738700	0.583800
H2771	H277	0.330600	0.727700	0.586500
H2781	H278	0.366900	0.725400	0.553000
H2791	H279	0.360600	0.741400	0.636100
C2501	C250	0.360590	0.556410	0.866700
H2801	H280	0.376800	0.541600	0.848400
C2511	C251	0.343450	0.574360	0.813400
H2811	H281	0.347900	0.572100	0.759800
C2521	C252	0.319390	0.595930	0.839100
C2531	C253	0.313990	0.597490	0.917300
H2821	H282	0.297600	0.611600	0.937400
C2541	C254	0.332270	0.578620	0.966400
H2831	H283	0.327900	0.580000	0.020300
C2551	C255	0.299700	0.617000	0.784200
H2841	H284	0.276900	0.617100	0.803000
H2851	H285	0.308000	0.639700	0.789200
Mn161	Mn16	0.708850	0.326460	0.931840
O461	O46	0.736000	0.344980	0.006700
O471	O47	0.724400	0.245500	0.071030
O481	O48	0.682640	0.300580	0.861520
N411	N41	0.713350	0.284030	0.980000
N421	N42	0.697810	0.258200	0.939400
C2561	C256	0.749120	0.331820	0.069500
C2571	C257	0.769780	0.351760	0.114900
H2861	H286	0.774700	0.373400	0.098500
C2581	C258	0.782680	0.340130	0.182300
H2871	H287	0.796000	0.354200	0.212600
C2591	C259	0.777160	0.308850	0.207800
H2881	H288	0.786100	0.301400	0.255300
C2601	C260	0.758080	0.288390	0.162200
H2891	H289	0.754100	0.266600	0.179100
C2611	C261	0.744560	0.298770	0.092500
C2621	C262	0.726520	0.274820	0.046000
C2631	C263	0.683070	0.269480	0.878300
C2641	C264	0.665580	0.246590	0.825000
H2901	H290	0.667800	0.224000	0.844700
H2911	H291	0.675900	0.247500	0.773200
C2651	C265	0.629760	0.254930	0.817500
H2921	H292	0.619800	0.241100	0.776900
H2931	H293	0.627500	0.278000	0.801500
C2661	C266	0.611520	0.249670	0.893500
H2941	H294	0.615500	0.227100	0.911900
H2951	H295	0.620300	0.264900	0.932800
C2671	C267	0.575000	0.255000	0.885800
H2961	H296	0.571000	0.277700	0.868500
H2971	H297	0.566400	0.240100	0.845600
C2681	C268	0.557000	0.249200	0.959400
H2981	H298	0.551200	0.226000	0.963300
H2991	H299	0.537100	0.262500	0.960100
H3001	H300	0.571000	0.255300	0.003200
Mn171	Mn17	0.711930	0.210600	0.996700
O491	O49	0.670550	0.202280	0.036700
O501	O50	0.683020	0.135260	0.850260
O511	O51	0.753670	0.213390	0.944290
N431	N43	0.706360	0.176270	0.920600
N441	N44	0.733890	0.171530	0.871800
N451	N45	0.738270	0.176500	0.081200
C2691	C269	0.649770	0.178440	0.019700
C2701	C270	0.621400	0.176260	0.065800
H3011	H301	0.617800	0.191800	0.105800
C2711	C271	0.598710	0.151550	0.053100
H3021	H302	0.579900	0.150200	0.085100
C2721	C272	0.603060	0.128980	0.995000
H3031	H303	0.587600	0.112000	0.987000
C2731	C273	0.629950	0.131580	0.949000
H3041	H304	0.632800	0.116200	0.908500
C2741	C274	0.653680	0.156020	0.958900
C2751	C275	0.682280	0.155670	0.906200
C2761	C276	0.757120	0.191920	0.890400
C2771	C277	0.789850	0.189100	0.852000
H3051	H305	0.797200	0.211100	0.835300
H3061	H306	0.787800	0.175200	0.805300
C2781	C278	0.815360	0.174260	0.906300
H3071	H307	0.837300	0.176500	0.882600
H3081	H308	0.815400	0.186600	0.955500
C2791	C279	0.808810	0.138350	0.923400
H3091	H309	0.808500	0.126000	0.874200
H3101	H310	0.787000	0.136200	0.947600
C2801	C280	0.834550	0.123100	0.977300
H3111	H311	0.856500	0.125300	0.953500
H3121	H312	0.834700	0.135100	0.027100
C2811	C281	0.827200	0.086900	0.992100
H3131	H313	0.803700	0.084200	0.002100
H3141	H314	0.839600	0.079400	0.037000
H3151	H315	0.833400	0.074100	0.946600
C2821	C282	0.767280	0.185150	0.106100
H3161	H316	0.774600	0.206800	0.096000
C2831	C283	0.787600	0.164300	0.146500
H3171	H317	0.808400	0.171600	0.163900
C2841	C284	0.777200	0.132420	0.161500
C2851	C285	0.747050	0.124610	0.136600
H3181	H318	0.738700	0.103400	0.147600
C2861	C286	0.727810	0.146000	0.095900
H3191	H319	0.706900	0.139200	0.078000
C2871	C287	0.798900	0.109790	0.207700
H3201	H320	0.791000	0.087100	0.201200
H3211	H321	0.821400	0.110900	0.186800
Mn181	Mn18	0.779870	0.362900	0.722750
O521	O52	0.758310	0.399190	0.682880
O531	O53	0.701550	0.367590	0.875460
O541	O54	0.796740	0.324970	0.776020
N461	N46	0.744950	0.356220	0.798300
N471	N47	0.749350	0.328130	0.844600
N481	N48	0.855680	0.058590	0.443100
C2881	C288	0.734050	0.415880	0.713300
C2891	C289	0.727080	0.446370	0.678900
H3221	H322	0.739600	0.453500	0.635900
C2901	C290	0.702350	0.465980	0.706900
H3231	H323	0.698300	0.486600	0.683600
C2911	C291	0.683340	0.455900	0.768500
H3241	H324	0.666100	0.469300	0.786900
C2921	C292	0.689560	0.426540	0.802600
H3251	H325	0.676300	0.419700	0.844700
C2931	C293	0.714950	0.406170	0.777200
C2941	C294	0.720380	0.375210	0.818100
C2951	C295	0.776860	0.313970	0.827800
C2961	C296	0.787790	0.284910	0.873500
H3261	H326	0.769000	0.275900	0.902500
H3271	H327	0.795800	0.267800	0.837700
C2971	C297	0.816100	0.294400	0.932300
H3281	H328	0.835400	0.301800	0.902600
H3291	H329	0.808700	0.313000	0.964500
C2981	C298	0.827100	0.264600	0.989000
H3301	H330	0.837800	0.247200	0.958200
H3311	H331	0.807500	0.255000	0.014000
C2991	C299	0.847400	0.275200	0.042400
H3321	H332	0.868100	0.283800	0.020600
H3331	H333	0.837400	0.291600	0.077300
C3001	C300	0.851800	0.238700	0.083800
H3341	H334	0.830600	0.227700	0.086500
H3351	H335	0.866900	0.225400	0.053000
H3361	H336	0.860600	0.241400	0.136100
C3011	C301	0.860590	0.056410	0.366700
H3371	H337	0.876800	0.041600	0.348400
C3021	C302	0.843450	0.074360	0.313400
H3381	H338	0.847900	0.072100	0.259800
C3031	C303	0.819390	0.095930	0.339100
C3041	C304	0.813990	0.097490	0.417300
H3391	H339	0.797600	0.111600	0.437400
C3051	C305	0.832270	0.078620	0.466400
H3401	H340	0.827900	0.080000	0.520300
C3061	C306	0.799700	0.117000	0.284200
H3411	H341	0.776900	0.117100	0.303000
H3421	H342	0.808000	0.139700	0.289200
Mn191	Mn19	0.291150	0.173540	0.931840
O551	O55	0.264000	0.155020	0.006700
O561	O56	0.275600	0.254500	0.071030
O571	O57	0.317360	0.199420	0.861520
N491	N49	0.286650	0.215970	0.980000
N501	N50	0.302190	0.241800	0.939400
C3071	C307	0.250880	0.168180	0.069500
C3081	C308	0.230220	0.148240	0.114900
H3431	H343	0.225300	0.126600	0.098500
C3091	C309	0.217320	0.159870	0.182300
H3441	H344	0.204000	0.145800	0.212600
C3101	C310	0.222840	0.191150	0.207800
H3451	H345	0.213900	0.198600	0.255300
C3111	C311	0.241920	0.211610	0.162200
H3461	H346	0.245900	0.233400	0.179100
C3121	C312	0.255440	0.201230	0.092500
C3131	C313	0.273480	0.225180	0.046000
C3141	C314	0.316930	0.230520	0.878300
C3151	C315	0.334420	0.253410	0.825000
H3471	H347	0.332200	0.276000	0.844700
H3481	H348	0.324100	0.252500	0.773200
C3161	C316	0.370240	0.245070	0.817500
H3491	H349	0.380200	0.258900	0.776900
H3501	H350	0.372500	0.222000	0.801500
C3171	C317	0.388480	0.250330	0.893500
H3511	H351	0.384500	0.272900	0.911900
H3521	H352	0.379700	0.235100	0.932800
C3181	C318	0.425000	0.245000	0.885800
H3531	H353	0.429000	0.222300	0.868500
H3541	H354	0.433600	0.259900	0.845600
C3191	C319	0.443000	0.250800	0.959400
H3551	H355	0.448800	0.274000	0.963300
H3561	H356	0.462900	0.237500	0.960100
H3571	H357	0.429000	0.244700	0.003200
Mn201	Mn20	0.288070	0.289400	0.996700
O581	O58	0.329450	0.297720	0.036700
O591	O59	0.316980	0.364740	0.850260
O601	O60	0.246330	0.286610	0.944290
N511	N51	0.293640	0.323730	0.920600
N521	N52	0.266110	0.328470	0.871800
N531	N53	0.261730	0.323500	0.081200
C3201	C320	0.350230	0.321560	0.019700
C3211	C321	0.378600	0.323740	0.065800
H3581	H358	0.382200	0.308200	0.105800
C3221	C322	0.401290	0.348450	0.053100
H3591	H359	0.420100	0.349800	0.085100
C3231	C323	0.396940	0.371020	0.995000
H3601	H360	0.412400	0.388000	0.987000
C3241	C324	0.370050	0.368420	0.949000
H3611	H361	0.367200	0.383800	0.908500
C3251	C325	0.346320	0.343980	0.958900
C3261	C326	0.317720	0.344330	0.906200
C3271	C327	0.242880	0.308080	0.890400
C3281	C328	0.210150	0.310900	0.852000
H3621	H362	0.202800	0.288900	0.835300
H3631	H363	0.212200	0.324800	0.805300
C3291	C329	0.184640	0.325740	0.906300
H3641	H364	0.162700	0.323500	0.882600
H3651	H365	0.184600	0.313400	0.955500
C3301	C330	0.191190	0.361650	0.923400
H3661	H366	0.191500	0.374000	0.874200
H3671	H367	0.213000	0.363800	0.947600
C3311	C331	0.165450	0.376900	0.977300
H3681	H368	0.143500	0.374700	0.953500
H3691	H369	0.165300	0.364900	0.027100
C3321	C332	0.172800	0.413100	0.992100
H3701	H370	0.196300	0.415800	0.002100
H3711	H371	0.160400	0.420600	0.037000
H3721	H372	0.166600	0.425900	0.946600
C3331	C333	0.232720	0.314850	0.106100
H3731	H373	0.225400	0.293200	0.096000
C3341	C334	0.212400	0.335700	0.146500
H3741	H374	0.191600	0.328400	0.163900
C3351	C335	0.222800	0.367580	0.161500
C3361	C336	0.252950	0.375390	0.136600
H3751	H375	0.261300	0.396600	0.147600
C3371	C337	0.272190	0.354000	0.095900
H3761	H376	0.293100	0.360800	0.078000
C3381	C338	0.201100	0.390210	0.207700
H3771	H377	0.209000	0.412900	0.201200
H3781	H378	0.178600	0.389100	0.186800
Mn211	Mn21	0.220130	0.137100	0.722750
O611	O61	0.241690	0.100810	0.682880
O621	O62	0.298450	0.132410	0.875460
O631	O63	0.203260	0.175030	0.776020
N541	N54	0.255050	0.143780	0.798300
N551	N55	0.250650	0.171870	0.844600
N561	N56	0.144320	0.441410	0.443100
C3391	C339	0.265950	0.084120	0.713300
C3401	C340	0.272920	0.053630	0.678900
H3791	H379	0.260400	0.046500	0.635900
C3411	C341	0.297650	0.034020	0.706900
H3801	H380	0.301700	0.013400	0.683600
C3421	C342	0.316660	0.044100	0.768500
H3811	H381	0.333900	0.030700	0.786900
C3431	C343	0.310440	0.073460	0.802600
H3821	H382	0.323700	0.080300	0.844700
C3441	C344	0.285050	0.093830	0.777200
C3451	C345	0.279620	0.124790	0.818100
C3461	C346	0.223140	0.186030	0.827800
C3471	C347	0.212210	0.215090	0.873500
H3831	H383	0.231000	0.224100	0.902500
H3841	H384	0.204200	0.232200	0.837700
C3481	C348	0.183900	0.205600	0.932300
H3851	H385	0.164600	0.198200	0.902600
H3861	H386	0.191300	0.187000	0.964500
C3491	C349	0.172900	0.235400	0.989000
H3871	H387	0.162200	0.252800	0.958200
H3881	H388	0.192500	0.245000	0.014000
C3501	C350	0.152600	0.224800	0.042400
H3891	H389	0.131900	0.216200	0.020600
H3901	H390	0.162600	0.208400	0.077300
C3511	C351	0.148200	0.261300	0.083800
H3911	H391	0.169400	0.272300	0.086500
H3921	H392	0.133100	0.274600	0.053000
H3931	H393	0.139400	0.258600	0.136100
C3521	C352	0.139410	0.443590	0.366700
H3941	H394	0.123200	0.458400	0.348400
C3531	C353	0.156550	0.425640	0.313400
H3951	H395	0.152100	0.427900	0.259800
C3541	C354	0.180610	0.404070	0.339100
C3551	C355	0.186010	0.402510	0.417300
H3961	H396	0.202400	0.388400	0.437400
C3561	C356	0.167730	0.421380	0.466400
H3971	H397	0.172100	0.420000	0.520300
C3571	C357	0.200300	0.383000	0.284200
H3981	H398	0.223100	0.382900	0.303000
H3991	H399	0.192000	0.360300	0.289200
Mn221	Mn22	0.791150	0.673540	0.431840
O641	O64	0.764000	0.655020	0.506700
O651	O65	0.775600	0.754500	0.571030
O661	O66	0.817360	0.699420	0.361520
N571	N57	0.786650	0.715970	0.480000
N581	N58	0.802190	0.741800	0.439400
C3581	C358	0.750880	0.668180	0.569500
C3591	C359	0.730220	0.648240	0.614900
H4001	H400	0.725300	0.626600	0.598500
C3601	C360	0.717320	0.659870	0.682300
H4011	H401	0.704000	0.645800	0.712600
C3611	C361	0.722840	0.691150	0.707800
H4021	H402	0.713900	0.698600	0.755300
C3621	C362	0.741920	0.711610	0.662200
H4031	H403	0.745900	0.733400	0.679100
C3631	C363	0.755440	0.701230	0.592500
C3641	C364	0.773480	0.725180	0.546000
C3651	C365	0.816930	0.730520	0.378300
C3661	C366	0.834420	0.753410	0.325000
H4041	H404	0.832200	0.776000	0.344700
H4051	H405	0.824100	0.752500	0.273200
C3671	C367	0.870240	0.745070	0.317500
H4061	H406	0.880200	0.758900	0.276900
H4071	H407	0.872500	0.722000	0.301500
C3681	C368	0.888480	0.750330	0.393500
H4081	H408	0.884500	0.772900	0.411900
H4091	H409	0.879700	0.735100	0.432800
C3691	C369	0.925000	0.745000	0.385800
H4101	H410	0.929000	0.722300	0.368500
H4111	H411	0.933600	0.759900	0.345600
C3701	C370	0.943000	0.750800	0.459400
H4121	H412	0.948800	0.774000	0.463300
H4131	H413	0.962900	0.737500	0.460100
H4141	H414	0.929000	0.744700	0.503200
Mn231	Mn23	0.788070	0.789400	0.496700
O671	O67	0.829450	0.797720	0.536700
O681	O68	0.816980	0.864740	0.350260
O691	O69	0.746330	0.786610	0.444290
N591	N59	0.793640	0.823730	0.420600
N601	N60	0.766110	0.828470	0.371800
N611	N61	0.761730	0.823500	0.581200
C3711	C371	0.850230	0.821560	0.519700
C3721	C372	0.878600	0.823740	0.565800
H4151	H415	0.882200	0.808200	0.605800
C3731	C373	0.901290	0.848450	0.553100
H4161	H416	0.920100	0.849800	0.585100
C3741	C374	0.896940	0.871020	0.495000
H4171	H417	0.912400	0.888000	0.487000
C3751	C375	0.870050	0.868420	0.449000
H4181	H418	0.867200	0.883800	0.408500
C3761	C376	0.846320	0.843980	0.458900
C3771	C377	0.817720	0.844330	0.406200
C3781	C378	0.742880	0.808080	0.390400
C3791	C379	0.710150	0.810900	0.352000
H4191	H419	0.702800	0.788900	0.335300
H4201	H420	0.712200	0.824800	0.305300
C3801	C380	0.684640	0.825740	0.406300
H4211	H421	0.662700	0.823500	0.382600
H4221	H422	0.684600	0.813400	0.455500
C3811	C381	0.691190	0.861650	0.423400
H4231	H423	0.691500	0.874000	0.374200
H4241	H424	0.713000	0.863800	0.447600
C3821	C382	0.665450	0.876900	0.477300
H4251	H425	0.643500	0.874700	0.453500
H4261	H426	0.665300	0.864900	0.527100
C3831	C383	0.672800	0.913100	0.492100
H4271	H427	0.696300	0.915800	0.502100
H4281	H428	0.660400	0.920600	0.537000
H4291	H429	0.666600	0.925900	0.446600
C3841	C384	0.732720	0.814850	0.606100
H4301	H430	0.725400	0.793200	0.596000
C3851	C385	0.712400	0.835700	0.646500
H4311	H431	0.691600	0.828400	0.663900
C3861	C386	0.722800	0.867580	0.661500
C3871	C387	0.752950	0.875390	0.636600
H4321	H432	0.761300	0.896600	0.647600
C3881	C388	0.772190	0.854000	0.595900
H4331	H433	0.793100	0.860800	0.578000
C3891	C389	0.701100	0.890210	0.707700
H4341	H434	0.709000	0.912900	0.701200
H4351	H435	0.678600	0.889100	0.686800
Mn241	Mn24	0.720130	0.637100	0.222750
O701	O70	0.741690	0.600810	0.182880
O711	O71	0.798450	0.632410	0.375460
O721	O72	0.703260	0.675030	0.276020
N621	N62	0.755050	0.643780	0.298300
N631	N63	0.750650	0.671870	0.344600
N641	N64	0.644320	0.941410	0.943100
C3901	C390	0.765950	0.584120	0.213300
C3911	C391	0.772920	0.553630	0.178900
H4361	H436	0.760400	0.546500	0.135900
C3921	C392	0.797650	0.534020	0.206900
H4371	H437	0.801700	0.513400	0.183600
C3931	C393	0.816660	0.544100	0.268500
H4381	H438	0.833900	0.530700	0.286900
C3941	C394	0.810440	0.573460	0.302600
H4391	H439	0.823700	0.580300	0.344700
C3951	C395	0.785050	0.593830	0.277200
C3961	C396	0.779620	0.624790	0.318100
C3971	C397	0.723140	0.686030	0.327800
C3981	C398	0.712210	0.715090	0.373500
H4401	H440	0.731000	0.724100	0.402500
H4411	H441	0.704200	0.732200	0.337700
C3991	C399	0.683900	0.705600	0.432300
H4421	H442	0.664600	0.698200	0.402600
H4431	H443	0.691300	0.687000	0.464500
C4001	C400	0.672900	0.735400	0.489000
H4441	H444	0.662200	0.752800	0.458200
H4451	H445	0.692500	0.745000	0.514000
C4011	C401	0.652600	0.724800	0.542400
H4461	H446	0.631900	0.716200	0.520600
H4471	H447	0.662600	0.708400	0.577300
C4021	C402	0.648200	0.761300	0.583800
H4481	H448	0.669400	0.772300	0.586500
H4491	H449	0.633100	0.774600	0.553000
H4501	H450	0.639400	0.758600	0.636100
C4031	C403	0.639410	0.943590	0.866700
H4511	H451	0.623200	0.958400	0.848400
C4041	C404	0.656550	0.925640	0.813400
H4521	H452	0.652100	0.927900	0.759800
C4051	C405	0.680610	0.904070	0.839100
C4061	C406	0.686010	0.902510	0.917300
H4531	H453	0.702400	0.888400	0.937400
C4071	C407	0.667730	0.921380	0.966400
H4541	H454	0.672100	0.920000	0.020300
C4081	C408	0.700300	0.883000	0.784200
H4551	H455	0.723100	0.882900	0.803000
H4561	H456	0.692000	0.860300	0.789200
Mn251	Mn25	0.423540	0.458850	0.818160
O731	O73	0.405020	0.486000	0.743300
O741	O74	0.504500	0.474400	0.678970
O751	O75	0.449420	0.432640	0.888480
N651	N65	0.465970	0.463350	0.770000
N661	N66	0.491800	0.447810	0.810600
C4091	C409	0.418180	0.499120	0.680500
C4101	C410	0.398240	0.519780	0.635100
H4571	H457	0.376600	0.524700	0.651500
C4111	C411	0.409870	0.532680	0.567700
H4581	H458	0.395800	0.546000	0.537400
C4121	C412	0.441150	0.527160	0.542200
H4591	H459	0.448600	0.536100	0.494700
C4131	C413	0.461610	0.508080	0.587800
H4601	H460	0.483400	0.504100	0.570900
C4141	C414	0.451230	0.494560	0.657500
C4151	C415	0.475180	0.476520	0.704000
C4161	C416	0.480520	0.433070	0.871700
C4171	C417	0.503410	0.415580	0.925000
H4611	H461	0.526000	0.417800	0.905300
H4621	H462	0.502500	0.425900	0.976800
C4181	C418	0.495070	0.379760	0.932500
H4631	H463	0.508900	0.369800	0.973100
H4641	H464	0.472000	0.377500	0.948500
C4191	C419	0.500330	0.361520	0.856500
H4651	H465	0.522900	0.365500	0.838100
H4661	H466	0.485100	0.370300	0.817200
C4201	C420	0.495000	0.325000	0.864200
H4671	H467	0.472300	0.321000	0.881500
H4681	H468	0.509900	0.316400	0.904400
C4211	C421	0.500800	0.307000	0.790600
H4691	H469	0.524000	0.301200	0.786700
H4701	H470	0.487500	0.287100	0.789900
H4711	H471	0.494700	0.321000	0.746800
Mn261	Mn26	0.539400	0.461930	0.753300
O761	O76	0.547720	0.420550	0.713300
O771	O77	0.614740	0.433020	0.899740
O781	O78	0.536610	0.503670	0.805710
N671	N67	0.573730	0.456360	0.829400
N681	N68	0.578470	0.483890	0.878200
N691	N69	0.573500	0.488270	0.668800
C4221	C422	0.571560	0.399770	0.730300
C4231	C423	0.573740	0.371400	0.684200
H4721	H472	0.558200	0.367800	0.644200
C4241	C424	0.598450	0.348710	0.696900
H4731	H473	0.599800	0.329900	0.664900
C4251	C425	0.621020	0.353060	0.755000
H4741	H474	0.638000	0.337600	0.763000
C4261	C426	0.618420	0.379950	0.801000
H4751	H475	0.633800	0.382800	0.841500
C4271	C427	0.593980	0.403680	0.791100
C4281	C428	0.594330	0.432280	0.843800
C4291	C429	0.558080	0.507120	0.859600
C4301	C430	0.560900	0.539850	0.898000
H4761	H476	0.538900	0.547200	0.914700
H4771	H477	0.574800	0.537800	0.944700
C4311	C431	0.575740	0.565360	0.843700
H4781	H478	0.573500	0.587300	0.867400
H4791	H479	0.563400	0.565400	0.794500
C4321	C432	0.611650	0.558810	0.826600
H4801	H480	0.624000	0.558500	0.875800
H4811	H481	0.613800	0.537000	0.802400
C4331	C433	0.626900	0.584550	0.772700
H4821	H482	0.624700	0.606500	0.796500
H4831	H483	0.614900	0.584700	0.722900
C4341	C434	0.663100	0.577200	0.757900
H4841	H484	0.665800	0.553700	0.747900
H4851	H485	0.670600	0.589600	0.713000
H4861	H486	0.675900	0.583400	0.803400
C4351	C435	0.564850	0.517280	0.643900
H4871	H487	0.543200	0.524600	0.654000
C4361	C436	0.585700	0.537600	0.603500
H4881	H488	0.578400	0.558400	0.586100
C4371	C437	0.617580	0.527200	0.588500
C4381	C438	0.625390	0.497050	0.613400
H4891	H489	0.646600	0.488700	0.602400
C4391	C439	0.604000	0.477810	0.654100
H4901	H490	0.610800	0.456900	0.672000
C4401	C440	0.640210	0.548900	0.542300
H4911	H491	0.662900	0.541000	0.548800
H4921	H492	0.639100	0.571400	0.563200
Mn271	Mn27	0.387100	0.529870	0.027250
O791	O79	0.350810	0.508310	0.067120
O801	O80	0.382410	0.451550	0.874540
O811	O81	0.425030	0.546740	0.973980
N701	N70	0.393780	0.494950	0.951700
N711	N71	0.421870	0.499350	0.905400
N721	N72	0.691410	0.605680	0.306900
C4411	C441	0.334120	0.484050	0.036700
C4421	C442	0.303630	0.477080	0.071100
H4931	H493	0.296500	0.489600	0.114100
C4431	C443	0.284020	0.452350	0.043100
H4941	H494	0.263400	0.448300	0.066400
C4441	C444	0.294100	0.433340	0.981500
H4951	H495	0.280700	0.416100	0.963100
C4451	C445	0.323460	0.439560	0.947400
H4961	H496	0.330300	0.426300	0.905300
C4461	C446	0.343830	0.464950	0.972800
C4471	C447	0.374790	0.470380	0.931900
C4481	C448	0.436030	0.526860	0.922200
C4491	C449	0.465090	0.537790	0.876500
H4971	H497	0.474100	0.519000	0.847500
H4981	H498	0.482200	0.545800	0.912300
C4501	C450	0.455600	0.566100	0.817700
H4991	H499	0.448200	0.585400	0.847400
H5001	H500	0.437000	0.558700	0.785500
C4511	C451	0.485400	0.577100	0.761000
H5011	H501	0.502800	0.587800	0.791800
H5021	H502	0.495000	0.557500	0.736000
C4521	C452	0.474800	0.597400	0.707600
H5031	H503	0.466200	0.618100	0.729400
H5041	H504	0.458400	0.587400	0.672700
C4531	C453	0.511300	0.601800	0.666200
H5051	H505	0.522300	0.580600	0.663500
H5061	H506	0.524600	0.616900	0.697000
H5071	H507	0.508600	0.610600	0.613900
C4541	C454	0.693590	0.610590	0.383300
H5081	H508	0.708400	0.626800	0.401600
C4551	C455	0.675640	0.593450	0.436600
H5091	H509	0.677900	0.597900	0.490200
C4561	C456	0.654070	0.569390	0.410900
C4571	C457	0.652510	0.563990	0.332700
H5101	H510	0.638400	0.547600	0.312600
C4581	C458	0.671380	0.582270	0.283600
H5111	H511	0.670000	0.577900	0.229700
C4591	C459	0.633000	0.549700	0.465800
H5121	H512	0.632900	0.526900	0.447000
H5131	H513	0.610300	0.558000	0.460800
Mn281	Mn28	0.923540	0.958850	0.318160
O821	O82	0.905020	0.986000	0.243300
O831	O83	0.004500	0.974400	0.178970
O841	O84	0.949420	0.932640	0.388480
N731	N73	0.965970	0.963350	0.270000
N741	N74	0.991800	0.947810	0.310600
C4601	C460	0.918180	0.999120	0.180500
C4611	C461	0.898240	0.019780	0.135100
H5141	H514	0.876600	0.024700	0.151500
C4621	C462	0.909870	0.032680	0.067700
H5151	H515	0.895800	0.046000	0.037400
C4631	C463	0.941150	0.027160	0.042200
H5161	H516	0.948600	0.036100	0.994700
C4641	C464	0.961610	0.008080	0.087800
H5171	H517	0.983400	0.004100	0.070900
C4651	C465	0.951230	0.994560	0.157500
C4661	C466	0.975180	0.976520	0.204000
C4671	C467	0.980520	0.933070	0.371700
C4681	C468	0.003410	0.915580	0.425000
H5181	H518	0.026000	0.917800	0.405300
H5191	H519	0.002500	0.925900	0.476800
C4691	C469	0.995070	0.879760	0.432500
H5201	H520	0.008900	0.869800	0.473100
H5211	H521	0.972000	0.877500	0.448500
C4701	C470	0.000330	0.861520	0.356500
H5221	H522	0.022900	0.865500	0.338100
H5231	H523	0.985100	0.870300	0.317200
C4711	C471	0.995000	0.825000	0.364200
H5241	H524	0.972300	0.821000	0.381500
H5251	H525	0.009900	0.816400	0.404400
C4721	C472	0.000800	0.807000	0.290600
H5261	H526	0.024000	0.801200	0.286700
H5271	H527	0.987500	0.787100	0.289900
H5281	H528	0.994700	0.821000	0.246800
Mn291	Mn29	0.039400	0.961930	0.253300
O851	O85	0.047720	0.920550	0.213300
O861	O86	0.114740	0.933020	0.399740
O871	O87	0.036610	0.003670	0.305710
N751	N75	0.073730	0.956360	0.329400
N761	N76	0.078470	0.983890	0.378200
N771	N77	0.073500	0.988270	0.168800
C4731	C473	0.071560	0.899770	0.230300
C4741	C474	0.073740	0.871400	0.184200
H5291	H529	0.058200	0.867800	0.144200
C4751	C475	0.098450	0.848710	0.196900
H5301	H530	0.099800	0.829900	0.164900
C4761	C476	0.121020	0.853060	0.255000
H5311	H531	0.138000	0.837600	0.263000
C4771	C477	0.118420	0.879950	0.301000
H5321	H532	0.133800	0.882800	0.341500
C4781	C478	0.093980	0.903680	0.291100
C4791	C479	0.094330	0.932280	0.343800
C4801	C480	0.058080	0.007120	0.359600
C4811	C481	0.060900	0.039850	0.398000
H5331	H533	0.038900	0.047200	0.414700
H5341	H534	0.074800	0.037800	0.444700
C4821	C482	0.075740	0.065360	0.343700
H5351	H535	0.073500	0.087300	0.367400
H5361	H536	0.063400	0.065400	0.294500
C4831	C483	0.111650	0.058810	0.326600
H5371	H537	0.124000	0.058500	0.375800
H5381	H538	0.113800	0.037000	0.302400
C4841	C484	0.126900	0.084550	0.272700
H5391	H539	0.124700	0.106500	0.296500
H5401	H540	0.114900	0.084700	0.222900
C4851	C485	0.163100	0.077200	0.257900
H5411	H541	0.165800	0.053700	0.247900
H5421	H542	0.170600	0.089600	0.213000
H5431	H543	0.175900	0.083400	0.303400
C4861	C486	0.064850	0.017280	0.143900
H5441	H544	0.043200	0.024600	0.154000
C4871	C487	0.085700	0.037600	0.103500
H5451	H545	0.078400	0.058400	0.086100
C4881	C488	0.117580	0.027200	0.088500
C4891	C489	0.125390	0.997050	0.113400
H5461	H546	0.146600	0.988700	0.102400
C4901	C490	0.104000	0.977810	0.154100
H5471	H547	0.110800	0.956900	0.172000
C4911	C491	0.140210	0.048900	0.042300
H5481	H548	0.162900	0.041000	0.048800
H5491	H549	0.139100	0.071400	0.063200
Mn301	Mn30	0.887100	0.029870	0.527250
O881	O88	0.850810	0.008310	0.567120
O891	O89	0.882410	0.951550	0.374540
O901	O90	0.925030	0.046740	0.473980
N781	N78	0.893780	0.994950	0.451700
N791	N79	0.921870	0.999350	0.405400
N801	N80	0.191410	0.105680	0.806900
C4921	C492	0.834120	0.984050	0.536700
C4931	C493	0.803630	0.977080	0.571100
H5501	H550	0.796500	0.989600	0.614100
C4941	C494	0.784020	0.952350	0.543100
H5511	H551	0.763400	0.948300	0.566400
C4951	C495	0.794100	0.933340	0.481500
H5521	H552	0.780700	0.916100	0.463100
C4961	C496	0.823460	0.939560	0.447400
H5531	H553	0.830300	0.926300	0.405300
C4971	C497	0.843830	0.964950	0.472800
C4981	C498	0.874790	0.970380	0.431900
C4991	C499	0.936030	0.026860	0.422200
C5001	C500	0.965090	0.037790	0.376500
H5541	H554	0.974100	0.019000	0.347500
H5551	H555	0.982200	0.045800	0.412300
C5011	C501	0.955600	0.066100	0.317700
H5561	H556	0.948200	0.085400	0.347400
H5571	H557	0.937000	0.058700	0.285500
C5021	C502	0.985400	0.077100	0.261000
H5581	H558	0.002800	0.087800	0.291800
H5591	H559	0.995000	0.057500	0.236000
C5031	C503	0.974800	0.097400	0.207600
H5601	H560	0.966200	0.118100	0.229400
H5611	H561	0.958400	0.087400	0.172700
C5041	C504	0.011300	0.101800	0.166200
H5621	H562	0.022300	0.080600	0.163500
H5631	H563	0.024600	0.116900	0.197000
H5641	H564	0.008600	0.110600	0.113900
C5051	C505	0.193590	0.110590	0.883300
H5651	H565	0.208400	0.126800	0.901600
C5061	C506	0.175640	0.093450	0.936600
H5661	H566	0.177900	0.097900	0.990200
C5071	C507	0.154070	0.069390	0.910900
C5081	C508	0.152510	0.063990	0.832700
H5671	H567	0.138400	0.047600	0.812600
C5091	C509	0.171380	0.082270	0.783600
H5681	H568	0.170000	0.077900	0.729700
C5101	C510	0.133000	0.049700	0.965800
H5691	H569	0.132900	0.026900	0.947000
H5701	H570	0.110300	0.058000	0.960800
Mn311	Mn31	0.076460	0.541150	0.318160
O911	O91	0.094980	0.514000	0.243300
O921	O92	0.995500	0.525600	0.178970
O931	O93	0.050580	0.567360	0.388480
N811	N81	0.034030	0.536650	0.270000
N821	N82	0.008200	0.552190	0.310600
C5111	C511	0.081820	0.500880	0.180500
C5121	C512	0.101760	0.480220	0.135100
H5711	H571	0.123400	0.475300	0.151500
C5131	C513	0.090130	0.467320	0.067700
H5721	H572	0.104200	0.454000	0.037400
C5141	C514	0.058850	0.472840	0.042200
H5731	H573	0.051400	0.463900	0.994700
C5151	C515	0.038390	0.491920	0.087800
H5741	H574	0.016600	0.495900	0.070900
C5161	C516	0.048770	0.505440	0.157500
C5171	C517	0.024820	0.523480	0.204000
C5181	C518	0.019480	0.566930	0.371700
C5191	C519	0.996590	0.584420	0.425000
H5751	H575	0.974000	0.582200	0.405300
H5761	H576	0.997500	0.574100	0.476800
C5201	C520	0.004930	0.620240	0.432500
H5771	H577	0.991100	0.630200	0.473100
H5781	H578	0.028000	0.622500	0.448500
C5211	C521	0.999670	0.638480	0.356500
H5791	H579	0.977100	0.634500	0.338100
H5801	H580	0.014900	0.629700	0.317200
C5221	C522	0.005000	0.675000	0.364200
H5811	H581	0.027700	0.679000	0.381500
H5821	H582	0.990100	0.683600	0.404400
C5231	C523	0.999200	0.693000	0.290600
H5831	H583	0.976000	0.698800	0.286700
H5841	H584	0.012500	0.712900	0.289900
H5851	H585	0.005300	0.679000	0.246800
Mn321	Mn32	0.960600	0.538070	0.253300
O941	O94	0.952280	0.579450	0.213300
O951	O95	0.885260	0.566980	0.399740
O961	O96	0.963390	0.496330	0.305710
N831	N83	0.926270	0.543640	0.329400
N841	N84	0.921530	0.516110	0.378200
N851	N85	0.926500	0.511730	0.168800
C5241	C524	0.928440	0.600230	0.230300
C5251	C525	0.926260	0.628600	0.184200
H5861	H586	0.941800	0.632200	0.144200
C5261	C526	0.901550	0.651290	0.196900
H5871	H587	0.900200	0.670100	0.164900
C5271	C527	0.878980	0.646940	0.255000
H5881	H588	0.862000	0.662400	0.263000
C5281	C528	0.881580	0.620050	0.301000
H5891	H589	0.866200	0.617200	0.341500
C5291	C529	0.906020	0.596320	0.291100
C5301	C530	0.905670	0.567720	0.343800
C5311	C531	0.941920	0.492880	0.359600
C5321	C532	0.939100	0.460150	0.398000
H5901	H590	0.961100	0.452800	0.414700
H5911	H591	0.925200	0.462200	0.444700
C5331	C533	0.924260	0.434640	0.343700
H5921	H592	0.926500	0.412700	0.367400
H5931	H593	0.936600	0.434600	0.294500
C5341	C534	0.888350	0.441190	0.326600
H5941	H594	0.876000	0.441500	0.375800
H5951	H595	0.886200	0.463000	0.302400
C5351	C535	0.873100	0.415450	0.272700
H5961	H596	0.875300	0.393500	0.296500
H5971	H597	0.885100	0.415300	0.222900
C5361	C536	0.836900	0.422800	0.257900
H5981	H598	0.834200	0.446300	0.247900
H5991	H599	0.829400	0.410400	0.213000
H6001	H600	0.824100	0.416600	0.303400
C5371	C537	0.935150	0.482720	0.143900
H6011	H601	0.956800	0.475400	0.154000
C5381	C538	0.914300	0.462400	0.103500
H6021	H602	0.921600	0.441600	0.086100
C5391	C539	0.882420	0.472800	0.088500
C5401	C540	0.874610	0.502950	0.113400
H6031	H603	0.853400	0.511300	0.102400
C5411	C541	0.896000	0.522190	0.154100
H6041	H604	0.889200	0.543100	0.172000
C5421	C542	0.859790	0.451100	0.042300
H6051	H605	0.837100	0.459000	0.048800
H6061	H606	0.860900	0.428600	0.063200
Mn331	Mn33	0.112900	0.470130	0.527250
O971	O97	0.149190	0.491690	0.567120
O981	O98	0.117590	0.548450	0.374540
O991	O99	0.074970	0.453260	0.473980
N861	N86	0.106220	0.505050	0.451700
N871	N87	0.078130	0.500650	0.405400
N881	N88	0.808590	0.394320	0.806900
C5431	C543	0.165880	0.515950	0.536700
C5441	C544	0.196370	0.522920	0.571100
H6071	H607	0.203500	0.510400	0.614100
C5451	C545	0.215980	0.547650	0.543100
H6081	H608	0.236600	0.551700	0.566400
C5461	C546	0.205900	0.566660	0.481500
H6091	H609	0.219300	0.583900	0.463100
C5471	C547	0.176540	0.560440	0.447400
H6101	H610	0.169700	0.573700	0.405300
C5481	C548	0.156170	0.535050	0.472800
C5491	C549	0.125210	0.529620	0.431900
C5501	C550	0.063970	0.473140	0.422200
C5511	C551	0.034910	0.462210	0.376500
H6111	H611	0.025900	0.481000	0.347500
H6121	H612	0.017800	0.454200	0.412300
C5521	C552	0.044400	0.433900	0.317700
H6131	H613	0.051800	0.414600	0.347400
H6141	H614	0.063000	0.441300	0.285500
C5531	C553	0.014600	0.422900	0.261000
H6151	H615	0.997200	0.412200	0.291800
H6161	H616	0.005000	0.442500	0.236000
C5541	C554	0.025200	0.402600	0.207600
H6171	H617	0.033800	0.381900	0.229400
H6181	H618	0.041600	0.412600	0.172700
C5551	C555	0.988700	0.398200	0.166200
H6191	H619	0.977700	0.419400	0.163500
H6201	H620	0.975400	0.383100	0.197000
H6211	H621	0.991400	0.389400	0.113900
C5561	C556	0.806410	0.389410	0.883300
H6221	H622	0.791600	0.373200	0.901600
C5571	C557	0.824360	0.406550	0.936600
H6231	H623	0.822100	0.402100	0.990200
C5581	C558	0.845930	0.430610	0.910900
C5591	C559	0.847490	0.436010	0.832700
H6241	H624	0.861600	0.452400	0.812600
C5601	C560	0.828620	0.417730	0.783600
H6251	H625	0.830000	0.422100	0.729700
C5611	C561	0.867000	0.450300	0.965800
H6261	H626	0.867100	0.473100	0.947000
H6271	H627	0.889700	0.442000	0.960800
Mn341	Mn34	0.576460	0.041150	0.818160
O1001	O100	0.594980	0.014000	0.743300
O1011	O101	0.495500	0.025600	0.678970
O1021	O102	0.550580	0.067360	0.888480
N891	N89	0.534030	0.036650	0.770000
N901	N90	0.508200	0.052190	0.810600
C5621	C562	0.581820	0.000880	0.680500
C5631	C563	0.601760	0.980220	0.635100
H6281	H628	0.623400	0.975300	0.651500
C5641	C564	0.590130	0.967320	0.567700
H6291	H629	0.604200	0.954000	0.537400
C5651	C565	0.558850	0.972840	0.542200
H6301	H630	0.551400	0.963900	0.494700
C5661	C566	0.538390	0.991920	0.587800
H6311	H631	0.516600	0.995900	0.570900
C5671	C567	0.548770	0.005440	0.657500
C5681	C568	0.524820	0.023480	0.704000
C5691	C569	0.519480	0.066930	0.871700
C5701	C570	0.496590	0.084420	0.925000
H6321	H632	0.474000	0.082200	0.905300
H6331	H633	0.497500	0.074100	0.976800
C5711	C571	0.504930	0.120240	0.932500
H6341	H634	0.491100	0.130200	0.973100
H6351	H635	0.528000	0.122500	0.948500
C5721	C572	0.499670	0.138480	0.856500
H6361	H636	0.477100	0.134500	0.838100
H6371	H637	0.514900	0.129700	0.817200
C5731	C573	0.505000	0.175000	0.864200
H6381	H638	0.527700	0.179000	0.881500
H6391	H639	0.490100	0.183600	0.904400
C5741	C574	0.499200	0.193000	0.790600
H6401	H640	0.476000	0.198800	0.786700
H6411	H641	0.512500	0.212900	0.789900
H6421	H642	0.505300	0.179000	0.746800
Mn351	Mn35	0.460600	0.038070	0.753300
O1031	O103	0.452280	0.079450	0.713300
O1041	O104	0.385260	0.066980	0.899740
O1051	O105	0.463390	0.996330	0.805710
N911	N91	0.426270	0.043640	0.829400
N921	N92	0.421530	0.016110	0.878200
N931	N93	0.426500	0.011730	0.668800
C5751	C575	0.428440	0.100230	0.730300
C5761	C576	0.426260	0.128600	0.684200
H6431	H643	0.441800	0.132200	0.644200
C5771	C577	0.401550	0.151290	0.696900
H6441	H644	0.400200	0.170100	0.664900
C5781	C578	0.378980	0.146940	0.755000
H6451	H645	0.362000	0.162400	0.763000
C5791	C579	0.381580	0.120050	0.801000
H6461	H646	0.366200	0.117200	0.841500
C5801	C580	0.406020	0.096320	0.791100
C5811	C581	0.405670	0.067720	0.843800
C5821	C582	0.441920	0.992880	0.859600
C5831	C583	0.439100	0.960150	0.898000
H6471	H647	0.461100	0.952800	0.914700
H6481	H648	0.425200	0.962200	0.944700
C5841	C584	0.424260	0.934640	0.843700
H6491	H649	0.426500	0.912700	0.867400
H6501	H650	0.436600	0.934600	0.794500
C5851	C585	0.388350	0.941190	0.826600
H6511	H651	0.376000	0.941500	0.875800
H6521	H652	0.386200	0.963000	0.802400
C5861	C586	0.373100	0.915450	0.772700
H6531	H653	0.375300	0.893500	0.796500
H6541	H654	0.385100	0.915300	0.722900
C5871	C587	0.336900	0.922800	0.757900
H6551	H655	0.334200	0.946300	0.747900
H6561	H656	0.329400	0.910400	0.713000
H6571	H657	0.324100	0.916600	0.803400
C5881	C588	0.435150	0.982720	0.643900
H6581	H658	0.456800	0.975400	0.654000
C5891	C589	0.414300	0.962400	0.603500
H6591	H659	0.421600	0.941600	0.586100
C5901	C590	0.382420	0.972800	0.588500
C5911	C591	0.374610	0.002950	0.613400
H6601	H660	0.353400	0.011300	0.602400
C5921	C592	0.396000	0.022190	0.654100
H6611	H661	0.389200	0.043100	0.672000
C5931	C593	0.359790	0.951100	0.542300
H6621	H662	0.337100	0.959000	0.548800
H6631	H663	0.360900	0.928600	0.563200
Mn361	Mn36	0.612900	0.970130	0.027250
O1061	O106	0.649190	0.991690	0.067120
O1071	O107	0.617590	0.048450	0.874540
O1081	O108	0.574970	0.953260	0.973980
N941	N94	0.606220	0.005050	0.951700
N951	N95	0.578130	0.000650	0.905400
N961	N96	0.308590	0.894320	0.306900
C5941	C594	0.665880	0.015950	0.036700
C5951	C595	0.696370	0.022920	0.071100
H6641	H664	0.703500	0.010400	0.114100
C5961	C596	0.715980	0.047650	0.043100
H6651	H665	0.736600	0.051700	0.066400
C5971	C597	0.705900	0.066660	0.981500
H6661	H666	0.719300	0.083900	0.963100
C5981	C598	0.676540	0.060440	0.947400
H6671	H667	0.669700	0.073700	0.905300
C5991	C599	0.656170	0.035050	0.972800
C6001	C600	0.625210	0.029620	0.931900
C6011	C601	0.563970	0.973140	0.922200
C6021	C602	0.534910	0.962210	0.876500
H6681	H668	0.525900	0.981000	0.847500
H6691	H669	0.517800	0.954200	0.912300
C6031	C603	0.544400	0.933900	0.817700
H6701	H670	0.551800	0.914600	0.847400
H6711	H671	0.563000	0.941300	0.785500
C6041	C604	0.514600	0.922900	0.761000
H6721	H672	0.497200	0.912200	0.791800
H6731	H673	0.505000	0.942500	0.736000
C6051	C605	0.525200	0.902600	0.707600
H6741	H674	0.533800	0.881900	0.729400
H6751	H675	0.541600	0.912600	0.672700
C6061	C606	0.488700	0.898200	0.666200
H6761	H676	0.477700	0.919400	0.663500
H6771	H677	0.475400	0.883100	0.697000
H6781	H678	0.491400	0.889400	0.613900
C6071	C607	0.306410	0.889410	0.383300
H6791	H679	0.291600	0.873200	0.401600
C6081	C608	0.324360	0.906550	0.436600
H6801	H680	0.322100	0.902100	0.490200
C6091	C609	0.345930	0.930610	0.410900
C6101	C610	0.347490	0.936010	0.332700
H6811	H681	0.361600	0.952400	0.312600
C6111	C611	0.328620	0.917730	0.283600
H6821	H682	0.330000	0.922100	0.229700
C6121	C612	0.367000	0.950300	0.465800
H6831	H683	0.367100	0.973100	0.447000
H6841	H684	0.389700	0.942000	0.460800
Mn371	Mn37	0.791150	0.173540	0.568160
O1091	O109	0.764000	0.155020	0.493300
O1101	O110	0.775600	0.254500	0.428970
O1111	O111	0.817360	0.199420	0.638480
N971	N97	0.786650	0.215970	0.520000
N981	N98	0.802190	0.241800	0.560600
C6131	C613	0.750880	0.168180	0.430500
C6141	C614	0.730220	0.148240	0.385100
H6851	H685	0.725300	0.126600	0.401500
C6151	C615	0.717320	0.159870	0.317700
H6861	H686	0.704000	0.145800	0.287400
C6161	C616	0.722840	0.191150	0.292200
H6871	H687	0.713900	0.198600	0.244700
C6171	C617	0.741920	0.211610	0.337800
H6881	H688	0.745900	0.233400	0.320900
C6181	C618	0.755440	0.201230	0.407500
C6191	C619	0.773480	0.225180	0.454000
C6201	C620	0.816930	0.230520	0.621700
C6211	C621	0.834420	0.253410	0.675000
H6891	H689	0.832200	0.276000	0.655300
H6901	H690	0.824100	0.252500	0.726800
C6221	C622	0.870240	0.245070	0.682500
H6911	H691	0.880200	0.258900	0.723100
H6921	H692	0.872500	0.222000	0.698500
C6231	C623	0.888480	0.250330	0.606500
H6931	H693	0.884500	0.272900	0.588100
H6941	H694	0.879700	0.235100	0.567200
C6241	C624	0.925000	0.245000	0.614200
H6951	H695	0.929000	0.222300	0.631500
H6961	H696	0.933600	0.259900	0.654400
C6251	C625	0.943000	0.250800	0.540600
H6971	H697	0.948800	0.274000	0.536700
H6981	H698	0.962900	0.237500	0.539900
H6991	H699	0.929000	0.244700	0.496800
Mn381	Mn38	0.788070	0.289400	0.503300
O1121	O112	0.829450	0.297720	0.463300
O1131	O113	0.816980	0.364740	0.649740
O1141	O114	0.746330	0.286610	0.555710
N991	N99	0.793640	0.323730	0.579400
N1001	N100	0.766110	0.328470	0.628200
N1011	N101	0.761730	0.323500	0.418800
C6261	C626	0.850230	0.321560	0.480300
C6271	C627	0.878600	0.323740	0.434200
H7001	H700	0.882200	0.308200	0.394200
C6281	C628	0.901290	0.348450	0.446900
H7011	H701	0.920100	0.349800	0.414900
C6291	C629	0.896940	0.371020	0.505000
H7021	H702	0.912400	0.388000	0.513000
C6301	C630	0.870050	0.368420	0.551000
H7031	H703	0.867200	0.383800	0.591500
C6311	C631	0.846320	0.343980	0.541100
C6321	C632	0.817720	0.344330	0.593800
C6331	C633	0.742880	0.308080	0.609600
C6341	C634	0.710150	0.310900	0.648000
H7041	H704	0.702800	0.288900	0.664700
H7051	H705	0.712200	0.324800	0.694700
C6351	C635	0.684640	0.325740	0.593700
H7061	H706	0.662700	0.323500	0.617400
H7071	H707	0.684600	0.313400	0.544500
C6361	C636	0.691190	0.361650	0.576600
H7081	H708	0.691500	0.374000	0.625800
H7091	H709	0.713000	0.363800	0.552400
C6371	C637	0.665450	0.376900	0.522700
H7101	H710	0.643500	0.374700	0.546500
H7111	H711	0.665300	0.364900	0.472900
C6381	C638	0.672800	0.413100	0.507900
H7121	H712	0.696300	0.415800	0.497900
H7131	H713	0.660400	0.420600	0.463000
H7141	H714	0.666600	0.425900	0.553400
C6391	C639	0.732720	0.314850	0.393900
H7151	H715	0.725400	0.293200	0.404000
C6401	C640	0.712400	0.335700	0.353500
H7161	H716	0.691600	0.328400	0.336100
C6411	C641	0.722800	0.367580	0.338500
C6421	C642	0.752950	0.375390	0.363400
H7171	H717	0.761300	0.396600	0.352400
C6431	C643	0.772190	0.354000	0.404100
H7181	H718	0.793100	0.360800	0.422000
C6441	C644	0.701100	0.390210	0.292300
H7191	H719	0.709000	0.412900	0.298800
H7201	H720	0.678600	0.389100	0.313200
Mn391	Mn39	0.720130	0.137100	0.777250
O1151	O115	0.741690	0.100810	0.817120
O1161	O116	0.798450	0.132410	0.624540
O1171	O117	0.703260	0.175030	0.723980
N1021	N102	0.755050	0.143780	0.701700
N1031	N103	0.750650	0.171870	0.655400
N1041	N104	0.644320	0.441410	0.056900
C6451	C645	0.765950	0.084120	0.786700
C6461	C646	0.772920	0.053630	0.821100
H7211	H721	0.760400	0.046500	0.864100
C6471	C647	0.797650	0.034020	0.793100
H7221	H722	0.801700	0.013400	0.816400
C6481	C648	0.816660	0.044100	0.731500
H7231	H723	0.833900	0.030700	0.713100
C6491	C649	0.810440	0.073460	0.697400
H7241	H724	0.823700	0.080300	0.655300
C6501	C650	0.785050	0.093830	0.722800
C6511	C651	0.779620	0.124790	0.681900
C6521	C652	0.723140	0.186030	0.672200
C6531	C653	0.712210	0.215090	0.626500
H7251	H725	0.731000	0.224100	0.597500
H7261	H726	0.704200	0.232200	0.662300
C6541	C654	0.683900	0.205600	0.567700
H7271	H727	0.664600	0.198200	0.597400
H7281	H728	0.691300	0.187000	0.535500
C6551	C655	0.672900	0.235400	0.511000
H7291	H729	0.662200	0.252800	0.541800
H7301	H730	0.692500	0.245000	0.486000
C6561	C656	0.652600	0.224800	0.457600
H7311	H731	0.631900	0.216200	0.479400
H7321	H732	0.662600	0.208400	0.422700
C6571	C657	0.648200	0.261300	0.416200
H7331	H733	0.669400	0.272300	0.413500
H7341	H734	0.633100	0.274600	0.447000
H7351	H735	0.639400	0.258600	0.363900
C6581	C658	0.639410	0.443590	0.133300
H7361	H736	0.623200	0.458400	0.151600
C6591	C659	0.656550	0.425640	0.186600
H7371	H737	0.652100	0.427900	0.240200
C6601	C660	0.680610	0.404070	0.160900
C6611	C661	0.686010	0.402510	0.082700
H7381	H738	0.702400	0.388400	0.062600
C6621	C662	0.667730	0.421380	0.033600
H7391	H739	0.672100	0.420000	0.979700
C6631	C663	0.700300	0.383000	0.215800
H7401	H740	0.723100	0.382900	0.197000
H7411	H741	0.692000	0.360300	0.210800
Mn401	Mn40	0.291150	0.673540	0.068160
O1181	O118	0.264000	0.655020	0.993300
O1191	O119	0.275600	0.754500	0.928970
O1201	O120	0.317360	0.699420	0.138480
N1051	N105	0.286650	0.715970	0.020000
N1061	N106	0.302190	0.741800	0.060600
C6641	C664	0.250880	0.668180	0.930500
C6651	C665	0.230220	0.648240	0.885100
H7421	H742	0.225300	0.626600	0.901500
C6661	C666	0.217320	0.659870	0.817700
H7431	H743	0.204000	0.645800	0.787400
C6671	C667	0.222840	0.691150	0.792200
H7441	H744	0.213900	0.698600	0.744700
C6681	C668	0.241920	0.711610	0.837800
H7451	H745	0.245900	0.733400	0.820900
C6691	C669	0.255440	0.701230	0.907500
C6701	C670	0.273480	0.725180	0.954000
C6711	C671	0.316930	0.730520	0.121700
C6721	C672	0.334420	0.753410	0.175000
H7461	H746	0.332200	0.776000	0.155300
H7471	H747	0.324100	0.752500	0.226800
C6731	C673	0.370240	0.745070	0.182500
H7481	H748	0.380200	0.758900	0.223100
H7491	H749	0.372500	0.722000	0.198500
C6741	C674	0.388480	0.750330	0.106500
H7501	H750	0.384500	0.772900	0.088100
H7511	H751	0.379700	0.735100	0.067200
C6751	C675	0.425000	0.745000	0.114200
H7521	H752	0.429000	0.722300	0.131500
H7531	H753	0.433600	0.759900	0.154400
C6761	C676	0.443000	0.750800	0.040600
H7541	H754	0.448800	0.774000	0.036700
H7551	H755	0.462900	0.737500	0.039900
H7561	H756	0.429000	0.744700	0.996800
Mn411	Mn41	0.288070	0.789400	0.003300
O1211	O121	0.329450	0.797720	0.963300
O1221	O122	0.316980	0.864740	0.149740
O1231	O123	0.246330	0.786610	0.055710
N1071	N107	0.293640	0.823730	0.079400
N1081	N108	0.266110	0.828470	0.128200
N1091	N109	0.261730	0.823500	0.918800
C6771	C677	0.350230	0.821560	0.980300
C6781	C678	0.378600	0.823740	0.934200
H7571	H757	0.382200	0.808200	0.894200
C6791	C679	0.401290	0.848450	0.946900
H7581	H758	0.420100	0.849800	0.914900
C6801	C680	0.396940	0.871020	0.005000
H7591	H759	0.412400	0.888000	0.013000
C6811	C681	0.370050	0.868420	0.051000
H7601	H760	0.367200	0.883800	0.091500
C6821	C682	0.346320	0.843980	0.041100
C6831	C683	0.317720	0.844330	0.093800
C6841	C684	0.242880	0.808080	0.109600
C6851	C685	0.210150	0.810900	0.148000
H7611	H761	0.202800	0.788900	0.164700
H7621	H762	0.212200	0.824800	0.194700
C6861	C686	0.184640	0.825740	0.093700
H7631	H763	0.162700	0.823500	0.117400
H7641	H764	0.184600	0.813400	0.044500
C6871	C687	0.191190	0.861650	0.076600
H7651	H765	0.191500	0.874000	0.125800
H7661	H766	0.213000	0.863800	0.052400
C6881	C688	0.165450	0.876900	0.022700
H7671	H767	0.143500	0.874700	0.046500
H7681	H768	0.165300	0.864900	0.972900
C6891	C689	0.172800	0.913100	0.007900
H7691	H769	0.196300	0.915800	0.997900
H7701	H770	0.160400	0.920600	0.963000
H7711	H771	0.166600	0.925900	0.053400
C6901	C690	0.232720	0.814850	0.893900
H7721	H772	0.225400	0.793200	0.904000
C6911	C691	0.212400	0.835700	0.853500
H7731	H773	0.191600	0.828400	0.836100
C6921	C692	0.222800	0.867580	0.838500
C6931	C693	0.252950	0.875390	0.863400
H7741	H774	0.261300	0.896600	0.852400
C6941	C694	0.272190	0.854000	0.904100
H7751	H775	0.293100	0.860800	0.922000
C6951	C695	0.201100	0.890210	0.792300
H7761	H776	0.209000	0.912900	0.798800
H7771	H777	0.178600	0.889100	0.813200
Mn421	Mn42	0.220130	0.637100	0.277250
O1241	O124	0.241690	0.600810	0.317120
O1251	O125	0.298450	0.632410	0.124540
O1261	O126	0.203260	0.675030	0.223980
N1101	N110	0.255050	0.643780	0.201700
N1111	N111	0.250650	0.671870	0.155400
N1121	N112	0.144320	0.941410	0.556900
C6961	C696	0.265950	0.584120	0.286700
C6971	C697	0.272920	0.553630	0.321100
H7781	H778	0.260400	0.546500	0.364100
C6981	C698	0.297650	0.534020	0.293100
H7791	H779	0.301700	0.513400	0.316400
C6991	C699	0.316660	0.544100	0.231500
H7801	H780	0.333900	0.530700	0.213100
C7001	C700	0.310440	0.573460	0.197400
H7811	H781	0.323700	0.580300	0.155300
C7011	C701	0.285050	0.593830	0.222800
C7021	C702	0.279620	0.624790	0.181900
C7031	C703	0.223140	0.686030	0.172200
C7041	C704	0.212210	0.715090	0.126500
H7821	H782	0.231000	0.724100	0.097500
H7831	H783	0.204200	0.732200	0.162300
C7051	C705	0.183900	0.705600	0.067700
H7841	H784	0.164600	0.698200	0.097400
H7851	H785	0.191300	0.687000	0.035500
C7061	C706	0.172900	0.735400	0.011000
H7861	H786	0.162200	0.752800	0.041800
H7871	H787	0.192500	0.745000	0.986000
C7071	C707	0.152600	0.724800	0.957600
H7881	H788	0.131900	0.716200	0.979400
H7891	H789	0.162600	0.708400	0.922700
C7081	C708	0.148200	0.761300	0.916200
H7901	H790	0.169400	0.772300	0.913500
H7911	H791	0.133100	0.774600	0.947000
H7921	H792	0.139400	0.758600	0.863900
C7091	C709	0.139410	0.943590	0.633300
H7931	H793	0.123200	0.958400	0.651600
C7101	C710	0.156550	0.925640	0.686600
H7941	H794	0.152100	0.927900	0.740200
C7111	C711	0.180610	0.904070	0.660900
C7121	C712	0.186010	0.902510	0.582700
H7951	H795	0.202400	0.888400	0.562600
C7131	C713	0.167730	0.921380	0.533600
H7961	H796	0.172100	0.920000	0.479700
C7141	C714	0.200300	0.883000	0.715800
H7971	H797	0.223100	0.882900	0.697000
H7981	H798	0.192000	0.860300	0.710800
Mn431	Mn43	0.708850	0.826460	0.068160
O1271	O127	0.736000	0.844980	0.993300
O1281	O128	0.724400	0.745500	0.928970
O1291	O129	0.682640	0.800580	0.138480
N1131	N113	0.713350	0.784030	0.020000
N1141	N114	0.697810	0.758200	0.060600
C7151	C715	0.749120	0.831820	0.930500
C7161	C716	0.769780	0.851760	0.885100
H7991	H799	0.774700	0.873400	0.901500
C7171	C717	0.782680	0.840130	0.817700
H8001	H800	0.796000	0.854200	0.787400
C7181	C718	0.777160	0.808850	0.792200
H8011	H801	0.786100	0.801400	0.744700
C7191	C719	0.758080	0.788390	0.837800
H8021	H802	0.754100	0.766600	0.820900
C7201	C720	0.744560	0.798770	0.907500
C7211	C721	0.726520	0.774820	0.954000
C7221	C722	0.683070	0.769480	0.121700
C7231	C723	0.665580	0.746590	0.175000
H8031	H803	0.667800	0.724000	0.155300
H8041	H804	0.675900	0.747500	0.226800
C7241	C724	0.629760	0.754930	0.182500
H8051	H805	0.619800	0.741100	0.223100
H8061	H806	0.627500	0.778000	0.198500
C7251	C725	0.611520	0.749670	0.106500
H8071	H807	0.615500	0.727100	0.088100
H8081	H808	0.620300	0.764900	0.067200
C7261	C726	0.575000	0.755000	0.114200
H8091	H809	0.571000	0.777700	0.131500
H8101	H810	0.566400	0.740100	0.154400
C7271	C727	0.557000	0.749200	0.040600
H8111	H811	0.551200	0.726000	0.036700
H8121	H812	0.537100	0.762500	0.039900
H8131	H813	0.571000	0.755300	0.996800
Mn441	Mn44	0.711930	0.710600	0.003300
O1301	O130	0.670550	0.702280	0.963300
O1311	O131	0.683020	0.635260	0.149740
O1321	O132	0.753670	0.713390	0.055710
N1151	N115	0.706360	0.676270	0.079400
N1161	N116	0.733890	0.671530	0.128200
N1171	N117	0.738270	0.676500	0.918800
C7281	C728	0.649770	0.678440	0.980300
C7291	C729	0.621400	0.676260	0.934200
H8141	H814	0.617800	0.691800	0.894200
C7301	C730	0.598710	0.651550	0.946900
H8151	H815	0.579900	0.650200	0.914900
C7311	C731	0.603060	0.628980	0.005000
H8161	H816	0.587600	0.612000	0.013000
C7321	C732	0.629950	0.631580	0.051000
H8171	H817	0.632800	0.616200	0.091500
C7331	C733	0.653680	0.656020	0.041100
C7341	C734	0.682280	0.655670	0.093800
C7351	C735	0.757120	0.691920	0.109600
C7361	C736	0.789850	0.689100	0.148000
H8181	H818	0.797200	0.711100	0.164700
H8191	H819	0.787800	0.675200	0.194700
C7371	C737	0.815360	0.674260	0.093700
H8201	H820	0.837300	0.676500	0.117400
H8211	H821	0.815400	0.686600	0.044500
C7381	C738	0.808810	0.638350	0.076600
H8221	H822	0.808500	0.626000	0.125800
H8231	H823	0.787000	0.636200	0.052400
C7391	C739	0.834550	0.623100	0.022700
H8241	H824	0.856500	0.625300	0.046500
H8251	H825	0.834700	0.635100	0.972900
C7401	C740	0.827200	0.586900	0.007900
H8261	H826	0.803700	0.584200	0.997900
H8271	H827	0.839600	0.579400	0.963000
H8281	H828	0.833400	0.574100	0.053400
C7411	C741	0.767280	0.685150	0.893900
H8291	H829	0.774600	0.706800	0.904000
C7421	C742	0.787600	0.664300	0.853500
H8301	H830	0.808400	0.671600	0.836100
C7431	C743	0.777200	0.632420	0.838500
C7441	C744	0.747050	0.624610	0.863400
H8311	H831	0.738700	0.603400	0.852400
C7451	C745	0.727810	0.646000	0.904100
H8321	H832	0.706900	0.639200	0.922000
C7461	C746	0.798900	0.609790	0.792300
H8331	H833	0.791000	0.587100	0.798800
H8341	H834	0.821400	0.610900	0.813200
Mn451	Mn45	0.779870	0.862900	0.277250
O1331	O133	0.758310	0.899190	0.317120
O1341	O134	0.701550	0.867590	0.124540
O1351	O135	0.796740	0.824970	0.223980
N1181	N118	0.744950	0.856220	0.201700
N1191	N119	0.749350	0.828130	0.155400
N1201	N120	0.855680	0.558590	0.556900
C7471	C747	0.734050	0.915880	0.286700
C7481	C748	0.727080	0.946370	0.321100
H8351	H835	0.739600	0.953500	0.364100
C7491	C749	0.702350	0.965980	0.293100
H8361	H836	0.698300	0.986600	0.316400
C7501	C750	0.683340	0.955900	0.231500
H8371	H837	0.666100	0.969300	0.213100
C7511	C751	0.689560	0.926540	0.197400
H8381	H838	0.676300	0.919700	0.155300
C7521	C752	0.714950	0.906170	0.222800
C7531	C753	0.720380	0.875210	0.181900
C7541	C754	0.776860	0.813970	0.172200
C7551	C755	0.787790	0.784910	0.126500
H8391	H839	0.769000	0.775900	0.097500
H8401	H840	0.795800	0.767800	0.162300
C7561	C756	0.816100	0.794400	0.067700
H8411	H841	0.835400	0.801800	0.097400
H8421	H842	0.808700	0.813000	0.035500
C7571	C757	0.827100	0.764600	0.011000
H8431	H843	0.837800	0.747200	0.041800
H8441	H844	0.807500	0.755000	0.986000
C7581	C758	0.847400	0.775200	0.957600
H8451	H845	0.868100	0.783800	0.979400
H8461	H846	0.837400	0.791600	0.922700
C7591	C759	0.851800	0.738700	0.916200
H8471	H847	0.830600	0.727700	0.913500
H8481	H848	0.866900	0.725400	0.947000
H8491	H849	0.860600	0.741400	0.863900
C7601	C760	0.860590	0.556410	0.633300
H8501	H850	0.876800	0.541600	0.651600
C7611	C761	0.843450	0.574360	0.686600
H8511	H851	0.847900	0.572100	0.740200
C7621	C762	0.819390	0.595930	0.660900
C7631	C763	0.813990	0.597490	0.582700
H8521	H852	0.797600	0.611600	0.562600
C7641	C764	0.832270	0.578620	0.533600
H8531	H853	0.827900	0.580000	0.479700
C7651	C765	0.799700	0.617000	0.715800
H8541	H854	0.776900	0.617100	0.697000
H8551	H855	0.808000	0.639700	0.710800
Mn461	Mn46	0.208850	0.326460	0.568160
O1361	O136	0.236000	0.344980	0.493300
O1371	O137	0.224400	0.245500	0.428970
O1381	O138	0.182640	0.300580	0.638480
N1211	N121	0.213350	0.284030	0.520000
N1221	N122	0.197810	0.258200	0.560600
C7661	C766	0.249120	0.331820	0.430500
C7671	C767	0.269780	0.351760	0.385100
H8561	H856	0.274700	0.373400	0.401500
C7681	C768	0.282680	0.340130	0.317700
H8571	H857	0.296000	0.354200	0.287400
C7691	C769	0.277160	0.308850	0.292200
H8581	H858	0.286100	0.301400	0.244700
C7701	C770	0.258080	0.288390	0.337800
H8591	H859	0.254100	0.266600	0.320900
C7711	C771	0.244560	0.298770	0.407500
C7721	C772	0.226520	0.274820	0.454000
C7731	C773	0.183070	0.269480	0.621700
C7741	C774	0.165580	0.246590	0.675000
H8601	H860	0.167800	0.224000	0.655300
H8611	H861	0.175900	0.247500	0.726800
C7751	C775	0.129760	0.254930	0.682500
H8621	H862	0.119800	0.241100	0.723100
H8631	H863	0.127500	0.278000	0.698500
C7761	C776	0.111520	0.249670	0.606500
H8641	H864	0.115500	0.227100	0.588100
H8651	H865	0.120300	0.264900	0.567200
C7771	C777	0.075000	0.255000	0.614200
H8661	H866	0.071000	0.277700	0.631500
H8671	H867	0.066400	0.240100	0.654400
C7781	C778	0.057000	0.249200	0.540600
H8681	H868	0.051200	0.226000	0.536700
H8691	H869	0.037100	0.262500	0.539900
H8701	H870	0.071000	0.255300	0.496800
Mn471	Mn47	0.211930	0.210600	0.503300
O1391	O139	0.170550	0.202280	0.463300
O1401	O140	0.183020	0.135260	0.649740
O1411	O141	0.253670	0.213390	0.555710
N1231	N123	0.206360	0.176270	0.579400
N1241	N124	0.233890	0.171530	0.628200
N1251	N125	0.238270	0.176500	0.418800
C7791	C779	0.149770	0.178440	0.480300
C7801	C780	0.121400	0.176260	0.434200
H8711	H871	0.117800	0.191800	0.394200
C7811	C781	0.098710	0.151550	0.446900
H8721	H872	0.079900	0.150200	0.414900
C7821	C782	0.103060	0.128980	0.505000
H8731	H873	0.087600	0.112000	0.513000
C7831	C783	0.129950	0.131580	0.551000
H8741	H874	0.132800	0.116200	0.591500
C7841	C784	0.153680	0.156020	0.541100
C7851	C785	0.182280	0.155670	0.593800
C7861	C786	0.257120	0.191920	0.609600
C7871	C787	0.289850	0.189100	0.648000
H8751	H875	0.297200	0.211100	0.664700
H8761	H876	0.287800	0.175200	0.694700
C7881	C788	0.315360	0.174260	0.593700
H8771	H877	0.337300	0.176500	0.617400
H8781	H878	0.315400	0.186600	0.544500
C7891	C789	0.308810	0.138350	0.576600
H8791	H879	0.308500	0.126000	0.625800
H8801	H880	0.287000	0.136200	0.552400
C7901	C790	0.334550	0.123100	0.522700
H8811	H881	0.356500	0.125300	0.546500
H8821	H882	0.334700	0.135100	0.472900
C7911	C791	0.327200	0.086900	0.507900
H8831	H883	0.303700	0.084200	0.497900
H8841	H884	0.339600	0.079400	0.463000
H8851	H885	0.333400	0.074100	0.553400
C7921	C792	0.267280	0.185150	0.393900
H8861	H886	0.274600	0.206800	0.404000
C7931	C793	0.287600	0.164300	0.353500
H8871	H887	0.308400	0.171600	0.336100
C7941	C794	0.277200	0.132420	0.338500
C7951	C795	0.247050	0.124610	0.363400
H8881	H888	0.238700	0.103400	0.352400
C7961	C796	0.227810	0.146000	0.404100
H8891	H889	0.206900	0.139200	0.422000
C7971	C797	0.298900	0.109790	0.292300
H8901	H890	0.291000	0.087100	0.298800
H8911	H891	0.321400	0.110900	0.313200
Mn481	Mn48	0.279870	0.362900	0.777250
O1421	O142	0.258310	0.399190	0.817120
O1431	O143	0.201550	0.367590	0.624540
O1441	O144	0.296740	0.324970	0.723980
N1261	N126	0.244950	0.356220	0.701700
N1271	N127	0.249350	0.328130	0.655400
N1281	N128	0.355680	0.058590	0.056900
C7981	C798	0.234050	0.415880	0.786700
C7991	C799	0.227080	0.446370	0.821100
H8921	H892	0.239600	0.453500	0.864100
C8001	C800	0.202350	0.465980	0.793100
H8931	H893	0.198300	0.486600	0.816400
C8011	C801	0.183340	0.455900	0.731500
H8941	H894	0.166100	0.469300	0.713100
C8021	C802	0.189560	0.426540	0.697400
H8951	H895	0.176300	0.419700	0.655300
C8031	C803	0.214950	0.406170	0.722800
C8041	C804	0.220380	0.375210	0.681900
C8051	C805	0.276860	0.313970	0.672200
C8061	C806	0.287790	0.284910	0.626500
H8961	H896	0.269000	0.275900	0.597500
H8971	H897	0.295800	0.267800	0.662300
C8071	C807	0.316100	0.294400	0.567700
H8981	H898	0.335400	0.301800	0.597400
H8991	H899	0.308700	0.313000	0.535500
C8081	C808	0.327100	0.264600	0.511000
H9001	H900	0.337800	0.247200	0.541800
H9011	H901	0.307500	0.255000	0.486000
C8091	C809	0.347400	0.275200	0.457600
H9021	H902	0.368100	0.283800	0.479400
H9031	H903	0.337400	0.291600	0.422700
C8101	C810	0.351800	0.238700	0.416200
H9041	H904	0.330600	0.227700	0.413500
H9051	H905	0.366900	0.225400	0.447000
H9061	H906	0.360600	0.241400	0.363900
C8111	C811	0.360590	0.056410	0.133300
H9071	H907	0.376800	0.041600	0.151600
C8121	C812	0.343450	0.074360	0.186600
H9081	H908	0.347900	0.072100	0.240200
C8131	C813	0.319390	0.095930	0.160900
C8141	C814	0.313990	0.097490	0.082700
H9091	H909	0.297600	0.111600	0.062600
C8151	C815	0.332270	0.078620	0.033600
H9101	H910	0.327900	0.080000	0.979700
C8161	C816	0.299700	0.117000	0.215800
H9111	H911	0.276900	0.117100	0.197000
H9121	H912	0.308000	0.139700	0.210800
