data_XALCUJ_clean_PM
_symmetry_space_group_name_H-M	'P1'
_cell_length_a	17.439300
_cell_length_b	30.174100
_cell_length_c	30.174100
_cell_angle_alpha	85.209800
_cell_angle_beta	73.203200
_cell_angle_gamma	73.203300
_symmetry_Int_Tables_number 1

loop_
_symmetry_equiv_pos_as_xyz
'x,y,z'

loop_
_atom_site_label
_atom_site_type_symbol
_atom_site_fract_x
_atom_site_fract_y
_atom_site_fract_z
Mn11	Mn1	0.588800	0.916470	0.356660
Mn21	Mn2	0.760730	0.882260	0.464060
Mn31	Mn3	0.296460	0.998110	0.422010
Mn41	Mn4	0.361940	0.583530	0.143340
Mn51	Mn5	0.607050	0.617740	0.035940
Mn61	Mn6	0.216580	0.501890	0.077990
Mn71	Mn7	0.945470	0.643340	0.416460
Mn81	Mn8	0.224790	0.535940	0.382260
Mn91	Mn9	0.718470	0.577990	0.498110
Mn101	Mn10	0.505270	0.856660	0.083540
Mn111	Mn11	0.642990	0.964060	0.117740
Mn121	Mn12	0.294570	0.922010	0.001890
Mn131	Mn13	0.411200	0.083530	0.643340
Mn141	Mn14	0.239270	0.117740	0.535940
Mn151	Mn15	0.703540	0.001890	0.577990
Mn161	Mn16	0.638060	0.416470	0.856660
Mn171	Mn17	0.392950	0.382260	0.964060
Mn181	Mn18	0.783420	0.498110	0.922010
Mn191	Mn19	0.054530	0.356660	0.583540
Mn201	Mn20	0.775210	0.464060	0.617740
Mn211	Mn21	0.281530	0.422010	0.501890
Mn221	Mn22	0.494730	0.143340	0.916460
Mn231	Mn23	0.357010	0.035940	0.882260
Mn241	Mn24	0.705430	0.077990	0.998110
H11	H1	0.589200	0.784900	0.309900
H21	H2	0.668000	0.711100	0.317500
H31	H3	0.759500	0.696600	0.363200
H41	H4	0.768000	0.756900	0.401100
H51	H5	0.613500	0.027900	0.433500
H61	H6	0.682700	0.993100	0.452700
H71	H7	0.718000	0.024600	0.359000
H81	H8	0.785400	0.996100	0.383300
H91	H9	0.710200	0.068200	0.436400
H101	H10	0.711100	0.089500	0.387300
H111	H11	0.829700	0.044200	0.418200
H121	H12	0.834700	0.059900	0.367300
H131	H13	0.768000	0.141900	0.407300
H141	H14	0.819000	0.116700	0.441700
H151	H15	0.865100	0.121800	0.389400
H161	H16	0.778400	0.914600	0.334200
H171	H17	0.895000	0.915200	0.275600
H181	H18	0.773200	0.903700	0.185100
H191	H19	0.656900	0.906900	0.246100
H201	H20	0.908000	0.937600	0.163400
H211	H21	0.932800	0.883600	0.161600
H221	H22	0.973400	0.901900	0.353900
H231	H23	0.066600	0.942100	0.352700
H241	H24	0.054600	0.985900	0.416300
H251	H25	0.941700	0.989100	0.480500
H261	H26	0.522600	0.925800	0.575000
H271	H27	0.565500	0.943100	0.606500
H281	H28	0.519800	0.877900	0.638300
H291	H29	0.581000	0.848700	0.595100
H301	H30	0.695600	0.855300	0.616300
H311	H31	0.636800	0.887800	0.657600
H321	H32	0.645600	0.792800	0.653000
H331	H33	0.585800	0.825300	0.694100
H341	H34	0.761600	0.801900	0.672900
H351	H35	0.700800	0.833100	0.714900
H361	H36	0.705500	0.780500	0.714300
H371	H37	0.209000	0.072000	0.308600
H381	H38	0.269500	0.069200	0.229800
H391	H39	0.405300	0.023800	0.199200
H401	H40	0.478500	0.982500	0.248700
H411	H41	0.456000	0.916600	0.508400
H421	H42	0.522100	0.889800	0.465000
H431	H43	0.446000	0.842000	0.515600
H441	H44	0.365100	0.872300	0.503500
H451	H45	0.504800	0.818500	0.437900
H461	H46	0.423600	0.848500	0.426100
H471	H47	0.428900	0.769700	0.484100
H481	H48	0.348600	0.799300	0.471100
H491	H49	0.426400	0.776800	0.391600
H501	H50	0.393800	0.738700	0.423700
H511	H51	0.487300	0.738600	0.413200
H521	H52	0.137300	0.980600	0.071200
H531	H53	0.033800	0.978900	0.137500
H541	H54	0.112400	0.842000	0.133600
H551	H55	0.214000	0.846400	0.067200
H561	H56	0.015600	0.879500	0.206500
H571	H57	0.989800	0.933800	0.209400
H581	H58	0.184000	0.715100	0.190100
H591	H59	0.196600	0.788900	0.182500
H601	H60	0.319300	0.803400	0.136800
H611	H61	0.426000	0.743100	0.098900
H621	H62	0.574900	0.472100	0.066500
H631	H63	0.628500	0.506900	0.047300
H641	H64	0.601600	0.475400	0.141000
H651	H65	0.664800	0.503900	0.116700
H661	H66	0.714800	0.431800	0.063600
H671	H67	0.687900	0.410500	0.112700
H681	H68	0.792100	0.455800	0.081800
H691	H69	0.761900	0.440100	0.132700
H701	H70	0.817200	0.358100	0.092700
H711	H71	0.877400	0.383300	0.058300
H721	H72	0.876300	0.378200	0.110600
H731	H73	0.527200	0.585400	0.165800
H741	H74	0.585800	0.584800	0.224400
H751	H75	0.362000	0.596300	0.314900
H761	H76	0.309900	0.593100	0.253900
H771	H77	0.509000	0.562400	0.336600
H781	H78	0.478000	0.616400	0.338400
H791	H79	0.729200	0.598100	0.146100
H801	H80	0.861400	0.557900	0.147300
H811	H81	0.956800	0.514100	0.083700
H821	H82	0.911300	0.510900	0.019500
H831	H83	0.523400	0.574200	0.925000
H841	H84	0.615100	0.556900	0.893500
H851	H85	0.536000	0.622100	0.861700
H861	H86	0.524800	0.651300	0.904900
H871	H87	0.667200	0.644700	0.883700
H881	H88	0.682200	0.612200	0.842400
H891	H89	0.591400	0.707200	0.847000
H901	H90	0.605200	0.674700	0.805900
H911	H91	0.736400	0.698100	0.827100
H921	H92	0.748800	0.666900	0.785100
H931	H93	0.700300	0.719500	0.785700
H941	H94	0.089600	0.428000	0.191400
H951	H95	0.068500	0.430800	0.270200
H961	H96	0.128300	0.476200	0.300800
H971	H97	0.209700	0.517500	0.251300
H981	H98	0.381000	0.583400	0.991600
H991	H99	0.376900	0.610200	0.035000
H1001	H100	0.303600	0.658000	0.984400
H1011	H101	0.240900	0.627700	0.996500
H1021	H102	0.261200	0.681500	0.062100
H1031	H103	0.198200	0.651500	0.073900
H1041	H104	0.182700	0.730300	0.015900
H1051	H105	0.119000	0.700700	0.028900
H1061	H106	0.094800	0.723200	0.108400
H1071	H107	0.056200	0.761300	0.076300
H1081	H108	0.139100	0.761400	0.086800
H1091	H109	0.689100	0.519400	0.428800
H1101	H110	0.650200	0.521100	0.362500
H1111	H111	0.588000	0.658000	0.366400
H1121	H112	0.627600	0.653600	0.432800
H1131	H113	0.601600	0.620500	0.293500
H1141	H114	0.633000	0.566200	0.290600
H1151	H115	0.899100	0.690100	0.284900
H1161	H116	0.985500	0.682500	0.211100
H1171	H117	0.122700	0.636800	0.196600
H1181	H118	0.169100	0.598900	0.256900
H1191	H119	0.047000	0.566500	0.527900
H1201	H120	0.135400	0.547300	0.493100
H1211	H121	0.077000	0.641000	0.524600
H1221	H122	0.168700	0.616700	0.496100
H1231	H123	0.146600	0.563600	0.568200
H1241	H124	0.098400	0.612700	0.589500
H1251	H125	0.247900	0.581800	0.544200
H1261	H126	0.202000	0.632700	0.559900
H1271	H127	0.175300	0.592700	0.641900
H1281	H128	0.260700	0.558300	0.616700
H1291	H129	0.254500	0.610600	0.621800
H1301	H130	0.112600	0.665800	0.414600
H1311	H131	0.170600	0.724400	0.415200
H1321	H132	0.958300	0.814900	0.403700
H1331	H133	0.903000	0.753900	0.406900
H1341	H134	0.071400	0.836600	0.437600
H1351	H135	0.094400	0.838400	0.383600
H1361	H136	0.327300	0.646100	0.401900
H1371	H137	0.419300	0.647300	0.442100
H1381	H138	0.470900	0.583700	0.485900
H1391	H139	0.422200	0.519500	0.489100
H1401	H140	0.097600	0.425000	0.425800
H1411	H141	0.172000	0.393500	0.443100
H1421	H142	0.158100	0.361700	0.377900
H1431	H143	0.176100	0.404900	0.348700
H1441	H144	0.311900	0.383700	0.355300
H1451	H145	0.294400	0.342400	0.387800
H1461	H146	0.298600	0.347000	0.292800
H1471	H147	0.279900	0.305900	0.325300
H1481	H148	0.434500	0.327100	0.301900
H1491	H149	0.415700	0.285100	0.333100
H1501	H150	0.419800	0.285700	0.280500
H1511	H151	0.517600	0.691400	0.572000
H1521	H152	0.499300	0.770200	0.569200
H1531	H153	0.604500	0.800800	0.523800
H1541	H154	0.727200	0.751300	0.482500
H1551	H155	0.964400	0.491600	0.416600
H1561	H156	0.987100	0.535000	0.389800
H1571	H157	0.961600	0.484400	0.342000
H1581	H158	0.868600	0.496500	0.372300
H1591	H159	0.942700	0.562100	0.318500
H1601	H160	0.849700	0.573900	0.348500
H1611	H161	0.913000	0.515900	0.269700
H1621	H162	0.819700	0.528900	0.299300
H1631	H163	0.818000	0.608400	0.276800
H1641	H164	0.817500	0.576300	0.238700
H1651	H165	0.900500	0.586800	0.238600
H1661	H166	0.208500	0.928800	0.480600
H1671	H167	0.171300	0.862500	0.478900
H1681	H168	0.246000	0.866400	0.342000
H1691	H169	0.281200	0.932800	0.346400
H1701	H170	0.222100	0.793500	0.379500
H1711	H171	0.199200	0.790600	0.433800
H1721	H172	0.374100	0.809900	0.215100
H1731	H173	0.379100	0.817500	0.288900
H1741	H174	0.456100	0.863200	0.303400
H1751	H175	0.524900	0.901100	0.243100
H1761	H176	0.641400	0.933500	0.972100
H1771	H177	0.675800	0.952700	0.006900
H1781	H178	0.742600	0.859000	0.975400
H1791	H179	0.781500	0.883300	0.003900
H1801	H180	0.778400	0.936400	0.931800
H1811	H181	0.800600	0.887300	0.910500
H1821	H182	0.873900	0.918200	0.955800
H1831	H183	0.894600	0.867300	0.940100
H1841	H184	0.909900	0.907300	0.858100
H1851	H185	0.935700	0.941700	0.883300
H1861	H186	0.986900	0.889400	0.878200
H1871	H187	0.693000	0.834200	0.085400
H1881	H188	0.810200	0.775600	0.084800
H1891	H189	0.676900	0.685100	0.096300
H1901	H190	0.563800	0.746100	0.093100
H1911	H191	0.845600	0.663400	0.062400
H1921	H192	0.816400	0.661600	0.116400
H1931	H193	0.875300	0.853900	0.098100
H1941	H194	0.008700	0.852700	0.057900
H1951	H195	0.040500	0.916300	0.014100
H1961	H196	0.930800	0.980500	0.010900
H1971	H197	0.448400	0.075000	0.074200
H1981	H198	0.508600	0.106500	0.056900
H1991	H199	0.397700	0.138300	0.122100
H2001	H200	0.429700	0.095100	0.151300
H2011	H201	0.550900	0.116300	0.144700
H2021	H202	0.524600	0.157600	0.112200
H2031	H203	0.438400	0.153000	0.207200
H2041	H204	0.411100	0.194100	0.174700
H2051	H205	0.563500	0.172900	0.198100
H2061	H206	0.533900	0.214900	0.166900
H2071	H207	0.486000	0.214300	0.219500
H2081	H208	0.281000	0.808600	0.928000
H2091	H209	0.338700	0.729800	0.930800
H2101	H210	0.429100	0.699200	0.976200
H2111	H211	0.461000	0.748700	0.017500
H2121	H212	0.372600	0.008400	0.083400
H2131	H213	0.411900	0.965000	0.110200
H2141	H214	0.288000	0.015600	0.158000
H2151	H215	0.237400	0.003500	0.127700
H2161	H216	0.323300	0.937900	0.181500
H2171	H217	0.272100	0.926100	0.151500
H2181	H218	0.198600	0.984100	0.230300
H2191	H219	0.147900	0.971100	0.200700
H2201	H220	0.203200	0.891600	0.223200
H2211	H221	0.132500	0.923700	0.261300
H2221	H222	0.225900	0.913200	0.261400
H2231	H223	0.117900	0.571200	0.019400
H2241	H224	0.012700	0.637500	0.021100
H2251	H225	0.954400	0.633600	0.158000
H2261	H226	0.060400	0.567200	0.153600
H2271	H227	0.895100	0.706500	0.120500
H2281	H228	0.923600	0.709400	0.066200
H2291	H229	0.410800	0.215100	0.690100
H2301	H230	0.332000	0.288900	0.682500
H2311	H231	0.240500	0.303400	0.636800
H2321	H232	0.232000	0.243100	0.598900
H2331	H233	0.386500	0.972100	0.566500
H2341	H234	0.317300	0.006900	0.547300
H2351	H235	0.282000	0.975400	0.641000
H2361	H236	0.214600	0.003900	0.616700
H2371	H237	0.289800	0.931800	0.563600
H2381	H238	0.288900	0.910500	0.612700
H2391	H239	0.170300	0.955800	0.581800
H2401	H240	0.165300	0.940100	0.632700
H2411	H241	0.232000	0.858100	0.592700
H2421	H242	0.181000	0.883300	0.558300
H2431	H243	0.134900	0.878200	0.610600
H2441	H244	0.221600	0.085400	0.665800
H2451	H245	0.105000	0.084800	0.724400
H2461	H246	0.226800	0.096300	0.814900
H2471	H247	0.343100	0.093100	0.753900
H2481	H248	0.092000	0.062400	0.836600
H2491	H249	0.067200	0.116400	0.838400
H2501	H250	0.026600	0.098100	0.646100
H2511	H251	0.933400	0.057900	0.647300
H2521	H252	0.945400	0.014100	0.583700
H2531	H253	0.058300	0.010900	0.519500
H2541	H254	0.477400	0.074200	0.425000
H2551	H255	0.434500	0.056900	0.393500
H2561	H256	0.480200	0.122100	0.361700
H2571	H257	0.419000	0.151300	0.404900
H2581	H258	0.304400	0.144700	0.383700
H2591	H259	0.363200	0.112200	0.342400
H2601	H260	0.354400	0.207200	0.347000
H2611	H261	0.414200	0.174700	0.305900
H2621	H262	0.238400	0.198100	0.327100
H2631	H263	0.299200	0.166900	0.285100
H2641	H264	0.294500	0.219500	0.285700
H2651	H265	0.791000	0.928000	0.691400
H2661	H266	0.730500	0.930800	0.770200
H2671	H267	0.594700	0.976200	0.800800
H2681	H268	0.521500	0.017500	0.751300
H2691	H269	0.544000	0.083400	0.491600
H2701	H270	0.477900	0.110200	0.535000
H2711	H271	0.554000	0.158000	0.484400
H2721	H272	0.634900	0.127700	0.496500
H2731	H273	0.495200	0.181500	0.562100
H2741	H274	0.576400	0.151500	0.573900
H2751	H275	0.571100	0.230300	0.515900
H2761	H276	0.651400	0.200700	0.528900
H2771	H277	0.573600	0.223200	0.608400
H2781	H278	0.606200	0.261300	0.576300
H2791	H279	0.512700	0.261400	0.586800
H2801	H280	0.862700	0.019400	0.928800
H2811	H281	0.966200	0.021100	0.862500
H2821	H282	0.887600	0.158000	0.866400
H2831	H283	0.786000	0.153600	0.932800
H2841	H284	0.984400	0.120500	0.793500
H2851	H285	0.010200	0.066200	0.790600
H2861	H286	0.816000	0.284900	0.809900
H2871	H287	0.803400	0.211100	0.817500
H2881	H288	0.680700	0.196600	0.863200
H2891	H289	0.574000	0.256900	0.901100
H2901	H290	0.425100	0.527900	0.933500
H2911	H291	0.371500	0.493100	0.952700
H2921	H292	0.398400	0.524600	0.859000
H2931	H293	0.335200	0.496100	0.883300
H2941	H294	0.285200	0.568200	0.936400
H2951	H295	0.312100	0.589500	0.887300
H2961	H296	0.207900	0.544200	0.918200
H2971	H297	0.238100	0.559900	0.867300
H2981	H298	0.182800	0.641900	0.907300
H2991	H299	0.122600	0.616700	0.941700
H3001	H300	0.123700	0.621800	0.889400
H3011	H301	0.472800	0.414600	0.834200
H3021	H302	0.414200	0.415200	0.775600
H3031	H303	0.638000	0.403700	0.685100
H3041	H304	0.690100	0.406900	0.746100
H3051	H305	0.491000	0.437600	0.663400
H3061	H306	0.522000	0.383600	0.661600
H3071	H307	0.270800	0.401900	0.853900
H3081	H308	0.138600	0.442100	0.852700
H3091	H309	0.043200	0.485900	0.916300
H3101	H310	0.088700	0.489100	0.980500
H3111	H311	0.476600	0.425800	0.075000
H3121	H312	0.384900	0.443100	0.106500
H3131	H313	0.464000	0.377900	0.138300
H3141	H314	0.475200	0.348700	0.095100
H3151	H315	0.332800	0.355300	0.116300
H3161	H316	0.317800	0.387800	0.157600
H3171	H317	0.408600	0.292800	0.153000
H3181	H318	0.394800	0.325300	0.194100
H3191	H319	0.263600	0.301900	0.172900
H3201	H320	0.251200	0.333100	0.214900
H3211	H321	0.299700	0.280500	0.214300
H3221	H322	0.910400	0.572000	0.808600
H3231	H323	0.931500	0.569200	0.729800
H3241	H324	0.871700	0.523800	0.699200
H3251	H325	0.790300	0.482500	0.748700
H3261	H326	0.619000	0.416600	0.008400
H3271	H327	0.623100	0.389800	0.965000
H3281	H328	0.696400	0.342000	0.015600
H3291	H329	0.759100	0.372300	0.003500
H3301	H330	0.738800	0.318500	0.937900
H3311	H331	0.801800	0.348500	0.926100
H3321	H332	0.817300	0.269700	0.984100
H3331	H333	0.881000	0.299300	0.971100
H3341	H334	0.905200	0.276800	0.891600
H3351	H335	0.943800	0.238700	0.923700
H3361	H336	0.860900	0.238600	0.913200
H3371	H337	0.310900	0.480600	0.571200
H3381	H338	0.349800	0.478900	0.637500
H3391	H339	0.412000	0.342000	0.633600
H3401	H340	0.372400	0.346400	0.567200
H3411	H341	0.398400	0.379500	0.706500
H3421	H342	0.367000	0.433800	0.709400
H3431	H343	0.100900	0.309900	0.715100
H3441	H344	0.014500	0.317500	0.788900
H3451	H345	0.877300	0.363200	0.803400
H3461	H346	0.830900	0.401100	0.743100
H3471	H347	0.953000	0.433500	0.472100
H3481	H348	0.864600	0.452700	0.506900
H3491	H349	0.923000	0.359000	0.475400
H3501	H350	0.831300	0.383300	0.503900
H3511	H351	0.853400	0.436400	0.431800
H3521	H352	0.901600	0.387300	0.410500
H3531	H353	0.752100	0.418200	0.455800
H3541	H354	0.798000	0.367300	0.440100
H3551	H355	0.824700	0.407300	0.358100
H3561	H356	0.739300	0.441700	0.383300
H3571	H357	0.745500	0.389400	0.378200
H3581	H358	0.887400	0.334200	0.585400
H3591	H359	0.829400	0.275600	0.584800
H3601	H360	0.041700	0.185100	0.596300
H3611	H361	0.097000	0.246100	0.593100
H3621	H362	0.928600	0.163400	0.562400
H3631	H363	0.905600	0.161600	0.616400
H3641	H364	0.672700	0.353900	0.598100
H3651	H365	0.580700	0.352700	0.557900
H3661	H366	0.529100	0.416300	0.514100
H3671	H367	0.577800	0.480500	0.510900
H3681	H368	0.902400	0.575000	0.574200
H3691	H369	0.828000	0.606500	0.556900
H3701	H370	0.841900	0.638300	0.622100
H3711	H371	0.823900	0.595100	0.651300
H3721	H372	0.688100	0.616300	0.644700
H3731	H373	0.705600	0.657600	0.612200
H3741	H374	0.701400	0.653000	0.707200
H3751	H375	0.720100	0.694100	0.674700
H3761	H376	0.565500	0.672900	0.698100
H3771	H377	0.584300	0.714900	0.666900
H3781	H378	0.580200	0.714300	0.719500
H3791	H379	0.482400	0.308600	0.428000
H3801	H380	0.500700	0.229800	0.430800
H3811	H381	0.395500	0.199200	0.476200
H3821	H382	0.272800	0.248700	0.517500
H3831	H383	0.035600	0.508400	0.583400
H3841	H384	0.012900	0.465000	0.610200
H3851	H385	0.038400	0.515600	0.658000
H3861	H386	0.131400	0.503500	0.627700
H3871	H387	0.057300	0.437900	0.681500
H3881	H388	0.150300	0.426100	0.651500
H3891	H389	0.087000	0.484100	0.730300
H3901	H390	0.180300	0.471100	0.700700
H3911	H391	0.182000	0.391600	0.723200
H3921	H392	0.182500	0.423700	0.761300
H3931	H393	0.099500	0.413200	0.761400
H3941	H394	0.791500	0.071200	0.519400
H3951	H395	0.828700	0.137500	0.521100
H3961	H396	0.754000	0.133600	0.658000
H3971	H397	0.718800	0.067200	0.653600
H3981	H398	0.777900	0.206500	0.620500
H3991	H399	0.800800	0.209400	0.566200
H4001	H400	0.625900	0.190100	0.784900
H4011	H401	0.620900	0.182500	0.711100
H4021	H402	0.543900	0.136800	0.696600
H4031	H403	0.475100	0.098900	0.756900
H4041	H404	0.358600	0.066500	0.027900
H4051	H405	0.324200	0.047300	0.993100
H4061	H406	0.257400	0.141000	0.024600
H4071	H407	0.218500	0.116700	0.996100
H4081	H408	0.221600	0.063600	0.068200
H4091	H409	0.199400	0.112700	0.089500
H4101	H410	0.126100	0.081800	0.044200
H4111	H411	0.105400	0.132700	0.059900
H4121	H412	0.090100	0.092700	0.141900
H4131	H413	0.064300	0.058300	0.116700
H4141	H414	0.013100	0.110600	0.121800
H4151	H415	0.307000	0.165800	0.914600
H4161	H416	0.189800	0.224400	0.915200
H4171	H417	0.323100	0.314900	0.903700
H4181	H418	0.436200	0.253900	0.906900
H4191	H419	0.154400	0.336600	0.937600
H4201	H420	0.183600	0.338400	0.883600
H4211	H421	0.124700	0.146100	0.901900
H4221	H422	0.991300	0.147300	0.942100
H4231	H423	0.959500	0.083700	0.985900
H4241	H424	0.069200	0.019500	0.989100
H4251	H425	0.551600	0.925000	0.925800
H4261	H426	0.491400	0.893500	0.943100
H4271	H427	0.602300	0.861700	0.877900
H4281	H428	0.570300	0.904900	0.848700
H4291	H429	0.449100	0.883700	0.855300
H4301	H430	0.475400	0.842400	0.887800
H4311	H431	0.561600	0.847000	0.792800
H4321	H432	0.588900	0.805900	0.825300
H4331	H433	0.436500	0.827100	0.801900
H4341	H434	0.466100	0.785100	0.833100
H4351	H435	0.514000	0.785700	0.780500
H4361	H436	0.719000	0.191400	0.072000
H4371	H437	0.661300	0.270200	0.069200
H4381	H438	0.570900	0.300800	0.023800
H4391	H439	0.539000	0.251300	0.982500
H4401	H440	0.627400	0.991600	0.916600
H4411	H441	0.588100	0.035000	0.889800
H4421	H442	0.712000	0.984400	0.842000
H4431	H443	0.762600	0.996500	0.872300
H4441	H444	0.676700	0.062100	0.818500
H4451	H445	0.727900	0.073900	0.848500
H4461	H446	0.801400	0.015900	0.769700
H4471	H447	0.852100	0.028900	0.799300
H4481	H448	0.796800	0.108400	0.776800
H4491	H449	0.867500	0.076300	0.738700
H4501	H450	0.774100	0.086800	0.738600
H4511	H451	0.882100	0.428800	0.980600
H4521	H452	0.987300	0.362500	0.978900
H4531	H453	0.045600	0.366400	0.842000
H4541	H454	0.939600	0.432800	0.846400
H4551	H455	0.104900	0.293500	0.879500
H4561	H456	0.076400	0.290600	0.933800
C11	C1	0.631110	0.816770	0.350410
C21	C2	0.625700	0.779550	0.328250
C31	C3	0.672650	0.735320	0.332780
C41	C4	0.727080	0.726530	0.360110
C51	C5	0.732240	0.762780	0.382340
C61	C6	0.686530	0.807930	0.378010
C71	C7	0.697670	0.844610	0.403450
C81	C8	0.646100	0.962850	0.407550
C91	C9	0.664140	0.002630	0.425090
C101	C10	0.732360	0.019550	0.388130
C111	C11	0.739900	0.064100	0.403700
C121	C12	0.803400	0.067600	0.399200
C131	C13	0.815000	0.117200	0.410600
C141	C14	0.776860	0.913310	0.303770
C151	C15	0.847300	0.913100	0.268900
C161	C16	0.847140	0.909600	0.222720
C171	C17	0.775250	0.906720	0.215180
C181	C18	0.705650	0.908300	0.252000
C191	C19	0.922800	0.909800	0.181200
C201	C20	0.901670	0.918260	0.419600
C211	C21	0.967270	0.918480	0.379980
C221	C22	0.022840	0.943110	0.379210
C231	C23	0.015960	0.969860	0.417020
C241	C24	0.948840	0.971020	0.455300
C251	C25	0.890820	0.946250	0.457910
C261	C26	0.819920	0.952130	0.499030
C271	C27	0.648850	0.912870	0.546630
C281	C28	0.571040	0.917940	0.586780
C291	C29	0.573160	0.874050	0.615230
C301	C30	0.642010	0.861550	0.639430
C311	C31	0.639480	0.819260	0.671180
C321	C32	0.708200	0.807620	0.695580
C331	C33	0.307140	0.027880	0.327240
C341	C34	0.263170	0.053670	0.296790
C351	C35	0.299640	0.052120	0.249400
C361	C36	0.380810	0.025190	0.230990
C371	C37	0.424090	0.000540	0.260880
C381	C38	0.389240	0.001540	0.309180
C391	C39	0.441010	0.973100	0.337680
C401	C40	0.421880	0.935210	0.448630
C411	C41	0.462910	0.901190	0.479990
C421	C42	0.425080	0.860530	0.491510
C431	C43	0.444710	0.829760	0.450020
C441	C44	0.408800	0.788180	0.459820
C451	C45	0.431100	0.757900	0.418300
C461	C46	0.132190	0.952140	0.083880
C471	C47	0.070650	0.951340	0.124160
C481	C48	0.063370	0.909490	0.144970
C491	C49	0.116830	0.870860	0.121880
C501	C50	0.177220	0.873640	0.081520
C511	C51	0.997500	0.907900	0.190100
C521	C52	0.298290	0.683230	0.149590
C531	C53	0.233500	0.720450	0.171750
C541	C54	0.240750	0.764680	0.167220
C551	C55	0.313720	0.773470	0.139890
C561	C56	0.377360	0.737220	0.117660
C571	C57	0.372470	0.692070	0.121990
C581	C58	0.445730	0.655390	0.096550
C591	C59	0.516500	0.537150	0.092450
C601	C60	0.591860	0.497370	0.074910
C611	C61	0.640040	0.480450	0.111870
C621	C62	0.707700	0.435900	0.096300
C631	C63	0.770200	0.432400	0.100800
C641	C64	0.842800	0.382800	0.089400
C651	C65	0.493940	0.586690	0.196230
C661	C66	0.529300	0.586900	0.231100
C671	C67	0.479460	0.590400	0.277280
C681	C68	0.397150	0.593280	0.284820
C691	C69	0.365950	0.591700	0.248000
C701	C70	0.513800	0.590200	0.318800
C711	C71	0.739530	0.581740	0.080400
C721	C72	0.765730	0.581520	0.120020
C731	C73	0.845160	0.556890	0.120790
C741	C74	0.902840	0.530140	0.082980
C751	C75	0.875160	0.528980	0.044700
C761	C76	0.794980	0.553750	0.042090
C771	C77	0.771080	0.547870	0.000970
C781	C78	0.608350	0.587130	0.953370
C791	C79	0.575760	0.582060	0.913220
C801	C80	0.562440	0.625950	0.884770
C811	C81	0.642990	0.638450	0.860570
C821	C82	0.629920	0.680740	0.828820
C831	C83	0.711400	0.692380	0.804420
C841	C84	0.162260	0.472120	0.172760
C851	C85	0.113630	0.446330	0.203210
C861	C86	0.101160	0.447880	0.250600
C871	C87	0.136990	0.474810	0.269010
C881	C88	0.185510	0.499460	0.239120
C891	C89	0.199960	0.498460	0.190820
C901	C90	0.251790	0.526900	0.162320
C911	C91	0.305720	0.564790	0.051370
C921	C92	0.344090	0.598810	0.020010
C931	C93	0.277120	0.639470	0.008490
C941	C94	0.224490	0.670240	0.049980
C951	C95	0.156800	0.711820	0.040180
C961	C96	0.107300	0.742100	0.081700
C971	C97	0.668210	0.547860	0.416120
C981	C98	0.646150	0.548660	0.375840
C991	C99	0.617830	0.590510	0.355030
C1001	C100	0.609570	0.629140	0.378120
C1011	C101	0.632380	0.626360	0.418480
C1021	C102	0.595500	0.592100	0.309900
C1031	C103	0.981520	0.649590	0.316770
C1041	C104	0.953950	0.671750	0.279550
C1051	C105	0.005430	0.667220	0.235320
C1061	C106	0.087190	0.639890	0.226530
C1071	C107	0.114580	0.617660	0.262780
C1081	C108	0.064540	0.621990	0.307930
C1091	C109	0.101120	0.596550	0.344610
C1101	C110	0.053650	0.592450	0.462850
C1111	C111	0.089230	0.574910	0.502630
C1121	C112	0.120490	0.611870	0.519550
C1131	C113	0.143600	0.596300	0.564100
C1141	C114	0.202600	0.600800	0.567600
C1151	C115	0.225600	0.589400	0.617200
C1161	C116	0.080630	0.696230	0.413310
C1171	C117	0.116200	0.731100	0.413100
C1181	C118	0.069860	0.777280	0.409600
C1191	C119	0.990430	0.784820	0.406720
C1201	C120	0.957650	0.748000	0.408300
C1211	C121	0.104000	0.818800	0.409800
C1221	C122	0.321270	0.580400	0.418260
C1231	C123	0.347250	0.620020	0.418480
C1241	C124	0.402050	0.620790	0.443110
C1251	C125	0.432980	0.582980	0.469860
C1261	C126	0.404140	0.544700	0.471020
C1271	C127	0.348730	0.542090	0.446250
C1281	C128	0.318950	0.500970	0.452130
C1291	C129	0.195480	0.453370	0.412870
C1301	C130	0.157820	0.413220	0.417940
C1311	C131	0.188390	0.384770	0.374050
C1321	C132	0.281440	0.360570	0.361550
C1331	C133	0.310660	0.328820	0.319260
C1341	C134	0.403780	0.304420	0.307620
C1351	C135	0.634380	0.672760	0.527880
C1361	C136	0.559960	0.703210	0.553670
C1371	C137	0.549040	0.750600	0.552120
C1381	C138	0.611800	0.769010	0.525190
C1391	C139	0.684970	0.739120	0.500540
C1401	C140	0.698420	0.690820	0.501540
C1411	C141	0.778690	0.662320	0.473100
C1421	C142	0.870510	0.551370	0.435210
C1431	C143	0.942900	0.520010	0.401190
C1441	C144	0.916590	0.508490	0.360530
C1451	C145	0.894730	0.549980	0.329760
C1461	C146	0.868620	0.540180	0.288180
C1471	C147	0.849400	0.581700	0.257900
C1481	C148	0.216070	0.916120	0.452140
C1491	C149	0.194810	0.875840	0.451340
C1501	C150	0.208340	0.855030	0.409490
C1511	C151	0.238710	0.878120	0.370860
C1521	C152	0.258740	0.918480	0.373640
C1531	C153	0.187600	0.809900	0.407900
C1541	C154	0.447880	0.850410	0.183230
C1551	C155	0.405250	0.828250	0.220450
C1561	C156	0.407970	0.832780	0.264680
C1571	C157	0.453610	0.860110	0.273470
C1581	C158	0.495020	0.882340	0.237220
C1591	C159	0.494460	0.878010	0.192070
C1601	C160	0.542280	0.903450	0.155390
C1611	C161	0.608950	0.907550	0.037150
C1621	C162	0.666770	0.925090	0.997370
C1631	C163	0.751910	0.888130	0.980450
C1641	C164	0.804000	0.903700	0.935900
C1651	C165	0.871000	0.899200	0.932400
C1661	C166	0.932200	0.910600	0.882800
C1671	C167	0.690170	0.803770	0.086690
C1681	C168	0.760400	0.768900	0.086900
C1691	C169	0.756740	0.722720	0.090400
C1701	C170	0.681970	0.715180	0.093280
C1711	C171	0.613950	0.752000	0.091700
C1721	C172	0.832600	0.681200	0.090200
C1731	C173	0.819930	0.919600	0.081740
C1741	C174	0.885750	0.879980	0.081520
C1751	C175	0.965950	0.879210	0.056890
C1761	C176	0.985820	0.917020	0.030140
C1771	C177	0.919860	0.955300	0.028980
C1781	C178	0.837070	0.957910	0.053750
C1791	C179	0.772050	0.999030	0.047870
C1801	C180	0.561720	0.046630	0.087130
C1811	C181	0.488980	0.086780	0.082060
C1821	C182	0.447210	0.115230	0.125950
C1831	C183	0.503560	0.139430	0.138450
C1841	C184	0.458740	0.171180	0.180740
C1851	C185	0.515820	0.195580	0.192380
C1861	C186	0.335020	0.827240	0.972120
C1871	C187	0.316840	0.796790	0.946330
C1881	C188	0.351760	0.749400	0.947880
C1891	C189	0.406000	0.730990	0.974810
C1901	C190	0.424630	0.760880	0.999460
C1911	C191	0.390780	0.809180	0.998460
C1921	C192	0.414110	0.837680	0.026900
C1931	C193	0.357090	0.948630	0.064790
C1941	C194	0.364100	0.979990	0.098810
C1951	C195	0.285610	0.991510	0.139470
C1961	C196	0.274470	0.950020	0.170240
C1971	C197	0.196980	0.959820	0.211820
C1981	C198	0.189000	0.918300	0.242100
C1991	C199	0.084330	0.583880	0.047860
C2001	C200	0.021990	0.624160	0.048660
C2011	C201	0.972860	0.644970	0.090510
C2021	C202	0.987690	0.621880	0.129140
C2031	C203	0.050860	0.581520	0.126360
C2041	C204	0.905400	0.690100	0.092100
C2051	C205	0.368890	0.183230	0.649590
C2061	C206	0.374300	0.220450	0.671750
C2071	C207	0.327350	0.264680	0.667220
C2081	C208	0.272920	0.273470	0.639890
C2091	C209	0.267760	0.237220	0.617660
C2101	C210	0.313470	0.192070	0.621990
C2111	C211	0.302330	0.155390	0.596550
C2121	C212	0.353900	0.037150	0.592450
C2131	C213	0.335860	0.997370	0.574910
C2141	C214	0.267640	0.980450	0.611870
C2151	C215	0.260100	0.935900	0.596300
C2161	C216	0.196600	0.932400	0.600800
C2171	C217	0.185000	0.882800	0.589400
C2181	C218	0.223140	0.086690	0.696230
C2191	C219	0.152700	0.086900	0.731100
C2201	C220	0.152860	0.090400	0.777280
C2211	C221	0.224750	0.093280	0.784820
C2221	C222	0.294350	0.091700	0.748000
C2231	C223	0.077200	0.090200	0.818800
C2241	C224	0.098330	0.081740	0.580400
C2251	C225	0.032730	0.081520	0.620020
C2261	C226	0.977160	0.056890	0.620790
C2271	C227	0.984040	0.030140	0.582980
C2281	C228	0.051160	0.028980	0.544700
C2291	C229	0.109180	0.053750	0.542090
C2301	C230	0.180080	0.047870	0.500970
C2311	C231	0.351150	0.087130	0.453370
C2321	C232	0.428960	0.082060	0.413220
C2331	C233	0.426840	0.125950	0.384770
C2341	C234	0.357990	0.138450	0.360570
C2351	C235	0.360520	0.180740	0.328820
C2361	C236	0.291800	0.192380	0.304420
C2371	C237	0.692860	0.972120	0.672760
C2381	C238	0.736830	0.946330	0.703210
C2391	C239	0.700360	0.947880	0.750600
C2401	C240	0.619190	0.974810	0.769010
C2411	C241	0.575910	0.999460	0.739120
C2421	C242	0.610760	0.998460	0.690820
C2431	C243	0.558990	0.026900	0.662320
C2441	C244	0.578120	0.064790	0.551370
C2451	C245	0.537090	0.098810	0.520010
C2461	C246	0.574920	0.139470	0.508490
C2471	C247	0.555290	0.170240	0.549980
C2481	C248	0.591200	0.211820	0.540180
C2491	C249	0.568900	0.242100	0.581700
C2501	C250	0.867810	0.047860	0.916120
C2511	C251	0.929350	0.048660	0.875840
C2521	C252	0.936630	0.090510	0.855030
C2531	C253	0.883170	0.129140	0.878120
C2541	C254	0.822780	0.126360	0.918480
C2551	C255	0.002500	0.092100	0.809900
C2561	C256	0.701710	0.316770	0.850410
C2571	C257	0.766500	0.279550	0.828250
C2581	C258	0.759250	0.235320	0.832780
C2591	C259	0.686280	0.226530	0.860110
C2601	C260	0.622640	0.262780	0.882340
C2611	C261	0.627530	0.307930	0.878010
C2621	C262	0.554270	0.344610	0.903450
C2631	C263	0.483500	0.462850	0.907550
C2641	C264	0.408140	0.502630	0.925090
C2651	C265	0.359960	0.519550	0.888130
C2661	C266	0.292300	0.564100	0.903700
C2671	C267	0.229800	0.567600	0.899200
C2681	C268	0.157200	0.617200	0.910600
C2691	C269	0.506060	0.413310	0.803770
C2701	C270	0.470700	0.413100	0.768900
C2711	C271	0.520540	0.409600	0.722720
C2721	C272	0.602850	0.406720	0.715180
C2731	C273	0.634050	0.408300	0.752000
C2741	C274	0.486200	0.409800	0.681200
C2751	C275	0.260470	0.418260	0.919600
C2761	C276	0.234270	0.418480	0.879980
C2771	C277	0.154840	0.443110	0.879210
C2781	C278	0.097160	0.469860	0.917020
C2791	C279	0.124840	0.471020	0.955300
C2801	C280	0.205020	0.446250	0.957910
C2811	C281	0.228920	0.452130	0.999030
C2821	C282	0.391650	0.412870	0.046630
C2831	C283	0.424240	0.417940	0.086780
C2841	C284	0.437560	0.374050	0.115230
C2851	C285	0.357010	0.361550	0.139430
C2861	C286	0.370080	0.319260	0.171180
C2871	C287	0.288600	0.307620	0.195580
C2881	C288	0.837740	0.527880	0.827240
C2891	C289	0.886370	0.553670	0.796790
C2901	C290	0.898840	0.552120	0.749400
C2911	C291	0.863010	0.525190	0.730990
C2921	C292	0.814490	0.500540	0.760880
C2931	C293	0.800040	0.501540	0.809180
C2941	C294	0.748210	0.473100	0.837680
C2951	C295	0.694280	0.435210	0.948630
C2961	C296	0.655910	0.401190	0.979990
C2971	C297	0.722880	0.360530	0.991510
C2981	C298	0.775510	0.329760	0.950020
C2991	C299	0.843200	0.288180	0.959820
C3001	C300	0.892700	0.257900	0.918300
C3011	C301	0.331790	0.452140	0.583880
C3021	C302	0.353850	0.451340	0.624160
C3031	C303	0.382170	0.409490	0.644970
C3041	C304	0.390430	0.370860	0.621880
C3051	C305	0.367620	0.373640	0.581520
C3061	C306	0.404500	0.407900	0.690100
C3071	C307	0.018480	0.350410	0.683230
C3081	C308	0.046050	0.328250	0.720450
C3091	C309	0.994570	0.332780	0.764680
C3101	C310	0.912810	0.360110	0.773470
C3111	C311	0.885420	0.382340	0.737220
C3121	C312	0.935460	0.378010	0.692070
C3131	C313	0.898880	0.403450	0.655390
C3141	C314	0.946350	0.407550	0.537150
C3151	C315	0.910770	0.425090	0.497370
C3161	C316	0.879510	0.388130	0.480450
C3171	C317	0.856400	0.403700	0.435900
C3181	C318	0.797400	0.399200	0.432400
C3191	C319	0.774400	0.410600	0.382800
C3201	C320	0.919370	0.303770	0.586690
C3211	C321	0.883800	0.268900	0.586900
C3221	C322	0.930140	0.222720	0.590400
C3231	C323	0.009570	0.215180	0.593280
C3241	C324	0.042350	0.252000	0.591700
C3251	C325	0.896000	0.181200	0.590200
C3261	C326	0.678730	0.419600	0.581740
C3271	C327	0.652750	0.379980	0.581520
C3281	C328	0.597950	0.379210	0.556890
C3291	C329	0.567020	0.417020	0.530140
C3301	C330	0.595860	0.455300	0.528980
C3311	C331	0.651270	0.457910	0.553750
C3321	C332	0.681050	0.499030	0.547870
C3331	C333	0.804520	0.546630	0.587130
C3341	C334	0.842180	0.586780	0.582060
C3351	C335	0.811610	0.615230	0.625950
C3361	C336	0.718560	0.639430	0.638450
C3371	C337	0.689340	0.671180	0.680740
C3381	C338	0.596220	0.695580	0.692380
C3391	C339	0.365620	0.327240	0.472120
C3401	C340	0.440040	0.296790	0.446330
C3411	C341	0.450960	0.249400	0.447880
C3421	C342	0.388200	0.230990	0.474810
C3431	C343	0.315030	0.260880	0.499460
C3441	C344	0.301580	0.309180	0.498460
C3451	C345	0.221310	0.337680	0.526900
C3461	C346	0.129490	0.448630	0.564790
C3471	C347	0.057100	0.479990	0.598810
C3481	C348	0.083410	0.491510	0.639470
C3491	C349	0.105270	0.450020	0.670240
C3501	C350	0.131380	0.459820	0.711820
C3511	C351	0.150600	0.418300	0.742100
C3521	C352	0.783930	0.083880	0.547860
C3531	C353	0.805190	0.124160	0.548660
C3541	C354	0.791660	0.144970	0.590510
C3551	C355	0.761290	0.121880	0.629140
C3561	C356	0.741260	0.081520	0.626360
C3571	C357	0.812400	0.190100	0.592100
C3581	C358	0.552120	0.149590	0.816770
C3591	C359	0.594750	0.171750	0.779550
C3601	C360	0.592030	0.167220	0.735320
C3611	C361	0.546390	0.139890	0.726530
C3621	C362	0.504980	0.117660	0.762780
C3631	C363	0.505540	0.121990	0.807930
C3641	C364	0.457720	0.096550	0.844610
C3651	C365	0.391050	0.092450	0.962850
C3661	C366	0.333230	0.074910	0.002630
C3671	C367	0.248090	0.111870	0.019550
C3681	C368	0.196000	0.096300	0.064100
C3691	C369	0.129000	0.100800	0.067600
C3701	C370	0.067800	0.089400	0.117200
C3711	C371	0.309830	0.196230	0.913310
C3721	C372	0.239600	0.231100	0.913100
C3731	C373	0.243260	0.277280	0.909600
C3741	C374	0.318030	0.284820	0.906720
C3751	C375	0.386050	0.248000	0.908300
C3761	C376	0.167400	0.318800	0.909800
C3771	C377	0.180070	0.080400	0.918260
C3781	C378	0.114250	0.120020	0.918480
C3791	C379	0.034050	0.120790	0.943110
C3801	C380	0.014180	0.082980	0.969860
C3811	C381	0.080140	0.044700	0.971020
C3821	C382	0.162930	0.042090	0.946250
C3831	C383	0.227950	0.000970	0.952130
C3841	C384	0.438280	0.953370	0.912870
C3851	C385	0.511020	0.913220	0.917940
C3861	C386	0.552790	0.884770	0.874050
C3871	C387	0.496440	0.860570	0.861550
C3881	C388	0.541260	0.828820	0.819260
C3891	C389	0.484180	0.804420	0.807620
C3901	C390	0.664980	0.172760	0.027880
C3911	C391	0.683160	0.203210	0.053670
C3921	C392	0.648240	0.250600	0.052120
C3931	C393	0.594000	0.269010	0.025190
C3941	C394	0.575370	0.239120	0.000540
C3951	C395	0.609220	0.190820	0.001540
C3961	C396	0.585890	0.162320	0.973100
C3971	C397	0.642910	0.051370	0.935210
C3981	C398	0.635900	0.020010	0.901190
C3991	C399	0.714390	0.008490	0.860530
C4001	C400	0.725530	0.049980	0.829760
C4011	C401	0.803020	0.040180	0.788180
C4021	C402	0.811000	0.081700	0.757900
C4031	C403	0.915670	0.416120	0.952140
C4041	C404	0.978010	0.375840	0.951340
C4051	C405	0.027140	0.355030	0.909490
C4061	C406	0.012310	0.378120	0.870860
C4071	C407	0.949140	0.418480	0.873640
C4081	C408	0.094600	0.309900	0.907900
N11	N1	0.656680	0.888480	0.397940
N21	N2	0.675740	0.920940	0.421980
N31	N3	0.705920	0.911770	0.296390
N41	N4	0.763770	0.929600	0.502660
N51	N5	0.696780	0.939400	0.543840
N61	N6	0.407250	0.969820	0.382300
N71	N7	0.460400	0.938300	0.405500
N81	N8	0.184660	0.914070	0.062410
N91	N9	0.443100	0.611520	0.102060
N101	N10	0.518660	0.579060	0.078020
N111	N11	0.414080	0.588230	0.203610
N121	N12	0.696030	0.570400	0.997340
N131	N13	0.680020	0.560600	0.956160
N141	N14	0.259370	0.530180	0.117700
N151	N15	0.304200	0.561700	0.094500
N161	N16	0.661140	0.585930	0.437590
N171	N17	0.054620	0.602060	0.388480
N181	N18	0.097720	0.578020	0.420940
N191	N19	0.002310	0.703610	0.411770
N201	N20	0.266430	0.497340	0.429600
N211	N21	0.240620	0.456160	0.439400
N221	N22	0.789550	0.617700	0.469820
N231	N23	0.865900	0.594500	0.438300
N241	N24	0.247070	0.937590	0.414070
N251	N25	0.545160	0.897940	0.111520
N261	N26	0.596680	0.921980	0.079060
N271	N27	0.617690	0.796390	0.088230
N281	N28	0.693370	0.002660	0.070400
N291	N29	0.636180	0.043840	0.060600
N301	N30	0.377070	0.882300	0.030180
N311	N31	0.398700	0.905500	0.061700
N321	N32	0.098730	0.562410	0.085930
N331	N33	0.343320	0.111520	0.602060
N341	N34	0.324260	0.079060	0.578020
N351	N35	0.294080	0.088230	0.703610
N361	N36	0.236230	0.070400	0.497340
N371	N37	0.303220	0.060600	0.456160
N381	N38	0.592750	0.030180	0.617700
N391	N39	0.539600	0.061700	0.594500
N401	N40	0.815340	0.085930	0.937590
N411	N41	0.556900	0.388480	0.897940
N421	N42	0.481340	0.420940	0.921980
N431	N43	0.585920	0.411770	0.796390
N441	N44	0.303970	0.429600	0.002660
N451	N45	0.319980	0.439400	0.043840
N461	N46	0.740630	0.469820	0.882300
N471	N47	0.695800	0.438300	0.905500
N481	N48	0.338860	0.414070	0.562410
N491	N49	0.945380	0.397940	0.611520
N501	N50	0.902280	0.421980	0.579060
N511	N51	0.997690	0.296390	0.588230
N521	N52	0.733570	0.502660	0.570400
N531	N53	0.759380	0.543840	0.560600
N541	N54	0.210450	0.382300	0.530180
N551	N55	0.134100	0.405500	0.561700
N561	N56	0.752930	0.062410	0.585930
N571	N57	0.454840	0.102060	0.888480
N581	N58	0.403320	0.078020	0.920940
N591	N59	0.382310	0.203610	0.911770
N601	N60	0.306630	0.997340	0.929600
N611	N61	0.363820	0.956160	0.939400
N621	N62	0.622930	0.117700	0.969820
N631	N63	0.601300	0.094500	0.938300
N641	N64	0.901270	0.437590	0.914070
O11	O1	0.583580	0.859070	0.343110
O21	O2	0.746660	0.833590	0.429890
O31	O3	0.605680	0.971330	0.376050
O41	O4	0.853330	0.891730	0.418970
O51	O5	0.812900	0.980100	0.530980
O61	O6	0.665000	0.880910	0.515670
O71	O7	0.265810	0.031230	0.371970
O81	O8	0.517140	0.951720	0.317940
O91	O9	0.345780	0.959640	0.466840
O101	O10	0.285760	0.640930	0.156890
O111	O11	0.510140	0.666410	0.070110
O121	O12	0.453060	0.528670	0.123950
O131	O13	0.664030	0.608270	0.081030
O141	O14	0.823980	0.519900	0.969020
O151	O15	0.561580	0.619090	0.984330
O161	O16	0.169010	0.468770	0.128030
O171	O17	0.286800	0.548280	0.182060
O181	O18	0.272260	0.540360	0.033160
O191	O19	0.926690	0.656890	0.359070
O201	O20	0.176550	0.570110	0.333590
O211	O21	0.981730	0.623950	0.471330
O221	O22	0.272300	0.581030	0.391730
O231	O23	0.343880	0.469020	0.480100
O241	O24	0.180670	0.484330	0.380910
O251	O25	0.637780	0.628030	0.531230
O261	O26	0.835080	0.682060	0.451720
O271	O27	0.812620	0.533160	0.459640
O281	O28	0.442650	0.843110	0.140930
O291	O29	0.580250	0.929890	0.166410
O301	O30	0.577010	0.876050	0.028670
O311	O31	0.745060	0.918970	0.108270
O321	O32	0.793000	0.030980	0.019900
O331	O33	0.545910	0.015670	0.119090
O341	O34	0.297040	0.871970	0.968770
O351	O35	0.468860	0.817940	0.048280
O361	O36	0.305420	0.966840	0.040360
O371	O37	0.416420	0.140930	0.656890
O381	O38	0.253340	0.166410	0.570110
O391	O39	0.394320	0.028670	0.623950
O401	O40	0.146670	0.108270	0.581030
O411	O41	0.187100	0.019900	0.469020
O421	O42	0.335000	0.119090	0.484330
O431	O43	0.734190	0.968770	0.628030
O441	O44	0.482860	0.048280	0.682060
O451	O45	0.654220	0.040360	0.533160
O461	O46	0.714240	0.359070	0.843110
O471	O47	0.489860	0.333590	0.929890
O481	O48	0.546940	0.471330	0.876050
O491	O49	0.335970	0.391730	0.918970
O501	O50	0.176020	0.480100	0.030980
O511	O51	0.438420	0.380910	0.015670
O521	O52	0.830990	0.531230	0.871970
O531	O53	0.713200	0.451720	0.817940
O541	O54	0.727740	0.459640	0.966840
O551	O55	0.073310	0.343110	0.640930
O561	O56	0.823450	0.429890	0.666410
O571	O57	0.018270	0.376050	0.528670
O581	O58	0.727700	0.418970	0.608270
O591	O59	0.656120	0.530980	0.519900
O601	O60	0.819330	0.515670	0.619090
O611	O61	0.362220	0.371970	0.468770
O621	O62	0.164920	0.317940	0.548280
O631	O63	0.187380	0.466840	0.540360
O641	O64	0.557350	0.156890	0.859070
O651	O65	0.419750	0.070110	0.833590
O661	O66	0.422990	0.123950	0.971330
O671	O67	0.254940	0.081030	0.891730
O681	O68	0.207000	0.969020	0.980100
O691	O69	0.454090	0.984330	0.880910
O701	O70	0.702960	0.128030	0.031230
O711	O71	0.531140	0.182060	0.951720
O721	O72	0.694580	0.033160	0.959640
