data_XALDEU_clean_PM
_symmetry_space_group_name_H-M	'P1'
_cell_length_a	17.204000
_cell_length_b	30.029200
_cell_length_c	30.029200
_cell_angle_alpha	85.293200
_cell_angle_beta	73.354200
_cell_angle_gamma	73.354200
_symmetry_Int_Tables_number 1

loop_
_symmetry_equiv_pos_as_xyz
'x,y,z'

loop_
_atom_site_label
_atom_site_type_symbol
_atom_site_fract_x
_atom_site_fract_y
_atom_site_fract_z
Mn11	Mn1	0.394030	0.964050	0.380610
Mn21	Mn2	0.215020	0.077910	0.499960
Mn31	Mn3	0.640850	0.856840	0.416040
Mn41	Mn4	0.238690	0.535950	0.119390
Mn51	Mn5	0.292900	0.422090	0.000040
Mn61	Mn6	0.413730	0.643160	0.083960
Mn71	Mn7	0.774640	0.619390	0.464050
Mn81	Mn8	0.714990	0.500040	0.577900
Mn91	Mn9	0.056890	0.583960	0.356840
Mn101	Mn10	0.358080	0.880610	0.035950
Mn111	Mn11	0.292930	0.999960	0.922100
Mn121	Mn12	0.497690	0.916040	0.143160
Mn131	Mn13	0.605970	0.035950	0.619390
Mn141	Mn14	0.784980	0.922090	0.500040
Mn151	Mn15	0.359150	0.143160	0.583960
Mn161	Mn16	0.761310	0.464050	0.880610
Mn171	Mn17	0.707100	0.577910	0.999960
Mn181	Mn18	0.586270	0.356840	0.916040
Mn191	Mn19	0.225360	0.380610	0.535950
Mn201	Mn20	0.285010	0.499960	0.422100
Mn211	Mn21	0.943110	0.416040	0.643160
Mn221	Mn22	0.641920	0.119390	0.964050
Mn231	Mn23	0.707070	0.000040	0.077900
Mn241	Mn24	0.502310	0.083960	0.856840
H11	H1	0.273800	0.850700	0.402300
H21	H2	0.140700	0.847600	0.446800
H31	H3	0.046000	0.912100	0.486500
H41	H4	0.087100	0.978800	0.490000
H51	H5	0.380900	0.108400	0.441400
H61	H6	0.476300	0.076700	0.424700
H71	H7	0.465000	0.139700	0.375100
H81	H8	0.474700	0.095300	0.345700
H91	H9	0.328900	0.117200	0.354000
H101	H10	0.315500	0.159800	0.386600
H111	H11	0.406700	0.152800	0.290200
H121	H12	0.394800	0.195200	0.322800
H131	H13	0.247600	0.214600	0.333200
H141	H14	0.298000	0.217400	0.279600
H151	H15	0.262300	0.173600	0.298200
H161	H16	0.084500	0.192600	0.426200
H171	H17	0.068800	0.270800	0.426800
H181	H18	0.126500	0.302200	0.474200
H191	H19	0.211900	0.251600	0.515800
H201	H20	0.378400	0.990400	0.584000
H211	H21	0.373200	0.035300	0.611300
H221	H22	0.295500	0.984200	0.659400
H231	H23	0.232400	0.996700	0.627100
H241	H24	0.189600	0.075800	0.650000
H251	H25	0.254800	0.064600	0.680800
H261	H26	0.175400	0.015900	0.729500
H271	H27	0.108000	0.031600	0.700000
H281	H28	0.124600	0.108600	0.728200
H291	H29	0.043400	0.089200	0.744600
H301	H30	0.113700	0.074900	0.772300
H311	H31	0.058400	0.153900	0.567300
H321	H32	0.950800	0.157200	0.633600
H331	H33	0.113400	0.018200	0.566800
H341	H34	0.009400	0.019500	0.636500
H351	H35	0.898500	0.116800	0.708600
H361	H36	0.916500	0.061500	0.706700
H371	H37	0.822600	0.808000	0.285000
H381	H38	0.810000	0.815700	0.209700
H391	H39	0.687600	0.863600	0.193800
H401	H40	0.577000	0.902200	0.254400
H411	H41	0.371700	0.954600	0.491400
H421	H42	0.427900	0.935700	0.526900
H431	H43	0.339900	0.881100	0.494700
H441	H44	0.399100	0.860600	0.528200
H451	H45	0.307300	0.908700	0.588100
H461	H46	0.252700	0.937000	0.554800
H471	H47	0.263000	0.845700	0.581900
H481	H48	0.204700	0.876200	0.550600
H491	H49	0.136800	0.936000	0.614200
H501	H50	0.193000	0.904500	0.645500
H511	H51	0.120800	0.887400	0.634200
H521	H52	0.692700	0.084400	0.835600
H531	H53	0.808100	0.092700	0.776700
H541	H54	0.560500	0.095300	0.746500
H551	H55	0.669800	0.101700	0.686100
H561	H56	0.816800	0.125900	0.666700
H571	H57	0.837500	0.071300	0.660900
H581	H58	0.026800	0.649300	0.097700
H591	H59	0.935100	0.652400	0.053200
H601	H60	0.944600	0.587900	0.013500
H611	H61	0.055900	0.521200	0.010000
H621	H62	0.430700	0.391600	0.058600
H631	H63	0.477700	0.423300	0.075300
H641	H64	0.479800	0.360300	0.124900
H651	H65	0.415700	0.404700	0.154300
H661	H66	0.300100	0.382800	0.146000
H671	H67	0.361900	0.340200	0.113400
H681	H68	0.349700	0.347200	0.209800
H691	H69	0.412800	0.304800	0.177200
H701	H70	0.295400	0.285400	0.166800
H711	H71	0.295000	0.282600	0.220400
H721	H72	0.234100	0.326400	0.201800
H731	H73	0.203300	0.307400	0.073800
H741	H74	0.266400	0.229200	0.073200
H751	H75	0.402900	0.197800	0.025800
H761	H76	0.479300	0.248400	0.984200
H771	H77	0.452800	0.509600	0.916000
H781	H78	0.519800	0.464700	0.888700
H791	H79	0.439100	0.515800	0.840600
H801	H80	0.356200	0.503300	0.872900
H811	H81	0.415400	0.424200	0.850000
H821	H82	0.500200	0.435400	0.819200
H831	H83	0.420800	0.484100	0.770500
H841	H84	0.339600	0.468400	0.800000
H851	H85	0.461400	0.391400	0.771800
H861	H86	0.377200	0.410800	0.755400
H871	H87	0.460900	0.425100	0.727700
H881	H88	0.279600	0.346100	0.932700
H891	H89	0.241600	0.342800	0.866400
H901	H90	0.198400	0.481800	0.933200
H911	H91	0.165400	0.480500	0.863500
H921	H92	0.223900	0.383200	0.791400
H931	H93	0.184700	0.438500	0.793300
H941	H94	0.415600	0.692000	0.215000
H951	H95	0.335400	0.684300	0.290300
H961	H96	0.245000	0.636400	0.306200
H971	H97	0.233600	0.597800	0.245600
H981	H98	0.317700	0.545400	0.008600
H991	H99	0.390500	0.564300	0.973100
H1001	H100	0.215700	0.618900	0.005300
H1011	H101	0.287900	0.639400	0.971800
H1021	H102	0.304100	0.591300	0.911900
H1031	H103	0.244500	0.563000	0.945200
H1041	H104	0.190600	0.654300	0.918100
H1051	H105	0.131500	0.623800	0.949400
H1061	H106	0.187000	0.564000	0.885800
H1071	H107	0.243000	0.595500	0.854500
H1081	H108	0.142400	0.612600	0.865800
H1091	H109	0.112700	0.415600	0.664400
H1101	H110	0.177500	0.407300	0.723300
H1111	H111	0.902300	0.404700	0.753500
H1121	H112	0.957600	0.398300	0.813900
H1131	H113	0.109400	0.374100	0.833300
H1141	H114	0.069700	0.428700	0.839100
H1151	H115	0.676100	0.597700	0.350700
H1161	H116	0.587500	0.553200	0.347600
H1171	H117	0.532500	0.513500	0.412100
H1181	H118	0.577100	0.510000	0.478800
H1191	H119	0.822300	0.558600	0.608400
H1201	H120	0.901000	0.575300	0.576700
H1211	H121	0.840100	0.624900	0.639700
H1221	H122	0.820400	0.654300	0.595300
H1231	H123	0.682900	0.646000	0.617200
H1241	H124	0.702100	0.613400	0.659800
H1251	H125	0.696900	0.709800	0.652800
H1261	H126	0.717600	0.677200	0.695200
H1271	H127	0.580800	0.666800	0.714600
H1281	H128	0.577600	0.720400	0.717400
H1291	H129	0.560500	0.701800	0.673600
H1301	H130	0.510700	0.573800	0.692600
H1311	H131	0.495600	0.573200	0.770800
H1321	H132	0.600700	0.525800	0.802200
H1331	H133	0.727700	0.484200	0.751600
H1341	H134	0.962400	0.416000	0.490400
H1351	H135	0.984500	0.388700	0.535300
H1361	H136	0.954900	0.340600	0.484200
H1371	H137	0.859500	0.372900	0.496700
H1381	H138	0.839600	0.350000	0.575800
H1391	H139	0.935600	0.319200	0.564600
H1401	H140	0.904900	0.270500	0.515900
H1411	H141	0.808000	0.300000	0.531600
H1421	H142	0.852800	0.271800	0.608600
H1431	H143	0.788000	0.255400	0.589200
H1441	H144	0.886000	0.227700	0.574900
H1451	H145	0.625700	0.432700	0.653900
H1461	H146	0.584400	0.366400	0.657200
H1471	H147	0.680200	0.433200	0.518200
H1481	H148	0.645900	0.363500	0.519500
H1491	H149	0.607100	0.291400	0.616800
H1501	H150	0.623200	0.293300	0.561500
H1511	H151	0.107600	0.715000	0.308000
H1521	H152	0.019700	0.790300	0.315700
H1531	H153	0.881400	0.806200	0.363600
H1541	H154	0.831400	0.745600	0.402200
H1551	H155	0.863100	0.508600	0.454600
H1561	H156	0.954800	0.473100	0.435700
H1571	H157	0.834600	0.505300	0.381100
H1581	H158	0.927300	0.471800	0.360600
H1591	H159	0.895400	0.411900	0.408700
H1601	H160	0.807500	0.445200	0.437000
H1611	H161	0.844900	0.418100	0.345700
H1621	H162	0.755300	0.449400	0.376200
H1631	H163	0.751000	0.385800	0.436000
H1641	H164	0.838500	0.354500	0.404500
H1651	H165	0.755000	0.365800	0.387400
H1661	H166	0.528300	0.164400	0.584400
H1671	H167	0.584800	0.223300	0.592700
H1681	H168	0.307000	0.253500	0.595300
H1691	H169	0.355900	0.313900	0.601700
H1701	H170	0.483500	0.333300	0.625900
H1711	H171	0.498400	0.339100	0.571300
H1721	H172	0.124500	0.902300	0.149300
H1731	H173	0.988300	0.946800	0.152400
H1741	H174	0.958100	0.986500	0.087900
H1751	H175	0.065900	0.990000	0.021200
H1761	H176	0.489300	0.941400	0.891600
H1771	H177	0.553000	0.924700	0.923300
H1781	H178	0.604700	0.875100	0.860300
H1791	H179	0.570000	0.845700	0.904700
H1801	H180	0.446100	0.854000	0.882800
H1811	H181	0.475300	0.886600	0.840200
H1821	H182	0.559500	0.790200	0.847200
H1831	H183	0.590000	0.822800	0.804800
H1841	H184	0.462200	0.833200	0.785400
H1851	H185	0.515400	0.779600	0.782600
H1861	H186	0.435900	0.798200	0.826400
H1871	H187	0.277100	0.926200	0.807400
H1881	H188	0.339600	0.926800	0.729200
H1891	H189	0.428700	0.974200	0.697800
H1901	H190	0.463500	0.015800	0.748400
H1911	H191	0.368800	0.084000	0.009600
H1921	H192	0.408500	0.111300	0.964700
H1931	H193	0.279700	0.159400	0.015800
H1941	H194	0.229100	0.127100	0.003300
H1951	H195	0.265400	0.150000	0.924200
H1961	H196	0.319400	0.180800	0.935400
H1971	H197	0.191300	0.229500	0.984100
H1981	H198	0.139600	0.200000	0.968400
H1991	H199	0.233200	0.228200	0.891400
H2001	H200	0.132600	0.244600	0.910800
H2011	H201	0.188600	0.272300	0.925100
H2021	H202	0.212300	0.067300	0.846100
H2031	H203	0.108000	0.133600	0.842800
H2041	H204	0.131600	0.066800	0.981800
H2051	H205	0.028900	0.136500	0.980500
H2061	H206	0.015300	0.208600	0.883200
H2071	H207	0.978000	0.206700	0.938500
H2081	H208	0.630600	0.785000	0.192000
H2091	H209	0.625700	0.709700	0.184300
H2101	H210	0.551200	0.693800	0.136400
H2111	H211	0.479200	0.754400	0.097800
H2121	H212	0.326300	0.991400	0.045400
H2131	H213	0.363600	0.026900	0.064300
H2141	H214	0.221000	0.994700	0.118900
H2151	H215	0.259700	0.028200	0.139400
H2161	H216	0.216000	0.088100	0.091300
H2171	H217	0.189700	0.054800	0.063000
H2181	H218	0.108700	0.081900	0.154300
H2191	H219	0.080900	0.050600	0.123800
H2201	H220	0.072800	0.114200	0.064000
H2211	H221	0.097500	0.145500	0.095500
H2221	H222	0.008200	0.134200	0.112600
H2231	H223	0.777100	0.335600	0.915600
H2241	H224	0.900800	0.276700	0.907300
H2251	H225	0.655800	0.246500	0.904700
H2261	H226	0.771500	0.186100	0.898300
H2271	H227	0.942700	0.166700	0.874100
H2281	H228	0.908800	0.160900	0.928700
H2291	H229	0.726200	0.149300	0.597700
H2301	H230	0.859300	0.152400	0.553200
H2311	H231	0.954000	0.087900	0.513500
H2321	H232	0.912900	0.021200	0.510000
H2331	H233	0.619100	0.891600	0.558600
H2341	H234	0.523700	0.923300	0.575300
H2351	H235	0.535000	0.860300	0.624900
H2361	H236	0.525300	0.904700	0.654300
H2371	H237	0.671100	0.882800	0.646000
H2381	H238	0.684500	0.840200	0.613400
H2391	H239	0.593300	0.847200	0.709800
H2401	H240	0.605200	0.804800	0.677200
H2411	H241	0.752400	0.785400	0.666800
H2421	H242	0.702000	0.782600	0.720400
H2431	H243	0.737700	0.826400	0.701800
H2441	H244	0.915500	0.807400	0.573800
H2451	H245	0.931200	0.729200	0.573200
H2461	H246	0.873500	0.697800	0.525800
H2471	H247	0.788100	0.748400	0.484200
H2481	H248	0.621600	0.009600	0.416000
H2491	H249	0.626800	0.964700	0.388700
H2501	H250	0.704500	0.015800	0.340600
H2511	H251	0.767600	0.003300	0.372900
H2521	H252	0.810400	0.924200	0.350000
H2531	H253	0.745200	0.935400	0.319200
H2541	H254	0.824600	0.984100	0.270500
H2551	H255	0.892000	0.968400	0.300000
H2561	H256	0.875400	0.891400	0.271800
H2571	H257	0.956600	0.910800	0.255400
H2581	H258	0.886300	0.925100	0.227700
H2591	H259	0.941600	0.846100	0.432700
H2601	H260	0.049200	0.842800	0.366400
H2611	H261	0.886600	0.981800	0.433200
H2621	H262	0.990600	0.980500	0.363500
H2631	H263	0.101500	0.883200	0.291400
H2641	H264	0.083500	0.938500	0.293300
H2651	H265	0.177400	0.192000	0.715000
H2661	H266	0.190000	0.184300	0.790300
H2671	H267	0.312400	0.136400	0.806200
H2681	H268	0.423000	0.097800	0.745600
H2691	H269	0.628300	0.045400	0.508600
H2701	H270	0.572100	0.064300	0.473100
H2711	H271	0.660100	0.118900	0.505300
H2721	H272	0.600900	0.139400	0.471800
H2731	H273	0.692700	0.091300	0.411900
H2741	H274	0.747300	0.063000	0.445200
H2751	H275	0.737000	0.154300	0.418100
H2761	H276	0.795300	0.123800	0.449400
H2771	H277	0.863200	0.064000	0.385800
H2781	H278	0.807000	0.095500	0.354500
H2791	H279	0.879200	0.112600	0.365800
H2801	H280	0.307300	0.915600	0.164400
H2811	H281	0.191900	0.907300	0.223300
H2821	H282	0.439500	0.904700	0.253500
H2831	H283	0.330200	0.898300	0.313900
H2841	H284	0.183200	0.874100	0.333300
H2851	H285	0.162500	0.928700	0.339100
H2861	H286	0.973200	0.350700	0.902300
H2871	H287	0.064900	0.347600	0.946800
H2881	H288	0.055400	0.412100	0.986500
H2891	H289	0.944100	0.478800	0.990000
H2901	H290	0.569300	0.608400	0.941400
H2911	H291	0.522300	0.576700	0.924700
H2921	H292	0.520200	0.639700	0.875100
H2931	H293	0.584300	0.595300	0.845700
H2941	H294	0.699900	0.617200	0.854000
H2951	H295	0.638100	0.659800	0.886600
H2961	H296	0.650300	0.652800	0.790200
H2971	H297	0.587200	0.695200	0.822800
H2981	H298	0.704600	0.714600	0.833200
H2991	H299	0.705000	0.717400	0.779600
H3001	H300	0.765900	0.673600	0.798200
H3011	H301	0.796700	0.692600	0.926200
H3021	H302	0.733600	0.770800	0.926800
H3031	H303	0.597100	0.802200	0.974200
H3041	H304	0.520700	0.751600	0.015800
H3051	H305	0.547200	0.490400	0.084000
H3061	H306	0.480200	0.535300	0.111300
H3071	H307	0.560900	0.484200	0.159400
H3081	H308	0.643800	0.496700	0.127100
H3091	H309	0.584600	0.575800	0.150000
H3101	H310	0.499800	0.564600	0.180800
H3111	H311	0.579200	0.515900	0.229500
H3121	H312	0.660400	0.531600	0.200000
H3131	H313	0.538600	0.608600	0.228200
H3141	H314	0.622800	0.589200	0.244600
H3151	H315	0.539100	0.574900	0.272300
H3161	H316	0.720400	0.653900	0.067300
H3171	H317	0.758400	0.657200	0.133600
H3181	H318	0.801600	0.518200	0.066800
H3191	H319	0.834600	0.519500	0.136500
H3201	H320	0.776100	0.616800	0.208600
H3211	H321	0.815300	0.561500	0.206700
H3221	H322	0.584400	0.308000	0.785000
H3231	H323	0.664600	0.315700	0.709700
H3241	H324	0.755000	0.363600	0.693800
H3251	H325	0.766400	0.402200	0.754400
H3261	H326	0.682300	0.454600	0.991400
H3271	H327	0.609500	0.435700	0.026900
H3281	H328	0.784300	0.381100	0.994700
H3291	H329	0.712100	0.360600	0.028200
H3301	H330	0.695900	0.408700	0.088100
H3311	H331	0.755500	0.437000	0.054800
H3321	H332	0.809400	0.345700	0.081900
H3331	H333	0.868500	0.376200	0.050600
H3341	H334	0.813000	0.436000	0.114200
H3351	H335	0.757000	0.404500	0.145500
H3361	H336	0.857600	0.387400	0.134200
H3371	H337	0.887300	0.584400	0.335600
H3381	H338	0.822500	0.592700	0.276700
H3391	H339	0.097700	0.595300	0.246500
H3401	H340	0.042400	0.601700	0.186100
H3411	H341	0.890600	0.625900	0.166700
H3421	H342	0.930300	0.571300	0.160900
H3431	H343	0.323900	0.402300	0.649300
H3441	H344	0.412500	0.446800	0.652400
H3451	H345	0.467500	0.486500	0.587900
H3461	H346	0.422900	0.490000	0.521200
H3471	H347	0.177700	0.441400	0.391600
H3481	H348	0.099000	0.424700	0.423300
H3491	H349	0.159900	0.375100	0.360300
H3501	H350	0.179600	0.345700	0.404700
H3511	H351	0.317100	0.354000	0.382800
H3521	H352	0.297900	0.386600	0.340200
H3531	H353	0.303100	0.290200	0.347200
H3541	H354	0.282400	0.322800	0.304800
H3551	H355	0.419200	0.333200	0.285400
H3561	H356	0.422400	0.279600	0.282600
H3571	H357	0.439500	0.298200	0.326400
H3581	H358	0.489300	0.426200	0.307400
H3591	H359	0.504400	0.426800	0.229200
H3601	H360	0.399300	0.474200	0.197800
H3611	H361	0.272300	0.515800	0.248400
H3621	H362	0.037600	0.584000	0.509600
H3631	H363	0.015500	0.611300	0.464700
H3641	H364	0.045100	0.659400	0.515800
H3651	H365	0.140500	0.627100	0.503300
H3661	H366	0.160400	0.650000	0.424200
H3671	H367	0.064400	0.680800	0.435400
H3681	H368	0.095100	0.729500	0.484100
H3691	H369	0.192000	0.700000	0.468400
H3701	H370	0.147200	0.728200	0.391400
H3711	H371	0.212000	0.744600	0.410800
H3721	H372	0.114000	0.772300	0.425100
H3731	H373	0.374300	0.567300	0.346100
H3741	H374	0.415600	0.633600	0.342800
H3751	H375	0.319800	0.566800	0.481800
H3761	H376	0.354100	0.636500	0.480500
H3771	H377	0.392900	0.708600	0.383200
H3781	H378	0.376800	0.706700	0.438500
H3791	H379	0.892400	0.285000	0.692000
H3801	H380	0.980300	0.209700	0.684300
H3811	H381	0.118600	0.193800	0.636400
H3821	H382	0.168600	0.254400	0.597800
H3831	H383	0.136900	0.491400	0.545400
H3841	H384	0.045200	0.526900	0.564300
H3851	H385	0.165400	0.494700	0.618900
H3861	H386	0.072700	0.528200	0.639400
H3871	H387	0.104600	0.588100	0.591300
H3881	H388	0.192500	0.554800	0.563000
H3891	H389	0.155100	0.581900	0.654300
H3901	H390	0.244700	0.550600	0.623800
H3911	H391	0.249000	0.614200	0.564000
H3921	H392	0.161500	0.645500	0.595500
H3931	H393	0.245000	0.634200	0.612600
H3941	H394	0.471700	0.835600	0.415600
H3951	H395	0.415200	0.776700	0.407300
H3961	H396	0.693000	0.746500	0.404700
H3971	H397	0.644100	0.686100	0.398300
H3981	H398	0.516500	0.666700	0.374100
H3991	H399	0.501600	0.660900	0.428700
H4001	H400	0.875500	0.097700	0.850700
H4011	H401	0.011700	0.053200	0.847600
H4021	H402	0.041900	0.013500	0.912100
H4031	H403	0.934100	0.010000	0.978800
H4041	H404	0.510700	0.058600	0.108400
H4051	H405	0.447000	0.075300	0.076700
H4061	H406	0.395300	0.124900	0.139700
H4071	H407	0.430000	0.154300	0.095300
H4081	H408	0.553900	0.146000	0.117200
H4091	H409	0.524700	0.113400	0.159800
H4101	H410	0.440500	0.209800	0.152800
H4111	H411	0.410000	0.177200	0.195200
H4121	H412	0.537800	0.166800	0.214600
H4131	H413	0.484600	0.220400	0.217400
H4141	H414	0.564100	0.201800	0.173600
H4151	H415	0.722900	0.073800	0.192600
H4161	H416	0.660400	0.073200	0.270800
H4171	H417	0.571300	0.025800	0.302200
H4181	H418	0.536500	0.984200	0.251600
H4191	H419	0.631200	0.916000	0.990400
H4201	H420	0.591500	0.888700	0.035300
H4211	H421	0.720300	0.840600	0.984200
H4221	H422	0.770900	0.872900	0.996700
H4231	H423	0.734600	0.850000	0.075800
H4241	H424	0.680600	0.819200	0.064600
H4251	H425	0.808700	0.770500	0.015900
H4261	H426	0.860400	0.800000	0.031600
H4271	H427	0.766800	0.771800	0.108600
H4281	H428	0.867400	0.755400	0.089200
H4291	H429	0.811400	0.727700	0.074900
H4301	H430	0.787700	0.932700	0.153900
H4311	H431	0.892000	0.866400	0.157200
H4321	H432	0.868400	0.933200	0.018200
H4331	H433	0.971100	0.863500	0.019500
H4341	H434	0.984700	0.791400	0.116800
H4351	H435	0.022000	0.793300	0.061500
H4361	H436	0.369400	0.215000	0.808000
H4371	H437	0.374300	0.290300	0.815700
H4381	H438	0.448800	0.306200	0.863600
H4391	H439	0.520800	0.245600	0.902200
H4401	H440	0.673700	0.008600	0.954600
H4411	H441	0.636400	0.973100	0.935700
H4421	H442	0.779000	0.005300	0.881100
H4431	H443	0.740300	0.971800	0.860600
H4441	H444	0.784000	0.911900	0.908700
H4451	H445	0.810300	0.945200	0.937000
H4461	H446	0.891300	0.918100	0.845700
H4471	H447	0.919100	0.949400	0.876200
H4481	H448	0.927200	0.885800	0.936000
H4491	H449	0.902500	0.854500	0.904500
H4501	H450	0.991800	0.865800	0.887400
H4511	H451	0.222900	0.664400	0.084400
H4521	H452	0.099200	0.723300	0.092700
H4531	H453	0.344200	0.753500	0.095300
H4541	H454	0.228500	0.813900	0.101700
H4551	H455	0.057300	0.833300	0.125900
H4561	H456	0.091200	0.839100	0.071300
C11	C1	0.260700	0.918160	0.418040
C21	C2	0.235930	0.877260	0.419480
C31	C3	0.156800	0.875500	0.445700
C41	C4	0.101600	0.913200	0.470200
C51	C5	0.125350	0.953200	0.471500
C61	C6	0.205690	0.956220	0.445600
C71	C7	0.227360	0.998570	0.451110
C81	C8	0.391760	0.047790	0.410690
C91	C9	0.422650	0.088130	0.415970
C101	C10	0.436740	0.116280	0.371640
C111	C11	0.355100	0.140730	0.359670
C121	C12	0.367900	0.171900	0.317300
C131	C13	0.287000	0.196500	0.306100
C141	C14	0.160040	0.173180	0.470140
C151	C15	0.111100	0.204340	0.444460
C161	C16	0.100770	0.250810	0.445250
C171	C17	0.135960	0.269510	0.472570
C181	C18	0.185700	0.239310	0.497690
C191	C19	0.197870	0.191640	0.497020
C201	C20	0.250500	0.162840	0.526160
C211	C21	0.303720	0.050780	0.563580
C221	C22	0.339880	0.019740	0.599100
C231	C23	0.269800	0.008730	0.639670
C241	C24	0.216800	0.051780	0.669620
C251	C25	0.149000	0.041700	0.711300
C261	C26	0.104000	0.081900	0.741500
C271	C27	0.048480	0.125750	0.581090
C281	C28	0.985120	0.127780	0.621180
C291	C29	0.080910	0.047340	0.581040
C301	C30	0.018300	0.047900	0.622700
C311	C31	0.969900	0.089300	0.643700
C321	C32	0.901400	0.090800	0.689400
C331	C33	0.706190	0.850080	0.316740
C341	C34	0.771800	0.827240	0.279360
C351	C35	0.764710	0.831940	0.234240
C361	C36	0.692170	0.860100	0.224760
C371	C37	0.626780	0.882820	0.260820
C381	C38	0.631350	0.878280	0.307020
C391	C39	0.556770	0.903980	0.343680
C401	C40	0.485320	0.907910	0.461450
C411	C41	0.409570	0.926550	0.501510
C421	C42	0.360100	0.889100	0.519900
C431	C43	0.285800	0.905600	0.561600
C441	C44	0.232500	0.877700	0.574900
C451	C45	0.163800	0.904000	0.622000
C461	C46	0.688600	0.088300	0.804500
C471	C47	0.757800	0.092100	0.769900
C481	C48	0.612110	0.094410	0.752770
C491	C49	0.676430	0.097680	0.716660
C501	C50	0.752300	0.095200	0.724000
C511	C51	0.830700	0.095900	0.682900
C521	C52	0.096900	0.581840	0.081960
C531	C53	0.032670	0.622740	0.080520
C541	C54	0.978000	0.624500	0.054300
C551	C55	0.985000	0.586800	0.029800
C561	C56	0.050050	0.546800	0.028500
C571	C57	0.107510	0.543780	0.054400
C581	C58	0.177040	0.501430	0.048890
C591	C59	0.350240	0.452210	0.089310
C601	C60	0.426750	0.411870	0.084030
C611	C61	0.424660	0.383720	0.128360
C621	C62	0.355500	0.359270	0.140330
C631	C63	0.357100	0.328100	0.182700
C641	C64	0.289600	0.303500	0.193900
C651	C65	0.303360	0.326820	0.029860
C661	C66	0.259900	0.295660	0.055540
C671	C67	0.296830	0.249190	0.054750
C681	C68	0.378040	0.230490	0.027430
C691	C69	0.422700	0.260690	0.002310
C701	C70	0.386530	0.308360	0.002980
C711	C71	0.439500	0.337160	0.973840
C721	C72	0.418080	0.449220	0.936420
C731	C73	0.458720	0.480260	0.900900
C741	C74	0.418200	0.491270	0.860330
C751	C75	0.438200	0.448220	0.830380
C761	C76	0.402000	0.458300	0.788700
C771	C77	0.427400	0.418100	0.758500
C781	C78	0.255320	0.374250	0.918910
C791	C79	0.234080	0.372220	0.878820
C801	C80	0.209290	0.452660	0.918960
C811	C81	0.188900	0.452100	0.877300
C821	C82	0.202900	0.410700	0.856300
C831	C83	0.181600	0.409200	0.810600
C841	C84	0.373010	0.649920	0.183260
C851	C85	0.378400	0.672760	0.220640
C861	C86	0.330890	0.668060	0.265760
C871	C87	0.277030	0.639900	0.275240
C881	C88	0.270420	0.617180	0.239180
C891	C89	0.316650	0.621720	0.192980
C901	C90	0.304430	0.596020	0.156320
C911	C91	0.354680	0.592090	0.038550
C921	C92	0.337630	0.573450	0.998490
C931	C93	0.269100	0.610900	0.980100
C941	C94	0.253000	0.594400	0.938400
C951	C95	0.185100	0.622300	0.925100
C961	C96	0.189800	0.596000	0.878000
C971	C97	0.081400	0.411700	0.695500
C981	C98	0.119800	0.407900	0.730100
C991	C99	0.959290	0.405590	0.747230
C1001	C100	0.990770	0.402320	0.783340
C1011	C101	0.071500	0.404800	0.776000
C1021	C102	0.109500	0.404100	0.817100
C1031	C103	0.678740	0.581960	0.418160
C1041	C104	0.655410	0.580520	0.377260
C1051	C105	0.602500	0.554300	0.375500
C1061	C106	0.571800	0.529800	0.413200
C1071	C107	0.596850	0.528500	0.453200
C1081	C108	0.651290	0.554400	0.456220
C1091	C109	0.678470	0.548890	0.498570
C1101	C110	0.802450	0.589310	0.547790
C1111	C111	0.838620	0.584030	0.588130
C1121	C112	0.808380	0.628360	0.616280
C1131	C113	0.714770	0.640330	0.640730
C1141	C114	0.685200	0.682700	0.671900
C1151	C115	0.593100	0.693900	0.696500
C1161	C116	0.630180	0.529860	0.673180
C1171	C117	0.555560	0.555540	0.704340
C1181	C118	0.546020	0.554750	0.750810
C1191	C119	0.608530	0.527430	0.769510
C1201	C120	0.683390	0.502310	0.739310
C1211	C121	0.694890	0.502980	0.691640
C1221	C122	0.776660	0.473840	0.662840
C1231	C123	0.867300	0.436420	0.550780
C1241	C124	0.938980	0.400900	0.519740
C1251	C125	0.909470	0.360330	0.508730
C1261	C126	0.886420	0.330380	0.551780
C1271	C127	0.860300	0.288700	0.541700
C1281	C128	0.845500	0.258500	0.581900
C1291	C129	0.629570	0.418910	0.625750
C1301	C130	0.606300	0.378820	0.627780
C1311	C131	0.661950	0.418960	0.547340
C1321	C132	0.641000	0.377300	0.547900
C1331	C133	0.613600	0.356300	0.589300
C1341	C134	0.590800	0.310600	0.590800
C1351	C135	0.022930	0.683260	0.350080
C1361	C136	0.051160	0.720640	0.327240
C1371	C137	0.998950	0.765760	0.331940
C1381	C138	0.916930	0.775240	0.360100
C1391	C139	0.887600	0.739180	0.382820
C1401	C140	0.938370	0.692980	0.378280
C1411	C141	0.900450	0.656320	0.403980
C1421	C142	0.946770	0.538550	0.407910
C1431	C143	0.911080	0.498490	0.426550
C1441	C144	0.880000	0.480100	0.389100
C1451	C145	0.847400	0.438400	0.405600
C1461	C146	0.807400	0.425100	0.377700
C1471	C147	0.785800	0.378000	0.404000
C1481	C148	0.493100	0.195500	0.588300
C1491	C149	0.527700	0.230100	0.592100
C1501	C150	0.364880	0.247230	0.594410
C1511	C151	0.393090	0.283340	0.597680
C1521	C152	0.476300	0.276000	0.595200
C1531	C153	0.513600	0.317100	0.595900
C1541	C154	0.178860	0.918040	0.081840
C1551	C155	0.113190	0.919480	0.122740
C1561	C156	0.032300	0.945700	0.124500
C1571	C157	0.014800	0.970200	0.086800
C1581	C158	0.078550	0.971500	0.046800
C1591	C159	0.161910	0.945600	0.043780
C1601	C160	0.225930	0.951110	0.001430
C1611	C161	0.439550	0.910690	0.952210
C1621	C162	0.510780	0.915970	0.911870
C1631	C163	0.553020	0.871640	0.883720
C1641	C164	0.495830	0.859670	0.859270
C1651	C165	0.539800	0.817300	0.828100
C1661	C166	0.483500	0.806100	0.803500
C1671	C167	0.333220	0.970140	0.826820
C1681	C168	0.315440	0.944460	0.795660
C1691	C169	0.351580	0.945250	0.749190
C1701	C170	0.405470	0.972570	0.730490
C1711	C171	0.425010	0.997690	0.760690
C1721	C172	0.389510	0.997020	0.808360
C1731	C173	0.413340	0.026160	0.837160
C1741	C174	0.354500	0.063580	0.949220
C1751	C175	0.359620	0.099100	0.980260
C1761	C176	0.278530	0.139670	0.991270
C1771	C177	0.268580	0.169620	0.948220
C1781	C178	0.190700	0.211300	0.958300
C1791	C179	0.185900	0.241500	0.918100
C1801	C180	0.174230	0.081090	0.874250
C1811	C181	0.112900	0.121180	0.872220
C1821	C182	0.128250	0.081040	0.952660
C1831	C183	0.066200	0.122700	0.952100
C1841	C184	0.059200	0.143700	0.910700
C1851	C185	0.992200	0.189400	0.909200
C1861	C186	0.556270	0.816740	0.149920
C1871	C187	0.599040	0.779360	0.172760
C1881	C188	0.596650	0.734240	0.168060
C1891	C189	0.552270	0.724760	0.139900
C1901	C190	0.509600	0.760820	0.117180
C1911	C191	0.509630	0.807020	0.121720
C1921	C192	0.460750	0.843680	0.096020
C1931	C193	0.393230	0.961450	0.092090
C1941	C194	0.336120	0.001510	0.073450
C1951	C195	0.249200	0.019900	0.110900
C1961	C196	0.191400	0.061600	0.094400
C1971	C197	0.110200	0.074900	0.122300
C1981	C198	0.067800	0.122000	0.096000
C1991	C199	0.776900	0.304500	0.911700
C2001	C200	0.849900	0.269900	0.907900
C2011	C201	0.706520	0.252770	0.905590
C2021	C202	0.774110	0.216660	0.902320
C2031	C203	0.847500	0.224000	0.904800
C2041	C204	0.926600	0.182900	0.904100
C2051	C205	0.739300	0.081840	0.581960
C2061	C206	0.764070	0.122740	0.580520
C2071	C207	0.843200	0.124500	0.554300
C2081	C208	0.898400	0.086800	0.529800
C2091	C209	0.874650	0.046800	0.528500
C2101	C210	0.794310	0.043780	0.554400
C2111	C211	0.772640	0.001430	0.548890
C2121	C212	0.608240	0.952210	0.589310
C2131	C213	0.577350	0.911870	0.584030
C2141	C214	0.563260	0.883720	0.628360
C2151	C215	0.644900	0.859270	0.640330
C2161	C216	0.632100	0.828100	0.682700
C2171	C217	0.713000	0.803500	0.693900
C2181	C218	0.839960	0.826820	0.529860
C2191	C219	0.888900	0.795660	0.555540
C2201	C220	0.899230	0.749190	0.554750
C2211	C221	0.864040	0.730490	0.527430
C2221	C222	0.814300	0.760690	0.502310
C2231	C223	0.802130	0.808360	0.502980
C2241	C224	0.749500	0.837160	0.473840
C2251	C225	0.696280	0.949220	0.436420
C2261	C226	0.660120	0.980260	0.400900
C2271	C227	0.730200	0.991270	0.360330
C2281	C228	0.783200	0.948220	0.330380
C2291	C229	0.851000	0.958300	0.288700
C2301	C230	0.896000	0.918100	0.258500
C2311	C231	0.951520	0.874250	0.418910
C2321	C232	0.014880	0.872220	0.378820
C2331	C233	0.919090	0.952660	0.418960
C2341	C234	0.981700	0.952100	0.377300
C2351	C235	0.030100	0.910700	0.356300
C2361	C236	0.098600	0.909200	0.310600
C2371	C237	0.293810	0.149920	0.683260
C2381	C238	0.228200	0.172760	0.720640
C2391	C239	0.235290	0.168060	0.765760
C2401	C240	0.307830	0.139900	0.775240
C2411	C241	0.373220	0.117180	0.739180
C2421	C242	0.368650	0.121720	0.692980
C2431	C243	0.443230	0.096020	0.656320
C2441	C244	0.514680	0.092090	0.538550
C2451	C245	0.590430	0.073450	0.498490
C2461	C246	0.639900	0.110900	0.480100
C2471	C247	0.714200	0.094400	0.438400
C2481	C248	0.767500	0.122300	0.425100
C2491	C249	0.836200	0.096000	0.378000
C2501	C250	0.311400	0.911700	0.195500
C2511	C251	0.242200	0.907900	0.230100
C2521	C252	0.387890	0.905590	0.247230
C2531	C253	0.323570	0.902320	0.283340
C2541	C254	0.247700	0.904800	0.276000
C2551	C255	0.169300	0.904100	0.317100
C2561	C256	0.903100	0.418160	0.918040
C2571	C257	0.967330	0.377260	0.919480
C2581	C258	0.022000	0.375500	0.945700
C2591	C259	0.015000	0.413200	0.970200
C2601	C260	0.949950	0.453200	0.971500
C2611	C261	0.892490	0.456220	0.945600
C2621	C262	0.822960	0.498570	0.951110
C2631	C263	0.649760	0.547790	0.910690
C2641	C264	0.573250	0.588130	0.915970
C2651	C265	0.575340	0.616280	0.871640
C2661	C266	0.644500	0.640730	0.859670
C2671	C267	0.642900	0.671900	0.817300
C2681	C268	0.710400	0.696500	0.806100
C2691	C269	0.696640	0.673180	0.970140
C2701	C270	0.740100	0.704340	0.944460
C2711	C271	0.703170	0.750810	0.945250
C2721	C272	0.621960	0.769510	0.972570
C2731	C273	0.577300	0.739310	0.997690
C2741	C274	0.613470	0.691640	0.997020
C2751	C275	0.560500	0.662840	0.026160
C2761	C276	0.581920	0.550780	0.063580
C2771	C277	0.541280	0.519740	0.099100
C2781	C278	0.581800	0.508730	0.139670
C2791	C279	0.561800	0.551780	0.169620
C2801	C280	0.598000	0.541700	0.211300
C2811	C281	0.572600	0.581900	0.241500
C2821	C282	0.744680	0.625750	0.081090
C2831	C283	0.765920	0.627780	0.121180
C2841	C284	0.790710	0.547340	0.081040
C2851	C285	0.811100	0.547900	0.122700
C2861	C286	0.797100	0.589300	0.143700
C2871	C287	0.818400	0.590800	0.189400
C2881	C288	0.626990	0.350080	0.816740
C2891	C289	0.621600	0.327240	0.779360
C2901	C290	0.669110	0.331940	0.734240
C2911	C291	0.722970	0.360100	0.724760
C2921	C292	0.729580	0.382820	0.760820
C2931	C293	0.683350	0.378280	0.807020
C2941	C294	0.695570	0.403980	0.843680
C2951	C295	0.645320	0.407910	0.961450
C2961	C296	0.662370	0.426550	0.001510
C2971	C297	0.730900	0.389100	0.019900
C2981	C298	0.747000	0.405600	0.061600
C2991	C299	0.814900	0.377700	0.074900
C3001	C300	0.810200	0.404000	0.122000
C3011	C301	0.918600	0.588300	0.304500
C3021	C302	0.880200	0.592100	0.269900
C3031	C303	0.040710	0.594410	0.252770
C3041	C304	0.009230	0.597680	0.216660
C3051	C305	0.928500	0.595200	0.224000
C3061	C306	0.890500	0.595900	0.182900
C3071	C307	0.321260	0.418040	0.581840
C3081	C308	0.344590	0.419480	0.622740
C3091	C309	0.397500	0.445700	0.624500
C3101	C310	0.428200	0.470200	0.586800
C3111	C311	0.403150	0.471500	0.546800
C3121	C312	0.348710	0.445600	0.543780
C3131	C313	0.321530	0.451110	0.501430
C3141	C314	0.197550	0.410690	0.452210
C3151	C315	0.161380	0.415970	0.411870
C3161	C316	0.191620	0.371640	0.383720
C3171	C317	0.285230	0.359670	0.359270
C3181	C318	0.314800	0.317300	0.328100
C3191	C319	0.406900	0.306100	0.303500
C3201	C320	0.369820	0.470140	0.326820
C3211	C321	0.444440	0.444460	0.295660
C3221	C322	0.453980	0.445250	0.249190
C3231	C323	0.391470	0.472570	0.230490
C3241	C324	0.316610	0.497690	0.260690
C3251	C325	0.305110	0.497020	0.308360
C3261	C326	0.223340	0.526160	0.337160
C3271	C327	0.132700	0.563580	0.449220
C3281	C328	0.061020	0.599100	0.480260
C3291	C329	0.090530	0.639670	0.491270
C3301	C330	0.113580	0.669620	0.448220
C3311	C331	0.139700	0.711300	0.458300
C3321	C332	0.154500	0.741500	0.418100
C3331	C333	0.370430	0.581090	0.374250
C3341	C334	0.393700	0.621180	0.372220
C3351	C335	0.338050	0.581040	0.452660
C3361	C336	0.359000	0.622700	0.452100
C3371	C337	0.386400	0.643700	0.410700
C3381	C338	0.409200	0.689400	0.409200
C3391	C339	0.977070	0.316740	0.649920
C3401	C340	0.948840	0.279360	0.672760
C3411	C341	0.001050	0.234240	0.668060
C3421	C342	0.083070	0.224760	0.639900
C3431	C343	0.112400	0.260820	0.617180
C3441	C344	0.061630	0.307020	0.621720
C3451	C345	0.099550	0.343680	0.596020
C3461	C346	0.053230	0.461450	0.592090
C3471	C347	0.088920	0.501510	0.573450
C3481	C348	0.120000	0.519900	0.610900
C3491	C349	0.152600	0.561600	0.594400
C3501	C350	0.192600	0.574900	0.622300
C3511	C351	0.214200	0.622000	0.596000
C3521	C352	0.506900	0.804500	0.411700
C3531	C353	0.472300	0.769900	0.407900
C3541	C354	0.635120	0.752770	0.405590
C3551	C355	0.606910	0.716660	0.402320
C3561	C356	0.523700	0.724000	0.404800
C3571	C357	0.486400	0.682900	0.404100
C3581	C358	0.821140	0.081960	0.918160
C3591	C359	0.886810	0.080520	0.877260
C3601	C360	0.967700	0.054300	0.875500
C3611	C361	0.985200	0.029800	0.913200
C3621	C362	0.921450	0.028500	0.953200
C3631	C363	0.838090	0.054400	0.956220
C3641	C364	0.774070	0.048890	0.998570
C3651	C365	0.560450	0.089310	0.047790
C3661	C366	0.489220	0.084030	0.088130
C3671	C367	0.446980	0.128360	0.116280
C3681	C368	0.504170	0.140330	0.140730
C3691	C369	0.460200	0.182700	0.171900
C3701	C370	0.516500	0.193900	0.196500
C3711	C371	0.666780	0.029860	0.173180
C3721	C372	0.684560	0.055540	0.204340
C3731	C373	0.648420	0.054750	0.250810
C3741	C374	0.594530	0.027430	0.269510
C3751	C375	0.574990	0.002310	0.239310
C3761	C376	0.610490	0.002980	0.191640
C3771	C377	0.586660	0.973840	0.162840
C3781	C378	0.645500	0.936420	0.050780
C3791	C379	0.640380	0.900900	0.019740
C3801	C380	0.721470	0.860330	0.008730
C3811	C381	0.731420	0.830380	0.051780
C3821	C382	0.809300	0.788700	0.041700
C3831	C383	0.814100	0.758500	0.081900
C3841	C384	0.825770	0.918910	0.125750
C3851	C385	0.887100	0.878820	0.127780
C3861	C386	0.871750	0.918960	0.047340
C3871	C387	0.933800	0.877300	0.047900
C3881	C388	0.940800	0.856300	0.089300
C3891	C389	0.007800	0.810600	0.090800
C3901	C390	0.443730	0.183260	0.850080
C3911	C391	0.400960	0.220640	0.827240
C3921	C392	0.403350	0.265760	0.831940
C3931	C393	0.447730	0.275240	0.860100
C3941	C394	0.490400	0.239180	0.882820
C3951	C395	0.490370	0.192980	0.878280
C3961	C396	0.539250	0.156320	0.903980
C3971	C397	0.606770	0.038550	0.907910
C3981	C398	0.663880	0.998490	0.926550
C3991	C399	0.750800	0.980100	0.889100
C4001	C400	0.808600	0.938400	0.905600
C4011	C401	0.889800	0.925100	0.877700
C4021	C402	0.932200	0.878000	0.904000
C4031	C403	0.223100	0.695500	0.088300
C4041	C404	0.150100	0.730100	0.092100
C4051	C405	0.293480	0.747230	0.094410
C4061	C406	0.225890	0.783340	0.097680
C4071	C407	0.152500	0.776000	0.095200
C4081	C408	0.073400	0.817100	0.095900
N11	N1	0.303690	0.002340	0.427680
N21	N2	0.318830	0.044180	0.437760
N31	N3	0.256870	0.117630	0.528830
N41	N4	0.301510	0.094430	0.561350
N51	N5	0.096930	0.085540	0.560600
N61	N6	0.559580	0.898570	0.387470
N71	N7	0.483770	0.922260	0.420000
N81	N8	0.613990	0.090010	0.796610
N91	N9	0.233710	0.497660	0.072320
N101	N10	0.300770	0.455820	0.062240
N111	N11	0.403330	0.382370	0.971170
N121	N12	0.457290	0.405570	0.938650
N131	N13	0.243070	0.414460	0.939400
N141	N14	0.345620	0.601430	0.112530
N151	N15	0.326030	0.577740	0.080000
N161	N16	0.000610	0.409990	0.703390
N171	N17	0.731370	0.572320	0.502340
N181	N18	0.756590	0.562240	0.544180
N191	N19	0.785700	0.471170	0.617630
N201	N20	0.862860	0.438650	0.594430
N211	N21	0.657530	0.439400	0.585540
N221	N22	0.947050	0.612530	0.398570
N231	N23	0.903770	0.580000	0.422260
N241	N24	0.410600	0.203390	0.590010
N251	N25	0.306030	0.927680	0.997660
N261	N26	0.363010	0.937760	0.955820
N271	N27	0.374500	0.028830	0.882370
N281	N28	0.395940	0.061350	0.905570
N291	N29	0.182470	0.060600	0.914460
N301	N30	0.458150	0.887470	0.101430
N311	N31	0.406030	0.920000	0.077740
N321	N32	0.704000	0.296610	0.909990
N331	N33	0.696310	0.997660	0.572320
N341	N34	0.681170	0.955820	0.562240
N351	N35	0.743130	0.882370	0.471170
N361	N36	0.698490	0.905570	0.438650
N371	N37	0.903070	0.914460	0.439400
N381	N38	0.440420	0.101430	0.612530
N391	N39	0.516230	0.077740	0.580000
N401	N40	0.386010	0.909990	0.203390
N411	N41	0.766290	0.502340	0.927680
N421	N42	0.699230	0.544180	0.937760
N431	N43	0.596670	0.617630	0.028830
N441	N44	0.542710	0.594430	0.061350
N451	N45	0.756930	0.585540	0.060600
N461	N46	0.654380	0.398570	0.887470
N471	N47	0.673970	0.422260	0.920000
N481	N48	0.999390	0.590010	0.296610
N491	N49	0.268630	0.427680	0.497660
N501	N50	0.243410	0.437760	0.455820
N511	N51	0.214300	0.528830	0.382370
N521	N52	0.137140	0.561350	0.405570
N531	N53	0.342470	0.560600	0.414460
N541	N54	0.052950	0.387470	0.601430
N551	N55	0.096230	0.420000	0.577740
N561	N56	0.589400	0.796610	0.409990
N571	N57	0.693970	0.072320	0.002340
N581	N58	0.636990	0.062240	0.044180
N591	N59	0.625500	0.971170	0.117630
N601	N60	0.604060	0.938650	0.094430
N611	N61	0.817530	0.939400	0.085540
N621	N62	0.541850	0.112530	0.898570
N631	N63	0.593970	0.080000	0.922260
N641	N64	0.296000	0.703390	0.090010
O11	O1	0.337540	0.918040	0.390680
O21	O2	0.174310	0.030340	0.477920
O31	O3	0.438760	0.016920	0.379360
O41	O4	0.165740	0.128490	0.467230
O51	O5	0.284600	0.182900	0.548180
O61	O6	0.271700	0.032560	0.538280
O71	O7	0.719300	0.843040	0.358360
O81	O8	0.492100	0.929860	0.331940
O91	O9	0.547360	0.877000	0.471080
O101	O10	0.146260	0.581960	0.109320
O111	O11	0.182570	0.469660	0.022080
O121	O12	0.335040	0.483080	0.120640
O131	O13	0.261460	0.371510	0.032770
O141	O14	0.515680	0.317100	0.951820
O151	O15	0.342540	0.467440	0.961720
O161	O16	0.420700	0.656960	0.141640
O171	O17	0.253900	0.570140	0.168060
O181	O18	0.395440	0.623000	0.028920
O191	O19	0.728220	0.609320	0.418040
O201	O20	0.652230	0.522080	0.530340
O211	O21	0.818120	0.620640	0.516920
O221	O22	0.632970	0.532770	0.628490
O231	O23	0.832780	0.451820	0.682900
O241	O24	0.809980	0.461720	0.532560
O251	O25	0.077660	0.641640	0.343040
O261	O26	0.824040	0.668060	0.429860
O271	O27	0.018440	0.528920	0.377000
O281	O28	0.255580	0.890680	0.081960
O291	O29	0.204650	0.977920	0.969660
O301	O30	0.455680	0.879360	0.983080
O311	O31	0.294230	0.967230	0.871510
O321	O32	0.467500	0.048180	0.817100
O331	O33	0.304260	0.038280	0.967440
O341	O34	0.562340	0.858360	0.156960
O351	O35	0.421960	0.831940	0.070140
O361	O36	0.424360	0.971080	0.123000
O371	O37	0.662460	0.081960	0.609320
O381	O38	0.825690	0.969660	0.522080
O391	O39	0.561240	0.983080	0.620640
O401	O40	0.834260	0.871510	0.532770
O411	O41	0.715400	0.817100	0.451820
O421	O42	0.728300	0.967440	0.461720
O431	O43	0.280700	0.156960	0.641640
O441	O44	0.507900	0.070140	0.668060
O451	O45	0.452640	0.123000	0.528920
O461	O46	0.853740	0.418040	0.890680
O471	O47	0.817430	0.530340	0.977920
O481	O48	0.664960	0.516920	0.879360
O491	O49	0.738540	0.628490	0.967230
O501	O50	0.484320	0.682900	0.048180
O511	O51	0.657460	0.532560	0.038280
O521	O52	0.579300	0.343040	0.858360
O531	O53	0.746100	0.429860	0.831940
O541	O54	0.604560	0.377000	0.971080
O551	O55	0.271780	0.390680	0.581960
O561	O56	0.347770	0.477920	0.469660
O571	O57	0.181880	0.379360	0.483080
O581	O58	0.367030	0.467230	0.371510
O591	O59	0.167220	0.548180	0.317100
O601	O60	0.190020	0.538280	0.467440
O611	O61	0.922340	0.358360	0.656960
O621	O62	0.175960	0.331940	0.570140
O631	O63	0.981560	0.471080	0.623000
O641	O64	0.744420	0.109320	0.918040
O651	O65	0.795350	0.022080	0.030340
O661	O66	0.544320	0.120640	0.016920
O671	O67	0.705770	0.032770	0.128490
O681	O68	0.532500	0.951820	0.182900
O691	O69	0.695740	0.961720	0.032560
O701	O70	0.437660	0.141640	0.843040
O711	O71	0.578040	0.168060	0.929860
O721	O72	0.575640	0.028920	0.877000
