data_XALDIY_clean_PM
_symmetry_space_group_name_H-M	'P1'
_cell_length_a	17.351000
_cell_length_b	30.037400
_cell_length_c	30.037400
_cell_angle_alpha	85.214900
_cell_angle_beta	73.212500
_cell_angle_gamma	73.212500
_symmetry_Int_Tables_number 1

loop_
_symmetry_equiv_pos_as_xyz
'x,y,z'

loop_
_atom_site_label
_atom_site_type_symbol
_atom_site_fract_x
_atom_site_fract_y
_atom_site_fract_z
Mn11	Mn1	0.794870	0.001010	0.922070
Mn21	Mn2	0.004460	0.084090	0.856340
Mn31	Mn3	0.857910	0.881020	0.036080
Mn41	Mn4	0.217950	0.498990	0.577930
Mn51	Mn5	0.444900	0.415910	0.643660
Mn61	Mn6	0.275010	0.618980	0.463920
Mn71	Mn7	0.716940	0.077930	0.501010
Mn81	Mn8	0.860810	0.143660	0.584080
Mn91	Mn9	0.893990	0.963920	0.381020
Mn101	Mn10	0.795880	0.422070	0.998990
Mn111	Mn11	0.088550	0.356340	0.915920
Mn121	Mn12	0.738930	0.536080	0.118980
Mn131	Mn13	0.205130	0.998990	0.077930
Mn141	Mn14	0.995540	0.915910	0.143660
Mn151	Mn15	0.142090	0.118980	0.963920
Mn161	Mn16	0.782050	0.501010	0.422070
Mn171	Mn17	0.555100	0.584090	0.356340
Mn181	Mn18	0.724990	0.381020	0.536080
Mn191	Mn19	0.283060	0.922070	0.498990
Mn201	Mn20	0.139190	0.856340	0.415920
Mn211	Mn21	0.106010	0.036080	0.618980
Mn221	Mn22	0.204120	0.577930	0.001010
Mn231	Mn23	0.911450	0.643660	0.084080
Mn241	Mn24	0.261070	0.463920	0.881020
H11	H1	0.781100	0.926400	0.808400
H21	H2	0.840300	0.928600	0.729400
H31	H3	0.929800	0.974600	0.698200
H41	H4	0.962600	0.017300	0.747500
H51	H5	0.870500	0.083100	0.009700
H61	H6	0.912700	0.110100	0.965500
H71	H7	0.785700	0.159000	0.015600
H81	H8	0.734400	0.128000	0.002600
H91	H9	0.824400	0.181900	0.937900
H101	H10	0.773300	0.150900	0.924900
H111	H11	0.697600	0.231600	0.983400
H121	H12	0.645800	0.200000	0.971800
H131	H13	0.703400	0.220800	0.889800
H141	H14	0.627000	0.258800	0.922000
H151	H15	0.720700	0.262400	0.911800
H161	H16	0.714400	0.066300	0.846500
H171	H17	0.611600	0.132600	0.841200
H181	H18	0.531800	0.137500	0.980100
H191	H19	0.634900	0.070000	0.982000
H201	H20	0.514800	0.209200	0.882600
H211	H21	0.481200	0.207600	0.938200
H221	H22	0.872900	0.215500	0.807700
H231	H23	0.878700	0.290300	0.815300
H241	H24	0.953600	0.305700	0.862700
H251	H25	0.023500	0.245400	0.901200
H261	H26	0.174100	0.007600	0.953800
H271	H27	0.138700	0.972600	0.933200
H281	H28	0.280700	0.005900	0.882100
H291	H29	0.243000	0.974200	0.858800
H301	H30	0.282400	0.911700	0.904500
H311	H31	0.301600	0.942700	0.938100
H321	H32	0.158300	0.245500	0.905100
H331	H33	0.388300	0.917300	0.851900
H341	H34	0.406800	0.950700	0.883900
H351	H35	0.275500	0.184600	0.899200
H361	H36	0.413600	0.852700	0.905900
H371	H37	0.494000	0.872300	0.890900
H381	H38	0.426900	0.885800	0.940400
H391	H39	0.398900	0.275700	0.910700
H401	H40	0.279100	0.334800	0.913600
H411	H41	0.440600	0.164300	0.876700
H421	H42	0.408700	0.160900	0.931900
H431	H43	0.624900	0.901400	0.148000
H441	H44	0.490800	0.944500	0.151100
H451	H45	0.459100	0.986800	0.086200
H461	H46	0.568400	0.989300	0.019900
H471	H47	0.052000	0.925400	0.925000
H481	H48	0.990100	0.942300	0.892700
H491	H49	0.072500	0.846800	0.905000
H501	H50	0.105500	0.876900	0.860900
H511	H51	0.949600	0.854200	0.883200
H521	H52	0.978700	0.886500	0.840300
H531	H53	0.090900	0.823500	0.804900
H541	H54	0.064700	0.791100	0.848300
H551	H55	0.012800	0.774000	0.792200
H561	H56	0.973000	0.827800	0.782800
H571	H57	0.933300	0.803800	0.830200
H581	H58	0.015900	0.573600	0.691600
H591	H59	0.998300	0.571400	0.770600
H601	H60	0.102600	0.525400	0.801800
H611	H61	0.227400	0.482700	0.752500
H621	H62	0.463300	0.416900	0.490300
H631	H63	0.488300	0.389900	0.534500
H641	H64	0.460300	0.341000	0.484400
H651	H65	0.365000	0.372000	0.497400
H661	H66	0.444200	0.318100	0.562100
H671	H67	0.349100	0.349100	0.575100
H681	H68	0.412600	0.268400	0.516600
H691	H69	0.317600	0.300000	0.528200
H701	H70	0.314000	0.279200	0.610200
H711	H71	0.307800	0.241200	0.578000
H721	H72	0.394900	0.237600	0.588200
H731	H73	0.127200	0.433700	0.653500
H741	H74	0.085400	0.367400	0.658800
H751	H75	0.149400	0.362500	0.519900
H761	H76	0.186900	0.430000	0.518000
H771	H77	0.106600	0.290800	0.617400
H781	H78	0.127000	0.292400	0.561800
H791	H79	0.396100	0.284500	0.692300
H801	H80	0.484300	0.209700	0.684700
H811	H81	0.622000	0.194300	0.637300
H821	H82	0.670100	0.254600	0.598800
H831	H83	0.635500	0.492400	0.546200
H841	H84	0.544500	0.527400	0.566800
H851	H85	0.668700	0.494100	0.617900
H861	H86	0.576000	0.525800	0.641200
H871	H87	0.598600	0.588300	0.595500
H881	H88	0.682400	0.557300	0.561900
H891	H89	0.808900	0.254500	0.594900
H901	H90	0.657500	0.582700	0.648100
H911	H91	0.741400	0.549300	0.616100
H921	H92	0.859300	0.315400	0.600800
H931	H93	0.672200	0.647300	0.594100
H941	H94	0.757200	0.627700	0.609100
H951	H95	0.753100	0.614200	0.559600
H961	H96	0.085300	0.224300	0.589300
H971	H97	0.027500	0.165200	0.586400
H981	H98	0.981600	0.335700	0.623300
H991	H99	0.001500	0.339100	0.568100
H1001	H100	0.174300	0.598600	0.352000
H1011	H101	0.086400	0.555500	0.348900
H1021	H102	0.032100	0.513200	0.413800
H1031	H103	0.077600	0.510700	0.480100
H1041	H104	0.402400	0.574600	0.575000
H1051	H105	0.325100	0.557700	0.607300
H1061	H106	0.324300	0.653200	0.595000
H1071	H107	0.343300	0.623100	0.639100
H1081	H108	0.187000	0.645800	0.616800
H1091	H109	0.205500	0.613500	0.659700
H1101	H110	0.219300	0.676500	0.695100
H1111	H111	0.204100	0.708900	0.651700
H1121	H112	0.079000	0.726000	0.707800
H1131	H113	0.083600	0.672200	0.717200
H1141	H114	0.067300	0.696200	0.669800
H1151	H115	0.589500	0.191600	0.426400
H1161	H116	0.569700	0.270600	0.428600
H1171	H117	0.628000	0.301800	0.474600
H1181	H118	0.710100	0.252500	0.517300
H1191	H119	0.880200	0.990300	0.583100
H1201	H120	0.878200	0.034500	0.610100
H1211	H121	0.801300	0.984400	0.659000
H1221	H122	0.737000	0.997400	0.628000
H1231	H123	0.762300	0.062100	0.681900
H1241	H124	0.698200	0.075100	0.650900
H1251	H125	0.681000	0.016600	0.731600
H1261	H126	0.617600	0.028200	0.700000
H1271	H127	0.593200	0.110200	0.720800
H1281	H128	0.549000	0.078000	0.758800
H1291	H129	0.632500	0.088200	0.762400
H1301	H130	0.560900	0.153500	0.566300
H1311	H131	0.452800	0.158800	0.632600
H1321	H132	0.511900	0.019900	0.637500
H1331	H133	0.616900	0.018000	0.570000
H1341	H134	0.397400	0.117400	0.709200
H1351	H135	0.419400	0.061800	0.707600
H1361	H136	0.680600	0.192300	0.715500
H1371	H137	0.694000	0.184700	0.790300
H1381	H138	0.816300	0.137300	0.805700
H1391	H139	0.924700	0.098800	0.745400
H1401	H140	0.127900	0.046200	0.507600
H1411	H141	0.071900	0.066800	0.472600
H1421	H142	0.162800	0.117900	0.505900
H1431	H143	0.101800	0.141200	0.474200
H1441	H144	0.186900	0.095500	0.411700
H1451	H145	0.239700	0.061900	0.442700
H1461	H146	0.063400	0.094900	0.745500
H1471	H147	0.240200	0.148100	0.417300
H1481	H148	0.290700	0.116100	0.450700
H1491	H149	0.174700	0.100800	0.684600
H1501	H150	0.319500	0.094100	0.352700
H1511	H151	0.384900	0.109100	0.372300
H1521	H152	0.367300	0.059600	0.385800
H1531	H153	0.309600	0.089300	0.775700
H1541	H154	0.192700	0.086400	0.834800
H1551	H155	0.317300	0.123300	0.664300
H1561	H156	0.340600	0.068100	0.660900
H1571	H157	0.772900	0.852000	0.401400
H1581	H158	0.641900	0.848900	0.444500
H1591	H159	0.545300	0.913800	0.486800
H1601	H160	0.588300	0.980100	0.489300
H1611	H161	0.977000	0.075000	0.425400
H1621	H162	0.882800	0.107300	0.442300
H1631	H163	0.977500	0.095000	0.346800
H1641	H164	0.966400	0.139100	0.376900
H1651	H165	0.832800	0.116800	0.354200
H1661	H166	0.819000	0.159700	0.386500
H1671	H167	0.895800	0.195100	0.323500
H1681	H168	0.913000	0.151700	0.291100
H1691	H169	0.805000	0.207800	0.274000
H1701	H170	0.755800	0.217200	0.327800
H1711	H171	0.763500	0.169800	0.303800
H1721	H172	0.707500	0.308400	0.073600
H1731	H173	0.768900	0.229400	0.071400
H1741	H174	0.904400	0.198200	0.025400
H1751	H175	0.979900	0.247500	0.982700
H1761	H176	0.953600	0.509700	0.916900
H1771	H177	0.022800	0.465500	0.889900
H1781	H178	0.944700	0.515600	0.841000
H1791	H179	0.862400	0.502600	0.872000
H1801	H180	0.006300	0.437900	0.818100
H1811	H181	0.924200	0.424900	0.849100
H1821	H182	0.929200	0.483400	0.768400
H1831	H183	0.845800	0.471800	0.800000
H1841	H184	0.924200	0.389800	0.779200
H1851	H185	0.885800	0.422000	0.741200
H1861	H186	0.983100	0.411800	0.737600
H1871	H187	0.780700	0.346500	0.933700
H1881	H188	0.744200	0.341200	0.867400
H1891	H189	0.669300	0.480100	0.862500
H1901	H190	0.704900	0.482000	0.930000
H1911	H191	0.724000	0.382600	0.790800
H1921	H192	0.688800	0.438200	0.792400
H1931	H193	0.088400	0.307700	0.784500
H1941	H194	0.169000	0.315300	0.709700
H1951	H195	0.259300	0.362700	0.694300
H1961	H196	0.268900	0.401200	0.754600
H1971	H197	0.181700	0.453800	0.992400
H1981	H198	0.111300	0.433200	0.027400
H1991	H199	0.286600	0.382100	0.994100
H2001	H200	0.217200	0.358800	0.025800
H2011	H201	0.194100	0.404500	0.088300
H2021	H202	0.244300	0.438100	0.057300
H2031	H203	0.403800	0.405100	0.754500
H2041	H204	0.305600	0.351900	0.082700
H2051	H205	0.357500	0.383900	0.049300
H2061	H206	0.460100	0.399200	0.815400
H2071	H207	0.266300	0.405900	0.147300
H2081	H208	0.366300	0.390900	0.127700
H2091	H209	0.312700	0.440400	0.114200
H2101	H210	0.674600	0.410700	0.724300
H2111	H211	0.613900	0.413600	0.665200
H2121	H212	0.604900	0.376700	0.835700
H2131	H213	0.569600	0.431900	0.839100
H2141	H214	0.526300	0.648000	0.098600
H2151	H215	0.435300	0.651100	0.055500
H2161	H216	0.445900	0.586200	0.013200
H2171	H217	0.557700	0.519900	0.010700
H2181	H218	0.977400	0.425000	0.074600
H2191	H219	0.932400	0.392700	0.057700
H2201	H220	0.919300	0.405000	0.153200
H2211	H221	0.982400	0.360900	0.123100
H2221	H222	0.803800	0.383200	0.145800
H2231	H223	0.865200	0.340300	0.113500
H2241	H224	0.914400	0.304900	0.176500
H2251	H225	0.855800	0.348300	0.208900
H2261	H226	0.786800	0.292200	0.226000
H2271	H227	0.800800	0.282800	0.172200
H2281	H228	0.737100	0.330200	0.196200
H2291	H229	0.218900	0.073600	0.191600
H2301	H230	0.159700	0.071400	0.270600
H2311	H231	0.070200	0.025400	0.301800
H2321	H232	0.037400	0.982700	0.252500
H2331	H233	0.129500	0.916900	0.990300
H2341	H234	0.087300	0.889900	0.034500
H2351	H235	0.214300	0.841000	0.984400
H2361	H236	0.265600	0.872000	0.997400
H2371	H237	0.175600	0.818100	0.062100
H2381	H238	0.226700	0.849100	0.075100
H2391	H239	0.302400	0.768400	0.016600
H2401	H240	0.354200	0.800000	0.028200
H2411	H241	0.296600	0.779200	0.110200
H2421	H242	0.373000	0.741200	0.078000
H2431	H243	0.279300	0.737600	0.088200
H2441	H244	0.285600	0.933700	0.153500
H2451	H245	0.388400	0.867400	0.158800
H2461	H246	0.468200	0.862500	0.019900
H2471	H247	0.365100	0.930000	0.018000
H2481	H248	0.485200	0.790800	0.117400
H2491	H249	0.518800	0.792400	0.061800
H2501	H250	0.127100	0.784500	0.192300
H2511	H251	0.121300	0.709700	0.184700
H2521	H252	0.046400	0.694300	0.137300
H2531	H253	0.976500	0.754600	0.098800
H2541	H254	0.825900	0.992400	0.046200
H2551	H255	0.861300	0.027400	0.066800
H2561	H256	0.719300	0.994100	0.117900
H2571	H257	0.757000	0.025800	0.141200
H2581	H258	0.717600	0.088300	0.095500
H2591	H259	0.698400	0.057300	0.061900
H2601	H260	0.841700	0.754500	0.094900
H2611	H261	0.611700	0.082700	0.148100
H2621	H262	0.593200	0.049300	0.116100
H2631	H263	0.724500	0.815400	0.100800
H2641	H264	0.586400	0.147300	0.094100
H2651	H265	0.506000	0.127700	0.109100
H2661	H266	0.573100	0.114200	0.059600
H2671	H267	0.601100	0.724300	0.089300
H2681	H268	0.720900	0.665200	0.086400
H2691	H269	0.559400	0.835700	0.123300
H2701	H270	0.591300	0.839100	0.068100
H2711	H271	0.375100	0.098600	0.852000
H2721	H272	0.509200	0.055500	0.848900
H2731	H273	0.540900	0.013200	0.913800
H2741	H274	0.431600	0.010700	0.980100
H2751	H275	0.948000	0.074600	0.075000
H2761	H276	0.009900	0.057700	0.107300
H2771	H277	0.927500	0.153200	0.095000
H2781	H278	0.894500	0.123100	0.139100
H2791	H279	0.050400	0.145800	0.116800
H2801	H280	0.021300	0.113500	0.159700
H2811	H281	0.909100	0.176500	0.195100
H2821	H282	0.935300	0.208900	0.151700
H2831	H283	0.987200	0.226000	0.207800
H2841	H284	0.027000	0.172200	0.217200
H2851	H285	0.066700	0.196200	0.169800
H2861	H286	0.984100	0.426400	0.308400
H2871	H287	0.001700	0.428600	0.229400
H2881	H288	0.897400	0.474600	0.198200
H2891	H289	0.772600	0.517300	0.247500
H2901	H290	0.536700	0.583100	0.509700
H2911	H291	0.511700	0.610100	0.465500
H2921	H292	0.539700	0.659000	0.515600
H2931	H293	0.635000	0.628000	0.502600
H2941	H294	0.555800	0.681900	0.437900
H2951	H295	0.650900	0.650900	0.424900
H2961	H296	0.587400	0.731600	0.483400
H2971	H297	0.682400	0.700000	0.471800
H2981	H298	0.686000	0.720800	0.389800
H2991	H299	0.692200	0.758800	0.422000
H3001	H300	0.605100	0.762400	0.411800
H3011	H301	0.872800	0.566300	0.346500
H3021	H302	0.914600	0.632600	0.341200
H3031	H303	0.850600	0.637500	0.480100
H3041	H304	0.813100	0.570000	0.482000
H3051	H305	0.893400	0.709200	0.382600
H3061	H306	0.873000	0.707600	0.438200
H3071	H307	0.603900	0.715500	0.307700
H3081	H308	0.515700	0.790300	0.315300
H3091	H309	0.378000	0.805700	0.362700
H3101	H310	0.329900	0.745400	0.401200
H3111	H311	0.364500	0.507600	0.453800
H3121	H312	0.455500	0.472600	0.433200
H3131	H313	0.331300	0.505900	0.382100
H3141	H314	0.424000	0.474200	0.358800
H3151	H315	0.401400	0.411700	0.404500
H3161	H316	0.317600	0.442700	0.438100
H3171	H317	0.191100	0.745500	0.405100
H3181	H318	0.342500	0.417300	0.351900
H3191	H319	0.258600	0.450700	0.383900
H3201	H320	0.140700	0.684600	0.399200
H3211	H321	0.327800	0.352700	0.405900
H3221	H322	0.242800	0.372300	0.390900
H3231	H323	0.246900	0.385800	0.440400
H3241	H324	0.914700	0.775700	0.410700
H3251	H325	0.972500	0.834800	0.413600
H3261	H326	0.018400	0.664300	0.376700
H3271	H327	0.998500	0.660900	0.431900
H3281	H328	0.825700	0.401400	0.648000
H3291	H329	0.913600	0.444500	0.651100
H3301	H330	0.967900	0.486800	0.586200
H3311	H331	0.922400	0.489300	0.519900
H3321	H332	0.597600	0.425400	0.425000
H3331	H333	0.674900	0.442300	0.392700
H3341	H334	0.675700	0.346800	0.405000
H3351	H335	0.656700	0.376900	0.360900
H3361	H336	0.813000	0.354200	0.383200
H3371	H337	0.794500	0.386500	0.340300
H3381	H338	0.780700	0.323500	0.304900
H3391	H339	0.795900	0.291100	0.348300
H3401	H340	0.921000	0.274000	0.292200
H3411	H341	0.916400	0.327800	0.282800
H3421	H342	0.932700	0.303800	0.330200
H3431	H343	0.410500	0.808400	0.573600
H3441	H344	0.430300	0.729400	0.571400
H3451	H345	0.372000	0.698200	0.525400
H3461	H346	0.289900	0.747500	0.482700
H3471	H347	0.119800	0.009700	0.416900
H3481	H348	0.121800	0.965500	0.389900
H3491	H349	0.198700	0.015600	0.341000
H3501	H350	0.263000	0.002600	0.372000
H3511	H351	0.237700	0.937900	0.318100
H3521	H352	0.301800	0.924900	0.349100
H3531	H353	0.319000	0.983400	0.268400
H3541	H354	0.382400	0.971800	0.300000
H3551	H355	0.406800	0.889800	0.279200
H3561	H356	0.451000	0.922000	0.241200
H3571	H357	0.367500	0.911800	0.237600
H3581	H358	0.439100	0.846500	0.433700
H3591	H359	0.547200	0.841200	0.367400
H3601	H360	0.488100	0.980100	0.362500
H3611	H361	0.383100	0.982000	0.430000
H3621	H362	0.602600	0.882600	0.290800
H3631	H363	0.580600	0.938200	0.292400
H3641	H364	0.319400	0.807700	0.284500
H3651	H365	0.306000	0.815300	0.209700
H3661	H366	0.183700	0.862700	0.194300
H3671	H367	0.075300	0.901200	0.254600
H3681	H368	0.872100	0.953800	0.492400
H3691	H369	0.928100	0.933200	0.527400
H3701	H370	0.837200	0.882100	0.494100
H3711	H371	0.898200	0.858800	0.525800
H3721	H372	0.813100	0.904500	0.588300
H3731	H373	0.760300	0.938100	0.557300
H3741	H374	0.936600	0.905100	0.254500
H3751	H375	0.759800	0.851900	0.582700
H3761	H376	0.709300	0.883900	0.549300
H3771	H377	0.825300	0.899200	0.315400
H3781	H378	0.680500	0.905900	0.647300
H3791	H379	0.615100	0.890900	0.627700
H3801	H380	0.632700	0.940400	0.614200
H3811	H381	0.690400	0.910700	0.224300
H3821	H382	0.807300	0.913600	0.165200
H3831	H383	0.682700	0.876700	0.335700
H3841	H384	0.659400	0.931900	0.339100
H3851	H385	0.227100	0.148000	0.598600
H3861	H386	0.358100	0.151100	0.555500
H3871	H387	0.454700	0.086200	0.513200
H3881	H388	0.411700	0.019900	0.510700
H3891	H389	0.023000	0.925000	0.574600
H3901	H390	0.117200	0.892700	0.557700
H3911	H391	0.022500	0.905000	0.653200
H3921	H392	0.033600	0.860900	0.623100
H3931	H393	0.167200	0.883200	0.645800
H3941	H394	0.181000	0.840300	0.613500
H3951	H395	0.104200	0.804900	0.676500
H3961	H396	0.087000	0.848300	0.708900
H3971	H397	0.195000	0.792200	0.726000
H3981	H398	0.244200	0.782800	0.672200
H3991	H399	0.236500	0.830200	0.696200
H4001	H400	0.292500	0.691600	0.926400
H4011	H401	0.231100	0.770600	0.928600
H4021	H402	0.095600	0.801800	0.974600
H4031	H403	0.020100	0.752500	0.017300
H4041	H404	0.046400	0.490300	0.083100
H4051	H405	0.977200	0.534500	0.110100
H4061	H406	0.055300	0.484400	0.159000
H4071	H407	0.137600	0.497400	0.128000
H4081	H408	0.993700	0.562100	0.181900
H4091	H409	0.075800	0.575100	0.150900
H4101	H410	0.070800	0.516600	0.231600
H4111	H411	0.154200	0.528200	0.200000
H4121	H412	0.075800	0.610200	0.220800
H4131	H413	0.114200	0.578000	0.258800
H4141	H414	0.016900	0.588200	0.262400
H4151	H415	0.219300	0.653500	0.066300
H4161	H416	0.255800	0.658800	0.132600
H4171	H417	0.330700	0.519900	0.137500
H4181	H418	0.295100	0.518000	0.070000
H4191	H419	0.276000	0.617400	0.209200
H4201	H420	0.311200	0.561800	0.207600
H4211	H421	0.911600	0.692300	0.215500
H4221	H422	0.831000	0.684700	0.290300
H4231	H423	0.740700	0.637300	0.305700
H4241	H424	0.731100	0.598800	0.245400
H4251	H425	0.818300	0.546200	0.007600
H4261	H426	0.888700	0.566800	0.972600
H4271	H427	0.713400	0.617900	0.005900
H4281	H428	0.782800	0.641200	0.974200
H4291	H429	0.805900	0.595500	0.911700
H4301	H430	0.755700	0.561900	0.942700
H4311	H431	0.596200	0.594900	0.245500
H4321	H432	0.694400	0.648100	0.917300
H4331	H433	0.642500	0.616100	0.950700
H4341	H434	0.539900	0.600800	0.184600
H4351	H435	0.733700	0.594100	0.852700
H4361	H436	0.633700	0.609100	0.872300
H4371	H437	0.687300	0.559600	0.885800
H4381	H438	0.325400	0.589300	0.275700
H4391	H439	0.386100	0.586400	0.334800
H4401	H440	0.395100	0.623300	0.164300
H4411	H441	0.430400	0.568100	0.160900
H4421	H442	0.473700	0.352000	0.901400
H4431	H443	0.564700	0.348900	0.944500
H4441	H444	0.554100	0.413800	0.986800
H4451	H445	0.442300	0.480100	0.989300
H4461	H446	0.022600	0.575000	0.925400
H4471	H447	0.067600	0.607300	0.942300
H4481	H448	0.080700	0.595000	0.846800
H4491	H449	0.017600	0.639100	0.876900
H4501	H450	0.196200	0.616800	0.854200
H4511	H451	0.134800	0.659700	0.886500
H4521	H452	0.085600	0.695100	0.823500
H4531	H453	0.144200	0.651700	0.791100
H4541	H454	0.213200	0.707800	0.774000
H4551	H455	0.199200	0.717200	0.827800
H4561	H456	0.262900	0.669800	0.803800
C11	C1	0.834850	0.971080	0.826820
C21	C2	0.817890	0.945250	0.796370
C31	C3	0.852990	0.946570	0.749450
C41	C4	0.906310	0.973510	0.730870
C51	C5	0.925450	0.998750	0.760150
C61	C6	0.890960	0.997680	0.808600
C71	C7	0.914220	0.026710	0.837050
C81	C8	0.857410	0.064430	0.948750
C91	C9	0.863210	0.098700	0.980280
C101	C10	0.784170	0.139950	0.990710
C111	C11	0.774600	0.170080	0.949720
C121	C12	0.695720	0.211720	0.959240
C131	C13	0.685800	0.240960	0.917040
C141	C14	0.676470	0.080990	0.874270
C151	C15	0.616080	0.120900	0.870940
C161	C16	0.561940	0.144310	0.910010
C171	C17	0.569420	0.123640	0.951720
C181	C18	0.630620	0.083300	0.952660
C191	C19	0.494030	0.190010	0.909330
C201	C20	0.946760	0.183530	0.849750
C211	C21	0.904300	0.220980	0.826820
C221	C22	0.907490	0.265590	0.831430
C231	C23	0.952000	0.274870	0.859330
C241	C24	0.993320	0.238970	0.881790
C251	C25	0.993160	0.192970	0.877510
C261	C26	0.040920	0.156490	0.903270
C271	C27	0.109230	0.038360	0.907380
C281	C28	0.165440	0.998300	0.925220
C291	C29	0.251940	0.981100	0.888220
C301	C30	0.306600	0.937660	0.905140
C311	C31	0.208380	0.251830	0.906010
C321	C32	0.382000	0.924700	0.884500
C331	C33	0.277240	0.215330	0.903190
C341	C34	0.434400	0.879300	0.907700
C351	C35	0.349060	0.223280	0.906200
C361	C36	0.349440	0.268780	0.909540
C371	C37	0.278160	0.303590	0.911290
C381	C38	0.425900	0.181700	0.905900
C391	C39	0.680300	0.917830	0.081170
C401	C40	0.614020	0.918820	0.121540
C411	C41	0.534420	0.944330	0.123230
C421	C42	0.515210	0.970190	0.085190
C431	C43	0.580320	0.970970	0.045790
C441	C44	0.662790	0.945790	0.042830
C451	C45	0.728040	0.951180	0.001340
C461	C46	0.938660	0.911490	0.953190
C471	C47	0.010950	0.916730	0.912970
C481	C48	0.054600	0.872650	0.884350
C491	C49	0.999020	0.859860	0.859700
C501	C50	0.042660	0.817550	0.829330
C511	C51	0.985420	0.804680	0.806680
C521	C52	0.132750	0.528920	0.673180
C531	C53	0.059510	0.554750	0.703630
C541	C54	0.049010	0.553430	0.750550
C551	C55	0.110690	0.526490	0.769130
C561	C56	0.184350	0.501250	0.739850
C571	C57	0.197240	0.502320	0.691400
C581	C58	0.277980	0.473290	0.662950
C591	C59	0.370590	0.435570	0.551250
C601	C60	0.442190	0.401300	0.519720
C611	C61	0.414830	0.360050	0.509290
C621	C62	0.394400	0.329920	0.550280
C631	C63	0.366680	0.288280	0.540760
C641	C64	0.343800	0.259040	0.582960
C651	C65	0.131730	0.419010	0.625730
C661	C66	0.107920	0.379100	0.629060
C671	C67	0.116260	0.355690	0.589990
C681	C68	0.144780	0.376360	0.548280
C691	C69	0.166580	0.416700	0.547340
C701	C70	0.093370	0.309990	0.590670
C711	C71	0.480040	0.316470	0.650250
C721	C72	0.452100	0.279020	0.673180
C731	C73	0.504510	0.234410	0.668570
C741	C74	0.586200	0.225130	0.640670
C751	C75	0.614080	0.261030	0.618210
C761	C76	0.563640	0.307030	0.622490
C771	C77	0.600680	0.343510	0.596730
C781	C78	0.554970	0.461640	0.592620
C791	C79	0.588960	0.501700	0.574780
C801	C80	0.621260	0.518900	0.611780
C811	C81	0.649400	0.562340	0.594860
C821	C82	0.866220	0.248170	0.593990
C831	C83	0.691200	0.575300	0.615500
C841	C84	0.895760	0.284670	0.596810
C851	C85	0.721400	0.620700	0.592300
C861	C86	0.978540	0.276720	0.593800
C871	C87	0.027760	0.231220	0.590460
C881	C88	0.993040	0.196410	0.588710
C891	C89	0.013500	0.318300	0.594100
C901	C90	0.179300	0.582170	0.418830
C911	C91	0.154380	0.581180	0.378460
C921	C92	0.101980	0.555670	0.376770
C931	C93	0.070590	0.529810	0.414810
C941	C94	0.097080	0.529030	0.454210
C951	C95	0.151410	0.554210	0.457170
C961	C96	0.180560	0.548820	0.498660
C971	C97	0.303340	0.588510	0.546810
C981	C98	0.340650	0.583270	0.587030
C991	C99	0.311600	0.627350	0.615650
C1001	C100	0.218580	0.640140	0.640300
C1011	C101	0.189540	0.682450	0.670670
C1021	C102	0.096780	0.695320	0.693320
C1031	C103	0.661670	0.173180	0.471080
C1041	C104	0.614260	0.203630	0.445250
C1051	C105	0.602440	0.250550	0.446570
C1061	C106	0.637180	0.269130	0.473510
C1071	C107	0.685600	0.239850	0.498750
C1081	C108	0.699560	0.191400	0.497680
C1091	C109	0.751270	0.162950	0.526710
C1101	C110	0.806160	0.051250	0.564430
C1111	C111	0.843490	0.019720	0.598700
C1121	C112	0.774880	0.009290	0.639950
C1131	C113	0.724320	0.050280	0.670080
C1141	C114	0.654960	0.040760	0.711720
C1151	C115	0.602840	0.082960	0.740960
C1161	C116	0.550740	0.125730	0.580990
C1171	C117	0.487020	0.129060	0.620900
C1181	C118	0.471950	0.089990	0.644310
C1191	C119	0.521140	0.048280	0.623640
C1201	C120	0.583280	0.047340	0.583300
C1211	C121	0.403360	0.090670	0.690010
C1221	C122	0.796510	0.150250	0.683530
C1231	C123	0.731120	0.173180	0.720980
C1241	C124	0.738920	0.168570	0.765590
C1251	C125	0.811330	0.140670	0.774870
C1261	C126	0.875110	0.118210	0.738970
C1271	C127	0.870670	0.122490	0.692970
C1281	C128	0.944190	0.096730	0.656490
C1291	C129	0.016610	0.092620	0.538360
C1301	C130	0.090660	0.074780	0.498300
C1311	C131	0.140160	0.111780	0.481100
C1321	C132	0.211740	0.094860	0.437660
C1331	C133	0.114390	0.093990	0.751830
C1341	C134	0.266500	0.115500	0.424700
C1351	C135	0.180430	0.096810	0.715330
C1361	C136	0.342100	0.092300	0.379300
C1371	C137	0.255260	0.093800	0.723280
C1381	C138	0.258980	0.090460	0.768780
C1391	C139	0.189450	0.088710	0.803590
C1401	C140	0.331800	0.094100	0.681700
C1411	C141	0.761470	0.918830	0.417830
C1421	C142	0.735560	0.878460	0.418820
C1431	C143	0.657650	0.876770	0.444330
C1441	C144	0.600400	0.914810	0.470190
C1451	C145	0.626110	0.954210	0.470970
C1461	C146	0.705620	0.957170	0.445790
C1471	C147	0.729380	0.998660	0.451180
C1481	C148	0.891850	0.046810	0.411490
C1491	C149	0.923920	0.087030	0.416730
C1501	C150	0.938950	0.115650	0.372650
C1511	C151	0.858720	0.140300	0.359860
C1521	C152	0.871990	0.170670	0.317550
C1531	C153	0.792100	0.193320	0.304680
C1541	C154	0.805930	0.326820	0.028920
C1551	C155	0.763140	0.296370	0.054750
C1561	C156	0.799560	0.249450	0.053430
C1571	C157	0.879820	0.230870	0.026490
C1581	C158	0.924200	0.260150	0.001250
C1591	C159	0.888640	0.308600	0.002320
C1601	C160	0.940930	0.337050	0.973290
C1611	C161	0.921840	0.448750	0.935570
C1621	C162	0.961910	0.480280	0.901300
C1631	C163	0.924120	0.490710	0.860050
C1641	C164	0.944680	0.449720	0.829920
C1651	C165	0.907440	0.459240	0.788280
C1661	C166	0.926760	0.417040	0.759040
C1671	C167	0.757460	0.374270	0.919010
C1681	C168	0.736980	0.370940	0.879100
C1691	C169	0.706250	0.410010	0.855690
C1701	C170	0.693060	0.451720	0.876360
C1711	C171	0.713920	0.452660	0.916700
C1721	C172	0.684040	0.409330	0.809990
C1731	C173	0.130290	0.349750	0.816470
C1741	C174	0.125280	0.326820	0.779020
C1751	C175	0.173080	0.331430	0.734410
C1761	C176	0.226870	0.359330	0.725130
C1771	C177	0.232290	0.381790	0.761030
C1781	C178	0.186130	0.377510	0.807030
C1791	C179	0.197410	0.403270	0.843510
C1801	C180	0.147590	0.407380	0.961640
C1811	C181	0.163740	0.425220	0.001700
C1821	C182	0.233040	0.388220	0.018900
C1831	C183	0.244260	0.405140	0.062340
C1841	C184	0.460210	0.406010	0.748170
C1851	C185	0.306700	0.384500	0.075300
C1861	C186	0.492570	0.403190	0.784670
C1871	C187	0.313700	0.407700	0.120700
C1881	C188	0.572340	0.406200	0.776720
C1891	C189	0.618220	0.409540	0.731220
C1901	C190	0.581750	0.411290	0.696410
C1911	C191	0.607600	0.405900	0.818300
C1921	C192	0.598130	0.581170	0.082170
C1931	C193	0.532840	0.621540	0.081180
C1941	C194	0.478750	0.623230	0.055670
C1951	C195	0.485400	0.585190	0.029810
C1961	C196	0.551290	0.545790	0.029030
C1971	C197	0.608580	0.542830	0.054210
C1981	C198	0.679220	0.501340	0.048820
C1991	C199	0.850150	0.453190	0.088510
C2001	C200	0.927680	0.412970	0.083270
C2011	C201	0.927250	0.384350	0.127350
C2021	C202	0.858880	0.359700	0.140140
C2031	C203	0.860210	0.329330	0.182450
C2041	C204	0.790100	0.306680	0.195320
C2051	C205	0.165150	0.028920	0.173180
C2061	C206	0.182110	0.054750	0.203630
C2071	C207	0.147010	0.053430	0.250550
C2081	C208	0.093690	0.026490	0.269130
C2091	C209	0.074550	0.001250	0.239850
C2101	C210	0.109040	0.002320	0.191400
C2111	C211	0.085780	0.973290	0.162950
C2121	C212	0.142590	0.935570	0.051250
C2131	C213	0.136790	0.901300	0.019720
C2141	C214	0.215830	0.860050	0.009290
C2151	C215	0.225400	0.829920	0.050280
C2161	C216	0.304280	0.788280	0.040760
C2171	C217	0.314200	0.759040	0.082960
C2181	C218	0.323530	0.919010	0.125730
C2191	C219	0.383920	0.879100	0.129060
C2201	C220	0.438060	0.855690	0.089990
C2211	C221	0.430580	0.876360	0.048280
C2221	C222	0.369380	0.916700	0.047340
C2231	C223	0.505970	0.809990	0.090670
C2241	C224	0.053240	0.816470	0.150250
C2251	C225	0.095700	0.779020	0.173180
C2261	C226	0.092510	0.734410	0.168570
C2271	C227	0.048000	0.725130	0.140670
C2281	C228	0.006680	0.761030	0.118210
C2291	C229	0.006840	0.807030	0.122490
C2301	C230	0.959080	0.843510	0.096730
C2311	C231	0.890770	0.961640	0.092620
C2321	C232	0.834560	0.001700	0.074780
C2331	C233	0.748060	0.018900	0.111780
C2341	C234	0.693400	0.062340	0.094860
C2351	C235	0.791620	0.748170	0.093990
C2361	C236	0.618000	0.075300	0.115500
C2371	C237	0.722760	0.784670	0.096810
C2381	C238	0.565600	0.120700	0.092300
C2391	C239	0.650940	0.776720	0.093800
C2401	C240	0.650560	0.731220	0.090460
C2411	C241	0.721840	0.696410	0.088710
C2421	C242	0.574100	0.818300	0.094100
C2431	C243	0.319700	0.082170	0.918830
C2441	C244	0.385980	0.081180	0.878460
C2451	C245	0.465580	0.055670	0.876770
C2461	C246	0.484790	0.029810	0.914810
C2471	C247	0.419680	0.029030	0.954210
C2481	C248	0.337210	0.054210	0.957170
C2491	C249	0.271960	0.048820	0.998660
C2501	C250	0.061340	0.088510	0.046810
C2511	C251	0.989050	0.083270	0.087030
C2521	C252	0.945400	0.127350	0.115650
C2531	C253	0.000980	0.140140	0.140300
C2541	C254	0.957340	0.182450	0.170670
C2551	C255	0.014580	0.195320	0.193320
C2561	C256	0.867250	0.471080	0.326820
C2571	C257	0.940490	0.445250	0.296370
C2581	C258	0.950990	0.446570	0.249450
C2591	C259	0.889310	0.473510	0.230870
C2601	C260	0.815650	0.498750	0.260150
C2611	C261	0.802760	0.497680	0.308600
C2621	C262	0.722020	0.526710	0.337050
C2631	C263	0.629410	0.564430	0.448750
C2641	C264	0.557810	0.598700	0.480280
C2651	C265	0.585170	0.639950	0.490710
C2661	C266	0.605600	0.670080	0.449720
C2671	C267	0.633320	0.711720	0.459240
C2681	C268	0.656200	0.740960	0.417040
C2691	C269	0.868270	0.580990	0.374270
C2701	C270	0.892080	0.620900	0.370940
C2711	C271	0.883740	0.644310	0.410010
C2721	C272	0.855220	0.623640	0.451720
C2731	C273	0.833420	0.583300	0.452660
C2741	C274	0.906630	0.690010	0.409330
C2751	C275	0.519960	0.683530	0.349750
C2761	C276	0.547900	0.720980	0.326820
C2771	C277	0.495490	0.765590	0.331430
C2781	C278	0.413800	0.774870	0.359330
C2791	C279	0.385920	0.738970	0.381790
C2801	C280	0.436360	0.692970	0.377510
C2811	C281	0.399320	0.656490	0.403270
C2821	C282	0.445030	0.538360	0.407380
C2831	C283	0.411040	0.498300	0.425220
C2841	C284	0.378740	0.481100	0.388220
C2851	C285	0.350600	0.437660	0.405140
C2861	C286	0.133780	0.751830	0.406010
C2871	C287	0.308800	0.424700	0.384500
C2881	C288	0.104240	0.715330	0.403190
C2891	C289	0.278600	0.379300	0.407700
C2901	C290	0.021460	0.723280	0.406200
C2911	C291	0.972240	0.768780	0.409540
C2921	C292	0.006960	0.803590	0.411290
C2931	C293	0.986500	0.681700	0.405900
C2941	C294	0.820700	0.417830	0.581170
C2951	C295	0.845620	0.418820	0.621540
C2961	C296	0.898020	0.444330	0.623230
C2971	C297	0.929410	0.470190	0.585190
C2981	C298	0.902920	0.470970	0.545790
C2991	C299	0.848590	0.445790	0.542830
C3001	C300	0.819440	0.451180	0.501340
C3011	C301	0.696660	0.411490	0.453190
C3021	C302	0.659350	0.416730	0.412970
C3031	C303	0.688400	0.372650	0.384350
C3041	C304	0.781420	0.359860	0.359700
C3051	C305	0.810460	0.317550	0.329330
C3061	C306	0.903220	0.304680	0.306680
C3071	C307	0.338330	0.826820	0.528920
C3081	C308	0.385740	0.796370	0.554750
C3091	C309	0.397560	0.749450	0.553430
C3101	C310	0.362820	0.730870	0.526490
C3111	C311	0.314400	0.760150	0.501250
C3121	C312	0.300440	0.808600	0.502320
C3131	C313	0.248730	0.837050	0.473290
C3141	C314	0.193840	0.948750	0.435570
C3151	C315	0.156510	0.980280	0.401300
C3161	C316	0.225120	0.990710	0.360050
C3171	C317	0.275680	0.949720	0.329920
C3181	C318	0.345040	0.959240	0.288280
C3191	C319	0.397160	0.917040	0.259040
C3201	C320	0.449260	0.874270	0.419010
C3211	C321	0.512980	0.870940	0.379100
C3221	C322	0.528050	0.910010	0.355690
C3231	C323	0.478860	0.951720	0.376360
C3241	C324	0.416720	0.952660	0.416700
C3251	C325	0.596640	0.909330	0.309990
C3261	C326	0.203490	0.849750	0.316470
C3271	C327	0.268880	0.826820	0.279020
C3281	C328	0.261080	0.831430	0.234410
C3291	C329	0.188670	0.859330	0.225130
C3301	C330	0.124890	0.881790	0.261030
C3311	C331	0.129330	0.877510	0.307030
C3321	C332	0.055810	0.903270	0.343510
C3331	C333	0.983390	0.907380	0.461640
C3341	C334	0.909340	0.925220	0.501700
C3351	C335	0.859840	0.888220	0.518900
C3361	C336	0.788260	0.905140	0.562340
C3371	C337	0.885610	0.906010	0.248170
C3381	C338	0.733500	0.884500	0.575300
C3391	C339	0.819570	0.903190	0.284670
C3401	C340	0.657900	0.907700	0.620700
C3411	C341	0.744740	0.906200	0.276720
C3421	C342	0.741020	0.909540	0.231220
C3431	C343	0.810550	0.911290	0.196410
C3441	C344	0.668200	0.905900	0.318300
C3451	C345	0.238530	0.081170	0.582170
C3461	C346	0.264440	0.121540	0.581180
C3471	C347	0.342350	0.123230	0.555670
C3481	C348	0.399600	0.085190	0.529810
C3491	C349	0.373890	0.045790	0.529030
C3501	C350	0.294380	0.042830	0.554210
C3511	C351	0.270620	0.001340	0.548820
C3521	C352	0.108150	0.953190	0.588510
C3531	C353	0.076080	0.912970	0.583270
C3541	C354	0.061050	0.884350	0.627350
C3551	C355	0.141280	0.859700	0.640140
C3561	C356	0.128010	0.829330	0.682450
C3571	C357	0.207900	0.806680	0.695320
C3581	C358	0.194070	0.673180	0.971080
C3591	C359	0.236860	0.703630	0.945250
C3601	C360	0.200440	0.750550	0.946570
C3611	C361	0.120180	0.769130	0.973510
C3621	C362	0.075800	0.739850	0.998750
C3631	C363	0.111360	0.691400	0.997680
C3641	C364	0.059070	0.662950	0.026710
C3651	C365	0.078160	0.551250	0.064430
C3661	C366	0.038090	0.519720	0.098700
C3671	C367	0.075880	0.509290	0.139950
C3681	C368	0.055320	0.550280	0.170080
C3691	C369	0.092560	0.540760	0.211720
C3701	C370	0.073240	0.582960	0.240960
C3711	C371	0.242540	0.625730	0.080990
C3721	C372	0.263020	0.629060	0.120900
C3731	C373	0.293750	0.589990	0.144310
C3741	C374	0.306940	0.548280	0.123640
C3751	C375	0.286080	0.547340	0.083300
C3761	C376	0.315960	0.590670	0.190010
C3771	C377	0.869710	0.650250	0.183530
C3781	C378	0.874720	0.673180	0.220980
C3791	C379	0.826920	0.668570	0.265590
C3801	C380	0.773130	0.640670	0.274870
C3811	C381	0.767710	0.618210	0.238970
C3821	C382	0.813870	0.622490	0.192970
C3831	C383	0.802590	0.596730	0.156490
C3841	C384	0.852410	0.592620	0.038360
C3851	C385	0.836260	0.574780	0.998300
C3861	C386	0.766960	0.611780	0.981100
C3871	C387	0.755740	0.594860	0.937660
C3881	C388	0.539790	0.593990	0.251830
C3891	C389	0.693300	0.615500	0.924700
C3901	C390	0.507430	0.596810	0.215330
C3911	C391	0.686300	0.592300	0.879300
C3921	C392	0.427660	0.593800	0.223280
C3931	C393	0.381780	0.590460	0.268780
C3941	C394	0.418250	0.588710	0.303590
C3951	C395	0.392400	0.594100	0.181700
C3961	C396	0.401870	0.418830	0.917830
C3971	C397	0.467160	0.378460	0.918820
C3981	C398	0.521250	0.376770	0.944330
C3991	C399	0.514600	0.414810	0.970190
C4001	C400	0.448710	0.454210	0.970970
C4011	C401	0.391420	0.457170	0.945790
C4021	C402	0.320780	0.498660	0.951180
C4031	C403	0.149850	0.546810	0.911490
C4041	C404	0.072320	0.587030	0.916730
C4051	C405	0.072750	0.615650	0.872650
C4061	C406	0.141120	0.640300	0.859860
C4071	C407	0.139790	0.670670	0.817550
C4081	C408	0.209900	0.693320	0.804680
N11	N1	0.877190	0.029830	0.881990
N21	N2	0.898370	0.061720	0.905280
N31	N3	0.684360	0.061840	0.914440
N41	N4	0.044130	0.112340	0.897840
N51	N5	0.095050	0.080070	0.921870
N61	N6	0.206520	0.295750	0.909950
N71	N7	0.806670	0.928420	0.997340
N81	N8	0.863950	0.938380	0.956380
N91	N9	0.289010	0.470170	0.618010
N101	N10	0.365370	0.438280	0.594720
N111	N11	0.160640	0.438160	0.585560
N121	N12	0.554310	0.387660	0.602160
N131	N13	0.596990	0.419930	0.578130
N141	N14	0.912220	0.204250	0.590050
N151	N15	0.232430	0.571580	0.502660
N161	N16	0.258710	0.561620	0.543620
N171	N17	0.759180	0.118010	0.529830
N181	N18	0.803650	0.094720	0.561720
N191	N19	0.598800	0.085560	0.561840
N201	N20	0.941970	0.102160	0.612340
N211	N21	0.016920	0.078130	0.580070
N221	N22	0.116470	0.090050	0.795750
N231	N23	0.804010	0.002660	0.428420
N241	N24	0.820330	0.043620	0.438380
N251	N25	0.907020	0.381990	0.970170
N261	N26	0.960090	0.405280	0.938280
N271	N27	0.746200	0.414440	0.938160
N281	N28	0.156470	0.397840	0.887660
N291	N29	0.175120	0.421870	0.919930
N301	N30	0.502270	0.409950	0.704250
N311	N31	0.735090	0.497340	0.071580
N321	N32	0.802330	0.456380	0.061620
N331	N33	0.122810	0.970170	0.118010
N341	N34	0.101630	0.938280	0.094720
N351	N35	0.315640	0.938160	0.085560
N361	N36	0.955870	0.887660	0.102160
N371	N37	0.904950	0.919930	0.078130
N381	N38	0.793480	0.704250	0.090050
N391	N39	0.193330	0.071580	0.002660
N401	N40	0.136050	0.061620	0.043620
N411	N41	0.710990	0.529830	0.381990
N421	N42	0.634630	0.561720	0.405280
N431	N43	0.839360	0.561840	0.414440
N441	N44	0.445690	0.612340	0.397840
N451	N45	0.403010	0.580070	0.421870
N461	N46	0.087780	0.795750	0.409950
N471	N47	0.767570	0.428420	0.497340
N481	N48	0.741290	0.438380	0.456380
N491	N49	0.240820	0.881990	0.470170
N501	N50	0.196350	0.905280	0.438280
N511	N51	0.401200	0.914440	0.438160
N521	N52	0.058030	0.897840	0.387660
N531	N53	0.983080	0.921870	0.419930
N541	N54	0.883530	0.909950	0.204250
N551	N55	0.195990	0.997340	0.571580
N561	N56	0.179670	0.956380	0.561620
N571	N57	0.092980	0.618010	0.029830
N581	N58	0.039910	0.594720	0.061720
N591	N59	0.253800	0.585560	0.061840
N601	N60	0.843530	0.602160	0.112340
N611	N61	0.824880	0.578130	0.080070
N621	N62	0.497730	0.590050	0.295750
N631	N63	0.264910	0.502660	0.928420
N641	N64	0.197670	0.543620	0.938380
O11	O1	0.797090	0.967900	0.872040
O21	O2	0.968790	0.048320	0.817240
O31	O3	0.805580	0.039350	0.966990
O41	O4	0.940840	0.141690	0.842750
O51	O5	0.078440	0.167820	0.929680
O61	O6	0.077700	0.029090	0.875750
O71	O7	0.755520	0.890960	0.081680
O81	O8	0.706790	0.979250	0.969690
O91	O9	0.954940	0.879550	0.983990
O101	O10	0.137030	0.532100	0.627960
O111	O11	0.334350	0.451680	0.682760
O121	O12	0.311920	0.460650	0.533010
O131	O13	0.425280	0.358310	0.657250
O141	O14	0.675940	0.332180	0.570320
O151	O15	0.482540	0.470910	0.624250
O161	O16	0.228160	0.609040	0.418320
O171	O17	0.155730	0.520750	0.530310
O181	O18	0.318480	0.620450	0.516010
O191	O19	0.669130	0.127960	0.467900
O201	O20	0.786030	0.182760	0.548320
O211	O21	0.772570	0.033010	0.539350
O221	O22	0.783590	0.157250	0.641690
O231	O23	0.008120	0.070320	0.667820
O241	O24	0.953450	0.124250	0.529090
O251	O25	0.837200	0.918320	0.390960
O261	O26	0.676480	0.030310	0.479250
O271	O27	0.938930	0.016010	0.379550
O281	O28	0.764990	0.372040	0.032100
O291	O29	0.017110	0.317240	0.951680
O301	O30	0.844930	0.466990	0.960650
O311	O31	0.082530	0.342750	0.858310
O321	O32	0.246260	0.429680	0.832180
O331	O33	0.106790	0.375750	0.970910
O341	O34	0.646480	0.581680	0.109040
O351	O35	0.686040	0.469690	0.020750
O361	O36	0.834490	0.483990	0.120450
O371	O37	0.202910	0.032100	0.127960
O381	O38	0.031210	0.951680	0.182760
O391	O39	0.194420	0.960650	0.033010
O401	O40	0.059160	0.858310	0.157250
O411	O41	0.921560	0.832180	0.070320
O421	O42	0.922300	0.970910	0.124250
O431	O43	0.244480	0.109040	0.918320
O441	O44	0.293210	0.020750	0.030310
O451	O45	0.045060	0.120450	0.016010
O461	O46	0.862970	0.467900	0.372040
O471	O47	0.665650	0.548320	0.317240
O481	O48	0.688080	0.539350	0.466990
O491	O49	0.574720	0.641690	0.342750
O501	O50	0.324060	0.667820	0.429680
O511	O51	0.517460	0.529090	0.375750
O521	O52	0.771840	0.390960	0.581680
O531	O53	0.844270	0.479250	0.469690
O541	O54	0.681520	0.379550	0.483990
O551	O55	0.330870	0.872040	0.532100
O561	O56	0.213970	0.817240	0.451680
O571	O57	0.227430	0.966990	0.460650
O581	O58	0.216410	0.842750	0.358310
O591	O59	0.991880	0.929680	0.332180
O601	O60	0.046550	0.875750	0.470910
O611	O61	0.162800	0.081680	0.609040
O621	O62	0.323520	0.969690	0.520750
O631	O63	0.061070	0.983990	0.620450
O641	O64	0.235010	0.627960	0.967900
O651	O65	0.982890	0.682760	0.048320
O661	O66	0.155070	0.533010	0.039350
O671	O67	0.917470	0.657250	0.141690
O681	O68	0.753740	0.570320	0.167820
O691	O69	0.893210	0.624250	0.029090
O701	O70	0.353520	0.418320	0.890960
O711	O71	0.313960	0.530310	0.979250
O721	O72	0.165510	0.516010	0.879550
