data_XALDAQ_clean_PM
_symmetry_space_group_name_H-M	'P1'
_cell_length_a	17.442000
_cell_length_b	30.133900
_cell_length_c	30.133900
_cell_angle_alpha	85.195500
_cell_angle_beta	73.177400
_cell_angle_gamma	73.177500
_symmetry_Int_Tables_number 1

loop_
_symmetry_equiv_pos_as_xyz
'x,y,z'

loop_
_atom_site_label
_atom_site_type_symbol
_atom_site_fract_x
_atom_site_fract_y
_atom_site_fract_z
Mn11	Mn1	0.361920	0.143630	0.583520
Mn21	Mn2	0.606160	0.035630	0.617670
Mn31	Mn3	0.216840	0.078410	0.501910
Mn41	Mn4	0.589060	0.356370	0.916480
Mn51	Mn5	0.759460	0.464370	0.882330
Mn61	Mn6	0.297160	0.421590	0.998090
Mn71	Mn7	0.945430	0.416480	0.643640
Mn81	Mn8	0.223840	0.382320	0.535630
Mn91	Mn9	0.718750	0.498090	0.578410
Mn101	Mn10	0.505550	0.083520	0.856360
Mn111	Mn11	0.641780	0.117680	0.964370
Mn121	Mn12	0.295250	0.001910	0.921590
Mn131	Mn13	0.638080	0.856370	0.416480
Mn141	Mn14	0.393840	0.964370	0.382330
Mn151	Mn15	0.783160	0.921590	0.498090
Mn161	Mn16	0.410940	0.643630	0.083520
Mn171	Mn17	0.240540	0.535630	0.117670
Mn181	Mn18	0.702840	0.578410	0.001910
Mn191	Mn19	0.054570	0.583520	0.356360
Mn201	Mn20	0.776160	0.617680	0.464370
Mn211	Mn21	0.281250	0.501910	0.421590
Mn221	Mn22	0.494450	0.916480	0.143640
Mn231	Mn23	0.358220	0.882320	0.035630
Mn241	Mn24	0.704750	0.998090	0.078410
H11	H1	0.183900	0.191900	0.715100
H21	H2	0.196600	0.184000	0.789200
H31	H3	0.320000	0.137000	0.804200
H41	H4	0.427400	0.098700	0.743100
H51	H5	0.627700	0.045300	0.506500
H61	H6	0.572200	0.065600	0.471400
H71	H7	0.663600	0.117600	0.504200
H81	H8	0.601900	0.141200	0.473000
H91	H9	0.687000	0.102200	0.409200
H101	H10	0.729000	0.059900	0.437900
H111	H11	0.751600	0.143400	0.426600
H121	H12	0.792200	0.102000	0.456800
H131	H13	0.823200	0.090000	0.356000
H141	H14	0.887200	0.105800	0.375600
H151	H15	0.873700	0.055300	0.387700
H161	H16	0.310300	0.254000	0.591800
H171	H17	0.362500	0.315500	0.594900
H181	H18	0.586200	0.224400	0.584800
H191	H19	0.528700	0.165300	0.584100
H201	H20	0.476500	0.340400	0.612200
H211	H21	0.515400	0.335000	0.557400
H221	H22	0.728200	0.146100	0.598900
H231	H23	0.860600	0.148000	0.557600
H241	H24	0.957100	0.083000	0.516000
H251	H25	0.911800	0.018800	0.511200
H261	H26	0.522500	0.924900	0.573500
H271	H27	0.616300	0.892700	0.556100
H281	H28	0.523900	0.905100	0.651900
H291	H29	0.534400	0.861100	0.622300
H301	H30	0.667800	0.883300	0.644500
H311	H31	0.681900	0.840900	0.611900
H321	H32	0.590500	0.847600	0.707600
H331	H33	0.605500	0.804900	0.674900
H341	H34	0.735900	0.828400	0.699000
H351	H35	0.700700	0.785400	0.720000
H361	H36	0.750600	0.785700	0.666500
H371	H37	0.089900	0.191900	0.427100
H381	H38	0.071400	0.270400	0.429400
H391	H39	0.127700	0.301800	0.476400
H401	H40	0.210600	0.252100	0.517700
H411	H41	0.377300	0.035500	0.610700
H421	H42	0.380500	0.991200	0.583400
H431	H43	0.238200	0.997200	0.628000
H441	H44	0.301600	0.984800	0.659200
H451	H45	0.196400	0.074900	0.651100
H461	H46	0.260700	0.063100	0.681700
H471	H47	0.117300	0.029400	0.700600
H481	H48	0.182200	0.016400	0.731000
H491	H49	0.141500	0.092300	0.757100
H501	H50	0.059700	0.075000	0.766200
H511	H51	0.082700	0.108500	0.723300
H521	H52	0.687500	0.429500	0.518900
H531	H53	0.654400	0.359900	0.521100
H541	H54	0.585500	0.367700	0.659900
H551	H55	0.627900	0.433500	0.654100
H561	H56	0.635900	0.289100	0.567700
H571	H57	0.596800	0.294000	0.622800
H581	H58	0.590900	0.308100	0.784900
H591	H59	0.669800	0.316000	0.710800
H601	H60	0.761200	0.363000	0.695800
H611	H61	0.769200	0.401300	0.756900
H621	H62	0.679500	0.454700	0.993500
H631	H63	0.609200	0.434400	0.028600
H641	H64	0.785400	0.382400	0.995800
H651	H65	0.716100	0.358800	0.027000
H661	H66	0.698400	0.397800	0.090800
H671	H67	0.726800	0.440100	0.062100
H681	H68	0.821600	0.356600	0.073400
H691	H69	0.851000	0.398000	0.043200
H701	H70	0.769200	0.410000	0.144000
H711	H71	0.868600	0.394200	0.124400
H721	H72	0.816700	0.444700	0.112300
H731	H73	0.656100	0.246000	0.908200
H741	H74	0.772900	0.184500	0.905100
H751	H75	0.895400	0.275600	0.915200
H761	H76	0.778100	0.334700	0.915900
H771	H77	0.929100	0.159600	0.887800
H781	H78	0.907800	0.165000	0.942600
H791	H79	0.973200	0.353900	0.901100
H801	H80	0.066200	0.352000	0.942400
H811	H81	0.056100	0.417000	0.984000
H821	H82	0.941800	0.481200	0.988800
H831	H83	0.520900	0.575100	0.926500
H841	H84	0.565100	0.607300	0.943900
H851	H85	0.580900	0.594900	0.848100
H861	H86	0.517800	0.638900	0.877700
H871	H87	0.695600	0.616700	0.855500
H881	H88	0.634700	0.659100	0.888100
H891	H89	0.645700	0.652400	0.792400
H901	H90	0.585300	0.695100	0.825100
H911	H91	0.763300	0.671600	0.801000
H921	H92	0.706100	0.714600	0.780000
H931	H93	0.702800	0.714300	0.833500
H941	H94	0.208900	0.308100	0.072900
H951	H95	0.271200	0.229600	0.070600
H961	H96	0.405900	0.198200	0.023600
H971	H97	0.480400	0.247900	0.982300
H981	H98	0.523500	0.464500	0.889300
H991	H99	0.455100	0.508800	0.916600
H1001	H100	0.363400	0.502800	0.872000
H1011	H101	0.445600	0.515200	0.840800
H1021	H102	0.422400	0.425100	0.848900
H1031	H103	0.505500	0.436900	0.818300
H1041	H104	0.347300	0.470600	0.799400
H1051	H105	0.429600	0.483600	0.769000
H1061	H106	0.490900	0.407700	0.742900
H1071	H107	0.400900	0.425000	0.733800
H1081	H108	0.414500	0.391500	0.776700
H1091	H109	0.135900	0.070500	0.981100
H1101	H110	0.035400	0.140100	0.978900
H1111	H111	0.113100	0.132300	0.840100
H1121	H112	0.215500	0.066500	0.845900
H1131	H113	0.992700	0.210900	0.932300
H1141	H114	0.013600	0.206000	0.877200
H1151	H115	0.899000	0.284900	0.691900
H1161	H116	0.985800	0.210800	0.684000
H1171	H117	0.124200	0.195800	0.637000
H1181	H118	0.170500	0.256900	0.598700
H1191	H119	0.134200	0.493500	0.545300
H1201	H120	0.043600	0.528600	0.565600
H1211	H121	0.167800	0.495800	0.617600
H1221	H122	0.074900	0.527000	0.641200
H1231	H123	0.096200	0.590800	0.602200
H1241	H124	0.166900	0.562100	0.559900
H1251	H125	0.178200	0.573400	0.643400
H1261	H126	0.249000	0.543200	0.602000
H1271	H127	0.179200	0.644000	0.590000
H1281	H128	0.262800	0.624400	0.605800
H1291	H129	0.261400	0.612300	0.555300
H1301	H130	0.902100	0.408200	0.754000
H1311	H131	0.957400	0.405100	0.815500
H1321	H132	0.171000	0.415200	0.724400
H1331	H133	0.112800	0.415900	0.665300
H1341	H134	0.088700	0.387800	0.840400
H1351	H135	0.072800	0.442600	0.835000
H1361	H136	0.327100	0.401100	0.646100
H1371	H137	0.418200	0.442400	0.648000
H1381	H138	0.473100	0.484000	0.583000
H1391	H139	0.423000	0.488800	0.518800
H1401	H140	0.096000	0.426500	0.424900
H1411	H141	0.172400	0.443900	0.392700
H1421	H142	0.175800	0.348100	0.405100
H1431	H143	0.156700	0.377700	0.361100
H1441	H144	0.312300	0.355500	0.383300
H1451	H145	0.293800	0.388100	0.340900
H1461	H146	0.298100	0.292400	0.347600
H1471	H147	0.280400	0.325100	0.304900
H1481	H148	0.434900	0.301000	0.328400
H1491	H149	0.420700	0.280000	0.285400
H1501	H150	0.417100	0.333500	0.285700
H1511	H151	0.517000	0.572900	0.691900
H1521	H152	0.500800	0.570600	0.770400
H1531	H153	0.604100	0.523600	0.801800
H1541	H154	0.728300	0.482300	0.752100
H1551	H155	0.988000	0.389300	0.535500
H1561	H156	0.963900	0.416600	0.491200
H1571	H157	0.866200	0.372000	0.497200
H1581	H158	0.960800	0.340800	0.484800
H1591	H159	0.847500	0.348900	0.574900
H1601	H160	0.942400	0.318300	0.563100
H1611	H161	0.817900	0.299400	0.529400
H1621	H162	0.913200	0.269000	0.516400
H1631	H163	0.898600	0.242900	0.592300
H1641	H164	0.825900	0.233800	0.575000
H1651	H165	0.806000	0.276700	0.608500
H1661	H166	0.206400	0.481100	0.929500
H1671	H167	0.175500	0.478900	0.859900
H1681	H168	0.245400	0.340100	0.867700
H1691	H169	0.282000	0.345900	0.933500
H1701	H170	0.203600	0.432300	0.789100
H1711	H171	0.219600	0.377200	0.794000
H1721	H172	0.375800	0.215100	0.808100
H1731	H173	0.380600	0.289200	0.816000
H1741	H174	0.457000	0.304200	0.863000
H1751	H175	0.526100	0.243100	0.901300
H1761	H176	0.673000	0.006500	0.954700
H1771	H177	0.637800	0.971400	0.934400
H1781	H178	0.781200	0.004200	0.882400
H1791	H179	0.743100	0.973000	0.858800
H1801	H180	0.789200	0.909200	0.897800
H1811	H181	0.788900	0.937900	0.940100
H1821	H182	0.895000	0.926600	0.856600
H1831	H183	0.894200	0.956800	0.898000
H1841	H184	0.913200	0.856000	0.910000
H1851	H185	0.993000	0.875600	0.894200
H1861	H186	0.929000	0.887700	0.944700
H1871	H187	0.564300	0.091800	0.746000
H1881	H188	0.678000	0.094900	0.684500
H1891	H189	0.810600	0.084800	0.775600
H1901	H190	0.694000	0.084100	0.834700
H1911	H191	0.816900	0.112200	0.659600
H1921	H192	0.850400	0.057400	0.665000
H1931	H193	0.874300	0.098900	0.853900
H1941	H194	0.008600	0.057600	0.852000
H1951	H195	0.040100	0.016000	0.917000
H1961	H196	0.930600	0.011200	0.981200
H1971	H197	0.447400	0.073500	0.075100
H1981	H198	0.509000	0.056100	0.107300
H1991	H199	0.429000	0.151900	0.094900
H2001	H200	0.395500	0.122300	0.138900
H2011	H201	0.551100	0.144500	0.116700
H2021	H202	0.522800	0.111900	0.159100
H2031	H203	0.438100	0.207600	0.152400
H2041	H204	0.410400	0.174900	0.195100
H2051	H205	0.564300	0.199000	0.171600
H2061	H206	0.486100	0.220000	0.214600
H2071	H207	0.536300	0.166500	0.214300
H2081	H208	0.281800	0.927100	0.808100
H2091	H209	0.341800	0.929400	0.729600
H2101	H210	0.429500	0.976400	0.698200
H2111	H211	0.462700	0.017700	0.747900
H2121	H212	0.412800	0.110700	0.964500
H2131	H213	0.371700	0.083400	0.008800
H2141	H214	0.235400	0.128000	0.002800
H2151	H215	0.286400	0.159200	0.015200
H2161	H216	0.271300	0.151100	0.925100
H2171	H217	0.323800	0.181700	0.936900
H2181	H218	0.146700	0.200600	0.970600
H2191	H219	0.198600	0.231000	0.983600
H2201	H220	0.233800	0.257100	0.907700
H2211	H221	0.134700	0.266200	0.925000
H2221	H222	0.191200	0.223300	0.891500
H2231	H223	0.117000	0.018900	0.570500
H2241	H224	0.014300	0.021100	0.640100
H2251	H225	0.953200	0.159900	0.632300
H2261	H226	0.061400	0.154100	0.566500
H2271	H227	0.925000	0.067700	0.710900
H2281	H228	0.890800	0.122800	0.706000
H2291	H229	0.816100	0.808100	0.284900
H2301	H230	0.803400	0.816000	0.210800
H2311	H231	0.680000	0.863000	0.195800
H2321	H232	0.572600	0.901300	0.256900
H2331	H233	0.372300	0.954700	0.493500
H2341	H234	0.427800	0.934400	0.528600
H2351	H235	0.336400	0.882400	0.495800
H2361	H236	0.398100	0.858800	0.527000
H2371	H237	0.313000	0.897800	0.590800
H2381	H238	0.271000	0.940100	0.562100
H2391	H239	0.248400	0.856600	0.573400
H2401	H240	0.207800	0.898000	0.543200
H2411	H241	0.176800	0.910000	0.644000
H2421	H242	0.112800	0.894200	0.624400
H2431	H243	0.126300	0.944700	0.612300
H2441	H244	0.689700	0.746000	0.408200
H2451	H245	0.637500	0.684500	0.405100
H2461	H246	0.413800	0.775600	0.415200
H2471	H247	0.471300	0.834700	0.415900
H2481	H248	0.523500	0.659600	0.387800
H2491	H249	0.484600	0.665000	0.442600
H2501	H250	0.271800	0.853900	0.401100
H2511	H251	0.139400	0.852000	0.442400
H2521	H252	0.042900	0.917000	0.484000
H2531	H253	0.088200	0.981200	0.488800
H2541	H254	0.477500	0.075100	0.426500
H2551	H255	0.383700	0.107300	0.443900
H2561	H256	0.476100	0.094900	0.348100
H2571	H257	0.465600	0.138900	0.377700
H2581	H258	0.332200	0.116700	0.355500
H2591	H259	0.318100	0.159100	0.388100
H2601	H260	0.409500	0.152400	0.292400
H2611	H261	0.394500	0.195100	0.325100
H2621	H262	0.264100	0.171600	0.301000
H2631	H263	0.299300	0.214600	0.280000
H2641	H264	0.249400	0.214300	0.333500
H2651	H265	0.910100	0.808100	0.572900
H2661	H266	0.928600	0.729600	0.570600
H2671	H267	0.872300	0.698200	0.523600
H2681	H268	0.789400	0.747900	0.482300
H2691	H269	0.622700	0.964500	0.389300
H2701	H270	0.619500	0.008800	0.416600
H2711	H271	0.761800	0.002800	0.372000
H2721	H272	0.698400	0.015200	0.340800
H2731	H273	0.803600	0.925100	0.348900
H2741	H274	0.739300	0.936900	0.318300
H2751	H275	0.882700	0.970600	0.299400
H2761	H276	0.817800	0.983600	0.269000
H2771	H277	0.858500	0.907700	0.242900
H2781	H278	0.940300	0.925000	0.233800
H2791	H279	0.917300	0.891500	0.276700
H2801	H280	0.312500	0.570500	0.481100
H2811	H281	0.345600	0.640100	0.478900
H2821	H282	0.414500	0.632300	0.340100
H2831	H283	0.372100	0.566500	0.345900
H2841	H284	0.364100	0.710900	0.432300
H2851	H285	0.403200	0.706000	0.377200
H2861	H286	0.409100	0.691900	0.215100
H2871	H287	0.330200	0.684000	0.289200
H2881	H288	0.238800	0.637000	0.304200
H2891	H289	0.230800	0.598700	0.243100
H2901	H290	0.320500	0.545300	0.006500
H2911	H291	0.390800	0.565600	0.971400
H2921	H292	0.214600	0.617600	0.004200
H2931	H293	0.283900	0.641200	0.973000
H2941	H294	0.301600	0.602200	0.909200
H2951	H295	0.273200	0.559900	0.937900
H2961	H296	0.178400	0.643400	0.926600
H2971	H297	0.149000	0.602000	0.956800
H2981	H298	0.230800	0.590000	0.856000
H2991	H299	0.131400	0.605800	0.875600
H3001	H300	0.183300	0.555300	0.887700
H3011	H301	0.343900	0.754000	0.091800
H3021	H302	0.227100	0.815500	0.094900
H3031	H303	0.104600	0.724400	0.084800
H3041	H304	0.221900	0.665300	0.084100
H3051	H305	0.070900	0.840400	0.112200
H3061	H306	0.092200	0.835000	0.057400
H3071	H307	0.026800	0.646100	0.098900
H3081	H308	0.933800	0.648000	0.057600
H3091	H309	0.943900	0.583000	0.016000
H3101	H310	0.058200	0.518800	0.011200
H3111	H311	0.479100	0.424900	0.073500
H3121	H312	0.434900	0.392700	0.056100
H3131	H313	0.419100	0.405100	0.151900
H3141	H314	0.482200	0.361100	0.122300
H3151	H315	0.304400	0.383300	0.144500
H3161	H316	0.365300	0.340900	0.111900
H3171	H317	0.354300	0.347600	0.207600
H3181	H318	0.414700	0.304900	0.174900
H3191	H319	0.236700	0.328400	0.199000
H3201	H320	0.293900	0.285400	0.220000
H3211	H321	0.297200	0.285700	0.166500
H3221	H322	0.791100	0.691900	0.927100
H3231	H323	0.728800	0.770400	0.929400
H3241	H324	0.594100	0.801800	0.976400
H3251	H325	0.519600	0.752100	0.017700
H3261	H326	0.476500	0.535500	0.110700
H3271	H327	0.544900	0.491200	0.083400
H3281	H328	0.636600	0.497200	0.128000
H3291	H329	0.554400	0.484800	0.159200
H3301	H330	0.577600	0.574900	0.151100
H3311	H331	0.494500	0.563100	0.181700
H3321	H332	0.652700	0.529400	0.200600
H3331	H333	0.570400	0.516400	0.231000
H3341	H334	0.509100	0.592300	0.257100
H3351	H335	0.599100	0.575000	0.266200
H3361	H336	0.585500	0.608500	0.223300
H3371	H337	0.864100	0.929500	0.018900
H3381	H338	0.964600	0.859900	0.021100
H3391	H339	0.886900	0.867700	0.159900
H3401	H340	0.784500	0.933500	0.154100
H3411	H341	0.007300	0.789100	0.067700
H3421	H342	0.986400	0.794000	0.122800
H3431	H343	0.101000	0.715100	0.308100
H3441	H344	0.014200	0.789200	0.316000
H3451	H345	0.875800	0.804200	0.363000
H3461	H346	0.829500	0.743100	0.401300
H3471	H347	0.865800	0.506500	0.454700
H3481	H348	0.956400	0.471400	0.434400
H3491	H349	0.832200	0.504200	0.382400
H3501	H350	0.925100	0.473000	0.358800
H3511	H351	0.903800	0.409200	0.397800
H3521	H352	0.833100	0.437900	0.440100
H3531	H353	0.821800	0.426600	0.356600
H3541	H354	0.751000	0.456800	0.398000
H3551	H355	0.820800	0.356000	0.410000
H3561	H356	0.737200	0.375600	0.394200
H3571	H357	0.738600	0.387700	0.444700
H3581	H358	0.097900	0.591800	0.246000
H3591	H359	0.042600	0.594900	0.184500
H3601	H360	0.829000	0.584800	0.275600
H3611	H361	0.887200	0.584100	0.334700
H3621	H362	0.911300	0.612200	0.159600
H3631	H363	0.927200	0.557400	0.165000
H3641	H364	0.672900	0.598900	0.353900
H3651	H365	0.581800	0.557600	0.352000
H3661	H366	0.526900	0.516000	0.417000
H3671	H367	0.577000	0.511200	0.481200
H3681	H368	0.904000	0.573500	0.575100
H3691	H369	0.827600	0.556100	0.607300
H3701	H370	0.824200	0.651900	0.594900
H3711	H371	0.843300	0.622300	0.638900
H3721	H372	0.687700	0.644500	0.616700
H3731	H373	0.706200	0.611900	0.659100
H3741	H374	0.701900	0.707600	0.652400
H3751	H375	0.719600	0.674900	0.695100
H3761	H376	0.565100	0.699000	0.671600
H3771	H377	0.579300	0.720000	0.714600
H3781	H378	0.582900	0.666500	0.714300
H3791	H379	0.483000	0.427100	0.308100
H3801	H380	0.499200	0.429400	0.229600
H3811	H381	0.395900	0.476400	0.198200
H3821	H382	0.271700	0.517700	0.247900
H3831	H383	0.012000	0.610700	0.464500
H3841	H384	0.036100	0.583400	0.508800
H3851	H385	0.133800	0.628000	0.502800
H3861	H386	0.039200	0.659200	0.515200
H3871	H387	0.152500	0.651100	0.425100
H3881	H388	0.057600	0.681700	0.436900
H3891	H389	0.182100	0.700600	0.470600
H3901	H390	0.086800	0.731000	0.483600
H3911	H391	0.101400	0.757100	0.407700
H3921	H392	0.174100	0.766200	0.425000
H3931	H393	0.194000	0.723300	0.391500
H3941	H394	0.793600	0.518900	0.070500
H3951	H395	0.824500	0.521100	0.140100
H3961	H396	0.754600	0.659900	0.132300
H3971	H397	0.718000	0.654100	0.066500
H3981	H398	0.796400	0.567700	0.210900
H3991	H399	0.780400	0.622800	0.206000
H4001	H400	0.624200	0.784900	0.191900
H4011	H401	0.619400	0.710800	0.184000
H4021	H402	0.543000	0.695800	0.137000
H4031	H403	0.473900	0.756900	0.098700
H4041	H404	0.327000	0.993500	0.045300
H4051	H405	0.362200	0.028600	0.065600
H4061	H406	0.218800	0.995800	0.117600
H4071	H407	0.256900	0.027000	0.141200
H4081	H408	0.210800	0.090800	0.102200
H4091	H409	0.211100	0.062100	0.059900
H4101	H410	0.105000	0.073400	0.143400
H4111	H411	0.105800	0.043200	0.102000
H4121	H412	0.086800	0.144000	0.090000
H4131	H413	0.007000	0.124400	0.105800
H4141	H414	0.071000	0.112300	0.055300
H4151	H415	0.435700	0.908200	0.254000
H4161	H416	0.322000	0.905100	0.315500
H4171	H417	0.189400	0.915200	0.224400
H4181	H418	0.306000	0.915900	0.165300
H4191	H419	0.183100	0.887800	0.340400
H4201	H420	0.149600	0.942600	0.335000
H4211	H421	0.125700	0.901100	0.146100
H4221	H422	0.991400	0.942400	0.148000
H4231	H423	0.959900	0.984000	0.083000
H4241	H424	0.069400	0.988800	0.018800
H4251	H425	0.552600	0.926500	0.924900
H4261	H426	0.491000	0.943900	0.892700
H4271	H427	0.571000	0.848100	0.905100
H4281	H428	0.604500	0.877700	0.861100
H4291	H429	0.448900	0.855500	0.883300
H4301	H430	0.477200	0.888100	0.840900
H4311	H431	0.561900	0.792400	0.847600
H4321	H432	0.589600	0.825100	0.804900
H4331	H433	0.435700	0.801000	0.828400
H4341	H434	0.513900	0.780000	0.785400
H4351	H435	0.463700	0.833500	0.785700
H4361	H436	0.718200	0.072900	0.191900
H4371	H437	0.658200	0.070600	0.270400
H4381	H438	0.570500	0.023600	0.301800
H4391	H439	0.537300	0.982300	0.252100
H4401	H440	0.587200	0.889300	0.035500
H4411	H441	0.628300	0.916600	0.991200
H4421	H442	0.764600	0.872000	0.997200
H4431	H443	0.713600	0.840800	0.984800
H4441	H444	0.728700	0.848900	0.074900
H4451	H445	0.676200	0.818300	0.063100
H4461	H446	0.853300	0.799400	0.029400
H4471	H447	0.801400	0.769000	0.016400
H4481	H448	0.766200	0.742900	0.092300
H4491	H449	0.865300	0.733800	0.075000
H4501	H450	0.808800	0.776700	0.108500
H4511	H451	0.883000	0.981100	0.429500
H4521	H452	0.985700	0.978900	0.359900
H4531	H453	0.046800	0.840100	0.367700
H4541	H454	0.938600	0.845900	0.433500
H4551	H455	0.075000	0.932300	0.289100
H4561	H456	0.109200	0.877200	0.294000
C11	C1	0.298920	0.150580	0.682780
C21	C2	0.234360	0.172850	0.720430
C31	C3	0.241610	0.168160	0.764420
C41	C4	0.314480	0.140330	0.773510
C51	C5	0.377730	0.118010	0.737130
C61	C6	0.372860	0.122270	0.691810
C71	C7	0.445700	0.096270	0.655130
C81	C8	0.515940	0.092080	0.537440
C91	C9	0.590520	0.073710	0.497050
C101	C10	0.640190	0.111730	0.479690
C111	C11	0.709800	0.094200	0.436200
C121	C12	0.770100	0.109200	0.429400
C131	C13	0.846400	0.087900	0.382300
C141	C14	0.367490	0.247900	0.590520
C151	C15	0.398570	0.284790	0.591670
C161	C16	0.481080	0.277270	0.588170
C171	C17	0.528880	0.231380	0.586060
C181	C18	0.494560	0.196340	0.585740
C191	C19	0.515600	0.318700	0.587300
C201	C20	0.738720	0.080030	0.581930
C211	C21	0.765310	0.119600	0.581780
C221	C22	0.844430	0.120570	0.557170
C231	C23	0.901620	0.082540	0.531620
C241	C24	0.874690	0.044360	0.529860
C251	C25	0.795040	0.041550	0.554370
C261	C26	0.770820	0.000540	0.548020
C271	C27	0.607930	0.953020	0.586720
C281	C28	0.575760	0.912950	0.581730
C291	C29	0.561940	0.884470	0.626050
C301	C30	0.642380	0.859790	0.638650
C311	C31	0.630220	0.828780	0.680780
C321	C32	0.711600	0.804970	0.692630
C331	C33	0.162870	0.172930	0.471730
C341	C34	0.114920	0.203640	0.445920
C351	C35	0.103560	0.250390	0.447490
C361	C36	0.137520	0.269170	0.474790
C371	C37	0.185780	0.239660	0.499380
C381	C38	0.199600	0.191560	0.498440
C391	C39	0.251660	0.163300	0.526780
C401	C40	0.305350	0.051930	0.565170
C411	C41	0.343310	0.020420	0.599160
C421	C42	0.275110	0.009460	0.640120
C431	C43	0.223220	0.050620	0.670340
C441	C44	0.155740	0.041180	0.711940
C451	C45	0.105500	0.082900	0.742300
C461	C46	0.667880	0.416070	0.548170
C471	C47	0.647670	0.374610	0.549250
C481	C48	0.617910	0.354850	0.591530
C491	C49	0.608670	0.378890	0.630170
C501	C50	0.632320	0.418790	0.626370
C511	C51	0.595100	0.309800	0.592800
C521	C52	0.632280	0.349420	0.817220
C531	C53	0.627640	0.327150	0.779570
C541	C54	0.674190	0.331840	0.735580
C551	C55	0.728320	0.359670	0.726490
C561	C56	0.732870	0.381990	0.762870
C571	C57	0.686940	0.377730	0.808190
C581	C58	0.697100	0.403730	0.844870
C591	C59	0.645460	0.407920	0.962560
C601	C60	0.661280	0.426290	0.002950
C611	C61	0.731610	0.388270	0.020310
C621	C62	0.740200	0.405800	0.063800
C631	C63	0.808700	0.390800	0.070600
C641	C64	0.816600	0.412100	0.117700
C651	C65	0.705910	0.252100	0.909480
C661	C66	0.775030	0.215210	0.908330
C671	C67	0.846520	0.222730	0.911830
C681	C68	0.846320	0.268620	0.913940
C691	C69	0.776640	0.303660	0.914260
C701	C70	0.921600	0.181300	0.912700
C711	C71	0.900680	0.419970	0.918070
C721	C72	0.966690	0.380400	0.918220
C731	C73	0.022170	0.379430	0.942830
C741	C74	0.015780	0.417460	0.968380
C751	C75	0.948910	0.455640	0.970140
C761	C76	0.890960	0.458450	0.945630
C771	C77	0.819380	0.499460	0.951980
C781	C78	0.647670	0.546980	0.913280
C791	C79	0.570440	0.587050	0.918270
C801	C80	0.572460	0.615530	0.873950
C811	C81	0.640820	0.640210	0.861350
C821	C82	0.639780	0.671220	0.819220
C831	C83	0.709200	0.695030	0.807370
C841	C84	0.307530	0.327070	0.028270
C851	C85	0.264480	0.296360	0.054080
C861	C86	0.301440	0.249610	0.052510
C871	C87	0.381480	0.230830	0.025210
C881	C88	0.424820	0.260340	0.000620
C891	C89	0.389600	0.308440	0.001560
C901	C90	0.441740	0.336700	0.973220
C911	C91	0.422450	0.448070	0.934830
C921	C92	0.462890	0.479580	0.900840
C931	C93	0.424690	0.490540	0.859880
C941	C94	0.444180	0.449380	0.829660
C951	C95	0.408860	0.458820	0.788060
C961	C96	0.430700	0.417100	0.757700
C971	C97	0.132120	0.083930	0.951830
C981	C98	0.071530	0.125390	0.950750
C991	C99	0.064290	0.145150	0.908470
C1001	C100	0.117730	0.121110	0.869830
C1011	C101	0.177480	0.081210	0.873630
C1021	C102	0.997700	0.190200	0.907200
C1031	C103	0.981700	0.317220	0.650580
C1041	C104	0.954790	0.279570	0.672850
C1051	C105	0.006030	0.235580	0.668160
C1061	C106	0.087990	0.226490	0.640330
C1071	C107	0.114860	0.262870	0.618010
C1081	C108	0.064670	0.308190	0.622270
C1091	C109	0.100830	0.344870	0.596270
C1101	C110	0.053380	0.462560	0.592080
C1111	C111	0.087570	0.502950	0.573710
C1121	C112	0.119880	0.520310	0.611730
C1131	C113	0.146000	0.563800	0.594200
C1141	C114	0.199500	0.570600	0.609200
C1151	C115	0.228700	0.617700	0.587900
C1161	C116	0.958010	0.409480	0.747900
C1171	C117	0.990240	0.408330	0.784790
C1181	C118	0.069250	0.411830	0.777270
C1191	C119	0.114940	0.413940	0.731380
C1201	C120	0.080300	0.414260	0.696340
C1211	C121	0.102900	0.412700	0.818700
C1221	C122	0.320650	0.418070	0.580030
C1231	C123	0.347090	0.418220	0.619600
C1241	C124	0.401600	0.442830	0.620570
C1251	C125	0.433240	0.468380	0.582540
C1261	C126	0.404550	0.470140	0.544360
C1271	C127	0.349410	0.445630	0.541550
C1281	C128	0.318840	0.451980	0.500540
C1291	C129	0.194650	0.413280	0.453020
C1301	C130	0.157490	0.418270	0.412950
C1311	C131	0.187990	0.373950	0.384470
C1321	C132	0.281030	0.361350	0.359790
C1331	C133	0.311000	0.319220	0.328780
C1341	C134	0.404230	0.307370	0.304970
C1351	C135	0.634600	0.528270	0.672930
C1361	C136	0.560840	0.554080	0.703640
C1371	C137	0.551050	0.552510	0.750390
C1381	C138	0.612310	0.525210	0.769170
C1391	C139	0.685160	0.500620	0.739660
C1401	C140	0.698040	0.501560	0.691560
C1411	C141	0.778440	0.473220	0.663300
C1421	C142	0.870520	0.434830	0.551930
C1431	C143	0.942470	0.400840	0.520420
C1441	C144	0.915230	0.359880	0.509460
C1451	C145	0.893560	0.329660	0.550620
C1461	C146	0.867680	0.288060	0.541180
C1471	C147	0.847800	0.257700	0.582900
C1481	C148	0.216050	0.451830	0.916070
C1491	C149	0.196920	0.450750	0.874610
C1501	C150	0.209440	0.408470	0.854850
C1511	C151	0.238840	0.369830	0.878890
C1521	C152	0.258690	0.373630	0.918790
C1531	C153	0.187900	0.407200	0.809800
C1541	C154	0.449500	0.182780	0.849420
C1551	C155	0.407210	0.220430	0.827150
C1561	C156	0.409770	0.264420	0.831840
C1571	C157	0.454810	0.273510	0.859670
C1581	C158	0.495740	0.237130	0.881990
C1591	C159	0.495130	0.191810	0.877730
C1601	C160	0.541970	0.155130	0.903730
C1611	C161	0.608020	0.037440	0.907920
C1621	C162	0.664230	0.997050	0.926290
C1631	C163	0.751920	0.979690	0.888270
C1641	C164	0.804000	0.936200	0.905800
C1651	C165	0.879300	0.929400	0.890800
C1661	C166	0.934300	0.882300	0.912100
C1671	C167	0.615390	0.090520	0.752100
C1681	C168	0.683360	0.091670	0.715210
C1691	C169	0.758350	0.088170	0.722730
C1701	C170	0.760260	0.086060	0.768620
C1711	C171	0.690900	0.085740	0.803660
C1721	C172	0.834300	0.087300	0.681300
C1731	C173	0.818750	0.081930	0.919970
C1741	C174	0.884910	0.081780	0.880400
C1751	C175	0.965000	0.057170	0.879430
C1761	C176	0.984160	0.031620	0.917460
C1771	C177	0.919050	0.029860	0.955640
C1781	C178	0.836590	0.054370	0.958450
C1791	C179	0.771360	0.048020	0.999460
C1801	C180	0.560950	0.086720	0.046980
C1811	C181	0.488710	0.081730	0.087050
C1821	C182	0.446410	0.126050	0.115530
C1831	C183	0.502170	0.138650	0.140210
C1841	C184	0.459000	0.180780	0.171220
C1851	C185	0.516570	0.192630	0.195030
C1861	C186	0.335800	0.971730	0.827070
C1871	C187	0.318560	0.945920	0.796360
C1881	C188	0.353950	0.947490	0.749610
C1891	C189	0.406690	0.974790	0.730830
C1901	C190	0.425440	0.999380	0.760340
C1911	C191	0.391160	0.998440	0.808440
C1921	C192	0.414960	0.026780	0.836700
C1931	C193	0.357280	0.065170	0.948070
C1941	C194	0.363730	0.099160	0.979580
C1951	C195	0.284570	0.140120	0.990540
C1961	C196	0.273840	0.170340	0.949380
C1971	C197	0.196920	0.211940	0.958820
C1981	C198	0.188400	0.242300	0.917100
C1991	C199	0.083950	0.048170	0.583930
C2001	C200	0.022280	0.049250	0.625390
C2011	C201	0.972760	0.091530	0.645150
C2021	C202	0.987560	0.130170	0.621110
C2031	C203	0.051110	0.126370	0.581210
C2041	C204	0.904900	0.092800	0.690200
C2051	C205	0.701080	0.849420	0.317220
C2061	C206	0.765640	0.827150	0.279570
C2071	C207	0.758390	0.831840	0.235580
C2081	C208	0.685520	0.859670	0.226490
C2091	C209	0.622270	0.881990	0.262870
C2101	C210	0.627140	0.877730	0.308190
C2111	C211	0.554300	0.903730	0.344870
C2121	C212	0.484060	0.907920	0.462560
C2131	C213	0.409480	0.926290	0.502950
C2141	C214	0.359810	0.888270	0.520310
C2151	C215	0.290200	0.905800	0.563800
C2161	C216	0.229900	0.890800	0.570600
C2171	C217	0.153600	0.912100	0.617700
C2181	C218	0.632510	0.752100	0.409480
C2191	C219	0.601430	0.715210	0.408330
C2201	C220	0.518920	0.722730	0.411830
C2211	C221	0.471120	0.768620	0.413940
C2221	C222	0.505440	0.803660	0.414260
C2231	C223	0.484400	0.681300	0.412700
C2241	C224	0.261280	0.919970	0.418070
C2251	C225	0.234690	0.880400	0.418220
C2261	C226	0.155570	0.879430	0.442830
C2271	C227	0.098380	0.917460	0.468380
C2281	C228	0.125310	0.955640	0.470140
C2291	C229	0.204960	0.958450	0.445630
C2301	C230	0.229180	0.999460	0.451980
C2311	C231	0.392070	0.046980	0.413280
C2321	C232	0.424240	0.087050	0.418270
C2331	C233	0.438060	0.115530	0.373950
C2341	C234	0.357620	0.140210	0.361350
C2351	C235	0.369780	0.171220	0.319220
C2361	C236	0.288400	0.195030	0.307370
C2371	C237	0.837130	0.827070	0.528270
C2381	C238	0.885080	0.796360	0.554080
C2391	C239	0.896440	0.749610	0.552510
C2401	C240	0.862480	0.730830	0.525210
C2411	C241	0.814220	0.760340	0.500620
C2421	C242	0.800400	0.808440	0.501560
C2431	C243	0.748340	0.836700	0.473220
C2441	C244	0.694650	0.948070	0.434830
C2451	C245	0.656690	0.979580	0.400840
C2461	C246	0.724890	0.990540	0.359880
C2471	C247	0.776780	0.949380	0.329660
C2481	C248	0.844260	0.958820	0.288060
C2491	C249	0.894500	0.917100	0.257700
C2501	C250	0.332120	0.583930	0.451830
C2511	C251	0.352330	0.625390	0.450750
C2521	C252	0.382090	0.645150	0.408470
C2531	C253	0.391330	0.621110	0.369830
C2541	C254	0.367680	0.581210	0.373630
C2551	C255	0.404900	0.690200	0.407200
C2561	C256	0.367720	0.650580	0.182780
C2571	C257	0.372360	0.672850	0.220430
C2581	C258	0.325810	0.668160	0.264420
C2591	C259	0.271680	0.640330	0.273510
C2601	C260	0.267130	0.618010	0.237130
C2611	C261	0.313060	0.622270	0.191810
C2621	C262	0.302900	0.596270	0.155130
C2631	C263	0.354540	0.592080	0.037440
C2641	C264	0.338720	0.573710	0.997050
C2651	C265	0.268390	0.611730	0.979690
C2661	C266	0.259800	0.594200	0.936200
C2671	C267	0.191300	0.609200	0.929400
C2681	C268	0.183400	0.587900	0.882300
C2691	C269	0.294090	0.747900	0.090520
C2701	C270	0.224970	0.784790	0.091670
C2711	C271	0.153480	0.777270	0.088170
C2721	C272	0.153680	0.731380	0.086060
C2731	C273	0.223360	0.696340	0.085740
C2741	C274	0.078400	0.818700	0.087300
C2751	C275	0.099320	0.580030	0.081930
C2761	C276	0.033310	0.619600	0.081780
C2771	C277	0.977830	0.620570	0.057170
C2781	C278	0.984220	0.582540	0.031620
C2791	C279	0.051090	0.544360	0.029860
C2801	C280	0.109040	0.541550	0.054370
C2811	C281	0.180620	0.500540	0.048020
C2821	C282	0.352330	0.453020	0.086720
C2831	C283	0.429560	0.412950	0.081730
C2841	C284	0.427540	0.384470	0.126050
C2851	C285	0.359180	0.359790	0.138650
C2861	C286	0.360220	0.328780	0.180780
C2871	C287	0.290800	0.304970	0.192630
C2881	C288	0.692470	0.672930	0.971730
C2891	C289	0.735520	0.703640	0.945920
C2901	C290	0.698560	0.750390	0.947490
C2911	C291	0.618520	0.769170	0.974790
C2921	C292	0.575180	0.739660	0.999380
C2931	C293	0.610400	0.691560	0.998440
C2941	C294	0.558260	0.663300	0.026780
C2951	C295	0.577550	0.551930	0.065170
C2961	C296	0.537110	0.520420	0.099160
C2971	C297	0.575310	0.509460	0.140120
C2981	C298	0.555820	0.550620	0.170340
C2991	C299	0.591140	0.541180	0.211940
C3001	C300	0.569300	0.582900	0.242300
C3011	C301	0.867880	0.916070	0.048170
C3021	C302	0.928470	0.874610	0.049250
C3031	C303	0.935710	0.854850	0.091530
C3041	C304	0.882270	0.878890	0.130170
C3051	C305	0.822520	0.918790	0.126370
C3061	C306	0.002300	0.809800	0.092800
C3071	C307	0.018300	0.682780	0.349420
C3081	C308	0.045210	0.720430	0.327150
C3091	C309	0.993970	0.764420	0.331840
C3101	C310	0.912010	0.773510	0.359670
C3111	C311	0.885140	0.737130	0.381990
C3121	C312	0.935330	0.691810	0.377730
C3131	C313	0.899170	0.655130	0.403730
C3141	C314	0.946620	0.537440	0.407920
C3151	C315	0.912430	0.497050	0.426290
C3161	C316	0.880120	0.479690	0.388270
C3171	C317	0.854000	0.436200	0.405800
C3181	C318	0.800500	0.429400	0.390800
C3191	C319	0.771300	0.382300	0.412100
C3201	C320	0.041990	0.590520	0.252100
C3211	C321	0.009760	0.591670	0.215210
C3221	C322	0.930750	0.588170	0.222730
C3231	C323	0.885060	0.586060	0.268620
C3241	C324	0.919700	0.585740	0.303660
C3251	C325	0.897100	0.587300	0.181300
C3261	C326	0.679350	0.581930	0.419970
C3271	C327	0.652910	0.581780	0.380400
C3281	C328	0.598400	0.557170	0.379430
C3291	C329	0.566760	0.531620	0.417460
C3301	C330	0.595450	0.529860	0.455640
C3311	C331	0.650590	0.554370	0.458450
C3321	C332	0.681160	0.548020	0.499460
C3331	C333	0.805350	0.586720	0.546980
C3341	C334	0.842510	0.581730	0.587050
C3351	C335	0.812010	0.626050	0.615530
C3361	C336	0.718970	0.638650	0.640210
C3371	C337	0.689000	0.680780	0.671220
C3381	C338	0.595770	0.692630	0.695030
C3391	C339	0.365400	0.471730	0.327070
C3401	C340	0.439160	0.445920	0.296360
C3411	C341	0.448950	0.447490	0.249610
C3421	C342	0.387690	0.474790	0.230830
C3431	C343	0.314840	0.499380	0.260340
C3441	C344	0.301960	0.498440	0.308440
C3451	C345	0.221560	0.526780	0.336700
C3461	C346	0.129480	0.565170	0.448070
C3471	C347	0.057530	0.599160	0.479580
C3481	C348	0.084770	0.640120	0.490540
C3491	C349	0.106440	0.670340	0.449380
C3501	C350	0.132320	0.711940	0.458820
C3511	C351	0.152200	0.742300	0.417100
C3521	C352	0.783950	0.548170	0.083930
C3531	C353	0.803080	0.549250	0.125390
C3541	C354	0.790560	0.591530	0.145150
C3551	C355	0.761160	0.630170	0.121110
C3561	C356	0.741310	0.626370	0.081210
C3571	C357	0.812100	0.592800	0.190200
C3581	C358	0.550500	0.817220	0.150580
C3591	C359	0.592790	0.779570	0.172850
C3601	C360	0.590230	0.735580	0.168160
C3611	C361	0.545190	0.726490	0.140330
C3621	C362	0.504260	0.762870	0.118010
C3631	C363	0.504870	0.808190	0.122270
C3641	C364	0.458030	0.844870	0.096270
C3651	C365	0.391980	0.962560	0.092080
C3661	C366	0.335770	0.002950	0.073710
C3671	C367	0.248080	0.020310	0.111730
C3681	C368	0.196000	0.063800	0.094200
C3691	C369	0.120700	0.070600	0.109200
C3701	C370	0.065700	0.117700	0.087900
C3711	C371	0.384610	0.909480	0.247900
C3721	C372	0.316640	0.908330	0.284790
C3731	C373	0.241650	0.911830	0.277270
C3741	C374	0.239740	0.913940	0.231380
C3751	C375	0.309100	0.914260	0.196340
C3761	C376	0.165700	0.912700	0.318700
C3771	C377	0.181250	0.918070	0.080030
C3781	C378	0.115090	0.918220	0.119600
C3791	C379	0.035000	0.942830	0.120570
C3801	C380	0.015840	0.968380	0.082540
C3811	C381	0.080950	0.970140	0.044360
C3821	C382	0.163410	0.945630	0.041550
C3831	C383	0.228640	0.951980	0.000540
C3841	C384	0.439050	0.913280	0.953020
C3851	C385	0.511290	0.918270	0.912950
C3861	C386	0.553590	0.873950	0.884470
C3871	C387	0.497830	0.861350	0.859790
C3881	C388	0.541000	0.819220	0.828780
C3891	C389	0.483430	0.807370	0.804970
C3901	C390	0.664200	0.028270	0.172930
C3911	C391	0.681440	0.054080	0.203640
C3921	C392	0.646050	0.052510	0.250390
C3931	C393	0.593310	0.025210	0.269170
C3941	C394	0.574560	0.000620	0.239660
C3951	C395	0.608840	0.001560	0.191560
C3961	C396	0.585040	0.973220	0.163300
C3971	C397	0.642720	0.934830	0.051930
C3981	C398	0.636270	0.900840	0.020420
C3991	C399	0.715430	0.859880	0.009460
C4001	C400	0.726160	0.829660	0.050620
C4011	C401	0.803080	0.788060	0.041180
C4021	C402	0.811600	0.757700	0.082900
C4031	C403	0.916050	0.951830	0.416070
C4041	C404	0.977720	0.950750	0.374610
C4051	C405	0.027240	0.908470	0.354850
C4061	C406	0.012440	0.869830	0.378890
C4071	C407	0.948890	0.873630	0.418790
C4081	C408	0.095100	0.907200	0.309800
N11	N1	0.443410	0.102020	0.611620
N21	N2	0.517660	0.078010	0.579270
N31	N3	0.414060	0.204150	0.587730
N41	N4	0.695440	0.996860	0.570660
N51	N5	0.679420	0.955890	0.560270
N61	N6	0.258720	0.118560	0.530560
N71	N7	0.303390	0.094860	0.561800
N81	N8	0.660680	0.437930	0.586510
N91	N9	0.657050	0.397980	0.888380
N101	N10	0.674940	0.421990	0.920730
N111	N11	0.705940	0.295850	0.912270
N121	N12	0.762960	0.503140	0.929340
N131	N13	0.695580	0.544110	0.939730
N141	N14	0.407840	0.381440	0.969440
N151	N15	0.460050	0.405140	0.938200
N161	N16	0.185120	0.062070	0.913490
N171	N17	0.055030	0.388380	0.602020
N181	N18	0.096930	0.420730	0.578010
N191	N19	0.001790	0.412270	0.704150
N201	N20	0.266100	0.429340	0.496860
N211	N21	0.239690	0.439730	0.455890
N221	N22	0.789280	0.469440	0.618560
N231	N23	0.865190	0.438200	0.594860
N241	N24	0.247190	0.413490	0.937930
N251	N25	0.545430	0.111620	0.897980
N261	N26	0.595670	0.079270	0.921990
N271	N27	0.618210	0.087730	0.795850
N281	N28	0.692300	0.070660	0.003140
N291	N29	0.635310	0.060270	0.044110
N301	N30	0.377280	0.030560	0.881440
N311	N31	0.398250	0.061800	0.905140
N321	N32	0.098610	0.086510	0.562070
N331	N33	0.556590	0.897980	0.388380
N341	N34	0.482340	0.921990	0.420730
N351	N35	0.585940	0.795850	0.412270
N361	N36	0.304560	0.003140	0.429340
N371	N37	0.320580	0.044110	0.439730
N381	N38	0.741280	0.881440	0.469440
N391	N39	0.696610	0.905140	0.438200
N401	N40	0.339320	0.562070	0.413490
N411	N41	0.342950	0.602020	0.111620
N421	N42	0.325060	0.578010	0.079270
N431	N43	0.294060	0.704150	0.087730
N441	N44	0.237040	0.496860	0.070660
N451	N45	0.304420	0.455890	0.060270
N461	N46	0.592160	0.618560	0.030560
N471	N47	0.539950	0.594860	0.061800
N481	N48	0.814880	0.937930	0.086510
N491	N49	0.944970	0.611620	0.397980
N501	N50	0.903070	0.579270	0.421990
N511	N51	0.998210	0.587730	0.295850
N521	N52	0.733900	0.570660	0.503140
N531	N53	0.760310	0.560270	0.544110
N541	N54	0.210720	0.530560	0.381440
N551	N55	0.134810	0.561800	0.405140
N561	N56	0.752810	0.586510	0.062070
N571	N57	0.454570	0.888380	0.102020
N581	N58	0.404330	0.920730	0.078010
N591	N59	0.381790	0.912270	0.204150
N601	N60	0.307700	0.929340	0.996860
N611	N61	0.364690	0.939730	0.955890
N621	N62	0.622720	0.969440	0.118560
N631	N63	0.601750	0.938200	0.094860
N641	N64	0.901390	0.913490	0.437930
O11	O1	0.285780	0.157630	0.641050
O21	O2	0.509190	0.069930	0.666410
O31	O3	0.452820	0.123420	0.528640
O41	O4	0.662770	0.080910	0.608270
O51	O5	0.823300	0.968550	0.520190
O61	O6	0.560890	0.984110	0.618930
O71	O7	0.169550	0.128240	0.468760
O81	O8	0.286950	0.182510	0.548330
O91	O9	0.271610	0.033560	0.540540
O101	O10	0.584460	0.342370	0.858950
O111	O11	0.745530	0.430070	0.833590
O121	O12	0.604880	0.376580	0.971360
O131	O13	0.851950	0.419090	0.891730
O141	O14	0.812040	0.531450	0.979810
O151	O15	0.663930	0.515890	0.881070
O161	O16	0.266550	0.371760	0.031240
O171	O17	0.517790	0.317490	0.951670
O181	O18	0.345710	0.466440	0.959460
O191	O19	0.926830	0.358950	0.657630
O201	O20	0.175600	0.333590	0.569930
O211	O21	0.981460	0.471360	0.623420
O221	O22	0.271040	0.391730	0.580910
O231	O23	0.343490	0.479810	0.468550
O241	O24	0.179820	0.381070	0.484110
O251	O25	0.638310	0.531240	0.628240
O261	O26	0.835280	0.451670	0.682510
O271	O27	0.812150	0.459460	0.533560
O281	O28	0.443410	0.141050	0.842370
O291	O29	0.579120	0.166410	0.930070
O301	O30	0.576240	0.028640	0.876580
O311	O31	0.743680	0.108270	0.919090
O321	O32	0.791850	0.020190	0.031450
O331	O33	0.545000	0.118930	0.015890
O341	O34	0.297790	0.968760	0.871760
O351	O35	0.469460	0.048330	0.817490
O361	O36	0.305170	0.040540	0.966440
O371	O37	0.714220	0.842370	0.358950
O381	O38	0.490810	0.930070	0.333590
O391	O39	0.547180	0.876580	0.471360
O401	O40	0.337230	0.919090	0.391730
O411	O41	0.176700	0.031450	0.479810
O421	O42	0.439110	0.015890	0.381070
O431	O43	0.830450	0.871760	0.531240
O441	O44	0.713050	0.817490	0.451670
O451	O45	0.728390	0.966440	0.459460
O461	O46	0.415540	0.657630	0.141050
O471	O47	0.254470	0.569930	0.166410
O481	O48	0.395120	0.623420	0.028640
O491	O49	0.148050	0.580910	0.108270
O501	O50	0.187960	0.468550	0.020190
O511	O51	0.336070	0.484110	0.118930
O521	O52	0.733450	0.628240	0.968760
O531	O53	0.482210	0.682510	0.048330
O541	O54	0.654290	0.533560	0.040540
O551	O55	0.073170	0.641050	0.342370
O561	O56	0.824400	0.666410	0.430070
O571	O57	0.018540	0.528640	0.376580
O581	O58	0.728960	0.608270	0.419090
O591	O59	0.656510	0.520190	0.531450
O601	O60	0.820180	0.618930	0.515890
O611	O61	0.361690	0.468760	0.371760
O621	O62	0.164720	0.548330	0.317490
O631	O63	0.187850	0.540540	0.466440
O641	O64	0.556590	0.858950	0.157630
O651	O65	0.420880	0.833590	0.069930
O661	O66	0.423760	0.971360	0.123420
O671	O67	0.256320	0.891730	0.080910
O681	O68	0.208150	0.979810	0.968550
O691	O69	0.455000	0.881070	0.984110
O701	O70	0.702210	0.031240	0.128240
O711	O71	0.530540	0.951670	0.182510
O721	O72	0.694830	0.959460	0.033560
