data_XALDOE_clean_PM
_symmetry_space_group_name_H-M	'P1'
_cell_length_a	17.499300
_cell_length_b	30.197000
_cell_length_c	30.197000
_cell_angle_alpha	85.183900
_cell_angle_beta	73.156800
_cell_angle_gamma	73.156800
_symmetry_Int_Tables_number 1

loop_
_symmetry_equiv_pos_as_xyz
'x,y,z'

loop_
_atom_site_label
_atom_site_type_symbol
_atom_site_fract_x
_atom_site_fract_y
_atom_site_fract_z
Mn11	Mn1	0.852650	0.882690	0.034660
Mn21	Mn2	0.798440	0.003080	0.920260
Mn31	Mn3	0.989100	0.916500	0.142540
Mn41	Mn4	0.270010	0.617310	0.465330
Mn51	Mn5	0.221780	0.496920	0.579740
Mn61	Mn6	0.548140	0.583500	0.357460
Mn71	Mn7	0.887310	0.965340	0.382690
Mn81	Mn8	0.718700	0.079740	0.503080
Mn91	Mn9	0.131640	0.857460	0.416500
Mn101	Mn10	0.735340	0.534660	0.117320
Mn111	Mn11	0.801520	0.420260	0.996920
Mn121	Mn12	0.905600	0.642540	0.083500
Mn131	Mn13	0.147350	0.117310	0.965330
Mn141	Mn14	0.201560	0.996920	0.079740
Mn151	Mn15	0.010900	0.083500	0.857460
Mn161	Mn16	0.729990	0.382690	0.534670
Mn171	Mn17	0.778220	0.503080	0.420260
Mn181	Mn18	0.451860	0.416500	0.642540
Mn191	Mn19	0.112690	0.034660	0.617310
Mn201	Mn20	0.281300	0.920260	0.496920
Mn211	Mn21	0.868360	0.142540	0.583500
Mn221	Mn22	0.264650	0.465340	0.882690
Mn231	Mn23	0.198480	0.579740	0.003080
Mn241	Mn24	0.094400	0.357460	0.916500
H11	H1	0.614200	0.902500	0.141900
H21	H2	0.482500	0.945100	0.141100
H31	H3	0.457800	0.988700	0.076500
H41	H4	0.569900	0.992100	0.013700
H51	H5	0.991500	0.944400	0.894000
H61	H6	0.051100	0.926500	0.927100
H71	H7	0.071500	0.848700	0.905500
H81	H8	0.105400	0.879000	0.862400
H91	H9	0.981900	0.889100	0.839900
H101	H10	0.950200	0.857500	0.882300
H111	H11	0.093000	0.825000	0.805800
H121	H12	0.062800	0.793300	0.848500
H131	H13	0.937000	0.803800	0.827200
H141	H14	0.971900	0.832800	0.783000
H151	H15	0.017000	0.779000	0.787000
H161	H16	0.788700	0.928600	0.805800
H171	H17	0.852600	0.929500	0.727100
H181	H18	0.940800	0.976000	0.697600
H191	H19	0.973400	0.016800	0.747600
H201	H20	0.877000	0.082100	0.008900
H211	H21	0.917400	0.109700	0.964900
H221	H22	0.792800	0.157600	0.016600
H231	H23	0.741100	0.127400	0.003400
H241	H24	0.831100	0.181300	0.938300
H251	H25	0.777900	0.151700	0.925700
H261	H26	0.707400	0.231400	0.985200
H271	H27	0.653700	0.201500	0.973500
H281	H28	0.697500	0.222700	0.895100
H291	H29	0.640600	0.265400	0.928600
H301	H30	0.739200	0.257000	0.911000
H311	H31	0.645300	0.074400	0.978600
H321	H32	0.543800	0.143000	0.975800
H331	H33	0.616400	0.132400	0.837800
H341	H34	0.718100	0.066000	0.843800
H351	H35	0.516300	0.204500	0.873500
H361	H36	0.499600	0.212100	0.927700
H371	H37	0.120600	0.784900	0.189100
H381	H38	0.114800	0.710200	0.180800
H391	H39	0.037600	0.695900	0.135100
H401	H40	0.967200	0.756900	0.097700
H411	H41	0.821700	0.994100	0.045100
H421	H42	0.855200	0.029200	0.066200
H431	H43	0.749800	0.030200	0.139200
H441	H44	0.717500	0.993600	0.119200
H451	H45	0.702400	0.088800	0.089000
H461	H46	0.688400	0.052900	0.058300
H471	H47	0.593300	0.081500	0.146700
H481	H48	0.580400	0.043400	0.117600
H491	H49	0.585400	0.126600	0.064600
H501	H50	0.508300	0.136200	0.110200
H511	H51	0.516100	0.099600	0.072600
H521	H52	0.161500	0.247200	0.907600
H531	H53	0.276800	0.185500	0.906500
H541	H54	0.399000	0.276700	0.917300
H551	H55	0.281000	0.335400	0.917600
H561	H56	0.431000	0.160900	0.889100
H571	H57	0.415300	0.167400	0.943000
H581	H58	0.158600	0.597500	0.358100
H591	H59	0.068700	0.554900	0.358900
H601	H60	0.023000	0.511300	0.423500
H611	H61	0.075700	0.507900	0.486300
H621	H62	0.329900	0.555600	0.606000
H631	H63	0.404700	0.573500	0.572900
H641	H64	0.325700	0.651300	0.594500
H651	H65	0.346800	0.621000	0.637600
H661	H66	0.210900	0.610900	0.660100
H671	H67	0.190000	0.642500	0.617700
H681	H68	0.223800	0.675000	0.694200
H691	H69	0.204600	0.706700	0.651500
H701	H70	0.068000	0.696200	0.672800
H711	H71	0.087700	0.667200	0.717000
H721	H72	0.083000	0.721000	0.713000
H731	H73	0.023100	0.571400	0.694200
H741	H74	0.009200	0.570500	0.772900
H751	H75	0.114400	0.524000	0.802400
H761	H76	0.237800	0.483200	0.752400
H771	H77	0.468000	0.417900	0.491100
H781	H78	0.492000	0.390300	0.535100
H791	H79	0.467000	0.342400	0.483400
H801	H80	0.371900	0.372600	0.496600
H811	H81	0.450700	0.318700	0.561700
H821	H82	0.355300	0.348300	0.574300
H831	H83	0.424000	0.268600	0.514800
H841	H84	0.328700	0.298500	0.526500
H851	H85	0.315300	0.277300	0.604900
H861	H86	0.334600	0.234600	0.571400
H871	H87	0.407200	0.243000	0.589000
H881	H88	0.198300	0.425600	0.521400
H891	H89	0.162600	0.357000	0.524200
H901	H90	0.086600	0.367600	0.662200
H911	H91	0.127900	0.434000	0.656200
H921	H92	0.094300	0.295500	0.626500
H931	H93	0.139400	0.287900	0.572300
H941	H94	0.594600	0.715100	0.310900
H951	H95	0.505800	0.789800	0.319200
H961	H96	0.368600	0.804100	0.364900
H971	H97	0.321800	0.743100	0.402300
H981	H98	0.360900	0.505900	0.454900
H991	H99	0.450600	0.470800	0.433800
H1001	H100	0.419200	0.469800	0.360800
H1011	H101	0.330300	0.506400	0.380800
H1021	H102	0.380200	0.411200	0.411000
H1031	H103	0.299600	0.447100	0.441700
H1041	H104	0.321500	0.418500	0.353300
H1051	H105	0.241400	0.456600	0.382400
H1061	H106	0.276600	0.373400	0.435400
H1071	H107	0.254700	0.363800	0.389800
H1081	H108	0.188300	0.400400	0.427400
H1091	H109	0.816300	0.252800	0.592400
H1101	H110	0.868800	0.314500	0.593500
H1111	H111	0.093000	0.223300	0.582700
H1121	H112	0.034000	0.164600	0.582400
H1131	H113	0.981000	0.339100	0.610900
H1141	H114	0.025700	0.332600	0.557000
H1151	H115	0.756100	0.858100	0.402500
H1161	H116	0.623600	0.858900	0.445100
H1171	H117	0.534300	0.923500	0.488700
H1181	H118	0.583600	0.986300	0.492100
H1191	H119	0.885500	0.106000	0.444400
H1201	H120	0.978200	0.072900	0.426500
H1211	H121	0.977000	0.094500	0.348700
H1221	H122	0.967800	0.137600	0.379000
H1231	H123	0.821800	0.160100	0.389100
H1241	H124	0.832500	0.117700	0.357500
H1251	H125	0.898800	0.194200	0.325000
H1261	H126	0.911300	0.151500	0.293300
H1271	H127	0.764200	0.172800	0.303800
H1281	H128	0.754900	0.217000	0.332800
H1291	H129	0.804000	0.213000	0.279000
H1301	H130	0.594500	0.194200	0.428600
H1311	H131	0.579700	0.272900	0.429500
H1321	H132	0.638400	0.302400	0.476000
H1331	H133	0.721000	0.252400	0.516800
H1341	H134	0.885900	0.991100	0.582100
H1351	H135	0.882300	0.035100	0.609700
H1361	H136	0.809400	0.983400	0.657600
H1371	H137	0.744500	0.996600	0.627400
H1381	H138	0.769400	0.061700	0.681300
H1391	H139	0.703600	0.074300	0.651700
H1401	H140	0.692600	0.014800	0.731400
H1411	H141	0.627200	0.026500	0.701500
H1421	H142	0.592600	0.104900	0.722700
H1431	H143	0.569200	0.071400	0.765400
H1441	H144	0.650200	0.089000	0.757000
H1451	H145	0.623900	0.021400	0.574400
H1461	H146	0.519600	0.024200	0.643000
H1471	H147	0.454200	0.162200	0.632400
H1481	H148	0.561900	0.156200	0.566000
H1491	H149	0.389800	0.126500	0.704500
H1501	H150	0.427300	0.072300	0.712100
H1511	H151	0.309700	0.810900	0.284900
H1521	H152	0.295600	0.819200	0.210200
H1531	H153	0.172700	0.864900	0.195900
H1541	H154	0.064900	0.902300	0.256900
H1551	H155	0.866800	0.954900	0.494100
H1561	H156	0.921400	0.933800	0.529200
H1571	H157	0.889000	0.860800	0.530200
H1581	H158	0.836700	0.880800	0.493600
H1591	H159	0.791400	0.911000	0.588800
H1601	H160	0.746700	0.941700	0.552900
H1611	H161	0.740000	0.853300	0.581500
H1621	H162	0.698000	0.882400	0.543400
H1631	H163	0.650000	0.935400	0.626600
H1641	H164	0.618500	0.889800	0.636200
H1651	H165	0.588700	0.927400	0.599600
H1661	H166	0.069100	0.092400	0.747200
H1671	H167	0.183300	0.093500	0.685500
H1681	H168	0.316300	0.082700	0.776700
H1691	H169	0.198600	0.082400	0.835400
H1701	H170	0.320100	0.110900	0.660900
H1711	H171	0.358300	0.057000	0.667400
H1721	H172	0.516700	0.641900	0.097500
H1731	H173	0.427600	0.641100	0.054900
H1741	H174	0.446500	0.576500	0.011300
H1751	H175	0.562000	0.513700	0.007900
H1761	H176	0.935900	0.394000	0.055600
H1771	H177	0.977600	0.427100	0.073500
H1781	H178	0.920200	0.405500	0.151300
H1791	H179	0.984400	0.362400	0.121000
H1801	H180	0.871000	0.339900	0.110900
H1811	H181	0.807700	0.382300	0.142500
H1821	H182	0.918000	0.305800	0.175000
H1831	H183	0.856100	0.348500	0.206700
H1841	H184	0.740800	0.327200	0.196200
H1851	H185	0.804700	0.283000	0.167200
H1861	H186	0.796000	0.287000	0.221000
H1871	H187	0.717300	0.305800	0.071400
H1881	H188	0.782100	0.227100	0.070500
H1891	H189	0.916800	0.197600	0.024000
H1901	H190	0.990200	0.247600	0.983200
H1911	H191	0.959100	0.508900	0.917900
H1921	H192	0.027100	0.464900	0.890300
H1931	H193	0.950400	0.516600	0.842400
H1941	H194	0.868500	0.503400	0.872600
H1951	H195	0.012400	0.438300	0.818700
H1961	H196	0.929600	0.425700	0.848300
H1971	H197	0.938800	0.485200	0.768600
H1981	H198	0.855200	0.473500	0.798500
H1991	H199	0.920200	0.395100	0.777300
H2001	H200	0.906000	0.428600	0.734600
H2011	H201	0.996200	0.411000	0.743000
H2021	H202	0.719700	0.478600	0.925600
H2031	H203	0.686800	0.475800	0.857000
H2041	H204	0.748800	0.337800	0.867600
H2051	H205	0.784100	0.343800	0.934000
H2061	H206	0.720800	0.373500	0.795500
H2071	H207	0.711700	0.427700	0.787900
H2081	H208	0.905500	0.689100	0.215100
H2091	H209	0.825000	0.680800	0.289800
H2101	H210	0.733500	0.635100	0.304100
H2111	H211	0.724100	0.597700	0.243100
H2121	H212	0.815800	0.545100	0.005900
H2131	H213	0.884400	0.566200	0.970800
H2141	H214	0.780000	0.639200	0.969800
H2151	H215	0.711100	0.619200	0.006400
H2161	H216	0.791200	0.589000	0.911200
H2171	H217	0.741300	0.558300	0.947100
H2181	H218	0.674800	0.646700	0.918500
H2191	H219	0.623800	0.617600	0.956600
H2201	H220	0.712000	0.564600	0.873400
H2211	H221	0.644500	0.610200	0.863800
H2221	H222	0.615700	0.572600	0.900400
H2231	H223	0.408700	0.407600	0.752800
H2241	H224	0.462300	0.406500	0.814500
H2251	H225	0.675700	0.417300	0.723300
H2261	H226	0.616400	0.417600	0.664600
H2271	H227	0.591900	0.389100	0.839100
H2281	H228	0.582700	0.443000	0.832600
H2291	H229	0.385800	0.097500	0.858100
H2301	H230	0.517500	0.054900	0.858900
H2311	H231	0.542200	0.011300	0.923500
H2321	H232	0.430100	0.007900	0.986300
H2331	H233	0.008500	0.055600	0.106000
H2341	H234	0.948900	0.073500	0.072900
H2351	H235	0.928500	0.151300	0.094500
H2361	H236	0.894600	0.121000	0.137600
H2371	H237	0.018100	0.110900	0.160100
H2381	H238	0.049800	0.142500	0.117700
H2391	H239	0.907000	0.175000	0.194200
H2401	H240	0.937200	0.206700	0.151500
H2411	H241	0.063000	0.196200	0.172800
H2421	H242	0.028100	0.167200	0.217000
H2431	H243	0.983000	0.221000	0.213000
H2441	H244	0.211300	0.071400	0.194200
H2451	H245	0.147400	0.070500	0.272900
H2461	H246	0.059200	0.024000	0.302400
H2471	H247	0.026600	0.983200	0.252400
H2481	H248	0.123000	0.917900	0.991100
H2491	H249	0.082600	0.890300	0.035100
H2501	H250	0.207200	0.842400	0.983400
H2511	H251	0.258900	0.872600	0.996600
H2521	H252	0.168900	0.818700	0.061700
H2531	H253	0.222100	0.848300	0.074300
H2541	H254	0.292600	0.768600	0.014800
H2551	H255	0.346300	0.798500	0.026500
H2561	H256	0.302500	0.777300	0.104900
H2571	H257	0.359400	0.734600	0.071400
H2581	H258	0.260800	0.743000	0.089000
H2591	H259	0.354700	0.925600	0.021400
H2601	H260	0.456200	0.857000	0.024200
H2611	H261	0.383600	0.867600	0.162200
H2621	H262	0.281900	0.934000	0.156200
H2631	H263	0.483700	0.795500	0.126500
H2641	H264	0.500400	0.787900	0.072300
H2651	H265	0.879400	0.215100	0.810900
H2661	H266	0.885200	0.289800	0.819200
H2671	H267	0.962400	0.304100	0.864900
H2681	H268	0.032800	0.243100	0.902300
H2691	H269	0.178300	0.005900	0.954900
H2701	H270	0.144800	0.970800	0.933800
H2711	H271	0.250200	0.969800	0.860800
H2721	H272	0.282500	0.006400	0.880800
H2731	H273	0.297600	0.911200	0.911000
H2741	H274	0.311600	0.947100	0.941700
H2751	H275	0.406700	0.918500	0.853300
H2761	H276	0.419600	0.956600	0.882400
H2771	H277	0.414600	0.873400	0.935400
H2781	H278	0.491700	0.863800	0.889800
H2791	H279	0.483900	0.900400	0.927400
H2801	H280	0.838500	0.752800	0.092400
H2811	H281	0.723200	0.814500	0.093500
H2821	H282	0.601000	0.723300	0.082700
H2831	H283	0.719000	0.664600	0.082400
H2841	H284	0.569000	0.839100	0.110900
H2851	H285	0.584700	0.832600	0.057000
H2861	H286	0.841400	0.402500	0.641900
H2871	H287	0.931300	0.445100	0.641100
H2881	H288	0.977000	0.488700	0.576500
H2891	H289	0.924300	0.492100	0.513700
H2901	H290	0.670100	0.444400	0.394000
H2911	H291	0.595300	0.426500	0.427100
H2921	H292	0.674300	0.348700	0.405500
H2931	H293	0.653200	0.379000	0.362400
H2941	H294	0.789100	0.389100	0.339900
H2951	H295	0.810000	0.357500	0.382300
H2961	H296	0.776200	0.325000	0.305800
H2971	H297	0.795400	0.293300	0.348500
H2981	H298	0.932000	0.303800	0.327200
H2991	H299	0.912300	0.332800	0.283000
H3001	H300	0.917000	0.279000	0.287000
H3011	H301	0.976900	0.428600	0.305800
H3021	H302	0.990800	0.429500	0.227100
H3031	H303	0.885600	0.476000	0.197600
H3041	H304	0.762200	0.516800	0.247600
H3051	H305	0.532000	0.582100	0.508900
H3061	H306	0.508000	0.609700	0.464900
H3071	H307	0.533000	0.657600	0.516600
H3081	H308	0.628100	0.627400	0.503400
H3091	H309	0.549300	0.681300	0.438300
H3101	H310	0.644700	0.651700	0.425700
H3111	H311	0.576000	0.731400	0.485200
H3121	H312	0.671300	0.701500	0.473500
H3131	H313	0.684700	0.722700	0.395100
H3141	H314	0.665400	0.765400	0.428600
H3151	H315	0.592800	0.757000	0.411000
H3161	H316	0.801700	0.574400	0.478600
H3171	H317	0.837400	0.643000	0.475800
H3181	H318	0.913400	0.632400	0.337800
H3191	H319	0.872100	0.566000	0.343800
H3201	H320	0.905700	0.704500	0.373500
H3211	H321	0.860600	0.712100	0.427700
H3221	H322	0.405400	0.284900	0.689100
H3231	H323	0.494200	0.210200	0.680800
H3241	H324	0.631400	0.195900	0.635100
H3251	H325	0.678200	0.256900	0.597700
H3261	H326	0.639100	0.494100	0.545100
H3271	H327	0.549400	0.529200	0.566200
H3281	H328	0.580800	0.530200	0.639200
H3291	H329	0.669700	0.493600	0.619200
H3301	H330	0.619800	0.588800	0.589000
H3311	H331	0.700400	0.552900	0.558300
H3321	H332	0.678500	0.581500	0.646700
H3331	H333	0.758600	0.543400	0.617600
H3341	H334	0.723400	0.626600	0.564600
H3351	H335	0.745300	0.636200	0.610200
H3361	H336	0.811700	0.599600	0.572600
H3371	H337	0.183700	0.747200	0.407600
H3381	H338	0.131200	0.685500	0.406500
H3391	H339	0.907000	0.776700	0.417300
H3401	H340	0.966000	0.835400	0.417600
H3411	H341	0.019000	0.660900	0.389100
H3421	H342	0.974300	0.667400	0.443000
H3431	H343	0.243900	0.141900	0.597500
H3441	H344	0.376400	0.141100	0.554900
H3451	H345	0.465700	0.076500	0.511300
H3461	H346	0.416400	0.013700	0.507900
H3471	H347	0.114500	0.894000	0.555600
H3481	H348	0.021800	0.927100	0.573500
H3491	H349	0.023000	0.905500	0.651300
H3501	H350	0.032200	0.862400	0.621000
H3511	H351	0.178200	0.839900	0.610900
H3521	H352	0.167500	0.882300	0.642500
H3531	H353	0.101200	0.805800	0.675000
H3541	H354	0.088700	0.848500	0.706700
H3551	H355	0.235800	0.827200	0.696200
H3561	H356	0.245100	0.783000	0.667200
H3571	H357	0.196000	0.787000	0.721000
H3581	H358	0.405500	0.805800	0.571400
H3591	H359	0.420300	0.727100	0.570500
H3601	H360	0.361600	0.697600	0.524000
H3611	H361	0.279000	0.747600	0.483200
H3621	H362	0.114100	0.008900	0.417900
H3631	H363	0.117700	0.964900	0.390300
H3641	H364	0.190600	0.016600	0.342400
H3651	H365	0.255500	0.003400	0.372600
H3661	H366	0.230600	0.938300	0.318700
H3671	H367	0.296400	0.925700	0.348300
H3681	H368	0.307400	0.985200	0.268600
H3691	H369	0.372800	0.973500	0.298500
H3701	H370	0.407400	0.895100	0.277300
H3711	H371	0.430800	0.928600	0.234600
H3721	H372	0.349800	0.911000	0.243000
H3731	H373	0.376100	0.978600	0.425600
H3741	H374	0.480400	0.975800	0.357000
H3751	H375	0.545800	0.837800	0.367600
H3761	H376	0.438100	0.843800	0.434000
H3771	H377	0.610200	0.873500	0.295500
H3781	H378	0.572700	0.927700	0.287900
H3791	H379	0.690300	0.189100	0.715100
H3801	H380	0.704400	0.180800	0.789800
H3811	H381	0.827300	0.135100	0.804100
H3821	H382	0.935100	0.097700	0.743100
H3831	H383	0.133200	0.045100	0.505900
H3841	H384	0.078600	0.066200	0.470800
H3851	H385	0.111000	0.139200	0.469800
H3861	H386	0.163300	0.119200	0.506400
H3871	H387	0.208600	0.089000	0.411200
H3881	H388	0.253300	0.058300	0.447100
H3891	H389	0.260000	0.146700	0.418500
H3901	H390	0.302000	0.117600	0.456600
H3911	H391	0.350000	0.064600	0.373400
H3921	H392	0.381500	0.110200	0.363800
H3931	H393	0.411300	0.072600	0.400400
H3941	H394	0.930900	0.907600	0.252800
H3951	H395	0.816700	0.906500	0.314500
H3961	H396	0.683700	0.917300	0.223300
H3971	H397	0.801400	0.917600	0.164600
H3981	H398	0.679900	0.889100	0.339100
H3991	H399	0.641700	0.943000	0.332600
H4001	H400	0.483300	0.358100	0.902500
H4011	H401	0.572400	0.358900	0.945100
H4021	H402	0.553500	0.423500	0.988700
H4031	H403	0.438000	0.486300	0.992100
H4041	H404	0.064100	0.606000	0.944400
H4051	H405	0.022400	0.572900	0.926500
H4061	H406	0.079800	0.594500	0.848700
H4071	H407	0.015600	0.637600	0.879000
H4081	H408	0.129000	0.660100	0.889100
H4091	H409	0.192300	0.617700	0.857500
H4101	H410	0.082000	0.694200	0.825000
H4111	H411	0.143900	0.651500	0.793300
H4121	H412	0.259200	0.672800	0.803800
H4131	H413	0.195300	0.717000	0.832800
H4141	H414	0.204000	0.713000	0.779000
H4151	H415	0.282700	0.694200	0.928600
H4161	H416	0.217900	0.772900	0.929500
H4171	H417	0.083200	0.802400	0.976000
H4181	H418	0.009800	0.752400	0.016800
H4191	H419	0.040900	0.491100	0.082100
H4201	H420	0.972900	0.535100	0.109700
H4211	H421	0.049600	0.483400	0.157600
H4221	H422	0.131500	0.496600	0.127400
H4231	H423	0.987600	0.561700	0.181300
H4241	H424	0.070400	0.574300	0.151700
H4251	H425	0.061200	0.514800	0.231400
H4261	H426	0.144800	0.526500	0.201500
H4271	H427	0.079800	0.604900	0.222700
H4281	H428	0.094000	0.571400	0.265400
H4291	H429	0.003800	0.589000	0.257000
H4301	H430	0.280300	0.521400	0.074400
H4311	H431	0.313200	0.524200	0.143000
H4321	H432	0.251200	0.662200	0.132400
H4331	H433	0.215900	0.656200	0.066000
H4341	H434	0.279200	0.626500	0.204500
H4351	H435	0.288300	0.572300	0.212100
H4361	H436	0.094500	0.310900	0.784900
H4371	H437	0.175000	0.319200	0.710200
H4381	H438	0.266500	0.364900	0.695900
H4391	H439	0.275900	0.402300	0.756900
H4401	H440	0.184200	0.454900	0.994100
H4411	H441	0.115600	0.433800	0.029200
H4421	H442	0.220000	0.360800	0.030200
H4431	H443	0.288900	0.380800	0.993600
H4441	H444	0.208800	0.411000	0.088800
H4451	H445	0.258700	0.441700	0.052900
H4461	H446	0.325200	0.353300	0.081500
H4471	H447	0.376200	0.382400	0.043400
H4481	H448	0.288000	0.435400	0.126600
H4491	H449	0.355500	0.389800	0.136200
H4501	H450	0.384300	0.427400	0.099600
H4511	H451	0.591300	0.592400	0.247200
H4521	H452	0.537700	0.593500	0.185500
H4531	H453	0.324300	0.582700	0.276700
H4541	H454	0.383600	0.582400	0.335400
H4551	H455	0.408100	0.610900	0.160900
H4561	H456	0.417300	0.557000	0.167400
C11	C1	0.674580	0.919460	0.076180
C21	C2	0.605880	0.920020	0.115220
C31	C3	0.527790	0.945510	0.114710
C41	C4	0.512760	0.971980	0.076700
C51	C5	0.579340	0.973310	0.039410
C61	C6	0.659840	0.948150	0.038170
C71	C7	0.726990	0.953900	0.997940
C81	C8	0.937930	0.913170	0.953030
C91	C9	0.010860	0.918520	0.914160
C101	C10	0.054490	0.874750	0.885070
C111	C11	0.000330	0.862520	0.859420
C121	C12	0.043480	0.819870	0.829170
C131	C13	0.987240	0.807770	0.804350
C141	C14	0.841830	0.972940	0.825000
C151	C15	0.825980	0.946990	0.794250
C161	C16	0.863530	0.947670	0.747470
C171	C17	0.916720	0.974500	0.730060
C181	C18	0.934990	0.999230	0.759790
C191	C19	0.898820	0.999270	0.807290
C201	C20	0.921030	0.027300	0.836500
C211	C21	0.861210	0.064750	0.948370
C221	C22	0.868480	0.098240	0.980000
C231	C23	0.790450	0.139200	0.991700
C241	C24	0.781000	0.170280	0.950320
C251	C25	0.703880	0.212500	0.960940
C261	C26	0.694490	0.241870	0.920550
C271	C27	0.639700	0.086770	0.949430
C281	C28	0.578970	0.127710	0.947950
C291	C29	0.569720	0.146220	0.906140
C301	C30	0.621850	0.121630	0.867470
C311	C31	0.681610	0.081640	0.871340
C321	C32	0.502020	0.190120	0.904440
C331	C33	0.045720	0.817420	0.148540
C341	C34	0.088610	0.779760	0.170420
C351	C35	0.085320	0.735110	0.165450
C361	C36	0.039910	0.726510	0.138470
C371	C37	0.998050	0.762930	0.116570
C381	C38	0.998880	0.808740	0.120840
C391	C39	0.952150	0.845240	0.095860
C401	C40	0.886410	0.963160	0.091620
C411	C41	0.829570	0.003270	0.073790
C421	C42	0.742520	0.019740	0.110820
C431	C43	0.683200	0.060800	0.090400
C441	C44	0.600500	0.071200	0.115000
C451	C45	0.547200	0.112500	0.087900
C461	C46	0.210850	0.253210	0.909490
C471	C47	0.278990	0.216160	0.909260
C481	C48	0.350360	0.224100	0.913180
C491	C49	0.350510	0.269630	0.915550
C501	C50	0.280220	0.304360	0.915400
C511	C51	0.426720	0.183120	0.912640
C521	C52	0.170220	0.580540	0.423820
C531	C53	0.141120	0.579980	0.384780
C541	C54	0.088010	0.554490	0.385290
C551	C55	0.061440	0.528020	0.423300
C561	C56	0.092060	0.526690	0.460590
C571	C57	0.146160	0.551850	0.461830
C581	C58	0.178830	0.546100	0.502060
C591	C59	0.304130	0.586830	0.546970
C601	C60	0.343540	0.581480	0.585840
C611	C61	0.314310	0.625250	0.614930
C621	C62	0.222270	0.637480	0.640580
C631	C63	0.192520	0.680130	0.670830
C641	C64	0.099360	0.692230	0.695650
C651	C65	0.139770	0.527060	0.675000
C661	C66	0.067220	0.553010	0.705750
C671	C67	0.058670	0.552330	0.752530
C681	C68	0.121280	0.525500	0.769940
C691	C69	0.194010	0.500770	0.740210
C701	C70	0.205380	0.500730	0.692710
C711	C71	0.284830	0.472700	0.663500
C721	C72	0.374330	0.435250	0.551630
C731	C73	0.446720	0.401760	0.520000
C741	C74	0.421350	0.360800	0.508300
C751	C75	0.401600	0.329720	0.549680
C761	C76	0.377320	0.287500	0.539060
C771	C77	0.356910	0.258130	0.579450
C781	C78	0.175900	0.413230	0.550570
C791	C79	0.154630	0.372290	0.552050
C801	C80	0.122080	0.353780	0.593860
C811	C81	0.110950	0.378370	0.632530
C821	C82	0.134590	0.418360	0.628660
C831	C83	0.096580	0.309880	0.595560
C841	C84	0.511680	0.682580	0.351460
C851	C85	0.538790	0.720240	0.329580
C861	C86	0.485880	0.764890	0.334550
C871	C87	0.404890	0.773490	0.361530
C881	C88	0.377550	0.737070	0.383430
C891	C89	0.428460	0.691260	0.379160
C901	C90	0.393250	0.654760	0.404140
C911	C91	0.441190	0.536840	0.408380
C921	C92	0.406630	0.496730	0.426210
C931	C93	0.373080	0.480260	0.389180
C941	C94	0.334400	0.439200	0.409600
C951	C95	0.286700	0.428800	0.385000
C961	C96	0.247600	0.387500	0.412100
C971	C97	0.873550	0.246790	0.590510
C981	C98	0.904410	0.283840	0.590740
C991	C99	0.987640	0.275900	0.586820
C1001	C100	0.035690	0.230370	0.584450
C1011	C101	0.999980	0.195640	0.584600
C1021	C102	0.022480	0.316880	0.587360
C1031	C103	0.750760	0.923820	0.419460
C1041	C104	0.721100	0.884780	0.420020
C1051	C105	0.642500	0.885290	0.445510
C1061	C106	0.589460	0.923300	0.471980
C1071	C107	0.618750	0.960590	0.473310
C1081	C108	0.698010	0.961830	0.448150
C1091	C109	0.724930	0.002060	0.453900
C1101	C110	0.890960	0.046970	0.413170
C1111	C111	0.925020	0.085840	0.418520
C1121	C112	0.939560	0.114930	0.374750
C1131	C113	0.859750	0.140580	0.362520
C1141	C114	0.872650	0.170830	0.319870
C1151	C115	0.791590	0.195650	0.307770
C1161	C116	0.666830	0.175000	0.472940
C1171	C117	0.620230	0.205750	0.446990
C1181	C118	0.611000	0.252530	0.447670
C1191	C119	0.646780	0.269940	0.474500
C1201	C120	0.694780	0.240210	0.499230
C1211	C121	0.706110	0.192710	0.499270
C1221	C122	0.757530	0.163500	0.527300
C1231	C123	0.809580	0.051630	0.564750
C1241	C124	0.848480	0.020000	0.598240
C1251	C125	0.782150	0.008300	0.639200
C1261	C126	0.731320	0.049680	0.670280
C1271	C127	0.664820	0.039060	0.712500
C1281	C128	0.615040	0.079450	0.741870
C1291	C129	0.589130	0.050570	0.586770
C1301	C130	0.526920	0.052050	0.627710
C1311	C131	0.475860	0.093860	0.646220
C1321	C132	0.489320	0.132530	0.621630
C1331	C133	0.552950	0.128660	0.581640
C1341	C134	0.406460	0.095560	0.690120
C1351	C135	0.194260	0.851460	0.317420
C1361	C136	0.259030	0.829580	0.279760
C1371	C137	0.250770	0.834550	0.235110
C1381	C138	0.178380	0.861530	0.226510
C1391	C139	0.114620	0.883430	0.262930
C1401	C140	0.119720	0.879160	0.308740
C1411	C141	0.048010	0.904140	0.345240
C1421	C142	0.978030	0.908380	0.463160
C1431	C143	0.903360	0.926210	0.503270
C1441	C144	0.853340	0.889180	0.519740
C1451	C145	0.773600	0.909600	0.560800
C1461	C146	0.715500	0.885000	0.571200
C1471	C147	0.635100	0.912100	0.612500
C1481	C148	0.120340	0.090510	0.753210
C1491	C149	0.188250	0.090740	0.716160
C1501	C150	0.263540	0.086820	0.724100
C1511	C151	0.266060	0.084450	0.769630
C1521	C152	0.195620	0.084600	0.804360
C1531	C153	0.339360	0.087360	0.683120
C1541	C154	0.594040	0.576180	0.080540
C1551	C155	0.525900	0.615220	0.079980
C1561	C156	0.473300	0.614710	0.054490
C1571	C157	0.484740	0.576700	0.028020
C1581	C158	0.552650	0.539410	0.026690
C1591	C159	0.607990	0.538170	0.051850
C1601	C160	0.680890	0.497940	0.046100
C1611	C161	0.851100	0.453030	0.086830
C1621	C162	0.929380	0.414160	0.081480
C1631	C163	0.929240	0.385070	0.125250
C1641	C164	0.862850	0.359420	0.137480
C1651	C165	0.863350	0.329170	0.180130
C1661	C166	0.795010	0.304350	0.192230
C1671	C167	0.814770	0.325000	0.027060
C1681	C168	0.772970	0.294250	0.053010
C1691	C169	0.811200	0.247470	0.052330
C1701	C170	0.891220	0.230060	0.025500
C1711	C171	0.934220	0.259790	0.000770
C1721	C172	0.898090	0.307290	0.000730
C1731	C173	0.948330	0.336500	0.972700
C1741	C174	0.925960	0.448370	0.935250
C1751	C175	0.966720	0.480000	0.901760
C1761	C176	0.929650	0.491700	0.860800
C1771	C177	0.951280	0.450320	0.829720
C1781	C178	0.916380	0.460940	0.787500
C1791	C179	0.936360	0.420550	0.758130
C1801	C180	0.726470	0.449430	0.913230
C1811	C181	0.706680	0.447950	0.872290
C1821	C182	0.715940	0.406140	0.853780
C1831	C183	0.743480	0.367470	0.878370
C1841	C184	0.763250	0.371340	0.918360
C1851	C185	0.692140	0.404440	0.809880
C1861	C186	0.863140	0.648540	0.182580
C1871	C187	0.868370	0.670420	0.220240
C1881	C188	0.820430	0.665450	0.264890
C1891	C189	0.766420	0.638470	0.273490
C1901	C190	0.760980	0.616570	0.237070
C1911	C191	0.807620	0.620840	0.191260
C1921	C192	0.797390	0.595860	0.154760
C1931	C193	0.849570	0.591620	0.036840
C1941	C194	0.832840	0.573790	0.996730
C1951	C195	0.762260	0.610820	0.980260
C1961	C196	0.744000	0.590400	0.939200
C1971	C197	0.671700	0.615000	0.928800
C1981	C198	0.659700	0.587900	0.887500
C1991	C199	0.464060	0.409490	0.746790
C2001	C200	0.495150	0.409260	0.783840
C2011	C201	0.574460	0.413180	0.775900
C2021	C202	0.620140	0.415550	0.730370
C2031	C203	0.584580	0.415400	0.695640
C2041	C204	0.609840	0.412640	0.816880
C2051	C205	0.325420	0.080540	0.923820
C2061	C206	0.394120	0.079980	0.884780
C2071	C207	0.472210	0.054490	0.885290
C2081	C208	0.487240	0.028020	0.923300
C2091	C209	0.420660	0.026690	0.960590
C2101	C210	0.340160	0.051850	0.961830
C2111	C211	0.273010	0.046100	0.002060
C2121	C212	0.062070	0.086830	0.046970
C2131	C213	0.989140	0.081480	0.085840
C2141	C214	0.945510	0.125250	0.114930
C2151	C215	0.999670	0.137480	0.140580
C2161	C216	0.956520	0.180130	0.170830
C2171	C217	0.012760	0.192230	0.195650
C2181	C218	0.158170	0.027060	0.175000
C2191	C219	0.174020	0.053010	0.205750
C2201	C220	0.136470	0.052330	0.252530
C2211	C221	0.083280	0.025500	0.269940
C2221	C222	0.065010	0.000770	0.240210
C2231	C223	0.101180	0.000730	0.192710
C2241	C224	0.078970	0.972700	0.163500
C2251	C225	0.138790	0.935250	0.051630
C2261	C226	0.131520	0.901760	0.020000
C2271	C227	0.209550	0.860800	0.008300
C2281	C228	0.219000	0.829720	0.049680
C2291	C229	0.296120	0.787500	0.039060
C2301	C230	0.305510	0.758130	0.079450
C2311	C231	0.360300	0.913230	0.050570
C2321	C232	0.421030	0.872290	0.052050
C2331	C233	0.430280	0.853780	0.093860
C2341	C234	0.378150	0.878370	0.132530
C2351	C235	0.318390	0.918360	0.128660
C2361	C236	0.497980	0.809880	0.095560
C2371	C237	0.954280	0.182580	0.851460
C2381	C238	0.911390	0.220240	0.829580
C2391	C239	0.914680	0.264890	0.834550
C2401	C240	0.960090	0.273490	0.861530
C2411	C241	0.001950	0.237070	0.883430
C2421	C242	0.001120	0.191260	0.879160
C2431	C243	0.047850	0.154760	0.904140
C2441	C244	0.113590	0.036840	0.908380
C2451	C245	0.170430	0.996730	0.926210
C2461	C246	0.257480	0.980260	0.889180
C2471	C247	0.316800	0.939200	0.909600
C2481	C248	0.399500	0.928800	0.885000
C2491	C249	0.452800	0.887500	0.912100
C2501	C250	0.789150	0.746790	0.090510
C2511	C251	0.721010	0.783840	0.090740
C2521	C252	0.649640	0.775900	0.086820
C2531	C253	0.649490	0.730370	0.084450
C2541	C254	0.719780	0.695640	0.084600
C2551	C255	0.573280	0.816880	0.087360
C2561	C256	0.829780	0.419460	0.576180
C2571	C257	0.858880	0.420020	0.615220
C2581	C258	0.911990	0.445510	0.614710
C2591	C259	0.938560	0.471980	0.576700
C2601	C260	0.907940	0.473310	0.539410
C2611	C261	0.853840	0.448150	0.538170
C2621	C262	0.821170	0.453900	0.497940
C2631	C263	0.695870	0.413170	0.453030
C2641	C264	0.656460	0.418520	0.414160
C2651	C265	0.685690	0.374750	0.385070
C2661	C266	0.777730	0.362520	0.359420
C2671	C267	0.807480	0.319870	0.329170
C2681	C268	0.900640	0.307770	0.304350
C2691	C269	0.860230	0.472940	0.325000
C2701	C270	0.932780	0.446990	0.294250
C2711	C271	0.941330	0.447670	0.247470
C2721	C272	0.878720	0.474500	0.230060
C2731	C273	0.805990	0.499230	0.259790
C2741	C274	0.794620	0.499270	0.307290
C2751	C275	0.715170	0.527300	0.336500
C2761	C276	0.625670	0.564750	0.448370
C2771	C277	0.553280	0.598240	0.480000
C2781	C278	0.578650	0.639200	0.491700
C2791	C279	0.598400	0.670280	0.450320
C2801	C280	0.622680	0.712500	0.460940
C2811	C281	0.643090	0.741870	0.420550
C2821	C282	0.824100	0.586770	0.449430
C2831	C283	0.845370	0.627710	0.447950
C2841	C284	0.877920	0.646220	0.406140
C2851	C285	0.889050	0.621630	0.367470
C2861	C286	0.865410	0.581640	0.371340
C2871	C287	0.903420	0.690120	0.404440
C2881	C288	0.488320	0.317420	0.648540
C2891	C289	0.461210	0.279760	0.670420
C2901	C290	0.514120	0.235110	0.665450
C2911	C291	0.595110	0.226510	0.638470
C2921	C292	0.622450	0.262930	0.616570
C2931	C293	0.571540	0.308740	0.620840
C2941	C294	0.606750	0.345240	0.595860
C2951	C295	0.558810	0.463160	0.591620
C2961	C296	0.593370	0.503270	0.573790
C2971	C297	0.626920	0.519740	0.610820
C2981	C298	0.665600	0.560800	0.590400
C2991	C299	0.713300	0.571200	0.615000
C3001	C300	0.752400	0.612500	0.587900
C3011	C301	0.126450	0.753210	0.409490
C3021	C302	0.095590	0.716160	0.409260
C3031	C303	0.012360	0.724100	0.413180
C3041	C304	0.964310	0.769630	0.415550
C3051	C305	0.000020	0.804360	0.415400
C3061	C306	0.977520	0.683120	0.412640
C3071	C307	0.249240	0.076180	0.580540
C3081	C308	0.278900	0.115220	0.579980
C3091	C309	0.357500	0.114710	0.554490
C3101	C310	0.410540	0.076700	0.528020
C3111	C311	0.381250	0.039410	0.526690
C3121	C312	0.301990	0.038170	0.551850
C3131	C313	0.275070	0.997940	0.546100
C3141	C314	0.109040	0.953030	0.586830
C3151	C315	0.074980	0.914160	0.581480
C3161	C316	0.060440	0.885070	0.625250
C3171	C317	0.140250	0.859420	0.637480
C3181	C318	0.127350	0.829170	0.680130
C3191	C319	0.208410	0.804350	0.692230
C3201	C320	0.333170	0.825000	0.527060
C3211	C321	0.379770	0.794250	0.553010
C3221	C322	0.389000	0.747470	0.552330
C3231	C323	0.353220	0.730060	0.525500
C3241	C324	0.305220	0.759790	0.500770
C3251	C325	0.293890	0.807290	0.500730
C3261	C326	0.242470	0.836500	0.472700
C3271	C327	0.190420	0.948370	0.435250
C3281	C328	0.151520	0.980000	0.401760
C3291	C329	0.217850	0.991700	0.360800
C3301	C330	0.268680	0.950320	0.329720
C3311	C331	0.335180	0.960940	0.287500
C3321	C332	0.384960	0.920550	0.258130
C3331	C333	0.410870	0.949430	0.413230
C3341	C334	0.473080	0.947950	0.372290
C3351	C335	0.524140	0.906140	0.353780
C3361	C336	0.510680	0.867470	0.378370
C3371	C337	0.447050	0.871340	0.418360
C3381	C338	0.593540	0.904440	0.309880
C3391	C339	0.805740	0.148540	0.682580
C3401	C340	0.740970	0.170420	0.720240
C3411	C341	0.749230	0.165450	0.764890
C3421	C342	0.821620	0.138470	0.773490
C3431	C343	0.885380	0.116570	0.737070
C3441	C344	0.880280	0.120840	0.691260
C3451	C345	0.951990	0.095860	0.654760
C3461	C346	0.021970	0.091620	0.536840
C3471	C347	0.096640	0.073790	0.496730
C3481	C348	0.146660	0.110820	0.480260
C3491	C349	0.226400	0.090400	0.439200
C3501	C350	0.284500	0.115000	0.428800
C3511	C351	0.364900	0.087900	0.387500
C3521	C352	0.879660	0.909490	0.246790
C3531	C353	0.811750	0.909260	0.283840
C3541	C354	0.736460	0.913180	0.275900
C3551	C355	0.733940	0.915550	0.230370
C3561	C356	0.804380	0.915400	0.195640
C3571	C357	0.660640	0.912640	0.316880
C3581	C358	0.405960	0.423820	0.919460
C3591	C359	0.474100	0.384780	0.920020
C3601	C360	0.526700	0.385290	0.945510
C3611	C361	0.515260	0.423300	0.971980
C3621	C362	0.447350	0.460590	0.973310
C3631	C363	0.392010	0.461830	0.948150
C3641	C364	0.319110	0.502060	0.953900
C3651	C365	0.148900	0.546970	0.913170
C3661	C366	0.070620	0.585840	0.918520
C3671	C367	0.070760	0.614930	0.874750
C3681	C368	0.137150	0.640580	0.862520
C3691	C369	0.136650	0.670830	0.819870
C3701	C370	0.204990	0.695650	0.807770
C3711	C371	0.185230	0.675000	0.972940
C3721	C372	0.227030	0.705750	0.946990
C3731	C373	0.188800	0.752530	0.947670
C3741	C374	0.108780	0.769940	0.974500
C3751	C375	0.065780	0.740210	0.999230
C3761	C376	0.101910	0.692710	0.999270
C3771	C377	0.051670	0.663500	0.027300
C3781	C378	0.074040	0.551630	0.064750
C3791	C379	0.033280	0.520000	0.098240
C3801	C380	0.070350	0.508300	0.139200
C3811	C381	0.048720	0.549680	0.170280
C3821	C382	0.083620	0.539060	0.212500
C3831	C383	0.063640	0.579450	0.241870
C3841	C384	0.273530	0.550570	0.086770
C3851	C385	0.293320	0.552050	0.127710
C3861	C386	0.284060	0.593860	0.146220
C3871	C387	0.256520	0.632530	0.121630
C3881	C388	0.236750	0.628660	0.081640
C3891	C389	0.307860	0.595560	0.190120
C3901	C390	0.136860	0.351460	0.817420
C3911	C391	0.131630	0.329580	0.779760
C3921	C392	0.179570	0.334550	0.735110
C3931	C393	0.233580	0.361530	0.726510
C3941	C394	0.239020	0.383430	0.762930
C3951	C395	0.192380	0.379160	0.808740
C3961	C396	0.202610	0.404140	0.845240
C3971	C397	0.150430	0.408380	0.963160
C3981	C398	0.167160	0.426210	0.003270
C3991	C399	0.237740	0.389180	0.019740
C4001	C400	0.256000	0.409600	0.060800
C4011	C401	0.328300	0.385000	0.071200
C4021	C402	0.340300	0.412100	0.112500
C4031	C403	0.535940	0.590510	0.253210
C4041	C404	0.504850	0.590740	0.216160
C4051	C405	0.425540	0.586820	0.224100
C4061	C406	0.379860	0.584450	0.269630
C4071	C407	0.415420	0.584600	0.304360
C4081	C408	0.390160	0.587360	0.183120
N11	N1	0.804900	0.930320	0.995240
N21	N2	0.864120	0.940350	0.955150
N31	N3	0.882580	0.030820	0.881120
N41	N4	0.903360	0.061960	0.905320
N51	N5	0.690840	0.064000	0.911020
N61	N6	0.949110	0.888750	0.101250
N71	N7	0.898100	0.921290	0.077590
N81	N8	0.210810	0.296800	0.912200
N91	N9	0.230460	0.569680	0.504760
N101	N10	0.259620	0.559650	0.544850
N111	N11	0.294520	0.469180	0.618880
N121	N12	0.370640	0.438040	0.594680
N131	N13	0.165860	0.436000	0.588980
N141	N14	0.439110	0.611250	0.398750
N151	N15	0.396980	0.578710	0.422410
N161	N16	0.919810	0.203200	0.587800
N171	N17	0.800140	0.004760	0.430320
N181	N18	0.819270	0.044850	0.440350
N191	N19	0.763700	0.118880	0.530820
N201	N20	0.808680	0.094680	0.561960
N211	N21	0.601860	0.088980	0.564000
N221	N22	0.050360	0.898750	0.388750
N231	N23	0.975690	0.922410	0.421290
N241	N24	0.123010	0.087800	0.796800
N251	N25	0.735220	0.495240	0.069680
N261	N26	0.804470	0.455150	0.059650
N271	N27	0.913400	0.381120	0.969180
N281	N28	0.965320	0.405320	0.938040
N291	N29	0.754840	0.411020	0.936000
N301	N30	0.837860	0.601250	0.111250
N311	N31	0.819390	0.577590	0.078710
N321	N32	0.507610	0.412200	0.703200
N331	N33	0.195100	0.069680	0.004760
N341	N34	0.135880	0.059650	0.044850
N351	N35	0.117420	0.969180	0.118880
N361	N36	0.096640	0.938040	0.094680
N371	N37	0.309160	0.936000	0.088980
N381	N38	0.050890	0.111250	0.898750
N391	N39	0.101900	0.078710	0.922410
N401	N40	0.789190	0.703200	0.087800
N411	N41	0.769540	0.430320	0.495240
N421	N42	0.740380	0.440350	0.455150
N431	N43	0.705480	0.530820	0.381120
N441	N44	0.629360	0.561960	0.405320
N451	N45	0.834140	0.564000	0.411020
N461	N46	0.560890	0.388750	0.601250
N471	N47	0.603020	0.421290	0.577590
N481	N48	0.080190	0.796800	0.412200
N491	N49	0.199860	0.995240	0.569680
N501	N50	0.180730	0.955150	0.559650
N511	N51	0.236300	0.881120	0.469180
N521	N52	0.191320	0.905320	0.438040
N531	N53	0.398140	0.911020	0.436000
N541	N54	0.949640	0.101250	0.611250
N551	N55	0.024310	0.077590	0.578710
N561	N56	0.876990	0.912200	0.203200
N571	N57	0.264780	0.504760	0.930320
N581	N58	0.195530	0.544850	0.940350
N591	N59	0.086600	0.618880	0.030820
N601	N60	0.034680	0.594680	0.061960
N611	N61	0.245160	0.588980	0.064000
N621	N62	0.162140	0.398750	0.888750
N631	N63	0.180610	0.422410	0.921290
N641	N64	0.492390	0.587800	0.296800
O11	O1	0.748900	0.892400	0.078240
O21	O2	0.708740	0.982310	0.966250
O31	O3	0.951430	0.880990	0.984030
O41	O4	0.802030	0.970660	0.869600
O51	O5	0.975720	0.048850	0.817710
O61	O6	0.808630	0.040770	0.965550
O71	O7	0.051600	0.858920	0.155860
O81	O8	0.913200	0.834210	0.069950
O91	O9	0.918160	0.971580	0.122660
O101	O10	0.219540	0.607600	0.421760
O111	O11	0.157300	0.517690	0.533750
O121	O12	0.316450	0.619010	0.515970
O131	O13	0.142290	0.529340	0.630400
O141	O14	0.342280	0.451150	0.682290
O151	O15	0.314950	0.459230	0.534450
O161	O16	0.566380	0.641080	0.344140
O171	O17	0.317360	0.665790	0.430050
O181	O18	0.512400	0.528420	0.377340
O191	O19	0.827140	0.921760	0.392400
O201	O20	0.674990	0.033750	0.482310
O211	O21	0.935460	0.015970	0.380990
O221	O22	0.671630	0.130400	0.470660
O231	O23	0.793430	0.182290	0.548850
O241	O24	0.774180	0.034450	0.540770
O251	O25	0.207460	0.844140	0.358920
O261	O26	0.983150	0.930050	0.334210
O271	O27	0.040820	0.877340	0.471580
O281	O28	0.641300	0.578240	0.107600
O291	O29	0.691050	0.466250	0.017690
O301	O30	0.832420	0.484030	0.119010
O311	O31	0.772690	0.369600	0.029340
O321	O32	0.024570	0.317710	0.951150
O331	O33	0.849400	0.465550	0.959230
O341	O34	0.910520	0.655860	0.141080
O351	O35	0.747410	0.569950	0.165790
O361	O36	0.889740	0.622660	0.028420
O371	O37	0.251100	0.107600	0.921760
O381	O38	0.291260	0.017690	0.033750
O391	O39	0.048570	0.119010	0.015970
O401	O40	0.197970	0.029340	0.130400
O411	O41	0.024280	0.951150	0.182290
O421	O42	0.191370	0.959230	0.034450
O431	O43	0.948400	0.141080	0.844140
O441	O44	0.086800	0.165790	0.930050
O451	O45	0.081840	0.028420	0.877340
O461	O46	0.780460	0.392400	0.578240
O471	O47	0.842700	0.482310	0.466250
O481	O48	0.683550	0.380990	0.484030
O491	O49	0.857710	0.470660	0.369600
O501	O50	0.657720	0.548850	0.317710
O511	O51	0.685050	0.540770	0.465550
O521	O52	0.433620	0.358920	0.655860
O531	O53	0.682640	0.334210	0.569950
O541	O54	0.487600	0.471580	0.622660
O551	O55	0.172860	0.078240	0.607600
O561	O56	0.325010	0.966250	0.517690
O571	O57	0.064540	0.984030	0.619010
O581	O58	0.328370	0.869600	0.529340
O591	O59	0.206570	0.817710	0.451150
O601	O60	0.225820	0.965550	0.459230
O611	O61	0.792540	0.155860	0.641080
O621	O62	0.016850	0.069950	0.665790
O631	O63	0.959180	0.122660	0.528420
O641	O64	0.358700	0.421760	0.892400
O651	O65	0.308950	0.533750	0.982310
O661	O66	0.167580	0.515970	0.880990
O671	O67	0.227310	0.630400	0.970660
O681	O68	0.975430	0.682290	0.048850
O691	O69	0.150600	0.534450	0.040770
O701	O70	0.089480	0.344140	0.858920
O711	O71	0.252590	0.430050	0.834210
O721	O72	0.110260	0.377340	0.971580
