data_XALMII_clean_PM
_symmetry_space_group_name_H-M	'P1'
_cell_length_a	19.730000
_cell_length_b	24.650000
_cell_length_c	24.650000
_cell_angle_alpha	120.000000
_cell_angle_beta	90.000000
_cell_angle_gamma	90.000000
_symmetry_Int_Tables_number 1

loop_
_symmetry_equiv_pos_as_xyz
'x,y,z'

loop_
_atom_site_label
_atom_site_type_symbol
_atom_site_fract_x
_atom_site_fract_y
_atom_site_fract_z
Co11	Co1	0.054710	0.803650	0.963710
Co21	Co2	0.211440	0.786020	0.895340
Co31	Co3	0.114960	0.667930	0.911360
Co41	Co4	0.721370	0.160060	0.196350
Co51	Co5	0.878100	0.109320	0.213980
Co61	Co6	0.781620	0.243430	0.332070
Co71	Co7	0.388040	0.036290	0.839940
Co81	Co8	0.544770	0.104660	0.890680
Co91	Co9	0.448290	0.088640	0.756570
Co101	Co10	0.554710	0.196350	0.036290
Co111	Co11	0.711440	0.213980	0.104660
Co121	Co12	0.614960	0.332070	0.088640
Co131	Co13	0.221370	0.839940	0.803650
Co141	Co14	0.378100	0.890680	0.786020
Co151	Co15	0.281620	0.756570	0.667930
Co161	Co16	0.888040	0.963710	0.160060
Co171	Co17	0.044770	0.895340	0.109320
Co181	Co18	0.948290	0.911360	0.243430
H11	H1	0.109200	0.743900	0.871200
H21	H2	0.186700	0.982200	0.081600
H31	H3	0.249300	0.945800	0.090200
H41	H4	0.179500	0.952500	0.126100
H51	H5	0.926100	0.907300	0.949100
H61	H6	0.858900	0.874600	0.955700
H71	H7	0.926200	0.834000	0.926200
H81	H8	0.082000	0.715600	0.110800
H91	H9	0.128000	0.683100	0.049100
H101	H10	0.049300	0.665800	0.045100
H111	H11	0.948900	0.571000	0.789400
H121	H12	0.863000	0.527700	0.716300
H131	H13	0.794100	0.700200	0.765800
H141	H14	0.879700	0.743000	0.840300
H151	H15	0.818700	0.502600	0.622100
H161	H16	0.633100	0.520700	0.563500
H171	H17	0.532300	0.564900	0.617200
H181	H18	0.438800	0.628900	0.639600
H191	H19	0.557800	0.781700	0.736300
H201	H20	0.652200	0.717400	0.714600
H211	H21	0.842500	0.445500	0.526200
H221	H22	0.859200	0.350200	0.433800
H231	H23	0.662800	0.326400	0.408000
H241	H24	0.640700	0.419700	0.498100
H251	H25	0.775870	0.127300	0.256100
H261	H26	0.853370	0.099400	0.017800
H271	H27	0.915970	0.144400	0.054200
H281	H28	0.846170	0.173600	0.047500
H291	H29	0.592770	0.041800	0.092700
H301	H30	0.525570	0.081100	0.125400
H311	H31	0.592870	0.092200	0.166000
H321	H32	0.748670	0.395200	0.284400
H331	H33	0.794670	0.366000	0.316900
H341	H34	0.715970	0.379300	0.334200
H351	H35	0.615570	0.218400	0.429000
H361	H36	0.529670	0.188600	0.472300
H371	H37	0.460770	0.065600	0.299800
H381	H38	0.546370	0.097300	0.257000
H391	H39	0.485370	0.119500	0.497400
H401	H40	0.299770	0.042800	0.479300
H411	H41	0.198970	0.052300	0.435100
H421	H42	0.105470	0.010700	0.371100
H431	H43	0.224470	0.954600	0.218300
H441	H44	0.318870	0.997200	0.282600
H451	H45	0.509170	0.080700	0.554500
H461	H46	0.525870	0.083600	0.649800
H471	H47	0.329470	0.081600	0.673600
H481	H48	0.307370	0.078400	0.580300
H491	H49	0.442530	0.128800	0.872700
H501	H50	0.520030	0.918400	0.900600
H511	H51	0.582630	0.909800	0.855600
H521	H52	0.512830	0.873900	0.826400
H531	H53	0.259430	0.050900	0.958200
H541	H54	0.192230	0.044300	0.918900
H551	H55	0.259530	0.073800	0.907800
H561	H56	0.415330	0.889200	0.604800
H571	H57	0.461330	0.950900	0.634000
H581	H58	0.382630	0.954900	0.620700
H591	H59	0.282230	0.210600	0.781600
H601	H60	0.196330	0.283700	0.811400
H611	H61	0.127430	0.234200	0.934400
H621	H62	0.213030	0.159700	0.902700
H631	H63	0.152030	0.377900	0.880500
H641	H64	0.966430	0.436500	0.957200
H651	H65	0.865630	0.382800	0.947700
H661	H66	0.772130	0.360400	0.989300
H671	H67	0.891130	0.263700	0.045400
H681	H68	0.985530	0.285400	0.002800
H691	H69	0.175830	0.473800	0.919300
H701	H70	0.192530	0.566200	0.916400
H711	H71	0.996130	0.592000	0.918400
H721	H72	0.974030	0.501900	0.921600
H731	H73	0.609200	0.256100	0.128800
H741	H74	0.686700	0.017800	0.918400
H751	H75	0.749300	0.054200	0.909800
H761	H76	0.679500	0.047500	0.873900
H771	H77	0.426100	0.092700	0.050900
H781	H78	0.358900	0.125400	0.044300
H791	H79	0.426200	0.166000	0.073800
H801	H80	0.582000	0.284400	0.889200
H811	H81	0.628000	0.316900	0.950900
H821	H82	0.549300	0.334200	0.954900
H831	H83	0.448900	0.429000	0.210600
H841	H84	0.363000	0.472300	0.283700
H851	H85	0.294100	0.299800	0.234200
H861	H86	0.379700	0.257000	0.159700
H871	H87	0.318700	0.497400	0.377900
H881	H88	0.133100	0.479300	0.436500
H891	H89	0.032300	0.435100	0.382800
H901	H90	0.938800	0.371100	0.360400
H911	H91	0.057800	0.218300	0.263700
H921	H92	0.152200	0.282600	0.285400
H931	H93	0.342500	0.554500	0.473800
H941	H94	0.359200	0.649800	0.566200
H951	H95	0.162800	0.673600	0.592000
H961	H96	0.140700	0.580300	0.501900
H971	H97	0.275870	0.872700	0.743900
H981	H98	0.353370	0.900600	0.982200
H991	H99	0.415970	0.855600	0.945800
H1001	H100	0.346170	0.826400	0.952500
H1011	H101	0.092770	0.958200	0.907300
H1021	H102	0.025570	0.918900	0.874600
H1031	H103	0.092870	0.907800	0.834000
H1041	H104	0.248670	0.604800	0.715600
H1051	H105	0.294670	0.634000	0.683100
H1061	H106	0.215970	0.620700	0.665800
H1071	H107	0.115570	0.781600	0.571000
H1081	H108	0.029670	0.811400	0.527700
H1091	H109	0.960770	0.934400	0.700200
H1101	H110	0.046370	0.902700	0.743000
H1111	H111	0.985370	0.880500	0.502600
H1121	H112	0.799770	0.957200	0.520700
H1131	H113	0.698970	0.947700	0.564900
H1141	H114	0.605470	0.989300	0.628900
H1151	H115	0.724470	0.045400	0.781700
H1161	H116	0.818870	0.002800	0.717400
H1171	H117	0.009170	0.919300	0.445500
H1181	H118	0.025870	0.916400	0.350200
H1191	H119	0.829470	0.918400	0.326400
H1201	H120	0.807370	0.921600	0.419700
H1211	H121	0.942530	0.871200	0.127300
H1221	H122	0.020030	0.081600	0.099400
H1231	H123	0.082630	0.090200	0.144400
H1241	H124	0.012830	0.126100	0.173600
H1251	H125	0.759430	0.949100	0.041800
H1261	H126	0.692230	0.955700	0.081100
H1271	H127	0.759530	0.926200	0.092200
H1281	H128	0.915330	0.110800	0.395200
H1291	H129	0.961330	0.049100	0.366000
H1301	H130	0.882630	0.045100	0.379300
H1311	H131	0.782230	0.789400	0.218400
H1321	H132	0.696330	0.716300	0.188600
H1331	H133	0.627430	0.765800	0.065600
H1341	H134	0.713030	0.840300	0.097300
H1351	H135	0.652030	0.622100	0.119500
H1361	H136	0.466430	0.563500	0.042800
H1371	H137	0.365630	0.617200	0.052300
H1381	H138	0.272130	0.639600	0.010700
H1391	H139	0.391130	0.736300	0.954600
H1401	H140	0.485530	0.714600	0.997200
H1411	H141	0.675830	0.526200	0.080700
H1421	H142	0.692530	0.433800	0.083600
H1431	H143	0.496130	0.408000	0.081600
H1441	H144	0.474030	0.498100	0.078400
C11	C1	0.175180	0.886770	0.032690
C21	C2	0.199820	0.947070	0.087410
C31	C3	0.930830	0.889400	0.022060
C41	C4	0.908530	0.875080	0.957610
C51	C5	0.065750	0.751920	0.052480
C61	C6	0.082810	0.699480	0.065530
C71	C7	0.981340	0.689890	0.866930
C81	C8	0.923800	0.661340	0.821180
C91	C9	0.917720	0.597610	0.784500
C101	C10	0.867030	0.571960	0.740820
C111	C11	0.821560	0.609590	0.731780
C121	C12	0.825980	0.673540	0.769910
C131	C13	0.876960	0.698840	0.814200
C141	C14	0.767810	0.582520	0.682920
C151	C15	0.778030	0.525500	0.628130
C161	C16	0.727890	0.502600	0.582400
C171	C17	0.669050	0.536350	0.593120
C181	C18	0.662930	0.594590	0.648780
C191	C19	0.601980	0.634290	0.662380
C201	C20	0.537660	0.609060	0.641280
C211	C21	0.482120	0.646940	0.654730
C221	C22	0.488850	0.712210	0.690660
C231	C23	0.552660	0.737480	0.712100
C241	C24	0.608970	0.699380	0.698900
C251	C25	0.426940	0.753820	0.706160
C261	C26	0.739450	0.443030	0.523490
C271	C27	0.804560	0.421590	0.502750
C281	C28	0.814280	0.364640	0.447230
C291	C29	0.699860	0.351030	0.432390
C301	C30	0.686270	0.406480	0.486310
C311	C31	0.841850	0.145920	0.113230
C321	C32	0.866490	0.140340	0.052930
C331	C33	0.597500	0.132660	0.110600
C341	C34	0.575200	0.082530	0.124920
C351	C35	0.732420	0.300560	0.248080
C361	C36	0.749480	0.366050	0.300520
C371	C37	0.648010	0.177040	0.310110
C381	C38	0.590470	0.159840	0.338660
C391	C39	0.584390	0.186890	0.402390
C401	C40	0.533700	0.168860	0.428040
C411	C41	0.488230	0.122190	0.390410
C421	C42	0.492650	0.096370	0.326460
C431	C43	0.543630	0.115360	0.301160
C441	C44	0.434480	0.100400	0.417480
C451	C45	0.444700	0.102630	0.474500
C461	C46	0.394560	0.079800	0.497400
C471	C47	0.335720	0.056770	0.463650
C481	C48	0.329600	0.054190	0.405410
C491	C49	0.268650	0.028090	0.365710
C501	C50	0.204330	0.032220	0.390940
C511	C51	0.148790	0.007790	0.353060
C521	C52	0.155520	0.978450	0.287790
C531	C53	0.219330	0.974620	0.262520
C541	C54	0.275640	0.999520	0.300620
C551	C55	0.093610	0.952340	0.246180
C561	C56	0.406120	0.080460	0.556970
C571	C57	0.471230	0.081160	0.578410
C581	C58	0.480950	0.082590	0.635360
C591	C59	0.366530	0.081360	0.648970
C601	C60	0.352940	0.079830	0.593520
C611	C61	0.508510	0.967310	0.854080
C621	C62	0.533150	0.912590	0.859660
C631	C63	0.264160	0.977940	0.867340
C641	C64	0.241860	0.042390	0.917470
C651	C65	0.399080	0.947520	0.699440
C661	C66	0.416140	0.934470	0.633950
C671	C67	0.314670	0.133070	0.822960
C681	C68	0.257130	0.178820	0.840160
C691	C69	0.251050	0.215500	0.813110
C701	C70	0.200360	0.259180	0.831140
C711	C71	0.154890	0.268220	0.877810
C721	C72	0.159310	0.230090	0.903630
C731	C73	0.210290	0.185800	0.884640
C741	C74	0.101140	0.317080	0.899600
C751	C75	0.111360	0.371870	0.897370
C761	C76	0.061220	0.417600	0.920200
C771	C77	0.002380	0.406880	0.943230
C781	C78	0.996260	0.351220	0.945810
C791	C79	0.935310	0.337620	0.971910
C801	C80	0.870990	0.358720	0.967780
C811	C81	0.815450	0.345270	0.992210
C821	C82	0.822180	0.309340	0.021550
C831	C83	0.885990	0.287900	0.025380
C841	C84	0.942300	0.301100	0.000480
C851	C85	0.760270	0.293840	0.047660
C861	C86	0.072780	0.476510	0.919540
C871	C87	0.137890	0.497250	0.918840
C881	C88	0.147610	0.552770	0.917410
C891	C89	0.033190	0.567610	0.918640
C901	C90	0.019600	0.513690	0.920170
C911	C91	0.675180	0.113230	0.967310
C921	C92	0.699820	0.052930	0.912590
C931	C93	0.430830	0.110600	0.977940
C941	C94	0.408530	0.124920	0.042390
C951	C95	0.565750	0.248080	0.947520
C961	C96	0.582810	0.300520	0.934470
C971	C97	0.481340	0.310110	0.133070
C981	C98	0.423800	0.338660	0.178820
C991	C99	0.417720	0.402390	0.215500
C1001	C100	0.367030	0.428040	0.259180
C1011	C101	0.321560	0.390410	0.268220
C1021	C102	0.325980	0.326460	0.230090
C1031	C103	0.376960	0.301160	0.185800
C1041	C104	0.267810	0.417480	0.317080
C1051	C105	0.278030	0.474500	0.371870
C1061	C106	0.227890	0.497400	0.417600
C1071	C107	0.169050	0.463650	0.406880
C1081	C108	0.162930	0.405410	0.351220
C1091	C109	0.101980	0.365710	0.337620
C1101	C110	0.037660	0.390940	0.358720
C1111	C111	0.982120	0.353060	0.345270
C1121	C112	0.988850	0.287790	0.309340
C1131	C113	0.052660	0.262520	0.287900
C1141	C114	0.108970	0.300620	0.301100
C1151	C115	0.926940	0.246180	0.293840
C1161	C116	0.239450	0.556970	0.476510
C1171	C117	0.304560	0.578410	0.497250
C1181	C118	0.314280	0.635360	0.552770
C1191	C119	0.199860	0.648970	0.567610
C1201	C120	0.186270	0.593520	0.513690
C1211	C121	0.341850	0.854080	0.886770
C1221	C122	0.366490	0.859660	0.947070
C1231	C123	0.097500	0.867340	0.889400
C1241	C124	0.075200	0.917470	0.875080
C1251	C125	0.232420	0.699440	0.751920
C1261	C126	0.249480	0.633950	0.699480
C1271	C127	0.148010	0.822960	0.689890
C1281	C128	0.090470	0.840160	0.661340
C1291	C129	0.084390	0.813110	0.597610
C1301	C130	0.033700	0.831140	0.571960
C1311	C131	0.988230	0.877810	0.609590
C1321	C132	0.992650	0.903630	0.673540
C1331	C133	0.043630	0.884640	0.698840
C1341	C134	0.934480	0.899600	0.582520
C1351	C135	0.944700	0.897370	0.525500
C1361	C136	0.894560	0.920200	0.502600
C1371	C137	0.835720	0.943230	0.536350
C1381	C138	0.829600	0.945810	0.594590
C1391	C139	0.768650	0.971910	0.634290
C1401	C140	0.704330	0.967780	0.609060
C1411	C141	0.648790	0.992210	0.646940
C1421	C142	0.655520	0.021550	0.712210
C1431	C143	0.719330	0.025380	0.737480
C1441	C144	0.775640	0.000480	0.699380
C1451	C145	0.593610	0.047660	0.753820
C1461	C146	0.906120	0.919540	0.443030
C1471	C147	0.971230	0.918840	0.421590
C1481	C148	0.980950	0.917410	0.364640
C1491	C149	0.866530	0.918640	0.351030
C1501	C150	0.852940	0.920170	0.406480
C1511	C151	0.008510	0.032690	0.145920
C1521	C152	0.033150	0.087410	0.140340
C1531	C153	0.764160	0.022060	0.132660
C1541	C154	0.741860	0.957610	0.082530
C1551	C155	0.899080	0.052480	0.300560
C1561	C156	0.916140	0.065530	0.366050
C1571	C157	0.814670	0.866930	0.177040
C1581	C158	0.757130	0.821180	0.159840
C1591	C159	0.751050	0.784500	0.186890
C1601	C160	0.700360	0.740820	0.168860
C1611	C161	0.654890	0.731780	0.122190
C1621	C162	0.659310	0.769910	0.096370
C1631	C163	0.710290	0.814200	0.115360
C1641	C164	0.601140	0.682920	0.100400
C1651	C165	0.611360	0.628130	0.102630
C1661	C166	0.561220	0.582400	0.079800
C1671	C167	0.502380	0.593120	0.056770
C1681	C168	0.496260	0.648780	0.054190
C1691	C169	0.435310	0.662380	0.028090
C1701	C170	0.370990	0.641280	0.032220
C1711	C171	0.315450	0.654730	0.007790
C1721	C172	0.322180	0.690660	0.978450
C1731	C173	0.385990	0.712100	0.974620
C1741	C174	0.442300	0.698900	0.999520
C1751	C175	0.260270	0.706160	0.952340
C1761	C176	0.572780	0.523490	0.080460
C1771	C177	0.637890	0.502750	0.081160
C1781	C178	0.647610	0.447230	0.082590
C1791	C179	0.533190	0.432390	0.081360
C1801	C180	0.519600	0.486310	0.079830
N11	N1	0.711480	0.616330	0.693060
N21	N2	0.762530	0.330130	0.412700
N31	N3	0.378150	0.076730	0.383670
N41	N4	0.429200	0.082570	0.669870
N51	N5	0.044810	0.306940	0.923270
N61	N6	0.095860	0.587300	0.917430
N71	N7	0.211480	0.383670	0.306940
N81	N8	0.262530	0.669870	0.587300
N91	N9	0.878150	0.923270	0.616330
N101	N10	0.929200	0.917430	0.330130
N111	N11	0.544810	0.693060	0.076730
N121	N12	0.595860	0.412700	0.082570
O11	O1	0.126690	0.745660	0.903620
O21	O2	0.210060	0.862760	0.984120
O31	O3	0.118920	0.865070	0.038620
O41	O4	0.983300	0.862400	0.027760
O51	O5	0.895850	0.928330	0.066580
O61	O6	0.053620	0.804700	0.098250
O71	O7	0.065700	0.739130	0.996340
O81	O8	0.024270	0.651400	0.866360
O91	O9	0.982250	0.747920	0.900810
O101	O10	0.371430	0.726850	0.684160
O111	O11	0.437660	0.811510	0.737280
O121	O12	0.793360	0.157960	0.254340
O131	O13	0.876730	0.121360	0.137240
O141	O14	0.785590	0.173550	0.134930
O151	O15	0.649970	0.165360	0.137600
O161	O16	0.562520	0.138250	0.071670
O171	O17	0.720290	0.293550	0.195300
O181	O18	0.732370	0.257210	0.260870
O191	O19	0.690940	0.214960	0.348600
O201	O20	0.648920	0.152890	0.252080
O211	O21	0.038100	0.957310	0.273150
O221	O22	0.104330	0.925770	0.188490
O231	O23	0.460020	0.096380	0.842040
O241	O24	0.543390	0.015880	0.878640
O251	O25	0.452250	0.961380	0.826450
O261	O26	0.316630	0.972240	0.834640
O271	O27	0.229180	0.933420	0.861750
O281	O28	0.386950	0.901750	0.706450
O291	O29	0.399030	0.003660	0.742790
O301	O30	0.357600	0.133640	0.785040
O311	O31	0.315580	0.099190	0.847110
O321	O32	0.704760	0.315840	0.042690
O331	O33	0.770990	0.262720	0.074230
O341	O34	0.626690	0.254340	0.096380
O351	O35	0.710060	0.137240	0.015880
O361	O36	0.618920	0.134930	0.961380
O371	O37	0.483300	0.137600	0.972240
O381	O38	0.395850	0.071670	0.933420
O391	O39	0.553620	0.195300	0.901750
O401	O40	0.565700	0.260870	0.003660
O411	O41	0.524270	0.348600	0.133640
O421	O42	0.482250	0.252080	0.099190
O431	O43	0.871430	0.273150	0.315840
O441	O44	0.937660	0.188490	0.262720
O451	O45	0.293360	0.842040	0.745660
O461	O46	0.376730	0.878640	0.862760
O471	O47	0.285590	0.826450	0.865070
O481	O48	0.149970	0.834640	0.862400
O491	O49	0.062520	0.861750	0.928330
O501	O50	0.220290	0.706450	0.804700
O511	O51	0.232370	0.742790	0.739130
O521	O52	0.190940	0.785040	0.651400
O531	O53	0.148920	0.847110	0.747920
O541	O54	0.538100	0.042690	0.726850
O551	O55	0.604330	0.074230	0.811510
O561	O56	0.960020	0.903620	0.157960
O571	O57	0.043390	0.984120	0.121360
O581	O58	0.952250	0.038620	0.173550
O591	O59	0.816630	0.027760	0.165360
O601	O60	0.729180	0.066580	0.138250
O611	O61	0.886950	0.098250	0.293550
O621	O62	0.899030	0.996340	0.257210
O631	O63	0.857600	0.866360	0.214960
O641	O64	0.815580	0.900810	0.152890
O651	O65	0.204760	0.684160	0.957310
O661	O66	0.270990	0.737280	0.925770
