data_XALPUY_clean_PM
_symmetry_space_group_name_H-M	'P1'
_cell_length_a	13.631900
_cell_length_b	16.221100
_cell_length_c	15.720100
_cell_angle_alpha	90.000000
_cell_angle_beta	96.607000
_cell_angle_gamma	90.000000
_symmetry_Int_Tables_number 1

loop_
_symmetry_equiv_pos_as_xyz
'x,y,z'

loop_
_atom_site_label
_atom_site_type_symbol
_atom_site_fract_x
_atom_site_fract_y
_atom_site_fract_z
Ag11	Ag1	0.019420	0.378080	0.919760
S11	S1	0.091500	0.438180	0.081530
S21	S2	0.373240	0.129040	0.206540
N11	N1	0.189000	0.314430	0.972000
N21	N2	0.141800	0.592020	0.072900
N31	N3	0.346600	0.972200	0.187500
C11	C1	0.209300	0.298400	0.055300
C21	C2	0.271500	0.234100	0.083300
C31	C3	0.163100	0.349700	0.120400
H11	H1	0.216100	0.368900	0.163200
H21	H2	0.120400	0.313600	0.149900
C41	C4	0.181600	0.516500	0.079300
C51	C5	0.282100	0.503400	0.084400
H31	H3	0.308200	0.449700	0.086700
C61	C6	0.343300	0.571400	0.086100
H41	H4	0.412200	0.564500	0.091200
C71	C7	0.303300	0.648800	0.080300
H51	H5	0.344200	0.695600	0.081400
C81	C8	0.203900	0.656900	0.073100
H61	H6	0.176800	0.710200	0.067900
C91	C9	0.296200	0.217100	0.178600
H71	H7	0.234100	0.209900	0.203600
H81	H8	0.329000	0.266000	0.205300
C101	C10	0.296800	0.901800	0.167900
H91	H9	0.331700	0.851700	0.172200
C111	C11	0.198200	0.900200	0.142100
H101	H10	0.165300	0.849900	0.129600
C121	C12	0.147600	0.973700	0.134700
H111	H11	0.079200	0.974000	0.117400
C131	C13	0.196600	0.046800	0.152400
H121	H12	0.163100	0.097600	0.146600
C141	C14	0.295900	0.043300	0.178900
Ag21	Ag2	0.519420	0.878080	0.919760
S31	S3	0.591500	0.938180	0.081530
S41	S4	0.873240	0.629040	0.206540
N41	N4	0.689000	0.814430	0.972000
N51	N5	0.641800	0.092020	0.072900
N61	N6	0.846600	0.472200	0.187500
C151	C15	0.709300	0.798400	0.055300
C161	C16	0.771500	0.734100	0.083300
C171	C17	0.663100	0.849700	0.120400
H131	H13	0.716100	0.868900	0.163200
H141	H14	0.620400	0.813600	0.149900
C181	C18	0.681600	0.016500	0.079300
C191	C19	0.782100	0.003400	0.084400
H151	H15	0.808200	0.949700	0.086700
C201	C20	0.843300	0.071400	0.086100
H161	H16	0.912200	0.064500	0.091200
C211	C21	0.803300	0.148800	0.080300
H171	H17	0.844200	0.195600	0.081400
C221	C22	0.703900	0.156900	0.073100
H181	H18	0.676800	0.210200	0.067900
C231	C23	0.796200	0.717100	0.178600
H191	H19	0.734100	0.709900	0.203600
H201	H20	0.829000	0.766000	0.205300
C241	C24	0.796800	0.401800	0.167900
H211	H21	0.831700	0.351700	0.172200
C251	C25	0.698200	0.400200	0.142100
H221	H22	0.665300	0.349900	0.129600
C261	C26	0.647600	0.473700	0.134700
H231	H23	0.579200	0.474000	0.117400
C271	C27	0.696600	0.546800	0.152400
H241	H24	0.663100	0.597600	0.146600
C281	C28	0.795900	0.543300	0.178900
Ag31	Ag3	0.980580	0.378080	0.580240
S51	S5	0.908500	0.438180	0.418470
S61	S6	0.626760	0.129040	0.293460
N71	N7	0.811000	0.314430	0.528000
N81	N8	0.858200	0.592020	0.427100
N91	N9	0.653400	0.972200	0.312500
C291	C29	0.790700	0.298400	0.444700
C301	C30	0.728500	0.234100	0.416700
C311	C31	0.836900	0.349700	0.379600
H251	H25	0.783900	0.368900	0.336800
H261	H26	0.879600	0.313600	0.350100
C321	C32	0.818400	0.516500	0.420700
C331	C33	0.717900	0.503400	0.415600
H271	H27	0.691800	0.449700	0.413300
C341	C34	0.656700	0.571400	0.413900
H281	H28	0.587800	0.564500	0.408800
C351	C35	0.696700	0.648800	0.419700
H291	H29	0.655800	0.695600	0.418600
C361	C36	0.796100	0.656900	0.426900
H301	H30	0.823200	0.710200	0.432100
C371	C37	0.703800	0.217100	0.321400
H311	H31	0.765900	0.209900	0.296400
H321	H32	0.671000	0.266000	0.294700
C381	C38	0.703200	0.901800	0.332100
H331	H33	0.668300	0.851700	0.327800
C391	C39	0.801800	0.900200	0.357900
H341	H34	0.834700	0.849900	0.370400
C401	C40	0.852400	0.973700	0.365300
H351	H35	0.920800	0.974000	0.382600
C411	C41	0.803400	0.046800	0.347600
H361	H36	0.836900	0.097600	0.353400
C421	C42	0.704100	0.043300	0.321100
Ag41	Ag4	0.480580	0.878080	0.580240
S71	S7	0.408500	0.938180	0.418470
S81	S8	0.126760	0.629040	0.293460
N101	N10	0.311000	0.814430	0.528000
N111	N11	0.358200	0.092020	0.427100
N121	N12	0.153400	0.472200	0.312500
C431	C43	0.290700	0.798400	0.444700
C441	C44	0.228500	0.734100	0.416700
C451	C45	0.336900	0.849700	0.379600
H371	H37	0.283900	0.868900	0.336800
H381	H38	0.379600	0.813600	0.350100
C461	C46	0.318400	0.016500	0.420700
C471	C47	0.217900	0.003400	0.415600
H391	H39	0.191800	0.949700	0.413300
C481	C48	0.156700	0.071400	0.413900
H401	H40	0.087800	0.064500	0.408800
C491	C49	0.196700	0.148800	0.419700
H411	H41	0.155800	0.195600	0.418600
C501	C50	0.296100	0.156900	0.426900
H421	H42	0.323200	0.210200	0.432100
C511	C51	0.203800	0.717100	0.321400
H431	H43	0.265900	0.709900	0.296400
H441	H44	0.171000	0.766000	0.294700
C521	C52	0.203200	0.401800	0.332100
H451	H45	0.168300	0.351700	0.327800
C531	C53	0.301800	0.400200	0.357900
H461	H46	0.334700	0.349900	0.370400
C541	C54	0.352400	0.473700	0.365300
H471	H47	0.420800	0.474000	0.382600
C551	C55	0.303400	0.546800	0.347600
H481	H48	0.336900	0.597600	0.353400
C561	C56	0.204100	0.543300	0.321100
Ag51	Ag5	0.980580	0.621920	0.080240
S91	S9	0.908500	0.561820	0.918470
S101	S10	0.626760	0.870960	0.793460
N131	N13	0.811000	0.685570	0.028000
N141	N14	0.858200	0.407980	0.927100
N151	N15	0.653400	0.027800	0.812500
C571	C57	0.790700	0.701600	0.944700
C581	C58	0.728500	0.765900	0.916700
C591	C59	0.836900	0.650300	0.879600
H491	H49	0.783900	0.631100	0.836800
H501	H50	0.879600	0.686400	0.850100
C601	C60	0.818400	0.483500	0.920700
C611	C61	0.717900	0.496600	0.915600
H511	H51	0.691800	0.550300	0.913300
C621	C62	0.656700	0.428600	0.913900
H521	H52	0.587800	0.435500	0.908800
C631	C63	0.696700	0.351200	0.919700
H531	H53	0.655800	0.304400	0.918600
C641	C64	0.796100	0.343100	0.926900
H541	H54	0.823200	0.289800	0.932100
C651	C65	0.703800	0.782900	0.821400
H551	H55	0.765900	0.790100	0.796400
H561	H56	0.671000	0.734000	0.794700
C661	C66	0.703200	0.098200	0.832100
H571	H57	0.668300	0.148300	0.827800
C671	C67	0.801800	0.099800	0.857900
H581	H58	0.834700	0.150100	0.870400
C681	C68	0.852400	0.026300	0.865300
H591	H59	0.920800	0.026000	0.882600
C691	C69	0.803400	0.953200	0.847600
H601	H60	0.836900	0.902400	0.853400
C701	C70	0.704100	0.956700	0.821100
Ag61	Ag6	0.480580	0.121920	0.080240
S111	S11	0.408500	0.061820	0.918470
S121	S12	0.126760	0.370960	0.793460
N161	N16	0.311000	0.185570	0.028000
N171	N17	0.358200	0.907980	0.927100
N181	N18	0.153400	0.527800	0.812500
C711	C71	0.290700	0.201600	0.944700
C721	C72	0.228500	0.265900	0.916700
C731	C73	0.336900	0.150300	0.879600
H611	H61	0.283900	0.131100	0.836800
H621	H62	0.379600	0.186400	0.850100
C741	C74	0.318400	0.983500	0.920700
C751	C75	0.217900	0.996600	0.915600
H631	H63	0.191800	0.050300	0.913300
C761	C76	0.156700	0.928600	0.913900
H641	H64	0.087800	0.935500	0.908800
C771	C77	0.196700	0.851200	0.919700
H651	H65	0.155800	0.804400	0.918600
C781	C78	0.296100	0.843100	0.926900
H661	H66	0.323200	0.789800	0.932100
C791	C79	0.203800	0.282900	0.821400
H671	H67	0.265900	0.290100	0.796400
H681	H68	0.171000	0.234000	0.794700
C801	C80	0.203200	0.598200	0.832100
H691	H69	0.168300	0.648300	0.827800
C811	C81	0.301800	0.599800	0.857900
H701	H70	0.334700	0.650100	0.870400
C821	C82	0.352400	0.526300	0.865300
H711	H71	0.420800	0.526000	0.882600
C831	C83	0.303400	0.453200	0.847600
H721	H72	0.336900	0.402400	0.853400
C841	C84	0.204100	0.456700	0.821100
Ag71	Ag7	0.019420	0.621920	0.419760
S131	S13	0.091500	0.561820	0.581530
S141	S14	0.373240	0.870960	0.706540
N191	N19	0.189000	0.685570	0.472000
N201	N20	0.141800	0.407980	0.572900
N211	N21	0.346600	0.027800	0.687500
C851	C85	0.209300	0.701600	0.555300
C861	C86	0.271500	0.765900	0.583300
C871	C87	0.163100	0.650300	0.620400
H731	H73	0.216100	0.631100	0.663200
H741	H74	0.120400	0.686400	0.649900
C881	C88	0.181600	0.483500	0.579300
C891	C89	0.282100	0.496600	0.584400
H751	H75	0.308200	0.550300	0.586700
C901	C90	0.343300	0.428600	0.586100
H761	H76	0.412200	0.435500	0.591200
C911	C91	0.303300	0.351200	0.580300
H771	H77	0.344200	0.304400	0.581400
C921	C92	0.203900	0.343100	0.573100
H781	H78	0.176800	0.289800	0.567900
C931	C93	0.296200	0.782900	0.678600
H791	H79	0.234100	0.790100	0.703600
H801	H80	0.329000	0.734000	0.705300
C941	C94	0.296800	0.098200	0.667900
H811	H81	0.331700	0.148300	0.672200
C951	C95	0.198200	0.099800	0.642100
H821	H82	0.165300	0.150100	0.629600
C961	C96	0.147600	0.026300	0.634700
H831	H83	0.079200	0.026000	0.617400
C971	C97	0.196600	0.953200	0.652400
H841	H84	0.163100	0.902400	0.646600
C981	C98	0.295900	0.956700	0.678900
Ag81	Ag8	0.519420	0.121920	0.419760
S151	S15	0.591500	0.061820	0.581530
S161	S16	0.873240	0.370960	0.706540
N221	N22	0.689000	0.185570	0.472000
N231	N23	0.641800	0.907980	0.572900
N241	N24	0.846600	0.527800	0.687500
C991	C99	0.709300	0.201600	0.555300
C1001	C100	0.771500	0.265900	0.583300
C1011	C101	0.663100	0.150300	0.620400
H851	H85	0.716100	0.131100	0.663200
H861	H86	0.620400	0.186400	0.649900
C1021	C102	0.681600	0.983500	0.579300
C1031	C103	0.782100	0.996600	0.584400
H871	H87	0.808200	0.050300	0.586700
C1041	C104	0.843300	0.928600	0.586100
H881	H88	0.912200	0.935500	0.591200
C1051	C105	0.803300	0.851200	0.580300
H891	H89	0.844200	0.804400	0.581400
C1061	C106	0.703900	0.843100	0.573100
H901	H90	0.676800	0.789800	0.567900
C1071	C107	0.796200	0.282900	0.678600
H911	H91	0.734100	0.290100	0.703600
H921	H92	0.829000	0.234000	0.705300
C1081	C108	0.796800	0.598200	0.667900
H931	H93	0.831700	0.648300	0.672200
C1091	C109	0.698200	0.599800	0.642100
H941	H94	0.665300	0.650100	0.629600
C1101	C110	0.647600	0.526300	0.634700
H951	H95	0.579200	0.526000	0.617400
C1111	C111	0.696600	0.453200	0.652400
H961	H96	0.663100	0.402400	0.646600
C1121	C112	0.795900	0.456700	0.678900
Ag91	Ag9	0.500000	0.966750	0.250000
Ag101	Ag10	0.000000	0.466750	0.250000
Ag111	Ag11	0.500000	0.033250	0.750000
Ag121	Ag12	0.000000	0.533250	0.750000
