data_XAMGUQ_clean_PM
_symmetry_space_group_name_H-M	'P1'
_cell_length_a	13.658000
_cell_length_b	48.516000
_cell_length_c	20.497000
_cell_angle_alpha	90.000000
_cell_angle_beta	99.784000
_cell_angle_gamma	90.000000
_symmetry_Int_Tables_number 1

loop_
_symmetry_equiv_pos_as_xyz
'x,y,z'

loop_
_atom_site_label
_atom_site_type_symbol
_atom_site_fract_x
_atom_site_fract_y
_atom_site_fract_z
Co11	Co1	0.178400	0.310370	0.392990
Co21	Co2	0.784860	0.609680	0.319300
O11	O1	0.940800	0.626230	0.304800
O21	O2	0.983700	0.347920	0.315400
O31	O3	0.850700	0.639610	0.377300
O41	O4	0.469100	0.786170	0.314400
O51	O5	0.961200	0.562580	0.307200
O61	O6	0.738800	0.614000	0.224800
O71	O7	0.239800	0.706800	0.481800
O81	O8	0.827900	0.573680	0.353700
O91	O9	0.088300	0.341630	0.409500
O101	O10	0.583600	0.779600	0.404300
O111	O11	0.900800	0.454920	0.470600
C11	C1	0.011600	0.659000	0.385200
O121	O12	0.596900	0.631400	0.923200
C21	C2	0.737700	0.614100	0.111900
C31	C3	0.899700	0.531100	0.376400
C41	C4	0.429500	0.757400	0.398100
C51	C5	0.020700	0.354700	0.371500
C61	C6	0.092600	0.665200	0.354200
H11	H1	0.094500	0.658000	0.312400
C71	C7	0.987600	0.381600	0.398900
C81	C8	0.163600	0.692400	0.445500
C91	C9	0.332800	0.755400	0.370600
H21	H2	0.310100	0.765500	0.332600
C101	C10	0.265500	0.739000	0.396300
H31	H3	0.198700	0.738700	0.377100
C111	C11	0.902700	0.479500	0.436200
C121	C12	0.168000	0.681300	0.383100
H41	H4	0.221800	0.684900	0.362000
C131	C13	0.915600	0.396800	0.359300
H51	H5	0.885900	0.390300	0.317900
C141	C14	0.014900	0.670700	0.448500
H61	H6	0.963400	0.666800	0.471500
C151	C15	0.931200	0.430400	0.443600
C161	C16	0.899300	0.557900	0.342300
C171	C17	0.500300	0.775700	0.370300
C181	C18	0.729900	0.657000	0.765000
C191	C19	0.464300	0.741800	0.455300
H71	H7	0.529800	0.743200	0.476800
C201	C20	0.087900	0.686900	0.476700
H81	H8	0.086500	0.694400	0.518300
C211	C21	0.600200	0.631300	0.034300
H91	H9	0.537600	0.639500	0.027000
C221	C22	0.300100	0.723300	0.450500
C231	C23	0.784000	0.609800	0.059200
H101	H10	0.847800	0.602300	0.066300
C241	C24	0.766400	0.668600	0.828300
H111	H11	0.818400	0.681200	0.834800
C251	C25	0.965200	0.483600	0.392500
H121	H12	0.009200	0.470000	0.383600
C261	C26	0.738600	0.616100	0.994900
H131	H13	0.773400	0.613300	0.960200
C271	C27	0.645800	0.639700	0.870600
C281	C28	0.842500	0.499400	0.453400
H141	H14	0.804300	0.496100	0.486100
C291	C29	0.028400	0.390900	0.461300
H151	H15	0.075600	0.380400	0.488500
C301	C30	0.889200	0.421600	0.382700
H161	H16	0.842000	0.432500	0.356600
C311	C31	0.718000	0.659700	0.881200
H171	H17	0.735500	0.667500	0.923000
C321	C32	0.647500	0.626200	0.981900
C331	C33	0.960400	0.509500	0.361200
H181	H18	0.999400	0.512500	0.328900
C341	C34	0.838200	0.525700	0.420600
H191	H19	0.793400	0.539100	0.429600
C351	C35	0.999500	0.415200	0.482200
H201	H20	0.027200	0.421600	0.524000
C361	C36	0.657300	0.637700	0.757200
H211	H21	0.634300	0.631000	0.714800
C371	C37	0.397100	0.724200	0.478800
H221	H22	0.419600	0.712800	0.514700
C381	C38	0.643700	0.624800	0.097300
H231	H23	0.608200	0.627600	0.131600
C391	C39	0.615200	0.627400	0.809700
H241	H24	0.569300	0.613000	0.804000
O131	O13	0.867600	0.596450	0.186100
C401	C40	0.787200	0.607400	0.177300
C411	C41	0.934100	0.641000	0.352400
O141	O14	0.841500	0.684170	0.714100
C421	C42	0.767600	0.668000	0.708600
O151	O15	0.729400	0.661700	0.651100
Co31	Co3	0.678400	0.810370	0.392990
Co41	Co4	0.284860	0.109680	0.319300
O161	O16	0.440800	0.126230	0.304800
O171	O17	0.483700	0.847920	0.315400
O181	O18	0.350700	0.139610	0.377300
O191	O19	0.969100	0.286170	0.314400
O201	O20	0.461200	0.062580	0.307200
O211	O21	0.238800	0.114000	0.224800
O221	O22	0.739800	0.206800	0.481800
O231	O23	0.327900	0.073680	0.353700
O241	O24	0.588300	0.841630	0.409500
O251	O25	0.083600	0.279600	0.404300
O261	O26	0.400800	0.954920	0.470600
C431	C43	0.511600	0.159000	0.385200
O271	O27	0.096900	0.131400	0.923200
C441	C44	0.237700	0.114100	0.111900
C451	C45	0.399700	0.031100	0.376400
C461	C46	0.929500	0.257400	0.398100
C471	C47	0.520700	0.854700	0.371500
C481	C48	0.592600	0.165200	0.354200
H251	H25	0.594500	0.158000	0.312400
C491	C49	0.487600	0.881600	0.398900
C501	C50	0.663600	0.192400	0.445500
C511	C51	0.832800	0.255400	0.370600
H261	H26	0.810100	0.265500	0.332600
C521	C52	0.765500	0.239000	0.396300
H271	H27	0.698700	0.238700	0.377100
C531	C53	0.402700	0.979500	0.436200
C541	C54	0.668000	0.181300	0.383100
H281	H28	0.721800	0.184900	0.362000
C551	C55	0.415600	0.896800	0.359300
H291	H29	0.385900	0.890300	0.317900
C561	C56	0.514900	0.170700	0.448500
H301	H30	0.463400	0.166800	0.471500
C571	C57	0.431200	0.930400	0.443600
C581	C58	0.399300	0.057900	0.342300
C591	C59	0.000300	0.275700	0.370300
C601	C60	0.229900	0.157000	0.765000
C611	C61	0.964300	0.241800	0.455300
H311	H31	0.029800	0.243200	0.476800
C621	C62	0.587900	0.186900	0.476700
H321	H32	0.586500	0.194400	0.518300
C631	C63	0.100200	0.131300	0.034300
H331	H33	0.037600	0.139500	0.027000
C641	C64	0.800100	0.223300	0.450500
C651	C65	0.284000	0.109800	0.059200
H341	H34	0.347800	0.102300	0.066300
C661	C66	0.266400	0.168600	0.828300
H351	H35	0.318400	0.181200	0.834800
C671	C67	0.465200	0.983600	0.392500
H361	H36	0.509200	0.970000	0.383600
C681	C68	0.238600	0.116100	0.994900
H371	H37	0.273400	0.113300	0.960200
C691	C69	0.145800	0.139700	0.870600
C701	C70	0.342500	0.999400	0.453400
H381	H38	0.304300	0.996100	0.486100
C711	C71	0.528400	0.890900	0.461300
H391	H39	0.575600	0.880400	0.488500
C721	C72	0.389200	0.921600	0.382700
H401	H40	0.342000	0.932500	0.356600
C731	C73	0.218000	0.159700	0.881200
H411	H41	0.235500	0.167500	0.923000
C741	C74	0.147500	0.126200	0.981900
C751	C75	0.460400	0.009500	0.361200
H421	H42	0.499400	0.012500	0.328900
C761	C76	0.338200	0.025700	0.420600
H431	H43	0.293400	0.039100	0.429600
C771	C77	0.499500	0.915200	0.482200
H441	H44	0.527200	0.921600	0.524000
C781	C78	0.157300	0.137700	0.757200
H451	H45	0.134300	0.131000	0.714800
C791	C79	0.897100	0.224200	0.478800
H461	H46	0.919600	0.212800	0.514700
C801	C80	0.143700	0.124800	0.097300
H471	H47	0.108200	0.127600	0.131600
C811	C81	0.115200	0.127400	0.809700
H481	H48	0.069300	0.113000	0.804000
O281	O28	0.367600	0.096450	0.186100
C821	C82	0.287200	0.107400	0.177300
C831	C83	0.434100	0.141000	0.352400
O291	O29	0.341500	0.184170	0.714100
C841	C84	0.267600	0.168000	0.708600
O301	O30	0.229400	0.161700	0.651100
Co51	Co5	0.821600	0.310370	0.107010
Co61	Co6	0.215140	0.609680	0.180700
O311	O31	0.059200	0.626230	0.195200
O321	O32	0.016300	0.347920	0.184600
O331	O33	0.149300	0.639610	0.122700
O341	O34	0.530900	0.786170	0.185600
O351	O35	0.038800	0.562580	0.192800
O361	O36	0.261200	0.614000	0.275200
O371	O37	0.760200	0.706800	0.018200
O381	O38	0.172100	0.573680	0.146300
O391	O39	0.911700	0.341630	0.090500
O401	O40	0.416400	0.779600	0.095700
O411	O41	0.099200	0.454920	0.029400
C851	C85	0.988400	0.659000	0.114800
O421	O42	0.403100	0.631400	0.576800
C861	C86	0.262300	0.614100	0.388100
C871	C87	0.100300	0.531100	0.123600
C881	C88	0.570500	0.757400	0.101900
C891	C89	0.979300	0.354700	0.128500
C901	C90	0.907400	0.665200	0.145800
H491	H49	0.905500	0.658000	0.187600
C911	C91	0.012400	0.381600	0.101100
C921	C92	0.836400	0.692400	0.054500
C931	C93	0.667200	0.755400	0.129400
H501	H50	0.689900	0.765500	0.167400
C941	C94	0.734500	0.739000	0.103700
H511	H51	0.801300	0.738700	0.122900
C951	C95	0.097300	0.479500	0.063800
C961	C96	0.832000	0.681300	0.116900
H521	H52	0.778200	0.684900	0.138000
C971	C97	0.084400	0.396800	0.140700
H531	H53	0.114100	0.390300	0.182100
C981	C98	0.985100	0.670700	0.051500
H541	H54	0.036600	0.666800	0.028500
C991	C99	0.068800	0.430400	0.056400
C1001	C100	0.100700	0.557900	0.157700
C1011	C101	0.499700	0.775700	0.129700
C1021	C102	0.270100	0.657000	0.735000
C1031	C103	0.535700	0.741800	0.044700
H551	H55	0.470200	0.743200	0.023200
C1041	C104	0.912100	0.686900	0.023300
H561	H56	0.913500	0.694400	0.981700
C1051	C105	0.399800	0.631300	0.465700
H571	H57	0.462400	0.639500	0.473000
C1061	C106	0.699900	0.723300	0.049500
C1071	C107	0.216000	0.609800	0.440800
H581	H58	0.152200	0.602300	0.433700
C1081	C108	0.233600	0.668600	0.671700
H591	H59	0.181600	0.681200	0.665200
C1091	C109	0.034800	0.483600	0.107500
H601	H60	0.990800	0.470000	0.116400
C1101	C110	0.261400	0.616100	0.505100
H611	H61	0.226600	0.613300	0.539800
C1111	C111	0.354200	0.639700	0.629400
C1121	C112	0.157500	0.499400	0.046600
H621	H62	0.195700	0.496100	0.013900
C1131	C113	0.971600	0.390900	0.038700
H631	H63	0.924400	0.380400	0.011500
C1141	C114	0.110800	0.421600	0.117300
H641	H64	0.158000	0.432500	0.143400
C1151	C115	0.282000	0.659700	0.618800
H651	H65	0.264500	0.667500	0.577000
C1161	C116	0.352500	0.626200	0.518100
C1171	C117	0.039600	0.509500	0.138800
H661	H66	0.000600	0.512500	0.171100
C1181	C118	0.161800	0.525700	0.079400
H671	H67	0.206600	0.539100	0.070400
C1191	C119	0.000500	0.415200	0.017800
H681	H68	0.972800	0.421600	0.976000
C1201	C120	0.342700	0.637700	0.742800
H691	H69	0.365700	0.631000	0.785200
C1211	C121	0.602900	0.724200	0.021200
H701	H70	0.580400	0.712800	0.985300
C1221	C122	0.356300	0.624800	0.402700
H711	H71	0.391800	0.627600	0.368400
C1231	C123	0.384800	0.627400	0.690300
H721	H72	0.430700	0.613000	0.696000
O431	O43	0.132400	0.596450	0.313900
C1241	C124	0.212800	0.607400	0.322700
C1251	C125	0.065900	0.641000	0.147600
O441	O44	0.158500	0.684170	0.785900
C1261	C126	0.232400	0.668000	0.791400
O451	O45	0.270600	0.661700	0.848900
Co71	Co7	0.321600	0.810370	0.107010
Co81	Co8	0.715140	0.109680	0.180700
O461	O46	0.559200	0.126230	0.195200
O471	O47	0.516300	0.847920	0.184600
O481	O48	0.649300	0.139610	0.122700
O491	O49	0.030900	0.286170	0.185600
O501	O50	0.538800	0.062580	0.192800
O511	O51	0.761200	0.114000	0.275200
O521	O52	0.260200	0.206800	0.018200
O531	O53	0.672100	0.073680	0.146300
O541	O54	0.411700	0.841630	0.090500
O551	O55	0.916400	0.279600	0.095700
O561	O56	0.599200	0.954920	0.029400
C1271	C127	0.488400	0.159000	0.114800
O571	O57	0.903100	0.131400	0.576800
C1281	C128	0.762300	0.114100	0.388100
C1291	C129	0.600300	0.031100	0.123600
C1301	C130	0.070500	0.257400	0.101900
C1311	C131	0.479300	0.854700	0.128500
C1321	C132	0.407400	0.165200	0.145800
H731	H73	0.405500	0.158000	0.187600
C1331	C133	0.512400	0.881600	0.101100
C1341	C134	0.336400	0.192400	0.054500
C1351	C135	0.167200	0.255400	0.129400
H741	H74	0.189900	0.265500	0.167400
C1361	C136	0.234500	0.239000	0.103700
H751	H75	0.301300	0.238700	0.122900
C1371	C137	0.597300	0.979500	0.063800
C1381	C138	0.332000	0.181300	0.116900
H761	H76	0.278200	0.184900	0.138000
C1391	C139	0.584400	0.896800	0.140700
H771	H77	0.614100	0.890300	0.182100
C1401	C140	0.485100	0.170700	0.051500
H781	H78	0.536600	0.166800	0.028500
C1411	C141	0.568800	0.930400	0.056400
C1421	C142	0.600700	0.057900	0.157700
C1431	C143	0.999700	0.275700	0.129700
C1441	C144	0.770100	0.157000	0.735000
C1451	C145	0.035700	0.241800	0.044700
H791	H79	0.970200	0.243200	0.023200
C1461	C146	0.412100	0.186900	0.023300
H801	H80	0.413500	0.194400	0.981700
C1471	C147	0.899800	0.131300	0.465700
H811	H81	0.962400	0.139500	0.473000
C1481	C148	0.199900	0.223300	0.049500
C1491	C149	0.716000	0.109800	0.440800
H821	H82	0.652200	0.102300	0.433700
C1501	C150	0.733600	0.168600	0.671700
H831	H83	0.681600	0.181200	0.665200
C1511	C151	0.534800	0.983600	0.107500
H841	H84	0.490800	0.970000	0.116400
C1521	C152	0.761400	0.116100	0.505100
H851	H85	0.726600	0.113300	0.539800
C1531	C153	0.854200	0.139700	0.629400
C1541	C154	0.657500	0.999400	0.046600
H861	H86	0.695700	0.996100	0.013900
C1551	C155	0.471600	0.890900	0.038700
H871	H87	0.424400	0.880400	0.011500
C1561	C156	0.610800	0.921600	0.117300
H881	H88	0.658000	0.932500	0.143400
C1571	C157	0.782000	0.159700	0.618800
H891	H89	0.764500	0.167500	0.577000
C1581	C158	0.852500	0.126200	0.518100
C1591	C159	0.539600	0.009500	0.138800
H901	H90	0.500600	0.012500	0.171100
C1601	C160	0.661800	0.025700	0.079400
H911	H91	0.706600	0.039100	0.070400
C1611	C161	0.500500	0.915200	0.017800
H921	H92	0.472800	0.921600	0.976000
C1621	C162	0.842700	0.137700	0.742800
H931	H93	0.865700	0.131000	0.785200
C1631	C163	0.102900	0.224200	0.021200
H941	H94	0.080400	0.212800	0.985300
C1641	C164	0.856300	0.124800	0.402700
H951	H95	0.891800	0.127600	0.368400
C1651	C165	0.884800	0.127400	0.690300
H961	H96	0.930700	0.113000	0.696000
O581	O58	0.632400	0.096450	0.313900
C1661	C166	0.712800	0.107400	0.322700
C1671	C167	0.565900	0.141000	0.147600
O591	O59	0.658500	0.184170	0.785900
C1681	C168	0.732400	0.168000	0.791400
O601	O60	0.770600	0.161700	0.848900
Co91	Co9	0.821600	0.689630	0.607010
Co101	Co10	0.215140	0.390320	0.680700
O611	O61	0.059200	0.373770	0.695200
O621	O62	0.016300	0.652080	0.684600
O631	O63	0.149300	0.360390	0.622700
O641	O64	0.530900	0.213830	0.685600
O651	O65	0.038800	0.437420	0.692800
O661	O66	0.261200	0.386000	0.775200
O671	O67	0.760200	0.293200	0.518200
O681	O68	0.172100	0.426320	0.646300
O691	O69	0.911700	0.658370	0.590500
O701	O70	0.416400	0.220400	0.595700
O711	O71	0.099200	0.545080	0.529400
C1691	C169	0.988400	0.341000	0.614800
O721	O72	0.403100	0.368600	0.076800
C1701	C170	0.262300	0.385900	0.888100
C1711	C171	0.100300	0.468900	0.623600
C1721	C172	0.570500	0.242600	0.601900
C1731	C173	0.979300	0.645300	0.628500
C1741	C174	0.907400	0.334800	0.645800
H971	H97	0.905500	0.342000	0.687600
C1751	C175	0.012400	0.618400	0.601100
C1761	C176	0.836400	0.307600	0.554500
C1771	C177	0.667200	0.244600	0.629400
H981	H98	0.689900	0.234500	0.667400
C1781	C178	0.734500	0.261000	0.603700
H991	H99	0.801300	0.261300	0.622900
C1791	C179	0.097300	0.520500	0.563800
C1801	C180	0.832000	0.318700	0.616900
H1001	H100	0.778200	0.315100	0.638000
C1811	C181	0.084400	0.603200	0.640700
H1011	H101	0.114100	0.609700	0.682100
C1821	C182	0.985100	0.329300	0.551500
H1021	H102	0.036600	0.333200	0.528500
C1831	C183	0.068800	0.569600	0.556400
C1841	C184	0.100700	0.442100	0.657700
C1851	C185	0.499700	0.224300	0.629700
C1861	C186	0.270100	0.343000	0.235000
C1871	C187	0.535700	0.258200	0.544700
H1031	H103	0.470200	0.256800	0.523200
C1881	C188	0.912100	0.313100	0.523300
H1041	H104	0.913500	0.305600	0.481700
C1891	C189	0.399800	0.368700	0.965700
H1051	H105	0.462400	0.360500	0.973000
C1901	C190	0.699900	0.276700	0.549500
C1911	C191	0.216000	0.390200	0.940800
H1061	H106	0.152200	0.397700	0.933700
C1921	C192	0.233600	0.331400	0.171700
H1071	H107	0.181600	0.318800	0.165200
C1931	C193	0.034800	0.516400	0.607500
H1081	H108	0.990800	0.530000	0.616400
C1941	C194	0.261400	0.383900	0.005100
H1091	H109	0.226600	0.386700	0.039800
C1951	C195	0.354200	0.360300	0.129400
C1961	C196	0.157500	0.500600	0.546600
H1101	H110	0.195700	0.503900	0.513900
C1971	C197	0.971600	0.609100	0.538700
H1111	H111	0.924400	0.619600	0.511500
C1981	C198	0.110800	0.578400	0.617300
H1121	H112	0.158000	0.567500	0.643400
C1991	C199	0.282000	0.340300	0.118800
H1131	H113	0.264500	0.332500	0.077000
C2001	C200	0.352500	0.373800	0.018100
C2011	C201	0.039600	0.490500	0.638800
H1141	H114	0.000600	0.487500	0.671100
C2021	C202	0.161800	0.474300	0.579400
H1151	H115	0.206600	0.460900	0.570400
C2031	C203	0.000500	0.584800	0.517800
H1161	H116	0.972800	0.578400	0.476000
C2041	C204	0.342700	0.362300	0.242800
H1171	H117	0.365700	0.369000	0.285200
C2051	C205	0.602900	0.275800	0.521200
H1181	H118	0.580400	0.287200	0.485300
C2061	C206	0.356300	0.375200	0.902700
H1191	H119	0.391800	0.372400	0.868400
C2071	C207	0.384800	0.372600	0.190300
H1201	H120	0.430700	0.387000	0.196000
O731	O73	0.132400	0.403550	0.813900
C2081	C208	0.212800	0.392600	0.822700
C2091	C209	0.065900	0.359000	0.647600
O741	O74	0.158500	0.315830	0.285900
C2101	C210	0.232400	0.332000	0.291400
O751	O75	0.270600	0.338300	0.348900
Co111	Co11	0.321600	0.189630	0.607010
Co121	Co12	0.715140	0.890320	0.680700
O761	O76	0.559200	0.873770	0.695200
O771	O77	0.516300	0.152080	0.684600
O781	O78	0.649300	0.860390	0.622700
O791	O79	0.030900	0.713830	0.685600
O801	O80	0.538800	0.937420	0.692800
O811	O81	0.761200	0.886000	0.775200
O821	O82	0.260200	0.793200	0.518200
O831	O83	0.672100	0.926320	0.646300
O841	O84	0.411700	0.158370	0.590500
O851	O85	0.916400	0.720400	0.595700
O861	O86	0.599200	0.045080	0.529400
C2111	C211	0.488400	0.841000	0.614800
O871	O87	0.903100	0.868600	0.076800
C2121	C212	0.762300	0.885900	0.888100
C2131	C213	0.600300	0.968900	0.623600
C2141	C214	0.070500	0.742600	0.601900
C2151	C215	0.479300	0.145300	0.628500
C2161	C216	0.407400	0.834800	0.645800
H1211	H121	0.405500	0.842000	0.687600
C2171	C217	0.512400	0.118400	0.601100
C2181	C218	0.336400	0.807600	0.554500
C2191	C219	0.167200	0.744600	0.629400
H1221	H122	0.189900	0.734500	0.667400
C2201	C220	0.234500	0.761000	0.603700
H1231	H123	0.301300	0.761300	0.622900
C2211	C221	0.597300	0.020500	0.563800
C2221	C222	0.332000	0.818700	0.616900
H1241	H124	0.278200	0.815100	0.638000
C2231	C223	0.584400	0.103200	0.640700
H1251	H125	0.614100	0.109700	0.682100
C2241	C224	0.485100	0.829300	0.551500
H1261	H126	0.536600	0.833200	0.528500
C2251	C225	0.568800	0.069600	0.556400
C2261	C226	0.600700	0.942100	0.657700
C2271	C227	0.999700	0.724300	0.629700
C2281	C228	0.770100	0.843000	0.235000
C2291	C229	0.035700	0.758200	0.544700
H1271	H127	0.970200	0.756800	0.523200
C2301	C230	0.412100	0.813100	0.523300
H1281	H128	0.413500	0.805600	0.481700
C2311	C231	0.899800	0.868700	0.965700
H1291	H129	0.962400	0.860500	0.973000
C2321	C232	0.199900	0.776700	0.549500
C2331	C233	0.716000	0.890200	0.940800
H1301	H130	0.652200	0.897700	0.933700
C2341	C234	0.733600	0.831400	0.171700
H1311	H131	0.681600	0.818800	0.165200
C2351	C235	0.534800	0.016400	0.607500
H1321	H132	0.490800	0.030000	0.616400
C2361	C236	0.761400	0.883900	0.005100
H1331	H133	0.726600	0.886700	0.039800
C2371	C237	0.854200	0.860300	0.129400
C2381	C238	0.657500	0.000600	0.546600
H1341	H134	0.695700	0.003900	0.513900
C2391	C239	0.471600	0.109100	0.538700
H1351	H135	0.424400	0.119600	0.511500
C2401	C240	0.610800	0.078400	0.617300
H1361	H136	0.658000	0.067500	0.643400
C2411	C241	0.782000	0.840300	0.118800
H1371	H137	0.764500	0.832500	0.077000
C2421	C242	0.852500	0.873800	0.018100
C2431	C243	0.539600	0.990500	0.638800
H1381	H138	0.500600	0.987500	0.671100
C2441	C244	0.661800	0.974300	0.579400
H1391	H139	0.706600	0.960900	0.570400
C2451	C245	0.500500	0.084800	0.517800
H1401	H140	0.472800	0.078400	0.476000
C2461	C246	0.842700	0.862300	0.242800
H1411	H141	0.865700	0.869000	0.285200
C2471	C247	0.102900	0.775800	0.521200
H1421	H142	0.080400	0.787200	0.485300
C2481	C248	0.856300	0.875200	0.902700
H1431	H143	0.891800	0.872400	0.868400
C2491	C249	0.884800	0.872600	0.190300
H1441	H144	0.930700	0.887000	0.196000
O881	O88	0.632400	0.903550	0.813900
C2501	C250	0.712800	0.892600	0.822700
C2511	C251	0.565900	0.859000	0.647600
O891	O89	0.658500	0.815830	0.285900
C2521	C252	0.732400	0.832000	0.291400
O901	O90	0.770600	0.838300	0.348900
Co131	Co13	0.178400	0.689630	0.892990
Co141	Co14	0.784860	0.390320	0.819300
O911	O91	0.940800	0.373770	0.804800
O921	O92	0.983700	0.652080	0.815400
O931	O93	0.850700	0.360390	0.877300
O941	O94	0.469100	0.213830	0.814400
O951	O95	0.961200	0.437420	0.807200
O961	O96	0.738800	0.386000	0.724800
O971	O97	0.239800	0.293200	0.981800
O981	O98	0.827900	0.426320	0.853700
O991	O99	0.088300	0.658370	0.909500
O1001	O100	0.583600	0.220400	0.904300
O1011	O101	0.900800	0.545080	0.970600
C2531	C253	0.011600	0.341000	0.885200
O1021	O102	0.596900	0.368600	0.423200
C2541	C254	0.737700	0.385900	0.611900
C2551	C255	0.899700	0.468900	0.876400
C2561	C256	0.429500	0.242600	0.898100
C2571	C257	0.020700	0.645300	0.871500
C2581	C258	0.092600	0.334800	0.854200
H1451	H145	0.094500	0.342000	0.812400
C2591	C259	0.987600	0.618400	0.898900
C2601	C260	0.163600	0.307600	0.945500
C2611	C261	0.332800	0.244600	0.870600
H1461	H146	0.310100	0.234500	0.832600
C2621	C262	0.265500	0.261000	0.896300
H1471	H147	0.198700	0.261300	0.877100
C2631	C263	0.902700	0.520500	0.936200
C2641	C264	0.168000	0.318700	0.883100
H1481	H148	0.221800	0.315100	0.862000
C2651	C265	0.915600	0.603200	0.859300
H1491	H149	0.885900	0.609700	0.817900
C2661	C266	0.014900	0.329300	0.948500
H1501	H150	0.963400	0.333200	0.971500
C2671	C267	0.931200	0.569600	0.943600
C2681	C268	0.899300	0.442100	0.842300
C2691	C269	0.500300	0.224300	0.870300
C2701	C270	0.729900	0.343000	0.265000
C2711	C271	0.464300	0.258200	0.955300
H1511	H151	0.529800	0.256800	0.976800
C2721	C272	0.087900	0.313100	0.976700
H1521	H152	0.086500	0.305600	0.018300
C2731	C273	0.600200	0.368700	0.534300
H1531	H153	0.537600	0.360500	0.527000
C2741	C274	0.300100	0.276700	0.950500
C2751	C275	0.784000	0.390200	0.559200
H1541	H154	0.847800	0.397700	0.566300
C2761	C276	0.766400	0.331400	0.328300
H1551	H155	0.818400	0.318800	0.334800
C2771	C277	0.965200	0.516400	0.892500
H1561	H156	0.009200	0.530000	0.883600
C2781	C278	0.738600	0.383900	0.494900
H1571	H157	0.773400	0.386700	0.460200
C2791	C279	0.645800	0.360300	0.370600
C2801	C280	0.842500	0.500600	0.953400
H1581	H158	0.804300	0.503900	0.986100
C2811	C281	0.028400	0.609100	0.961300
H1591	H159	0.075600	0.619600	0.988500
C2821	C282	0.889200	0.578400	0.882700
H1601	H160	0.842000	0.567500	0.856600
C2831	C283	0.718000	0.340300	0.381200
H1611	H161	0.735500	0.332500	0.423000
C2841	C284	0.647500	0.373800	0.481900
C2851	C285	0.960400	0.490500	0.861200
H1621	H162	0.999400	0.487500	0.828900
C2861	C286	0.838200	0.474300	0.920600
H1631	H163	0.793400	0.460900	0.929600
C2871	C287	0.999500	0.584800	0.982200
H1641	H164	0.027200	0.578400	0.024000
C2881	C288	0.657300	0.362300	0.257200
H1651	H165	0.634300	0.369000	0.214800
C2891	C289	0.397100	0.275800	0.978800
H1661	H166	0.419600	0.287200	0.014700
C2901	C290	0.643700	0.375200	0.597300
H1671	H167	0.608200	0.372400	0.631600
C2911	C291	0.615200	0.372600	0.309700
H1681	H168	0.569300	0.387000	0.304000
O1031	O103	0.867600	0.403550	0.686100
C2921	C292	0.787200	0.392600	0.677300
C2931	C293	0.934100	0.359000	0.852400
O1041	O104	0.841500	0.315830	0.214100
C2941	C294	0.767600	0.332000	0.208600
O1051	O105	0.729400	0.338300	0.151100
Co151	Co15	0.678400	0.189630	0.892990
Co161	Co16	0.284860	0.890320	0.819300
O1061	O106	0.440800	0.873770	0.804800
O1071	O107	0.483700	0.152080	0.815400
O1081	O108	0.350700	0.860390	0.877300
O1091	O109	0.969100	0.713830	0.814400
O1101	O110	0.461200	0.937420	0.807200
O1111	O111	0.238800	0.886000	0.724800
O1121	O112	0.739800	0.793200	0.981800
O1131	O113	0.327900	0.926320	0.853700
O1141	O114	0.588300	0.158370	0.909500
O1151	O115	0.083600	0.720400	0.904300
O1161	O116	0.400800	0.045080	0.970600
C2951	C295	0.511600	0.841000	0.885200
O1171	O117	0.096900	0.868600	0.423200
C2961	C296	0.237700	0.885900	0.611900
C2971	C297	0.399700	0.968900	0.876400
C2981	C298	0.929500	0.742600	0.898100
C2991	C299	0.520700	0.145300	0.871500
C3001	C300	0.592600	0.834800	0.854200
H1691	H169	0.594500	0.842000	0.812400
C3011	C301	0.487600	0.118400	0.898900
C3021	C302	0.663600	0.807600	0.945500
C3031	C303	0.832800	0.744600	0.870600
H1701	H170	0.810100	0.734500	0.832600
C3041	C304	0.765500	0.761000	0.896300
H1711	H171	0.698700	0.761300	0.877100
C3051	C305	0.402700	0.020500	0.936200
C3061	C306	0.668000	0.818700	0.883100
H1721	H172	0.721800	0.815100	0.862000
C3071	C307	0.415600	0.103200	0.859300
H1731	H173	0.385900	0.109700	0.817900
C3081	C308	0.514900	0.829300	0.948500
H1741	H174	0.463400	0.833200	0.971500
C3091	C309	0.431200	0.069600	0.943600
C3101	C310	0.399300	0.942100	0.842300
C3111	C311	0.000300	0.724300	0.870300
C3121	C312	0.229900	0.843000	0.265000
C3131	C313	0.964300	0.758200	0.955300
H1751	H175	0.029800	0.756800	0.976800
C3141	C314	0.587900	0.813100	0.976700
H1761	H176	0.586500	0.805600	0.018300
C3151	C315	0.100200	0.868700	0.534300
H1771	H177	0.037600	0.860500	0.527000
C3161	C316	0.800100	0.776700	0.950500
C3171	C317	0.284000	0.890200	0.559200
H1781	H178	0.347800	0.897700	0.566300
C3181	C318	0.266400	0.831400	0.328300
H1791	H179	0.318400	0.818800	0.334800
C3191	C319	0.465200	0.016400	0.892500
H1801	H180	0.509200	0.030000	0.883600
C3201	C320	0.238600	0.883900	0.494900
H1811	H181	0.273400	0.886700	0.460200
C3211	C321	0.145800	0.860300	0.370600
C3221	C322	0.342500	0.000600	0.953400
H1821	H182	0.304300	0.003900	0.986100
C3231	C323	0.528400	0.109100	0.961300
H1831	H183	0.575600	0.119600	0.988500
C3241	C324	0.389200	0.078400	0.882700
H1841	H184	0.342000	0.067500	0.856600
C3251	C325	0.218000	0.840300	0.381200
H1851	H185	0.235500	0.832500	0.423000
C3261	C326	0.147500	0.873800	0.481900
C3271	C327	0.460400	0.990500	0.861200
H1861	H186	0.499400	0.987500	0.828900
C3281	C328	0.338200	0.974300	0.920600
H1871	H187	0.293400	0.960900	0.929600
C3291	C329	0.499500	0.084800	0.982200
H1881	H188	0.527200	0.078400	0.024000
C3301	C330	0.157300	0.862300	0.257200
H1891	H189	0.134300	0.869000	0.214800
C3311	C331	0.897100	0.775800	0.978800
H1901	H190	0.919600	0.787200	0.014700
C3321	C332	0.143700	0.875200	0.597300
H1911	H191	0.108200	0.872400	0.631600
C3331	C333	0.115200	0.872600	0.309700
H1921	H192	0.069300	0.887000	0.304000
O1181	O118	0.367600	0.903550	0.686100
C3341	C334	0.287200	0.892600	0.677300
C3351	C335	0.434100	0.859000	0.852400
O1191	O119	0.341500	0.815830	0.214100
C3361	C336	0.267600	0.832000	0.208600
O1201	O120	0.229400	0.838300	0.151100
Co171	Co17	0.000000	0.594580	0.250000
Co181	Co18	0.000000	0.316740	0.250000
Co191	Co19	0.500000	0.094580	0.250000
Co201	Co20	0.500000	0.816740	0.250000
Co211	Co21	0.000000	0.405420	0.750000
Co221	Co22	0.000000	0.683260	0.750000
Co231	Co23	0.500000	0.905420	0.750000
Co241	Co24	0.500000	0.183260	0.750000
