data_XANDAU_clean_PM
_symmetry_space_group_name_H-M	'P1'
_cell_length_a	28.129500
_cell_length_b	15.230500
_cell_length_c	8.760700
_cell_angle_alpha	90.000000
_cell_angle_beta	98.835000
_cell_angle_gamma	90.000000
_symmetry_Int_Tables_number 1

loop_
_symmetry_equiv_pos_as_xyz
'x,y,z'

loop_
_atom_site_label
_atom_site_type_symbol
_atom_site_fract_x
_atom_site_fract_y
_atom_site_fract_z
La11	La1	0.167540	0.013630	0.642020
O11	O1	0.286780	0.473020	0.602000
O21	O2	0.245280	0.429200	0.382800
O31	O3	0.118210	0.973400	0.389500
O41	O4	0.081530	0.930600	0.162900
O51	O5	0.160610	0.174680	0.537500
O61	O6	0.180600	0.160190	0.788100
C11	C1	0.133470	0.354700	0.561200
C21	C2	0.018700	0.822300	0.313500
C31	C3	0.082360	0.937800	0.305900
C41	C4	0.155870	0.426700	0.511200
C51	C5	0.246890	0.452000	0.519900
C61	C6	0.166130	0.206700	0.671600
C71	C7	0.040510	0.905500	0.381000
H11	H1	0.051500	0.896500	0.490400
H21	H2	0.015900	0.950600	0.371200
C81	C8	0.132300	0.472700	0.384200
H31	H3	0.146400	0.523500	0.352900
C91	C9	0.201560	0.464600	0.592600
H41	H4	0.207400	0.439600	0.695700
H51	H5	0.196700	0.527100	0.604000
C101	C10	0.153900	0.300700	0.701800
H61	H6	0.182800	0.329500	0.752600
H71	H7	0.130800	0.301100	0.773400
C111	C11	0.089750	0.329000	0.483000
H81	H8	0.074600	0.280000	0.516800
C121	C12	0.016600	0.665600	0.312100
H91	H9	0.027200	0.612500	0.357400
C131	C13	0.067800	0.374100	0.355600
H101	H10	0.038200	0.355400	0.304400
C141	C14	0.035700	0.742200	0.375100
H111	H11	0.060100	0.740800	0.459700
C151	C15	0.089100	0.446000	0.303800
H121	H12	0.074800	0.476000	0.216300
La21	La2	0.667540	0.513630	0.642020
O71	O7	0.786780	0.973020	0.602000
O81	O8	0.745280	0.929200	0.382800
O91	O9	0.618210	0.473400	0.389500
O101	O10	0.581530	0.430600	0.162900
O111	O11	0.660610	0.674680	0.537500
O121	O12	0.680600	0.660190	0.788100
C161	C16	0.633470	0.854700	0.561200
C171	C17	0.518700	0.322300	0.313500
C181	C18	0.582360	0.437800	0.305900
C191	C19	0.655870	0.926700	0.511200
C201	C20	0.746890	0.952000	0.519900
C211	C21	0.666130	0.706700	0.671600
C221	C22	0.540510	0.405500	0.381000
H131	H13	0.551500	0.396500	0.490400
H141	H14	0.515900	0.450600	0.371200
C231	C23	0.632300	0.972700	0.384200
H151	H15	0.646400	0.023500	0.352900
C241	C24	0.701560	0.964600	0.592600
H161	H16	0.707400	0.939600	0.695700
H171	H17	0.696700	0.027100	0.604000
C251	C25	0.653900	0.800700	0.701800
H181	H18	0.682800	0.829500	0.752600
H191	H19	0.630800	0.801100	0.773400
C261	C26	0.589750	0.829000	0.483000
H201	H20	0.574600	0.780000	0.516800
C271	C27	0.516600	0.165600	0.312100
H211	H21	0.527200	0.112500	0.357400
C281	C28	0.567800	0.874100	0.355600
H221	H22	0.538200	0.855400	0.304400
C291	C29	0.535700	0.242200	0.375100
H231	H23	0.560100	0.240800	0.459700
C301	C30	0.589100	0.946000	0.303800
H241	H24	0.574800	0.976000	0.216300
La31	La3	0.832460	0.013630	0.857980
O131	O13	0.713220	0.473020	0.898000
O141	O14	0.754720	0.429200	0.117200
O151	O15	0.881790	0.973400	0.110500
O161	O16	0.918470	0.930600	0.337100
O171	O17	0.839390	0.174680	0.962500
O181	O18	0.819400	0.160190	0.711900
C311	C31	0.866530	0.354700	0.938800
C321	C32	0.981300	0.822300	0.186500
C331	C33	0.917640	0.937800	0.194100
C341	C34	0.844130	0.426700	0.988800
C351	C35	0.753110	0.452000	0.980100
C361	C36	0.833870	0.206700	0.828400
C371	C37	0.959490	0.905500	0.119000
H251	H25	0.948500	0.896500	0.009600
H261	H26	0.984100	0.950600	0.128800
C381	C38	0.867700	0.472700	0.115800
H271	H27	0.853600	0.523500	0.147100
C391	C39	0.798440	0.464600	0.907400
H281	H28	0.792600	0.439600	0.804300
H291	H29	0.803300	0.527100	0.896000
C401	C40	0.846100	0.300700	0.798200
H301	H30	0.817200	0.329500	0.747400
H311	H31	0.869200	0.301100	0.726600
C411	C41	0.910250	0.329000	0.017000
H321	H32	0.925400	0.280000	0.983200
C421	C42	0.983400	0.665600	0.187900
H331	H33	0.972800	0.612500	0.142600
C431	C43	0.932200	0.374100	0.144400
H341	H34	0.961800	0.355400	0.195600
C441	C44	0.964300	0.742200	0.124900
H351	H35	0.939900	0.740800	0.040300
C451	C45	0.910900	0.446000	0.196200
H361	H36	0.925200	0.476000	0.283700
La41	La4	0.332460	0.513630	0.857980
O191	O19	0.213220	0.973020	0.898000
O201	O20	0.254720	0.929200	0.117200
O211	O21	0.381790	0.473400	0.110500
O221	O22	0.418470	0.430600	0.337100
O231	O23	0.339390	0.674680	0.962500
O241	O24	0.319400	0.660190	0.711900
C461	C46	0.366530	0.854700	0.938800
C471	C47	0.481300	0.322300	0.186500
C481	C48	0.417640	0.437800	0.194100
C491	C49	0.344130	0.926700	0.988800
C501	C50	0.253110	0.952000	0.980100
C511	C51	0.333870	0.706700	0.828400
C521	C52	0.459490	0.405500	0.119000
H371	H37	0.448500	0.396500	0.009600
H381	H38	0.484100	0.450600	0.128800
C531	C53	0.367700	0.972700	0.115800
H391	H39	0.353600	0.023500	0.147100
C541	C54	0.298440	0.964600	0.907400
H401	H40	0.292600	0.939600	0.804300
H411	H41	0.303300	0.027100	0.896000
C551	C55	0.346100	0.800700	0.798200
H421	H42	0.317200	0.829500	0.747400
H431	H43	0.369200	0.801100	0.726600
C561	C56	0.410250	0.829000	0.017000
H441	H44	0.425400	0.780000	0.983200
C571	C57	0.483400	0.165600	0.187900
H451	H45	0.472800	0.112500	0.142600
C581	C58	0.432200	0.874100	0.144400
H461	H46	0.461800	0.855400	0.195600
C591	C59	0.464300	0.242200	0.124900
H471	H47	0.439900	0.240800	0.040300
C601	C60	0.410900	0.946000	0.196200
H481	H48	0.425200	0.976000	0.283700
La51	La5	0.832460	0.986370	0.357980
O251	O25	0.713220	0.526980	0.398000
O261	O26	0.754720	0.570800	0.617200
O271	O27	0.881790	0.026600	0.610500
O281	O28	0.918470	0.069400	0.837100
O291	O29	0.839390	0.825320	0.462500
O301	O30	0.819400	0.839810	0.211900
C611	C61	0.866530	0.645300	0.438800
C621	C62	0.981300	0.177700	0.686500
C631	C63	0.917640	0.062200	0.694100
C641	C64	0.844130	0.573300	0.488800
C651	C65	0.753110	0.548000	0.480100
C661	C66	0.833870	0.793300	0.328400
C671	C67	0.959490	0.094500	0.619000
H491	H49	0.948500	0.103500	0.509600
H501	H50	0.984100	0.049400	0.628800
C681	C68	0.867700	0.527300	0.615800
H511	H51	0.853600	0.476500	0.647100
C691	C69	0.798440	0.535400	0.407400
H521	H52	0.792600	0.560400	0.304300
H531	H53	0.803300	0.472900	0.396000
C701	C70	0.846100	0.699300	0.298200
H541	H54	0.817200	0.670500	0.247400
H551	H55	0.869200	0.698900	0.226600
C711	C71	0.910250	0.671000	0.517000
H561	H56	0.925400	0.720000	0.483200
C721	C72	0.983400	0.334400	0.687900
H571	H57	0.972800	0.387500	0.642600
C731	C73	0.932200	0.625900	0.644400
H581	H58	0.961800	0.644600	0.695600
C741	C74	0.964300	0.257800	0.624900
H591	H59	0.939900	0.259200	0.540300
C751	C75	0.910900	0.554000	0.696200
H601	H60	0.925200	0.524000	0.783700
La61	La6	0.332460	0.486370	0.357980
O311	O31	0.213220	0.026980	0.398000
O321	O32	0.254720	0.070800	0.617200
O331	O33	0.381790	0.526600	0.610500
O341	O34	0.418470	0.569400	0.837100
O351	O35	0.339390	0.325320	0.462500
O361	O36	0.319400	0.339810	0.211900
C761	C76	0.366530	0.145300	0.438800
C771	C77	0.481300	0.677700	0.686500
C781	C78	0.417640	0.562200	0.694100
C791	C79	0.344130	0.073300	0.488800
C801	C80	0.253110	0.048000	0.480100
C811	C81	0.333870	0.293300	0.328400
C821	C82	0.459490	0.594500	0.619000
H611	H61	0.448500	0.603500	0.509600
H621	H62	0.484100	0.549400	0.628800
C831	C83	0.367700	0.027300	0.615800
H631	H63	0.353600	0.976500	0.647100
C841	C84	0.298440	0.035400	0.407400
H641	H64	0.292600	0.060400	0.304300
H651	H65	0.303300	0.972900	0.396000
C851	C85	0.346100	0.199300	0.298200
H661	H66	0.317200	0.170500	0.247400
H671	H67	0.369200	0.198900	0.226600
C861	C86	0.410250	0.171000	0.517000
H681	H68	0.425400	0.220000	0.483200
C871	C87	0.483400	0.834400	0.687900
H691	H69	0.472800	0.887500	0.642600
C881	C88	0.432200	0.125900	0.644400
H701	H70	0.461800	0.144600	0.695600
C891	C89	0.464300	0.757800	0.624900
H711	H71	0.439900	0.759200	0.540300
C901	C90	0.410900	0.054000	0.696200
H721	H72	0.425200	0.024000	0.783700
La71	La7	0.167540	0.986370	0.142020
O371	O37	0.286780	0.526980	0.102000
O381	O38	0.245280	0.570800	0.882800
O391	O39	0.118210	0.026600	0.889500
O401	O40	0.081530	0.069400	0.662900
O411	O41	0.160610	0.825320	0.037500
O421	O42	0.180600	0.839810	0.288100
C911	C91	0.133470	0.645300	0.061200
C921	C92	0.018700	0.177700	0.813500
C931	C93	0.082360	0.062200	0.805900
C941	C94	0.155870	0.573300	0.011200
C951	C95	0.246890	0.548000	0.019900
C961	C96	0.166130	0.793300	0.171600
C971	C97	0.040510	0.094500	0.881000
H731	H73	0.051500	0.103500	0.990400
H741	H74	0.015900	0.049400	0.871200
C981	C98	0.132300	0.527300	0.884200
H751	H75	0.146400	0.476500	0.852900
C991	C99	0.201560	0.535400	0.092600
H761	H76	0.207400	0.560400	0.195700
H771	H77	0.196700	0.472900	0.104000
C1001	C100	0.153900	0.699300	0.201800
H781	H78	0.182800	0.670500	0.252600
H791	H79	0.130800	0.698900	0.273400
C1011	C101	0.089750	0.671000	0.983000
H801	H80	0.074600	0.720000	0.016800
C1021	C102	0.016600	0.334400	0.812100
H811	H81	0.027200	0.387500	0.857400
C1031	C103	0.067800	0.625900	0.855600
H821	H82	0.038200	0.644600	0.804400
C1041	C104	0.035700	0.257800	0.875100
H831	H83	0.060100	0.259200	0.959700
C1051	C105	0.089100	0.554000	0.803800
H841	H84	0.074800	0.524000	0.716300
La81	La8	0.667540	0.486370	0.142020
O431	O43	0.786780	0.026980	0.102000
O441	O44	0.745280	0.070800	0.882800
O451	O45	0.618210	0.526600	0.889500
O461	O46	0.581530	0.569400	0.662900
O471	O47	0.660610	0.325320	0.037500
O481	O48	0.680600	0.339810	0.288100
C1061	C106	0.633470	0.145300	0.061200
C1071	C107	0.518700	0.677700	0.813500
C1081	C108	0.582360	0.562200	0.805900
C1091	C109	0.655870	0.073300	0.011200
C1101	C110	0.746890	0.048000	0.019900
C1111	C111	0.666130	0.293300	0.171600
C1121	C112	0.540510	0.594500	0.881000
H851	H85	0.551500	0.603500	0.990400
H861	H86	0.515900	0.549400	0.871200
C1131	C113	0.632300	0.027300	0.884200
H871	H87	0.646400	0.976500	0.852900
C1141	C114	0.701560	0.035400	0.092600
H881	H88	0.707400	0.060400	0.195700
H891	H89	0.696700	0.972900	0.104000
C1151	C115	0.653900	0.199300	0.201800
H901	H90	0.682800	0.170500	0.252600
H911	H91	0.630800	0.198900	0.273400
C1161	C116	0.589750	0.171000	0.983000
H921	H92	0.574600	0.220000	0.016800
C1171	C117	0.516600	0.834400	0.812100
H931	H93	0.527200	0.887500	0.857400
C1181	C118	0.567800	0.125900	0.855600
H941	H94	0.538200	0.144600	0.804400
C1191	C119	0.535700	0.757800	0.875100
H951	H95	0.560100	0.759200	0.959700
C1201	C120	0.589100	0.054000	0.803800
H961	H96	0.574800	0.024000	0.716300
