data_XANKOO_clean_PM
_symmetry_space_group_name_H-M	'P1'
_cell_length_a	29.668800
_cell_length_b	29.668800
_cell_length_c	72.712500
_cell_angle_alpha	90.000000
_cell_angle_beta	90.000000
_cell_angle_gamma	120.000000
_symmetry_Int_Tables_number 1

loop_
_symmetry_equiv_pos_as_xyz
'x,y,z'

loop_
_atom_site_label
_atom_site_type_symbol
_atom_site_fract_x
_atom_site_fract_y
_atom_site_fract_z
C11	C1	0.411700	0.582800	0.333610
C21	C2	0.461400	0.608900	0.341100
C31	C3	0.478100	0.582800	0.352600
C41	C4	0.445100	0.530400	0.356600
C51	C5	0.395400	0.504300	0.349100
C61	C6	0.378700	0.530500	0.337600
C71	C7	0.392800	0.611600	0.320700
C81	C8	0.581800	0.410000	0.418340
C91	C9	0.608400	0.459600	0.410800
C101	C10	0.582300	0.477100	0.399600
C111	C11	0.529600	0.444900	0.396000
C121	C12	0.503000	0.395300	0.403500
C131	C13	0.529100	0.377800	0.414700
C141	C14	0.355700	0.446500	0.353400
C151	C15	0.829900	0.916300	0.165300
C161	C16	0.829900	0.923400	0.184200
C171	C17	0.783100	0.905100	0.193500
C181	C18	0.736300	0.879800	0.184000
C191	C19	0.736200	0.872600	0.165100
C201	C20	0.783000	0.890900	0.155700
C211	C21	0.376000	0.415100	0.348800
C221	C22	0.493100	0.748900	0.250900
C231	C23	0.544500	0.772500	0.256800
C241	C24	0.584800	0.796300	0.244200
C251	C25	0.573800	0.796700	0.225600
C261	C26	0.522400	0.773100	0.219700
C271	C27	0.482000	0.749200	0.232400
C281	C28	0.309000	0.435000	0.344300
C291	C29	0.343000	0.440600	0.372100
C301	C30	0.529100	0.615800	0.359000
C311	C31	0.612600	0.392300	0.430800
C321	C32	0.443700	0.360200	0.398900
C331	C33	0.423700	0.311400	0.407700
C341	C34	0.437800	0.353600	0.379900
C351	C35	0.416500	0.384600	0.404300
C361	C36	0.616300	0.528300	0.393400
C371	C37	0.607600	0.631700	0.373300
C381	C38	0.639100	0.692400	0.372200
C391	C39	0.685800	0.722000	0.383400
C401	C40	0.703900	0.692500	0.393700
C411	C41	0.691800	0.638700	0.387300
C421	C42	0.636100	0.606400	0.375500
C431	C43	0.881300	0.936400	0.154600
C441	C44	0.684400	0.842900	0.153900
C451	C45	0.643300	0.851000	0.158000
C461	C46	0.664000	0.789000	0.154400
C471	C47	0.696000	0.856000	0.135000
C481	C48	0.788300	0.913300	0.212700
C491	C49	0.446900	0.722000	0.264300
C501	C50	0.504000	0.770300	0.199300
C511	C51	0.509000	0.819000	0.194600
C521	C52	0.450000	0.733300	0.197400
C531	C53	0.530300	0.756000	0.186600
C541	C54	0.635200	0.817600	0.252100
C551	C55	0.765000	0.872200	0.242700
C561	C56	0.820000	0.880100	0.249600
C571	C57	0.820500	0.849100	0.265700
C581	C58	0.780000	0.836300	0.279100
C591	C59	0.727000	0.830900	0.273900
C601	C60	0.723100	0.829300	0.251200
Cl11	Cl1	0.543300	0.484400	0.344300
Cl21	Cl2	0.670900	0.747000	0.208500
Mn11	Mn1	0.532700	0.522400	0.368880
Mn21	Mn2	0.682100	0.825000	0.215180
N11	N1	0.561300	0.599400	0.364800
N21	N2	0.601600	0.553700	0.381900
N31	N3	0.756800	0.872600	0.224100
N41	N4	0.673400	0.814500	0.243200
O11	O1	0.425300	0.660800	0.314700
O21	O2	0.341300	0.583700	0.316000
O31	O3	0.459000	0.499900	0.368700
O41	O4	0.658800	0.424000	0.437300
O51	O5	0.580800	0.340300	0.432500
O61	O6	0.500200	0.461400	0.383700
O71	O7	0.929400	0.959600	0.162300
O81	O8	0.879300	0.930700	0.136100
O91	O9	0.685900	0.859900	0.193000
O101	O10	0.454300	0.724700	0.282200
O111	O11	0.401300	0.696300	0.255800
O121	O12	0.616900	0.821500	0.212400
Zn11	Zn1	0.404730	0.699580	0.300520
Zn21	Zn2	0.929150	0.965420	0.116030
C611	C61	0.869100	0.672500	0.535900
C621	C62	0.512300	0.533800	0.386800
C631	C63	0.817800	0.680900	0.531700
C641	C64	0.480000	0.496100	0.382000
C651	C65	0.078370	0.916130	0.666940
C661	C66	0.128070	0.942230	0.674430
C671	C67	0.144770	0.916130	0.685930
C681	C68	0.111770	0.863730	0.689930
C691	C69	0.062070	0.837630	0.682430
C701	C70	0.045370	0.863830	0.670930
C711	C71	0.059470	0.944930	0.654030
C721	C72	0.248470	0.743330	0.751670
C731	C73	0.275070	0.792930	0.744130
C741	C74	0.248970	0.810430	0.732930
C751	C75	0.196270	0.778230	0.729330
C761	C76	0.169670	0.728630	0.736830
C771	C77	0.195770	0.711130	0.748030
C781	C78	0.022370	0.779830	0.686730
C791	C79	0.496570	0.249630	0.498630
C801	C80	0.496570	0.256730	0.517530
C811	C81	0.449770	0.238430	0.526830
C821	C82	0.402970	0.213130	0.517330
C831	C83	0.402870	0.205930	0.498430
C841	C84	0.449670	0.224230	0.489030
C851	C85	0.042670	0.748430	0.682130
C861	C86	0.159770	0.082230	0.584230
C871	C87	0.211170	0.105830	0.590130
C881	C88	0.251470	0.129630	0.577530
C891	C89	0.240470	0.130030	0.558930
C901	C90	0.189070	0.106430	0.553030
C911	C91	0.148670	0.082530	0.565730
C921	C92	0.975670	0.768330	0.677630
C931	C93	0.009670	0.773930	0.705430
C941	C94	0.195770	0.949130	0.692330
C951	C95	0.279270	0.725630	0.764130
C961	C96	0.110370	0.693530	0.732230
C971	C97	0.090370	0.644730	0.741030
C981	C98	0.104470	0.686930	0.713230
C991	C99	0.083170	0.717930	0.737630
C1001	C100	0.282970	0.861630	0.726730
C1011	C101	0.274270	0.965030	0.706630
C1021	C102	0.305770	0.025730	0.705530
C1031	C103	0.352470	0.055330	0.716730
C1041	C104	0.370570	0.025830	0.727030
C1051	C105	0.358470	0.972030	0.720630
C1061	C106	0.302770	0.939730	0.708830
C1071	C107	0.547970	0.269730	0.487930
C1081	C108	0.351070	0.176230	0.487230
C1091	C109	0.309970	0.184330	0.491330
C1101	C110	0.330670	0.122330	0.487730
C1111	C111	0.362670	0.189330	0.468330
C1121	C112	0.454970	0.246630	0.546030
C1131	C113	0.113570	0.055330	0.597630
C1141	C114	0.170670	0.103630	0.532630
C1151	C115	0.175670	0.152330	0.527930
C1161	C116	0.116670	0.066630	0.530730
C1171	C117	0.196970	0.089330	0.519930
C1181	C118	0.301870	0.150930	0.585430
C1191	C119	0.431670	0.205530	0.576030
C1201	C120	0.486670	0.213430	0.582930
C1211	C121	0.487170	0.182430	0.599030
C1221	C122	0.446670	0.169630	0.612430
C1231	C123	0.393670	0.164230	0.607230
C1241	C124	0.389770	0.162630	0.584530
Cl31	Cl3	0.209970	0.817730	0.677630
Cl41	Cl4	0.337570	0.080330	0.541830
Mn31	Mn3	0.199370	0.855730	0.702210
Mn41	Mn4	0.348770	0.158330	0.548510
N51	N5	0.227970	0.932730	0.698130
N61	N6	0.268270	0.887030	0.715230
N71	N7	0.423470	0.205930	0.557430
N81	N8	0.340070	0.147830	0.576530
O131	O13	0.091970	0.994130	0.648030
O141	O14	0.007970	0.917030	0.649330
O151	O15	0.125670	0.833230	0.702030
O161	O16	0.325470	0.757330	0.770630
O171	O17	0.247470	0.673630	0.765830
O181	O18	0.166870	0.794730	0.717030
O191	O19	0.596070	0.292930	0.495630
O201	O20	0.545970	0.264030	0.469430
O211	O21	0.352570	0.193230	0.526330
O221	O22	0.120970	0.058030	0.615530
O231	O23	0.067970	0.029630	0.589130
O241	O24	0.283570	0.154830	0.545730
Zn31	Zn3	0.071400	0.032910	0.633850
Zn41	Zn4	0.595820	0.298750	0.449360
C1251	C125	0.535770	0.005830	0.869230
C1261	C126	0.178970	0.867130	0.720130
C1271	C127	0.484470	0.014230	0.865030
C1281	C128	0.146670	0.829430	0.715330
C1291	C129	0.745030	0.249470	0.000280
C1301	C130	0.794730	0.275570	0.007770
C1311	C131	0.811430	0.249470	0.019270
C1321	C132	0.778430	0.197070	0.023270
C1331	C133	0.728730	0.170970	0.015770
C1341	C134	0.712030	0.197170	0.004270
C1351	C135	0.726130	0.278270	0.987370
C1361	C136	0.915130	0.076670	0.085010
C1371	C137	0.941730	0.126270	0.077470
C1381	C138	0.915630	0.143770	0.066270
C1391	C139	0.862930	0.111570	0.062670
C1401	C140	0.836330	0.061970	0.070170
C1411	C141	0.862430	0.044470	0.081370
C1421	C142	0.689030	0.113170	0.020070
C1431	C143	0.163230	0.582970	0.831970
C1441	C144	0.163230	0.590070	0.850870
C1451	C145	0.116430	0.571770	0.860170
C1461	C146	0.069630	0.546470	0.850670
C1471	C147	0.069530	0.539270	0.831770
C1481	C148	0.116330	0.557570	0.822370
C1491	C149	0.709330	0.081770	0.015470
C1501	C150	0.826430	0.415570	0.917570
C1511	C151	0.877830	0.439170	0.923470
C1521	C152	0.918130	0.462970	0.910870
C1531	C153	0.907130	0.463370	0.892270
C1541	C154	0.855730	0.439770	0.886370
C1551	C155	0.815330	0.415870	0.899070
C1561	C156	0.642330	0.101670	0.010970
C1571	C157	0.676330	0.107270	0.038770
C1581	C158	0.862430	0.282470	0.025670
C1591	C159	0.945930	0.058970	0.097470
C1601	C160	0.777030	0.026870	0.065570
C1611	C161	0.757030	0.978070	0.074370
C1621	C162	0.771130	0.020270	0.046570
C1631	C163	0.749830	0.051270	0.070970
C1641	C164	0.949630	0.194970	0.060070
C1651	C165	0.940930	0.298370	0.039970
C1661	C166	0.972430	0.359070	0.038870
C1671	C167	0.019130	0.388670	0.050070
C1681	C168	0.037230	0.359170	0.060370
C1691	C169	0.025130	0.305370	0.053970
C1701	C170	0.969430	0.273070	0.042170
C1711	C171	0.214630	0.603070	0.821270
C1721	C172	0.017730	0.509570	0.820570
C1731	C173	0.976630	0.517670	0.824670
C1741	C174	0.997330	0.455670	0.821070
C1751	C175	0.029330	0.522670	0.801670
C1761	C176	0.121630	0.579970	0.879370
C1771	C177	0.780230	0.388670	0.930970
C1781	C178	0.837330	0.436970	0.865970
C1791	C179	0.842330	0.485670	0.861270
C1801	C180	0.783330	0.399970	0.864070
C1811	C181	0.863630	0.422670	0.853270
C1821	C182	0.968530	0.484270	0.918770
C1831	C183	0.098330	0.538870	0.909370
C1841	C184	0.153330	0.546770	0.916270
C1851	C185	0.153830	0.515770	0.932370
C1861	C186	0.113330	0.502970	0.945770
C1871	C187	0.060330	0.497570	0.940570
C1881	C188	0.056430	0.495970	0.917870
Cl51	Cl5	0.876630	0.151070	0.010970
Cl61	Cl6	0.004230	0.413670	0.875170
Mn51	Mn5	0.866030	0.189070	0.035550
Mn61	Mn6	0.015430	0.491670	0.881850
N91	N9	0.894630	0.266070	0.031470
N101	N10	0.934930	0.220370	0.048570
N111	N11	0.090130	0.539270	0.890770
N121	N12	0.006730	0.481170	0.909870
O251	O25	0.758630	0.327470	0.981370
O261	O26	0.674630	0.250370	0.982670
O271	O27	0.792330	0.166570	0.035370
O281	O28	0.992130	0.090670	0.103970
O291	O29	0.914130	0.006970	0.099170
O301	O30	0.833530	0.128070	0.050370
O311	O31	0.262730	0.626270	0.828970
O321	O32	0.212630	0.597370	0.802770
O331	O33	0.019230	0.526570	0.859670
O341	O34	0.787630	0.391370	0.948870
O351	O35	0.734630	0.362970	0.922470
O361	O36	0.950230	0.488170	0.879070
Zn51	Zn5	0.738060	0.366250	0.967190
Zn61	Zn6	0.262480	0.632090	0.782700
C1891	C189	0.202430	0.339170	0.202570
C1901	C190	0.845630	0.200470	0.053470
C1911	C191	0.151130	0.347570	0.198370
C1921	C192	0.813330	0.162770	0.048670
C1931	C193	0.417200	0.828900	0.333610
C1941	C194	0.391100	0.852500	0.341100
C1951	C195	0.417200	0.895300	0.352600
C1961	C196	0.469600	0.914700	0.356600
C1971	C197	0.495700	0.891100	0.349100
C1981	C198	0.469500	0.848200	0.337600
C1991	C199	0.388400	0.781200	0.320700
C2001	C200	0.590000	0.171800	0.418340
C2011	C201	0.540400	0.148800	0.410800
C2021	C202	0.522900	0.105200	0.399600
C2031	C203	0.555100	0.084700	0.396000
C2041	C204	0.604700	0.107700	0.403500
C2051	C205	0.622200	0.151300	0.414700
C2061	C206	0.553500	0.909200	0.353400
C2071	C207	0.083700	0.913600	0.165300
C2081	C208	0.076600	0.906500	0.184200
C2091	C209	0.094900	0.878000	0.193500
C2101	C210	0.120200	0.856500	0.184000
C2111	C211	0.127400	0.863600	0.165100
C2121	C212	0.109100	0.892100	0.155700
C2131	C213	0.584900	0.960900	0.348800
C2141	C214	0.251100	0.744200	0.250900
C2151	C215	0.227500	0.772000	0.256800
C2161	C216	0.203700	0.788500	0.244200
C2171	C217	0.203300	0.777100	0.225600
C2181	C218	0.226900	0.749300	0.219700
C2191	C219	0.250800	0.732800	0.232400
C2201	C220	0.565000	0.874000	0.344300
C2211	C221	0.559400	0.902400	0.372100
C2221	C222	0.384200	0.913300	0.359000
C2231	C223	0.607700	0.220300	0.430800
C2241	C224	0.639800	0.083500	0.398900
C2251	C225	0.688600	0.112300	0.407700
C2261	C226	0.646400	0.084200	0.379900
C2271	C227	0.615400	0.031900	0.404300
C2281	C228	0.471700	0.088000	0.393400
C2291	C229	0.368300	0.975900	0.373300
C2301	C230	0.307600	0.946700	0.372200
C2311	C231	0.278000	0.963800	0.383400
C2321	C232	0.307500	0.011400	0.393700
C2331	C233	0.361300	0.053100	0.387300
C2341	C234	0.393600	0.029700	0.375500
C2351	C235	0.063600	0.944900	0.154600
C2361	C236	0.157100	0.841500	0.153900
C2371	C237	0.149000	0.792300	0.158000
C2381	C238	0.211000	0.875000	0.154400
C2391	C239	0.144000	0.840000	0.135000
C2401	C240	0.086700	0.875000	0.212700
C2411	C241	0.278000	0.724900	0.264300
C2421	C242	0.229700	0.733700	0.199300
C2431	C243	0.181000	0.690000	0.194600
C2441	C244	0.266700	0.716700	0.197400
C2451	C245	0.244000	0.774300	0.186600
C2461	C246	0.182400	0.817600	0.252100
C2471	C247	0.127800	0.892800	0.242700
C2481	C248	0.119900	0.939900	0.249600
C2491	C249	0.150900	0.971400	0.265700
C2501	C250	0.163700	0.943700	0.279100
C2511	C251	0.169100	0.896100	0.273900
C2521	C252	0.170700	0.893800	0.251200
Cl71	Cl7	0.515600	0.058900	0.344300
Cl81	Cl8	0.253000	0.923900	0.208500
Mn71	Mn7	0.477600	0.010300	0.368880
Mn81	Mn8	0.175000	0.857100	0.215180
N131	N13	0.400600	0.961900	0.364800
N141	N14	0.446300	0.047900	0.381900
N151	N15	0.127400	0.884200	0.224100
N161	N16	0.185500	0.858900	0.243200
O371	O37	0.339200	0.764500	0.314700
O381	O38	0.416300	0.757600	0.316000
O391	O39	0.500100	0.959100	0.368700
O401	O40	0.576000	0.234800	0.437300
O411	O41	0.659700	0.240500	0.432500
O421	O42	0.538600	0.038800	0.383700
O431	O43	0.040400	0.969800	0.162300
O441	O44	0.069300	0.948600	0.136100
O451	O45	0.140100	0.826000	0.193000
O461	O46	0.275300	0.729600	0.282200
O471	O47	0.303700	0.705000	0.255800
O481	O48	0.178500	0.795400	0.212400
Zn71	Zn7	0.300420	0.705150	0.300520
Zn81	Zn8	0.034580	0.963730	0.116030
C2531	C253	0.327500	0.196600	0.535900
C2541	C254	0.466200	0.978500	0.386800
C2551	C255	0.319100	0.136900	0.531700
C2561	C256	0.503900	0.983900	0.382000
C2571	C257	0.083870	0.162230	0.666940
C2581	C258	0.057770	0.185830	0.674430
C2591	C259	0.083870	0.228630	0.685930
C2601	C260	0.136270	0.248030	0.689930
C2611	C261	0.162370	0.224430	0.682430
C2621	C262	0.136170	0.181530	0.670930
C2631	C263	0.055070	0.114530	0.654030
C2641	C264	0.256670	0.505130	0.751670
C2651	C265	0.207070	0.482130	0.744130
C2661	C266	0.189570	0.438530	0.732930
C2671	C267	0.221770	0.418030	0.729330
C2681	C268	0.271370	0.441030	0.736830
C2691	C269	0.288870	0.484630	0.748030
C2701	C270	0.220170	0.242530	0.686730
C2711	C271	0.750370	0.246930	0.498630
C2721	C272	0.743270	0.239830	0.517530
C2731	C273	0.761570	0.211330	0.526830
C2741	C274	0.786870	0.189830	0.517330
C2751	C275	0.794070	0.196930	0.498430
C2761	C276	0.775770	0.225430	0.489030
C2771	C277	0.251570	0.294230	0.682130
C2781	C278	0.917770	0.077530	0.584230
C2791	C279	0.894170	0.105330	0.590130
C2801	C280	0.870370	0.121830	0.577530
C2811	C281	0.869970	0.110430	0.558930
C2821	C282	0.893570	0.082630	0.553030
C2831	C283	0.917470	0.066130	0.565730
C2841	C284	0.231670	0.207330	0.677630
C2851	C285	0.226070	0.235730	0.705430
C2861	C286	0.050870	0.246630	0.692330
C2871	C287	0.274370	0.553630	0.764130
C2881	C288	0.306470	0.416830	0.732230
C2891	C289	0.355270	0.445630	0.741030
C2901	C290	0.313070	0.417530	0.713230
C2911	C291	0.282070	0.365230	0.737630
C2921	C292	0.138370	0.421330	0.726730
C2931	C293	0.034970	0.309230	0.706630
C2941	C294	0.974270	0.280030	0.705530
C2951	C295	0.944670	0.297130	0.716730
C2961	C296	0.974170	0.344730	0.727030
C2971	C297	0.027970	0.386430	0.720630
C2981	C298	0.060270	0.363030	0.708830
C2991	C299	0.730270	0.278230	0.487930
C3001	C300	0.823770	0.174830	0.487230
C3011	C301	0.815670	0.125630	0.491330
C3021	C302	0.877670	0.208330	0.487730
C3031	C303	0.810670	0.173330	0.468330
C3041	C304	0.753370	0.208330	0.546030
C3051	C305	0.944670	0.058230	0.597630
C3061	C306	0.896370	0.067030	0.532630
C3071	C307	0.847670	0.023330	0.527930
C3081	C308	0.933370	0.050030	0.530730
C3091	C309	0.910670	0.107630	0.519930
C3101	C310	0.849070	0.150930	0.585430
C3111	C311	0.794470	0.226130	0.576030
C3121	C312	0.786570	0.273230	0.582930
C3131	C313	0.817570	0.304730	0.599030
C3141	C314	0.830370	0.277030	0.612430
C3151	C315	0.835770	0.229430	0.607230
C3161	C316	0.837370	0.227130	0.584530
Cl91	Cl9	0.182270	0.392230	0.677630
Cl101	Cl10	0.919670	0.257230	0.541830
Mn91	Mn9	0.144270	0.343630	0.702210
Mn101	Mn10	0.841670	0.190430	0.548510
N171	N17	0.067270	0.295230	0.698130
N181	N18	0.112970	0.381230	0.715230
N191	N19	0.794070	0.217530	0.557430
N201	N20	0.852170	0.192230	0.576530
O491	O49	0.005870	0.097830	0.648030
O501	O50	0.082970	0.090930	0.649330
O511	O51	0.166770	0.292430	0.702030
O521	O52	0.242670	0.568130	0.770630
O531	O53	0.326370	0.573830	0.765830
O541	O54	0.205270	0.372130	0.717030
O551	O55	0.707070	0.303130	0.495630
O561	O56	0.735970	0.281930	0.469430
O571	O57	0.806770	0.159330	0.526330
O581	O58	0.941970	0.062930	0.615530
O591	O59	0.970370	0.038330	0.589130
O601	O60	0.845170	0.128730	0.545730
Zn91	Zn9	0.967090	0.038480	0.633850
Zn101	Zn10	0.701250	0.297060	0.449360
C3171	C317	0.994170	0.529930	0.869230
C3181	C318	0.132870	0.311830	0.720130
C3191	C319	0.985770	0.470230	0.865030
C3201	C320	0.170570	0.317230	0.715330
C3211	C321	0.750530	0.495570	0.000280
C3221	C322	0.724430	0.519170	0.007770
C3231	C323	0.750530	0.561970	0.019270
C3241	C324	0.802930	0.581370	0.023270
C3251	C325	0.829030	0.557770	0.015770
C3261	C326	0.802830	0.514870	0.004270
C3271	C327	0.721730	0.447870	0.987370
C3281	C328	0.923330	0.838470	0.085010
C3291	C329	0.873730	0.815470	0.077470
C3301	C330	0.856230	0.771870	0.066270
C3311	C331	0.888430	0.751370	0.062670
C3321	C332	0.938030	0.774370	0.070170
C3331	C333	0.955530	0.817970	0.081370
C3341	C334	0.886830	0.575870	0.020070
C3351	C335	0.417030	0.580270	0.831970
C3361	C336	0.409930	0.573170	0.850870
C3371	C337	0.428230	0.544670	0.860170
C3381	C338	0.453530	0.523170	0.850670
C3391	C339	0.460730	0.530270	0.831770
C3401	C340	0.442430	0.558770	0.822370
C3411	C341	0.918230	0.627570	0.015470
C3421	C342	0.584430	0.410870	0.917570
C3431	C343	0.560830	0.438670	0.923470
C3441	C344	0.537030	0.455170	0.910870
C3451	C345	0.536630	0.443770	0.892270
C3461	C346	0.560230	0.415970	0.886370
C3471	C347	0.584130	0.399470	0.899070
C3481	C348	0.898330	0.540670	0.010970
C3491	C349	0.892730	0.569070	0.038770
C3501	C350	0.717530	0.579970	0.025670
C3511	C351	0.941030	0.886970	0.097470
C3521	C352	0.973130	0.750170	0.065570
C3531	C353	0.021930	0.778970	0.074370
C3541	C354	0.979730	0.750870	0.046570
C3551	C355	0.948730	0.698570	0.070970
C3561	C356	0.805030	0.754670	0.060070
C3571	C357	0.701630	0.642570	0.039970
C3581	C358	0.640930	0.613370	0.038870
C3591	C359	0.611330	0.630470	0.050070
C3601	C360	0.640830	0.678070	0.060370
C3611	C361	0.694630	0.719770	0.053970
C3621	C362	0.726930	0.696370	0.042170
C3631	C363	0.396930	0.611570	0.821270
C3641	C364	0.490430	0.508170	0.820570
C3651	C365	0.482330	0.458970	0.824670
C3661	C366	0.544330	0.541670	0.821070
C3671	C367	0.477330	0.506670	0.801670
C3681	C368	0.420030	0.541670	0.879370
C3691	C369	0.611330	0.391570	0.930970
C3701	C370	0.563030	0.400370	0.865970
C3711	C371	0.514330	0.356670	0.861270
C3721	C372	0.600030	0.383370	0.864070
C3731	C373	0.577330	0.440970	0.853270
C3741	C374	0.515730	0.484270	0.918770
C3751	C375	0.461130	0.559470	0.909370
C3761	C376	0.453230	0.606570	0.916270
C3771	C377	0.484230	0.638070	0.932370
C3781	C378	0.497030	0.610370	0.945770
C3791	C379	0.502430	0.562770	0.940570
C3801	C380	0.504030	0.560470	0.917870
Cl111	Cl11	0.848930	0.725570	0.010970
Cl121	Cl12	0.586330	0.590570	0.875170
Mn111	Mn11	0.810930	0.676970	0.035550
Mn121	Mn12	0.508330	0.523770	0.881850
N211	N21	0.733930	0.628570	0.031470
N221	N22	0.779630	0.714570	0.048570
N231	N23	0.460730	0.550870	0.890770
N241	N24	0.518830	0.525570	0.909870
O611	O61	0.672530	0.431170	0.981370
O621	O62	0.749630	0.424270	0.982670
O631	O63	0.833430	0.625770	0.035370
O641	O64	0.909330	0.901470	0.103970
O651	O65	0.993030	0.907170	0.099170
O661	O66	0.871930	0.705470	0.050370
O671	O67	0.373730	0.636470	0.828970
O681	O68	0.402630	0.615270	0.802770
O691	O69	0.473430	0.492670	0.859670
O701	O70	0.608630	0.396270	0.948870
O711	O71	0.637030	0.371670	0.922470
O721	O72	0.511830	0.462070	0.879070
Zn111	Zn11	0.633750	0.371820	0.967190
Zn121	Zn12	0.367910	0.630400	0.782700
C3811	C381	0.660830	0.863270	0.202570
C3821	C382	0.799530	0.645170	0.053470
C3831	C383	0.652430	0.803570	0.198370
C3841	C384	0.837230	0.650570	0.048670
C3851	C385	0.171100	0.588300	0.333610
C3861	C386	0.147500	0.538600	0.341100
C3871	C387	0.104700	0.521900	0.352600
C3881	C388	0.085300	0.554900	0.356600
C3891	C389	0.108900	0.604600	0.349100
C3901	C390	0.151800	0.621300	0.337600
C3911	C391	0.218800	0.607200	0.320700
C3921	C392	0.828200	0.418200	0.418340
C3931	C393	0.851200	0.391600	0.410800
C3941	C394	0.894800	0.417700	0.399600
C3951	C395	0.915300	0.470400	0.396000
C3961	C396	0.892300	0.497000	0.403500
C3971	C397	0.848700	0.470900	0.414700
C3981	C398	0.090800	0.644300	0.353400
C3991	C399	0.086400	0.170100	0.165300
C4001	C400	0.093500	0.170100	0.184200
C4011	C401	0.122000	0.216900	0.193500
C4021	C402	0.143500	0.263700	0.184000
C4031	C403	0.136400	0.263800	0.165100
C4041	C404	0.107900	0.217000	0.155700
C4051	C405	0.039100	0.624000	0.348800
C4061	C406	0.255800	0.506900	0.250900
C4071	C407	0.228000	0.455500	0.256800
C4081	C408	0.211500	0.415200	0.244200
C4091	C409	0.222900	0.426200	0.225600
C4101	C410	0.250700	0.477600	0.219700
C4111	C411	0.267200	0.518000	0.232400
C4121	C412	0.126000	0.691000	0.344300
C4131	C413	0.097600	0.657000	0.372100
C4141	C414	0.086700	0.470900	0.359000
C4151	C415	0.779700	0.387400	0.430800
C4161	C416	0.916500	0.556300	0.398900
C4171	C417	0.887700	0.576300	0.407700
C4181	C418	0.915800	0.562200	0.379900
C4191	C419	0.968100	0.583500	0.404300
C4201	C420	0.912000	0.383700	0.393400
C4211	C421	0.024100	0.392400	0.373300
C4221	C422	0.053300	0.360900	0.372200
C4231	C423	0.036200	0.314200	0.383400
C4241	C424	0.988600	0.296100	0.393700
C4251	C425	0.946900	0.308200	0.387300
C4261	C426	0.970300	0.363900	0.375500
C4271	C427	0.055100	0.118700	0.154600
C4281	C428	0.158500	0.315600	0.153900
C4291	C429	0.207700	0.356700	0.158000
C4301	C430	0.125000	0.336000	0.154400
C4311	C431	0.160000	0.304000	0.135000
C4321	C432	0.125000	0.211700	0.212700
C4331	C433	0.275100	0.553100	0.264300
C4341	C434	0.266300	0.496000	0.199300
C4351	C435	0.310000	0.491000	0.194600
C4361	C436	0.283300	0.550000	0.197400
C4371	C437	0.225700	0.469700	0.186600
C4381	C438	0.182400	0.364800	0.252100
C4391	C439	0.107200	0.235000	0.242700
C4401	C440	0.060100	0.180000	0.249600
C4411	C441	0.028600	0.179500	0.265700
C4421	C442	0.056300	0.220000	0.279100
C4431	C443	0.103900	0.273000	0.273900
C4441	C444	0.106200	0.276900	0.251200
Cl131	Cl13	0.941100	0.456700	0.344300
Cl141	Cl14	0.076100	0.329100	0.208500
Mn131	Mn13	0.989700	0.467300	0.368880
Mn141	Mn14	0.142900	0.317900	0.215180
N251	N25	0.038100	0.438700	0.364800
N261	N26	0.952100	0.398400	0.381900
N271	N27	0.115800	0.243200	0.224100
N281	N28	0.141100	0.326600	0.243200
O731	O73	0.235500	0.574700	0.314700
O741	O74	0.242400	0.658700	0.316000
O751	O75	0.040900	0.541000	0.368700
O761	O76	0.765200	0.341200	0.437300
O771	O77	0.759500	0.419200	0.432500
O781	O78	0.961200	0.499800	0.383700
O791	O79	0.030200	0.070600	0.162300
O801	O80	0.051400	0.120700	0.136100
O811	O81	0.174000	0.314100	0.193000
O821	O82	0.270400	0.545700	0.282200
O831	O83	0.295000	0.598700	0.255800
O841	O84	0.204600	0.383100	0.212400
Zn131	Zn13	0.294850	0.595270	0.300520
Zn141	Zn14	0.036270	0.070850	0.116030
C4451	C445	0.803400	0.130900	0.535900
C4461	C446	0.021500	0.487700	0.386800
C4471	C447	0.863100	0.182200	0.531700
C4481	C448	0.016100	0.520000	0.382000
C4491	C449	0.837770	0.921630	0.666940
C4501	C450	0.814170	0.871930	0.674430
C4511	C451	0.771370	0.855230	0.685930
C4521	C452	0.751970	0.888230	0.689930
C4531	C453	0.775570	0.937930	0.682430
C4541	C454	0.818470	0.954630	0.670930
C4551	C455	0.885470	0.940530	0.654030
C4561	C456	0.494870	0.751530	0.751670
C4571	C457	0.517870	0.724930	0.744130
C4581	C458	0.561470	0.751030	0.732930
C4591	C459	0.581970	0.803730	0.729330
C4601	C460	0.558970	0.830330	0.736830
C4611	C461	0.515370	0.804230	0.748030
C4621	C462	0.757470	0.977630	0.686730
C4631	C463	0.753070	0.503430	0.498630
C4641	C464	0.760170	0.503430	0.517530
C4651	C465	0.788670	0.550230	0.526830
C4661	C466	0.810170	0.597030	0.517330
C4671	C467	0.803070	0.597130	0.498430
C4681	C468	0.774570	0.550330	0.489030
C4691	C469	0.705770	0.957330	0.682130
C4701	C470	0.922470	0.840230	0.584230
C4711	C471	0.894670	0.788830	0.590130
C4721	C472	0.878170	0.748530	0.577530
C4731	C473	0.889570	0.759530	0.558930
C4741	C474	0.917370	0.810930	0.553030
C4751	C475	0.933870	0.851330	0.565730
C4761	C476	0.792670	0.024330	0.677630
C4771	C477	0.764270	0.990330	0.705430
C4781	C478	0.753370	0.804230	0.692330
C4791	C479	0.446370	0.720730	0.764130
C4801	C480	0.583170	0.889630	0.732230
C4811	C481	0.554370	0.909630	0.741030
C4821	C482	0.582470	0.895530	0.713230
C4831	C483	0.634770	0.916830	0.737630
C4841	C484	0.578670	0.717030	0.726730
C4851	C485	0.690770	0.725730	0.706630
C4861	C486	0.719970	0.694230	0.705530
C4871	C487	0.702870	0.647530	0.716730
C4881	C488	0.655270	0.629430	0.727030
C4891	C489	0.613570	0.641530	0.720630
C4901	C490	0.636970	0.697230	0.708830
C4911	C491	0.721770	0.452030	0.487930
C4921	C492	0.825170	0.648930	0.487230
C4931	C493	0.874370	0.690030	0.491330
C4941	C494	0.791670	0.669330	0.487730
C4951	C495	0.826670	0.637330	0.468330
C4961	C496	0.791670	0.545030	0.546030
C4971	C497	0.941770	0.886430	0.597630
C4981	C498	0.932970	0.829330	0.532630
C4991	C499	0.976670	0.824330	0.527930
C5001	C500	0.949970	0.883330	0.530730
C5011	C501	0.892370	0.803030	0.519930
C5021	C502	0.849070	0.698130	0.585430
C5031	C503	0.773870	0.568330	0.576030
C5041	C504	0.726770	0.513330	0.582930
C5051	C505	0.695270	0.512830	0.599030
C5061	C506	0.722970	0.553330	0.612430
C5071	C507	0.770570	0.606330	0.607230
C5081	C508	0.772870	0.610230	0.584530
Cl151	Cl15	0.607770	0.790030	0.677630
Cl161	Cl16	0.742770	0.662430	0.541830
Mn151	Mn15	0.656370	0.800630	0.702210
Mn161	Mn16	0.809570	0.651230	0.548510
N291	N29	0.704770	0.772030	0.698130
N301	N30	0.618770	0.731730	0.715230
N311	N31	0.782470	0.576530	0.557430
N321	N32	0.807770	0.659930	0.576530
O851	O85	0.902170	0.908030	0.648030
O861	O86	0.909070	0.992030	0.649330
O871	O87	0.707570	0.874330	0.702030
O881	O88	0.431870	0.674530	0.770630
O891	O89	0.426170	0.752530	0.765830
O901	O90	0.627870	0.833130	0.717030
O911	O91	0.696870	0.403930	0.495630
O921	O92	0.718070	0.454030	0.469430
O931	O93	0.840670	0.647430	0.526330
O941	O94	0.937070	0.879030	0.615530
O951	O95	0.961670	0.932030	0.589130
O961	O96	0.871270	0.716430	0.545730
Zn151	Zn15	0.961520	0.928600	0.633850
Zn161	Zn16	0.702940	0.404180	0.449360
C5091	C509	0.470070	0.464230	0.869230
C5101	C510	0.688170	0.821030	0.720130
C5111	C511	0.529770	0.515530	0.865030
C5121	C512	0.682770	0.853330	0.715330
C5131	C513	0.504430	0.254970	0.000280
C5141	C514	0.480830	0.205270	0.007770
C5151	C515	0.438030	0.188570	0.019270
C5161	C516	0.418630	0.221570	0.023270
C5171	C517	0.442230	0.271270	0.015770
C5181	C518	0.485130	0.287970	0.004270
C5191	C519	0.552130	0.273870	0.987370
C5201	C520	0.161530	0.084870	0.085010
C5211	C521	0.184530	0.058270	0.077470
C5221	C522	0.228130	0.084370	0.066270
C5231	C523	0.248630	0.137070	0.062670
C5241	C524	0.225630	0.163670	0.070170
C5251	C525	0.182030	0.137570	0.081370
C5261	C526	0.424130	0.310970	0.020070
C5271	C527	0.419730	0.836770	0.831970
C5281	C528	0.426830	0.836770	0.850870
C5291	C529	0.455330	0.883570	0.860170
C5301	C530	0.476830	0.930370	0.850670
C5311	C531	0.469730	0.930470	0.831770
C5321	C532	0.441230	0.883670	0.822370
C5331	C533	0.372430	0.290670	0.015470
C5341	C534	0.589130	0.173570	0.917570
C5351	C535	0.561330	0.122170	0.923470
C5361	C536	0.544830	0.081870	0.910870
C5371	C537	0.556230	0.092870	0.892270
C5381	C538	0.584030	0.144270	0.886370
C5391	C539	0.600530	0.184670	0.899070
C5401	C540	0.459330	0.357670	0.010970
C5411	C541	0.430930	0.323670	0.038770
C5421	C542	0.420030	0.137570	0.025670
C5431	C543	0.113030	0.054070	0.097470
C5441	C544	0.249830	0.222970	0.065570
C5451	C545	0.221030	0.242970	0.074370
C5461	C546	0.249130	0.228870	0.046570
C5471	C547	0.301430	0.250170	0.070970
C5481	C548	0.245330	0.050370	0.060070
C5491	C549	0.357430	0.059070	0.039970
C5501	C550	0.386630	0.027570	0.038870
C5511	C551	0.369530	0.980870	0.050070
C5521	C552	0.321930	0.962770	0.060370
C5531	C553	0.280230	0.974870	0.053970
C5541	C554	0.303630	0.030570	0.042170
C5551	C555	0.388430	0.785370	0.821270
C5561	C556	0.491830	0.982270	0.820570
C5571	C557	0.541030	0.023370	0.824670
C5581	C558	0.458330	0.002670	0.821070
C5591	C559	0.493330	0.970670	0.801670
C5601	C560	0.458330	0.878370	0.879370
C5611	C561	0.608430	0.219770	0.930970
C5621	C562	0.599630	0.162670	0.865970
C5631	C563	0.643330	0.157670	0.861270
C5641	C564	0.616630	0.216670	0.864070
C5651	C565	0.559030	0.136370	0.853270
C5661	C566	0.515730	0.031470	0.918770
C5671	C567	0.440530	0.901670	0.909370
C5681	C568	0.393430	0.846670	0.916270
C5691	C569	0.361930	0.846170	0.932370
C5701	C570	0.389630	0.886670	0.945770
C5711	C571	0.437230	0.939670	0.940570
C5721	C572	0.439530	0.943570	0.917870
Cl171	Cl17	0.274430	0.123370	0.010970
Cl181	Cl18	0.409430	0.995770	0.875170
Mn171	Mn17	0.323030	0.133970	0.035550
Mn181	Mn18	0.476230	0.984570	0.881850
N331	N33	0.371430	0.105370	0.031470
N341	N34	0.285430	0.065070	0.048570
N351	N35	0.449130	0.909870	0.890770
N361	N36	0.474430	0.993270	0.909870
O971	O97	0.568830	0.241370	0.981370
O981	O98	0.575730	0.325370	0.982670
O991	O99	0.374230	0.207670	0.035370
O1001	O100	0.098530	0.007870	0.103970
O1011	O101	0.092830	0.085870	0.099170
O1021	O102	0.294530	0.166470	0.050370
O1031	O103	0.363530	0.737270	0.828970
O1041	O104	0.384730	0.787370	0.802770
O1051	O105	0.507330	0.980770	0.859670
O1061	O106	0.603730	0.212370	0.948870
O1071	O107	0.628330	0.265370	0.922470
O1081	O108	0.537930	0.049770	0.879070
Zn171	Zn17	0.628180	0.261940	0.967190
Zn181	Zn18	0.369600	0.737520	0.782700
C5731	C573	0.136730	0.797570	0.202570
C5741	C574	0.354830	0.154370	0.053470
C5751	C575	0.196430	0.848870	0.198370
C5761	C576	0.349430	0.186670	0.048670
Zn191	Zn19	0.000000	0.000000	0.151770
O1091	O109	0.000000	0.000000	0.124900
Zn201	Zn20	0.666670	0.333330	0.485100
O1101	O110	0.666670	0.333330	0.458230
Zn211	Zn21	0.333330	0.666670	0.818440
O1111	O111	0.333330	0.666670	0.791570
Zn221	Zn22	0.333330	0.666670	0.265160
O1121	O112	0.333330	0.666670	0.290800
Zn231	Zn23	0.000000	0.000000	0.598490
O1131	O113	0.000000	0.000000	0.624130
Zn241	Zn24	0.666670	0.333330	0.931830
O1141	O114	0.666670	0.333330	0.957470
C5771	C577	0.582800	0.411700	0.666390
C5781	C578	0.608900	0.461400	0.658900
C5791	C579	0.582800	0.478100	0.647400
C5801	C580	0.530400	0.445100	0.643400
C5811	C581	0.504300	0.395400	0.650900
C5821	C582	0.530500	0.378700	0.662400
C5831	C583	0.611600	0.392800	0.679300
C5841	C584	0.410000	0.581800	0.581660
C5851	C585	0.459600	0.608400	0.589200
C5861	C586	0.477100	0.582300	0.600400
C5871	C587	0.444900	0.529600	0.604000
C5881	C588	0.395300	0.503000	0.596500
C5891	C589	0.377800	0.529100	0.585300
C5901	C590	0.446500	0.355700	0.646600
C5911	C591	0.916300	0.829900	0.834700
C5921	C592	0.923400	0.829900	0.815800
C5931	C593	0.905100	0.783100	0.806500
C5941	C594	0.879800	0.736300	0.816000
C5951	C595	0.872600	0.736200	0.834900
C5961	C596	0.890900	0.783000	0.844300
C5971	C597	0.415100	0.376000	0.651200
C5981	C598	0.748900	0.493100	0.749100
C5991	C599	0.772500	0.544500	0.743200
C6001	C600	0.796300	0.584800	0.755800
C6011	C601	0.796700	0.573800	0.774400
C6021	C602	0.773100	0.522400	0.780300
C6031	C603	0.749200	0.482000	0.767600
C6041	C604	0.435000	0.309000	0.655700
C6051	C605	0.440600	0.343000	0.627900
C6061	C606	0.615800	0.529100	0.641000
C6071	C607	0.392300	0.612600	0.569200
C6081	C608	0.360200	0.443700	0.601100
C6091	C609	0.311400	0.423700	0.592300
C6101	C610	0.353600	0.437800	0.620100
C6111	C611	0.384600	0.416500	0.595700
C6121	C612	0.528300	0.616300	0.606600
C6131	C613	0.631700	0.607600	0.626700
C6141	C614	0.692400	0.639100	0.627800
C6151	C615	0.722000	0.685800	0.616600
C6161	C616	0.692500	0.703900	0.606300
C6171	C617	0.638700	0.691800	0.612700
C6181	C618	0.606400	0.636100	0.624500
C6191	C619	0.936400	0.881300	0.845400
C6201	C620	0.842900	0.684400	0.846100
C6211	C621	0.851000	0.643300	0.842000
C6221	C622	0.789000	0.664000	0.845600
C6231	C623	0.856000	0.696000	0.865000
C6241	C624	0.913300	0.788300	0.787300
C6251	C625	0.722000	0.446900	0.735700
C6261	C626	0.770300	0.504000	0.800700
C6271	C627	0.819000	0.509000	0.805400
C6281	C628	0.733300	0.450000	0.802600
C6291	C629	0.756000	0.530300	0.813400
C6301	C630	0.817600	0.635200	0.747900
C6311	C631	0.872200	0.765000	0.757300
C6321	C632	0.880100	0.820000	0.750400
C6331	C633	0.849100	0.820500	0.734300
C6341	C634	0.836300	0.780000	0.720900
C6351	C635	0.830900	0.727000	0.726100
C6361	C636	0.829300	0.723100	0.748800
Cl191	Cl19	0.484400	0.543300	0.655700
Cl201	Cl20	0.747000	0.670900	0.791500
Mn191	Mn19	0.522400	0.532700	0.631120
Mn201	Mn20	0.825000	0.682100	0.784820
N371	N37	0.599400	0.561300	0.635200
N381	N38	0.553700	0.601600	0.618100
N391	N39	0.872600	0.756800	0.775900
N401	N40	0.814500	0.673400	0.756800
O1151	O115	0.660800	0.425300	0.685300
O1161	O116	0.583700	0.341300	0.684000
O1171	O117	0.499900	0.459000	0.631300
O1181	O118	0.424000	0.658800	0.562700
O1191	O119	0.340300	0.580800	0.567500
O1201	O120	0.461400	0.500200	0.616300
O1211	O121	0.959600	0.929400	0.837700
O1221	O122	0.930700	0.879300	0.863900
O1231	O123	0.859900	0.685900	0.807000
O1241	O124	0.724700	0.454300	0.717800
O1251	O125	0.696300	0.401300	0.744200
O1261	O126	0.821500	0.616900	0.787600
Zn251	Zn25	0.699580	0.404730	0.699480
Zn261	Zn26	0.965420	0.929150	0.883970
C6371	C637	0.672500	0.869100	0.464100
C6381	C638	0.533800	0.512300	0.613200
C6391	C639	0.680900	0.817800	0.468300
C6401	C640	0.496100	0.480000	0.618000
C6411	C641	0.249470	0.745030	0.999720
C6421	C642	0.275570	0.794730	0.992230
C6431	C643	0.249470	0.811430	0.980730
C6441	C644	0.197070	0.778430	0.976730
C6451	C645	0.170970	0.728730	0.984230
C6461	C646	0.197170	0.712030	0.995730
C6471	C647	0.278270	0.726130	0.012630
C6481	C648	0.076670	0.915130	0.914990
C6491	C649	0.126270	0.941730	0.922530
C6501	C650	0.143770	0.915630	0.933730
C6511	C651	0.111570	0.862930	0.937330
C6521	C652	0.061970	0.836330	0.929830
C6531	C653	0.044470	0.862430	0.918630
C6541	C654	0.113170	0.689030	0.979930
C6551	C655	0.582970	0.163230	0.168030
C6561	C656	0.590070	0.163230	0.149130
C6571	C657	0.571770	0.116430	0.139830
C6581	C658	0.546470	0.069630	0.149330
C6591	C659	0.539270	0.069530	0.168230
C6601	C660	0.557570	0.116330	0.177630
C6611	C661	0.081770	0.709330	0.984530
C6621	C662	0.415570	0.826430	0.082430
C6631	C663	0.439170	0.877830	0.076530
C6641	C664	0.462970	0.918130	0.089130
C6651	C665	0.463370	0.907130	0.107730
C6661	C666	0.439770	0.855730	0.113630
C6671	C667	0.415870	0.815330	0.100930
C6681	C668	0.101670	0.642330	0.989030
C6691	C669	0.107270	0.676330	0.961230
C6701	C670	0.282470	0.862430	0.974330
C6711	C671	0.058970	0.945930	0.902530
C6721	C672	0.026870	0.777030	0.934430
C6731	C673	0.978070	0.757030	0.925630
C6741	C674	0.020270	0.771130	0.953430
C6751	C675	0.051270	0.749830	0.929030
C6761	C676	0.194970	0.949630	0.939930
C6771	C677	0.298370	0.940930	0.960030
C6781	C678	0.359070	0.972430	0.961130
C6791	C679	0.388670	0.019130	0.949930
C6801	C680	0.359170	0.037230	0.939630
C6811	C681	0.305370	0.025130	0.946030
C6821	C682	0.273070	0.969430	0.957830
C6831	C683	0.603070	0.214630	0.178730
C6841	C684	0.509570	0.017730	0.179430
C6851	C685	0.517670	0.976630	0.175330
C6861	C686	0.455670	0.997330	0.178930
C6871	C687	0.522670	0.029330	0.198330
C6881	C688	0.579970	0.121630	0.120630
C6891	C689	0.388670	0.780230	0.069030
C6901	C690	0.436970	0.837330	0.134030
C6911	C691	0.485670	0.842330	0.138730
C6921	C692	0.399970	0.783330	0.135930
C6931	C693	0.422670	0.863630	0.146730
C6941	C694	0.484270	0.968530	0.081230
C6951	C695	0.538870	0.098330	0.090630
C6961	C696	0.546770	0.153330	0.083730
C6971	C697	0.515770	0.153830	0.067630
C6981	C698	0.502970	0.113330	0.054230
C6991	C699	0.497570	0.060330	0.059430
C7001	C700	0.495970	0.056430	0.082130
Cl211	Cl21	0.151070	0.876630	0.989030
Cl221	Cl22	0.413670	0.004230	0.124830
Mn211	Mn21	0.189070	0.866030	0.964450
Mn221	Mn22	0.491670	0.015430	0.118150
N411	N41	0.266070	0.894630	0.968530
N421	N42	0.220370	0.934930	0.951430
N431	N43	0.539270	0.090130	0.109230
N441	N44	0.481170	0.006730	0.090130
O1271	O127	0.327470	0.758630	0.018630
O1281	O128	0.250370	0.674630	0.017330
O1291	O129	0.166570	0.792330	0.964630
O1301	O130	0.090670	0.992130	0.896030
O1311	O131	0.006970	0.914130	0.900830
O1321	O132	0.128070	0.833530	0.949630
O1331	O133	0.626270	0.262730	0.171030
O1341	O134	0.597370	0.212630	0.197230
O1351	O135	0.526570	0.019230	0.140330
O1361	O136	0.391370	0.787630	0.051130
O1371	O137	0.362970	0.734630	0.077530
O1381	O138	0.488170	0.950230	0.120930
Zn271	Zn27	0.366250	0.738060	0.032810
Zn281	Zn28	0.632090	0.262480	0.217300
C7011	C701	0.339170	0.202430	0.797430
C7021	C702	0.200470	0.845630	0.946530
C7031	C703	0.347570	0.151130	0.801630
C7041	C704	0.162770	0.813330	0.951330
C7051	C705	0.916130	0.078370	0.333060
C7061	C706	0.942230	0.128070	0.325570
C7071	C707	0.916130	0.144770	0.314070
C7081	C708	0.863730	0.111770	0.310070
C7091	C709	0.837630	0.062070	0.317570
C7101	C710	0.863830	0.045370	0.329070
C7111	C711	0.944930	0.059470	0.345970
C7121	C712	0.743330	0.248470	0.248330
C7131	C713	0.792930	0.275070	0.255870
C7141	C714	0.810430	0.248970	0.267070
C7151	C715	0.778230	0.196270	0.270670
C7161	C716	0.728630	0.169670	0.263170
C7171	C717	0.711130	0.195770	0.251970
C7181	C718	0.779830	0.022370	0.313270
C7191	C719	0.249630	0.496570	0.501370
C7201	C720	0.256730	0.496570	0.482470
C7211	C721	0.238430	0.449770	0.473170
C7221	C722	0.213130	0.402970	0.482670
C7231	C723	0.205930	0.402870	0.501570
C7241	C724	0.224230	0.449670	0.510970
C7251	C725	0.748430	0.042670	0.317870
C7261	C726	0.082230	0.159770	0.415770
C7271	C727	0.105830	0.211170	0.409870
C7281	C728	0.129630	0.251470	0.422470
C7291	C729	0.130030	0.240470	0.441070
C7301	C730	0.106430	0.189070	0.446970
C7311	C731	0.082530	0.148670	0.434270
C7321	C732	0.768330	0.975670	0.322370
C7331	C733	0.773930	0.009670	0.294570
C7341	C734	0.949130	0.195770	0.307670
C7351	C735	0.725630	0.279270	0.235870
C7361	C736	0.693530	0.110370	0.267770
C7371	C737	0.644730	0.090370	0.258970
C7381	C738	0.686930	0.104470	0.286770
C7391	C739	0.717930	0.083170	0.262370
C7401	C740	0.861630	0.282970	0.273270
C7411	C741	0.965030	0.274270	0.293370
C7421	C742	0.025730	0.305770	0.294470
C7431	C743	0.055330	0.352470	0.283270
C7441	C744	0.025830	0.370570	0.272970
C7451	C745	0.972030	0.358470	0.279370
C7461	C746	0.939730	0.302770	0.291170
C7471	C747	0.269730	0.547970	0.512070
C7481	C748	0.176230	0.351070	0.512770
C7491	C749	0.184330	0.309970	0.508670
C7501	C750	0.122330	0.330670	0.512270
C7511	C751	0.189330	0.362670	0.531670
C7521	C752	0.246630	0.454970	0.453970
C7531	C753	0.055330	0.113570	0.402370
C7541	C754	0.103630	0.170670	0.467370
C7551	C755	0.152330	0.175670	0.472070
C7561	C756	0.066630	0.116670	0.469270
C7571	C757	0.089330	0.196970	0.480070
C7581	C758	0.150930	0.301870	0.414570
C7591	C759	0.205530	0.431670	0.423970
C7601	C760	0.213430	0.486670	0.417070
C7611	C761	0.182430	0.487170	0.400970
C7621	C762	0.169630	0.446670	0.387570
C7631	C763	0.164230	0.393670	0.392770
C7641	C764	0.162630	0.389770	0.415470
Cl231	Cl23	0.817730	0.209970	0.322370
Cl241	Cl24	0.080330	0.337570	0.458170
Mn231	Mn23	0.855730	0.199370	0.297790
Mn241	Mn24	0.158330	0.348770	0.451490
N451	N45	0.932730	0.227970	0.301870
N461	N46	0.887030	0.268270	0.284770
N471	N47	0.205930	0.423470	0.442570
N481	N48	0.147830	0.340070	0.423470
O1391	O139	0.994130	0.091970	0.351970
O1401	O140	0.917030	0.007970	0.350670
O1411	O141	0.833230	0.125670	0.297970
O1421	O142	0.757330	0.325470	0.229370
O1431	O143	0.673630	0.247470	0.234170
O1441	O144	0.794730	0.166870	0.282970
O1451	O145	0.292930	0.596070	0.504370
O1461	O146	0.264030	0.545970	0.530570
O1471	O147	0.193230	0.352570	0.473670
O1481	O148	0.058030	0.120970	0.384470
O1491	O149	0.029630	0.067970	0.410870
O1501	O150	0.154830	0.283570	0.454270
Zn291	Zn29	0.032910	0.071400	0.366150
Zn301	Zn30	0.298750	0.595820	0.550640
C7651	C765	0.005830	0.535770	0.130770
C7661	C766	0.867130	0.178970	0.279870
C7671	C767	0.014230	0.484470	0.134970
C7681	C768	0.829430	0.146670	0.284670
C7691	C769	0.828900	0.417200	0.666390
C7701	C770	0.852500	0.391100	0.658900
C7711	C771	0.895300	0.417200	0.647400
C7721	C772	0.914700	0.469600	0.643400
C7731	C773	0.891100	0.495700	0.650900
C7741	C774	0.848200	0.469500	0.662400
C7751	C775	0.781200	0.388400	0.679300
C7761	C776	0.171800	0.590000	0.581660
C7771	C777	0.148800	0.540400	0.589200
C7781	C778	0.105200	0.522900	0.600400
C7791	C779	0.084700	0.555100	0.604000
C7801	C780	0.107700	0.604700	0.596500
C7811	C781	0.151300	0.622200	0.585300
C7821	C782	0.909200	0.553500	0.646600
C7831	C783	0.913600	0.083700	0.834700
C7841	C784	0.906500	0.076600	0.815800
C7851	C785	0.878000	0.094900	0.806500
C7861	C786	0.856500	0.120200	0.816000
C7871	C787	0.863600	0.127400	0.834900
C7881	C788	0.892100	0.109100	0.844300
C7891	C789	0.960900	0.584900	0.651200
C7901	C790	0.744200	0.251100	0.749100
C7911	C791	0.772000	0.227500	0.743200
C7921	C792	0.788500	0.203700	0.755800
C7931	C793	0.777100	0.203300	0.774400
C7941	C794	0.749300	0.226900	0.780300
C7951	C795	0.732800	0.250800	0.767600
C7961	C796	0.874000	0.565000	0.655700
C7971	C797	0.902400	0.559400	0.627900
C7981	C798	0.913300	0.384200	0.641000
C7991	C799	0.220300	0.607700	0.569200
C8001	C800	0.083500	0.639800	0.601100
C8011	C801	0.112300	0.688600	0.592300
C8021	C802	0.084200	0.646400	0.620100
C8031	C803	0.031900	0.615400	0.595700
C8041	C804	0.088000	0.471700	0.606600
C8051	C805	0.975900	0.368300	0.626700
C8061	C806	0.946700	0.307600	0.627800
C8071	C807	0.963800	0.278000	0.616600
C8081	C808	0.011400	0.307500	0.606300
C8091	C809	0.053100	0.361300	0.612700
C8101	C810	0.029700	0.393600	0.624500
C8111	C811	0.944900	0.063600	0.845400
C8121	C812	0.841500	0.157100	0.846100
C8131	C813	0.792300	0.149000	0.842000
C8141	C814	0.875000	0.211000	0.845600
C8151	C815	0.840000	0.144000	0.865000
C8161	C816	0.875000	0.086700	0.787300
C8171	C817	0.724900	0.278000	0.735700
C8181	C818	0.733700	0.229700	0.800700
C8191	C819	0.690000	0.181000	0.805400
C8201	C820	0.716700	0.266700	0.802600
C8211	C821	0.774300	0.244000	0.813400
C8221	C822	0.817600	0.182400	0.747900
C8231	C823	0.892800	0.127800	0.757300
C8241	C824	0.939900	0.119900	0.750400
C8251	C825	0.971400	0.150900	0.734300
C8261	C826	0.943700	0.163700	0.720900
C8271	C827	0.896100	0.169100	0.726100
C8281	C828	0.893800	0.170700	0.748800
Cl251	Cl25	0.058900	0.515600	0.655700
Cl261	Cl26	0.923900	0.253000	0.791500
Mn251	Mn25	0.010300	0.477600	0.631120
Mn261	Mn26	0.857100	0.175000	0.784820
N491	N49	0.961900	0.400600	0.635200
N501	N50	0.047900	0.446300	0.618100
N511	N51	0.884200	0.127400	0.775900
N521	N52	0.858900	0.185500	0.756800
O1511	O151	0.764500	0.339200	0.685300
O1521	O152	0.757600	0.416300	0.684000
O1531	O153	0.959100	0.500100	0.631300
O1541	O154	0.234800	0.576000	0.562700
O1551	O155	0.240500	0.659700	0.567500
O1561	O156	0.038800	0.538600	0.616300
O1571	O157	0.969800	0.040400	0.837700
O1581	O158	0.948600	0.069300	0.863900
O1591	O159	0.826000	0.140100	0.807000
O1601	O160	0.729600	0.275300	0.717800
O1611	O161	0.705000	0.303700	0.744200
O1621	O162	0.795400	0.178500	0.787600
Zn311	Zn31	0.705150	0.300420	0.699480
Zn321	Zn32	0.963730	0.034580	0.883970
C8291	C829	0.196600	0.327500	0.464100
C8301	C830	0.978500	0.466200	0.613200
C8311	C831	0.136900	0.319100	0.468300
C8321	C832	0.983900	0.503900	0.618000
C8331	C833	0.495570	0.750530	0.999720
C8341	C834	0.519170	0.724430	0.992230
C8351	C835	0.561970	0.750530	0.980730
C8361	C836	0.581370	0.802930	0.976730
C8371	C837	0.557770	0.829030	0.984230
C8381	C838	0.514870	0.802830	0.995730
C8391	C839	0.447870	0.721730	0.012630
C8401	C840	0.838470	0.923330	0.914990
C8411	C841	0.815470	0.873730	0.922530
C8421	C842	0.771870	0.856230	0.933730
C8431	C843	0.751370	0.888430	0.937330
C8441	C844	0.774370	0.938030	0.929830
C8451	C845	0.817970	0.955530	0.918630
C8461	C846	0.575870	0.886830	0.979930
C8471	C847	0.580270	0.417030	0.168030
C8481	C848	0.573170	0.409930	0.149130
C8491	C849	0.544670	0.428230	0.139830
C8501	C850	0.523170	0.453530	0.149330
C8511	C851	0.530270	0.460730	0.168230
C8521	C852	0.558770	0.442430	0.177630
C8531	C853	0.627570	0.918230	0.984530
C8541	C854	0.410870	0.584430	0.082430
C8551	C855	0.438670	0.560830	0.076530
C8561	C856	0.455170	0.537030	0.089130
C8571	C857	0.443770	0.536630	0.107730
C8581	C858	0.415970	0.560230	0.113630
C8591	C859	0.399470	0.584130	0.100930
C8601	C860	0.540670	0.898330	0.989030
C8611	C861	0.569070	0.892730	0.961230
C8621	C862	0.579970	0.717530	0.974330
C8631	C863	0.886970	0.941030	0.902530
C8641	C864	0.750170	0.973130	0.934430
C8651	C865	0.778970	0.021930	0.925630
C8661	C866	0.750870	0.979730	0.953430
C8671	C867	0.698570	0.948730	0.929030
C8681	C868	0.754670	0.805030	0.939930
C8691	C869	0.642570	0.701630	0.960030
C8701	C870	0.613370	0.640930	0.961130
C8711	C871	0.630470	0.611330	0.949930
C8721	C872	0.678070	0.640830	0.939630
C8731	C873	0.719770	0.694630	0.946030
C8741	C874	0.696370	0.726930	0.957830
C8751	C875	0.611570	0.396930	0.178730
C8761	C876	0.508170	0.490430	0.179430
C8771	C877	0.458970	0.482330	0.175330
C8781	C878	0.541670	0.544330	0.178930
C8791	C879	0.506670	0.477330	0.198330
C8801	C880	0.541670	0.420030	0.120630
C8811	C881	0.391570	0.611330	0.069030
C8821	C882	0.400370	0.563030	0.134030
C8831	C883	0.356670	0.514330	0.138730
C8841	C884	0.383370	0.600030	0.135930
C8851	C885	0.440970	0.577330	0.146730
C8861	C886	0.484270	0.515730	0.081230
C8871	C887	0.559470	0.461130	0.090630
C8881	C888	0.606570	0.453230	0.083730
C8891	C889	0.638070	0.484230	0.067630
C8901	C890	0.610370	0.497030	0.054230
C8911	C891	0.562770	0.502430	0.059430
C8921	C892	0.560470	0.504030	0.082130
Cl271	Cl27	0.725570	0.848930	0.989030
Cl281	Cl28	0.590570	0.586330	0.124830
Mn271	Mn27	0.676970	0.810930	0.964450
Mn281	Mn28	0.523770	0.508330	0.118150
N531	N53	0.628570	0.733930	0.968530
N541	N54	0.714570	0.779630	0.951430
N551	N55	0.550870	0.460730	0.109230
N561	N56	0.525570	0.518830	0.090130
O1631	O163	0.431170	0.672530	0.018630
O1641	O164	0.424270	0.749630	0.017330
O1651	O165	0.625770	0.833430	0.964630
O1661	O166	0.901470	0.909330	0.896030
O1671	O167	0.907170	0.993030	0.900830
O1681	O168	0.705470	0.871930	0.949630
O1691	O169	0.636470	0.373730	0.171030
O1701	O170	0.615270	0.402630	0.197230
O1711	O171	0.492670	0.473430	0.140330
O1721	O172	0.396270	0.608630	0.051130
O1731	O173	0.371670	0.637030	0.077530
O1741	O174	0.462070	0.511830	0.120930
Zn331	Zn33	0.371820	0.633750	0.032810
Zn341	Zn34	0.630400	0.367910	0.217300
C8931	C893	0.863270	0.660830	0.797430
C8941	C894	0.645170	0.799530	0.946530
C8951	C895	0.803570	0.652430	0.801630
C8961	C896	0.650570	0.837230	0.951330
C8971	C897	0.162230	0.083870	0.333060
C8981	C898	0.185830	0.057770	0.325570
C8991	C899	0.228630	0.083870	0.314070
C9001	C900	0.248030	0.136270	0.310070
C9011	C901	0.224430	0.162370	0.317570
C9021	C902	0.181530	0.136170	0.329070
C9031	C903	0.114530	0.055070	0.345970
C9041	C904	0.505130	0.256670	0.248330
C9051	C905	0.482130	0.207070	0.255870
C9061	C906	0.438530	0.189570	0.267070
C9071	C907	0.418030	0.221770	0.270670
C9081	C908	0.441030	0.271370	0.263170
C9091	C909	0.484630	0.288870	0.251970
C9101	C910	0.242530	0.220170	0.313270
C9111	C911	0.246930	0.750370	0.501370
C9121	C912	0.239830	0.743270	0.482470
C9131	C913	0.211330	0.761570	0.473170
C9141	C914	0.189830	0.786870	0.482670
C9151	C915	0.196930	0.794070	0.501570
C9161	C916	0.225430	0.775770	0.510970
C9171	C917	0.294230	0.251570	0.317870
C9181	C918	0.077530	0.917770	0.415770
C9191	C919	0.105330	0.894170	0.409870
C9201	C920	0.121830	0.870370	0.422470
C9211	C921	0.110430	0.869970	0.441070
C9221	C922	0.082630	0.893570	0.446970
C9231	C923	0.066130	0.917470	0.434270
C9241	C924	0.207330	0.231670	0.322370
C9251	C925	0.235730	0.226070	0.294570
C9261	C926	0.246630	0.050870	0.307670
C9271	C927	0.553630	0.274370	0.235870
C9281	C928	0.416830	0.306470	0.267770
C9291	C929	0.445630	0.355270	0.258970
C9301	C930	0.417530	0.313070	0.286770
C9311	C931	0.365230	0.282070	0.262370
C9321	C932	0.421330	0.138370	0.273270
C9331	C933	0.309230	0.034970	0.293370
C9341	C934	0.280030	0.974270	0.294470
C9351	C935	0.297130	0.944670	0.283270
C9361	C936	0.344730	0.974170	0.272970
C9371	C937	0.386430	0.027970	0.279370
C9381	C938	0.363030	0.060270	0.291170
C9391	C939	0.278230	0.730270	0.512070
C9401	C940	0.174830	0.823770	0.512770
C9411	C941	0.125630	0.815670	0.508670
C9421	C942	0.208330	0.877670	0.512270
C9431	C943	0.173330	0.810670	0.531670
C9441	C944	0.208330	0.753370	0.453970
C9451	C945	0.058230	0.944670	0.402370
C9461	C946	0.067030	0.896370	0.467370
C9471	C947	0.023330	0.847670	0.472070
C9481	C948	0.050030	0.933370	0.469270
C9491	C949	0.107630	0.910670	0.480070
C9501	C950	0.150930	0.849070	0.414570
C9511	C951	0.226130	0.794470	0.423970
C9521	C952	0.273230	0.786570	0.417070
C9531	C953	0.304730	0.817570	0.400970
C9541	C954	0.277030	0.830370	0.387570
C9551	C955	0.229430	0.835770	0.392770
C9561	C956	0.227130	0.837370	0.415470
Cl291	Cl29	0.392230	0.182270	0.322370
Cl301	Cl30	0.257230	0.919670	0.458170
Mn291	Mn29	0.343630	0.144270	0.297790
Mn301	Mn30	0.190430	0.841670	0.451490
N571	N57	0.295230	0.067270	0.301870
N581	N58	0.381230	0.112970	0.284770
N591	N59	0.217530	0.794070	0.442570
N601	N60	0.192230	0.852170	0.423470
O1751	O175	0.097830	0.005870	0.351970
O1761	O176	0.090930	0.082970	0.350670
O1771	O177	0.292430	0.166770	0.297970
O1781	O178	0.568130	0.242670	0.229370
O1791	O179	0.573830	0.326370	0.234170
O1801	O180	0.372130	0.205270	0.282970
O1811	O181	0.303130	0.707070	0.504370
O1821	O182	0.281930	0.735970	0.530570
O1831	O183	0.159330	0.806770	0.473670
O1841	O184	0.062930	0.941970	0.384470
O1851	O185	0.038330	0.970370	0.410870
O1861	O186	0.128730	0.845170	0.454270
Zn351	Zn35	0.038480	0.967090	0.366150
Zn361	Zn36	0.297060	0.701250	0.550640
C9571	C957	0.529930	0.994170	0.130770
C9581	C958	0.311830	0.132870	0.279870
C9591	C959	0.470230	0.985770	0.134970
C9601	C960	0.317230	0.170570	0.284670
C9611	C961	0.588300	0.171100	0.666390
C9621	C962	0.538600	0.147500	0.658900
C9631	C963	0.521900	0.104700	0.647400
C9641	C964	0.554900	0.085300	0.643400
C9651	C965	0.604600	0.108900	0.650900
C9661	C966	0.621300	0.151800	0.662400
C9671	C967	0.607200	0.218800	0.679300
C9681	C968	0.418200	0.828200	0.581660
C9691	C969	0.391600	0.851200	0.589200
C9701	C970	0.417700	0.894800	0.600400
C9711	C971	0.470400	0.915300	0.604000
C9721	C972	0.497000	0.892300	0.596500
C9731	C973	0.470900	0.848700	0.585300
C9741	C974	0.644300	0.090800	0.646600
C9751	C975	0.170100	0.086400	0.834700
C9761	C976	0.170100	0.093500	0.815800
C9771	C977	0.216900	0.122000	0.806500
C9781	C978	0.263700	0.143500	0.816000
C9791	C979	0.263800	0.136400	0.834900
C9801	C980	0.217000	0.107900	0.844300
C9811	C981	0.624000	0.039100	0.651200
C9821	C982	0.506900	0.255800	0.749100
C9831	C983	0.455500	0.228000	0.743200
C9841	C984	0.415200	0.211500	0.755800
C9851	C985	0.426200	0.222900	0.774400
C9861	C986	0.477600	0.250700	0.780300
C9871	C987	0.518000	0.267200	0.767600
C9881	C988	0.691000	0.126000	0.655700
C9891	C989	0.657000	0.097600	0.627900
C9901	C990	0.470900	0.086700	0.641000
C9911	C991	0.387400	0.779700	0.569200
C9921	C992	0.556300	0.916500	0.601100
C9931	C993	0.576300	0.887700	0.592300
C9941	C994	0.562200	0.915800	0.620100
C9951	C995	0.583500	0.968100	0.595700
C9961	C996	0.383700	0.912000	0.606600
C9971	C997	0.392400	0.024100	0.626700
C9981	C998	0.360900	0.053300	0.627800
C9991	C999	0.314200	0.036200	0.616600
C10001	C1000	0.296100	0.988600	0.606300
C10011	C1001	0.308200	0.946900	0.612700
C10021	C1002	0.363900	0.970300	0.624500
C10031	C1003	0.118700	0.055100	0.845400
C10041	C1004	0.315600	0.158500	0.846100
C10051	C1005	0.356700	0.207700	0.842000
C10061	C1006	0.336000	0.125000	0.845600
C10071	C1007	0.304000	0.160000	0.865000
C10081	C1008	0.211700	0.125000	0.787300
C10091	C1009	0.553100	0.275100	0.735700
C10101	C1010	0.496000	0.266300	0.800700
C10111	C1011	0.491000	0.310000	0.805400
C10121	C1012	0.550000	0.283300	0.802600
C10131	C1013	0.469700	0.225700	0.813400
C10141	C1014	0.364800	0.182400	0.747900
C10151	C1015	0.235000	0.107200	0.757300
C10161	C1016	0.180000	0.060100	0.750400
C10171	C1017	0.179500	0.028600	0.734300
C10181	C1018	0.220000	0.056300	0.720900
C10191	C1019	0.273000	0.103900	0.726100
C10201	C1020	0.276900	0.106200	0.748800
Cl311	Cl31	0.456700	0.941100	0.655700
Cl321	Cl32	0.329100	0.076100	0.791500
Mn311	Mn31	0.467300	0.989700	0.631120
Mn321	Mn32	0.317900	0.142900	0.784820
N611	N61	0.438700	0.038100	0.635200
N621	N62	0.398400	0.952100	0.618100
N631	N63	0.243200	0.115800	0.775900
N641	N64	0.326600	0.141100	0.756800
O1871	O187	0.574700	0.235500	0.685300
O1881	O188	0.658700	0.242400	0.684000
O1891	O189	0.541000	0.040900	0.631300
O1901	O190	0.341200	0.765200	0.562700
O1911	O191	0.419200	0.759500	0.567500
O1921	O192	0.499800	0.961200	0.616300
O1931	O193	0.070600	0.030200	0.837700
O1941	O194	0.120700	0.051400	0.863900
O1951	O195	0.314100	0.174000	0.807000
O1961	O196	0.545700	0.270400	0.717800
O1971	O197	0.598700	0.295000	0.744200
O1981	O198	0.383100	0.204600	0.787600
Zn371	Zn37	0.595270	0.294850	0.699480
Zn381	Zn38	0.070850	0.036270	0.883970
C10211	C1021	0.130900	0.803400	0.464100
C10221	C1022	0.487700	0.021500	0.613200
C10231	C1023	0.182200	0.863100	0.468300
C10241	C1024	0.520000	0.016100	0.618000
C10251	C1025	0.254970	0.504430	0.999720
C10261	C1026	0.205270	0.480830	0.992230
C10271	C1027	0.188570	0.438030	0.980730
C10281	C1028	0.221570	0.418630	0.976730
C10291	C1029	0.271270	0.442230	0.984230
C10301	C1030	0.287970	0.485130	0.995730
C10311	C1031	0.273870	0.552130	0.012630
C10321	C1032	0.084870	0.161530	0.914990
C10331	C1033	0.058270	0.184530	0.922530
C10341	C1034	0.084370	0.228130	0.933730
C10351	C1035	0.137070	0.248630	0.937330
C10361	C1036	0.163670	0.225630	0.929830
C10371	C1037	0.137570	0.182030	0.918630
C10381	C1038	0.310970	0.424130	0.979930
C10391	C1039	0.836770	0.419730	0.168030
C10401	C1040	0.836770	0.426830	0.149130
C10411	C1041	0.883570	0.455330	0.139830
C10421	C1042	0.930370	0.476830	0.149330
C10431	C1043	0.930470	0.469730	0.168230
C10441	C1044	0.883670	0.441230	0.177630
C10451	C1045	0.290670	0.372430	0.984530
C10461	C1046	0.173570	0.589130	0.082430
C10471	C1047	0.122170	0.561330	0.076530
C10481	C1048	0.081870	0.544830	0.089130
C10491	C1049	0.092870	0.556230	0.107730
C10501	C1050	0.144270	0.584030	0.113630
C10511	C1051	0.184670	0.600530	0.100930
C10521	C1052	0.357670	0.459330	0.989030
C10531	C1053	0.323670	0.430930	0.961230
C10541	C1054	0.137570	0.420030	0.974330
C10551	C1055	0.054070	0.113030	0.902530
C10561	C1056	0.222970	0.249830	0.934430
C10571	C1057	0.242970	0.221030	0.925630
C10581	C1058	0.228870	0.249130	0.953430
C10591	C1059	0.250170	0.301430	0.929030
C10601	C1060	0.050370	0.245330	0.939930
C10611	C1061	0.059070	0.357430	0.960030
C10621	C1062	0.027570	0.386630	0.961130
C10631	C1063	0.980870	0.369530	0.949930
C10641	C1064	0.962770	0.321930	0.939630
C10651	C1065	0.974870	0.280230	0.946030
C10661	C1066	0.030570	0.303630	0.957830
C10671	C1067	0.785370	0.388430	0.178730
C10681	C1068	0.982270	0.491830	0.179430
C10691	C1069	0.023370	0.541030	0.175330
C10701	C1070	0.002670	0.458330	0.178930
C10711	C1071	0.970670	0.493330	0.198330
C10721	C1072	0.878370	0.458330	0.120630
C10731	C1073	0.219770	0.608430	0.069030
C10741	C1074	0.162670	0.599630	0.134030
C10751	C1075	0.157670	0.643330	0.138730
C10761	C1076	0.216670	0.616630	0.135930
C10771	C1077	0.136370	0.559030	0.146730
C10781	C1078	0.031470	0.515730	0.081230
C10791	C1079	0.901670	0.440530	0.090630
C10801	C1080	0.846670	0.393430	0.083730
C10811	C1081	0.846170	0.361930	0.067630
C10821	C1082	0.886670	0.389630	0.054230
C10831	C1083	0.939670	0.437230	0.059430
C10841	C1084	0.943570	0.439530	0.082130
Cl331	Cl33	0.123370	0.274430	0.989030
Cl341	Cl34	0.995770	0.409430	0.124830
Mn331	Mn33	0.133970	0.323030	0.964450
Mn341	Mn34	0.984570	0.476230	0.118150
N651	N65	0.105370	0.371430	0.968530
N661	N66	0.065070	0.285430	0.951430
N671	N67	0.909870	0.449130	0.109230
N681	N68	0.993270	0.474430	0.090130
O1991	O199	0.241370	0.568830	0.018630
O2001	O200	0.325370	0.575730	0.017330
O2011	O201	0.207670	0.374230	0.964630
O2021	O202	0.007870	0.098530	0.896030
O2031	O203	0.085870	0.092830	0.900830
O2041	O204	0.166470	0.294530	0.949630
O2051	O205	0.737270	0.363530	0.171030
O2061	O206	0.787370	0.384730	0.197230
O2071	O207	0.980770	0.507330	0.140330
O2081	O208	0.212370	0.603730	0.051130
O2091	O209	0.265370	0.628330	0.077530
O2101	O210	0.049770	0.537930	0.120930
Zn391	Zn39	0.261940	0.628180	0.032810
Zn401	Zn40	0.737520	0.369600	0.217300
C10851	C1085	0.797570	0.136730	0.797430
C10861	C1086	0.154370	0.354830	0.946530
C10871	C1087	0.848870	0.196430	0.801630
C10881	C1088	0.186670	0.349430	0.951330
C10891	C1089	0.921630	0.837770	0.333060
C10901	C1090	0.871930	0.814170	0.325570
C10911	C1091	0.855230	0.771370	0.314070
C10921	C1092	0.888230	0.751970	0.310070
C10931	C1093	0.937930	0.775570	0.317570
C10941	C1094	0.954630	0.818470	0.329070
C10951	C1095	0.940530	0.885470	0.345970
C10961	C1096	0.751530	0.494870	0.248330
C10971	C1097	0.724930	0.517870	0.255870
C10981	C1098	0.751030	0.561470	0.267070
C10991	C1099	0.803730	0.581970	0.270670
C11001	C1100	0.830330	0.558970	0.263170
C11011	C1101	0.804230	0.515370	0.251970
C11021	C1102	0.977630	0.757470	0.313270
C11031	C1103	0.503430	0.753070	0.501370
C11041	C1104	0.503430	0.760170	0.482470
C11051	C1105	0.550230	0.788670	0.473170
C11061	C1106	0.597030	0.810170	0.482670
C11071	C1107	0.597130	0.803070	0.501570
C11081	C1108	0.550330	0.774570	0.510970
C11091	C1109	0.957330	0.705770	0.317870
C11101	C1110	0.840230	0.922470	0.415770
C11111	C1111	0.788830	0.894670	0.409870
C11121	C1112	0.748530	0.878170	0.422470
C11131	C1113	0.759530	0.889570	0.441070
C11141	C1114	0.810930	0.917370	0.446970
C11151	C1115	0.851330	0.933870	0.434270
C11161	C1116	0.024330	0.792670	0.322370
C11171	C1117	0.990330	0.764270	0.294570
C11181	C1118	0.804230	0.753370	0.307670
C11191	C1119	0.720730	0.446370	0.235870
C11201	C1120	0.889630	0.583170	0.267770
C11211	C1121	0.909630	0.554370	0.258970
C11221	C1122	0.895530	0.582470	0.286770
C11231	C1123	0.916830	0.634770	0.262370
C11241	C1124	0.717030	0.578670	0.273270
C11251	C1125	0.725730	0.690770	0.293370
C11261	C1126	0.694230	0.719970	0.294470
C11271	C1127	0.647530	0.702870	0.283270
C11281	C1128	0.629430	0.655270	0.272970
C11291	C1129	0.641530	0.613570	0.279370
C11301	C1130	0.697230	0.636970	0.291170
C11311	C1131	0.452030	0.721770	0.512070
C11321	C1132	0.648930	0.825170	0.512770
C11331	C1133	0.690030	0.874370	0.508670
C11341	C1134	0.669330	0.791670	0.512270
C11351	C1135	0.637330	0.826670	0.531670
C11361	C1136	0.545030	0.791670	0.453970
C11371	C1137	0.886430	0.941770	0.402370
C11381	C1138	0.829330	0.932970	0.467370
C11391	C1139	0.824330	0.976670	0.472070
C11401	C1140	0.883330	0.949970	0.469270
C11411	C1141	0.803030	0.892370	0.480070
C11421	C1142	0.698130	0.849070	0.414570
C11431	C1143	0.568330	0.773870	0.423970
C11441	C1144	0.513330	0.726770	0.417070
C11451	C1145	0.512830	0.695270	0.400970
C11461	C1146	0.553330	0.722970	0.387570
C11471	C1147	0.606330	0.770570	0.392770
C11481	C1148	0.610230	0.772870	0.415470
Cl351	Cl35	0.790030	0.607770	0.322370
Cl361	Cl36	0.662430	0.742770	0.458170
Mn351	Mn35	0.800630	0.656370	0.297790
Mn361	Mn36	0.651230	0.809570	0.451490
N691	N69	0.772030	0.704770	0.301870
N701	N70	0.731730	0.618770	0.284770
N711	N71	0.576530	0.782470	0.442570
N721	N72	0.659930	0.807770	0.423470
O2111	O211	0.908030	0.902170	0.351970
O2121	O212	0.992030	0.909070	0.350670
O2131	O213	0.874330	0.707570	0.297970
O2141	O214	0.674530	0.431870	0.229370
O2151	O215	0.752530	0.426170	0.234170
O2161	O216	0.833130	0.627870	0.282970
O2171	O217	0.403930	0.696870	0.504370
O2181	O218	0.454030	0.718070	0.530570
O2191	O219	0.647430	0.840670	0.473670
O2201	O220	0.879030	0.937070	0.384470
O2211	O221	0.932030	0.961670	0.410870
O2221	O222	0.716430	0.871270	0.454270
Zn411	Zn41	0.928600	0.961520	0.366150
Zn421	Zn42	0.404180	0.702940	0.550640
C11491	C1149	0.464230	0.470070	0.130770
C11501	C1150	0.821030	0.688170	0.279870
C11511	C1151	0.515530	0.529770	0.134970
C11521	C1152	0.853330	0.682770	0.284670
Zn431	Zn43	0.000000	0.000000	0.848230
O2231	O223	0.000000	0.000000	0.875100
Zn441	Zn44	0.666670	0.333330	0.181560
O2241	O224	0.666670	0.333330	0.208430
Zn451	Zn45	0.333330	0.666670	0.514900
O2251	O225	0.333330	0.666670	0.541770
Zn461	Zn46	0.666670	0.333330	0.734840
O2261	O226	0.666670	0.333330	0.709200
Zn471	Zn47	0.333330	0.666670	0.068170
O2271	O227	0.333330	0.666670	0.042530
Zn481	Zn48	0.000000	0.000000	0.401510
O2281	O228	0.000000	0.000000	0.375870
