data_XANLEE_clean_PM
_symmetry_space_group_name_H-M	'P1'
_cell_length_a	15.772000
_cell_length_b	26.984000
_cell_length_c	19.254000
_cell_angle_alpha	90.000000
_cell_angle_beta	90.019000
_cell_angle_gamma	90.000000
_symmetry_Int_Tables_number 1

loop_
_symmetry_equiv_pos_as_xyz
'x,y,z'

loop_
_atom_site_label
_atom_site_type_symbol
_atom_site_fract_x
_atom_site_fract_y
_atom_site_fract_z
Fe11	Fe1	0.041340	0.618000	0.787460
Fe21	Fe2	0.534480	0.866680	0.206340
S11	S1	0.319310	0.937740	0.054480
S21	S2	0.764840	0.779220	0.316680
S31	S3	0.281490	0.716020	0.714090
S41	S4	0.845290	0.562650	0.961820
C11	C1	0.200200	0.679700	0.726950
C21	C2	0.902500	0.574990	0.893270
C31	C3	0.394300	0.916700	0.104400
C41	C4	0.681700	0.808420	0.288700
N11	N1	0.142340	0.654270	0.735830
N21	N2	0.943740	0.584470	0.845330
N31	N3	0.447850	0.901830	0.140480
N41	N4	0.622880	0.829380	0.268500
N51	N5	0.629830	0.871810	0.123380
N61	N6	0.999230	0.691800	0.823420
N71	N7	0.920600	0.045400	0.755910
N81	N8	0.843980	0.829490	0.940410
N91	N9	0.815760	0.914490	0.919610
N101	N10	0.912590	0.870870	0.847710
C51	C5	0.674100	0.831130	0.106610
H11	H1	0.666000	0.801900	0.133300
C61	C6	0.730900	0.829970	0.052260
H21	H2	0.760700	0.800300	0.041600
C71	C7	0.744150	0.872420	0.013430
C81	C8	0.698700	0.914870	0.031050
H31	H3	0.706500	0.944700	0.005700
C91	C9	0.642400	0.913010	0.085690
H41	H4	0.611200	0.942000	0.097100
C101	C10	0.968300	0.698820	0.887390
H51	H5	0.968200	0.671500	0.918600
C111	C11	0.936600	0.743660	0.910630
H61	H6	0.915900	0.747100	0.956700
C121	C12	0.935830	0.783360	0.865070
C131	C13	0.969400	0.776950	0.798740
H71	H7	0.971100	0.803800	0.766900
C141	C14	0.000100	0.730920	0.780110
H81	H8	0.022800	0.726700	0.734800
C151	C15	0.972200	0.006250	0.750850
H91	H9	0.021000	0.009000	0.722200
C161	C16	0.958300	0.961900	0.785040
H101	H10	0.996000	0.934800	0.779200
C171	C17	0.888100	0.957960	0.828080
C181	C18	0.834500	0.998320	0.834290
H111	H11	0.786200	0.996800	0.863700
C191	C19	0.852500	0.040690	0.797120
H121	H12	0.814700	0.068000	0.800900
C201	C20	0.805000	0.872260	0.954670
C211	C21	0.895600	0.830720	0.885810
C221	C22	0.871200	0.911800	0.867410
N111	N11	0.125620	0.613030	0.878470
N121	N12	0.497310	0.791270	0.170780
N131	N13	0.430390	0.436540	0.240340
N141	N14	0.339300	0.652570	0.060520
N151	N15	0.406830	0.612240	0.154420
N161	N16	0.316410	0.566970	0.078890
C231	C23	0.168400	0.653630	0.897780
H131	H13	0.158300	0.683800	0.873600
C241	C24	0.226300	0.653470	0.951180
H141	H14	0.255500	0.683000	0.963500
C251	C25	0.241700	0.609600	0.986950
C261	C26	0.197200	0.567550	0.967360
H151	H15	0.206000	0.536900	0.990500
C271	C27	0.139900	0.571200	0.913610
H161	H16	0.108900	0.542400	0.900800
C281	C28	0.467200	0.783020	0.107150
H171	H17	0.468800	0.809300	0.074300
C291	C29	0.433800	0.738010	0.086760
H181	H18	0.413200	0.733600	0.040800
C301	C30	0.430500	0.699500	0.134130
C311	C31	0.463600	0.707400	0.200230
H191	H19	0.464300	0.681500	0.233600
C321	C32	0.495300	0.753560	0.216150
H201	H20	0.516900	0.759000	0.261600
C331	C33	0.459400	0.480400	0.262010
H211	H21	0.495000	0.481200	0.301800
C341	C34	0.440300	0.524730	0.229680
H221	H22	0.462100	0.555100	0.247200
C351	C35	0.388800	0.524320	0.171110
C361	C36	0.357500	0.479150	0.148980
H231	H23	0.321100	0.477400	0.109700
C371	C37	0.379500	0.436710	0.184200
H241	H24	0.357600	0.406000	0.168100
C381	C38	0.302200	0.609460	0.045440
C391	C39	0.390400	0.651890	0.115470
C401	C40	0.369100	0.570440	0.133140
Fe31	Fe3	0.958660	0.118000	0.712540
Fe41	Fe4	0.465520	0.366680	0.293660
S51	S5	0.680690	0.437740	0.445520
S61	S6	0.235160	0.279220	0.183320
S71	S7	0.718510	0.216020	0.785910
S81	S8	0.154710	0.062650	0.538180
C411	C41	0.799800	0.179700	0.773050
C421	C42	0.097500	0.074990	0.606730
C431	C43	0.605700	0.416700	0.395600
C441	C44	0.318300	0.308420	0.211300
N171	N17	0.857660	0.154270	0.764170
N181	N18	0.056260	0.084470	0.654670
N191	N19	0.552150	0.401830	0.359520
N201	N20	0.377120	0.329380	0.231500
N211	N21	0.370170	0.371810	0.376620
N221	N22	0.000770	0.191800	0.676580
N231	N23	0.079400	0.545400	0.744090
N241	N24	0.156020	0.329490	0.559590
N251	N25	0.184240	0.414490	0.580390
N261	N26	0.087410	0.370870	0.652290
C451	C45	0.325900	0.331130	0.393390
H251	H25	0.334000	0.301900	0.366700
C461	C46	0.269100	0.329970	0.447740
H261	H26	0.239300	0.300300	0.458400
C471	C47	0.255850	0.372420	0.486570
C481	C48	0.301300	0.414870	0.468950
H271	H27	0.293500	0.444700	0.494300
C491	C49	0.357600	0.413010	0.414310
H281	H28	0.388800	0.442000	0.402900
C501	C50	0.031700	0.198820	0.612610
H291	H29	0.031800	0.171500	0.581400
C511	C51	0.063400	0.243660	0.589370
H301	H30	0.084100	0.247100	0.543300
C521	C52	0.064170	0.283360	0.634930
C531	C53	0.030600	0.276950	0.701260
H311	H31	0.028900	0.303800	0.733100
C541	C54	0.999900	0.230920	0.719890
H321	H32	0.977200	0.226700	0.765200
C551	C55	0.027800	0.506250	0.749150
H331	H33	0.979000	0.509000	0.777800
C561	C56	0.041700	0.461900	0.714960
H341	H34	0.004000	0.434800	0.720800
C571	C57	0.111900	0.457960	0.671920
C581	C58	0.165500	0.498320	0.665710
H351	H35	0.213800	0.496800	0.636300
C591	C59	0.147500	0.540690	0.702880
H361	H36	0.185300	0.568000	0.699100
C601	C60	0.195000	0.372260	0.545330
C611	C61	0.104400	0.330720	0.614190
C621	C62	0.128800	0.411800	0.632590
N271	N27	0.874380	0.113030	0.621530
N281	N28	0.502690	0.291270	0.329220
N291	N29	0.569610	0.936540	0.259660
N301	N30	0.660700	0.152570	0.439480
N311	N31	0.593170	0.112240	0.345580
N321	N32	0.683590	0.066970	0.421110
C631	C63	0.831600	0.153630	0.602220
H371	H37	0.841700	0.183800	0.626400
C641	C64	0.773700	0.153470	0.548820
H381	H38	0.744500	0.183000	0.536500
C651	C65	0.758300	0.109600	0.513050
C661	C66	0.802800	0.067550	0.532640
H391	H39	0.794000	0.036900	0.509500
C671	C67	0.860100	0.071200	0.586390
H401	H40	0.891100	0.042400	0.599200
C681	C68	0.532800	0.283020	0.392850
H411	H41	0.531200	0.309300	0.425700
C691	C69	0.566200	0.238010	0.413240
H421	H42	0.586800	0.233600	0.459200
C701	C70	0.569500	0.199500	0.365870
C711	C71	0.536400	0.207400	0.299770
H431	H43	0.535700	0.181500	0.266400
C721	C72	0.504700	0.253560	0.283850
H441	H44	0.483100	0.259000	0.238400
C731	C73	0.540600	0.980400	0.237990
H451	H45	0.505000	0.981200	0.198200
C741	C74	0.559700	0.024730	0.270320
H461	H46	0.537900	0.055100	0.252800
C751	C75	0.611200	0.024320	0.328890
C761	C76	0.642500	0.979150	0.351020
H471	H47	0.678900	0.977400	0.390300
C771	C77	0.620500	0.936710	0.315800
H481	H48	0.642400	0.906000	0.331900
C781	C78	0.697800	0.109460	0.454560
C791	C79	0.609600	0.151890	0.384530
C801	C80	0.630900	0.070440	0.366860
Fe51	Fe5	0.958660	0.382000	0.212540
Fe61	Fe6	0.465520	0.133320	0.793660
S91	S9	0.680690	0.062260	0.945520
S101	S10	0.235160	0.220780	0.683320
S111	S11	0.718510	0.283980	0.285910
S121	S12	0.154710	0.437350	0.038180
C811	C81	0.799800	0.320300	0.273050
C821	C82	0.097500	0.425010	0.106730
C831	C83	0.605700	0.083300	0.895600
C841	C84	0.318300	0.191580	0.711300
N331	N33	0.857660	0.345730	0.264170
N341	N34	0.056260	0.415530	0.154670
N351	N35	0.552150	0.098170	0.859520
N361	N36	0.377120	0.170620	0.731500
N371	N37	0.370170	0.128190	0.876620
N381	N38	0.000770	0.308200	0.176580
N391	N39	0.079400	0.954600	0.244090
N401	N40	0.156020	0.170510	0.059590
N411	N41	0.184240	0.085510	0.080390
N421	N42	0.087410	0.129130	0.152290
C851	C85	0.325900	0.168870	0.893390
H491	H49	0.334000	0.198100	0.866700
C861	C86	0.269100	0.170030	0.947740
H501	H50	0.239300	0.199700	0.958400
C871	C87	0.255850	0.127580	0.986570
C881	C88	0.301300	0.085130	0.968950
H511	H51	0.293500	0.055300	0.994300
C891	C89	0.357600	0.086990	0.914310
H521	H52	0.388800	0.058000	0.902900
C901	C90	0.031700	0.301180	0.112610
H531	H53	0.031800	0.328500	0.081400
C911	C91	0.063400	0.256340	0.089370
H541	H54	0.084100	0.252900	0.043300
C921	C92	0.064170	0.216640	0.134930
C931	C93	0.030600	0.223050	0.201260
H551	H55	0.028900	0.196200	0.233100
C941	C94	0.999900	0.269080	0.219890
H561	H56	0.977200	0.273300	0.265200
C951	C95	0.027800	0.993750	0.249150
H571	H57	0.979000	0.991000	0.277800
C961	C96	0.041700	0.038100	0.214960
H581	H58	0.004000	0.065200	0.220800
C971	C97	0.111900	0.042040	0.171920
C981	C98	0.165500	0.001680	0.165710
H591	H59	0.213800	0.003200	0.136300
C991	C99	0.147500	0.959310	0.202880
H601	H60	0.185300	0.932000	0.199100
C1001	C100	0.195000	0.127740	0.045330
C1011	C101	0.104400	0.169280	0.114190
C1021	C102	0.128800	0.088200	0.132590
N431	N43	0.874380	0.386970	0.121530
N441	N44	0.502690	0.208730	0.829220
N451	N45	0.569610	0.563460	0.759660
N461	N46	0.660700	0.347430	0.939480
N471	N47	0.593170	0.387760	0.845580
N481	N48	0.683590	0.433030	0.921110
C1031	C103	0.831600	0.346370	0.102220
H611	H61	0.841700	0.316200	0.126400
C1041	C104	0.773700	0.346530	0.048820
H621	H62	0.744500	0.317000	0.036500
C1051	C105	0.758300	0.390400	0.013050
C1061	C106	0.802800	0.432450	0.032640
H631	H63	0.794000	0.463100	0.009500
C1071	C107	0.860100	0.428800	0.086390
H641	H64	0.891100	0.457600	0.099200
C1081	C108	0.532800	0.216980	0.892850
H651	H65	0.531200	0.190700	0.925700
C1091	C109	0.566200	0.261990	0.913240
H661	H66	0.586800	0.266400	0.959200
C1101	C110	0.569500	0.300500	0.865870
C1111	C111	0.536400	0.292600	0.799770
H671	H67	0.535700	0.318500	0.766400
C1121	C112	0.504700	0.246440	0.783850
H681	H68	0.483100	0.241000	0.738400
C1131	C113	0.540600	0.519600	0.737990
H691	H69	0.505000	0.518800	0.698200
C1141	C114	0.559700	0.475270	0.770320
H701	H70	0.537900	0.444900	0.752800
C1151	C115	0.611200	0.475680	0.828890
C1161	C116	0.642500	0.520850	0.851020
H711	H71	0.678900	0.522600	0.890300
C1171	C117	0.620500	0.563290	0.815800
H721	H72	0.642400	0.594000	0.831900
C1181	C118	0.697800	0.390540	0.954560
C1191	C119	0.609600	0.348110	0.884530
C1201	C120	0.630900	0.429560	0.866860
Fe71	Fe7	0.041340	0.882000	0.287460
Fe81	Fe8	0.534480	0.633320	0.706340
S131	S13	0.319310	0.562260	0.554480
S141	S14	0.764840	0.720780	0.816680
S151	S15	0.281490	0.783980	0.214090
S161	S16	0.845290	0.937350	0.461820
C1211	C121	0.200200	0.820300	0.226950
C1221	C122	0.902500	0.925010	0.393270
C1231	C123	0.394300	0.583300	0.604400
C1241	C124	0.681700	0.691580	0.788700
N491	N49	0.142340	0.845730	0.235830
N501	N50	0.943740	0.915530	0.345330
N511	N51	0.447850	0.598170	0.640480
N521	N52	0.622880	0.670620	0.768500
N531	N53	0.629830	0.628190	0.623380
N541	N54	0.999230	0.808200	0.323420
N551	N55	0.920600	0.454600	0.255910
N561	N56	0.843980	0.670510	0.440410
N571	N57	0.815760	0.585510	0.419610
N581	N58	0.912590	0.629130	0.347710
C1251	C125	0.674100	0.668870	0.606610
H731	H73	0.666000	0.698100	0.633300
C1261	C126	0.730900	0.670030	0.552260
H741	H74	0.760700	0.699700	0.541600
C1271	C127	0.744150	0.627580	0.513430
C1281	C128	0.698700	0.585130	0.531050
H751	H75	0.706500	0.555300	0.505700
C1291	C129	0.642400	0.586990	0.585690
H761	H76	0.611200	0.558000	0.597100
C1301	C130	0.968300	0.801180	0.387390
H771	H77	0.968200	0.828500	0.418600
C1311	C131	0.936600	0.756340	0.410630
H781	H78	0.915900	0.752900	0.456700
C1321	C132	0.935830	0.716640	0.365070
C1331	C133	0.969400	0.723050	0.298740
H791	H79	0.971100	0.696200	0.266900
C1341	C134	0.000100	0.769080	0.280110
H801	H80	0.022800	0.773300	0.234800
C1351	C135	0.972200	0.493750	0.250850
H811	H81	0.021000	0.491000	0.222200
C1361	C136	0.958300	0.538100	0.285040
H821	H82	0.996000	0.565200	0.279200
C1371	C137	0.888100	0.542040	0.328080
C1381	C138	0.834500	0.501680	0.334290
H831	H83	0.786200	0.503200	0.363700
C1391	C139	0.852500	0.459310	0.297120
H841	H84	0.814700	0.432000	0.300900
C1401	C140	0.805000	0.627740	0.454670
C1411	C141	0.895600	0.669280	0.385810
C1421	C142	0.871200	0.588200	0.367410
N591	N59	0.125620	0.886970	0.378470
N601	N60	0.497310	0.708730	0.670780
N611	N61	0.430390	0.063460	0.740340
N621	N62	0.339300	0.847430	0.560520
N631	N63	0.406830	0.887760	0.654420
N641	N64	0.316410	0.933030	0.578890
C1431	C143	0.168400	0.846370	0.397780
H851	H85	0.158300	0.816200	0.373600
C1441	C144	0.226300	0.846530	0.451180
H861	H86	0.255500	0.817000	0.463500
C1451	C145	0.241700	0.890400	0.486950
C1461	C146	0.197200	0.932450	0.467360
H871	H87	0.206000	0.963100	0.490500
C1471	C147	0.139900	0.928800	0.413610
H881	H88	0.108900	0.957600	0.400800
C1481	C148	0.467200	0.716980	0.607150
H891	H89	0.468800	0.690700	0.574300
C1491	C149	0.433800	0.761990	0.586760
H901	H90	0.413200	0.766400	0.540800
C1501	C150	0.430500	0.800500	0.634130
C1511	C151	0.463600	0.792600	0.700230
H911	H91	0.464300	0.818500	0.733600
C1521	C152	0.495300	0.746440	0.716150
H921	H92	0.516900	0.741000	0.761600
C1531	C153	0.459400	0.019600	0.762010
H931	H93	0.495000	0.018800	0.801800
C1541	C154	0.440300	0.975270	0.729680
H941	H94	0.462100	0.944900	0.747200
C1551	C155	0.388800	0.975680	0.671110
C1561	C156	0.357500	0.020850	0.648980
H951	H95	0.321100	0.022600	0.609700
C1571	C157	0.379500	0.063290	0.684200
H961	H96	0.357600	0.094000	0.668100
C1581	C158	0.302200	0.890540	0.545440
C1591	C159	0.390400	0.848110	0.615470
C1601	C160	0.369100	0.929560	0.633140
