data_XANMIJ_clean_PM
_symmetry_space_group_name_H-M	'P1'
_cell_length_a	7.047200
_cell_length_b	13.491900
_cell_length_c	13.491900
_cell_angle_alpha	97.136400
_cell_angle_beta	98.658500
_cell_angle_gamma	98.658500
_symmetry_Int_Tables_number 1

loop_
_symmetry_equiv_pos_as_xyz
'x,y,z'

loop_
_atom_site_label
_atom_site_type_symbol
_atom_site_fract_x
_atom_site_fract_y
_atom_site_fract_z
Co11	Co1	0.000000	0.000000	0.000000
Co21	Co2	0.500000	0.000000	0.500000
Co31	Co3	0.500000	0.500000	0.000000
H11	H1	0.061400	0.002800	0.774600
H21	H2	0.581900	0.006100	0.884300
H31	H3	0.414500	0.007200	0.725400
H41	H4	0.938600	0.225400	0.997200
H51	H5	0.418100	0.115700	0.993900
H61	H6	0.585500	0.274600	0.992800
H71	H7	0.938600	0.997200	0.225400
H81	H8	0.418100	0.993900	0.115700
H91	H9	0.585500	0.992800	0.274600
H101	H10	0.061400	0.774600	0.002800
H111	H11	0.581900	0.884300	0.006100
H121	H12	0.414500	0.725400	0.007200
C11	C1	0.827700	0.002560	0.669660
C21	C2	0.928100	0.003210	0.765870
C31	C3	0.648900	0.005420	0.829960
C41	C4	0.547300	0.005610	0.733650
C51	C5	0.921300	0.000780	0.579880
C61	C6	0.172300	0.330340	0.997440
C71	C7	0.071900	0.234130	0.996790
C81	C8	0.351100	0.170040	0.994580
C91	C9	0.452700	0.266350	0.994390
C101	C10	0.078700	0.420120	0.999220
C111	C11	0.172300	0.997440	0.330340
C121	C12	0.071900	0.996790	0.234130
C131	C13	0.351100	0.994580	0.170040
C141	C14	0.452700	0.994390	0.266350
C151	C15	0.078700	0.999220	0.420120
C161	C16	0.827700	0.669660	0.002560
C171	C17	0.928100	0.765870	0.003210
C181	C18	0.648900	0.829960	0.005420
C191	C19	0.547300	0.733650	0.005610
C201	C20	0.921300	0.579880	0.000780
N11	N1	0.633800	0.003570	0.652870
N21	N2	0.839900	0.004360	0.846960
N31	N3	0.806700	0.999850	0.490810
N41	N4	0.114000	0.000200	0.591820
N51	N5	0.366200	0.347130	0.996430
N61	N6	0.160100	0.153040	0.995640
N71	N7	0.193300	0.509190	0.000150
N81	N8	0.886000	0.408180	0.999800
N91	N9	0.366200	0.996430	0.347130
N101	N10	0.160100	0.995640	0.153040
N111	N11	0.193300	0.000150	0.509190
N121	N12	0.886000	0.999800	0.408180
N131	N13	0.633800	0.652870	0.003570
N141	N14	0.839900	0.846960	0.004360
N151	N15	0.806700	0.490810	0.999850
N161	N16	0.114000	0.591820	0.000200
Cl11	Cl1	0.604300	0.176520	0.524680
Cl21	Cl2	0.395700	0.475320	0.823480
Cl31	Cl3	0.395700	0.823480	0.475320
Cl41	Cl4	0.604300	0.524680	0.176520
Cl51	Cl5	0.764220	0.076880	0.076880
Cl61	Cl6	0.235780	0.923120	0.923120
