data_XANNAB_clean_PM
_symmetry_space_group_name_H-M	'P1'
_cell_length_a	19.086000
_cell_length_b	19.060000
_cell_length_c	25.904200
_cell_angle_alpha	90.000000
_cell_angle_beta	90.000000
_cell_angle_gamma	90.000000
_symmetry_Int_Tables_number 1

loop_
_symmetry_equiv_pos_as_xyz
'x,y,z'

loop_
_atom_site_label
_atom_site_type_symbol
_atom_site_fract_x
_atom_site_fract_y
_atom_site_fract_z
Ag11	Ag1	0.602620	0.384740	0.383790
Ag21	Ag2	0.634770	0.147410	0.366250
S11	S1	0.703420	0.415300	0.447360
S21	S2	0.676710	0.270780	0.389790
S31	S3	0.699860	0.125540	0.453190
S41	S4	0.334690	0.453560	0.302600
S51	S5	0.479230	0.426790	0.360300
S61	S6	0.624500	0.449870	0.296800
C11	C1	0.731000	0.335300	0.476500
C21	C2	0.715700	0.271000	0.452400
C31	C3	0.732500	0.207100	0.475800
C41	C4	0.656600	0.460400	0.496900
C51	C5	0.661000	0.533600	0.496500
C61	C6	0.621300	0.569800	0.531100
C71	C7	0.582200	0.538200	0.566700
C81	C8	0.575600	0.464900	0.568000
C91	C9	0.614800	0.426300	0.531700
C101	C10	0.748100	0.295600	0.348400
C111	C11	0.813600	0.311400	0.365700
C121	C12	0.863100	0.333300	0.328200
C131	C13	0.843300	0.335300	0.277000
C141	C14	0.779700	0.317400	0.261300
C151	C15	0.729200	0.296600	0.295900
C161	C16	0.772900	0.081500	0.426200
C171	C17	0.827400	0.115000	0.401600
C181	C18	0.880200	0.075200	0.378100
C191	C19	0.874400	0.002100	0.378400
C201	C20	0.820500	0.970300	0.403000
C211	C21	0.768500	0.008600	0.426700
C221	C22	0.415000	0.481300	0.273700
C231	C23	0.478600	0.465500	0.297200
C241	C24	0.289300	0.593900	0.246700
C251	C25	0.216700	0.589300	0.246700
C261	C26	0.180400	0.628000	0.281600
C271	C27	0.211100	0.667700	0.315900
C281	C28	0.285200	0.674500	0.317100
C291	C29	0.323800	0.635800	0.281500
C301	C30	0.454500	0.497700	0.401800
C311	C31	0.453000	0.479300	0.454000
C321	C32	0.431800	0.531100	0.488100
C331	C33	0.415400	0.594500	0.473000
C341	C34	0.417900	0.611800	0.419800
C351	C35	0.439300	0.563900	0.384500
C361	C36	0.543200	0.482700	0.274500
C371	C37	0.668500	0.522300	0.323200
C381	C38	0.741100	0.519200	0.323900
C391	C39	0.780700	0.570600	0.347400
C401	C40	0.748200	0.624900	0.371500
C411	C41	0.676100	0.629600	0.372800
C421	C42	0.635200	0.577100	0.348100
H11	H1	0.691300	0.557400	0.472700
H21	H2	0.621600	0.619800	0.529500
H31	H3	0.557700	0.565900	0.591300
H41	H4	0.546100	0.441400	0.592500
H51	H5	0.610900	0.376400	0.531000
H61	H6	0.826200	0.306900	0.402100
H71	H7	0.909000	0.346600	0.338000
H81	H8	0.876500	0.349800	0.251900
H91	H9	0.768000	0.319900	0.225300
H101	H10	0.683500	0.283500	0.284900
H111	H11	0.828900	0.165600	0.401400
H121	H12	0.919900	0.099300	0.361200
H131	H13	0.910500	0.975400	0.360900
H141	H14	0.819100	0.920100	0.404000
H151	H15	0.729000	0.985300	0.443400
H161	H16	0.192800	0.558800	0.222900
H171	H17	0.130800	0.627100	0.281000
H181	H18	0.183100	0.692500	0.339900
H191	H19	0.308400	0.704200	0.341700
H201	H20	0.373800	0.638600	0.281200
H211	H21	0.466400	0.433400	0.465400
H221	H22	0.427700	0.519200	0.524100
H231	H23	0.402200	0.628900	0.497800
H241	H24	0.405700	0.657900	0.408500
H251	H25	0.444500	0.576300	0.348200
H261	H26	0.764800	0.479700	0.307400
H271	H27	0.830600	0.567600	0.346400
H281	H28	0.775300	0.661900	0.387800
H291	H29	0.653000	0.668500	0.391200
H301	H30	0.584900	0.579900	0.347900
Ag31	Ag3	0.102620	0.884740	0.883790
Ag41	Ag4	0.134770	0.647410	0.866250
S71	S7	0.203420	0.915300	0.947360
S81	S8	0.176710	0.770780	0.889790
S91	S9	0.199860	0.625540	0.953190
S101	S10	0.834690	0.953560	0.802600
S111	S11	0.979230	0.926790	0.860300
S121	S12	0.124500	0.949870	0.796800
C431	C43	0.231000	0.835300	0.976500
C441	C44	0.215700	0.771000	0.952400
C451	C45	0.232500	0.707100	0.975800
C461	C46	0.156600	0.960400	0.996900
C471	C47	0.161000	0.033600	0.996500
C481	C48	0.121300	0.069800	0.031100
C491	C49	0.082200	0.038200	0.066700
C501	C50	0.075600	0.964900	0.068000
C511	C51	0.114800	0.926300	0.031700
C521	C52	0.248100	0.795600	0.848400
C531	C53	0.313600	0.811400	0.865700
C541	C54	0.363100	0.833300	0.828200
C551	C55	0.343300	0.835300	0.777000
C561	C56	0.279700	0.817400	0.761300
C571	C57	0.229200	0.796600	0.795900
C581	C58	0.272900	0.581500	0.926200
C591	C59	0.327400	0.615000	0.901600
C601	C60	0.380200	0.575200	0.878100
C611	C61	0.374400	0.502100	0.878400
C621	C62	0.320500	0.470300	0.903000
C631	C63	0.268500	0.508600	0.926700
C641	C64	0.915000	0.981300	0.773700
C651	C65	0.978600	0.965500	0.797200
C661	C66	0.789300	0.093900	0.746700
C671	C67	0.716700	0.089300	0.746700
C681	C68	0.680400	0.128000	0.781600
C691	C69	0.711100	0.167700	0.815900
C701	C70	0.785200	0.174500	0.817100
C711	C71	0.823800	0.135800	0.781500
C721	C72	0.954500	0.997700	0.901800
C731	C73	0.953000	0.979300	0.954000
C741	C74	0.931800	0.031100	0.988100
C751	C75	0.915400	0.094500	0.973000
C761	C76	0.917900	0.111800	0.919800
C771	C77	0.939300	0.063900	0.884500
C781	C78	0.043200	0.982700	0.774500
C791	C79	0.168500	0.022300	0.823200
C801	C80	0.241100	0.019200	0.823900
C811	C81	0.280700	0.070600	0.847400
C821	C82	0.248200	0.124900	0.871500
C831	C83	0.176100	0.129600	0.872800
C841	C84	0.135200	0.077100	0.848100
H311	H31	0.191300	0.057400	0.972700
H321	H32	0.121600	0.119800	0.029500
H331	H33	0.057700	0.065900	0.091300
H341	H34	0.046100	0.941400	0.092500
H351	H35	0.110900	0.876400	0.031000
H361	H36	0.326200	0.806900	0.902100
H371	H37	0.409000	0.846600	0.838000
H381	H38	0.376500	0.849800	0.751900
H391	H39	0.268000	0.819900	0.725300
H401	H40	0.183500	0.783500	0.784900
H411	H41	0.328900	0.665600	0.901400
H421	H42	0.419900	0.599300	0.861200
H431	H43	0.410500	0.475400	0.860900
H441	H44	0.319100	0.420100	0.904000
H451	H45	0.229000	0.485300	0.943400
H461	H46	0.692800	0.058800	0.722900
H471	H47	0.630800	0.127100	0.781000
H481	H48	0.683100	0.192500	0.839900
H491	H49	0.808400	0.204200	0.841700
H501	H50	0.873800	0.138600	0.781200
H511	H51	0.966400	0.933400	0.965400
H521	H52	0.927700	0.019200	0.024100
H531	H53	0.902200	0.128900	0.997800
H541	H54	0.905700	0.157900	0.908500
H551	H55	0.944500	0.076300	0.848200
H561	H56	0.264800	0.979700	0.807400
H571	H57	0.330600	0.067600	0.846400
H581	H58	0.275300	0.161900	0.887800
H591	H59	0.153000	0.168500	0.891200
H601	H60	0.084900	0.079900	0.847900
Ag51	Ag5	0.897380	0.615260	0.883790
Ag61	Ag6	0.865230	0.852590	0.866250
S131	S13	0.796580	0.584700	0.947360
S141	S14	0.823290	0.729220	0.889790
S151	S15	0.800140	0.874460	0.953190
S161	S16	0.165310	0.546440	0.802600
S171	S17	0.020770	0.573210	0.860300
S181	S18	0.875500	0.550130	0.796800
C851	C85	0.769000	0.664700	0.976500
C861	C86	0.784300	0.729000	0.952400
C871	C87	0.767500	0.792900	0.975800
C881	C88	0.843400	0.539600	0.996900
C891	C89	0.839000	0.466400	0.996500
C901	C90	0.878700	0.430200	0.031100
C911	C91	0.917800	0.461800	0.066700
C921	C92	0.924400	0.535100	0.068000
C931	C93	0.885200	0.573700	0.031700
C941	C94	0.751900	0.704400	0.848400
C951	C95	0.686400	0.688600	0.865700
C961	C96	0.636900	0.666700	0.828200
C971	C97	0.656700	0.664700	0.777000
C981	C98	0.720300	0.682600	0.761300
C991	C99	0.770800	0.703400	0.795900
C1001	C100	0.727100	0.918500	0.926200
C1011	C101	0.672600	0.885000	0.901600
C1021	C102	0.619800	0.924800	0.878100
C1031	C103	0.625600	0.997900	0.878400
C1041	C104	0.679500	0.029700	0.903000
C1051	C105	0.731500	0.991400	0.926700
C1061	C106	0.085000	0.518700	0.773700
C1071	C107	0.021400	0.534500	0.797200
C1081	C108	0.210700	0.406100	0.746700
C1091	C109	0.283300	0.410700	0.746700
C1101	C110	0.319600	0.372000	0.781600
C1111	C111	0.288900	0.332300	0.815900
C1121	C112	0.214800	0.325500	0.817100
C1131	C113	0.176200	0.364200	0.781500
C1141	C114	0.045500	0.502300	0.901800
C1151	C115	0.047000	0.520700	0.954000
C1161	C116	0.068200	0.468900	0.988100
C1171	C117	0.084600	0.405500	0.973000
C1181	C118	0.082100	0.388200	0.919800
C1191	C119	0.060700	0.436100	0.884500
C1201	C120	0.956800	0.517300	0.774500
C1211	C121	0.831500	0.477700	0.823200
C1221	C122	0.758900	0.480800	0.823900
C1231	C123	0.719300	0.429400	0.847400
C1241	C124	0.751800	0.375100	0.871500
C1251	C125	0.823900	0.370400	0.872800
C1261	C126	0.864800	0.422900	0.848100
H611	H61	0.808700	0.442600	0.972700
H621	H62	0.878400	0.380200	0.029500
H631	H63	0.942300	0.434100	0.091300
H641	H64	0.953900	0.558600	0.092500
H651	H65	0.889100	0.623600	0.031000
H661	H66	0.673800	0.693100	0.902100
H671	H67	0.591000	0.653400	0.838000
H681	H68	0.623500	0.650200	0.751900
H691	H69	0.732000	0.680100	0.725300
H701	H70	0.816500	0.716500	0.784900
H711	H71	0.671100	0.834400	0.901400
H721	H72	0.580100	0.900700	0.861200
H731	H73	0.589500	0.024600	0.860900
H741	H74	0.680900	0.079900	0.904000
H751	H75	0.771000	0.014700	0.943400
H761	H76	0.307200	0.441200	0.722900
H771	H77	0.369200	0.372900	0.781000
H781	H78	0.316900	0.307500	0.839900
H791	H79	0.191600	0.295800	0.841700
H801	H80	0.126200	0.361400	0.781200
H811	H81	0.033600	0.566600	0.965400
H821	H82	0.072300	0.480800	0.024100
H831	H83	0.097800	0.371100	0.997800
H841	H84	0.094300	0.342100	0.908500
H851	H85	0.055500	0.423700	0.848200
H861	H86	0.735200	0.520300	0.807400
H871	H87	0.669400	0.432400	0.846400
H881	H88	0.724700	0.338100	0.887800
H891	H89	0.847000	0.331500	0.891200
H901	H90	0.915100	0.420100	0.847900
Ag71	Ag7	0.397380	0.115260	0.383790
Ag81	Ag8	0.365230	0.352590	0.366250
S191	S19	0.296580	0.084700	0.447360
S201	S20	0.323290	0.229220	0.389790
S211	S21	0.300140	0.374460	0.453190
S221	S22	0.665310	0.046440	0.302600
S231	S23	0.520770	0.073210	0.360300
S241	S24	0.375500	0.050130	0.296800
C1271	C127	0.269000	0.164700	0.476500
C1281	C128	0.284300	0.229000	0.452400
C1291	C129	0.267500	0.292900	0.475800
C1301	C130	0.343400	0.039600	0.496900
C1311	C131	0.339000	0.966400	0.496500
C1321	C132	0.378700	0.930200	0.531100
C1331	C133	0.417800	0.961800	0.566700
C1341	C134	0.424400	0.035100	0.568000
C1351	C135	0.385200	0.073700	0.531700
C1361	C136	0.251900	0.204400	0.348400
C1371	C137	0.186400	0.188600	0.365700
C1381	C138	0.136900	0.166700	0.328200
C1391	C139	0.156700	0.164700	0.277000
C1401	C140	0.220300	0.182600	0.261300
C1411	C141	0.270800	0.203400	0.295900
C1421	C142	0.227100	0.418500	0.426200
C1431	C143	0.172600	0.385000	0.401600
C1441	C144	0.119800	0.424800	0.378100
C1451	C145	0.125600	0.497900	0.378400
C1461	C146	0.179500	0.529700	0.403000
C1471	C147	0.231500	0.491400	0.426700
C1481	C148	0.585000	0.018700	0.273700
C1491	C149	0.521400	0.034500	0.297200
C1501	C150	0.710700	0.906100	0.246700
C1511	C151	0.783300	0.910700	0.246700
C1521	C152	0.819600	0.872000	0.281600
C1531	C153	0.788900	0.832300	0.315900
C1541	C154	0.714800	0.825500	0.317100
C1551	C155	0.676200	0.864200	0.281500
C1561	C156	0.545500	0.002300	0.401800
C1571	C157	0.547000	0.020700	0.454000
C1581	C158	0.568200	0.968900	0.488100
C1591	C159	0.584600	0.905500	0.473000
C1601	C160	0.582100	0.888200	0.419800
C1611	C161	0.560700	0.936100	0.384500
C1621	C162	0.456800	0.017300	0.274500
C1631	C163	0.331500	0.977700	0.323200
C1641	C164	0.258900	0.980800	0.323900
C1651	C165	0.219300	0.929400	0.347400
C1661	C166	0.251800	0.875100	0.371500
C1671	C167	0.323900	0.870400	0.372800
C1681	C168	0.364800	0.922900	0.348100
H911	H91	0.308700	0.942600	0.472700
H921	H92	0.378400	0.880200	0.529500
H931	H93	0.442300	0.934100	0.591300
H941	H94	0.453900	0.058600	0.592500
H951	H95	0.389100	0.123600	0.531000
H961	H96	0.173800	0.193100	0.402100
H971	H97	0.091000	0.153400	0.338000
H981	H98	0.123500	0.150200	0.251900
H991	H99	0.232000	0.180100	0.225300
H1001	H100	0.316500	0.216500	0.284900
H1011	H101	0.171100	0.334400	0.401400
H1021	H102	0.080100	0.400700	0.361200
H1031	H103	0.089500	0.524600	0.360900
H1041	H104	0.180900	0.579900	0.404000
H1051	H105	0.271000	0.514700	0.443400
H1061	H106	0.807200	0.941200	0.222900
H1071	H107	0.869200	0.872900	0.281000
H1081	H108	0.816900	0.807500	0.339900
H1091	H109	0.691600	0.795800	0.341700
H1101	H110	0.626200	0.861400	0.281200
H1111	H111	0.533600	0.066600	0.465400
H1121	H112	0.572300	0.980800	0.524100
H1131	H113	0.597800	0.871100	0.497800
H1141	H114	0.594300	0.842100	0.408500
H1151	H115	0.555500	0.923700	0.348200
H1161	H116	0.235200	0.020300	0.307400
H1171	H117	0.169400	0.932400	0.346400
H1181	H118	0.224700	0.838100	0.387800
H1191	H119	0.347000	0.831500	0.391200
H1201	H120	0.415100	0.920100	0.347900
Ag91	Ag9	0.397380	0.884740	0.116210
Ag101	Ag10	0.365230	0.647410	0.133750
S251	S25	0.296580	0.915300	0.052640
S261	S26	0.323290	0.770780	0.110210
S271	S27	0.300140	0.625540	0.046810
S281	S28	0.665310	0.953560	0.197400
S291	S29	0.520770	0.926790	0.139700
S301	S30	0.375500	0.949870	0.203200
C1691	C169	0.269000	0.835300	0.023500
C1701	C170	0.284300	0.771000	0.047600
C1711	C171	0.267500	0.707100	0.024200
C1721	C172	0.343400	0.960400	0.003100
C1731	C173	0.339000	0.033600	0.003500
C1741	C174	0.378700	0.069800	0.968900
C1751	C175	0.417800	0.038200	0.933300
C1761	C176	0.424400	0.964900	0.932000
C1771	C177	0.385200	0.926300	0.968300
C1781	C178	0.251900	0.795600	0.151600
C1791	C179	0.186400	0.811400	0.134300
C1801	C180	0.136900	0.833300	0.171800
C1811	C181	0.156700	0.835300	0.223000
C1821	C182	0.220300	0.817400	0.238700
C1831	C183	0.270800	0.796600	0.204100
C1841	C184	0.227100	0.581500	0.073800
C1851	C185	0.172600	0.615000	0.098400
C1861	C186	0.119800	0.575200	0.121900
C1871	C187	0.125600	0.502100	0.121600
C1881	C188	0.179500	0.470300	0.097000
C1891	C189	0.231500	0.508600	0.073300
C1901	C190	0.585000	0.981300	0.226300
C1911	C191	0.521400	0.965500	0.202800
C1921	C192	0.710700	0.093900	0.253300
C1931	C193	0.783300	0.089300	0.253300
C1941	C194	0.819600	0.128000	0.218400
C1951	C195	0.788900	0.167700	0.184100
C1961	C196	0.714800	0.174500	0.182900
C1971	C197	0.676200	0.135800	0.218500
C1981	C198	0.545500	0.997700	0.098200
C1991	C199	0.547000	0.979300	0.046000
C2001	C200	0.568200	0.031100	0.011900
C2011	C201	0.584600	0.094500	0.027000
C2021	C202	0.582100	0.111800	0.080200
C2031	C203	0.560700	0.063900	0.115500
C2041	C204	0.456800	0.982700	0.225500
C2051	C205	0.331500	0.022300	0.176800
C2061	C206	0.258900	0.019200	0.176100
C2071	C207	0.219300	0.070600	0.152600
C2081	C208	0.251800	0.124900	0.128500
C2091	C209	0.323900	0.129600	0.127200
C2101	C210	0.364800	0.077100	0.151900
H1211	H121	0.308700	0.057400	0.027300
H1221	H122	0.378400	0.119800	0.970500
H1231	H123	0.442300	0.065900	0.908700
H1241	H124	0.453900	0.941400	0.907500
H1251	H125	0.389100	0.876400	0.969000
H1261	H126	0.173800	0.806900	0.097900
H1271	H127	0.091000	0.846600	0.162000
H1281	H128	0.123500	0.849800	0.248100
H1291	H129	0.232000	0.819900	0.274700
H1301	H130	0.316500	0.783500	0.215100
H1311	H131	0.171100	0.665600	0.098600
H1321	H132	0.080100	0.599300	0.138800
H1331	H133	0.089500	0.475400	0.139100
H1341	H134	0.180900	0.420100	0.096000
H1351	H135	0.271000	0.485300	0.056600
H1361	H136	0.807200	0.058800	0.277100
H1371	H137	0.869200	0.127100	0.219000
H1381	H138	0.816900	0.192500	0.160100
H1391	H139	0.691600	0.204200	0.158300
H1401	H140	0.626200	0.138600	0.218800
H1411	H141	0.533600	0.933400	0.034600
H1421	H142	0.572300	0.019200	0.975900
H1431	H143	0.597800	0.128900	0.002200
H1441	H144	0.594300	0.157900	0.091500
H1451	H145	0.555500	0.076300	0.151800
H1461	H146	0.235200	0.979700	0.192600
H1471	H147	0.169400	0.067600	0.153600
H1481	H148	0.224700	0.161900	0.112200
H1491	H149	0.347000	0.168500	0.108800
H1501	H150	0.415100	0.079900	0.152100
Ag111	Ag11	0.897380	0.384740	0.616210
Ag121	Ag12	0.865230	0.147410	0.633750
S311	S31	0.796580	0.415300	0.552640
S321	S32	0.823290	0.270780	0.610210
S331	S33	0.800140	0.125540	0.546810
S341	S34	0.165310	0.453560	0.697400
S351	S35	0.020770	0.426790	0.639700
S361	S36	0.875500	0.449870	0.703200
C2111	C211	0.769000	0.335300	0.523500
C2121	C212	0.784300	0.271000	0.547600
C2131	C213	0.767500	0.207100	0.524200
C2141	C214	0.843400	0.460400	0.503100
C2151	C215	0.839000	0.533600	0.503500
C2161	C216	0.878700	0.569800	0.468900
C2171	C217	0.917800	0.538200	0.433300
C2181	C218	0.924400	0.464900	0.432000
C2191	C219	0.885200	0.426300	0.468300
C2201	C220	0.751900	0.295600	0.651600
C2211	C221	0.686400	0.311400	0.634300
C2221	C222	0.636900	0.333300	0.671800
C2231	C223	0.656700	0.335300	0.723000
C2241	C224	0.720300	0.317400	0.738700
C2251	C225	0.770800	0.296600	0.704100
C2261	C226	0.727100	0.081500	0.573800
C2271	C227	0.672600	0.115000	0.598400
C2281	C228	0.619800	0.075200	0.621900
C2291	C229	0.625600	0.002100	0.621600
C2301	C230	0.679500	0.970300	0.597000
C2311	C231	0.731500	0.008600	0.573300
C2321	C232	0.085000	0.481300	0.726300
C2331	C233	0.021400	0.465500	0.702800
C2341	C234	0.210700	0.593900	0.753300
C2351	C235	0.283300	0.589300	0.753300
C2361	C236	0.319600	0.628000	0.718400
C2371	C237	0.288900	0.667700	0.684100
C2381	C238	0.214800	0.674500	0.682900
C2391	C239	0.176200	0.635800	0.718500
C2401	C240	0.045500	0.497700	0.598200
C2411	C241	0.047000	0.479300	0.546000
C2421	C242	0.068200	0.531100	0.511900
C2431	C243	0.084600	0.594500	0.527000
C2441	C244	0.082100	0.611800	0.580200
C2451	C245	0.060700	0.563900	0.615500
C2461	C246	0.956800	0.482700	0.725500
C2471	C247	0.831500	0.522300	0.676800
C2481	C248	0.758900	0.519200	0.676100
C2491	C249	0.719300	0.570600	0.652600
C2501	C250	0.751800	0.624900	0.628500
C2511	C251	0.823900	0.629600	0.627200
C2521	C252	0.864800	0.577100	0.651900
H1511	H151	0.808700	0.557400	0.527300
H1521	H152	0.878400	0.619800	0.470500
H1531	H153	0.942300	0.565900	0.408700
H1541	H154	0.953900	0.441400	0.407500
H1551	H155	0.889100	0.376400	0.469000
H1561	H156	0.673800	0.306900	0.597900
H1571	H157	0.591000	0.346600	0.662000
H1581	H158	0.623500	0.349800	0.748100
H1591	H159	0.732000	0.319900	0.774700
H1601	H160	0.816500	0.283500	0.715100
H1611	H161	0.671100	0.165600	0.598600
H1621	H162	0.580100	0.099300	0.638800
H1631	H163	0.589500	0.975400	0.639100
H1641	H164	0.680900	0.920100	0.596000
H1651	H165	0.771000	0.985300	0.556600
H1661	H166	0.307200	0.558800	0.777100
H1671	H167	0.369200	0.627100	0.719000
H1681	H168	0.316900	0.692500	0.660100
H1691	H169	0.191600	0.704200	0.658300
H1701	H170	0.126200	0.638600	0.718800
H1711	H171	0.033600	0.433400	0.534600
H1721	H172	0.072300	0.519200	0.475900
H1731	H173	0.097800	0.628900	0.502200
H1741	H174	0.094300	0.657900	0.591500
H1751	H175	0.055500	0.576300	0.651800
H1761	H176	0.735200	0.479700	0.692600
H1771	H177	0.669400	0.567600	0.653600
H1781	H178	0.724700	0.661900	0.612200
H1791	H179	0.847000	0.668500	0.608800
H1801	H180	0.915100	0.579900	0.652100
Ag131	Ag13	0.102620	0.115260	0.616210
Ag141	Ag14	0.134770	0.352590	0.633750
S371	S37	0.203420	0.084700	0.552640
S381	S38	0.176710	0.229220	0.610210
S391	S39	0.199860	0.374460	0.546810
S401	S40	0.834690	0.046440	0.697400
S411	S41	0.979230	0.073210	0.639700
S421	S42	0.124500	0.050130	0.703200
C2531	C253	0.231000	0.164700	0.523500
C2541	C254	0.215700	0.229000	0.547600
C2551	C255	0.232500	0.292900	0.524200
C2561	C256	0.156600	0.039600	0.503100
C2571	C257	0.161000	0.966400	0.503500
C2581	C258	0.121300	0.930200	0.468900
C2591	C259	0.082200	0.961800	0.433300
C2601	C260	0.075600	0.035100	0.432000
C2611	C261	0.114800	0.073700	0.468300
C2621	C262	0.248100	0.204400	0.651600
C2631	C263	0.313600	0.188600	0.634300
C2641	C264	0.363100	0.166700	0.671800
C2651	C265	0.343300	0.164700	0.723000
C2661	C266	0.279700	0.182600	0.738700
C2671	C267	0.229200	0.203400	0.704100
C2681	C268	0.272900	0.418500	0.573800
C2691	C269	0.327400	0.385000	0.598400
C2701	C270	0.380200	0.424800	0.621900
C2711	C271	0.374400	0.497900	0.621600
C2721	C272	0.320500	0.529700	0.597000
C2731	C273	0.268500	0.491400	0.573300
C2741	C274	0.915000	0.018700	0.726300
C2751	C275	0.978600	0.034500	0.702800
C2761	C276	0.789300	0.906100	0.753300
C2771	C277	0.716700	0.910700	0.753300
C2781	C278	0.680400	0.872000	0.718400
C2791	C279	0.711100	0.832300	0.684100
C2801	C280	0.785200	0.825500	0.682900
C2811	C281	0.823800	0.864200	0.718500
C2821	C282	0.954500	0.002300	0.598200
C2831	C283	0.953000	0.020700	0.546000
C2841	C284	0.931800	0.968900	0.511900
C2851	C285	0.915400	0.905500	0.527000
C2861	C286	0.917900	0.888200	0.580200
C2871	C287	0.939300	0.936100	0.615500
C2881	C288	0.043200	0.017300	0.725500
C2891	C289	0.168500	0.977700	0.676800
C2901	C290	0.241100	0.980800	0.676100
C2911	C291	0.280700	0.929400	0.652600
C2921	C292	0.248200	0.875100	0.628500
C2931	C293	0.176100	0.870400	0.627200
C2941	C294	0.135200	0.922900	0.651900
H1811	H181	0.191300	0.942600	0.527300
H1821	H182	0.121600	0.880200	0.470500
H1831	H183	0.057700	0.934100	0.408700
H1841	H184	0.046100	0.058600	0.407500
H1851	H185	0.110900	0.123600	0.469000
H1861	H186	0.326200	0.193100	0.597900
H1871	H187	0.409000	0.153400	0.662000
H1881	H188	0.376500	0.150200	0.748100
H1891	H189	0.268000	0.180100	0.774700
H1901	H190	0.183500	0.216500	0.715100
H1911	H191	0.328900	0.334400	0.598600
H1921	H192	0.419900	0.400700	0.638800
H1931	H193	0.410500	0.524600	0.639100
H1941	H194	0.319100	0.579900	0.596000
H1951	H195	0.229000	0.514700	0.556600
H1961	H196	0.692800	0.941200	0.777100
H1971	H197	0.630800	0.872900	0.719000
H1981	H198	0.683100	0.807500	0.660100
H1991	H199	0.808400	0.795800	0.658300
H2001	H200	0.873800	0.861400	0.718800
H2011	H201	0.966400	0.066600	0.534600
H2021	H202	0.927700	0.980800	0.475900
H2031	H203	0.902200	0.871100	0.502200
H2041	H204	0.905700	0.842100	0.591500
H2051	H205	0.944500	0.923700	0.651800
H2061	H206	0.264800	0.020300	0.692600
H2071	H207	0.330600	0.932400	0.653600
H2081	H208	0.275300	0.838100	0.612200
H2091	H209	0.153000	0.831500	0.608800
H2101	H210	0.084900	0.920100	0.652100
Ag151	Ag15	0.602620	0.615260	0.116210
Ag161	Ag16	0.634770	0.852590	0.133750
S431	S43	0.703420	0.584700	0.052640
S441	S44	0.676710	0.729220	0.110210
S451	S45	0.699860	0.874460	0.046810
S461	S46	0.334690	0.546440	0.197400
S471	S47	0.479230	0.573210	0.139700
S481	S48	0.624500	0.550130	0.203200
C2951	C295	0.731000	0.664700	0.023500
C2961	C296	0.715700	0.729000	0.047600
C2971	C297	0.732500	0.792900	0.024200
C2981	C298	0.656600	0.539600	0.003100
C2991	C299	0.661000	0.466400	0.003500
C3001	C300	0.621300	0.430200	0.968900
C3011	C301	0.582200	0.461800	0.933300
C3021	C302	0.575600	0.535100	0.932000
C3031	C303	0.614800	0.573700	0.968300
C3041	C304	0.748100	0.704400	0.151600
C3051	C305	0.813600	0.688600	0.134300
C3061	C306	0.863100	0.666700	0.171800
C3071	C307	0.843300	0.664700	0.223000
C3081	C308	0.779700	0.682600	0.238700
C3091	C309	0.729200	0.703400	0.204100
C3101	C310	0.772900	0.918500	0.073800
C3111	C311	0.827400	0.885000	0.098400
C3121	C312	0.880200	0.924800	0.121900
C3131	C313	0.874400	0.997900	0.121600
C3141	C314	0.820500	0.029700	0.097000
C3151	C315	0.768500	0.991400	0.073300
C3161	C316	0.415000	0.518700	0.226300
C3171	C317	0.478600	0.534500	0.202800
C3181	C318	0.289300	0.406100	0.253300
C3191	C319	0.216700	0.410700	0.253300
C3201	C320	0.180400	0.372000	0.218400
C3211	C321	0.211100	0.332300	0.184100
C3221	C322	0.285200	0.325500	0.182900
C3231	C323	0.323800	0.364200	0.218500
C3241	C324	0.454500	0.502300	0.098200
C3251	C325	0.453000	0.520700	0.046000
C3261	C326	0.431800	0.468900	0.011900
C3271	C327	0.415400	0.405500	0.027000
C3281	C328	0.417900	0.388200	0.080200
C3291	C329	0.439300	0.436100	0.115500
C3301	C330	0.543200	0.517300	0.225500
C3311	C331	0.668500	0.477700	0.176800
C3321	C332	0.741100	0.480800	0.176100
C3331	C333	0.780700	0.429400	0.152600
C3341	C334	0.748200	0.375100	0.128500
C3351	C335	0.676100	0.370400	0.127200
C3361	C336	0.635200	0.422900	0.151900
H2111	H211	0.691300	0.442600	0.027300
H2121	H212	0.621600	0.380200	0.970500
H2131	H213	0.557700	0.434100	0.908700
H2141	H214	0.546100	0.558600	0.907500
H2151	H215	0.610900	0.623600	0.969000
H2161	H216	0.826200	0.693100	0.097900
H2171	H217	0.909000	0.653400	0.162000
H2181	H218	0.876500	0.650200	0.248100
H2191	H219	0.768000	0.680100	0.274700
H2201	H220	0.683500	0.716500	0.215100
H2211	H221	0.828900	0.834400	0.098600
H2221	H222	0.919900	0.900700	0.138800
H2231	H223	0.910500	0.024600	0.139100
H2241	H224	0.819100	0.079900	0.096000
H2251	H225	0.729000	0.014700	0.056600
H2261	H226	0.192800	0.441200	0.277100
H2271	H227	0.130800	0.372900	0.219000
H2281	H228	0.183100	0.307500	0.160100
H2291	H229	0.308400	0.295800	0.158300
H2301	H230	0.373800	0.361400	0.218800
H2311	H231	0.466400	0.566600	0.034600
H2321	H232	0.427700	0.480800	0.975900
H2331	H233	0.402200	0.371100	0.002200
H2341	H234	0.405700	0.342100	0.091500
H2351	H235	0.444500	0.423700	0.151800
H2361	H236	0.764800	0.520300	0.192600
H2371	H237	0.830600	0.432400	0.153600
H2381	H238	0.775300	0.338100	0.112200
H2391	H239	0.653000	0.331500	0.108800
H2401	H240	0.584900	0.420100	0.152100
