data_XAPCOJ03_clean_PM
_symmetry_space_group_name_H-M	'P1'
_cell_length_a	15.103500
_cell_length_b	15.103500
_cell_length_c	12.024700
_cell_angle_alpha	90.000000
_cell_angle_beta	90.000000
_cell_angle_gamma	90.000000
_symmetry_Int_Tables_number 1

loop_
_symmetry_equiv_pos_as_xyz
'x,y,z'

loop_
_atom_site_label
_atom_site_type_symbol
_atom_site_fract_x
_atom_site_fract_y
_atom_site_fract_z
O11	O1	0.601620	0.289700	0.755920
O21	O2	0.618040	0.380480	0.608720
C11	C1	0.591180	0.359940	0.701530
C21	C2	0.544610	0.433930	0.760110
C31	C3	0.547330	0.433110	0.879250
H11	H1	0.573180	0.381620	0.907350
O31	O3	0.101620	0.789700	0.255920
O41	O4	0.118040	0.880480	0.108720
C41	C4	0.091180	0.859940	0.201530
C51	C5	0.044610	0.933930	0.260110
C61	C6	0.047330	0.933110	0.379250
H21	H2	0.073180	0.881620	0.407350
O51	O5	0.898380	0.210300	0.255920
O61	O6	0.881960	0.119520	0.108720
C71	C7	0.908820	0.140060	0.201530
C81	C8	0.955390	0.066070	0.260110
C91	C9	0.952670	0.066890	0.379250
H31	H3	0.926820	0.118380	0.407350
O71	O7	0.398380	0.710300	0.755920
O81	O8	0.381960	0.619520	0.608720
C101	C10	0.408820	0.640060	0.701530
C111	C11	0.455390	0.566070	0.760110
C121	C12	0.452670	0.566890	0.879250
H41	H4	0.426820	0.618380	0.907350
O91	O9	0.710300	0.101620	0.005920
O101	O10	0.619520	0.118040	0.858720
C131	C13	0.640060	0.091180	0.951530
C141	C14	0.566070	0.044610	0.010110
C151	C15	0.566890	0.047330	0.129250
H51	H5	0.618380	0.073180	0.157350
O111	O11	0.210300	0.601620	0.505920
O121	O12	0.119520	0.618040	0.358720
C161	C16	0.140060	0.591180	0.451530
C171	C17	0.066070	0.544610	0.510110
C181	C18	0.066890	0.547330	0.629250
H61	H6	0.118380	0.573180	0.657350
O131	O13	0.789700	0.398380	0.505920
O141	O14	0.880480	0.381960	0.358720
C191	C19	0.859940	0.408820	0.451530
C201	C20	0.933930	0.455390	0.510110
C211	C21	0.933110	0.452670	0.629250
H71	H7	0.881620	0.426820	0.657350
O151	O15	0.289700	0.898380	0.005920
O161	O16	0.380480	0.881960	0.858720
C221	C22	0.359940	0.908820	0.951530
C231	C23	0.433930	0.955390	0.010110
C241	C24	0.433110	0.952670	0.129250
H81	H8	0.381620	0.926820	0.157350
O171	O17	0.898380	0.289700	0.994080
O181	O18	0.881960	0.380480	0.141280
C251	C25	0.908820	0.359940	0.048470
C261	C26	0.955390	0.433930	0.989890
C271	C27	0.952670	0.433110	0.870750
H91	H9	0.926820	0.381620	0.842650
O191	O19	0.398380	0.789700	0.494080
O201	O20	0.381960	0.880480	0.641280
C281	C28	0.408820	0.859940	0.548470
C291	C29	0.455390	0.933930	0.489890
C301	C30	0.452670	0.933110	0.370750
H101	H10	0.426820	0.881620	0.342650
O211	O21	0.601620	0.210300	0.494080
O221	O22	0.618040	0.119520	0.641280
C311	C31	0.591180	0.140060	0.548470
C321	C32	0.544610	0.066070	0.489890
C331	C33	0.547330	0.066890	0.370750
H111	H11	0.573180	0.118380	0.342650
O231	O23	0.101620	0.710300	0.994080
O241	O24	0.118040	0.619520	0.141280
C341	C34	0.091180	0.640060	0.048470
C351	C35	0.044610	0.566070	0.989890
C361	C36	0.047330	0.566890	0.870750
H121	H12	0.073180	0.618380	0.842650
O251	O25	0.789700	0.101620	0.744080
O261	O26	0.880480	0.118040	0.891280
C371	C37	0.859940	0.091180	0.798470
C381	C38	0.933930	0.044610	0.739890
C391	C39	0.933110	0.047330	0.620750
H131	H13	0.881620	0.073180	0.592650
O271	O27	0.289700	0.601620	0.244080
O281	O28	0.380480	0.618040	0.391280
C401	C40	0.359940	0.591180	0.298470
C411	C41	0.433930	0.544610	0.239890
C421	C42	0.433110	0.547330	0.120750
H141	H14	0.381620	0.573180	0.092650
O291	O29	0.710300	0.398380	0.244080
O301	O30	0.619520	0.381960	0.391280
C431	C43	0.640060	0.408820	0.298470
C441	C44	0.566070	0.455390	0.239890
C451	C45	0.566890	0.452670	0.120750
H151	H15	0.618380	0.426820	0.092650
O311	O31	0.210300	0.898380	0.744080
O321	O32	0.119520	0.881960	0.891280
C461	C46	0.140060	0.908820	0.798470
C471	C47	0.066070	0.955390	0.739890
C481	C48	0.066890	0.952670	0.620750
H161	H16	0.118380	0.926820	0.592650
V11	V1	0.691700	0.308300	0.500000
V21	V2	0.191700	0.808300	0.000000
V31	V3	0.808300	0.191700	0.000000
V41	V4	0.308300	0.691700	0.500000
V51	V5	0.691700	0.191700	0.750000
V61	V6	0.191700	0.691700	0.250000
V71	V7	0.808300	0.308300	0.250000
V81	V8	0.308300	0.808300	0.750000
O331	O33	0.744840	0.250000	0.625000
H171	H17	0.806000	0.250000	0.625000
O341	O34	0.244840	0.750000	0.125000
H181	H18	0.306000	0.750000	0.125000
O351	O35	0.755160	0.250000	0.125000
H191	H19	0.694000	0.250000	0.125000
O361	O36	0.255160	0.750000	0.625000
H201	H20	0.194000	0.750000	0.625000
O371	O37	0.750000	0.244840	0.875000
H211	H21	0.750000	0.306000	0.875000
O381	O38	0.250000	0.744840	0.375000
H221	H22	0.250000	0.806000	0.375000
O391	O39	0.750000	0.255160	0.375000
H231	H23	0.750000	0.194000	0.375000
O401	O40	0.250000	0.755160	0.875000
H241	H24	0.250000	0.694000	0.875000
C491	C49	0.500000	0.500000	0.703460
C501	C50	0.500000	0.500000	0.936210
H251	H25	0.500000	0.500000	0.626100
C511	C51	0.000000	0.000000	0.203460
C521	C52	0.000000	0.000000	0.436210
H261	H26	0.000000	0.000000	0.126100
C531	C53	0.500000	0.000000	0.953460
C541	C54	0.500000	0.000000	0.186210
H271	H27	0.500000	0.000000	0.876100
C551	C55	0.000000	0.500000	0.453460
C561	C56	0.000000	0.500000	0.686210
H281	H28	0.000000	0.500000	0.376100
C571	C57	0.000000	0.500000	0.046540
C581	C58	0.000000	0.500000	0.813790
H291	H29	0.000000	0.500000	0.123900
C591	C59	0.500000	0.000000	0.546540
C601	C60	0.500000	0.000000	0.313790
H301	H30	0.500000	0.000000	0.623900
C611	C61	0.000000	0.000000	0.796540
C621	C62	0.000000	0.000000	0.563790
H311	H31	0.000000	0.000000	0.873900
C631	C63	0.500000	0.500000	0.296540
C641	C64	0.500000	0.500000	0.063790
H321	H32	0.500000	0.500000	0.373900
