data_XAPCOJ07_clean_PM
_symmetry_space_group_name_H-M	'P1'
_cell_length_a	15.142300
_cell_length_b	15.142300
_cell_length_c	12.044900
_cell_angle_alpha	90.000000
_cell_angle_beta	90.000000
_cell_angle_gamma	90.000000
_symmetry_Int_Tables_number 1

loop_
_symmetry_equiv_pos_as_xyz
'x,y,z'

loop_
_atom_site_label
_atom_site_type_symbol
_atom_site_fract_x
_atom_site_fract_y
_atom_site_fract_z
O11	O1	0.602200	0.290600	0.761500
O21	O2	0.622500	0.380700	0.614200
C11	C1	0.592500	0.360100	0.706900
C21	C2	0.541000	0.432000	0.762400
C31	C3	0.545800	0.432700	0.881600
H11	H1	0.573180	0.381620	0.907350
O31	O3	0.102200	0.790600	0.261500
O41	O4	0.122500	0.880700	0.114200
C41	C4	0.092500	0.860100	0.206900
C51	C5	0.041000	0.932000	0.262400
C61	C6	0.045800	0.932700	0.381600
H21	H2	0.073180	0.881620	0.407350
O51	O5	0.897800	0.209400	0.261500
O61	O6	0.877500	0.119300	0.114200
C71	C7	0.907500	0.139900	0.206900
C81	C8	0.959000	0.068000	0.262400
C91	C9	0.954200	0.067300	0.381600
H31	H3	0.926820	0.118380	0.407350
O71	O7	0.397800	0.709400	0.761500
O81	O8	0.377500	0.619300	0.614200
C101	C10	0.407500	0.639900	0.706900
C111	C11	0.459000	0.568000	0.762400
C121	C12	0.454200	0.567300	0.881600
H41	H4	0.426820	0.618380	0.907350
O91	O9	0.709400	0.102200	0.011500
O101	O10	0.619300	0.122500	0.864200
C131	C13	0.639900	0.092500	0.956900
C141	C14	0.568000	0.041000	0.012400
C151	C15	0.567300	0.045800	0.131600
H51	H5	0.618380	0.073180	0.157350
O111	O11	0.209400	0.602200	0.511500
O121	O12	0.119300	0.622500	0.364200
C161	C16	0.139900	0.592500	0.456900
C171	C17	0.068000	0.541000	0.512400
C181	C18	0.067300	0.545800	0.631600
H61	H6	0.118380	0.573180	0.657350
O131	O13	0.790600	0.397800	0.511500
O141	O14	0.880700	0.377500	0.364200
C191	C19	0.860100	0.407500	0.456900
C201	C20	0.932000	0.459000	0.512400
C211	C21	0.932700	0.454200	0.631600
H71	H7	0.881620	0.426820	0.657350
O151	O15	0.290600	0.897800	0.011500
O161	O16	0.380700	0.877500	0.864200
C221	C22	0.360100	0.907500	0.956900
C231	C23	0.432000	0.959000	0.012400
C241	C24	0.432700	0.954200	0.131600
H81	H8	0.381620	0.926820	0.157350
O171	O17	0.897800	0.290600	0.988500
O181	O18	0.877500	0.380700	0.135800
C251	C25	0.907500	0.360100	0.043100
C261	C26	0.959000	0.432000	0.987600
C271	C27	0.954200	0.432700	0.868400
H91	H9	0.926820	0.381620	0.842650
O191	O19	0.397800	0.790600	0.488500
O201	O20	0.377500	0.880700	0.635800
C281	C28	0.407500	0.860100	0.543100
C291	C29	0.459000	0.932000	0.487600
C301	C30	0.454200	0.932700	0.368400
H101	H10	0.426820	0.881620	0.342650
O211	O21	0.602200	0.209400	0.488500
O221	O22	0.622500	0.119300	0.635800
C311	C31	0.592500	0.139900	0.543100
C321	C32	0.541000	0.068000	0.487600
C331	C33	0.545800	0.067300	0.368400
H111	H11	0.573180	0.118380	0.342650
O231	O23	0.102200	0.709400	0.988500
O241	O24	0.122500	0.619300	0.135800
C341	C34	0.092500	0.639900	0.043100
C351	C35	0.041000	0.568000	0.987600
C361	C36	0.045800	0.567300	0.868400
H121	H12	0.073180	0.618380	0.842650
O251	O25	0.790600	0.102200	0.738500
O261	O26	0.880700	0.122500	0.885800
C371	C37	0.860100	0.092500	0.793100
C381	C38	0.932000	0.041000	0.737600
C391	C39	0.932700	0.045800	0.618400
H131	H13	0.881620	0.073180	0.592650
O271	O27	0.290600	0.602200	0.238500
O281	O28	0.380700	0.622500	0.385800
C401	C40	0.360100	0.592500	0.293100
C411	C41	0.432000	0.541000	0.237600
C421	C42	0.432700	0.545800	0.118400
H141	H14	0.381620	0.573180	0.092650
O291	O29	0.709400	0.397800	0.238500
O301	O30	0.619300	0.377500	0.385800
C431	C43	0.639900	0.407500	0.293100
C441	C44	0.568000	0.459000	0.237600
C451	C45	0.567300	0.454200	0.118400
H151	H15	0.618380	0.426820	0.092650
O311	O31	0.209400	0.897800	0.738500
O321	O32	0.119300	0.877500	0.885800
C461	C46	0.139900	0.907500	0.793100
C471	C47	0.068000	0.959000	0.737600
C481	C48	0.067300	0.954200	0.618400
H161	H16	0.118380	0.926820	0.592650
V11	V1	0.689350	0.310650	0.500000
V21	V2	0.189350	0.810650	0.000000
V31	V3	0.810650	0.189350	0.000000
V41	V4	0.310650	0.689350	0.500000
V51	V5	0.689350	0.189350	0.750000
V61	V6	0.189350	0.689350	0.250000
V71	V7	0.810650	0.310650	0.250000
V81	V8	0.310650	0.810650	0.750000
O331	O33	0.743900	0.250000	0.625000
H171	H17	0.806000	0.250000	0.625000
O341	O34	0.243900	0.750000	0.125000
H181	H18	0.306000	0.750000	0.125000
O351	O35	0.756100	0.250000	0.125000
H191	H19	0.694000	0.250000	0.125000
O361	O36	0.256100	0.750000	0.625000
H201	H20	0.194000	0.750000	0.625000
O371	O37	0.750000	0.243900	0.875000
H211	H21	0.750000	0.306000	0.875000
O381	O38	0.250000	0.743900	0.375000
H221	H22	0.250000	0.806000	0.375000
O391	O39	0.750000	0.256100	0.375000
H231	H23	0.750000	0.194000	0.375000
O401	O40	0.250000	0.756100	0.875000
H241	H24	0.250000	0.694000	0.875000
C491	C49	0.500000	0.500000	0.708000
C501	C50	0.500000	0.500000	0.937100
H251	H25	0.500000	0.500000	0.631000
C511	C51	0.000000	0.000000	0.208000
C521	C52	0.000000	0.000000	0.437100
H261	H26	0.000000	0.000000	0.131000
C531	C53	0.500000	0.000000	0.958000
C541	C54	0.500000	0.000000	0.187100
H271	H27	0.500000	0.000000	0.881000
C551	C55	0.000000	0.500000	0.458000
C561	C56	0.000000	0.500000	0.687100
H281	H28	0.000000	0.500000	0.381000
C571	C57	0.000000	0.500000	0.042000
C581	C58	0.000000	0.500000	0.812900
H291	H29	0.000000	0.500000	0.119000
C591	C59	0.500000	0.000000	0.542000
C601	C60	0.500000	0.000000	0.312900
H301	H30	0.500000	0.000000	0.619000
C611	C61	0.000000	0.000000	0.792000
C621	C62	0.000000	0.000000	0.562900
H311	H31	0.000000	0.000000	0.869000
C631	C63	0.500000	0.500000	0.292000
C641	C64	0.500000	0.500000	0.062900
H321	H32	0.500000	0.500000	0.369000
