data_XAPCUN_clean_PM
_symmetry_space_group_name_H-M	'P1'
_cell_length_a	27.647900
_cell_length_b	13.750000
_cell_length_c	45.714000
_cell_angle_alpha	90.000000
_cell_angle_beta	90.000000
_cell_angle_gamma	90.000000
_symmetry_Int_Tables_number 1

loop_
_symmetry_equiv_pos_as_xyz
'x,y,z'

loop_
_atom_site_label
_atom_site_type_symbol
_atom_site_fract_x
_atom_site_fract_y
_atom_site_fract_z
C11	C1	0.051000	0.016400	0.531830
H11	H1	0.033300	0.048900	0.546700
C21	C2	0.064700	0.067400	0.507180
H21	H2	0.056100	0.134000	0.505300
C31	C3	0.090610	0.022500	0.485390
C41	C4	0.100500	0.923400	0.488240
H31	H3	0.116900	0.889000	0.473200
C51	C5	0.085800	0.876600	0.513460
H41	H4	0.092800	0.809300	0.515500
C61	C6	0.106580	0.077000	0.458990
C71	C7	0.108370	0.215200	0.432600
C81	C8	0.142360	0.079000	0.414760
C91	C9	0.093090	0.318100	0.428540
C101	C10	0.073900	0.370400	0.451470
H51	H5	0.071900	0.342700	0.470500
C111	C11	0.057300	0.464300	0.446350
H61	H6	0.044300	0.500500	0.462200
C121	C12	0.077400	0.453700	0.397500
H71	H7	0.078500	0.482000	0.378600
C131	C13	0.094900	0.360100	0.401320
H81	H8	0.108100	0.325300	0.385200
C141	C14	0.166490	0.026600	0.390590
C151	C15	0.186800	0.075300	0.367030
H91	H9	0.185500	0.144200	0.366000
C161	C16	0.209100	0.022200	0.345050
H101	H10	0.223900	0.056100	0.329300
C171	C17	0.189700	0.877600	0.367430
H111	H11	0.190300	0.808500	0.367400
C181	C18	0.167400	0.925200	0.390520
H121	H12	0.153000	0.889300	0.406000
C191	C19	0.307180	0.057300	0.765140
H131	H13	0.334600	0.072400	0.776800
C201	C20	0.314740	0.022100	0.737000
H141	H14	0.346600	0.012700	0.729700
C211	C21	0.274580	0.001000	0.719770
C221	C22	0.228900	0.011000	0.731830
H151	H15	0.200900	0.994500	0.720900
C231	C23	0.224820	0.045500	0.760170
H161	H16	0.193500	0.051500	0.768500
C241	C24	0.279640	0.972800	0.688520
C251	C25	0.325440	0.941900	0.648740
C261	C26	0.243750	0.939700	0.645280
C271	C27	0.373220	0.930300	0.634760
C281	C28	0.415710	0.931400	0.651250
H171	H17	0.414800	0.942500	0.671800
C291	C29	0.459300	0.915900	0.636980
H181	H18	0.488200	0.915400	0.648300
C301	C30	0.421900	0.903300	0.592280
H191	H19	0.424000	0.895000	0.571700
C311	C31	0.376830	0.916800	0.604620
H201	H20	0.348600	0.916900	0.592700
C321	C32	0.199480	0.926200	0.627990
C331	C33	0.200940	0.898200	0.598710
H211	H21	0.231100	0.890000	0.589100
C341	C34	0.158410	0.882600	0.583870
H221	H22	0.160000	0.862600	0.564000
C351	C35	0.113110	0.923900	0.624380
H231	H23	0.082400	0.934800	0.633100
C361	C36	0.154050	0.938800	0.640980
H241	H24	0.151500	0.957300	0.660900
I11	I1	0.983930	0.947440	0.601850
I21	I2	0.056340	0.672420	0.568060
I31	I3	0.195280	0.691440	0.305830
I41	I4	0.335780	0.833160	0.324340
I51	I5	0.074490	0.725360	0.371420
I61	I6	0.008950	0.716870	0.460840
N11	N1	0.062000	0.922200	0.535280
N21	N2	0.094950	0.170700	0.457380
N31	N3	0.133240	0.172900	0.410830
N41	N4	0.130530	0.027100	0.438440
N51	N5	0.059020	0.505500	0.419730
N61	N6	0.210450	0.925000	0.345160
N71	N7	0.263090	0.071000	0.776460
N81	N8	0.324140	0.964300	0.677400
N91	N9	0.286470	0.928900	0.631900
N101	N10	0.238360	0.961400	0.673670
N111	N11	0.462750	0.901400	0.607970
N121	N12	0.114650	0.894600	0.596270
Zn11	Zn1	0.050750	0.855700	0.575330
Zn21	Zn2	0.245470	0.846350	0.313450
Zn31	Zn3	0.027680	0.638470	0.411310
C371	C37	0.449000	0.983600	0.031830
H251	H25	0.466700	0.951100	0.046700
C381	C38	0.435300	0.932600	0.007180
H261	H26	0.443900	0.866000	0.005300
C391	C39	0.409390	0.977500	0.985390
C401	C40	0.399500	0.076600	0.988240
H271	H27	0.383100	0.111000	0.973200
C411	C41	0.414200	0.123400	0.013460
H281	H28	0.407200	0.190700	0.015500
C421	C42	0.393420	0.923000	0.958990
C431	C43	0.391630	0.784800	0.932600
C441	C44	0.357640	0.921000	0.914760
C451	C45	0.406910	0.681900	0.928540
C461	C46	0.426100	0.629600	0.951470
H291	H29	0.428100	0.657300	0.970500
C471	C47	0.442700	0.535700	0.946350
H301	H30	0.455700	0.499500	0.962200
C481	C48	0.422600	0.546300	0.897500
H311	H31	0.421500	0.518000	0.878600
C491	C49	0.405100	0.639900	0.901320
H321	H32	0.391900	0.674700	0.885200
C501	C50	0.333510	0.973400	0.890590
C511	C51	0.313200	0.924700	0.867030
H331	H33	0.314500	0.855800	0.866000
C521	C52	0.290900	0.977800	0.845050
H341	H34	0.276100	0.943900	0.829300
C531	C53	0.310300	0.122400	0.867430
H351	H35	0.309700	0.191500	0.867400
C541	C54	0.332600	0.074800	0.890520
H361	H36	0.347000	0.110700	0.906000
C551	C55	0.192820	0.942700	0.265140
H371	H37	0.165400	0.927600	0.276800
C561	C56	0.185260	0.977900	0.237000
H381	H38	0.153400	0.987300	0.229700
C571	C57	0.225420	0.999000	0.219770
C581	C58	0.271100	0.989000	0.231830
H391	H39	0.299100	0.005500	0.220900
C591	C59	0.275180	0.954500	0.260170
H401	H40	0.306500	0.948500	0.268500
C601	C60	0.220360	0.027200	0.188520
C611	C61	0.174560	0.058100	0.148740
C621	C62	0.256250	0.060300	0.145280
C631	C63	0.126780	0.069700	0.134760
C641	C64	0.084290	0.068600	0.151250
H411	H41	0.085200	0.057500	0.171800
C651	C65	0.040700	0.084100	0.136980
H421	H42	0.011800	0.084600	0.148300
C661	C66	0.078100	0.096700	0.092280
H431	H43	0.076000	0.105000	0.071700
C671	C67	0.123170	0.083200	0.104620
H441	H44	0.151400	0.083100	0.092700
C681	C68	0.300520	0.073800	0.127990
C691	C69	0.299060	0.101800	0.098710
H451	H45	0.268900	0.110000	0.089100
C701	C70	0.341590	0.117400	0.083870
H461	H46	0.340000	0.137400	0.064000
C711	C71	0.386890	0.076100	0.124380
H471	H47	0.417600	0.065200	0.133100
C721	C72	0.345950	0.061200	0.140980
H481	H48	0.348500	0.042700	0.160900
I71	I7	0.516070	0.052560	0.101850
I81	I8	0.443660	0.327580	0.068060
I91	I9	0.304720	0.308560	0.805830
I101	I10	0.164220	0.166840	0.824340
I111	I11	0.425510	0.274640	0.871420
I121	I12	0.491050	0.283130	0.960840
N131	N13	0.438000	0.077800	0.035280
N141	N14	0.405050	0.829300	0.957380
N151	N15	0.366760	0.827100	0.910830
N161	N16	0.369470	0.972900	0.938440
N171	N17	0.440980	0.494500	0.919730
N181	N18	0.289550	0.075000	0.845160
N191	N19	0.236910	0.929000	0.276460
N201	N20	0.175860	0.035700	0.177400
N211	N21	0.213530	0.071100	0.131900
N221	N22	0.261640	0.038600	0.173670
N231	N23	0.037250	0.098600	0.107970
N241	N24	0.385350	0.105400	0.096270
Zn41	Zn4	0.449250	0.144300	0.075330
Zn51	Zn5	0.254530	0.153650	0.813450
Zn61	Zn6	0.472320	0.361530	0.911310
C731	C73	0.949000	0.516400	0.968170
H491	H49	0.966700	0.548900	0.953300
C741	C74	0.935300	0.567400	0.992820
H501	H50	0.943900	0.634000	0.994700
C751	C75	0.909390	0.522500	0.014610
C761	C76	0.899500	0.423400	0.011760
H511	H51	0.883100	0.389000	0.026800
C771	C77	0.914200	0.376600	0.986540
H521	H52	0.907200	0.309300	0.984500
C781	C78	0.893420	0.577000	0.041010
C791	C79	0.891630	0.715200	0.067400
C801	C80	0.857640	0.579000	0.085240
C811	C81	0.906910	0.818100	0.071460
C821	C82	0.926100	0.870400	0.048530
H531	H53	0.928100	0.842700	0.029500
C831	C83	0.942700	0.964300	0.053650
H541	H54	0.955700	0.000500	0.037800
C841	C84	0.922600	0.953700	0.102500
H551	H55	0.921500	0.982000	0.121400
C851	C85	0.905100	0.860100	0.098680
H561	H56	0.891900	0.825300	0.114800
C861	C86	0.833510	0.526600	0.109410
C871	C87	0.813200	0.575300	0.132970
H571	H57	0.814500	0.644200	0.134000
C881	C88	0.790900	0.522200	0.154950
H581	H58	0.776100	0.556100	0.170700
C891	C89	0.810300	0.377600	0.132570
H591	H59	0.809700	0.308500	0.132600
C901	C90	0.832600	0.425200	0.109480
H601	H60	0.847000	0.389300	0.094000
C911	C91	0.692820	0.557300	0.734860
H611	H61	0.665400	0.572400	0.723200
C921	C92	0.685260	0.522100	0.763000
H621	H62	0.653400	0.512700	0.770300
C931	C93	0.725420	0.501000	0.780230
C941	C94	0.771100	0.511000	0.768170
H631	H63	0.799100	0.494500	0.779100
C951	C95	0.775180	0.545500	0.739830
H641	H64	0.806500	0.551500	0.731500
C961	C96	0.720360	0.472800	0.811480
C971	C97	0.674560	0.441900	0.851260
C981	C98	0.756250	0.439700	0.854720
C991	C99	0.626780	0.430300	0.865240
C1001	C100	0.584290	0.431400	0.848750
H651	H65	0.585200	0.442500	0.828200
C1011	C101	0.540700	0.415900	0.863020
H661	H66	0.511800	0.415400	0.851700
C1021	C102	0.578100	0.403300	0.907720
H671	H67	0.576000	0.395000	0.928300
C1031	C103	0.623170	0.416800	0.895380
H681	H68	0.651400	0.416900	0.907300
C1041	C104	0.800520	0.426200	0.872010
C1051	C105	0.799060	0.398200	0.901290
H691	H69	0.768900	0.390000	0.910900
C1061	C106	0.841590	0.382600	0.916130
H701	H70	0.840000	0.362600	0.936000
C1071	C107	0.886890	0.423900	0.875620
H711	H71	0.917600	0.434800	0.866900
C1081	C108	0.845950	0.438800	0.859020
H721	H72	0.848500	0.457300	0.839100
I131	I13	0.016070	0.447440	0.898150
I141	I14	0.943660	0.172420	0.931940
I151	I15	0.804720	0.191440	0.194170
I161	I16	0.664220	0.333160	0.175660
I171	I17	0.925510	0.225360	0.128580
I181	I18	0.991050	0.216870	0.039160
N251	N25	0.938000	0.422200	0.964720
N261	N26	0.905050	0.670700	0.042620
N271	N27	0.866760	0.672900	0.089170
N281	N28	0.869470	0.527100	0.061560
N291	N29	0.940980	0.005500	0.080270
N301	N30	0.789550	0.425000	0.154840
N311	N31	0.736910	0.571000	0.723540
N321	N32	0.675860	0.464300	0.822600
N331	N33	0.713530	0.428900	0.868100
N341	N34	0.761640	0.461400	0.826330
N351	N35	0.537250	0.401400	0.892030
N361	N36	0.885350	0.394600	0.903730
Zn71	Zn7	0.949250	0.355700	0.924670
Zn81	Zn8	0.754530	0.346350	0.186550
Zn91	Zn9	0.972320	0.138470	0.088690
C1091	C109	0.551000	0.483600	0.468170
H731	H73	0.533300	0.451100	0.453300
C1101	C110	0.564700	0.432600	0.492820
H741	H74	0.556100	0.366000	0.494700
C1111	C111	0.590610	0.477500	0.514610
C1121	C112	0.600500	0.576600	0.511760
H751	H75	0.616900	0.611000	0.526800
C1131	C113	0.585800	0.623400	0.486540
H761	H76	0.592800	0.690700	0.484500
C1141	C114	0.606580	0.423000	0.541010
C1151	C115	0.608370	0.284800	0.567400
C1161	C116	0.642360	0.421000	0.585240
C1171	C117	0.593090	0.181900	0.571460
C1181	C118	0.573900	0.129600	0.548530
H771	H77	0.571900	0.157300	0.529500
C1191	C119	0.557300	0.035700	0.553650
H781	H78	0.544300	0.999500	0.537800
C1201	C120	0.577400	0.046300	0.602500
H791	H79	0.578500	0.018000	0.621400
C1211	C121	0.594900	0.139900	0.598680
H801	H80	0.608100	0.174700	0.614800
C1221	C122	0.666490	0.473400	0.609410
C1231	C123	0.686800	0.424700	0.632970
H811	H81	0.685500	0.355800	0.634000
C1241	C124	0.709100	0.477800	0.654950
H821	H82	0.723900	0.443900	0.670700
C1251	C125	0.689700	0.622400	0.632570
H831	H83	0.690300	0.691500	0.632600
C1261	C126	0.667400	0.574800	0.609480
H841	H84	0.653000	0.610700	0.594000
C1271	C127	0.807180	0.442700	0.234860
H851	H85	0.834600	0.427600	0.223200
C1281	C128	0.814740	0.477900	0.263000
H861	H86	0.846600	0.487300	0.270300
C1291	C129	0.774580	0.499000	0.280230
C1301	C130	0.728900	0.489000	0.268170
H871	H87	0.700900	0.505500	0.279100
C1311	C131	0.724820	0.454500	0.239830
H881	H88	0.693500	0.448500	0.231500
C1321	C132	0.779640	0.527200	0.311480
C1331	C133	0.825440	0.558100	0.351260
C1341	C134	0.743750	0.560300	0.354720
C1351	C135	0.873220	0.569700	0.365240
C1361	C136	0.915710	0.568600	0.348750
H891	H89	0.914800	0.557500	0.328200
C1371	C137	0.959300	0.584100	0.363020
H901	H90	0.988200	0.584600	0.351700
C1381	C138	0.921900	0.596700	0.407720
H911	H91	0.924000	0.605000	0.428300
C1391	C139	0.876830	0.583200	0.395380
H921	H92	0.848600	0.583100	0.407300
C1401	C140	0.699480	0.573800	0.372010
C1411	C141	0.700940	0.601800	0.401290
H931	H93	0.731100	0.610000	0.410900
C1421	C142	0.658410	0.617400	0.416130
H941	H94	0.660000	0.637400	0.436000
C1431	C143	0.613110	0.576100	0.375620
H951	H95	0.582400	0.565200	0.366900
C1441	C144	0.654050	0.561200	0.359020
H961	H96	0.651500	0.542700	0.339100
I191	I19	0.483930	0.552560	0.398150
I201	I20	0.556340	0.827580	0.431940
I211	I21	0.695280	0.808560	0.694170
I221	I22	0.835780	0.666840	0.675660
I231	I23	0.574490	0.774640	0.628580
I241	I24	0.508950	0.783130	0.539160
N371	N37	0.562000	0.577800	0.464720
N381	N38	0.594950	0.329300	0.542620
N391	N39	0.633240	0.327100	0.589170
N401	N40	0.630530	0.472900	0.561560
N411	N41	0.559020	0.994500	0.580270
N421	N42	0.710450	0.575000	0.654840
N431	N43	0.763090	0.429000	0.223540
N441	N44	0.824140	0.535700	0.322600
N451	N45	0.786470	0.571100	0.368100
N461	N46	0.738360	0.538600	0.326330
N471	N47	0.962750	0.598600	0.392030
N481	N48	0.614650	0.605400	0.403730
Zn101	Zn10	0.550750	0.644300	0.424670
Zn111	Zn11	0.745470	0.653650	0.686550
Zn121	Zn12	0.527680	0.861530	0.588690
C1451	C145	0.949000	0.983600	0.468170
H971	H97	0.966700	0.951100	0.453300
C1461	C146	0.935300	0.932600	0.492820
H981	H98	0.943900	0.866000	0.494700
C1471	C147	0.909390	0.977500	0.514610
C1481	C148	0.899500	0.076600	0.511760
H991	H99	0.883100	0.111000	0.526800
C1491	C149	0.914200	0.123400	0.486540
H1001	H100	0.907200	0.190700	0.484500
C1501	C150	0.893420	0.923000	0.541010
C1511	C151	0.891630	0.784800	0.567400
C1521	C152	0.857640	0.921000	0.585240
C1531	C153	0.906910	0.681900	0.571460
C1541	C154	0.926100	0.629600	0.548530
H1011	H101	0.928100	0.657300	0.529500
C1551	C155	0.942700	0.535700	0.553650
H1021	H102	0.955700	0.499500	0.537800
C1561	C156	0.922600	0.546300	0.602500
H1031	H103	0.921500	0.518000	0.621400
C1571	C157	0.905100	0.639900	0.598680
H1041	H104	0.891900	0.674700	0.614800
C1581	C158	0.833510	0.973400	0.609410
C1591	C159	0.813200	0.924700	0.632970
H1051	H105	0.814500	0.855800	0.634000
C1601	C160	0.790900	0.977800	0.654950
H1061	H106	0.776100	0.943900	0.670700
C1611	C161	0.810300	0.122400	0.632570
H1071	H107	0.809700	0.191500	0.632600
C1621	C162	0.832600	0.074800	0.609480
H1081	H108	0.847000	0.110700	0.594000
C1631	C163	0.692820	0.942700	0.234860
H1091	H109	0.665400	0.927600	0.223200
C1641	C164	0.685260	0.977900	0.263000
H1101	H110	0.653400	0.987300	0.270300
C1651	C165	0.725420	0.999000	0.280230
C1661	C166	0.771100	0.989000	0.268170
H1111	H111	0.799100	0.005500	0.279100
C1671	C167	0.775180	0.954500	0.239830
H1121	H112	0.806500	0.948500	0.231500
C1681	C168	0.720360	0.027200	0.311480
C1691	C169	0.674560	0.058100	0.351260
C1701	C170	0.756250	0.060300	0.354720
C1711	C171	0.626780	0.069700	0.365240
C1721	C172	0.584290	0.068600	0.348750
H1131	H113	0.585200	0.057500	0.328200
C1731	C173	0.540700	0.084100	0.363020
H1141	H114	0.511800	0.084600	0.351700
C1741	C174	0.578100	0.096700	0.407720
H1151	H115	0.576000	0.105000	0.428300
C1751	C175	0.623170	0.083200	0.395380
H1161	H116	0.651400	0.083100	0.407300
C1761	C176	0.800520	0.073800	0.372010
C1771	C177	0.799060	0.101800	0.401290
H1171	H117	0.768900	0.110000	0.410900
C1781	C178	0.841590	0.117400	0.416130
H1181	H118	0.840000	0.137400	0.436000
C1791	C179	0.886890	0.076100	0.375620
H1191	H119	0.917600	0.065200	0.366900
C1801	C180	0.845950	0.061200	0.359020
H1201	H120	0.848500	0.042700	0.339100
I251	I25	0.016070	0.052560	0.398150
I261	I26	0.943660	0.327580	0.431940
I271	I27	0.804720	0.308560	0.694170
I281	I28	0.664220	0.166840	0.675660
I291	I29	0.925510	0.274640	0.628580
I301	I30	0.991050	0.283130	0.539160
N491	N49	0.938000	0.077800	0.464720
N501	N50	0.905050	0.829300	0.542620
N511	N51	0.866760	0.827100	0.589170
N521	N52	0.869470	0.972900	0.561560
N531	N53	0.940980	0.494500	0.580270
N541	N54	0.789550	0.075000	0.654840
N551	N55	0.736910	0.929000	0.223540
N561	N56	0.675860	0.035700	0.322600
N571	N57	0.713530	0.071100	0.368100
N581	N58	0.761640	0.038600	0.326330
N591	N59	0.537250	0.098600	0.392030
N601	N60	0.885350	0.105400	0.403730
Zn131	Zn13	0.949250	0.144300	0.424670
Zn141	Zn14	0.754530	0.153650	0.686550
Zn151	Zn15	0.972320	0.361530	0.588690
C1811	C181	0.551000	0.016400	0.968170
H1211	H121	0.533300	0.048900	0.953300
C1821	C182	0.564700	0.067400	0.992820
H1221	H122	0.556100	0.134000	0.994700
C1831	C183	0.590610	0.022500	0.014610
C1841	C184	0.600500	0.923400	0.011760
H1231	H123	0.616900	0.889000	0.026800
C1851	C185	0.585800	0.876600	0.986540
H1241	H124	0.592800	0.809300	0.984500
C1861	C186	0.606580	0.077000	0.041010
C1871	C187	0.608370	0.215200	0.067400
C1881	C188	0.642360	0.079000	0.085240
C1891	C189	0.593090	0.318100	0.071460
C1901	C190	0.573900	0.370400	0.048530
H1251	H125	0.571900	0.342700	0.029500
C1911	C191	0.557300	0.464300	0.053650
H1261	H126	0.544300	0.500500	0.037800
C1921	C192	0.577400	0.453700	0.102500
H1271	H127	0.578500	0.482000	0.121400
C1931	C193	0.594900	0.360100	0.098680
H1281	H128	0.608100	0.325300	0.114800
C1941	C194	0.666490	0.026600	0.109410
C1951	C195	0.686800	0.075300	0.132970
H1291	H129	0.685500	0.144200	0.134000
C1961	C196	0.709100	0.022200	0.154950
H1301	H130	0.723900	0.056100	0.170700
C1971	C197	0.689700	0.877600	0.132570
H1311	H131	0.690300	0.808500	0.132600
C1981	C198	0.667400	0.925200	0.109480
H1321	H132	0.653000	0.889300	0.094000
C1991	C199	0.807180	0.057300	0.734860
H1331	H133	0.834600	0.072400	0.723200
C2001	C200	0.814740	0.022100	0.763000
H1341	H134	0.846600	0.012700	0.770300
C2011	C201	0.774580	0.001000	0.780230
C2021	C202	0.728900	0.011000	0.768170
H1351	H135	0.700900	0.994500	0.779100
C2031	C203	0.724820	0.045500	0.739830
H1361	H136	0.693500	0.051500	0.731500
C2041	C204	0.779640	0.972800	0.811480
C2051	C205	0.825440	0.941900	0.851260
C2061	C206	0.743750	0.939700	0.854720
C2071	C207	0.873220	0.930300	0.865240
C2081	C208	0.915710	0.931400	0.848750
H1371	H137	0.914800	0.942500	0.828200
C2091	C209	0.959300	0.915900	0.863020
H1381	H138	0.988200	0.915400	0.851700
C2101	C210	0.921900	0.903300	0.907720
H1391	H139	0.924000	0.895000	0.928300
C2111	C211	0.876830	0.916800	0.895380
H1401	H140	0.848600	0.916900	0.907300
C2121	C212	0.699480	0.926200	0.872010
C2131	C213	0.700940	0.898200	0.901290
H1411	H141	0.731100	0.890000	0.910900
C2141	C214	0.658410	0.882600	0.916130
H1421	H142	0.660000	0.862600	0.936000
C2151	C215	0.613110	0.923900	0.875620
H1431	H143	0.582400	0.934800	0.866900
C2161	C216	0.654050	0.938800	0.859020
H1441	H144	0.651500	0.957300	0.839100
I311	I31	0.483930	0.947440	0.898150
I321	I32	0.556340	0.672420	0.931940
I331	I33	0.695280	0.691440	0.194170
I341	I34	0.835780	0.833160	0.175660
I351	I35	0.574490	0.725360	0.128580
I361	I36	0.508950	0.716870	0.039160
N611	N61	0.562000	0.922200	0.964720
N621	N62	0.594950	0.170700	0.042620
N631	N63	0.633240	0.172900	0.089170
N641	N64	0.630530	0.027100	0.061560
N651	N65	0.559020	0.505500	0.080270
N661	N66	0.710450	0.925000	0.154840
N671	N67	0.763090	0.071000	0.723540
N681	N68	0.824140	0.964300	0.822600
N691	N69	0.786470	0.928900	0.868100
N701	N70	0.738360	0.961400	0.826330
N711	N71	0.962750	0.901400	0.892030
N721	N72	0.614650	0.894600	0.903730
Zn161	Zn16	0.550750	0.855700	0.924670
Zn171	Zn17	0.745470	0.846350	0.186550
Zn181	Zn18	0.527680	0.638470	0.088690
C2171	C217	0.051000	0.483600	0.031830
H1451	H145	0.033300	0.451100	0.046700
C2181	C218	0.064700	0.432600	0.007180
H1461	H146	0.056100	0.366000	0.005300
C2191	C219	0.090610	0.477500	0.985390
C2201	C220	0.100500	0.576600	0.988240
H1471	H147	0.116900	0.611000	0.973200
C2211	C221	0.085800	0.623400	0.013460
H1481	H148	0.092800	0.690700	0.015500
C2221	C222	0.106580	0.423000	0.958990
C2231	C223	0.108370	0.284800	0.932600
C2241	C224	0.142360	0.421000	0.914760
C2251	C225	0.093090	0.181900	0.928540
C2261	C226	0.073900	0.129600	0.951470
H1491	H149	0.071900	0.157300	0.970500
C2271	C227	0.057300	0.035700	0.946350
H1501	H150	0.044300	0.999500	0.962200
C2281	C228	0.077400	0.046300	0.897500
H1511	H151	0.078500	0.018000	0.878600
C2291	C229	0.094900	0.139900	0.901320
H1521	H152	0.108100	0.174700	0.885200
C2301	C230	0.166490	0.473400	0.890590
C2311	C231	0.186800	0.424700	0.867030
H1531	H153	0.185500	0.355800	0.866000
C2321	C232	0.209100	0.477800	0.845050
H1541	H154	0.223900	0.443900	0.829300
C2331	C233	0.189700	0.622400	0.867430
H1551	H155	0.190300	0.691500	0.867400
C2341	C234	0.167400	0.574800	0.890520
H1561	H156	0.153000	0.610700	0.906000
C2351	C235	0.307180	0.442700	0.265140
H1571	H157	0.334600	0.427600	0.276800
C2361	C236	0.314740	0.477900	0.237000
H1581	H158	0.346600	0.487300	0.229700
C2371	C237	0.274580	0.499000	0.219770
C2381	C238	0.228900	0.489000	0.231830
H1591	H159	0.200900	0.505500	0.220900
C2391	C239	0.224820	0.454500	0.260170
H1601	H160	0.193500	0.448500	0.268500
C2401	C240	0.279640	0.527200	0.188520
C2411	C241	0.325440	0.558100	0.148740
C2421	C242	0.243750	0.560300	0.145280
C2431	C243	0.373220	0.569700	0.134760
C2441	C244	0.415710	0.568600	0.151250
H1611	H161	0.414800	0.557500	0.171800
C2451	C245	0.459300	0.584100	0.136980
H1621	H162	0.488200	0.584600	0.148300
C2461	C246	0.421900	0.596700	0.092280
H1631	H163	0.424000	0.605000	0.071700
C2471	C247	0.376830	0.583200	0.104620
H1641	H164	0.348600	0.583100	0.092700
C2481	C248	0.199480	0.573800	0.127990
C2491	C249	0.200940	0.601800	0.098710
H1651	H165	0.231100	0.610000	0.089100
C2501	C250	0.158410	0.617400	0.083870
H1661	H166	0.160000	0.637400	0.064000
C2511	C251	0.113110	0.576100	0.124380
H1671	H167	0.082400	0.565200	0.133100
C2521	C252	0.154050	0.561200	0.140980
H1681	H168	0.151500	0.542700	0.160900
I371	I37	0.983930	0.552560	0.101850
I381	I38	0.056340	0.827580	0.068060
I391	I39	0.195280	0.808560	0.805830
I401	I40	0.335780	0.666840	0.824340
I411	I41	0.074490	0.774640	0.871420
I421	I42	0.008950	0.783130	0.960840
N731	N73	0.062000	0.577800	0.035280
N741	N74	0.094950	0.329300	0.957380
N751	N75	0.133240	0.327100	0.910830
N761	N76	0.130530	0.472900	0.938440
N771	N77	0.059020	0.994500	0.919730
N781	N78	0.210450	0.575000	0.845160
N791	N79	0.263090	0.429000	0.276460
N801	N80	0.324140	0.535700	0.177400
N811	N81	0.286470	0.571100	0.131900
N821	N82	0.238360	0.538600	0.173670
N831	N83	0.462750	0.598600	0.107970
N841	N84	0.114650	0.605400	0.096270
Zn191	Zn19	0.050750	0.644300	0.075330
Zn201	Zn20	0.245470	0.653650	0.813450
Zn211	Zn21	0.027680	0.861530	0.911310
C2531	C253	0.449000	0.516400	0.531830
H1691	H169	0.466700	0.548900	0.546700
C2541	C254	0.435300	0.567400	0.507180
H1701	H170	0.443900	0.634000	0.505300
C2551	C255	0.409390	0.522500	0.485390
C2561	C256	0.399500	0.423400	0.488240
H1711	H171	0.383100	0.389000	0.473200
C2571	C257	0.414200	0.376600	0.513460
H1721	H172	0.407200	0.309300	0.515500
C2581	C258	0.393420	0.577000	0.458990
C2591	C259	0.391630	0.715200	0.432600
C2601	C260	0.357640	0.579000	0.414760
C2611	C261	0.406910	0.818100	0.428540
C2621	C262	0.426100	0.870400	0.451470
H1731	H173	0.428100	0.842700	0.470500
C2631	C263	0.442700	0.964300	0.446350
H1741	H174	0.455700	0.000500	0.462200
C2641	C264	0.422600	0.953700	0.397500
H1751	H175	0.421500	0.982000	0.378600
C2651	C265	0.405100	0.860100	0.401320
H1761	H176	0.391900	0.825300	0.385200
C2661	C266	0.333510	0.526600	0.390590
C2671	C267	0.313200	0.575300	0.367030
H1771	H177	0.314500	0.644200	0.366000
C2681	C268	0.290900	0.522200	0.345050
H1781	H178	0.276100	0.556100	0.329300
C2691	C269	0.310300	0.377600	0.367430
H1791	H179	0.309700	0.308500	0.367400
C2701	C270	0.332600	0.425200	0.390520
H1801	H180	0.347000	0.389300	0.406000
C2711	C271	0.192820	0.557300	0.765140
H1811	H181	0.165400	0.572400	0.776800
C2721	C272	0.185260	0.522100	0.737000
H1821	H182	0.153400	0.512700	0.729700
C2731	C273	0.225420	0.501000	0.719770
C2741	C274	0.271100	0.511000	0.731830
H1831	H183	0.299100	0.494500	0.720900
C2751	C275	0.275180	0.545500	0.760170
H1841	H184	0.306500	0.551500	0.768500
C2761	C276	0.220360	0.472800	0.688520
C2771	C277	0.174560	0.441900	0.648740
C2781	C278	0.256250	0.439700	0.645280
C2791	C279	0.126780	0.430300	0.634760
C2801	C280	0.084290	0.431400	0.651250
H1851	H185	0.085200	0.442500	0.671800
C2811	C281	0.040700	0.415900	0.636980
H1861	H186	0.011800	0.415400	0.648300
C2821	C282	0.078100	0.403300	0.592280
H1871	H187	0.076000	0.395000	0.571700
C2831	C283	0.123170	0.416800	0.604620
H1881	H188	0.151400	0.416900	0.592700
C2841	C284	0.300520	0.426200	0.627990
C2851	C285	0.299060	0.398200	0.598710
H1891	H189	0.268900	0.390000	0.589100
C2861	C286	0.341590	0.382600	0.583870
H1901	H190	0.340000	0.362600	0.564000
C2871	C287	0.386890	0.423900	0.624380
H1911	H191	0.417600	0.434800	0.633100
C2881	C288	0.345950	0.438800	0.640980
H1921	H192	0.348500	0.457300	0.660900
I431	I43	0.516070	0.447440	0.601850
I441	I44	0.443660	0.172420	0.568060
I451	I45	0.304720	0.191440	0.305830
I461	I46	0.164220	0.333160	0.324340
I471	I47	0.425510	0.225360	0.371420
I481	I48	0.491050	0.216870	0.460840
N851	N85	0.438000	0.422200	0.535280
N861	N86	0.405050	0.670700	0.457380
N871	N87	0.366760	0.672900	0.410830
N881	N88	0.369470	0.527100	0.438440
N891	N89	0.440980	0.005500	0.419730
N901	N90	0.289550	0.425000	0.345160
N911	N91	0.236910	0.571000	0.776460
N921	N92	0.175860	0.464300	0.677400
N931	N93	0.213530	0.428900	0.631900
N941	N94	0.261640	0.461400	0.673670
N951	N95	0.037250	0.401400	0.607970
N961	N96	0.385350	0.394600	0.596270
Zn221	Zn22	0.449250	0.355700	0.575330
Zn231	Zn23	0.254530	0.346350	0.313450
Zn241	Zn24	0.472320	0.138470	0.411310
