data_XAPCOJ02_clean_PM
_symmetry_space_group_name_H-M	'P1'
_cell_length_a	15.113300
_cell_length_b	15.113300
_cell_length_c	12.032700
_cell_angle_alpha	90.000000
_cell_angle_beta	90.000000
_cell_angle_gamma	90.000000
_symmetry_Int_Tables_number 1

loop_
_symmetry_equiv_pos_as_xyz
'x,y,z'

loop_
_atom_site_label
_atom_site_type_symbol
_atom_site_fract_x
_atom_site_fract_y
_atom_site_fract_z
O11	O1	0.600880	0.289650	0.755990
O21	O2	0.618030	0.379950	0.608960
C11	C1	0.591230	0.360450	0.702420
C21	C2	0.543270	0.433160	0.760170
C31	C3	0.546780	0.432760	0.879180
H11	H1	0.573180	0.381620	0.907350
O31	O3	0.100880	0.789650	0.255990
O41	O4	0.118030	0.879950	0.108960
C41	C4	0.091230	0.860450	0.202420
C51	C5	0.043270	0.933160	0.260170
C61	C6	0.046780	0.932760	0.379180
H21	H2	0.073180	0.881620	0.407350
O51	O5	0.899120	0.210350	0.255990
O61	O6	0.881970	0.120050	0.108960
C71	C7	0.908770	0.139550	0.202420
C81	C8	0.956730	0.066840	0.260170
C91	C9	0.953220	0.067240	0.379180
H31	H3	0.926820	0.118380	0.407350
O71	O7	0.399120	0.710350	0.755990
O81	O8	0.381970	0.620050	0.608960
C101	C10	0.408770	0.639550	0.702420
C111	C11	0.456730	0.566840	0.760170
C121	C12	0.453220	0.567240	0.879180
H41	H4	0.426820	0.618380	0.907350
O91	O9	0.710350	0.100880	0.005990
O101	O10	0.620050	0.118030	0.858960
C131	C13	0.639550	0.091230	0.952420
C141	C14	0.566840	0.043270	0.010170
C151	C15	0.567240	0.046780	0.129180
H51	H5	0.618380	0.073180	0.157350
O111	O11	0.210350	0.600880	0.505990
O121	O12	0.120050	0.618030	0.358960
C161	C16	0.139550	0.591230	0.452420
C171	C17	0.066840	0.543270	0.510170
C181	C18	0.067240	0.546780	0.629180
H61	H6	0.118380	0.573180	0.657350
O131	O13	0.789650	0.399120	0.505990
O141	O14	0.879950	0.381970	0.358960
C191	C19	0.860450	0.408770	0.452420
C201	C20	0.933160	0.456730	0.510170
C211	C21	0.932760	0.453220	0.629180
H71	H7	0.881620	0.426820	0.657350
O151	O15	0.289650	0.899120	0.005990
O161	O16	0.379950	0.881970	0.858960
C221	C22	0.360450	0.908770	0.952420
C231	C23	0.433160	0.956730	0.010170
C241	C24	0.432760	0.953220	0.129180
H81	H8	0.381620	0.926820	0.157350
O171	O17	0.899120	0.289650	0.994010
O181	O18	0.881970	0.379950	0.141040
C251	C25	0.908770	0.360450	0.047580
C261	C26	0.956730	0.433160	0.989830
C271	C27	0.953220	0.432760	0.870820
H91	H9	0.926820	0.381620	0.842650
O191	O19	0.399120	0.789650	0.494010
O201	O20	0.381970	0.879950	0.641040
C281	C28	0.408770	0.860450	0.547580
C291	C29	0.456730	0.933160	0.489830
C301	C30	0.453220	0.932760	0.370820
H101	H10	0.426820	0.881620	0.342650
O211	O21	0.600880	0.210350	0.494010
O221	O22	0.618030	0.120050	0.641040
C311	C31	0.591230	0.139550	0.547580
C321	C32	0.543270	0.066840	0.489830
C331	C33	0.546780	0.067240	0.370820
H111	H11	0.573180	0.118380	0.342650
O231	O23	0.100880	0.710350	0.994010
O241	O24	0.118030	0.620050	0.141040
C341	C34	0.091230	0.639550	0.047580
C351	C35	0.043270	0.566840	0.989830
C361	C36	0.046780	0.567240	0.870820
H121	H12	0.073180	0.618380	0.842650
O251	O25	0.789650	0.100880	0.744010
O261	O26	0.879950	0.118030	0.891040
C371	C37	0.860450	0.091230	0.797580
C381	C38	0.933160	0.043270	0.739830
C391	C39	0.932760	0.046780	0.620820
H131	H13	0.881620	0.073180	0.592650
O271	O27	0.289650	0.600880	0.244010
O281	O28	0.379950	0.618030	0.391040
C401	C40	0.360450	0.591230	0.297580
C411	C41	0.433160	0.543270	0.239830
C421	C42	0.432760	0.546780	0.120820
H141	H14	0.381620	0.573180	0.092650
O291	O29	0.710350	0.399120	0.244010
O301	O30	0.620050	0.381970	0.391040
C431	C43	0.639550	0.408770	0.297580
C441	C44	0.566840	0.456730	0.239830
C451	C45	0.567240	0.453220	0.120820
H151	H15	0.618380	0.426820	0.092650
O311	O31	0.210350	0.899120	0.744010
O321	O32	0.120050	0.881970	0.891040
C461	C46	0.139550	0.908770	0.797580
C471	C47	0.066840	0.956730	0.739830
C481	C48	0.067240	0.953220	0.620820
H161	H16	0.118380	0.926820	0.592650
V11	V1	0.691230	0.308770	0.500000
V21	V2	0.191230	0.808770	0.000000
V31	V3	0.808770	0.191230	0.000000
V41	V4	0.308770	0.691230	0.500000
V51	V5	0.691230	0.191230	0.750000
V61	V6	0.191230	0.691230	0.250000
V71	V7	0.808770	0.308770	0.250000
V81	V8	0.308770	0.808770	0.750000
O331	O33	0.744700	0.250000	0.625000
H171	H17	0.806000	0.250000	0.625000
O341	O34	0.244700	0.750000	0.125000
H181	H18	0.306000	0.750000	0.125000
O351	O35	0.755300	0.250000	0.125000
H191	H19	0.694000	0.250000	0.125000
O361	O36	0.255300	0.750000	0.625000
H201	H20	0.194000	0.750000	0.625000
O371	O37	0.750000	0.244700	0.875000
H211	H21	0.750000	0.306000	0.875000
O381	O38	0.250000	0.744700	0.375000
H221	H22	0.250000	0.806000	0.375000
O391	O39	0.750000	0.255300	0.375000
H231	H23	0.750000	0.194000	0.375000
O401	O40	0.250000	0.755300	0.875000
H241	H24	0.250000	0.694000	0.875000
C491	C49	0.500000	0.500000	0.703330
C501	C50	0.500000	0.500000	0.936200
H251	H25	0.500000	0.500000	0.626000
C511	C51	0.000000	0.000000	0.203330
C521	C52	0.000000	0.000000	0.436200
H261	H26	0.000000	0.000000	0.126000
C531	C53	0.500000	0.000000	0.953330
C541	C54	0.500000	0.000000	0.186200
H271	H27	0.500000	0.000000	0.876000
C551	C55	0.000000	0.500000	0.453330
C561	C56	0.000000	0.500000	0.686200
H281	H28	0.000000	0.500000	0.376000
C571	C57	0.000000	0.500000	0.046670
C581	C58	0.000000	0.500000	0.813800
H291	H29	0.000000	0.500000	0.124000
C591	C59	0.500000	0.000000	0.546670
C601	C60	0.500000	0.000000	0.313800
H301	H30	0.500000	0.000000	0.624000
C611	C61	0.000000	0.000000	0.796670
C621	C62	0.000000	0.000000	0.563800
H311	H31	0.000000	0.000000	0.874000
C631	C63	0.500000	0.500000	0.296670
C641	C64	0.500000	0.500000	0.063800
H321	H32	0.500000	0.500000	0.374000
