data_XAPGAZ_clean_PM
_symmetry_space_group_name_H-M	'P1'
_cell_length_a	27.058400
_cell_length_b	27.244800
_cell_length_c	27.880200
_cell_angle_alpha	90.000000
_cell_angle_beta	90.000000
_cell_angle_gamma	90.000000
_symmetry_Int_Tables_number 1

loop_
_symmetry_equiv_pos_as_xyz
'x,y,z'

loop_
_atom_site_label
_atom_site_type_symbol
_atom_site_fract_x
_atom_site_fract_y
_atom_site_fract_z
O11	O1	0.605600	0.894000	0.074600
O21	O2	0.683600	0.811100	0.091600
O31	O3	0.904100	0.751200	0.064400
O41	O4	0.686400	0.860600	0.154800
O51	O5	0.903400	0.816100	0.233500
O61	O6	0.832100	0.721500	0.038800
C11	C1	0.705500	0.831100	0.127600
C21	C2	0.831800	0.774200	0.105700
C31	C3	0.856600	0.746600	0.066800
C41	C4	0.782600	0.826700	0.178000
C51	C5	0.757700	0.813700	0.134700
C61	C6	0.856300	0.787800	0.147200
H11	H1	0.890200	0.779700	0.150900
C71	C7	0.832000	0.813200	0.183900
C81	C8	0.781400	0.786800	0.100800
H21	H2	0.763700	0.776200	0.073200
C91	C9	0.856300	0.828400	0.230500
O71	O7	0.834500	0.850500	0.261500
H31	H3	0.765000	0.851000	0.205000
Mo11	Mo1	0.579090	0.928500	0.018750
Mo21	Mo2	0.579790	0.950350	0.109930
Mo31	Mo3	0.533280	0.732210	0.052830
Mo41	Mo4	0.532580	0.767980	0.171230
Mo51	Mo5	0.422800	0.741460	0.111910
Mo61	Mo6	0.467700	0.903610	0.960240
Mo71	Mo7	0.556080	0.813830	0.973700
Mo81	Mo8	0.357380	0.810560	0.094400
Mo91	Mo9	0.552840	0.858250	0.198350
Mo101	Mo10	0.384170	0.905530	0.007970
Mo111	Mo11	0.374660	0.931610	0.127430
Mo121	Mo12	0.475540	0.956140	0.179750
Zn11	Zn1	0.466760	0.992110	0.059930
Zn21	Zn2	0.433180	0.781740	0.990270
Zn31	Zn3	0.421210	0.839970	0.202260
Zn41	Zn4	0.613570	0.823070	0.086660
P11	P1	0.484910	0.859350	0.083280
O81	O8	0.441900	0.948900	0.008600
O91	O9	0.471200	0.731200	0.161800
O101	O10	0.420800	0.852000	0.977500
O111	O11	0.532000	0.940700	0.964200
O121	O12	0.509800	0.871400	0.033900
O131	O13	0.428900	0.871700	0.079200
O141	O14	0.600800	0.910600	0.169800
O151	O15	0.597300	0.866500	0.983500
O161	O16	0.398200	0.795500	0.151200
O171	O17	0.492600	0.819300	0.201300
O181	O18	0.399500	0.771300	0.051500
O191	O19	0.509600	0.846100	0.938700
O201	O20	0.503500	0.767600	0.996300
O211	O21	0.340100	0.848700	0.032600
O221	O22	0.490800	0.804900	0.095400
O231	O23	0.419500	0.907900	0.179000
O241	O24	0.536200	0.970500	0.057600
O251	O25	0.437500	0.971500	0.120300
O261	O26	0.472000	0.709400	0.067200
O271	O27	0.580400	0.786700	0.036400
O281	O28	0.582300	0.815400	0.149400
O291	O29	0.361700	0.945500	0.064400
O301	O30	0.529800	0.984700	0.152200
O311	O31	0.508800	0.914100	0.218900
O321	O32	0.558600	0.730900	0.113000
O331	O33	0.343000	0.873700	0.129800
O341	O34	0.511000	0.890800	0.122600
O351	O35	0.894400	0.106000	0.574600
O361	O36	0.816400	0.188900	0.591600
O371	O37	0.595900	0.248800	0.564400
O381	O38	0.813600	0.139400	0.654800
O391	O39	0.596600	0.183900	0.733500
O401	O40	0.667900	0.278500	0.538800
C101	C10	0.794500	0.168900	0.627600
C111	C11	0.668200	0.225800	0.605700
C121	C12	0.643400	0.253400	0.566800
C131	C13	0.717400	0.173300	0.678000
C141	C14	0.742300	0.186300	0.634700
C151	C15	0.643700	0.212200	0.647200
H41	H4	0.609800	0.220300	0.650900
C161	C16	0.668000	0.186800	0.683900
C171	C17	0.718600	0.213200	0.600800
H51	H5	0.736300	0.223800	0.573200
C181	C18	0.643700	0.171600	0.730500
O411	O41	0.665500	0.149500	0.761500
H61	H6	0.735000	0.149000	0.705000
Mo131	Mo13	0.920910	0.071500	0.518750
Mo141	Mo14	0.920210	0.049650	0.609930
Mo151	Mo15	0.966720	0.267790	0.552830
Mo161	Mo16	0.967420	0.232020	0.671230
Mo171	Mo17	0.077200	0.258540	0.611910
Mo181	Mo18	0.032300	0.096390	0.460240
Mo191	Mo19	0.943920	0.186170	0.473700
Mo201	Mo20	0.142620	0.189440	0.594400
Mo211	Mo21	0.947160	0.141750	0.698350
Mo221	Mo22	0.115830	0.094470	0.507970
Mo231	Mo23	0.125340	0.068390	0.627430
Mo241	Mo24	0.024460	0.043860	0.679750
Zn51	Zn5	0.033240	0.007890	0.559930
Zn61	Zn6	0.066820	0.218260	0.490270
Zn71	Zn7	0.078790	0.160030	0.702260
Zn81	Zn8	0.886430	0.176930	0.586660
P21	P2	0.015090	0.140650	0.583280
O421	O42	0.058100	0.051100	0.508600
O431	O43	0.028800	0.268800	0.661800
O441	O44	0.079200	0.148000	0.477500
O451	O45	0.968000	0.059300	0.464200
O461	O46	0.990200	0.128600	0.533900
O471	O47	0.071100	0.128300	0.579200
O481	O48	0.899200	0.089400	0.669800
O491	O49	0.902700	0.133500	0.483500
O501	O50	0.101800	0.204500	0.651200
O511	O51	0.007400	0.180700	0.701300
O521	O52	0.100500	0.228700	0.551500
O531	O53	0.990400	0.153900	0.438700
O541	O54	0.996500	0.232400	0.496300
O551	O55	0.159900	0.151300	0.532600
O561	O56	0.009200	0.195100	0.595400
O571	O57	0.080500	0.092100	0.679000
O581	O58	0.963800	0.029500	0.557600
O591	O59	0.062500	0.028500	0.620300
O601	O60	0.028000	0.290600	0.567200
O611	O61	0.919600	0.213300	0.536400
O621	O62	0.917700	0.184600	0.649400
O631	O63	0.138300	0.054500	0.564400
O641	O64	0.970200	0.015300	0.652200
O651	O65	0.991200	0.085900	0.718900
O661	O66	0.941400	0.269100	0.613000
O671	O67	0.157000	0.126300	0.629800
O681	O68	0.989000	0.109200	0.622600
O691	O69	0.394400	0.394000	0.425400
O701	O70	0.316400	0.311100	0.408400
O711	O71	0.095900	0.251200	0.435600
O721	O72	0.313600	0.360600	0.345200
O731	O73	0.096600	0.316100	0.266500
O741	O74	0.167900	0.221500	0.461200
C191	C19	0.294500	0.331100	0.372400
C201	C20	0.168200	0.274200	0.394300
C211	C21	0.143400	0.246600	0.433200
C221	C22	0.217400	0.326700	0.322000
C231	C23	0.242300	0.313700	0.365300
C241	C24	0.143700	0.287800	0.352800
H71	H7	0.109800	0.279700	0.349100
C251	C25	0.168000	0.313200	0.316100
C261	C26	0.218600	0.286800	0.399200
H81	H8	0.236300	0.276200	0.426800
C271	C27	0.143700	0.328400	0.269500
O751	O75	0.165500	0.350500	0.238500
H91	H9	0.235000	0.351000	0.295000
Mo251	Mo25	0.420910	0.428500	0.481250
Mo261	Mo26	0.420210	0.450350	0.390070
Mo271	Mo27	0.466720	0.232210	0.447170
Mo281	Mo28	0.467420	0.267980	0.328770
Mo291	Mo29	0.577200	0.241460	0.388090
Mo301	Mo30	0.532300	0.403610	0.539760
Mo311	Mo31	0.443920	0.313830	0.526300
Mo321	Mo32	0.642620	0.310560	0.405600
Mo331	Mo33	0.447160	0.358250	0.301650
Mo341	Mo34	0.615830	0.405530	0.492030
Mo351	Mo35	0.625340	0.431610	0.372570
Mo361	Mo36	0.524460	0.456140	0.320250
Zn91	Zn9	0.533240	0.492110	0.440070
Zn101	Zn10	0.566820	0.281740	0.509730
Zn111	Zn11	0.578790	0.339970	0.297740
Zn121	Zn12	0.386430	0.323070	0.413340
P31	P3	0.515090	0.359350	0.416720
O761	O76	0.558100	0.448900	0.491400
O771	O77	0.528800	0.231200	0.338200
O781	O78	0.579200	0.352000	0.522500
O791	O79	0.468000	0.440700	0.535800
O801	O80	0.490200	0.371400	0.466100
O811	O81	0.571100	0.371700	0.420800
O821	O82	0.399200	0.410600	0.330200
O831	O83	0.402700	0.366500	0.516500
O841	O84	0.601800	0.295500	0.348800
O851	O85	0.507400	0.319300	0.298700
O861	O86	0.600500	0.271300	0.448500
O871	O87	0.490400	0.346100	0.561300
O881	O88	0.496500	0.267600	0.503700
O891	O89	0.659900	0.348700	0.467400
O901	O90	0.509200	0.304900	0.404600
O911	O91	0.580500	0.407900	0.321000
O921	O92	0.463800	0.470500	0.442400
O931	O93	0.562500	0.471500	0.379700
O941	O94	0.528000	0.209400	0.432800
O951	O95	0.419600	0.286700	0.463600
O961	O96	0.417700	0.315400	0.350600
O971	O97	0.638300	0.445500	0.435600
O981	O98	0.470200	0.484700	0.347800
O991	O99	0.491200	0.414100	0.281100
O1001	O100	0.441400	0.230900	0.387000
O1011	O101	0.657000	0.373700	0.370200
O1021	O102	0.489000	0.390800	0.377400
O1031	O103	0.105600	0.606000	0.925400
O1041	O104	0.183600	0.688900	0.908400
O1051	O105	0.404100	0.748800	0.935600
O1061	O106	0.186400	0.639400	0.845200
O1071	O107	0.403400	0.683900	0.766500
O1081	O108	0.332100	0.778500	0.961200
C281	C28	0.205500	0.668900	0.872400
C291	C29	0.331800	0.725800	0.894300
C301	C30	0.356600	0.753400	0.933200
C311	C31	0.282600	0.673300	0.822000
C321	C32	0.257700	0.686300	0.865300
C331	C33	0.356300	0.712200	0.852800
H101	H10	0.390200	0.720300	0.849100
C341	C34	0.332000	0.686800	0.816100
C351	C35	0.281400	0.713200	0.899200
H111	H11	0.263700	0.723800	0.926800
C361	C36	0.356300	0.671600	0.769500
O1091	O109	0.334500	0.649500	0.738500
H121	H12	0.265000	0.649000	0.795000
Mo371	Mo37	0.079090	0.571500	0.981250
Mo381	Mo38	0.079790	0.549650	0.890070
Mo391	Mo39	0.033280	0.767790	0.947170
Mo401	Mo40	0.032580	0.732020	0.828770
Mo411	Mo41	0.922800	0.758540	0.888090
Mo421	Mo42	0.967700	0.596390	0.039760
Mo431	Mo43	0.056080	0.686170	0.026300
Mo441	Mo44	0.857380	0.689440	0.905600
Mo451	Mo45	0.052840	0.641750	0.801650
Mo461	Mo46	0.884170	0.594470	0.992030
Mo471	Mo47	0.874660	0.568390	0.872570
Mo481	Mo48	0.975540	0.543860	0.820250
Zn131	Zn13	0.966760	0.507890	0.940070
Zn141	Zn14	0.933180	0.718260	0.009730
Zn151	Zn15	0.921210	0.660030	0.797740
Zn161	Zn16	0.113570	0.676930	0.913340
P41	P4	0.984910	0.640650	0.916720
O1101	O110	0.941900	0.551100	0.991400
O1111	O111	0.971200	0.768800	0.838200
O1121	O112	0.920800	0.648000	0.022500
O1131	O113	0.032000	0.559300	0.035800
O1141	O114	0.009800	0.628600	0.966100
O1151	O115	0.928900	0.628300	0.920800
O1161	O116	0.100800	0.589400	0.830200
O1171	O117	0.097300	0.633500	0.016500
O1181	O118	0.898200	0.704500	0.848800
O1191	O119	0.992600	0.680700	0.798700
O1201	O120	0.899500	0.728700	0.948500
O1211	O121	0.009600	0.653900	0.061300
O1221	O122	0.003500	0.732400	0.003700
O1231	O123	0.840100	0.651300	0.967400
O1241	O124	0.990800	0.695100	0.904600
O1251	O125	0.919500	0.592100	0.821000
O1261	O126	0.036200	0.529500	0.942400
O1271	O127	0.937500	0.528500	0.879700
O1281	O128	0.972000	0.790600	0.932800
O1291	O129	0.080400	0.713300	0.963600
O1301	O130	0.082300	0.684600	0.850600
O1311	O131	0.861700	0.554500	0.935600
O1321	O132	0.029800	0.515300	0.847800
O1331	O133	0.008800	0.585900	0.781100
O1341	O134	0.058600	0.769100	0.887000
O1351	O135	0.843000	0.626300	0.870200
O1361	O136	0.011000	0.609200	0.877400
O1371	O137	0.394400	0.106000	0.925400
O1381	O138	0.316400	0.188900	0.908400
O1391	O139	0.095900	0.248800	0.935600
O1401	O140	0.313600	0.139400	0.845200
O1411	O141	0.096600	0.183900	0.766500
O1421	O142	0.167900	0.278500	0.961200
C371	C37	0.294500	0.168900	0.872400
C381	C38	0.168200	0.225800	0.894300
C391	C39	0.143400	0.253400	0.933200
C401	C40	0.217400	0.173300	0.822000
C411	C41	0.242300	0.186300	0.865300
C421	C42	0.143700	0.212200	0.852800
H131	H13	0.109800	0.220300	0.849100
C431	C43	0.168000	0.186800	0.816100
C441	C44	0.218600	0.213200	0.899200
H141	H14	0.236300	0.223800	0.926800
C451	C45	0.143700	0.171600	0.769500
O1431	O143	0.165500	0.149500	0.738500
H151	H15	0.235000	0.149000	0.795000
Mo491	Mo49	0.420910	0.071500	0.981250
Mo501	Mo50	0.420210	0.049650	0.890070
Mo511	Mo51	0.466720	0.267790	0.947170
Mo521	Mo52	0.467420	0.232020	0.828770
Mo531	Mo53	0.577200	0.258540	0.888090
Mo541	Mo54	0.532300	0.096390	0.039760
Mo551	Mo55	0.443920	0.186170	0.026300
Mo561	Mo56	0.642620	0.189440	0.905600
Mo571	Mo57	0.447160	0.141750	0.801650
Mo581	Mo58	0.615830	0.094470	0.992030
Mo591	Mo59	0.625340	0.068390	0.872570
Mo601	Mo60	0.524460	0.043860	0.820250
Zn171	Zn17	0.533240	0.007890	0.940070
Zn181	Zn18	0.566820	0.218260	0.009730
Zn191	Zn19	0.578790	0.160030	0.797740
Zn201	Zn20	0.386430	0.176930	0.913340
P51	P5	0.515090	0.140650	0.916720
O1441	O144	0.558100	0.051100	0.991400
O1451	O145	0.528800	0.268800	0.838200
O1461	O146	0.579200	0.148000	0.022500
O1471	O147	0.468000	0.059300	0.035800
O1481	O148	0.490200	0.128600	0.966100
O1491	O149	0.571100	0.128300	0.920800
O1501	O150	0.399200	0.089400	0.830200
O1511	O151	0.402700	0.133500	0.016500
O1521	O152	0.601800	0.204500	0.848800
O1531	O153	0.507400	0.180700	0.798700
O1541	O154	0.600500	0.228700	0.948500
O1551	O155	0.490400	0.153900	0.061300
O1561	O156	0.496500	0.232400	0.003700
O1571	O157	0.659900	0.151300	0.967400
O1581	O158	0.509200	0.195100	0.904600
O1591	O159	0.580500	0.092100	0.821000
O1601	O160	0.463800	0.029500	0.942400
O1611	O161	0.562500	0.028500	0.879700
O1621	O162	0.528000	0.290600	0.932800
O1631	O163	0.419600	0.213300	0.963600
O1641	O164	0.417700	0.184600	0.850600
O1651	O165	0.638300	0.054500	0.935600
O1661	O166	0.470200	0.015300	0.847800
O1671	O167	0.491200	0.085900	0.781100
O1681	O168	0.441400	0.269100	0.887000
O1691	O169	0.657000	0.126300	0.870200
O1701	O170	0.489000	0.109200	0.877400
O1711	O171	0.105600	0.894000	0.425400
O1721	O172	0.183600	0.811100	0.408400
O1731	O173	0.404100	0.751200	0.435600
O1741	O174	0.186400	0.860600	0.345200
O1751	O175	0.403400	0.816100	0.266500
O1761	O176	0.332100	0.721500	0.461200
C461	C46	0.205500	0.831100	0.372400
C471	C47	0.331800	0.774200	0.394300
C481	C48	0.356600	0.746600	0.433200
C491	C49	0.282600	0.826700	0.322000
C501	C50	0.257700	0.813700	0.365300
C511	C51	0.356300	0.787800	0.352800
H161	H16	0.390200	0.779700	0.349100
C521	C52	0.332000	0.813200	0.316100
C531	C53	0.281400	0.786800	0.399200
H171	H17	0.263700	0.776200	0.426800
C541	C54	0.356300	0.828400	0.269500
O1771	O177	0.334500	0.850500	0.238500
H181	H18	0.265000	0.851000	0.295000
Mo611	Mo61	0.079090	0.928500	0.481250
Mo621	Mo62	0.079790	0.950350	0.390070
Mo631	Mo63	0.033280	0.732210	0.447170
Mo641	Mo64	0.032580	0.767980	0.328770
Mo651	Mo65	0.922800	0.741460	0.388090
Mo661	Mo66	0.967700	0.903610	0.539760
Mo671	Mo67	0.056080	0.813830	0.526300
Mo681	Mo68	0.857380	0.810560	0.405600
Mo691	Mo69	0.052840	0.858250	0.301650
Mo701	Mo70	0.884170	0.905530	0.492030
Mo711	Mo71	0.874660	0.931610	0.372570
Mo721	Mo72	0.975540	0.956140	0.320250
Zn211	Zn21	0.966760	0.992110	0.440070
Zn221	Zn22	0.933180	0.781740	0.509730
Zn231	Zn23	0.921210	0.839970	0.297740
Zn241	Zn24	0.113570	0.823070	0.413340
P61	P6	0.984910	0.859350	0.416720
O1781	O178	0.941900	0.948900	0.491400
O1791	O179	0.971200	0.731200	0.338200
O1801	O180	0.920800	0.852000	0.522500
O1811	O181	0.032000	0.940700	0.535800
O1821	O182	0.009800	0.871400	0.466100
O1831	O183	0.928900	0.871700	0.420800
O1841	O184	0.100800	0.910600	0.330200
O1851	O185	0.097300	0.866500	0.516500
O1861	O186	0.898200	0.795500	0.348800
O1871	O187	0.992600	0.819300	0.298700
O1881	O188	0.899500	0.771300	0.448500
O1891	O189	0.009600	0.846100	0.561300
O1901	O190	0.003500	0.767600	0.503700
O1911	O191	0.840100	0.848700	0.467400
O1921	O192	0.990800	0.804900	0.404600
O1931	O193	0.919500	0.907900	0.321000
O1941	O194	0.036200	0.970500	0.442400
O1951	O195	0.937500	0.971500	0.379700
O1961	O196	0.972000	0.709400	0.432800
O1971	O197	0.080400	0.786700	0.463600
O1981	O198	0.082300	0.815400	0.350600
O1991	O199	0.861700	0.945500	0.435600
O2001	O200	0.029800	0.984700	0.347800
O2011	O201	0.008800	0.914100	0.281100
O2021	O202	0.058600	0.730900	0.387000
O2031	O203	0.843000	0.873700	0.370200
O2041	O204	0.011000	0.890800	0.377400
O2051	O205	0.605600	0.606000	0.574600
O2061	O206	0.683600	0.688900	0.591600
O2071	O207	0.904100	0.748800	0.564400
O2081	O208	0.686400	0.639400	0.654800
O2091	O209	0.903400	0.683900	0.733500
O2101	O210	0.832100	0.778500	0.538800
C551	C55	0.705500	0.668900	0.627600
C561	C56	0.831800	0.725800	0.605700
C571	C57	0.856600	0.753400	0.566800
C581	C58	0.782600	0.673300	0.678000
C591	C59	0.757700	0.686300	0.634700
C601	C60	0.856300	0.712200	0.647200
H191	H19	0.890200	0.720300	0.650900
C611	C61	0.832000	0.686800	0.683900
C621	C62	0.781400	0.713200	0.600800
H201	H20	0.763700	0.723800	0.573200
C631	C63	0.856300	0.671600	0.730500
O2111	O211	0.834500	0.649500	0.761500
H211	H21	0.765000	0.649000	0.705000
Mo731	Mo73	0.579090	0.571500	0.518750
Mo741	Mo74	0.579790	0.549650	0.609930
Mo751	Mo75	0.533280	0.767790	0.552830
Mo761	Mo76	0.532580	0.732020	0.671230
Mo771	Mo77	0.422800	0.758540	0.611910
Mo781	Mo78	0.467700	0.596390	0.460240
Mo791	Mo79	0.556080	0.686170	0.473700
Mo801	Mo80	0.357380	0.689440	0.594400
Mo811	Mo81	0.552840	0.641750	0.698350
Mo821	Mo82	0.384170	0.594470	0.507970
Mo831	Mo83	0.374660	0.568390	0.627430
Mo841	Mo84	0.475540	0.543860	0.679750
Zn251	Zn25	0.466760	0.507890	0.559930
Zn261	Zn26	0.433180	0.718260	0.490270
Zn271	Zn27	0.421210	0.660030	0.702260
Zn281	Zn28	0.613570	0.676930	0.586660
P71	P7	0.484910	0.640650	0.583280
O2121	O212	0.441900	0.551100	0.508600
O2131	O213	0.471200	0.768800	0.661800
O2141	O214	0.420800	0.648000	0.477500
O2151	O215	0.532000	0.559300	0.464200
O2161	O216	0.509800	0.628600	0.533900
O2171	O217	0.428900	0.628300	0.579200
O2181	O218	0.600800	0.589400	0.669800
O2191	O219	0.597300	0.633500	0.483500
O2201	O220	0.398200	0.704500	0.651200
O2211	O221	0.492600	0.680700	0.701300
O2221	O222	0.399500	0.728700	0.551500
O2231	O223	0.509600	0.653900	0.438700
O2241	O224	0.503500	0.732400	0.496300
O2251	O225	0.340100	0.651300	0.532600
O2261	O226	0.490800	0.695100	0.595400
O2271	O227	0.419500	0.592100	0.679000
O2281	O228	0.536200	0.529500	0.557600
O2291	O229	0.437500	0.528500	0.620300
O2301	O230	0.472000	0.790600	0.567200
O2311	O231	0.580400	0.713300	0.536400
O2321	O232	0.582300	0.684600	0.649400
O2331	O233	0.361700	0.554500	0.564400
O2341	O234	0.529800	0.515300	0.652200
O2351	O235	0.508800	0.585900	0.718900
O2361	O236	0.558600	0.769100	0.613000
O2371	O237	0.343000	0.626300	0.629800
O2381	O238	0.511000	0.609200	0.622600
O2391	O239	0.894400	0.394000	0.074600
O2401	O240	0.816400	0.311100	0.091600
O2411	O241	0.595900	0.251200	0.064400
O2421	O242	0.813600	0.360600	0.154800
O2431	O243	0.596600	0.316100	0.233500
O2441	O244	0.667900	0.221500	0.038800
C641	C64	0.794500	0.331100	0.127600
C651	C65	0.668200	0.274200	0.105700
C661	C66	0.643400	0.246600	0.066800
C671	C67	0.717400	0.326700	0.178000
C681	C68	0.742300	0.313700	0.134700
C691	C69	0.643700	0.287800	0.147200
H221	H22	0.609800	0.279700	0.150900
C701	C70	0.668000	0.313200	0.183900
C711	C71	0.718600	0.286800	0.100800
H231	H23	0.736300	0.276200	0.073200
C721	C72	0.643700	0.328400	0.230500
O2451	O245	0.665500	0.350500	0.261500
H241	H24	0.735000	0.351000	0.205000
Mo851	Mo85	0.920910	0.428500	0.018750
Mo861	Mo86	0.920210	0.450350	0.109930
Mo871	Mo87	0.966720	0.232210	0.052830
Mo881	Mo88	0.967420	0.267980	0.171230
Mo891	Mo89	0.077200	0.241460	0.111910
Mo901	Mo90	0.032300	0.403610	0.960240
Mo911	Mo91	0.943920	0.313830	0.973700
Mo921	Mo92	0.142620	0.310560	0.094400
Mo931	Mo93	0.947160	0.358250	0.198350
Mo941	Mo94	0.115830	0.405530	0.007970
Mo951	Mo95	0.125340	0.431610	0.127430
Mo961	Mo96	0.024460	0.456140	0.179750
Zn291	Zn29	0.033240	0.492110	0.059930
Zn301	Zn30	0.066820	0.281740	0.990270
Zn311	Zn31	0.078790	0.339970	0.202260
Zn321	Zn32	0.886430	0.323070	0.086660
P81	P8	0.015090	0.359350	0.083280
O2461	O246	0.058100	0.448900	0.008600
O2471	O247	0.028800	0.231200	0.161800
O2481	O248	0.079200	0.352000	0.977500
O2491	O249	0.968000	0.440700	0.964200
O2501	O250	0.990200	0.371400	0.033900
O2511	O251	0.071100	0.371700	0.079200
O2521	O252	0.899200	0.410600	0.169800
O2531	O253	0.902700	0.366500	0.983500
O2541	O254	0.101800	0.295500	0.151200
O2551	O255	0.007400	0.319300	0.201300
O2561	O256	0.100500	0.271300	0.051500
O2571	O257	0.990400	0.346100	0.938700
O2581	O258	0.996500	0.267600	0.996300
O2591	O259	0.159900	0.348700	0.032600
O2601	O260	0.009200	0.304900	0.095400
O2611	O261	0.080500	0.407900	0.179000
O2621	O262	0.963800	0.470500	0.057600
O2631	O263	0.062500	0.471500	0.120300
O2641	O264	0.028000	0.209400	0.067200
O2651	O265	0.919600	0.286700	0.036400
O2661	O266	0.917700	0.315400	0.149400
O2671	O267	0.138300	0.445500	0.064400
O2681	O268	0.970200	0.484700	0.152200
O2691	O269	0.991200	0.414100	0.218900
O2701	O270	0.941400	0.230900	0.113000
O2711	O271	0.157000	0.373700	0.129800
O2721	O272	0.989000	0.390800	0.122600
