data_XAPNIN_clean_PM
_symmetry_space_group_name_H-M	'P1'
_cell_length_a	9.506000
_cell_length_b	15.482000
_cell_length_c	12.498000
_cell_angle_alpha	90.000000
_cell_angle_beta	94.954000
_cell_angle_gamma	90.000000
_symmetry_Int_Tables_number 1

loop_
_symmetry_equiv_pos_as_xyz
'x,y,z'

loop_
_atom_site_label
_atom_site_type_symbol
_atom_site_fract_x
_atom_site_fract_y
_atom_site_fract_z
Zn11	Zn1	0.140140	0.083670	0.457190
C11	C1	0.271800	0.889800	0.685400
C21	C2	0.410200	0.902100	0.661600
H11	H1	0.431100	0.944300	0.612400
C31	C3	0.518300	0.851400	0.711600
C41	C4	0.487000	0.790900	0.787900
H21	H2	0.559100	0.757800	0.822000
C51	C5	0.348400	0.779100	0.814100
C61	C6	0.241700	0.828400	0.761800
H31	H3	0.148800	0.820400	0.777900
C71	C7	0.152500	0.936000	0.620600
C81	C8	0.666000	0.858500	0.675600
C91	C9	0.312700	0.710300	0.892800
O11	O1	0.186900	0.979600	0.543300
O21	O2	0.029200	0.923800	0.645300
O31	O3	0.189500	0.689400	0.899100
O41	O4	0.416300	0.675800	0.948300
O51	O5	0.751900	0.799600	0.698300
O61	O6	0.690400	0.922900	0.619200
Zn21	Zn2	0.359860	0.583670	0.042810
C101	C10	0.228200	0.389800	0.814600
C111	C11	0.089800	0.402100	0.838400
H41	H4	0.068900	0.444300	0.887600
C121	C12	0.981700	0.351400	0.788400
C131	C13	0.013000	0.290900	0.712100
H51	H5	0.940900	0.257800	0.678000
C141	C14	0.151600	0.279100	0.685900
C151	C15	0.258300	0.328400	0.738200
H61	H6	0.351200	0.320400	0.722100
C161	C16	0.347500	0.436000	0.879400
C171	C17	0.834000	0.358500	0.824400
C181	C18	0.187300	0.210300	0.607200
O71	O7	0.313100	0.479600	0.956700
O81	O8	0.470800	0.423800	0.854700
O91	O9	0.310500	0.189400	0.600900
O101	O10	0.083700	0.175800	0.551700
O111	O11	0.748100	0.299600	0.801700
O121	O12	0.809600	0.422900	0.880800
Zn31	Zn3	0.859860	0.916330	0.542810
C191	C19	0.728200	0.110200	0.314600
C201	C20	0.589800	0.097900	0.338400
H71	H7	0.568900	0.055700	0.387600
C211	C21	0.481700	0.148600	0.288400
C221	C22	0.513000	0.209100	0.212100
H81	H8	0.440900	0.242200	0.178000
C231	C23	0.651600	0.220900	0.185900
C241	C24	0.758300	0.171600	0.238200
H91	H9	0.851200	0.179600	0.222100
C251	C25	0.847500	0.064000	0.379400
C261	C26	0.334000	0.141500	0.324400
C271	C27	0.687300	0.289700	0.107200
O131	O13	0.813100	0.020400	0.456700
O141	O14	0.970800	0.076200	0.354700
O151	O15	0.810500	0.310600	0.100900
O161	O16	0.583700	0.324200	0.051700
O171	O17	0.248100	0.200400	0.301700
O181	O18	0.309600	0.077100	0.380800
Zn41	Zn4	0.640140	0.416330	0.957190
C281	C28	0.771800	0.610200	0.185400
C291	C29	0.910200	0.597900	0.161600
H101	H10	0.931100	0.555700	0.112400
C301	C30	0.018300	0.648600	0.211600
C311	C31	0.987000	0.709100	0.287900
H111	H11	0.059100	0.742200	0.322000
C321	C32	0.848400	0.720900	0.314100
C331	C33	0.741700	0.671600	0.261800
H121	H12	0.648800	0.679600	0.277900
C341	C34	0.652500	0.564000	0.120600
C351	C35	0.166000	0.641500	0.175600
C361	C36	0.812700	0.789700	0.392800
O191	O19	0.686900	0.520400	0.043300
O201	O20	0.529200	0.576200	0.145300
O211	O21	0.689500	0.810600	0.399100
O221	O22	0.916300	0.824200	0.448300
O231	O23	0.251900	0.700400	0.198300
O241	O24	0.190400	0.577100	0.119200
