data_XAPSIS_clean_PM
_symmetry_space_group_name_H-M	'P1'
_cell_length_a	11.279000
_cell_length_b	10.679000
_cell_length_c	15.428000
_cell_angle_alpha	90.000000
_cell_angle_beta	95.276000
_cell_angle_gamma	90.000000
_symmetry_Int_Tables_number 1

loop_
_symmetry_equiv_pos_as_xyz
'x,y,z'

loop_
_atom_site_label
_atom_site_type_symbol
_atom_site_fract_x
_atom_site_fract_y
_atom_site_fract_z
Co11	Co1	0.849000	0.540340	0.011170
O11	O1	0.911100	0.412600	0.096650
O21	O2	0.109800	0.387400	0.101180
O31	O3	0.227500	0.078700	0.447100
O41	O4	0.324500	0.150500	0.336400
O51	O5	0.786400	0.118900	0.431310
O61	O6	0.706200	0.279000	0.350900
C11	C1	0.010800	0.299800	0.214100
C21	C2	0.115800	0.250400	0.254200
H11	H1	0.186600	0.261700	0.228700
C31	C3	0.116600	0.184400	0.331800
C41	C4	0.010200	0.166700	0.369200
H21	H2	0.010100	0.120000	0.420100
C51	C5	0.903500	0.217700	0.331600
C61	C6	0.904900	0.282400	0.253200
H31	H3	0.834200	0.314600	0.226400
C71	C7	0.009700	0.371500	0.129900
C81	C8	0.232900	0.134800	0.374400
C91	C9	0.788000	0.204800	0.373600
Co21	Co2	0.651000	0.040340	0.488830
O71	O7	0.588900	0.912600	0.403350
O81	O8	0.390200	0.887400	0.398820
O91	O9	0.272500	0.578700	0.052900
O101	O10	0.175500	0.650500	0.163600
O111	O11	0.713600	0.618900	0.068690
O121	O12	0.793800	0.779000	0.149100
C101	C10	0.489200	0.799800	0.285900
C111	C11	0.384200	0.750400	0.245800
H41	H4	0.313400	0.761700	0.271300
C121	C12	0.383400	0.684400	0.168200
C131	C13	0.489800	0.666700	0.130800
H51	H5	0.489900	0.620000	0.079900
C141	C14	0.596500	0.717700	0.168400
C151	C15	0.595100	0.782400	0.246800
H61	H6	0.665800	0.814600	0.273600
C161	C16	0.490300	0.871500	0.370100
C171	C17	0.267100	0.634800	0.125600
C181	C18	0.712000	0.704800	0.126400
Co31	Co3	0.151000	0.459660	0.988830
O131	O13	0.088900	0.587400	0.903350
O141	O14	0.890200	0.612600	0.898820
O151	O15	0.772500	0.921300	0.552900
O161	O16	0.675500	0.849500	0.663600
O171	O17	0.213600	0.881100	0.568690
O181	O18	0.293800	0.721000	0.649100
C191	C19	0.989200	0.700200	0.785900
C201	C20	0.884200	0.749600	0.745800
H71	H7	0.813400	0.738300	0.771300
C211	C21	0.883400	0.815600	0.668200
C221	C22	0.989800	0.833300	0.630800
H81	H8	0.989900	0.880000	0.579900
C231	C23	0.096500	0.782300	0.668400
C241	C24	0.095100	0.717600	0.746800
H91	H9	0.165800	0.685400	0.773600
C251	C25	0.990300	0.628500	0.870100
C261	C26	0.767100	0.865200	0.625600
C271	C27	0.212000	0.795200	0.626400
Co41	Co4	0.349000	0.959660	0.511170
O191	O19	0.411100	0.087400	0.596650
O201	O20	0.609800	0.112600	0.601180
O211	O21	0.727500	0.421300	0.947100
O221	O22	0.824500	0.349500	0.836400
O231	O23	0.286400	0.381100	0.931310
O241	O24	0.206200	0.221000	0.850900
C281	C28	0.510800	0.200200	0.714100
C291	C29	0.615800	0.249600	0.754200
H101	H10	0.686600	0.238300	0.728700
C301	C30	0.616600	0.315600	0.831800
C311	C31	0.510200	0.333300	0.869200
H111	H11	0.510100	0.380000	0.920100
C321	C32	0.403500	0.282300	0.831600
C331	C33	0.404900	0.217600	0.753200
H121	H12	0.334200	0.185400	0.726400
C341	C34	0.509700	0.128500	0.629900
C351	C35	0.732900	0.365200	0.874400
C361	C36	0.288000	0.295200	0.873600
