data_XAQMOS_clean_PM
_symmetry_space_group_name_H-M	'P1'
_cell_length_a	7.273300
_cell_length_b	10.601200
_cell_length_c	17.930100
_cell_angle_alpha	107.195000
_cell_angle_beta	100.871000
_cell_angle_gamma	90.000000
_symmetry_Int_Tables_number 1

loop_
_symmetry_equiv_pos_as_xyz
'x,y,z'

loop_
_atom_site_label
_atom_site_type_symbol
_atom_site_fract_x
_atom_site_fract_y
_atom_site_fract_z
Ba11	Ba1	0.866380	0.256900	0.759060
Ba21	Ba2	0.374020	0.005790	0.761640
Ba31	Ba3	0.015770	0.016420	0.533040
Ba41	Ba4	0.133620	0.497840	0.240940
Ba51	Ba5	0.625980	0.244150	0.238360
Ba61	Ba6	0.984230	0.483380	0.466960
Ba71	Ba7	0.000000	0.630620	0.000000
C11	C1	0.123900	0.096600	0.899800
C21	C2	0.043100	0.137200	0.972200
C31	C3	0.330200	0.269700	0.694200
C41	C4	0.324100	0.402100	0.682200
C51	C5	0.311100	0.509100	0.674200
C61	C6	0.304300	0.642000	0.662600
C71	C7	0.854800	0.926800	0.699600
C81	C8	0.842400	0.786000	0.686800
C91	C9	0.833300	0.671100	0.676600
C101	C10	0.837900	0.527900	0.663800
C111	C11	0.663700	0.320500	0.913000
C121	C12	0.544100	0.350100	0.974200
C131	C13	0.876100	0.196800	0.100200
C141	C14	0.956900	0.165000	0.027800
C151	C15	0.669800	0.575500	0.305800
C161	C16	0.675900	0.719900	0.317800
C171	C17	0.688900	0.834900	0.325800
C181	C18	0.695700	0.979400	0.337400
C191	C19	0.145200	0.227200	0.300400
C201	C20	0.157600	0.099200	0.313200
C211	C21	0.166700	0.994500	0.323400
C221	C22	0.162100	0.864100	0.336200
C231	C23	0.336300	0.407500	0.087000
C241	C24	0.455900	0.375900	0.025800
N11	N1	0.731600	0.749100	0.499400
N21	N2	0.268400	0.249700	0.500600
O11	O1	0.134600	0.174800	0.861600
O21	O2	0.184900	0.980400	0.885800
O31	O3	0.487500	0.230000	0.713600
O41	O4	0.180400	0.206900	0.685400
O51	O5	0.241900	0.648900	0.597000
O61	O6	0.347400	0.732500	0.726600
O71	O7	0.989000	0.973500	0.683600
O81	O8	0.721500	0.991000	0.726200
O91	O9	0.837800	0.489200	0.723800
O101	O10	0.836300	0.450500	0.593000
O111	O11	0.656600	0.859000	0.521600
O121	O12	0.903400	0.750900	0.500400
O131	O13	0.640400	0.642400	0.482200
O141	O14	0.642900	0.201800	0.867200
O151	O15	0.773200	0.407700	0.913600
O161	O16	0.760900	0.202600	0.590000
O171	O17	0.327000	0.891900	0.594200
O181	O18	0.833100	0.582900	0.125800
O191	O19	0.865400	0.313200	0.138400
O201	O20	0.815100	0.094600	0.114200
O211	O21	0.512500	0.516400	0.286400
O221	O22	0.819600	0.521500	0.314600
O231	O23	0.758100	0.051900	0.403000
O241	O24	0.652600	0.005900	0.273400
O251	O25	0.011000	0.289900	0.316400
O261	O26	0.278500	0.264800	0.273800
O271	O27	0.162200	0.765400	0.276200
O281	O28	0.163700	0.857500	0.407000
O291	O29	0.343400	0.337400	0.478400
O301	O30	0.096600	0.250500	0.499600
O311	O31	0.359600	0.160200	0.517800
O321	O32	0.357100	0.334600	0.132800
O331	O33	0.226800	0.494100	0.086400
O341	O34	0.239100	0.612600	0.410000
O351	O35	0.673000	0.297700	0.405800
O361	O36	0.166900	0.457100	0.874200
