data_XARPAK_clean_PM
_symmetry_space_group_name_H-M	'P1'
_cell_length_a	6.686300
_cell_length_b	33.340000
_cell_length_c	11.325000
_cell_angle_alpha	90.000000
_cell_angle_beta	107.156000
_cell_angle_gamma	90.000000
_symmetry_Int_Tables_number 1

loop_
_symmetry_equiv_pos_as_xyz
'x,y,z'

loop_
_atom_site_label
_atom_site_type_symbol
_atom_site_fract_x
_atom_site_fract_y
_atom_site_fract_z
O11	O1	0.451600	0.951890	0.584700
O21	O2	0.105600	0.946860	0.555800
O31	O3	0.091700	0.534760	0.887300
O41	O4	0.781300	0.565320	0.810100
N11	N1	0.433800	0.770850	0.737400
N21	N2	0.385200	0.709430	0.781800
C11	C1	0.296300	0.740660	0.714000
H11	H1	0.158500	0.741400	0.658500
C21	C2	0.615700	0.758340	0.821600
H21	H2	0.738700	0.773900	0.853500
C31	C3	0.588900	0.720120	0.851000
H31	H3	0.688300	0.703600	0.907400
C41	C4	0.391600	0.810930	0.691000
C51	C5	0.540400	0.831300	0.653900
H41	H4	0.666800	0.818500	0.653100
C61	C6	0.503700	0.870780	0.617700
H51	H5	0.606000	0.885200	0.592000
C71	C7	0.319500	0.889580	0.618300
C81	C8	0.167700	0.868410	0.651500
H61	H6	0.038800	0.881000	0.648600
C91	C9	0.202400	0.828820	0.689300
H71	H7	0.099200	0.814200	0.713600
C101	C10	0.288300	0.933250	0.582300
C111	C11	0.288600	0.672010	0.791400
C121	C12	0.399000	0.637320	0.818700
H81	H8	0.545300	0.637400	0.829100
C131	C13	0.300600	0.601960	0.831400
H91	H9	0.380200	0.578100	0.853600
C141	C14	0.085600	0.601110	0.811800
C151	C15	0.970700	0.636490	0.776100
H101	H10	0.822500	0.636000	0.757200
C161	C16	0.071300	0.672060	0.768200
H111	H11	0.993900	0.696300	0.747200
C171	C17	0.977000	0.564260	0.837700
O51	O5	0.048400	0.451890	0.915300
O61	O6	0.394400	0.446860	0.944200
O71	O7	0.408300	0.034760	0.612700
O81	O8	0.718700	0.065320	0.689900
N31	N3	0.066200	0.270850	0.762600
N41	N4	0.114800	0.209430	0.718200
C181	C18	0.203700	0.240660	0.786000
H121	H12	0.341500	0.241400	0.841500
C191	C19	0.884300	0.258340	0.678400
H131	H13	0.761300	0.273900	0.646500
C201	C20	0.911100	0.220120	0.649000
H141	H14	0.811700	0.203600	0.592600
C211	C21	0.108400	0.310930	0.809000
C221	C22	0.959600	0.331300	0.846100
H151	H15	0.833200	0.318500	0.846900
C231	C23	0.996300	0.370780	0.882300
H161	H16	0.894000	0.385200	0.908000
C241	C24	0.180500	0.389580	0.881700
C251	C25	0.332300	0.368410	0.848500
H171	H17	0.461200	0.381000	0.851400
C261	C26	0.297600	0.328820	0.810700
H181	H18	0.400800	0.314200	0.786400
C271	C27	0.211700	0.433250	0.917700
C281	C28	0.211400	0.172010	0.708600
C291	C29	0.101000	0.137320	0.681300
H191	H19	0.954700	0.137400	0.670900
C301	C30	0.199400	0.101960	0.668600
H201	H20	0.119800	0.078100	0.646400
C311	C31	0.414400	0.101110	0.688200
C321	C32	0.529300	0.136490	0.723900
H211	H21	0.677500	0.136000	0.742800
C331	C33	0.428700	0.172060	0.731800
H221	H22	0.506100	0.196300	0.752800
C341	C34	0.523000	0.064260	0.662300
O91	O9	0.548400	0.048110	0.415300
O101	O10	0.894400	0.053140	0.444200
O111	O11	0.908300	0.465240	0.112700
O121	O12	0.218700	0.434680	0.189900
N51	N5	0.566200	0.229150	0.262600
N61	N6	0.614800	0.290570	0.218200
C351	C35	0.703700	0.259340	0.286000
H231	H23	0.841500	0.258600	0.341500
C361	C36	0.384300	0.241660	0.178400
H241	H24	0.261300	0.226100	0.146500
C371	C37	0.411100	0.279880	0.149000
H251	H25	0.311700	0.296400	0.092600
C381	C38	0.608400	0.189070	0.309000
C391	C39	0.459600	0.168700	0.346100
H261	H26	0.333200	0.181500	0.346900
C401	C40	0.496300	0.129220	0.382300
H271	H27	0.394000	0.114800	0.408000
C411	C41	0.680500	0.110420	0.381700
C421	C42	0.832300	0.131590	0.348500
H281	H28	0.961200	0.119000	0.351400
C431	C43	0.797600	0.171180	0.310700
H291	H29	0.900800	0.185800	0.286400
C441	C44	0.711700	0.066750	0.417700
C451	C45	0.711400	0.327990	0.208600
C461	C46	0.601000	0.362680	0.181300
H301	H30	0.454700	0.362600	0.170900
C471	C47	0.699400	0.398040	0.168600
H311	H31	0.619800	0.421900	0.146400
C481	C48	0.914400	0.398890	0.188200
C491	C49	0.029300	0.363510	0.223900
H321	H32	0.177500	0.364000	0.242800
C501	C50	0.928700	0.327940	0.231800
H331	H33	0.006100	0.303700	0.252800
C511	C51	0.023000	0.435740	0.162300
O131	O13	0.951600	0.548110	0.084700
O141	O14	0.605600	0.553140	0.055800
O151	O15	0.591700	0.965240	0.387300
O161	O16	0.281300	0.934680	0.310100
N71	N7	0.933800	0.729150	0.237400
N81	N8	0.885200	0.790570	0.281800
C521	C52	0.796300	0.759340	0.214000
H341	H34	0.658500	0.758600	0.158500
C531	C53	0.115700	0.741660	0.321600
H351	H35	0.238700	0.726100	0.353500
C541	C54	0.088900	0.779880	0.351000
H361	H36	0.188300	0.796400	0.407400
C551	C55	0.891600	0.689070	0.191000
C561	C56	0.040400	0.668700	0.153900
H371	H37	0.166800	0.681500	0.153100
C571	C57	0.003700	0.629220	0.117700
H381	H38	0.106000	0.614800	0.092000
C581	C58	0.819500	0.610420	0.118300
C591	C59	0.667700	0.631590	0.151500
H391	H39	0.538800	0.619000	0.148600
C601	C60	0.702400	0.671180	0.189300
H401	H40	0.599200	0.685800	0.213600
C611	C61	0.788300	0.566750	0.082300
C621	C62	0.788600	0.827990	0.291400
C631	C63	0.899000	0.862680	0.318700
H411	H41	0.045300	0.862600	0.329100
C641	C64	0.800600	0.898040	0.331400
H421	H42	0.880200	0.921900	0.353600
C651	C65	0.585600	0.898890	0.311800
C661	C66	0.470700	0.863510	0.276100
H431	H43	0.322500	0.864000	0.257200
C671	C67	0.571300	0.827940	0.268200
H441	H44	0.493900	0.803700	0.247200
C681	C68	0.477000	0.935740	0.337700
Cu11	Cu1	0.500000	0.000000	0.500000
Cu21	Cu2	0.000000	0.500000	0.000000
Cu31	Cu3	0.000000	0.000000	0.500000
Cu41	Cu4	0.500000	0.500000	0.000000
