data_XASPEP_clean_PM
_symmetry_space_group_name_H-M	'P1'
_cell_length_a	20.496800
_cell_length_b	20.496800
_cell_length_c	17.818300
_cell_angle_alpha	90.000000
_cell_angle_beta	90.000000
_cell_angle_gamma	90.000000
_symmetry_Int_Tables_number 1

loop_
_symmetry_equiv_pos_as_xyz
'x,y,z'

loop_
_atom_site_label
_atom_site_type_symbol
_atom_site_fract_x
_atom_site_fract_y
_atom_site_fract_z
Zn11	Zn1	0.257720	0.119060	0.859420
C11	C1	0.142100	0.215500	0.698900
C21	C2	0.143700	0.226200	0.622200
H11	H1	0.179600	0.209800	0.593200
C31	C3	0.094300	0.260800	0.587300
C41	C4	0.040900	0.283900	0.629700
H21	H2	0.007300	0.309200	0.605900
C51	C5	0.037500	0.270300	0.706500
C61	C6	0.088000	0.236300	0.740700
H31	H3	0.086000	0.226900	0.793400
C71	C7	0.197500	0.180100	0.736500
C81	C8	0.092500	0.271900	0.504000
C91	C9	0.978600	0.289700	0.749000
O11	O1	0.242010	0.159700	0.697000
O21	O2	0.192160	0.173100	0.807190
O31	O3	0.130100	0.236600	0.464400
O41	O4	0.054300	0.310900	0.476800
O51	O5	0.945650	0.337560	0.723100
O61	O6	0.965710	0.257200	0.807900
Zn21	Zn2	0.757720	0.619060	0.359420
C101	C10	0.642100	0.715500	0.198900
C111	C11	0.643700	0.726200	0.122200
H41	H4	0.679600	0.709800	0.093200
C121	C12	0.594300	0.760800	0.087300
C131	C13	0.540900	0.783900	0.129700
H51	H5	0.507300	0.809200	0.105900
C141	C14	0.537500	0.770300	0.206500
C151	C15	0.588000	0.736300	0.240700
H61	H6	0.586000	0.726900	0.293400
C161	C16	0.697500	0.680100	0.236500
C171	C17	0.592500	0.771900	0.004000
C181	C18	0.478600	0.789700	0.249000
O71	O7	0.742010	0.659700	0.197000
O81	O8	0.692160	0.673100	0.307190
O91	O9	0.630100	0.736600	0.964400
O101	O10	0.554300	0.810900	0.976800
O111	O11	0.445650	0.837560	0.223100
O121	O12	0.465710	0.757200	0.307900
Zn31	Zn3	0.742280	0.880940	0.859420
C191	C19	0.857900	0.784500	0.698900
C201	C20	0.856300	0.773800	0.622200
H71	H7	0.820400	0.790200	0.593200
C211	C21	0.905700	0.739200	0.587300
C221	C22	0.959100	0.716100	0.629700
H81	H8	0.992700	0.690800	0.605900
C231	C23	0.962500	0.729700	0.706500
C241	C24	0.912000	0.763700	0.740700
H91	H9	0.914000	0.773100	0.793400
C251	C25	0.802500	0.819900	0.736500
C261	C26	0.907500	0.728100	0.504000
C271	C27	0.021400	0.710300	0.749000
O131	O13	0.757990	0.840300	0.697000
O141	O14	0.807840	0.826900	0.807190
O151	O15	0.869900	0.763400	0.464400
O161	O16	0.945700	0.689100	0.476800
O171	O17	0.054350	0.662440	0.723100
O181	O18	0.034290	0.742800	0.807900
Zn41	Zn4	0.242280	0.380940	0.359420
C281	C28	0.357900	0.284500	0.198900
C291	C29	0.356300	0.273800	0.122200
H101	H10	0.320400	0.290200	0.093200
C301	C30	0.405700	0.239200	0.087300
C311	C31	0.459100	0.216100	0.129700
H111	H11	0.492700	0.190800	0.105900
C321	C32	0.462500	0.229700	0.206500
C331	C33	0.412000	0.263700	0.240700
H121	H12	0.414000	0.273100	0.293400
C341	C34	0.302500	0.319900	0.236500
C351	C35	0.407500	0.228100	0.004000
C361	C36	0.521400	0.210300	0.249000
O191	O19	0.257990	0.340300	0.197000
O201	O20	0.307840	0.326900	0.307190
O211	O21	0.369900	0.263400	0.964400
O221	O22	0.445700	0.189100	0.976800
O231	O23	0.554350	0.162440	0.223100
O241	O24	0.534290	0.242800	0.307900
Zn51	Zn5	0.880940	0.257720	0.859420
C371	C37	0.784500	0.142100	0.698900
C381	C38	0.773800	0.143700	0.622200
H131	H13	0.790200	0.179600	0.593200
C391	C39	0.739200	0.094300	0.587300
C401	C40	0.716100	0.040900	0.629700
H141	H14	0.690800	0.007300	0.605900
C411	C41	0.729700	0.037500	0.706500
C421	C42	0.763700	0.088000	0.740700
H151	H15	0.773100	0.086000	0.793400
C431	C43	0.819900	0.197500	0.736500
C441	C44	0.728100	0.092500	0.504000
C451	C45	0.710300	0.978600	0.749000
O251	O25	0.840300	0.242010	0.697000
O261	O26	0.826900	0.192160	0.807190
O271	O27	0.763400	0.130100	0.464400
O281	O28	0.689100	0.054300	0.476800
O291	O29	0.662440	0.945650	0.723100
O301	O30	0.742800	0.965710	0.807900
Zn61	Zn6	0.380940	0.757720	0.359420
C461	C46	0.284500	0.642100	0.198900
C471	C47	0.273800	0.643700	0.122200
H161	H16	0.290200	0.679600	0.093200
C481	C48	0.239200	0.594300	0.087300
C491	C49	0.216100	0.540900	0.129700
H171	H17	0.190800	0.507300	0.105900
C501	C50	0.229700	0.537500	0.206500
C511	C51	0.263700	0.588000	0.240700
H181	H18	0.273100	0.586000	0.293400
C521	C52	0.319900	0.697500	0.236500
C531	C53	0.228100	0.592500	0.004000
C541	C54	0.210300	0.478600	0.249000
O311	O31	0.340300	0.742010	0.197000
O321	O32	0.326900	0.692160	0.307190
O331	O33	0.263400	0.630100	0.964400
O341	O34	0.189100	0.554300	0.976800
O351	O35	0.162440	0.445650	0.223100
O361	O36	0.242800	0.465710	0.307900
Zn71	Zn7	0.119060	0.742280	0.859420
C551	C55	0.215500	0.857900	0.698900
C561	C56	0.226200	0.856300	0.622200
H191	H19	0.209800	0.820400	0.593200
C571	C57	0.260800	0.905700	0.587300
C581	C58	0.283900	0.959100	0.629700
H201	H20	0.309200	0.992700	0.605900
C591	C59	0.270300	0.962500	0.706500
C601	C60	0.236300	0.912000	0.740700
H211	H21	0.226900	0.914000	0.793400
C611	C61	0.180100	0.802500	0.736500
C621	C62	0.271900	0.907500	0.504000
C631	C63	0.289700	0.021400	0.749000
O371	O37	0.159700	0.757990	0.697000
O381	O38	0.173100	0.807840	0.807190
O391	O39	0.236600	0.869900	0.464400
O401	O40	0.310900	0.945700	0.476800
O411	O41	0.337560	0.054350	0.723100
O421	O42	0.257200	0.034290	0.807900
Zn81	Zn8	0.619060	0.242280	0.359420
C641	C64	0.715500	0.357900	0.198900
C651	C65	0.726200	0.356300	0.122200
H221	H22	0.709800	0.320400	0.093200
C661	C66	0.760800	0.405700	0.087300
C671	C67	0.783900	0.459100	0.129700
H231	H23	0.809200	0.492700	0.105900
C681	C68	0.770300	0.462500	0.206500
C691	C69	0.736300	0.412000	0.240700
H241	H24	0.726900	0.414000	0.293400
C701	C70	0.680100	0.302500	0.236500
C711	C71	0.771900	0.407500	0.004000
C721	C72	0.789700	0.521400	0.249000
O431	O43	0.659700	0.257990	0.197000
O441	O44	0.673100	0.307840	0.307190
O451	O45	0.736600	0.369900	0.964400
O461	O46	0.810900	0.445700	0.976800
O471	O47	0.837560	0.554350	0.223100
O481	O48	0.757200	0.534290	0.307900
Zn91	Zn9	0.257720	0.880940	0.359420
C731	C73	0.142100	0.784500	0.198900
C741	C74	0.143700	0.773800	0.122200
H251	H25	0.179600	0.790200	0.093200
C751	C75	0.094300	0.739200	0.087300
C761	C76	0.040900	0.716100	0.129700
H261	H26	0.007300	0.690800	0.105900
C771	C77	0.037500	0.729700	0.206500
C781	C78	0.088000	0.763700	0.240700
H271	H27	0.086000	0.773100	0.293400
C791	C79	0.197500	0.819900	0.236500
C801	C80	0.092500	0.728100	0.004000
C811	C81	0.978600	0.710300	0.249000
O491	O49	0.242010	0.840300	0.197000
O501	O50	0.192160	0.826900	0.307190
O511	O51	0.130100	0.763400	0.964400
O521	O52	0.054300	0.689100	0.976800
O531	O53	0.945650	0.662440	0.223100
O541	O54	0.965710	0.742800	0.307900
Zn101	Zn10	0.757720	0.380940	0.859420
C821	C82	0.642100	0.284500	0.698900
C831	C83	0.643700	0.273800	0.622200
H281	H28	0.679600	0.290200	0.593200
C841	C84	0.594300	0.239200	0.587300
C851	C85	0.540900	0.216100	0.629700
H291	H29	0.507300	0.190800	0.605900
C861	C86	0.537500	0.229700	0.706500
C871	C87	0.588000	0.263700	0.740700
H301	H30	0.586000	0.273100	0.793400
C881	C88	0.697500	0.319900	0.736500
C891	C89	0.592500	0.228100	0.504000
C901	C90	0.478600	0.210300	0.749000
O551	O55	0.742010	0.340300	0.697000
O561	O56	0.692160	0.326900	0.807190
O571	O57	0.630100	0.263400	0.464400
O581	O58	0.554300	0.189100	0.476800
O591	O59	0.445650	0.162440	0.723100
O601	O60	0.465710	0.242800	0.807900
Zn111	Zn11	0.742280	0.119060	0.359420
C911	C91	0.857900	0.215500	0.198900
C921	C92	0.856300	0.226200	0.122200
H311	H31	0.820400	0.209800	0.093200
C931	C93	0.905700	0.260800	0.087300
C941	C94	0.959100	0.283900	0.129700
H321	H32	0.992700	0.309200	0.105900
C951	C95	0.962500	0.270300	0.206500
C961	C96	0.912000	0.236300	0.240700
H331	H33	0.914000	0.226900	0.293400
C971	C97	0.802500	0.180100	0.236500
C981	C98	0.907500	0.271900	0.004000
C991	C99	0.021400	0.289700	0.249000
O611	O61	0.757990	0.159700	0.197000
O621	O62	0.807840	0.173100	0.307190
O631	O63	0.869900	0.236600	0.964400
O641	O64	0.945700	0.310900	0.976800
O651	O65	0.054350	0.337560	0.223100
O661	O66	0.034290	0.257200	0.307900
Zn121	Zn12	0.242280	0.619060	0.859420
C1001	C100	0.357900	0.715500	0.698900
C1011	C101	0.356300	0.726200	0.622200
H341	H34	0.320400	0.709800	0.593200
C1021	C102	0.405700	0.760800	0.587300
C1031	C103	0.459100	0.783900	0.629700
H351	H35	0.492700	0.809200	0.605900
C1041	C104	0.462500	0.770300	0.706500
C1051	C105	0.412000	0.736300	0.740700
H361	H36	0.414000	0.726900	0.793400
C1061	C106	0.302500	0.680100	0.736500
C1071	C107	0.407500	0.771900	0.504000
C1081	C108	0.521400	0.789700	0.749000
O671	O67	0.257990	0.659700	0.697000
O681	O68	0.307840	0.673100	0.807190
O691	O69	0.369900	0.736600	0.464400
O701	O70	0.445700	0.810900	0.476800
O711	O71	0.554350	0.837560	0.723100
O721	O72	0.534290	0.757200	0.807900
Zn131	Zn13	0.880940	0.742280	0.359420
C1091	C109	0.784500	0.857900	0.198900
C1101	C110	0.773800	0.856300	0.122200
H371	H37	0.790200	0.820400	0.093200
C1111	C111	0.739200	0.905700	0.087300
C1121	C112	0.716100	0.959100	0.129700
H381	H38	0.690800	0.992700	0.105900
C1131	C113	0.729700	0.962500	0.206500
C1141	C114	0.763700	0.912000	0.240700
H391	H39	0.773100	0.914000	0.293400
C1151	C115	0.819900	0.802500	0.236500
C1161	C116	0.728100	0.907500	0.004000
C1171	C117	0.710300	0.021400	0.249000
O731	O73	0.840300	0.757990	0.197000
O741	O74	0.826900	0.807840	0.307190
O751	O75	0.763400	0.869900	0.964400
O761	O76	0.689100	0.945700	0.976800
O771	O77	0.662440	0.054350	0.223100
O781	O78	0.742800	0.034290	0.307900
Zn141	Zn14	0.380940	0.242280	0.859420
C1181	C118	0.284500	0.357900	0.698900
C1191	C119	0.273800	0.356300	0.622200
H401	H40	0.290200	0.320400	0.593200
C1201	C120	0.239200	0.405700	0.587300
C1211	C121	0.216100	0.459100	0.629700
H411	H41	0.190800	0.492700	0.605900
C1221	C122	0.229700	0.462500	0.706500
C1231	C123	0.263700	0.412000	0.740700
H421	H42	0.273100	0.414000	0.793400
C1241	C124	0.319900	0.302500	0.736500
C1251	C125	0.228100	0.407500	0.504000
C1261	C126	0.210300	0.521400	0.749000
O791	O79	0.340300	0.257990	0.697000
O801	O80	0.326900	0.307840	0.807190
O811	O81	0.263400	0.369900	0.464400
O821	O82	0.189100	0.445700	0.476800
O831	O83	0.162440	0.554350	0.723100
O841	O84	0.242800	0.534290	0.807900
Zn151	Zn15	0.119060	0.257720	0.359420
C1271	C127	0.215500	0.142100	0.198900
C1281	C128	0.226200	0.143700	0.122200
H431	H43	0.209800	0.179600	0.093200
C1291	C129	0.260800	0.094300	0.087300
C1301	C130	0.283900	0.040900	0.129700
H441	H44	0.309200	0.007300	0.105900
C1311	C131	0.270300	0.037500	0.206500
C1321	C132	0.236300	0.088000	0.240700
H451	H45	0.226900	0.086000	0.293400
C1331	C133	0.180100	0.197500	0.236500
C1341	C134	0.271900	0.092500	0.004000
C1351	C135	0.289700	0.978600	0.249000
O851	O85	0.159700	0.242010	0.197000
O861	O86	0.173100	0.192160	0.307190
O871	O87	0.236600	0.130100	0.964400
O881	O88	0.310900	0.054300	0.976800
O891	O89	0.337560	0.945650	0.223100
O901	O90	0.257200	0.965710	0.307900
Zn161	Zn16	0.619060	0.757720	0.859420
C1361	C136	0.715500	0.642100	0.698900
C1371	C137	0.726200	0.643700	0.622200
H461	H46	0.709800	0.679600	0.593200
C1381	C138	0.760800	0.594300	0.587300
C1391	C139	0.783900	0.540900	0.629700
H471	H47	0.809200	0.507300	0.605900
C1401	C140	0.770300	0.537500	0.706500
C1411	C141	0.736300	0.588000	0.740700
H481	H48	0.726900	0.586000	0.793400
C1421	C142	0.680100	0.697500	0.736500
C1431	C143	0.771900	0.592500	0.504000
C1441	C144	0.789700	0.478600	0.749000
O911	O91	0.659700	0.742010	0.697000
O921	O92	0.673100	0.692160	0.807190
O931	O93	0.736600	0.630100	0.464400
O941	O94	0.810900	0.554300	0.476800
O951	O95	0.837560	0.445650	0.723100
O961	O96	0.757200	0.465710	0.807900
Zn171	Zn17	0.344430	0.155570	0.713670
O971	O97	0.340700	0.159300	0.831400
Zn181	Zn18	0.655570	0.844430	0.713670
O981	O98	0.659300	0.840700	0.831400
Zn191	Zn19	0.155570	0.344430	0.213670
O991	O99	0.159300	0.340700	0.331400
Zn201	Zn20	0.844430	0.344430	0.713670
O1001	O100	0.840700	0.340700	0.831400
Zn211	Zn21	0.155570	0.655570	0.713670
O1011	O101	0.159300	0.659300	0.831400
Zn221	Zn22	0.344430	0.844430	0.213670
O1021	O102	0.340700	0.840700	0.331400
Zn231	Zn23	0.655570	0.155570	0.213670
O1031	O103	0.659300	0.159300	0.331400
Zn241	Zn24	0.844430	0.655570	0.213670
O1041	O104	0.840700	0.659300	0.331400
