data_XATZOK_clean_PM
_symmetry_space_group_name_H-M	'P1'
_cell_length_a	14.150400
_cell_length_b	19.257000
_cell_length_c	19.430000
_cell_angle_alpha	69.873000
_cell_angle_beta	82.011000
_cell_angle_gamma	75.484000
_symmetry_Int_Tables_number 1

loop_
_symmetry_equiv_pos_as_xyz
'x,y,z'

loop_
_atom_site_label
_atom_site_type_symbol
_atom_site_fract_x
_atom_site_fract_y
_atom_site_fract_z
Zn11	Zn1	0.141620	0.694820	0.074920
Zn21	Zn2	0.646480	0.878530	0.710090
Zn31	Zn3	0.650160	0.473370	0.427770
C11	C1	0.749000	0.871240	0.837510
H11	H1	0.692100	0.905300	0.844600
O11	O1	0.693930	0.794880	0.667660
O21	O2	0.544880	0.844420	0.627350
O31	O3	0.658500	0.971340	0.630650
C21	C2	0.384900	0.590090	0.318220
H21	H2	0.332600	0.628600	0.323700
C31	C3	0.458100	0.559150	0.367440
H31	H3	0.454400	0.578200	0.405900
C41	C4	0.538600	0.474780	0.306880
H41	H4	0.589900	0.434900	0.303200
O41	O4	0.607320	0.554350	0.473050
O51	O5	0.757250	0.506030	0.512970
C51	C5	0.744600	0.630290	0.564370
H51	H5	0.806700	0.600500	0.560800
O61	O6	0.657240	0.374780	0.502400
O71	O7	0.703800	0.336040	0.405710
C61	C6	0.696100	0.184900	0.493200
H61	H6	0.721100	0.192600	0.444900
C71	C7	0.904100	0.793650	0.880450
N11	N1	0.148390	0.746720	0.961860
C81	C8	0.398800	0.785760	0.889920
C91	C9	0.475800	0.887690	0.822730
H71	H7	0.479600	0.937900	0.811800
N21	N2	0.539680	0.844550	0.787130
N31	N3	0.760670	0.849770	0.777590
C101	C10	0.559800	0.720000	0.573120
C111	C11	0.730400	0.688100	0.594020
C121	C12	0.633300	0.022300	0.658600
C131	C13	0.646700	0.101640	0.608940
N41	N4	0.292370	0.673050	0.072580
C141	C14	0.392000	0.561540	0.259780
N51	N5	0.534960	0.502320	0.362130
C151	C15	0.468600	0.503660	0.255140
H81	H8	0.473800	0.483600	0.217200
N61	N6	0.144550	0.614650	0.178800
C161	C16	0.897200	0.571440	0.248690
N71	N7	0.754690	0.510000	0.349360
C171	C17	0.664400	0.617130	0.539870
C181	C18	0.573200	0.663500	0.543950
H91	H9	0.520200	0.655700	0.526400
C191	C19	0.670900	0.244320	0.520950
C201	C20	0.827600	0.467050	0.324820
H101	H10	0.830600	0.415200	0.340500
C211	C21	0.943800	0.646100	0.123860
C221	C22	0.850900	0.654500	0.096740
H111	H11	0.799000	0.634100	0.123800
C231	C23	0.851800	0.697400	0.025010
H121	H12	0.801600	0.711300	0.993500
C241	C24	0.946200	0.717420	0.007050
C251	C25	0.978600	0.760200	0.937230
C261	C26	0.819500	0.844100	0.889560
C271	C27	0.071400	0.773540	0.916070
C281	C28	0.104800	0.817810	0.844640
H131	H13	0.067200	0.842500	0.804000
C291	C29	0.199500	0.817330	0.846890
H141	H14	0.239300	0.841700	0.808700
C301	C30	0.227100	0.771260	0.920520
C311	C31	0.321300	0.753210	0.945080
C321	C32	0.405800	0.860730	0.874070
H151	H15	0.363700	0.891800	0.898000
C331	C33	0.844100	0.801910	0.766640
H161	H16	0.853300	0.787400	0.724800
C341	C34	0.622300	0.796150	0.632560
C351	C35	0.637800	0.733370	0.599340
C361	C36	0.620500	0.161600	0.635300
C371	C37	0.684100	0.113100	0.537900
C381	C38	0.533500	0.773100	0.804370
H171	H17	0.577800	0.742100	0.781400
C391	C39	0.464400	0.742840	0.854800
H181	H18	0.462500	0.692300	0.865000
C401	C40	0.351900	0.706320	0.014890
C411	C41	0.449700	0.687250	0.038160
H191	H19	0.503800	0.702500	0.009500
C421	C42	0.448800	0.643070	0.109430
H201	H20	0.502100	0.621900	0.138700
C431	C43	0.349500	0.634990	0.131390
C441	C44	0.316300	0.596830	0.202200
C451	C45	0.220600	0.588380	0.225070
C461	C46	0.064600	0.590310	0.221030
C471	C47	0.973700	0.603630	0.195040
C481	C48	0.815200	0.617800	0.270720
H211	H21	0.806100	0.670300	0.251600
C491	C49	0.746900	0.584460	0.321840
H221	H22	0.693300	0.615800	0.337500
C501	C50	0.679600	0.554290	0.507410
C511	C51	0.678400	0.323410	0.472520
C521	C52	0.632700	0.233860	0.592000
H231	H23	0.615400	0.274000	0.610700
C531	C53	0.902100	0.495300	0.275620
H241	H24	0.954800	0.462200	0.261400
C541	C54	0.091900	0.549110	0.295980
H251	H25	0.051300	0.527700	0.335300
C551	C55	0.188200	0.547800	0.297810
H261	H26	0.225900	0.524900	0.338600
N81	N8	0.002080	0.684330	0.067370
O81	O8	0.598870	0.013610	0.724180
C561	C56	0.916400	0.773900	0.816330
H271	H27	0.738000	0.083000	0.510000
H281	H28	0.766000	0.698300	0.613700
H291	H29	0.965000	0.738800	0.805200
H301	H30	0.494000	0.745000	0.581000
H311	H31	0.804000	0.856200	0.929800
H321	H32	0.592000	0.163200	0.673100
Zn41	Zn4	0.858380	0.305180	0.925080
Zn51	Zn5	0.353520	0.121470	0.289910
Zn61	Zn6	0.349840	0.526630	0.572230
C571	C57	0.251000	0.128760	0.162490
H331	H33	0.307900	0.094700	0.155400
O91	O9	0.306070	0.205120	0.332340
O101	O10	0.455120	0.155580	0.372650
O111	O11	0.341500	0.028660	0.369350
C581	C58	0.615100	0.409910	0.681780
H341	H34	0.667400	0.371400	0.676300
C591	C59	0.541900	0.440850	0.632560
H351	H35	0.545600	0.421800	0.594100
C601	C60	0.461400	0.525220	0.693120
H361	H36	0.410100	0.565100	0.696800
O121	O12	0.392680	0.445650	0.526950
O131	O13	0.242750	0.493970	0.487030
C611	C61	0.255400	0.369710	0.435630
H371	H37	0.193300	0.399500	0.439200
O141	O14	0.342760	0.625220	0.497600
O151	O15	0.296200	0.663960	0.594290
C621	C62	0.303900	0.815100	0.506800
H381	H38	0.278900	0.807400	0.555100
C631	C63	0.095900	0.206350	0.119550
N91	N9	0.851610	0.253280	0.038140
C641	C64	0.601200	0.214240	0.110080
C651	C65	0.524200	0.112310	0.177270
H391	H39	0.520400	0.062100	0.188200
N101	N10	0.460320	0.155450	0.212870
N111	N11	0.239330	0.150230	0.222410
C661	C66	0.440200	0.280000	0.426880
C671	C67	0.269600	0.311900	0.405980
C681	C68	0.366700	0.977700	0.341400
C691	C69	0.353300	0.898360	0.391060
N121	N12	0.707630	0.326950	0.927420
C701	C70	0.608000	0.438460	0.740220
N131	N13	0.465040	0.497680	0.637870
C711	C71	0.531400	0.496340	0.744860
H401	H40	0.526200	0.516400	0.782800
N141	N14	0.855450	0.385350	0.821200
C721	C72	0.102800	0.428560	0.751310
N151	N15	0.245310	0.490000	0.650640
C731	C73	0.335600	0.382870	0.460130
C741	C74	0.426800	0.336500	0.456050
H411	H41	0.479800	0.344300	0.473600
C751	C75	0.329100	0.755680	0.479050
C761	C76	0.172400	0.532950	0.675180
H421	H42	0.169400	0.584800	0.659500
C771	C77	0.056200	0.353900	0.876140
C781	C78	0.149100	0.345500	0.903260
H431	H43	0.201000	0.365900	0.876200
C791	C79	0.148200	0.302600	0.974990
H441	H44	0.198400	0.288700	0.006500
C801	C80	0.053800	0.282580	0.992950
C811	C81	0.021400	0.239800	0.062770
C821	C82	0.180500	0.155900	0.110440
C831	C83	0.928600	0.226460	0.083930
C841	C84	0.895200	0.182190	0.155360
H451	H45	0.932800	0.157500	0.196000
C851	C85	0.800500	0.182670	0.153110
H461	H46	0.760700	0.158300	0.191300
C861	C86	0.772900	0.228740	0.079480
C871	C87	0.678700	0.246790	0.054920
C881	C88	0.594200	0.139270	0.125930
H471	H47	0.636300	0.108200	0.102000
C891	C89	0.155900	0.198090	0.233360
H481	H48	0.146700	0.212600	0.275200
C901	C90	0.377700	0.203850	0.367440
C911	C91	0.362200	0.266630	0.400660
C921	C92	0.379500	0.838400	0.364700
C931	C93	0.315900	0.886900	0.462100
C941	C94	0.466500	0.226900	0.195630
H491	H49	0.422200	0.257900	0.218600
C951	C95	0.535600	0.257160	0.145200
H501	H50	0.537500	0.307700	0.135000
C961	C96	0.648100	0.293680	0.985110
C971	C97	0.550300	0.312750	0.961840
H511	H51	0.496200	0.297500	0.990500
C981	C98	0.551200	0.356930	0.890570
H521	H52	0.497900	0.378100	0.861300
C991	C99	0.650500	0.365010	0.868610
C1001	C100	0.683700	0.403170	0.797800
C1011	C101	0.779400	0.411620	0.774930
C1021	C102	0.935400	0.409690	0.778970
C1031	C103	0.026300	0.396370	0.804960
C1041	C104	0.184800	0.382200	0.729280
H531	H53	0.193900	0.329700	0.748400
C1051	C105	0.253100	0.415540	0.678160
H541	H54	0.306700	0.384200	0.662500
C1061	C106	0.320400	0.445710	0.492590
C1071	C107	0.321600	0.676590	0.527480
C1081	C108	0.367300	0.766140	0.408000
H551	H55	0.384600	0.726000	0.389300
C1091	C109	0.097900	0.504700	0.724380
H561	H56	0.045200	0.537800	0.738600
C1101	C110	0.908100	0.450890	0.704020
H571	H57	0.948700	0.472300	0.664700
C1111	C111	0.811800	0.452200	0.702190
H581	H58	0.774100	0.475100	0.661400
N161	N16	0.997920	0.315670	0.932630
O161	O16	0.401130	0.986390	0.275820
C1121	C112	0.083600	0.226100	0.183670
H591	H59	0.262000	0.917000	0.490000
H601	H60	0.234000	0.301700	0.386300
H611	H61	0.035000	0.261200	0.194800
H621	H62	0.506000	0.255000	0.419000
H631	H63	0.196000	0.143800	0.070200
H641	H64	0.408000	0.836800	0.326900
