data_XAVDUV_clean_PM
_symmetry_space_group_name_H-M	'P1'
_cell_length_a	20.276000
_cell_length_b	7.532300
_cell_length_c	6.760000
_cell_angle_alpha	90.000000
_cell_angle_beta	100.720000
_cell_angle_gamma	90.000000
_symmetry_Int_Tables_number 1

loop_
_symmetry_equiv_pos_as_xyz
'x,y,z'

loop_
_atom_site_label
_atom_site_type_symbol
_atom_site_fract_x
_atom_site_fract_y
_atom_site_fract_z
Al11	Al1	0.998720	0.000200	0.998700
O11	O1	0.999800	0.889900	0.744500
O21	O2	0.215030	0.220640	0.193010
O31	O3	0.280830	0.268440	0.252010
C11	C1	0.079200	0.121710	0.062190
C21	C2	0.417350	0.367370	0.365330
C31	C3	0.188840	0.196730	0.992380
C41	C4	0.228460	0.220640	0.850750
C51	C5	0.294270	0.268440	0.909740
C61	C6	0.320450	0.292350	0.110370
C71	C7	0.116790	0.144390	0.927800
C81	C8	0.091950	0.121710	0.737420
C91	C9	0.392500	0.344690	0.174960
C101	C10	0.430100	0.367370	0.040560
Al21	Al2	0.498720	0.500200	0.998700
O41	O4	0.499800	0.389900	0.744500
O51	O5	0.715030	0.720640	0.193010
O61	O6	0.780830	0.768440	0.252010
C111	C11	0.579200	0.621710	0.062190
C121	C12	0.917350	0.867370	0.365330
C131	C13	0.688840	0.696730	0.992380
C141	C14	0.728460	0.720640	0.850750
C151	C15	0.794270	0.768440	0.909740
C161	C16	0.820450	0.792350	0.110370
C171	C17	0.616790	0.644390	0.927800
C181	C18	0.591950	0.621710	0.737420
C191	C19	0.892500	0.844690	0.174960
C201	C20	0.930100	0.867370	0.040560
Al31	Al3	0.998720	0.999800	0.498700
O71	O7	0.999800	0.110100	0.244500
O81	O8	0.215030	0.779360	0.693010
O91	O9	0.280830	0.731560	0.752010
C211	C21	0.079200	0.878290	0.562190
C221	C22	0.417350	0.632630	0.865330
C231	C23	0.188840	0.803270	0.492380
C241	C24	0.228460	0.779360	0.350750
C251	C25	0.294270	0.731560	0.409740
C261	C26	0.320450	0.707650	0.610370
C271	C27	0.116790	0.855610	0.427800
C281	C28	0.091950	0.878290	0.237420
C291	C29	0.392500	0.655310	0.674960
C301	C30	0.430100	0.632630	0.540560
Al41	Al4	0.498720	0.499800	0.498700
O101	O10	0.499800	0.610100	0.244500
O111	O11	0.715030	0.279360	0.693010
O121	O12	0.780830	0.231560	0.752010
C311	C31	0.579200	0.378290	0.562190
C321	C32	0.917350	0.132630	0.865330
C331	C33	0.688840	0.303270	0.492380
C341	C34	0.728460	0.279360	0.350750
C351	C35	0.794270	0.231560	0.409740
C361	C36	0.820450	0.207650	0.610370
C371	C37	0.616790	0.355610	0.427800
C381	C38	0.591950	0.378290	0.237420
C391	C39	0.892500	0.155310	0.674960
C401	C40	0.930100	0.132630	0.540560
