data_XAVFEH_clean_PM
_symmetry_space_group_name_H-M	'P1'
_cell_length_a	19.806000
_cell_length_b	7.366000
_cell_length_c	7.055000
_cell_angle_alpha	90.000000
_cell_angle_beta	104.360000
_cell_angle_gamma	90.000000
_symmetry_Int_Tables_number 1

loop_
_symmetry_equiv_pos_as_xyz
'x,y,z'

loop_
_atom_site_label
_atom_site_type_symbol
_atom_site_fract_x
_atom_site_fract_y
_atom_site_fract_z
Al11	Al1	0.998720	0.000200	0.998700
O11	O1	0.999800	0.889900	0.744500
O21	O2	0.220000	0.220000	0.190000
O31	O3	0.290000	0.270000	0.250000
C11	C1	0.070000	0.120000	0.060000
C21	C2	0.930000	0.130000	0.860000
C31	C3	0.190000	0.200000	0.990000
C41	C4	0.220000	0.220000	0.860000
C51	C5	0.290000	0.270000	0.910000
C61	C6	0.320000	0.290000	0.110000
C71	C7	0.110000	0.140000	0.930000
C81	C8	0.080000	0.880000	0.250000
C91	C9	0.900000	0.150000	0.670000
C101	C10	0.930000	0.870000	0.040000
Al21	Al2	0.498720	0.500200	0.998700
O41	O4	0.499800	0.389900	0.744500
O51	O5	0.720000	0.720000	0.190000
O61	O6	0.790000	0.770000	0.250000
C111	C11	0.570000	0.620000	0.060000
C121	C12	0.430000	0.630000	0.860000
C131	C13	0.690000	0.700000	0.990000
C141	C14	0.720000	0.720000	0.860000
C151	C15	0.790000	0.770000	0.910000
C161	C16	0.820000	0.790000	0.110000
C171	C17	0.610000	0.640000	0.930000
C181	C18	0.580000	0.380000	0.250000
C191	C19	0.400000	0.650000	0.670000
C201	C20	0.430000	0.370000	0.040000
Al31	Al3	0.998720	0.999800	0.498700
O71	O7	0.999800	0.110100	0.244500
O81	O8	0.220000	0.780000	0.690000
O91	O9	0.290000	0.730000	0.750000
C211	C21	0.070000	0.880000	0.560000
C221	C22	0.930000	0.870000	0.360000
C231	C23	0.190000	0.800000	0.490000
C241	C24	0.220000	0.780000	0.360000
C251	C25	0.290000	0.730000	0.410000
C261	C26	0.320000	0.710000	0.610000
C271	C27	0.110000	0.860000	0.430000
C281	C28	0.080000	0.120000	0.750000
C291	C29	0.900000	0.850000	0.170000
C301	C30	0.930000	0.130000	0.540000
Al41	Al4	0.498720	0.499800	0.498700
O101	O10	0.499800	0.610100	0.244500
O111	O11	0.720000	0.280000	0.690000
O121	O12	0.790000	0.230000	0.750000
C311	C31	0.570000	0.380000	0.560000
C321	C32	0.430000	0.370000	0.360000
C331	C33	0.690000	0.300000	0.490000
C341	C34	0.720000	0.280000	0.360000
C351	C35	0.790000	0.230000	0.410000
C361	C36	0.820000	0.210000	0.610000
C371	C37	0.610000	0.360000	0.430000
C381	C38	0.580000	0.620000	0.750000
C391	C39	0.400000	0.350000	0.170000
C401	C40	0.430000	0.630000	0.540000
