data_XAVQIU_clean_PM
_symmetry_space_group_name_H-M	'P1'
_cell_length_a	10.124000
_cell_length_b	10.281000
_cell_length_c	16.330000
_cell_angle_alpha	90.000000
_cell_angle_beta	95.340000
_cell_angle_gamma	90.000000
_symmetry_Int_Tables_number 1

loop_
_symmetry_equiv_pos_as_xyz
'x,y,z'

loop_
_atom_site_label
_atom_site_type_symbol
_atom_site_fract_x
_atom_site_fract_y
_atom_site_fract_z
Co11	Co1	0.226910	0.753970	0.077560
Co21	Co2	0.773090	0.253970	0.422440
Co31	Co3	0.773090	0.246030	0.922440
Co41	Co4	0.226910	0.746030	0.577560
Co51	Co5	0.000000	0.500000	0.500000
Co61	Co6	0.000000	0.000000	0.000000
H11	H1	0.326200	0.270400	0.419900
H21	H2	0.431600	0.061400	0.238800
H31	H3	0.054600	0.143400	0.247700
H41	H4	0.673800	0.770400	0.080100
H51	H5	0.568400	0.561400	0.261200
H61	H6	0.945400	0.643400	0.252300
H71	H7	0.673800	0.729600	0.580100
H81	H8	0.568400	0.938600	0.761200
H91	H9	0.945400	0.856600	0.752300
H101	H10	0.326200	0.229600	0.919900
H111	H11	0.431600	0.438600	0.738800
H121	H12	0.054600	0.356600	0.747700
C11	C1	0.138600	0.148300	0.271700
C21	C2	0.302600	0.227500	0.374200
C31	C3	0.171000	0.217500	0.343800
C41	C4	0.402900	0.169500	0.334900
C51	C5	0.200900	0.016300	0.151600
C61	C6	0.064300	0.279900	0.389300
C71	C7	0.545300	0.187600	0.367000
C81	C8	0.368700	0.099100	0.263000
C91	C9	0.237500	0.089700	0.230500
C101	C10	0.861400	0.648300	0.228300
C111	C11	0.697400	0.727500	0.125800
C121	C12	0.829000	0.717500	0.156200
C131	C13	0.597100	0.669500	0.165100
C141	C14	0.799100	0.516300	0.348400
C151	C15	0.935700	0.779900	0.110700
C161	C16	0.454700	0.687600	0.133000
C171	C17	0.631300	0.599100	0.237000
C181	C18	0.762500	0.589700	0.269500
C191	C19	0.861400	0.851700	0.728300
C201	C20	0.697400	0.772500	0.625800
C211	C21	0.829000	0.782500	0.656200
C221	C22	0.597100	0.830500	0.665100
C231	C23	0.799100	0.983700	0.848400
C241	C24	0.935700	0.720100	0.610700
C251	C25	0.454700	0.812400	0.633000
C261	C26	0.631300	0.900900	0.737000
C271	C27	0.762500	0.910300	0.769500
C281	C28	0.138600	0.351700	0.771700
C291	C29	0.302600	0.272500	0.874200
C301	C30	0.171000	0.282500	0.843800
C311	C31	0.402900	0.330500	0.834900
C321	C32	0.200900	0.483700	0.651600
C331	C33	0.064300	0.220100	0.889300
C341	C34	0.545300	0.312400	0.867000
C351	C35	0.368700	0.400900	0.763000
C361	C36	0.237500	0.410300	0.730500
O11	O1	0.279300	0.928900	0.132800
O21	O2	0.103500	0.360200	0.444700
O31	O3	0.637700	0.161500	0.323100
O41	O4	0.946600	0.246700	0.368400
O51	O5	0.569200	0.231900	0.439700
O61	O6	0.094300	0.049900	0.112100
O71	O7	0.720700	0.428900	0.367200
O81	O8	0.896500	0.860200	0.055300
O91	O9	0.362300	0.661500	0.176900
O101	O10	0.053400	0.746700	0.131600
O111	O11	0.430800	0.731900	0.060300
O121	O12	0.905700	0.549900	0.387900
O131	O13	0.720700	0.071100	0.867200
O141	O14	0.896500	0.639800	0.555300
O151	O15	0.362300	0.838500	0.676900
O161	O16	0.053400	0.753300	0.631600
O171	O17	0.430800	0.768100	0.560300
O181	O18	0.905700	0.950100	0.887900
O191	O19	0.279300	0.571100	0.632800
O201	O20	0.103500	0.139800	0.944700
O211	O21	0.637700	0.338500	0.823100
O221	O22	0.946600	0.253300	0.868400
O231	O23	0.569200	0.268100	0.939700
O241	O24	0.094300	0.450100	0.612100
