data_XAWVUN_clean_PM
_symmetry_space_group_name_H-M	'P1'
_cell_length_a	15.256300
_cell_length_b	16.069900
_cell_length_c	23.593700
_cell_angle_alpha	90.000000
_cell_angle_beta	90.000000
_cell_angle_gamma	118.339000
_symmetry_Int_Tables_number 1

loop_
_symmetry_equiv_pos_as_xyz
'x,y,z'

loop_
_atom_site_label
_atom_site_type_symbol
_atom_site_fract_x
_atom_site_fract_y
_atom_site_fract_z
Cu11	Cu1	0.534320	0.438240	0.500000
Cu21	Cu2	0.465680	0.561760	0.500000
Cu31	Cu3	0.903920	0.438240	0.000000
Cu41	Cu4	0.096080	0.561760	0.000000
H11	H1	0.655600	0.752000	0.630100
H21	H2	0.766500	0.833400	0.702700
H31	H3	0.871200	0.648600	0.697400
H41	H4	0.757800	0.564600	0.628400
H51	H5	0.965300	0.919200	0.665700
H61	H6	0.344400	0.248000	0.630100
H71	H7	0.233500	0.166600	0.702700
H81	H8	0.128800	0.351400	0.697400
H91	H9	0.242200	0.435400	0.628400
H101	H10	0.034700	0.080800	0.665700
H111	H11	0.096400	0.752000	0.869900
H121	H12	0.066900	0.833400	0.797300
H131	H13	0.777400	0.648600	0.802600
H141	H14	0.806800	0.564600	0.871600
H151	H15	0.953900	0.919200	0.834300
H161	H16	0.903600	0.248000	0.869900
H171	H17	0.933100	0.166600	0.797300
H181	H18	0.222600	0.351400	0.802600
H191	H19	0.193200	0.435400	0.871600
H201	H20	0.046100	0.080800	0.834300
H211	H21	0.344400	0.248000	0.369900
H221	H22	0.233500	0.166600	0.297300
H231	H23	0.128800	0.351400	0.302600
H241	H24	0.242200	0.435400	0.371600
H251	H25	0.034700	0.080800	0.334300
H261	H26	0.655600	0.752000	0.369900
H271	H27	0.766500	0.833400	0.297300
H281	H28	0.871200	0.648600	0.302600
H291	H29	0.757800	0.564600	0.371600
H301	H30	0.965300	0.919200	0.334300
H311	H31	0.903600	0.248000	0.130100
H321	H32	0.933100	0.166600	0.202700
H331	H33	0.222600	0.351400	0.197400
H341	H34	0.193200	0.435400	0.128400
H351	H35	0.046100	0.080800	0.165700
H361	H36	0.096400	0.752000	0.130100
H371	H37	0.066900	0.833400	0.202700
H381	H38	0.777400	0.648600	0.197400
H391	H39	0.806800	0.564600	0.128400
H401	H40	0.953900	0.919200	0.165700
C11	C1	0.623160	0.594800	0.575990
C21	C2	0.695470	0.649440	0.621550
C31	C3	0.698440	0.730520	0.643820
C41	C4	0.765970	0.780040	0.687020
C51	C5	0.832200	0.750360	0.706570
C61	C6	0.827830	0.669780	0.684260
C71	C7	0.760070	0.619640	0.642610
C81	C8	0.977460	0.951220	0.700050
C91	C9	0.376840	0.405200	0.575990
C101	C10	0.304530	0.350560	0.621550
C111	C11	0.301560	0.269480	0.643820
C121	C12	0.234030	0.219960	0.687020
C131	C13	0.167800	0.249640	0.706570
C141	C14	0.172170	0.330220	0.684260
C151	C15	0.239930	0.380360	0.642610
C161	C16	0.022540	0.048780	0.700050
C171	C17	0.971640	0.594800	0.924010
C181	C18	0.953970	0.649440	0.878450
C191	C19	0.032080	0.730520	0.856180
C201	C20	0.014070	0.780040	0.812980
C211	C21	0.918160	0.750360	0.793430
C221	C22	0.841950	0.669780	0.815740
C231	C23	0.859570	0.619640	0.857390
C241	C24	0.973760	0.951220	0.799950
C251	C25	0.028360	0.405200	0.924010
C261	C26	0.046030	0.350560	0.878450
C271	C27	0.967920	0.269480	0.856180
C281	C28	0.985930	0.219960	0.812980
C291	C29	0.081840	0.249640	0.793430
C301	C30	0.158050	0.330220	0.815740
C311	C31	0.140430	0.380360	0.857390
C321	C32	0.026240	0.048780	0.799950
C331	C33	0.376840	0.405200	0.424010
C341	C34	0.304530	0.350560	0.378450
C351	C35	0.301560	0.269480	0.356180
C361	C36	0.234030	0.219960	0.312980
C371	C37	0.167800	0.249640	0.293430
C381	C38	0.172170	0.330220	0.315740
C391	C39	0.239930	0.380360	0.357390
C401	C40	0.022540	0.048780	0.299950
C411	C41	0.623160	0.594800	0.424010
C421	C42	0.695470	0.649440	0.378450
C431	C43	0.698440	0.730520	0.356180
C441	C44	0.765970	0.780040	0.312980
C451	C45	0.832200	0.750360	0.293430
C461	C46	0.827830	0.669780	0.315740
C471	C47	0.760070	0.619640	0.357390
C481	C48	0.977460	0.951220	0.299950
C491	C49	0.028360	0.405200	0.075990
C501	C50	0.046030	0.350560	0.121550
C511	C51	0.967920	0.269480	0.143820
C521	C52	0.985930	0.219960	0.187020
C531	C53	0.081840	0.249640	0.206570
C541	C54	0.158050	0.330220	0.184260
C551	C55	0.140430	0.380360	0.142610
C561	C56	0.026240	0.048780	0.200050
C571	C57	0.971640	0.594800	0.075990
C581	C58	0.953970	0.649440	0.121550
C591	C59	0.032080	0.730520	0.143820
C601	C60	0.014070	0.780040	0.187020
C611	C61	0.918160	0.750360	0.206570
C621	C62	0.841950	0.669780	0.184260
C631	C63	0.859570	0.619640	0.142610
C641	C64	0.973760	0.951220	0.200050
C651	C65	0.950210	0.900420	0.750000
C661	C66	0.049790	0.099580	0.750000
C671	C67	0.049790	0.099580	0.250000
C681	C68	0.950210	0.900420	0.250000
N11	N1	0.900350	0.800700	0.750000
N21	N2	0.099650	0.199300	0.750000
N31	N3	0.099650	0.199300	0.250000
N41	N4	0.900350	0.800700	0.250000
O11	O1	0.623950	0.521980	0.558360
O21	O2	0.567270	0.627200	0.558370
O31	O3	0.376050	0.478020	0.558360
O41	O4	0.432730	0.372800	0.558370
O51	O5	0.898030	0.521980	0.941640
O61	O6	0.059930	0.627200	0.941630
O71	O7	0.101970	0.478020	0.941640
O81	O8	0.940070	0.372800	0.941630
O91	O9	0.376050	0.478020	0.441640
O101	O10	0.432730	0.372800	0.441630
O111	O11	0.623950	0.521980	0.441640
O121	O12	0.567270	0.627200	0.441630
O131	O13	0.101970	0.478020	0.058360
O141	O14	0.940070	0.372800	0.058370
O151	O15	0.898030	0.521980	0.058360
O161	O16	0.059930	0.627200	0.058370
