data_XAXBEF_clean_PM
_symmetry_space_group_name_H-M	'P1'
_cell_length_a	8.391000
_cell_length_b	11.831000
_cell_length_c	8.842000
_cell_angle_alpha	90.000000
_cell_angle_beta	90.000000
_cell_angle_gamma	90.000000
_symmetry_Int_Tables_number 1

loop_
_symmetry_equiv_pos_as_xyz
'x,y,z'

loop_
_atom_site_label
_atom_site_type_symbol
_atom_site_fract_x
_atom_site_fract_y
_atom_site_fract_z
C11	C1	0.518100	0.277000	0.019000
H11	H1	0.580800	0.223700	0.068300
O11	O1	0.751600	0.094300	0.860200
O21	O2	0.560800	0.304800	0.889400
O31	O3	0.402400	0.312400	0.088300
C21	C2	0.981900	0.723000	0.019000
H21	H2	0.919200	0.776300	0.068300
O41	O4	0.748400	0.905700	0.860200
O51	O5	0.939200	0.695200	0.889400
O61	O6	0.097600	0.687600	0.088300
C31	C3	0.981900	0.777000	0.481000
H31	H3	0.919200	0.723700	0.431700
O71	O7	0.748400	0.594300	0.639800
O81	O8	0.939200	0.804800	0.610600
O91	O9	0.097600	0.812400	0.411700
C41	C4	0.518100	0.223000	0.481000
H41	H4	0.580800	0.276300	0.431700
O101	O10	0.751600	0.405700	0.639800
O111	O11	0.560800	0.195200	0.610600
O121	O12	0.402400	0.187600	0.411700
C51	C5	0.481900	0.723000	0.981000
H51	H5	0.419200	0.776300	0.931700
O131	O13	0.248400	0.905700	0.139800
O141	O14	0.439200	0.695200	0.110600
O151	O15	0.597600	0.687600	0.911700
C61	C6	0.018100	0.277000	0.981000
H61	H6	0.080800	0.223700	0.931700
O161	O16	0.251600	0.094300	0.139800
O171	O17	0.060800	0.304800	0.110600
O181	O18	0.902400	0.312400	0.911700
C71	C7	0.018100	0.223000	0.519000
H71	H7	0.080800	0.276300	0.568300
O191	O19	0.251600	0.405700	0.360200
O201	O20	0.060800	0.195200	0.389400
O211	O21	0.902400	0.187600	0.588300
C81	C8	0.481900	0.777000	0.519000
H81	H8	0.419200	0.723700	0.568300
O221	O22	0.248400	0.594300	0.360200
O231	O23	0.439200	0.804800	0.389400
O241	O24	0.597600	0.812400	0.588300
C91	C9	0.750000	0.000000	0.800000
H91	H9	0.750000	0.000000	0.694800
C101	C10	0.750000	0.500000	0.700000
H101	H10	0.750000	0.500000	0.805200
C111	C11	0.250000	0.000000	0.200000
H111	H11	0.250000	0.000000	0.305200
C121	C12	0.250000	0.500000	0.300000
H121	H12	0.250000	0.500000	0.194800
Mg11	Mg1	0.747430	0.250000	0.750000
Mg21	Mg2	0.752570	0.750000	0.750000
Mg31	Mg3	0.252570	0.750000	0.250000
Mg41	Mg4	0.247430	0.250000	0.250000
