data_XAYMUF_charged_PM
_symmetry_space_group_name_H-M	'P1'
_cell_length_a	11.020000
_cell_length_b	12.828000
_cell_length_c	12.828000
_cell_angle_alpha	90.000000
_cell_angle_beta	90.000000
_cell_angle_gamma	90.000000
_symmetry_Int_Tables_number 1

loop_
_symmetry_equiv_pos_as_xyz
'x,y,z'

loop_
_atom_site_label
_atom_site_type_symbol
_atom_site_fract_x
_atom_site_fract_y
_atom_site_fract_z
Ag11	Ag1	0.000000	0.156800	0.156800
Ag21	Ag2	0.500000	0.843200	0.843200
Ag31	Ag3	0.250000	0.343200	0.656800
Ag41	Ag4	0.750000	0.656800	0.343200
H11	H1	0.944200	0.483600	0.395200
H21	H2	0.715700	0.494900	0.160400
H31	H3	0.780900	0.332800	0.106100
H41	H4	0.444200	0.516400	0.604800
H51	H5	0.215700	0.505100	0.839600
H61	H6	0.280900	0.667200	0.893900
H71	H7	0.194200	0.104800	0.983600
H81	H8	0.965700	0.339600	0.994900
H91	H9	0.030900	0.393900	0.832800
H101	H10	0.694200	0.895200	0.016400
H111	H11	0.465700	0.660400	0.005100
H121	H12	0.530900	0.606100	0.167200
H131	H13	0.305800	0.016400	0.895200
H141	H14	0.534300	0.005100	0.660400
H151	H15	0.469100	0.167200	0.606100
H161	H16	0.805800	0.983600	0.104800
H171	H17	0.034300	0.994900	0.339600
H181	H18	0.969100	0.832800	0.393900
H191	H19	0.055800	0.395200	0.483600
H201	H20	0.284300	0.160400	0.494900
H211	H21	0.219100	0.106100	0.332800
H221	H22	0.555800	0.604800	0.516400
H231	H23	0.784300	0.839600	0.505100
H241	H24	0.719100	0.893900	0.667200
C11	C1	0.950200	0.357170	0.300840
C21	C2	0.909300	0.453230	0.334700
C31	C3	0.776600	0.459800	0.199320
C41	C4	0.816500	0.363090	0.166300
C51	C5	0.450200	0.642830	0.699160
C61	C6	0.409300	0.546770	0.665300
C71	C7	0.276600	0.540200	0.800680
C81	C8	0.316500	0.636910	0.833700
C91	C9	0.200200	0.199160	0.857170
C101	C10	0.159300	0.165300	0.953230
C111	C11	0.026600	0.300680	0.959800
C121	C12	0.066500	0.333700	0.863090
C131	C13	0.700200	0.800840	0.142830
C141	C14	0.659300	0.834700	0.046770
C151	C15	0.526600	0.699320	0.040200
C161	C16	0.566500	0.666300	0.136910
C171	C17	0.299800	0.142830	0.800840
C181	C18	0.340700	0.046770	0.834700
C191	C19	0.473400	0.040200	0.699320
C201	C20	0.433500	0.136910	0.666300
C211	C21	0.799800	0.857170	0.199160
C221	C22	0.840700	0.953230	0.165300
C231	C23	0.973400	0.959800	0.300680
C241	C24	0.933500	0.863090	0.333700
C251	C25	0.049800	0.300840	0.357170
C261	C26	0.090700	0.334700	0.453230
C271	C27	0.223400	0.199320	0.459800
C281	C28	0.183500	0.166300	0.363090
C291	C29	0.549800	0.699160	0.642830
C301	C30	0.590700	0.665300	0.546770
C311	C31	0.723400	0.800680	0.540200
C321	C32	0.683500	0.833700	0.636910
N11	N1	0.903140	0.311230	0.216400
N21	N2	0.821300	0.504470	0.283690
N31	N3	0.403140	0.688770	0.783600
N41	N4	0.321300	0.495530	0.716310
N51	N5	0.153140	0.283600	0.811230
N61	N6	0.071300	0.216310	0.004470
N71	N7	0.653140	0.716400	0.188770
N81	N8	0.571300	0.783690	0.995530
N91	N9	0.346860	0.188770	0.716400
N101	N10	0.428700	0.995530	0.783690
N111	N11	0.846860	0.811230	0.283600
N121	N12	0.928700	0.004470	0.216310
N131	N13	0.096860	0.216400	0.311230
N141	N14	0.178700	0.283690	0.504470
N151	N15	0.596860	0.783600	0.688770
N161	N16	0.678700	0.716310	0.495530
P11	P1	0.000000	0.615660	0.615660
F11	F1	0.898300	0.666510	0.686520
F21	F2	0.978200	0.701500	0.530300
F31	F3	0.898770	0.545200	0.564330
F41	F4	0.101700	0.686520	0.666510
F51	F5	0.021800	0.530300	0.701500
F61	F6	0.101230	0.564330	0.545200
P21	P2	0.500000	0.384340	0.384340
F71	F7	0.398300	0.333490	0.313480
F81	F8	0.478200	0.298500	0.469700
F91	F9	0.398770	0.454800	0.435670
F101	F10	0.601700	0.313480	0.333490
F111	F11	0.521800	0.469700	0.298500
F121	F12	0.601230	0.435670	0.454800
P31	P3	0.250000	0.884340	0.115660
F131	F13	0.148300	0.813480	0.166510
F141	F14	0.228200	0.969700	0.201500
F151	F15	0.148770	0.935670	0.045200
F161	F16	0.351700	0.833490	0.186520
F171	F17	0.271800	0.798500	0.030300
F181	F18	0.351230	0.954800	0.064330
P41	P4	0.750000	0.115660	0.884340
F191	F19	0.648300	0.186520	0.833490
F201	F20	0.728200	0.030300	0.798500
F211	F21	0.648770	0.064330	0.954800
F221	F22	0.851700	0.166510	0.813480
F231	F23	0.771800	0.201500	0.969700
F241	F24	0.851230	0.045200	0.935670
