data_XAZFEJ_clean_PM
_symmetry_space_group_name_H-M	'P1'
_cell_length_a	10.011000
_cell_length_b	19.369000
_cell_length_c	6.414000
_cell_angle_alpha	90.000000
_cell_angle_beta	90.000000
_cell_angle_gamma	90.000000
_symmetry_Int_Tables_number 1

loop_
_symmetry_equiv_pos_as_xyz
'x,y,z'

loop_
_atom_site_label
_atom_site_type_symbol
_atom_site_fract_x
_atom_site_fract_y
_atom_site_fract_z
N11	N1	0.267500	0.186460	0.689500
C11	C1	0.326300	0.116400	0.687000
H11	H1	0.255800	0.082800	0.688500
H21	H2	0.379700	0.109700	0.809600
C21	C2	0.378200	0.237000	0.687000
H31	H3	0.432300	0.230500	0.809000
H41	H4	0.342700	0.283000	0.690700
H51	H5	0.571700	0.150800	0.378800
N21	N2	0.732500	0.813540	0.689500
C31	C3	0.673700	0.883600	0.687000
H61	H6	0.744200	0.917200	0.688500
H71	H7	0.620300	0.890300	0.809600
C41	C4	0.621800	0.763000	0.687000
H81	H8	0.567700	0.769500	0.809000
H91	H9	0.657300	0.717000	0.690700
H101	H10	0.428300	0.849200	0.378800
N31	N3	0.232500	0.686460	0.810500
C51	C5	0.173700	0.616400	0.813000
H111	H11	0.244200	0.582800	0.811500
H121	H12	0.120300	0.609700	0.690400
C61	C6	0.121800	0.737000	0.813000
H131	H13	0.067700	0.730500	0.691000
H141	H14	0.157300	0.783000	0.809300
H151	H15	0.928300	0.650800	0.121200
N41	N4	0.767500	0.313540	0.810500
C71	C7	0.826300	0.383600	0.813000
H161	H16	0.755800	0.417200	0.811500
H171	H17	0.879700	0.390300	0.690400
C81	C8	0.878200	0.263000	0.813000
H181	H18	0.932300	0.269500	0.691000
H191	H19	0.842700	0.217000	0.809300
H201	H20	0.071700	0.349200	0.121200
N51	N5	0.732500	0.813540	0.310500
C91	C9	0.673700	0.883600	0.313000
H211	H21	0.744200	0.917200	0.311500
H221	H22	0.620300	0.890300	0.190400
C101	C10	0.621800	0.763000	0.313000
H231	H23	0.567700	0.769500	0.191000
H241	H24	0.657300	0.717000	0.309300
H251	H25	0.428300	0.849200	0.621200
N61	N6	0.267500	0.186460	0.310500
C111	C11	0.326300	0.116400	0.313000
H261	H26	0.255800	0.082800	0.311500
H271	H27	0.379700	0.109700	0.190400
C121	C12	0.378200	0.237000	0.313000
H281	H28	0.432300	0.230500	0.191000
H291	H29	0.342700	0.283000	0.309300
H301	H30	0.571700	0.150800	0.621200
N71	N7	0.767500	0.313540	0.189500
C131	C13	0.826300	0.383600	0.187000
H311	H31	0.755800	0.417200	0.188500
H321	H32	0.879700	0.390300	0.309600
C141	C14	0.878200	0.263000	0.187000
H331	H33	0.932300	0.269500	0.309000
H341	H34	0.842700	0.217000	0.190700
H351	H35	0.071700	0.349200	0.878800
N81	N8	0.232500	0.686460	0.189500
C151	C15	0.173700	0.616400	0.187000
H361	H36	0.244200	0.582800	0.188500
H371	H37	0.120300	0.609700	0.309600
C161	C16	0.121800	0.737000	0.187000
H381	H38	0.067700	0.730500	0.309000
H391	H39	0.157300	0.783000	0.190700
H401	H40	0.928300	0.650800	0.878800
Ag11	Ag1	0.141160	0.196160	0.000000
Ag21	Ag2	0.858840	0.803840	0.000000
Ag31	Ag3	0.358840	0.696160	0.500000
Ag41	Ag4	0.641160	0.303840	0.500000
Ag51	Ag5	0.500000	0.000000	0.500000
Ag61	Ag6	0.000000	0.500000	0.000000
N91	N9	0.409000	0.106100	0.500000
N101	N10	0.462000	0.228500	0.500000
C171	C17	0.187300	0.195600	0.500000
H411	H41	0.118900	0.160900	0.500000
H421	H42	0.146800	0.240600	0.500000
C181	C18	0.516900	0.157300	0.500000
N111	N11	0.591000	0.893900	0.500000
N121	N12	0.538000	0.771500	0.500000
C191	C19	0.812700	0.804400	0.500000
H431	H43	0.881100	0.839100	0.500000
H441	H44	0.853200	0.759400	0.500000
C201	C20	0.483100	0.842700	0.500000
N131	N13	0.091000	0.606100	0.000000
N141	N14	0.038000	0.728500	0.000000
C211	C21	0.312700	0.695600	0.000000
H451	H45	0.381100	0.660900	0.000000
H461	H46	0.353200	0.740600	0.000000
C221	C22	0.983100	0.657300	0.000000
N151	N15	0.909000	0.393900	0.000000
N161	N16	0.962000	0.271500	0.000000
C231	C23	0.687300	0.304400	0.000000
H471	H47	0.618900	0.339100	0.000000
H481	H48	0.646800	0.259400	0.000000
C241	C24	0.016900	0.342700	0.000000
