data_XAZGEK_clean_PM
_symmetry_space_group_name_H-M	'P1'
_cell_length_a	10.310000
_cell_length_b	20.002000
_cell_length_c	22.950000
_cell_angle_alpha	90.000000
_cell_angle_beta	90.000000
_cell_angle_gamma	90.490000
_symmetry_Int_Tables_number 1

loop_
_symmetry_equiv_pos_as_xyz
'x,y,z'

loop_
_atom_site_label
_atom_site_type_symbol
_atom_site_fract_x
_atom_site_fract_y
_atom_site_fract_z
Ag11	Ag1	0.478060	0.339830	0.331360
Ag21	Ag2	0.903830	0.884090	0.242190
Ag31	Ag3	0.901460	0.934430	0.510790
Ag41	Ag4	0.908070	0.425810	0.882050
Ag51	Ag5	0.523100	0.168540	0.563740
Ag61	Ag6	0.005480	0.331770	0.553340
Ag71	Ag7	0.403770	0.952570	0.372780
Ag81	Ag8	0.410910	0.875920	0.648600
Ag91	Ag9	0.087770	0.621510	0.652880
Ag101	Ag10	0.603660	0.557260	0.514960
Ag111	Ag11	0.397340	0.383290	0.747400
Ag121	Ag12	0.976560	0.173380	0.349090
Ag131	Ag13	0.521940	0.660170	0.831360
Ag141	Ag14	0.096170	0.115910	0.742190
Ag151	Ag15	0.098540	0.065570	0.010790
Ag161	Ag16	0.091930	0.574190	0.382050
Ag171	Ag17	0.476900	0.831460	0.063740
Ag181	Ag18	0.994520	0.668230	0.053340
Ag191	Ag19	0.596230	0.047430	0.872780
Ag201	Ag20	0.589090	0.124080	0.148600
Ag211	Ag21	0.912230	0.378490	0.152880
Ag221	Ag22	0.396340	0.442740	0.014960
Ag231	Ag23	0.602660	0.616710	0.247400
Ag241	Ag24	0.023440	0.826620	0.849090
H11	H1	0.495600	0.065200	0.456200
H21	H2	0.368800	0.046900	0.489700
H31	H3	0.374200	0.018200	0.588200
H41	H4	0.502200	0.019900	0.624000
H51	H5	0.708100	0.046000	0.570000
H61	H6	0.698300	0.062200	0.504000
H71	H7	0.624300	0.904000	0.455500
H81	H8	0.649900	0.977200	0.435400
H91	H9	0.669200	0.931900	0.602200
H101	H10	0.634800	0.877100	0.556700
H111	H11	0.420600	0.877900	0.509800
H121	H12	0.326300	0.936500	0.522400
H131	H13	0.056800	0.629100	0.517600
H141	H14	0.167600	0.577800	0.526600
H151	H15	0.853600	0.532300	0.437900
H161	H16	0.873900	0.602500	0.465500
H171	H17	0.804200	0.435900	0.502900
H181	H18	0.801100	0.446600	0.570100
H191	H19	0.142100	0.464900	0.487000
H201	H20	0.018500	0.447200	0.451000
H211	H21	0.825800	0.558200	0.608900
H221	H22	0.853400	0.617500	0.566800
H231	H23	0.128300	0.481500	0.590300
H241	H24	0.996700	0.473100	0.622700
H251	H25	0.062400	0.692100	0.772500
H261	H26	0.027500	0.746600	0.726800
H271	H27	0.313400	0.728900	0.643800
H281	H28	0.187600	0.770800	0.646900
H291	H29	0.155600	0.849100	0.722200
H301	H30	0.263600	0.862400	0.767900
H311	H31	0.256900	0.629200	0.765200
H321	H32	0.355500	0.642200	0.714900
H331	H33	0.312000	0.777800	0.840400
H341	H34	0.231500	0.711800	0.842500
H351	H35	0.467000	0.797600	0.762900
H361	H36	0.484700	0.745200	0.713500
H371	H37	0.569200	0.623200	0.386700
H381	H38	0.664400	0.565200	0.374100
H391	H39	0.604300	0.451100	0.408300
H401	H40	0.472800	0.442700	0.440400
H411	H41	0.323500	0.572600	0.291300
H421	H42	0.364000	0.628700	0.334600
H431	H43	0.369500	0.605000	0.436900
H441	H44	0.332100	0.533900	0.458600
H451	H45	0.600700	0.475800	0.302800
H461	H46	0.467000	0.480700	0.271900
H471	H47	0.276200	0.449300	0.391300
H481	H48	0.270600	0.465300	0.325200
H491	H49	0.358900	0.151900	0.675700
H501	H50	0.259300	0.137600	0.626500
H511	H51	0.455500	0.307800	0.629300
H521	H52	0.478700	0.254400	0.677200
H531	H53	0.313000	0.230300	0.749700
H541	H54	0.183200	0.269200	0.748400
H551	H55	0.152700	0.354800	0.672400
H561	H56	0.260600	0.367500	0.626300
H571	H57	0.223700	0.219100	0.552300
H581	H58	0.302300	0.285800	0.552800
H591	H59	0.053800	0.198600	0.625700
H601	H60	0.031700	0.251900	0.674000
H611	H61	0.880000	0.036000	0.406000
H621	H62	0.024000	0.062000	0.445000
H631	H63	0.173000	0.974000	0.288000
H641	H64	0.135000	0.900000	0.329000
H651	H65	0.166000	0.984000	0.453000
H661	H66	0.157000	0.909000	0.427000
H671	H67	0.180000	0.070000	0.390000
H681	H68	0.213000	0.060000	0.322000
H691	H69	0.020000	0.041000	0.267000
H701	H70	0.880000	0.036000	0.306000
H711	H71	0.938000	0.876000	0.375000
H721	H72	0.843000	0.925000	0.366000
H731	H73	0.504400	0.934800	0.956200
H741	H74	0.631200	0.953100	0.989700
H751	H75	0.625800	0.981800	0.088200
H761	H76	0.497800	0.980100	0.124000
H771	H77	0.291900	0.954000	0.070000
H781	H78	0.301700	0.937800	0.004000
H791	H79	0.375700	0.096000	0.955500
H801	H80	0.350100	0.022800	0.935400
H811	H81	0.330800	0.068100	0.102200
H821	H82	0.365200	0.122900	0.056700
H831	H83	0.579400	0.122100	0.009800
H841	H84	0.673700	0.063500	0.022400
H851	H85	0.943200	0.370900	0.017600
H861	H86	0.832400	0.422200	0.026600
H871	H87	0.146400	0.467700	0.937900
H881	H88	0.126100	0.397500	0.965500
H891	H89	0.195800	0.564100	0.002900
H901	H90	0.198900	0.553400	0.070100
H911	H91	0.857900	0.535100	0.987000
H921	H92	0.981500	0.552800	0.951000
H931	H93	0.174200	0.441800	0.108900
H941	H94	0.146600	0.382500	0.066800
H951	H95	0.871700	0.518500	0.090300
H961	H96	0.003300	0.526900	0.122700
H971	H97	0.937600	0.307900	0.272500
H981	H98	0.972500	0.253400	0.226800
H991	H99	0.686600	0.271100	0.143800
H1001	H100	0.812400	0.229200	0.146900
H1011	H101	0.844400	0.150900	0.222200
H1021	H102	0.736400	0.137600	0.267900
H1031	H103	0.743100	0.370800	0.265200
H1041	H104	0.644500	0.357800	0.214900
H1051	H105	0.688000	0.222200	0.340400
H1061	H106	0.768500	0.288200	0.342500
H1071	H107	0.533000	0.202400	0.262900
H1081	H108	0.515300	0.254800	0.213500
H1091	H109	0.430800	0.376800	0.886700
H1101	H110	0.335600	0.434800	0.874100
H1111	H111	0.395700	0.548900	0.908300
H1121	H112	0.527200	0.557300	0.940400
H1131	H113	0.676500	0.427400	0.791300
H1141	H114	0.636000	0.371300	0.834600
H1151	H115	0.630500	0.395000	0.936900
H1161	H116	0.667900	0.466100	0.958600
H1171	H117	0.399300	0.524200	0.802800
H1181	H118	0.533000	0.519300	0.771900
H1191	H119	0.723800	0.550700	0.891300
H1201	H120	0.729400	0.534700	0.825200
H1211	H121	0.641100	0.848100	0.175700
H1221	H122	0.740700	0.862400	0.126500
H1231	H123	0.544500	0.692200	0.129300
H1241	H124	0.521300	0.745600	0.177200
H1251	H125	0.687000	0.769700	0.249700
H1261	H126	0.816800	0.730800	0.248400
H1271	H127	0.847300	0.645200	0.172400
H1281	H128	0.739400	0.632500	0.126300
H1291	H129	0.776300	0.780900	0.052300
H1301	H130	0.697700	0.714200	0.052800
H1311	H131	0.946200	0.801400	0.125700
H1321	H132	0.968300	0.748100	0.174000
H1331	H133	0.120000	0.964000	0.906000
H1341	H134	0.976000	0.938000	0.945000
H1351	H135	0.827000	0.026000	0.788000
H1361	H136	0.865000	0.100000	0.829000
H1371	H137	0.834000	0.016000	0.953000
H1381	H138	0.843000	0.091000	0.927000
H1391	H139	0.820000	0.930000	0.890000
H1401	H140	0.787000	0.940000	0.822000
H1411	H141	0.980000	0.959000	0.767000
H1421	H142	0.120000	0.964000	0.806000
H1431	H143	0.062000	0.124000	0.875000
H1441	H144	0.157000	0.075000	0.866000
C11	C1	0.459600	0.037400	0.486300
C21	C2	0.465500	0.009300	0.586600
C31	C3	0.662500	0.035300	0.534700
C41	C4	0.613200	0.950100	0.465800
C51	C5	0.624400	0.923500	0.566300
C61	C6	0.416000	0.924700	0.518800
C71	C7	0.075300	0.582600	0.523900
C81	C8	0.888100	0.555500	0.471100
C91	C9	0.841200	0.461200	0.534500
C101	C10	0.050400	0.472100	0.483800
C111	C11	0.869100	0.570900	0.573500
C121	C12	0.036500	0.488400	0.587300
C131	C13	0.097600	0.726700	0.748000
C141	C14	0.253000	0.749500	0.669900
C151	C15	0.222600	0.828400	0.744700
C161	C16	0.294900	0.663100	0.740800
C171	C17	0.267800	0.745000	0.817000
C181	C18	0.422400	0.765300	0.739100
C191	C19	0.574300	0.576400	0.377400
C201	C20	0.516500	0.466700	0.409800
C211	C21	0.369600	0.581700	0.326900
C221	C22	0.374500	0.558300	0.427900
C231	C23	0.512400	0.489700	0.307700
C241	C24	0.317300	0.474200	0.360600
C251	C25	0.295200	0.172000	0.650800
C261	C26	0.414200	0.273900	0.652500
C271	C27	0.249800	0.250200	0.724500
C281	C28	0.219200	0.333800	0.649700
C291	C29	0.261800	0.252600	0.577000
C301	C30	0.096100	0.231400	0.649800
C311	C31	0.965100	0.037700	0.413400
C321	C32	0.122200	0.938800	0.318500
C331	C33	0.128400	0.954800	0.422400
C341	C34	0.157800	0.048500	0.359900
C351	C35	0.964000	0.022900	0.308100
C361	C36	0.926700	0.927900	0.371300
C371	C37	0.540400	0.962600	0.986300
C381	C38	0.534500	0.990700	0.086600
C391	C39	0.337500	0.964700	0.034700
C401	C40	0.386800	0.049900	0.965800
C411	C41	0.375600	0.076500	0.066300
C421	C42	0.584000	0.075300	0.018800
C431	C43	0.924700	0.417400	0.023900
C441	C44	0.111900	0.444500	0.971100
C451	C45	0.158800	0.538800	0.034500
C461	C46	0.949600	0.527900	0.983800
C471	C47	0.130900	0.429100	0.073500
C481	C48	0.963500	0.511600	0.087300
C491	C49	0.902400	0.273300	0.248000
C501	C50	0.747000	0.250500	0.169900
C511	C51	0.777400	0.171600	0.244700
C521	C52	0.705100	0.336900	0.240800
C531	C53	0.732200	0.255000	0.317000
C541	C54	0.577600	0.234700	0.239100
C551	C55	0.425700	0.423600	0.877400
C561	C56	0.483500	0.533300	0.909800
C571	C57	0.630400	0.418300	0.826900
C581	C58	0.625500	0.441700	0.927900
C591	C59	0.487600	0.510300	0.807700
C601	C60	0.682700	0.525800	0.860600
C611	C61	0.704800	0.828000	0.150800
C621	C62	0.585800	0.726100	0.152500
C631	C63	0.750200	0.749800	0.224500
C641	C64	0.780800	0.666200	0.149700
C651	C65	0.738200	0.747400	0.077000
C661	C66	0.903900	0.768600	0.149800
C671	C67	0.034900	0.962300	0.913400
C681	C68	0.877800	0.061200	0.818500
C691	C69	0.871600	0.045200	0.922400
C701	C70	0.842200	0.951500	0.859900
C711	C71	0.036000	0.977100	0.808100
C721	C72	0.073300	0.072100	0.871300
N11	N1	0.525500	0.051000	0.542100
N21	N2	0.681500	0.964300	0.520800
N31	N3	0.477500	0.964500	0.471200
N41	N4	0.484900	0.937800	0.573700
N51	N5	0.025800	0.543400	0.475500
N61	N6	0.817300	0.532200	0.525500
N71	N7	0.985000	0.449500	0.537300
N81	N8	0.012600	0.559800	0.579300
N91	N9	0.319900	0.799000	0.704100
N101	N10	0.361600	0.712900	0.776900
N111	N11	0.191900	0.697300	0.706700
N121	N12	0.162800	0.777200	0.783900
N131	N13	0.509500	0.563000	0.319800
N141	N14	0.452900	0.450700	0.354600
N151	N15	0.517300	0.537300	0.424700
N161	N16	0.310200	0.545000	0.374200
N171	N17	0.360300	0.222400	0.614100
N181	N18	0.160400	0.283600	0.612000
N191	N19	0.193200	0.198900	0.686600
N201	N20	0.313300	0.304500	0.688400
N211	N21	0.020700	0.061100	0.356200
N221	N22	0.984400	0.949700	0.316100
N231	N23	0.187100	0.977400	0.367300
N241	N24	0.984900	0.964900	0.421200
N251	N25	0.474500	0.949000	0.042100
N261	N26	0.318500	0.035700	0.020800
N271	N27	0.522500	0.035500	0.971200
N281	N28	0.515100	0.062200	0.073700
N291	N29	0.974200	0.456600	0.975500
N301	N30	0.182700	0.467800	0.025500
N311	N31	0.015000	0.550500	0.037300
N321	N32	0.987400	0.440200	0.079300
N331	N33	0.680100	0.201000	0.204100
N341	N34	0.638400	0.287100	0.276900
N351	N35	0.808100	0.302700	0.206700
N361	N36	0.837200	0.222800	0.283900
N371	N37	0.490500	0.437000	0.819800
N381	N38	0.547100	0.549300	0.854600
N391	N39	0.482700	0.462700	0.924700
N401	N40	0.689800	0.455000	0.874200
N411	N41	0.639700	0.777600	0.114100
N421	N42	0.839600	0.716400	0.112000
N431	N43	0.806800	0.801100	0.186600
N441	N44	0.686700	0.695500	0.188400
N451	N45	0.979300	0.938900	0.856200
N461	N46	0.015600	0.050300	0.816100
N471	N47	0.812900	0.022600	0.867300
N481	N48	0.015100	0.035100	0.921200
