data_XEDGIY_clean_PM
_symmetry_space_group_name_H-M	'P1'
_cell_length_a	14.306000
_cell_length_b	19.509000
_cell_length_c	36.482000
_cell_angle_alpha	90.000000
_cell_angle_beta	99.629000
_cell_angle_gamma	90.000000
_symmetry_Int_Tables_number 1

loop_
_symmetry_equiv_pos_as_xyz
'x,y,z'

loop_
_atom_site_label
_atom_site_type_symbol
_atom_site_fract_x
_atom_site_fract_y
_atom_site_fract_z
Cd11	Cd1	0.682170	0.980320	0.695070
Cd21	Cd2	0.446870	0.000110	0.662670
Cd31	Cd3	0.181270	0.445620	0.163450
Cd41	Cd4	0.682170	0.519680	0.195070
Cd51	Cd5	0.446870	0.499890	0.162670
Cd61	Cd6	0.181270	0.054380	0.663450
H11	H1	0.695600	0.126900	0.588800
H21	H2	0.506200	0.301400	0.625100
H31	H3	0.524000	0.200100	0.656800
H41	H4	0.555500	0.378000	0.576500
H51	H5	0.714100	0.300700	0.504000
H61	H6	0.726400	0.197700	0.535200
H71	H7	0.487200	0.865500	0.567200
H81	H8	0.487400	0.778600	0.525200
H91	H9	0.691800	0.773000	0.640400
H101	H10	0.551100	0.664300	0.509100
H111	H11	0.752200	0.569600	0.583300
H121	H12	0.756800	0.659400	0.623600
H131	H13	0.464500	0.438600	0.289300
H141	H14	0.658400	0.615100	0.346700
H151	H15	0.619800	0.608000	0.281900
H161	H16	0.454600	0.391200	0.351600
H171	H17	0.495400	0.396600	0.415700
H181	H18	0.645600	0.570900	0.409500
H191	H19	0.657000	0.477300	0.564200
H201	H20	0.605500	0.586500	0.468700
H211	H21	0.607500	0.379000	0.465500
H221	H22	0.380600	0.364000	0.053000
H231	H23	0.328200	0.270700	0.015000
H241	H24	0.252500	0.289600	0.135100
H251	H25	0.163600	0.179300	0.125500
H261	H26	0.114200	0.085700	0.088500
H271	H27	0.236400	0.162200	0.005900
H281	H28	0.128200	0.633400	0.088000
H291	H29	0.359200	0.801000	0.122100
H301	H30	0.374100	0.694600	0.150200
H311	H31	0.041100	0.710300	0.040400
H321	H32	0.029800	0.813900	0.009300
H331	H33	0.268000	0.881200	0.075700
H341	H34	0.780200	0.101200	0.809800
H351	H35	0.864400	0.118300	0.868800
H361	H36	0.937000	0.931300	0.797000
H371	H37	0.989500	0.078400	0.920900
H381	H38	0.135100	0.905200	0.909300
H391	H39	0.060800	0.895200	0.848100
H401	H40	0.177300	0.986600	0.065700
H411	H41	0.095500	0.888900	0.968200
H421	H42	0.113600	0.094500	0.970800
H431	H43	0.695600	0.373100	0.088800
H441	H44	0.506200	0.198600	0.125100
H451	H45	0.524000	0.299900	0.156800
H461	H46	0.555500	0.122000	0.076500
H471	H47	0.714100	0.199300	0.004000
H481	H48	0.726400	0.302300	0.035200
H491	H49	0.487200	0.634500	0.067200
H501	H50	0.487400	0.721400	0.025200
H511	H51	0.691800	0.727000	0.140400
H521	H52	0.551100	0.835700	0.009100
H531	H53	0.752200	0.930400	0.083300
H541	H54	0.756800	0.840600	0.123600
H551	H55	0.464500	0.061400	0.789300
H561	H56	0.658400	0.884900	0.846700
H571	H57	0.619800	0.892000	0.781900
H581	H58	0.454600	0.108800	0.851600
H591	H59	0.495400	0.103400	0.915700
H601	H60	0.645600	0.929100	0.909500
H611	H61	0.657000	0.022700	0.064200
H621	H62	0.605500	0.913500	0.968700
H631	H63	0.607500	0.121000	0.965500
H641	H64	0.380600	0.136000	0.553000
H651	H65	0.328200	0.229300	0.515000
H661	H66	0.252500	0.210400	0.635100
H671	H67	0.163600	0.320700	0.625500
H681	H68	0.114200	0.414300	0.588500
H691	H69	0.236400	0.337800	0.505900
H701	H70	0.128200	0.866600	0.588000
H711	H71	0.359200	0.699000	0.622100
H721	H72	0.374100	0.805400	0.650200
H731	H73	0.041100	0.789700	0.540400
H741	H74	0.029800	0.686100	0.509300
H751	H75	0.268000	0.618800	0.575700
H761	H76	0.780200	0.398800	0.309800
H771	H77	0.864400	0.381700	0.368800
H781	H78	0.937000	0.568700	0.297000
H791	H79	0.989500	0.421600	0.420900
H801	H80	0.135100	0.594800	0.409300
H811	H81	0.060800	0.604800	0.348100
H821	H82	0.177300	0.513400	0.565700
H831	H83	0.095500	0.611100	0.468200
H841	H84	0.113600	0.405500	0.470800
C11	C1	0.633600	0.090600	0.650100
C21	C2	0.616000	0.154000	0.626360
C31	C3	0.658600	0.163200	0.596190
C41	C4	0.650100	0.224900	0.575300
C51	C5	0.595800	0.278500	0.586880
C61	C6	0.546200	0.266800	0.617880
C71	C7	0.556700	0.207100	0.636490
C81	C8	0.590400	0.341400	0.568200
C91	C9	0.635100	0.351100	0.537920
C101	C10	0.685100	0.295400	0.525480
C111	C11	0.692200	0.234300	0.543870
C121	C12	0.592100	0.886400	0.635090
C131	C13	0.590800	0.827900	0.608690
C141	C14	0.529300	0.828100	0.573310
C151	C15	0.529300	0.776800	0.548280
C161	C16	0.591600	0.720500	0.556550
C171	C17	0.653700	0.718300	0.591730
C181	C18	0.650700	0.773800	0.617030
C191	C19	0.591000	0.663400	0.532690
C201	C20	0.646100	0.606400	0.542510
C211	C21	0.710700	0.607300	0.577020
C221	C22	0.714000	0.660400	0.600680
C231	C23	0.511400	0.518200	0.238090
C241	C24	0.536700	0.523000	0.280720
C251	C25	0.503300	0.474200	0.301220
C261	C26	0.526200	0.475700	0.341030
C271	C27	0.584600	0.530100	0.357290
C281	C28	0.619000	0.579100	0.335460
C291	C29	0.595600	0.575100	0.297060
C301	C30	0.493900	0.427400	0.362700
C311	C31	0.518500	0.430900	0.401010
C321	C32	0.576100	0.483100	0.418980
C331	C33	0.608500	0.534100	0.397920
C341	C34	0.630200	0.419100	0.518230
C351	C35	0.642600	0.479100	0.537850
C361	C36	0.634500	0.543400	0.520020
C371	C37	0.612500	0.543700	0.481360
C381	C38	0.600300	0.483100	0.460370
C391	C39	0.611900	0.420700	0.479140
C401	C40	0.350900	0.397900	0.120390
C411	C41	0.317700	0.336200	0.097640
C421	C42	0.342500	0.329700	0.061680
C431	C43	0.312000	0.274200	0.039150
C441	C44	0.256500	0.222800	0.052390
C451	C45	0.235800	0.228100	0.088780
C461	C46	0.267200	0.285900	0.110690
C471	C47	0.180400	0.175900	0.101430
C481	C48	0.150500	0.120500	0.079350
C491	C49	0.172600	0.114400	0.043680
C501	C50	0.223300	0.165400	0.030500
C511	C51	0.256800	0.586600	0.142050
C521	C52	0.251000	0.654100	0.122500
C531	C53	0.174800	0.667900	0.094630
C541	C54	0.164200	0.730600	0.075940
C551	C55	0.232700	0.781800	0.086400
C561	C56	0.312100	0.767000	0.114910
C571	C57	0.320300	0.704200	0.131810
C581	C58	0.088200	0.744300	0.047350
C591	C59	0.080900	0.806400	0.029190
C601	C60	0.148200	0.859500	0.039480
C611	C61	0.222600	0.846300	0.068080
C621	C62	0.791100	0.005500	0.759520
C631	C63	0.849100	0.014900	0.797170
C641	C64	0.829300	0.070100	0.819360
C651	C65	0.878900	0.080300	0.854530
C661	C66	0.952400	0.033600	0.869580
C671	C67	0.974000	0.977900	0.847200
C681	C68	0.922700	0.968800	0.811690
C691	C69	0.001300	0.039800	0.906560
C701	C70	0.064600	0.991900	0.921880
C711	C71	0.088200	0.937700	0.899290
C721	C72	0.043600	0.931700	0.862890
C731	C73	0.148800	0.050100	0.021490
C741	C74	0.157900	0.987700	0.039480
C751	C75	0.139100	0.926100	0.020190
C761	C76	0.109500	0.930200	0.981820
C771	C77	0.099600	0.992100	0.962630
C781	C78	0.119700	0.051500	0.983190
C791	C79	0.633600	0.409400	0.150100
C801	C80	0.616000	0.346000	0.126360
C811	C81	0.658600	0.336800	0.096190
C821	C82	0.650100	0.275100	0.075300
C831	C83	0.595800	0.221500	0.086880
C841	C84	0.546200	0.233200	0.117880
C851	C85	0.556700	0.292900	0.136490
C861	C86	0.590400	0.158600	0.068200
C871	C87	0.635100	0.148900	0.037920
C881	C88	0.685100	0.204600	0.025480
C891	C89	0.692200	0.265700	0.043870
C901	C90	0.592100	0.613600	0.135090
C911	C91	0.590800	0.672100	0.108690
C921	C92	0.529300	0.671900	0.073310
C931	C93	0.529300	0.723200	0.048280
C941	C94	0.591600	0.779500	0.056550
C951	C95	0.653700	0.781700	0.091730
C961	C96	0.650700	0.726200	0.117030
C971	C97	0.591000	0.836600	0.032690
C981	C98	0.646100	0.893600	0.042510
C991	C99	0.710700	0.892700	0.077020
C1001	C100	0.714000	0.839600	0.100680
C1011	C101	0.511400	0.981800	0.738090
C1021	C102	0.536700	0.977000	0.780720
C1031	C103	0.503300	0.025800	0.801220
C1041	C104	0.526200	0.024300	0.841030
C1051	C105	0.584600	0.969900	0.857290
C1061	C106	0.619000	0.920900	0.835460
C1071	C107	0.595600	0.924900	0.797060
C1081	C108	0.493900	0.072600	0.862700
C1091	C109	0.518500	0.069100	0.901010
C1101	C110	0.576100	0.016900	0.918980
C1111	C111	0.608500	0.965900	0.897920
C1121	C112	0.630200	0.080900	0.018230
C1131	C113	0.642600	0.020900	0.037850
C1141	C114	0.634500	0.956600	0.020020
C1151	C115	0.612500	0.956300	0.981360
C1161	C116	0.600300	0.016900	0.960370
C1171	C117	0.611900	0.079300	0.979140
C1181	C118	0.350900	0.102100	0.620390
C1191	C119	0.317700	0.163800	0.597640
C1201	C120	0.342500	0.170300	0.561680
C1211	C121	0.312000	0.225800	0.539150
C1221	C122	0.256500	0.277200	0.552390
C1231	C123	0.235800	0.271900	0.588780
C1241	C124	0.267200	0.214100	0.610690
C1251	C125	0.180400	0.324100	0.601430
C1261	C126	0.150500	0.379500	0.579350
C1271	C127	0.172600	0.385600	0.543680
C1281	C128	0.223300	0.334600	0.530500
C1291	C129	0.256800	0.913400	0.642050
C1301	C130	0.251000	0.845900	0.622500
C1311	C131	0.174800	0.832100	0.594630
C1321	C132	0.164200	0.769400	0.575940
C1331	C133	0.232700	0.718200	0.586400
C1341	C134	0.312100	0.733000	0.614910
C1351	C135	0.320300	0.795800	0.631810
C1361	C136	0.088200	0.755700	0.547350
C1371	C137	0.080900	0.693600	0.529190
C1381	C138	0.148200	0.640500	0.539480
C1391	C139	0.222600	0.653700	0.568080
C1401	C140	0.791100	0.494500	0.259520
C1411	C141	0.849100	0.485100	0.297170
C1421	C142	0.829300	0.429900	0.319360
C1431	C143	0.878900	0.419700	0.354530
C1441	C144	0.952400	0.466400	0.369580
C1451	C145	0.974000	0.522100	0.347200
C1461	C146	0.922700	0.531200	0.311690
C1471	C147	0.001300	0.460200	0.406560
C1481	C148	0.064600	0.508100	0.421880
C1491	C149	0.088200	0.562300	0.399290
C1501	C150	0.043600	0.568300	0.362890
C1511	C151	0.148800	0.449900	0.521490
C1521	C152	0.157900	0.512300	0.539480
C1531	C153	0.139100	0.573900	0.520190
C1541	C154	0.109500	0.569800	0.481820
C1551	C155	0.099600	0.507900	0.462630
C1561	C156	0.119700	0.448500	0.483190
O11	O1	0.577600	0.075800	0.671930
O21	O2	0.707200	0.055000	0.648200
O31	O3	0.663600	0.888100	0.661160
O41	O4	0.526200	0.929200	0.629900
O51	O5	0.553200	0.556400	0.218650
O61	O6	0.446600	0.475700	0.224360
O71	O7	0.325600	0.406050	0.151740
O81	O8	0.405100	0.439710	0.108150
O91	O9	0.333300	0.577100	0.165720
O101	O10	0.190100	0.544800	0.135240
O111	O11	0.809500	0.953300	0.739810
O121	O12	0.727900	0.047000	0.748190
O131	O13	0.577600	0.424200	0.171930
O141	O14	0.707200	0.445000	0.148200
O151	O15	0.663600	0.611900	0.161160
O161	O16	0.526200	0.570800	0.129900
O171	O17	0.553200	0.943600	0.718650
O181	O18	0.446600	0.024300	0.724360
O191	O19	0.325600	0.093950	0.651740
O201	O20	0.405100	0.060290	0.608150
O211	O21	0.333300	0.922900	0.665720
O221	O22	0.190100	0.955200	0.635240
O231	O23	0.809500	0.546700	0.239810
O241	O24	0.727900	0.453000	0.248190
Cd71	Cd7	0.317830	0.480320	0.804930
Cd81	Cd8	0.553130	0.500110	0.837330
Cd91	Cd9	0.818730	0.945620	0.336550
Cd101	Cd10	0.317830	0.019680	0.304930
Cd111	Cd11	0.553130	0.999890	0.337330
Cd121	Cd12	0.818730	0.554380	0.836550
H851	H85	0.304400	0.626900	0.911200
H861	H86	0.493800	0.801400	0.874900
H871	H87	0.476000	0.700100	0.843200
H881	H88	0.444500	0.878000	0.923500
H891	H89	0.285900	0.800700	0.996000
H901	H90	0.273600	0.697700	0.964800
H911	H91	0.512800	0.365500	0.932800
H921	H92	0.512600	0.278600	0.974800
H931	H93	0.308200	0.273000	0.859600
H941	H94	0.448900	0.164300	0.990900
H951	H95	0.247800	0.069600	0.916700
H961	H96	0.243200	0.159400	0.876400
H971	H97	0.535500	0.938600	0.210700
H981	H98	0.341600	0.115100	0.153300
H991	H99	0.380200	0.108000	0.218100
H1001	H100	0.545400	0.891200	0.148400
H1011	H101	0.504600	0.896600	0.084300
H1021	H102	0.354400	0.070900	0.090500
H1031	H103	0.343000	0.977300	0.935800
H1041	H104	0.394500	0.086500	0.031300
H1051	H105	0.392500	0.879000	0.034500
H1061	H106	0.619400	0.864000	0.447000
H1071	H107	0.671800	0.770700	0.485000
H1081	H108	0.747500	0.789600	0.364900
H1091	H109	0.836400	0.679300	0.374500
H1101	H110	0.885800	0.585700	0.411500
H1111	H111	0.763600	0.662200	0.494100
H1121	H112	0.871800	0.133400	0.412000
H1131	H113	0.640800	0.301000	0.377900
H1141	H114	0.625900	0.194600	0.349800
H1151	H115	0.958900	0.210300	0.459600
H1161	H116	0.970200	0.313900	0.490700
H1171	H117	0.732000	0.381200	0.424300
H1181	H118	0.219800	0.601200	0.690200
H1191	H119	0.135600	0.618300	0.631200
H1201	H120	0.063000	0.431300	0.703000
H1211	H121	0.010500	0.578400	0.579100
H1221	H122	0.864900	0.405200	0.590700
H1231	H123	0.939200	0.395200	0.651900
H1241	H124	0.822700	0.486600	0.434300
H1251	H125	0.904500	0.388900	0.531800
H1261	H126	0.886400	0.594500	0.529200
H1271	H127	0.304400	0.873100	0.411200
H1281	H128	0.493800	0.698600	0.374900
H1291	H129	0.476000	0.799900	0.343200
H1301	H130	0.444500	0.622000	0.423500
H1311	H131	0.285900	0.699300	0.496000
H1321	H132	0.273600	0.802300	0.464800
H1331	H133	0.512800	0.134500	0.432800
H1341	H134	0.512600	0.221400	0.474800
H1351	H135	0.308200	0.227000	0.359600
H1361	H136	0.448900	0.335700	0.490900
H1371	H137	0.247800	0.430400	0.416700
H1381	H138	0.243200	0.340600	0.376400
H1391	H139	0.535500	0.561400	0.710700
H1401	H140	0.341600	0.384900	0.653300
H1411	H141	0.380200	0.392000	0.718100
H1421	H142	0.545400	0.608800	0.648400
H1431	H143	0.504600	0.603400	0.584300
H1441	H144	0.354400	0.429100	0.590500
H1451	H145	0.343000	0.522700	0.435800
H1461	H146	0.394500	0.413500	0.531300
H1471	H147	0.392500	0.621000	0.534500
H1481	H148	0.619400	0.636000	0.947000
H1491	H149	0.671800	0.729300	0.985000
H1501	H150	0.747500	0.710400	0.864900
H1511	H151	0.836400	0.820700	0.874500
H1521	H152	0.885800	0.914300	0.911500
H1531	H153	0.763600	0.837800	0.994100
H1541	H154	0.871800	0.366600	0.912000
H1551	H155	0.640800	0.199000	0.877900
H1561	H156	0.625900	0.305400	0.849800
H1571	H157	0.958900	0.289700	0.959600
H1581	H158	0.970200	0.186100	0.990700
H1591	H159	0.732000	0.118800	0.924300
H1601	H160	0.219800	0.898800	0.190200
H1611	H161	0.135600	0.881700	0.131200
H1621	H162	0.063000	0.068700	0.203000
H1631	H163	0.010500	0.921600	0.079100
H1641	H164	0.864900	0.094800	0.090700
H1651	H165	0.939200	0.104800	0.151900
H1661	H166	0.822700	0.013400	0.934300
H1671	H167	0.904500	0.111100	0.031800
H1681	H168	0.886400	0.905500	0.029200
C1571	C157	0.366400	0.590600	0.849900
C1581	C158	0.384000	0.654000	0.873640
C1591	C159	0.341400	0.663200	0.903810
C1601	C160	0.349900	0.724900	0.924700
C1611	C161	0.404200	0.778500	0.913120
C1621	C162	0.453800	0.766800	0.882120
C1631	C163	0.443300	0.707100	0.863510
C1641	C164	0.409600	0.841400	0.931800
C1651	C165	0.364900	0.851100	0.962080
C1661	C166	0.314900	0.795400	0.974520
C1671	C167	0.307800	0.734300	0.956130
C1681	C168	0.407900	0.386400	0.864910
C1691	C169	0.409200	0.327900	0.891310
C1701	C170	0.470700	0.328100	0.926690
C1711	C171	0.470700	0.276800	0.951720
C1721	C172	0.408400	0.220500	0.943450
C1731	C173	0.346300	0.218300	0.908270
C1741	C174	0.349300	0.273800	0.882970
C1751	C175	0.409000	0.163400	0.967310
C1761	C176	0.353900	0.106400	0.957490
C1771	C177	0.289300	0.107300	0.922980
C1781	C178	0.286000	0.160400	0.899320
C1791	C179	0.488600	0.018200	0.261910
C1801	C180	0.463300	0.023000	0.219280
C1811	C181	0.496700	0.974200	0.198780
C1821	C182	0.473800	0.975700	0.158970
C1831	C183	0.415400	0.030100	0.142710
C1841	C184	0.381000	0.079100	0.164540
C1851	C185	0.404400	0.075100	0.202940
C1861	C186	0.506100	0.927400	0.137300
C1871	C187	0.481500	0.930900	0.098990
C1881	C188	0.423900	0.983100	0.081020
C1891	C189	0.391500	0.034100	0.102080
C1901	C190	0.369800	0.919100	0.981770
C1911	C191	0.357400	0.979100	0.962150
C1921	C192	0.365500	0.043400	0.979980
C1931	C193	0.387500	0.043700	0.018640
C1941	C194	0.399700	0.983100	0.039630
C1951	C195	0.388100	0.920700	0.020860
C1961	C196	0.649100	0.897900	0.379610
C1971	C197	0.682300	0.836200	0.402360
C1981	C198	0.657500	0.829700	0.438320
C1991	C199	0.688000	0.774200	0.460850
C2001	C200	0.743500	0.722800	0.447610
C2011	C201	0.764200	0.728100	0.411220
C2021	C202	0.732800	0.785900	0.389310
C2031	C203	0.819600	0.675900	0.398570
C2041	C204	0.849500	0.620500	0.420650
C2051	C205	0.827400	0.614400	0.456320
C2061	C206	0.776700	0.665400	0.469500
C2071	C207	0.743200	0.086600	0.357950
C2081	C208	0.749000	0.154100	0.377500
C2091	C209	0.825200	0.167900	0.405370
C2101	C210	0.835800	0.230600	0.424060
C2111	C211	0.767300	0.281800	0.413600
C2121	C212	0.687900	0.267000	0.385090
C2131	C213	0.679700	0.204200	0.368190
C2141	C214	0.911800	0.244300	0.452650
C2151	C215	0.919100	0.306400	0.470810
C2161	C216	0.851800	0.359500	0.460520
C2171	C217	0.777400	0.346300	0.431920
C2181	C218	0.208900	0.505500	0.740480
C2191	C219	0.150900	0.514900	0.702830
C2201	C220	0.170700	0.570100	0.680640
C2211	C221	0.121100	0.580300	0.645470
C2221	C222	0.047600	0.533600	0.630420
C2231	C223	0.026000	0.477900	0.652800
C2241	C224	0.077300	0.468800	0.688310
C2251	C225	0.998700	0.539800	0.593440
C2261	C226	0.935400	0.491900	0.578120
C2271	C227	0.911800	0.437700	0.600710
C2281	C228	0.956400	0.431700	0.637110
C2291	C229	0.851200	0.550100	0.478510
C2301	C230	0.842100	0.487700	0.460520
C2311	C231	0.860900	0.426100	0.479810
C2321	C232	0.890500	0.430200	0.518180
C2331	C233	0.900400	0.492100	0.537370
C2341	C234	0.880300	0.551500	0.516810
C2351	C235	0.366400	0.909400	0.349900
C2361	C236	0.384000	0.846000	0.373640
C2371	C237	0.341400	0.836800	0.403810
C2381	C238	0.349900	0.775100	0.424700
C2391	C239	0.404200	0.721500	0.413120
C2401	C240	0.453800	0.733200	0.382120
C2411	C241	0.443300	0.792900	0.363510
C2421	C242	0.409600	0.658600	0.431800
C2431	C243	0.364900	0.648900	0.462080
C2441	C244	0.314900	0.704600	0.474520
C2451	C245	0.307800	0.765700	0.456130
C2461	C246	0.407900	0.113600	0.364910
C2471	C247	0.409200	0.172100	0.391310
C2481	C248	0.470700	0.171900	0.426690
C2491	C249	0.470700	0.223200	0.451720
C2501	C250	0.408400	0.279500	0.443450
C2511	C251	0.346300	0.281700	0.408270
C2521	C252	0.349300	0.226200	0.382970
C2531	C253	0.409000	0.336600	0.467310
C2541	C254	0.353900	0.393600	0.457490
C2551	C255	0.289300	0.392700	0.422980
C2561	C256	0.286000	0.339600	0.399320
C2571	C257	0.488600	0.481800	0.761910
C2581	C258	0.463300	0.477000	0.719280
C2591	C259	0.496700	0.525800	0.698780
C2601	C260	0.473800	0.524300	0.658970
C2611	C261	0.415400	0.469900	0.642710
C2621	C262	0.381000	0.420900	0.664540
C2631	C263	0.404400	0.424900	0.702940
C2641	C264	0.506100	0.572600	0.637300
C2651	C265	0.481500	0.569100	0.598990
C2661	C266	0.423900	0.516900	0.581020
C2671	C267	0.391500	0.465900	0.602080
C2681	C268	0.369800	0.580900	0.481770
C2691	C269	0.357400	0.520900	0.462150
C2701	C270	0.365500	0.456600	0.479980
C2711	C271	0.387500	0.456300	0.518640
C2721	C272	0.399700	0.516900	0.539630
C2731	C273	0.388100	0.579300	0.520860
C2741	C274	0.649100	0.602100	0.879610
C2751	C275	0.682300	0.663800	0.902360
C2761	C276	0.657500	0.670300	0.938320
C2771	C277	0.688000	0.725800	0.960850
C2781	C278	0.743500	0.777200	0.947610
C2791	C279	0.764200	0.771900	0.911220
C2801	C280	0.732800	0.714100	0.889310
C2811	C281	0.819600	0.824100	0.898570
C2821	C282	0.849500	0.879500	0.920650
C2831	C283	0.827400	0.885600	0.956320
C2841	C284	0.776700	0.834600	0.969500
C2851	C285	0.743200	0.413400	0.857950
C2861	C286	0.749000	0.345900	0.877500
C2871	C287	0.825200	0.332100	0.905370
C2881	C288	0.835800	0.269400	0.924060
C2891	C289	0.767300	0.218200	0.913600
C2901	C290	0.687900	0.233000	0.885090
C2911	C291	0.679700	0.295800	0.868190
C2921	C292	0.911800	0.255700	0.952650
C2931	C293	0.919100	0.193600	0.970810
C2941	C294	0.851800	0.140500	0.960520
C2951	C295	0.777400	0.153700	0.931920
C2961	C296	0.208900	0.994500	0.240480
C2971	C297	0.150900	0.985100	0.202830
C2981	C298	0.170700	0.929900	0.180640
C2991	C299	0.121100	0.919700	0.145470
C3001	C300	0.047600	0.966400	0.130420
C3011	C301	0.026000	0.022100	0.152800
C3021	C302	0.077300	0.031200	0.188310
C3031	C303	0.998700	0.960200	0.093440
C3041	C304	0.935400	0.008100	0.078120
C3051	C305	0.911800	0.062300	0.100710
C3061	C306	0.956400	0.068300	0.137110
C3071	C307	0.851200	0.949900	0.978510
C3081	C308	0.842100	0.012300	0.960520
C3091	C309	0.860900	0.073900	0.979810
C3101	C310	0.890500	0.069800	0.018180
C3111	C311	0.900400	0.007900	0.037370
C3121	C312	0.880300	0.948500	0.016810
O251	O25	0.422400	0.575800	0.828070
O261	O26	0.292800	0.555000	0.851800
O271	O27	0.336400	0.388100	0.838840
O281	O28	0.473800	0.429200	0.870100
O291	O29	0.446800	0.056400	0.281350
O301	O30	0.553400	0.975700	0.275640
O311	O31	0.674400	0.906050	0.348260
O321	O32	0.594900	0.939710	0.391850
O331	O33	0.666700	0.077100	0.334280
O341	O34	0.809900	0.044800	0.364760
O351	O35	0.190500	0.453300	0.760190
O361	O36	0.272100	0.547000	0.751810
O371	O37	0.422400	0.924200	0.328070
O381	O38	0.292800	0.945000	0.351800
O391	O39	0.336400	0.111900	0.338840
O401	O40	0.473800	0.070800	0.370100
O411	O41	0.446800	0.443600	0.781350
O421	O42	0.553400	0.524300	0.775640
O431	O43	0.674400	0.593950	0.848260
O441	O44	0.594900	0.560290	0.891850
O451	O45	0.666700	0.422900	0.834280
O461	O46	0.809900	0.455200	0.864760
O471	O47	0.190500	0.046700	0.260190
O481	O48	0.272100	0.953000	0.251810
