data_XEDLUN01_clean_PM
_symmetry_space_group_name_H-M	'P1'
_cell_length_a	10.137000
_cell_length_b	15.745000
_cell_length_c	15.988000
_cell_angle_alpha	90.000000
_cell_angle_beta	90.000000
_cell_angle_gamma	107.760000
_symmetry_Int_Tables_number 1

loop_
_symmetry_equiv_pos_as_xyz
'x,y,z'

loop_
_atom_site_label
_atom_site_type_symbol
_atom_site_fract_x
_atom_site_fract_y
_atom_site_fract_z
Ti11	Ti1	0.617800	0.592400	0.038080
Ti21	Ti2	0.882200	0.907600	0.538080
Ti31	Ti3	0.382200	0.407600	0.961920
Ti41	Ti4	0.117800	0.092400	0.461920
H11	H1	0.703000	0.358800	0.986500
H21	H2	0.810200	0.274400	0.065500
H31	H3	0.807400	0.153600	0.141600
H41	H4	0.914300	0.069400	0.220900
H51	H5	0.967600	0.245400	0.409200
H61	H6	0.860800	0.329300	0.330600
H71	H7	0.662800	0.349800	0.278200
H81	H8	0.549400	0.431800	0.198400
H91	H9	0.817000	0.782900	0.120800
H101	H10	0.979800	0.921100	0.120200
H111	H11	0.851400	0.966800	0.893600
H121	H12	0.699200	0.829100	0.889000
H131	H13	0.797000	0.141200	0.486500
H141	H14	0.689800	0.225600	0.565500
H151	H15	0.692600	0.346400	0.641600
H161	H16	0.585700	0.430600	0.720900
H171	H17	0.532400	0.254600	0.909200
H181	H18	0.639200	0.170700	0.830600
H191	H19	0.837200	0.150200	0.778200
H201	H20	0.950600	0.068200	0.698400
H211	H21	0.683000	0.717100	0.620800
H221	H22	0.520200	0.578900	0.620200
H231	H23	0.648600	0.533200	0.393600
H241	H24	0.800800	0.670900	0.389000
H251	H25	0.297000	0.641200	0.013500
H261	H26	0.189800	0.725600	0.934500
H271	H27	0.192600	0.846400	0.858400
H281	H28	0.085700	0.930600	0.779100
H291	H29	0.032400	0.754600	0.590800
H301	H30	0.139200	0.670700	0.669400
H311	H31	0.337200	0.650200	0.721800
H321	H32	0.450600	0.568200	0.801600
H331	H33	0.183000	0.217100	0.879200
H341	H34	0.020200	0.078900	0.879800
H351	H35	0.148600	0.033200	0.106400
H361	H36	0.300800	0.170900	0.111000
H371	H37	0.203000	0.858800	0.513500
H381	H38	0.310200	0.774400	0.434500
H391	H39	0.307400	0.653600	0.358400
H401	H40	0.414300	0.569400	0.279100
H411	H41	0.467600	0.745400	0.090800
H421	H42	0.360800	0.829300	0.169400
H431	H43	0.162800	0.849800	0.221800
H441	H44	0.049400	0.931800	0.301600
H451	H45	0.317000	0.282900	0.379200
H461	H46	0.479800	0.421100	0.379800
H471	H47	0.351400	0.466800	0.606400
H481	H48	0.199200	0.329100	0.611000
C11	C1	0.617800	0.405400	0.086200
C21	C2	0.694500	0.357200	0.045600
C31	C3	0.758000	0.306600	0.093000
C41	C4	0.746400	0.301800	0.180200
C51	C5	0.816100	0.248000	0.228600
C61	C6	0.837400	0.172200	0.196800
C71	C7	0.903000	0.122200	0.244000
C81	C8	0.951400	0.147600	0.322600
C91	C9	0.934300	0.226000	0.354800
C101	C10	0.869500	0.275500	0.308200
C111	C11	0.670400	0.350400	0.218900
C121	C12	0.604200	0.400700	0.171000
C131	C13	0.736300	0.785300	0.004000
C141	C14	0.825800	0.818800	0.072200
C151	C15	0.925200	0.901500	0.071700
C161	C16	0.947200	0.957000	0.001200
C171	C17	0.851100	0.927400	0.938600
C181	C18	0.755800	0.846000	0.937000
C191	C19	0.882200	0.094600	0.586200
C201	C20	0.805500	0.142800	0.545600
C211	C21	0.742000	0.193400	0.593000
C221	C22	0.753600	0.198200	0.680200
C231	C23	0.683900	0.252000	0.728600
C241	C24	0.662600	0.327800	0.696800
C251	C25	0.597000	0.377800	0.744000
C261	C26	0.548600	0.352400	0.822600
C271	C27	0.565700	0.274000	0.854800
C281	C28	0.630500	0.224500	0.808200
C291	C29	0.829600	0.149600	0.718900
C301	C30	0.895800	0.099300	0.671000
C311	C31	0.763700	0.714700	0.504000
C321	C32	0.674200	0.681200	0.572200
C331	C33	0.574800	0.598500	0.571700
C341	C34	0.552800	0.543000	0.501200
C351	C35	0.648900	0.572600	0.438600
C361	C36	0.744200	0.654000	0.437000
C371	C37	0.382200	0.594600	0.913800
C381	C38	0.305500	0.642800	0.954400
C391	C39	0.242000	0.693400	0.907000
C401	C40	0.253600	0.698200	0.819800
C411	C41	0.183900	0.752000	0.771400
C421	C42	0.162600	0.827800	0.803200
C431	C43	0.097000	0.877800	0.756000
C441	C44	0.048600	0.852400	0.677400
C451	C45	0.065700	0.774000	0.645200
C461	C46	0.130500	0.724500	0.691800
C471	C47	0.329600	0.649600	0.781100
C481	C48	0.395800	0.599300	0.829000
C491	C49	0.263700	0.214700	0.996000
C501	C50	0.174200	0.181200	0.927800
C511	C51	0.074800	0.098500	0.928300
C521	C52	0.052800	0.043000	0.998800
C531	C53	0.148900	0.072600	0.061400
C541	C54	0.244200	0.154000	0.063000
C551	C55	0.117800	0.905400	0.413800
C561	C56	0.194500	0.857200	0.454400
C571	C57	0.258000	0.806600	0.407000
C581	C58	0.246400	0.801800	0.319800
C591	C59	0.316100	0.748000	0.271400
C601	C60	0.337400	0.672200	0.303200
C611	C61	0.403000	0.622200	0.256000
C621	C62	0.451400	0.647600	0.177400
C631	C63	0.434300	0.726000	0.145200
C641	C64	0.369500	0.775500	0.191800
C651	C65	0.170400	0.850400	0.281100
C661	C66	0.104200	0.900700	0.329000
C671	C67	0.236300	0.285300	0.496000
C681	C68	0.325800	0.318800	0.427800
C691	C69	0.425200	0.401500	0.428300
C701	C70	0.447200	0.457000	0.498800
C711	C71	0.351100	0.427400	0.561400
C721	C72	0.255800	0.346000	0.563000
O11	O1	0.555400	0.455400	0.039400
O21	O2	0.005200	0.093900	0.369100
O31	O3	0.642600	0.707100	0.003000
O41	O4	0.944600	0.044600	0.539400
O51	O5	0.494800	0.406100	0.869100
O61	O6	0.857400	0.792900	0.503000
O71	O7	0.444600	0.544600	0.960600
O81	O8	0.994800	0.906100	0.630900
O91	O9	0.357400	0.292900	0.997000
O101	O10	0.055400	0.955400	0.460600
O111	O11	0.505200	0.593900	0.130900
O121	O12	0.142600	0.207100	0.497000
