data_XEDLUN_clean_PM
_symmetry_space_group_name_H-M	'P1'
_cell_length_a	10.137000
_cell_length_b	15.745000
_cell_length_c	15.988000
_cell_angle_alpha	90.000000
_cell_angle_beta	90.000000
_cell_angle_gamma	107.760000
_symmetry_Int_Tables_number 1

loop_
_symmetry_equiv_pos_as_xyz
'x,y,z'

loop_
_atom_site_label
_atom_site_type_symbol
_atom_site_fract_x
_atom_site_fract_y
_atom_site_fract_z
Ti11	Ti1	0.867300	0.342000	0.675090
Ti21	Ti2	0.631600	0.157300	0.598920
Ti31	Ti3	0.132700	0.658000	0.175090
Ti41	Ti4	0.368400	0.842700	0.098920
H11	H1	0.954100	0.108700	0.623200
H21	H2	0.047700	0.017600	0.703100
H31	H3	0.053300	0.902200	0.775800
H41	H4	0.170100	0.822000	0.859500
H51	H5	0.212500	0.992400	0.046400
H61	H6	0.101100	0.075900	0.967200
H71	H7	0.912100	0.100100	0.911900
H81	H8	0.798500	0.180700	0.837000
H91	H9	0.071800	0.534400	0.757800
H101	H10	0.226200	0.674300	0.754500
H111	H11	0.394000	0.785500	0.745000
H121	H12	0.553200	0.913200	0.740400
H131	H13	0.437700	0.968600	0.516300
H141	H14	0.266600	0.832100	0.514000
H151	H15	0.096900	0.719000	0.532300
H161	H16	0.951600	0.571400	0.518400
H171	H17	0.277200	0.501600	0.228000
H181	H18	0.379500	0.417300	0.306100
H191	H19	0.427300	0.468700	0.572100
H201	H20	0.548000	0.391000	0.650200
H211	H21	0.699600	0.317200	0.440300
H221	H22	0.586400	0.400500	0.355500
H231	H23	0.438600	0.595100	0.492600
H241	H24	0.341500	0.683300	0.417700
H251	H25	0.045900	0.891300	0.123200
H261	H26	0.952300	0.982400	0.203100
H271	H27	0.946700	0.097800	0.275800
H281	H28	0.829900	0.178000	0.359500
H291	H29	0.787500	0.007600	0.546400
H301	H30	0.898900	0.924100	0.467200
H311	H31	0.087900	0.899900	0.411900
H321	H32	0.201500	0.819300	0.337000
H331	H33	0.928200	0.465600	0.257800
H341	H34	0.773800	0.325700	0.254500
H351	H35	0.606000	0.214500	0.245000
H361	H36	0.446800	0.086800	0.240400
H371	H37	0.562300	0.031400	0.016300
H381	H38	0.733400	0.167900	0.014000
H391	H39	0.903100	0.281000	0.032300
H401	H40	0.048400	0.428600	0.018400
H411	H41	0.722800	0.498400	0.728000
H421	H42	0.620500	0.582700	0.806100
H431	H43	0.572700	0.531300	0.072100
H441	H44	0.452000	0.609000	0.150200
H451	H45	0.300400	0.682800	0.940300
H461	H46	0.413600	0.599500	0.855500
H471	H47	0.561400	0.404900	0.992600
H481	H48	0.658500	0.316700	0.917700
C11	C1	0.869400	0.154800	0.724700
C21	C2	0.944100	0.106100	0.682300
C31	C3	0.002400	0.054200	0.730800
C41	C4	0.998700	0.052500	0.816800
C51	C5	0.070700	0.998800	0.864700
C61	C6	0.086400	0.922200	0.830100
C71	C7	0.156200	0.874500	0.881800
C81	C8	0.201400	0.898300	0.956700
C91	C9	0.181500	0.974300	0.991200
C101	C10	0.115300	0.023900	0.943800
C111	C11	0.920200	0.101200	0.852600
C121	C12	0.853800	0.150400	0.809200
C131	C13	0.987700	0.536800	0.638000
C141	C14	0.078500	0.570200	0.709300
C151	C15	0.172800	0.653000	0.705800
C161	C16	0.195800	0.706300	0.638700
C171	C17	0.301500	0.792300	0.636400
C181	C18	0.396600	0.822400	0.697600
C191	C19	0.491300	0.899200	0.694300
C201	C20	0.515100	0.966200	0.629900
C211	C21	0.427000	0.932500	0.564900
C221	C22	0.322500	0.850000	0.562400
C231	C23	0.098700	0.677300	0.574900
C241	C24	0.003000	0.591100	0.568200
C251	C25	0.298700	0.603000	0.311400
C261	C26	0.312900	0.522400	0.281700
C271	C27	0.376300	0.472900	0.327500
C281	C28	0.438500	0.502900	0.407400
C291	C29	0.506000	0.449000	0.456300
C301	C30	0.486500	0.440900	0.544800
C311	C31	0.555100	0.391800	0.591000
C321	C32	0.633900	0.343900	0.552200
C331	C33	0.645400	0.349000	0.467100
C341	C34	0.579500	0.400300	0.414800
C351	C35	0.411500	0.577900	0.436600
C361	C36	0.350100	0.630100	0.393700
C371	C37	0.130600	0.845200	0.224700
C381	C38	0.055900	0.893900	0.182300
C391	C39	0.997600	0.945800	0.230800
C401	C40	0.001300	0.947500	0.316800
C411	C41	0.929300	0.001200	0.364700
C421	C42	0.913600	0.077800	0.330100
C431	C43	0.843800	0.125500	0.381800
C441	C44	0.798600	0.101700	0.456700
C451	C45	0.818500	0.025700	0.491200
C461	C46	0.884700	0.976100	0.443800
C471	C47	0.079800	0.898800	0.352600
C481	C48	0.146200	0.849600	0.309200
C491	C49	0.012300	0.463200	0.138000
C501	C50	0.921500	0.429800	0.209300
C511	C51	0.827200	0.347000	0.205800
C521	C52	0.804200	0.293700	0.138700
C531	C53	0.698500	0.207700	0.136400
C541	C54	0.603400	0.177600	0.197600
C551	C55	0.508700	0.100800	0.194300
C561	C56	0.484900	0.033800	0.129900
C571	C57	0.573000	0.067500	0.064900
C581	C58	0.677500	0.150000	0.062400
C591	C59	0.901300	0.322700	0.074900
C601	C60	0.997000	0.408900	0.068200
C611	C61	0.701300	0.397000	0.811400
C621	C62	0.687100	0.477600	0.781700
C631	C63	0.623700	0.527100	0.827500
C641	C64	0.561500	0.497100	0.907400
C651	C65	0.494000	0.551000	0.956300
C661	C66	0.513500	0.559100	0.044800
C671	C67	0.444900	0.608200	0.091000
C681	C68	0.366100	0.656100	0.052200
C691	C69	0.354600	0.651000	0.967100
C701	C70	0.420500	0.599700	0.914800
C711	C71	0.588500	0.422100	0.936600
C721	C72	0.649900	0.369900	0.893700
O11	O1	0.804600	0.205000	0.674900
O21	O2	0.253300	0.844200	0.006000
O31	O3	0.896100	0.459200	0.638300
O41	O4	0.610900	0.045000	0.632200
O51	O5	0.242900	0.656400	0.267800
O61	O6	0.693900	0.294300	0.596200
O71	O7	0.195400	0.795000	0.174900
O81	O8	0.746700	0.155800	0.506000
O91	O9	0.103900	0.540800	0.138300
O101	O10	0.389100	0.955000	0.132200
O111	O11	0.757100	0.343600	0.767800
O121	O12	0.306100	0.705700	0.096200
