data_XEDPON_clean_PM
_symmetry_space_group_name_H-M	'P1'
_cell_length_a	9.570000
_cell_length_b	11.648900
_cell_length_c	11.648900
_cell_angle_alpha	80.286000
_cell_angle_beta	65.746800
_cell_angle_gamma	65.746900
_symmetry_Int_Tables_number 1

loop_
_symmetry_equiv_pos_as_xyz
'x,y,z'

loop_
_atom_site_label
_atom_site_type_symbol
_atom_site_fract_x
_atom_site_fract_y
_atom_site_fract_z
Zn11	Zn1	0.302920	0.475290	0.832550
Zn21	Zn2	0.610760	0.524710	0.167450
Zn31	Zn3	0.864530	0.832550	0.524710
Zn41	Zn4	0.221790	0.167450	0.475290
H11	H1	0.997600	0.433900	0.050500
H21	H2	0.591900	0.820200	0.769200
H31	H3	0.078100	0.663700	0.659300
H41	H4	0.482000	0.566100	0.949500
H51	H5	0.181300	0.179800	0.230800
H61	H6	0.401100	0.336300	0.340700
H71	H7	0.951900	0.050500	0.566100
H81	H8	0.638900	0.769200	0.179800
H91	H9	0.262600	0.659300	0.336300
H101	H10	0.568500	0.949500	0.433900
H111	H11	0.587900	0.230800	0.820200
H121	H12	0.258200	0.340700	0.663700
C11	C1	0.958100	0.491400	0.994400
C21	C2	0.790100	0.626700	0.915500
C31	C3	0.683000	0.763400	0.786600
C41	C4	0.973200	0.672700	0.718700
C51	C5	0.951800	0.607300	0.833500
C61	C6	0.443900	0.508600	0.005600
C71	C7	0.332300	0.373300	0.084500
C81	C8	0.233000	0.236600	0.213400
C91	C9	0.364600	0.327300	0.281300
C101	C10	0.392600	0.392700	0.166500
C111	C11	0.047500	0.994400	0.508600
C121	C12	0.294400	0.915500	0.373300
C131	C13	0.530400	0.786600	0.236600
C141	C14	0.308100	0.718700	0.327300
C151	C15	0.214700	0.833500	0.392700
C161	C16	0.550500	0.005600	0.491400
C171	C17	0.583200	0.084500	0.626700
C181	C18	0.553600	0.213400	0.763400
C191	C19	0.354100	0.281300	0.672700
C201	C20	0.440900	0.166500	0.607300
N11	N1	0.058800	0.522300	0.884300
N21	N2	0.797600	0.549900	0.016100
N31	N3	0.654100	0.703000	0.895400
N41	N4	0.835800	0.748800	0.698400
N51	N5	0.465400	0.477700	0.115700
N61	N6	0.363600	0.450100	0.983900
N71	N7	0.252500	0.297000	0.104600
N81	N8	0.283000	0.251200	0.301600
N91	N9	0.056900	0.884300	0.477700
N101	N10	0.186300	0.016100	0.450100
N111	N11	0.450500	0.895400	0.297000
N121	N12	0.465800	0.698400	0.251200
N131	N13	0.418900	0.115700	0.522300
N141	N14	0.652500	0.983900	0.549900
N151	N15	0.642900	0.104600	0.703000
N161	N16	0.415400	0.301600	0.748800
