data_XEDPIH_clean_PM
_symmetry_space_group_name_H-M	'P1'
_cell_length_a	10.209000
_cell_length_b	13.636000
_cell_length_c	14.124000
_cell_angle_alpha	91.568000
_cell_angle_beta	90.000000
_cell_angle_gamma	90.000000
_symmetry_Int_Tables_number 1

loop_
_symmetry_equiv_pos_as_xyz
'x,y,z'

loop_
_atom_site_label
_atom_site_type_symbol
_atom_site_fract_x
_atom_site_fract_y
_atom_site_fract_z
Zn11	Zn1	0.914870	0.337460	0.326730
Zn21	Zn2	0.496030	0.307910	0.654620
Zn31	Zn3	0.414870	0.162540	0.173270
Zn41	Zn4	0.996030	0.192090	0.845380
Zn51	Zn5	0.085130	0.662540	0.673270
Zn61	Zn6	0.503970	0.692090	0.345380
Zn71	Zn7	0.585130	0.837460	0.826730
Zn81	Zn8	0.003970	0.807910	0.154620
H11	H1	0.088900	0.263200	0.476400
H21	H2	0.704400	0.247200	0.811000
H31	H3	0.706600	0.314900	0.478200
H41	H4	0.322300	0.530800	0.291100
H51	H5	0.708500	0.188700	0.237200
H61	H6	0.701800	0.525900	0.350300
H71	H7	0.588900	0.236800	0.023600
H81	H8	0.204400	0.252800	0.689000
H91	H9	0.206600	0.185100	0.021800
H101	H10	0.822300	0.969200	0.208900
H111	H11	0.208500	0.311300	0.262800
H121	H12	0.201800	0.974100	0.149700
H131	H13	0.911100	0.736800	0.523600
H141	H14	0.295600	0.752800	0.189000
H151	H15	0.293400	0.685100	0.521800
H161	H16	0.677700	0.469200	0.708900
H171	H17	0.291500	0.811300	0.762800
H181	H18	0.298200	0.474100	0.649700
H191	H19	0.411100	0.763200	0.976400
H201	H20	0.795600	0.747200	0.311000
H211	H21	0.793400	0.814900	0.978200
H221	H22	0.177700	0.030800	0.791100
H231	H23	0.791500	0.688700	0.737200
H241	H24	0.798200	0.025900	0.850300
C11	C1	0.009500	0.266100	0.511400
C21	C2	0.901200	0.250100	0.647600
C31	C3	0.748000	0.252100	0.751900
C41	C4	0.782200	0.275300	0.604300
C51	C5	0.784600	0.297100	0.510200
C61	C6	0.401800	0.494600	0.290900
C71	C7	0.511100	0.355400	0.262500
C81	C8	0.664400	0.248800	0.250400
C91	C9	0.629100	0.398200	0.294500
C101	C10	0.625300	0.494200	0.326400
C111	C11	0.509500	0.233900	0.988600
C121	C12	0.401200	0.249900	0.852400
C131	C13	0.248000	0.247900	0.748100
C141	C14	0.282200	0.224700	0.895700
C151	C15	0.284600	0.202900	0.989800
C161	C16	0.901800	0.005400	0.209100
C171	C17	0.011100	0.144600	0.237500
C181	C18	0.164400	0.251200	0.249600
C191	C19	0.129100	0.101800	0.205500
C201	C20	0.125300	0.005800	0.173600
C211	C21	0.990500	0.733900	0.488600
C221	C22	0.098800	0.749900	0.352400
C231	C23	0.252000	0.747900	0.248100
C241	C24	0.217800	0.724700	0.395700
C251	C25	0.215400	0.702900	0.489800
C261	C26	0.598200	0.505400	0.709100
C271	C27	0.488900	0.644600	0.737500
C281	C28	0.335600	0.751200	0.749600
C291	C29	0.370900	0.601800	0.705500
C301	C30	0.374700	0.505800	0.673600
C311	C31	0.490500	0.766100	0.011400
C321	C32	0.598800	0.750100	0.147600
C331	C33	0.752000	0.752100	0.251900
C341	C34	0.717800	0.775300	0.104300
C351	C35	0.715400	0.797100	0.010200
C361	C36	0.098200	0.994600	0.790900
C371	C37	0.988900	0.855400	0.762500
C381	C38	0.835600	0.748800	0.750400
C391	C39	0.870900	0.898200	0.794500
C401	C40	0.874700	0.994200	0.826400
Br11	Br1	0.007000	0.495290	0.323410
Br21	Br2	0.408930	0.271360	0.504100
Br31	Br3	0.507000	0.004710	0.176590
Br41	Br4	0.908930	0.228640	0.995900
Br51	Br5	0.993000	0.504710	0.676590
Br61	Br6	0.591070	0.728640	0.495900
Br71	Br7	0.493000	0.995290	0.823410
Br81	Br8	0.091070	0.771360	0.004100
N11	N1	0.899700	0.292800	0.464000
N21	N2	0.015500	0.243600	0.602500
N31	N3	0.879000	0.236100	0.742100
N41	N4	0.685100	0.275100	0.672800
N51	N5	0.510600	0.542100	0.322900
N61	N6	0.396300	0.402000	0.259200
N71	N7	0.534900	0.260300	0.234300
N81	N8	0.726500	0.328100	0.286500
N91	N9	0.399700	0.207200	0.036000
N101	N10	0.515500	0.256400	0.897500
N111	N11	0.379000	0.263900	0.757900
N121	N12	0.185100	0.224900	0.827200
N131	N13	0.010600	0.957900	0.177100
N141	N14	0.896300	0.098000	0.240800
N151	N15	0.034900	0.239700	0.265700
N161	N16	0.226500	0.171900	0.213500
N171	N17	0.100300	0.707200	0.536000
N181	N18	0.984500	0.756400	0.397500
N191	N19	0.121000	0.763900	0.257900
N201	N20	0.314900	0.724900	0.327200
N211	N21	0.489400	0.457900	0.677100
N221	N22	0.603700	0.598000	0.740800
N231	N23	0.465100	0.739700	0.765700
N241	N24	0.273500	0.671900	0.713500
N251	N25	0.600300	0.792800	0.964000
N261	N26	0.484500	0.743600	0.102500
N271	N27	0.621000	0.736100	0.242100
N281	N28	0.814900	0.775100	0.172800
N291	N29	0.989400	0.042100	0.822900
N301	N30	0.103700	0.902000	0.759200
N311	N31	0.965100	0.760300	0.734300
N321	N32	0.773500	0.828100	0.786500
