data_XEFGAQ_clean_PM
_symmetry_space_group_name_H-M	'P1'
_cell_length_a	17.327000
_cell_length_b	17.327000
_cell_length_c	7.728800
_cell_angle_alpha	90.000000
_cell_angle_beta	90.000000
_cell_angle_gamma	90.000000
_symmetry_Int_Tables_number 1

loop_
_symmetry_equiv_pos_as_xyz
'x,y,z'

loop_
_atom_site_label
_atom_site_type_symbol
_atom_site_fract_x
_atom_site_fract_y
_atom_site_fract_z
N11	N1	0.001590	0.342300	0.962400
C11	C1	0.994600	0.452900	0.702900
N21	N2	0.988230	0.511110	0.572600
C21	C2	0.942500	0.454000	0.837200
H11	H1	0.904100	0.493000	0.843800
C31	C3	0.947100	0.397300	0.961900
H21	H2	0.909800	0.397100	0.052000
C41	C4	0.053500	0.344100	0.834900
H31	H3	0.093200	0.306400	0.835200
C51	C5	0.052800	0.397600	0.703100
H41	H4	0.091000	0.396700	0.614900
N31	N3	0.501590	0.842300	0.462400
C61	C6	0.494600	0.952900	0.202900
N41	N4	0.488230	0.011110	0.072600
C71	C7	0.442500	0.954000	0.337200
H51	H5	0.404100	0.993000	0.343800
C81	C8	0.447100	0.897300	0.461900
H61	H6	0.409800	0.897100	0.552000
C91	C9	0.553500	0.844100	0.334900
H71	H7	0.593200	0.806400	0.335200
C101	C10	0.552800	0.897600	0.203100
H81	H8	0.591000	0.896700	0.114900
N51	N5	0.498410	0.657700	0.462400
C111	C11	0.505400	0.547100	0.202900
N61	N6	0.511770	0.488890	0.072600
C121	C12	0.557500	0.546000	0.337200
H91	H9	0.595900	0.507000	0.343800
C131	C13	0.552900	0.602700	0.461900
H101	H10	0.590200	0.602900	0.552000
C141	C14	0.446500	0.655900	0.334900
H111	H11	0.406800	0.693600	0.335200
C151	C15	0.447200	0.602400	0.203100
H121	H12	0.409000	0.603300	0.114900
N71	N7	0.998410	0.157700	0.962400
C161	C16	0.005400	0.047100	0.702900
N81	N8	0.011770	0.988890	0.572600
C171	C17	0.057500	0.046000	0.837200
H131	H13	0.095900	0.007000	0.843800
C181	C18	0.052900	0.102700	0.961900
H141	H14	0.090200	0.102900	0.052000
C191	C19	0.946500	0.155900	0.834900
H151	H15	0.906800	0.193600	0.835200
C201	C20	0.947200	0.102400	0.703100
H161	H16	0.909000	0.103300	0.614900
N91	N9	0.407700	0.251590	0.212400
C211	C21	0.297100	0.244600	0.952900
N101	N10	0.238890	0.238230	0.822600
C221	C22	0.296000	0.192500	0.087200
H171	H17	0.257000	0.154100	0.093800
C231	C23	0.352700	0.197100	0.211900
H181	H18	0.352900	0.159800	0.302000
C241	C24	0.405900	0.303500	0.084900
H191	H19	0.443600	0.343200	0.085200
C251	C25	0.352400	0.302800	0.953100
H201	H20	0.353300	0.341000	0.864900
N111	N11	0.907700	0.751590	0.712400
C261	C26	0.797100	0.744600	0.452900
N121	N12	0.738890	0.738230	0.322600
C271	C27	0.796000	0.692500	0.587200
H211	H21	0.757000	0.654100	0.593800
C281	C28	0.852700	0.697100	0.711900
H221	H22	0.852900	0.659800	0.802000
C291	C29	0.905900	0.803500	0.584900
H231	H23	0.943600	0.843200	0.585200
C301	C30	0.852400	0.802800	0.453100
H241	H24	0.853300	0.841000	0.364900
N131	N13	0.092300	0.748410	0.712400
C311	C31	0.202900	0.755400	0.452900
N141	N14	0.261110	0.761770	0.322600
C321	C32	0.204000	0.807500	0.587200
H251	H25	0.243000	0.845900	0.593800
C331	C33	0.147300	0.802900	0.711900
H261	H26	0.147100	0.840200	0.802000
C341	C34	0.094100	0.696500	0.584900
H271	H27	0.056400	0.656800	0.585200
C351	C35	0.147600	0.697200	0.453100
H281	H28	0.146700	0.659000	0.364900
N151	N15	0.592300	0.248410	0.212400
C361	C36	0.702900	0.255400	0.952900
N161	N16	0.761110	0.261770	0.822600
C371	C37	0.704000	0.307500	0.087200
H291	H29	0.743000	0.345900	0.093800
C381	C38	0.647300	0.302900	0.211900
H301	H30	0.647100	0.340200	0.302000
C391	C39	0.594100	0.196500	0.084900
H311	H31	0.556400	0.156800	0.085200
C401	C40	0.647600	0.197200	0.953100
H321	H32	0.646700	0.159000	0.864900
N171	N17	0.998410	0.657700	0.037600
C411	C41	0.005400	0.547100	0.297100
N181	N18	0.011770	0.488890	0.427400
C421	C42	0.057500	0.546000	0.162800
H331	H33	0.095900	0.507000	0.156200
C431	C43	0.052900	0.602700	0.038100
H341	H34	0.090200	0.602900	0.948000
C441	C44	0.946500	0.655900	0.165100
H351	H35	0.906800	0.693600	0.164800
C451	C45	0.947200	0.602400	0.296900
H361	H36	0.909000	0.603300	0.385100
N191	N19	0.498410	0.157700	0.537600
C461	C46	0.505400	0.047100	0.797100
N201	N20	0.511770	0.988890	0.927400
C471	C47	0.557500	0.046000	0.662800
H371	H37	0.595900	0.007000	0.656200
C481	C48	0.552900	0.102700	0.538100
H381	H38	0.590200	0.102900	0.448000
C491	C49	0.446500	0.155900	0.665100
H391	H39	0.406800	0.193600	0.664800
C501	C50	0.447200	0.102400	0.796900
H401	H40	0.409000	0.103300	0.885100
N211	N21	0.501590	0.342300	0.537600
C511	C51	0.494600	0.452900	0.797100
N221	N22	0.488230	0.511110	0.927400
C521	C52	0.442500	0.454000	0.662800
H411	H41	0.404100	0.493000	0.656200
C531	C53	0.447100	0.397300	0.538100
H421	H42	0.409800	0.397100	0.448000
C541	C54	0.553500	0.344100	0.665100
H431	H43	0.593200	0.306400	0.664800
C551	C55	0.552800	0.397600	0.796900
H441	H44	0.591000	0.396700	0.885100
N231	N23	0.001590	0.842300	0.037600
C561	C56	0.994600	0.952900	0.297100
N241	N24	0.988230	0.011110	0.427400
C571	C57	0.942500	0.954000	0.162800
H451	H45	0.904100	0.993000	0.156200
C581	C58	0.947100	0.897300	0.038100
H461	H46	0.909800	0.897100	0.948000
C591	C59	0.053500	0.844100	0.165100
H471	H47	0.093200	0.806400	0.164800
C601	C60	0.052800	0.897600	0.296900
H481	H48	0.091000	0.896700	0.385100
N251	N25	0.592300	0.748410	0.787600
C611	C61	0.702900	0.755400	0.047100
N261	N26	0.761110	0.761770	0.177400
C621	C62	0.704000	0.807500	0.912800
H491	H49	0.743000	0.845900	0.906200
C631	C63	0.647300	0.802900	0.788100
H501	H50	0.647100	0.840200	0.698000
C641	C64	0.594100	0.696500	0.915100
H511	H51	0.556400	0.656800	0.914800
C651	C65	0.647600	0.697200	0.046900
H521	H52	0.646700	0.659000	0.135100
N271	N27	0.092300	0.248410	0.287600
C661	C66	0.202900	0.255400	0.547100
N281	N28	0.261110	0.261770	0.677400
C671	C67	0.204000	0.307500	0.412800
H531	H53	0.243000	0.345900	0.406200
C681	C68	0.147300	0.302900	0.288100
H541	H54	0.147100	0.340200	0.198000
C691	C69	0.094100	0.196500	0.415100
H551	H55	0.056400	0.156800	0.414800
C701	C70	0.147600	0.197200	0.546900
H561	H56	0.146700	0.159000	0.635100
N291	N29	0.907700	0.251590	0.287600
C711	C71	0.797100	0.244600	0.547100
N301	N30	0.738890	0.238230	0.677400
C721	C72	0.796000	0.192500	0.412800
H571	H57	0.757000	0.154100	0.406200
C731	C73	0.852700	0.197100	0.288100
H581	H58	0.852900	0.159800	0.198000
C741	C74	0.905900	0.303500	0.415100
H591	H59	0.943600	0.343200	0.414800
C751	C75	0.852400	0.302800	0.546900
H601	H60	0.853300	0.341000	0.635100
N311	N31	0.407700	0.751590	0.787600
C761	C76	0.297100	0.744600	0.047100
N321	N32	0.238890	0.738230	0.177400
C771	C77	0.296000	0.692500	0.912800
H611	H61	0.257000	0.654100	0.906200
C781	C78	0.352700	0.697100	0.788100
H621	H62	0.352900	0.659800	0.698000
C791	C79	0.405900	0.803500	0.915100
H631	H63	0.443600	0.843200	0.914800
C801	C80	0.352400	0.802800	0.046900
H641	H64	0.353300	0.841000	0.135100
Cu11	Cu1	0.000000	0.250000	0.125000
Cu21	Cu2	0.500000	0.750000	0.625000
Cu31	Cu3	0.500000	0.250000	0.375000
Cu41	Cu4	0.000000	0.750000	0.875000
