data_XEGJIE02_clean_PM
_symmetry_space_group_name_H-M	'P1'
_cell_length_a	13.103000
_cell_length_b	30.424000
_cell_length_c	23.434000
_cell_angle_alpha	90.000000
_cell_angle_beta	101.392000
_cell_angle_gamma	90.000000
_symmetry_Int_Tables_number 1

loop_
_symmetry_equiv_pos_as_xyz
'x,y,z'

loop_
_atom_site_label
_atom_site_type_symbol
_atom_site_fract_x
_atom_site_fract_y
_atom_site_fract_z
Gd11	Gd1	0.149530	0.230670	0.271490
Gd21	Gd2	0.847820	0.258310	0.203410
O11	O1	0.092300	0.227730	0.362660
O21	O2	0.956600	0.243780	0.294060
O31	O3	0.534000	0.258680	0.681470
O41	O4	0.418800	0.226410	0.613500
O51	O5	0.636100	0.287200	0.358200
O61	O6	0.636700	0.296000	0.447800
O71	O7	0.876900	0.175600	0.564900
O81	O8	0.032000	0.185900	0.554200
O91	O9	0.697800	0.161250	0.445200
O101	O10	0.533600	0.175380	0.435300
O111	O11	0.917800	0.280700	0.574100
O121	O12	0.818200	0.330840	0.595900
O131	O13	0.111300	0.306930	0.284630
O141	O14	0.960600	0.321370	0.223010
O151	O15	0.252400	0.663980	0.182960
O161	O16	0.250700	0.678670	0.274970
O171	O17	0.870500	0.468410	0.166160
O181	O18	0.938100	0.523160	0.218500
O191	O19	0.359400	0.423440	0.325500
O201	O20	0.312400	0.490680	0.327900
O211	O21	0.079000	0.503550	0.360400
O221	O22	0.130800	0.566850	0.393500
O231	O23	0.181000	0.465490	0.163000
O241	O24	0.135400	0.519790	0.105400
O251	O25	0.042900	0.166150	0.252590
O261	O26	0.880200	0.180050	0.205050
O271	O27	0.758600	0.823880	0.331110
O281	O28	0.723600	0.813340	0.235490
O291	O29	0.122600	0.020200	0.332900
O301	O30	0.063500	0.967050	0.275300
O311	O31	0.632700	0.063840	0.174400
O321	O32	0.674000	0.995860	0.188400
O331	O33	0.829100	0.023500	0.345200
O341	O34	0.893200	0.970020	0.401800
O351	O35	0.896100	0.982460	0.139000
O361	O36	0.858000	0.918800	0.113800
N11	N1	0.674400	0.282080	0.408000
N21	N2	0.939600	0.191620	0.538700
N31	N3	0.624900	0.179220	0.460400
N41	N4	0.831400	0.295500	0.577700
N51	N5	0.936400	0.484600	0.204800
N61	N6	0.293300	0.452640	0.315600
N71	N7	0.116500	0.539530	0.355000
N81	N8	0.160700	0.504070	0.154100
N91	N9	0.060700	0.004660	0.290800
N101	N10	0.696000	0.034690	0.189600
N111	N11	0.855500	0.985460	0.353900
N121	N12	0.865200	0.947190	0.148200
C11	C1	0.997300	0.235830	0.346600
C21	C2	0.930000	0.237140	0.391200
C31	C3	0.834000	0.257570	0.379800
H11	H1	0.810200	0.271100	0.344100
C41	C4	0.773400	0.257740	0.422000
C51	C5	0.803700	0.236430	0.475900
C61	C6	0.900900	0.216630	0.485600
C71	C7	0.965500	0.217500	0.445000
H21	H2	0.031600	0.205100	0.453800
C81	C8	0.732800	0.235480	0.519100
C91	C9	0.645400	0.208840	0.510800
C101	C10	0.572300	0.210180	0.546000
H31	H3	0.514200	0.192000	0.538600
C111	C11	0.587300	0.239310	0.592900
C121	C12	0.671500	0.266830	0.602300
H41	H4	0.680600	0.286900	0.632800
C131	C13	0.743300	0.264640	0.566000
C141	C14	0.507200	0.241320	0.631700
C151	C15	0.043900	0.331920	0.256400
C161	C16	0.067500	0.380840	0.261200
C171	C17	0.993300	0.410820	0.234300
H51	H5	0.928000	0.401300	0.215300
C181	C18	0.017800	0.454980	0.236200
C191	C19	0.113800	0.471670	0.262800
C201	C20	0.186000	0.439980	0.289300
C211	C21	0.162700	0.395230	0.289200
H61	H6	0.211900	0.375400	0.308200
C221	C22	0.141900	0.519010	0.255400
C231	C23	0.144300	0.551280	0.299100
C241	C24	0.172300	0.594130	0.291800
H71	H7	0.174600	0.614300	0.321900
C251	C25	0.197000	0.607350	0.239700
C261	C26	0.190300	0.577560	0.194700
H81	H8	0.203400	0.586400	0.158900
C271	C27	0.164000	0.534130	0.203500
C281	C28	0.234200	0.653170	0.231900
C291	C29	0.952700	0.155560	0.229600
C301	C30	0.926700	0.106650	0.230500
C311	C31	0.002200	0.077640	0.256800
H91	H9	0.069200	0.087500	0.272000
C321	C32	0.977500	0.033560	0.260400
C331	C33	0.878300	0.016420	0.239000
C341	C34	0.805000	0.047530	0.213700
C351	C35	0.828200	0.091850	0.209100
H101	H10	0.776800	0.111300	0.191600
C361	C36	0.853900	0.969340	0.249100
C371	C37	0.841600	0.954720	0.303300
C381	C38	0.816700	0.911890	0.314600
H111	H11	0.812400	0.903500	0.352200
C391	C39	0.798300	0.881620	0.269900
C401	C40	0.814300	0.893910	0.215200
H121	H12	0.804700	0.873700	0.184900
C411	C41	0.844600	0.936310	0.206300
C421	C42	0.758200	0.836260	0.279400
Gd31	Gd3	0.350470	0.730670	0.228510
Gd41	Gd4	0.652180	0.758310	0.296590
O371	O37	0.407700	0.727730	0.137340
O381	O38	0.543400	0.743780	0.205940
O391	O39	0.966000	0.758680	0.818530
O401	O40	0.081200	0.726410	0.886500
O411	O41	0.863900	0.787200	0.141800
O421	O42	0.863300	0.796000	0.052200
O431	O43	0.623100	0.675600	0.935100
O441	O44	0.468000	0.685900	0.945800
O451	O45	0.802200	0.661250	0.054800
O461	O46	0.966400	0.675380	0.064700
O471	O47	0.582200	0.780700	0.925900
O481	O48	0.681800	0.830840	0.904100
O491	O49	0.388700	0.806930	0.215370
O501	O50	0.539400	0.821370	0.276990
O511	O51	0.247600	0.163980	0.317040
O521	O52	0.249300	0.178670	0.225030
O531	O53	0.629500	0.968410	0.333840
O541	O54	0.561900	0.023160	0.281500
O551	O55	0.140600	0.923440	0.174500
O561	O56	0.187600	0.990680	0.172100
O571	O57	0.421000	0.003550	0.139600
O581	O58	0.369200	0.066850	0.106500
O591	O59	0.319000	0.965490	0.337000
O601	O60	0.364600	0.019790	0.394600
O611	O61	0.457100	0.666150	0.247410
O621	O62	0.619800	0.680050	0.294950
O631	O63	0.741400	0.323880	0.168890
O641	O64	0.776400	0.313340	0.264510
O651	O65	0.377400	0.520200	0.167100
O661	O66	0.436500	0.467050	0.224700
O671	O67	0.867300	0.563840	0.325600
O681	O68	0.826000	0.495860	0.311600
O691	O69	0.670900	0.523500	0.154800
O701	O70	0.606800	0.470020	0.098200
O711	O71	0.603900	0.482460	0.361000
O721	O72	0.642000	0.418800	0.386200
N131	N13	0.825600	0.782080	0.092000
N141	N14	0.560400	0.691620	0.961300
N151	N15	0.875100	0.679220	0.039600
N161	N16	0.668600	0.795500	0.922300
N171	N17	0.563600	0.984600	0.295200
N181	N18	0.206700	0.952640	0.184400
N191	N19	0.383500	0.039530	0.145000
N201	N20	0.339300	0.004070	0.345900
N211	N21	0.439300	0.504660	0.209200
N221	N22	0.804000	0.534690	0.310400
N231	N23	0.644500	0.485460	0.146100
N241	N24	0.634800	0.447190	0.351800
C431	C43	0.502700	0.735830	0.153400
C441	C44	0.570000	0.737140	0.108800
C451	C45	0.666000	0.757570	0.120200
H131	H13	0.689800	0.771100	0.155900
C461	C46	0.726600	0.757740	0.078000
C471	C47	0.696300	0.736430	0.024100
C481	C48	0.599100	0.716630	0.014400
C491	C49	0.534500	0.717500	0.055000
H141	H14	0.468400	0.705100	0.046200
C501	C50	0.767200	0.735480	0.980900
C511	C51	0.854600	0.708840	0.989200
C521	C52	0.927700	0.710180	0.954000
H151	H15	0.985800	0.692000	0.961400
C531	C53	0.912700	0.739310	0.907100
C541	C54	0.828500	0.766830	0.897700
H161	H16	0.819400	0.786900	0.867200
C551	C55	0.756700	0.764640	0.934000
C561	C56	0.992800	0.741320	0.868300
C571	C57	0.456100	0.831920	0.243600
C581	C58	0.432500	0.880840	0.238800
C591	C59	0.506700	0.910820	0.265700
H171	H17	0.572000	0.901300	0.284700
C601	C60	0.482200	0.954980	0.263800
C611	C61	0.386200	0.971670	0.237200
C621	C62	0.314000	0.939980	0.210700
C631	C63	0.337300	0.895230	0.210800
H181	H18	0.288100	0.875400	0.191800
C641	C64	0.358100	0.019010	0.244600
C651	C65	0.355700	0.051280	0.200900
C661	C66	0.327700	0.094130	0.208200
H191	H19	0.325400	0.114300	0.178100
C671	C67	0.303000	0.107350	0.260300
C681	C68	0.309700	0.077560	0.305300
H201	H20	0.296600	0.086400	0.341100
C691	C69	0.336000	0.034130	0.296500
C701	C70	0.265800	0.153170	0.268100
C711	C71	0.547300	0.655560	0.270400
C721	C72	0.573300	0.606650	0.269500
C731	C73	0.497800	0.577640	0.243200
H211	H21	0.430800	0.587500	0.228000
C741	C74	0.522500	0.533560	0.239600
C751	C75	0.621700	0.516420	0.261000
C761	C76	0.695000	0.547530	0.286300
C771	C77	0.671800	0.591850	0.290900
H221	H22	0.723200	0.611300	0.308400
C781	C78	0.646100	0.469340	0.250900
C791	C79	0.658400	0.454720	0.196700
C801	C80	0.683300	0.411890	0.185400
H231	H23	0.687600	0.403500	0.147800
C811	C81	0.701700	0.381620	0.230100
C821	C82	0.685700	0.393910	0.284800
H241	H24	0.695300	0.373700	0.315100
C831	C83	0.655400	0.436310	0.293700
C841	C84	0.741800	0.336260	0.220600
Gd51	Gd5	0.850470	0.769330	0.728510
Gd61	Gd6	0.152180	0.741690	0.796590
O731	O73	0.907700	0.772270	0.637340
O741	O74	0.043400	0.756220	0.705940
O751	O75	0.466000	0.741320	0.318530
O761	O76	0.581200	0.773590	0.386500
O771	O77	0.363900	0.712800	0.641800
O781	O78	0.363300	0.704000	0.552200
O791	O79	0.123100	0.824400	0.435100
O801	O80	0.968000	0.814100	0.445800
O811	O81	0.302200	0.838750	0.554800
O821	O82	0.466400	0.824620	0.564700
O831	O83	0.082200	0.719300	0.425900
O841	O84	0.181800	0.669160	0.404100
O851	O85	0.888700	0.693070	0.715370
O861	O86	0.039400	0.678630	0.776990
O871	O87	0.747600	0.336020	0.817040
O881	O88	0.749300	0.321330	0.725030
O891	O89	0.129500	0.531590	0.833840
O901	O90	0.061900	0.476840	0.781500
O911	O91	0.640600	0.576560	0.674500
O921	O92	0.687600	0.509320	0.672100
O931	O93	0.921000	0.496450	0.639600
O941	O94	0.869200	0.433150	0.606500
O951	O95	0.819000	0.534510	0.837000
O961	O96	0.864600	0.480210	0.894600
O971	O97	0.957100	0.833850	0.747410
O981	O98	0.119800	0.819950	0.794950
O991	O99	0.241400	0.176120	0.668890
O1001	O100	0.276400	0.186660	0.764510
O1011	O101	0.877400	0.979800	0.667100
O1021	O102	0.936500	0.032950	0.724700
O1031	O103	0.367300	0.936160	0.825600
O1041	O104	0.326000	0.004140	0.811600
O1051	O105	0.170900	0.976500	0.654800
O1061	O106	0.106800	0.029980	0.598200
O1071	O107	0.103900	0.017540	0.861000
O1081	O108	0.142000	0.081200	0.886200
N251	N25	0.325600	0.717920	0.592000
N261	N26	0.060400	0.808380	0.461300
N271	N27	0.375100	0.820780	0.539600
N281	N28	0.168600	0.704500	0.422300
N291	N29	0.063600	0.515400	0.795200
N301	N30	0.706700	0.547360	0.684400
N311	N31	0.883500	0.460470	0.645000
N321	N32	0.839300	0.495930	0.845900
N331	N33	0.939300	0.995340	0.709200
N341	N34	0.304000	0.965310	0.810400
N351	N35	0.144500	0.014540	0.646100
N361	N36	0.134800	0.052810	0.851800
C851	C85	0.002700	0.764170	0.653400
C861	C86	0.070000	0.762860	0.608800
C871	C87	0.166000	0.742430	0.620200
H251	H25	0.189800	0.728900	0.655900
C881	C88	0.226600	0.742260	0.578000
C891	C89	0.196300	0.763570	0.524100
C901	C90	0.099100	0.783370	0.514400
C911	C91	0.034500	0.782500	0.555000
H261	H26	0.968400	0.794900	0.546200
C921	C92	0.267200	0.764520	0.480900
C931	C93	0.354600	0.791160	0.489200
C941	C94	0.427700	0.789820	0.454000
H271	H27	0.485800	0.808000	0.461400
C951	C95	0.412700	0.760690	0.407100
C961	C96	0.328500	0.733170	0.397700
H281	H28	0.319400	0.713100	0.367200
C971	C97	0.256700	0.735360	0.434000
C981	C98	0.492800	0.758680	0.368300
C991	C99	0.956100	0.668080	0.743600
C1001	C100	0.932500	0.619160	0.738800
C1011	C101	0.006700	0.589180	0.765700
H291	H29	0.072000	0.598700	0.784700
C1021	C102	0.982200	0.545020	0.763800
C1031	C103	0.886200	0.528330	0.737200
C1041	C104	0.814000	0.560020	0.710700
C1051	C105	0.837300	0.604770	0.710800
H301	H30	0.788100	0.624600	0.691800
C1061	C106	0.858100	0.480990	0.744600
C1071	C107	0.855700	0.448720	0.700900
C1081	C108	0.827700	0.405870	0.708200
H311	H31	0.825400	0.385700	0.678100
C1091	C109	0.803000	0.392650	0.760300
C1101	C110	0.809700	0.422440	0.805300
H321	H32	0.796600	0.413600	0.841100
C1111	C111	0.836000	0.465870	0.796500
C1121	C112	0.765800	0.346830	0.768100
C1131	C113	0.047300	0.844440	0.770400
C1141	C114	0.073300	0.893350	0.769500
C1151	C115	0.997800	0.922360	0.743200
H331	H33	0.930800	0.912500	0.728000
C1161	C116	0.022500	0.966440	0.739600
C1171	C117	0.121700	0.983580	0.761000
C1181	C118	0.195000	0.952470	0.786300
C1191	C119	0.171800	0.908150	0.790900
H341	H34	0.223200	0.888700	0.808400
C1201	C120	0.146100	0.030660	0.750900
C1211	C121	0.158400	0.045280	0.696700
C1221	C122	0.183300	0.088110	0.685400
H351	H35	0.187600	0.096500	0.647800
C1231	C123	0.201700	0.118380	0.730100
C1241	C124	0.185700	0.106090	0.784800
H361	H36	0.195300	0.126300	0.815100
C1251	C125	0.155400	0.063690	0.793700
C1261	C126	0.241800	0.163740	0.720600
Gd71	Gd7	0.649530	0.269330	0.771490
Gd81	Gd8	0.347820	0.241690	0.703410
O1091	O109	0.592300	0.272270	0.862660
O1101	O110	0.456600	0.256220	0.794060
O1111	O111	0.034000	0.241320	0.181470
O1121	O112	0.918800	0.273590	0.113500
O1131	O113	0.136100	0.212800	0.858200
O1141	O114	0.136700	0.204000	0.947800
O1151	O115	0.376900	0.324400	0.064900
O1161	O116	0.532000	0.314100	0.054200
O1171	O117	0.197800	0.338750	0.945200
O1181	O118	0.033600	0.324620	0.935300
O1191	O119	0.417800	0.219300	0.074100
O1201	O120	0.318200	0.169160	0.095900
O1211	O121	0.611300	0.193070	0.784630
O1221	O122	0.460600	0.178630	0.723010
O1231	O123	0.752400	0.836020	0.682960
O1241	O124	0.750700	0.821330	0.774970
O1251	O125	0.370500	0.031590	0.666160
O1261	O126	0.438100	0.976840	0.718500
O1271	O127	0.859400	0.076560	0.825500
O1281	O128	0.812400	0.009320	0.827900
O1291	O129	0.579000	0.996450	0.860400
O1301	O130	0.630800	0.933150	0.893500
O1311	O131	0.681000	0.034510	0.663000
O1321	O132	0.635400	0.980210	0.605400
O1331	O133	0.542900	0.333850	0.752590
O1341	O134	0.380200	0.319950	0.705050
O1351	O135	0.258600	0.676120	0.831110
O1361	O136	0.223600	0.686660	0.735490
O1371	O137	0.622600	0.479800	0.832900
O1381	O138	0.563500	0.532950	0.775300
O1391	O139	0.132700	0.436160	0.674400
O1401	O140	0.174000	0.504140	0.688400
O1411	O141	0.329100	0.476500	0.845200
O1421	O142	0.393200	0.529980	0.901800
O1431	O143	0.396100	0.517540	0.639000
O1441	O144	0.358000	0.581200	0.613800
N371	N37	0.174400	0.217920	0.908000
N381	N38	0.439600	0.308380	0.038700
N391	N39	0.124900	0.320780	0.960400
N401	N40	0.331400	0.204500	0.077700
N411	N41	0.436400	0.015400	0.704800
N421	N42	0.793300	0.047360	0.815600
N431	N43	0.616500	0.960470	0.855000
N441	N44	0.660700	0.995930	0.654100
N451	N45	0.560700	0.495340	0.790800
N461	N46	0.196000	0.465310	0.689600
N471	N47	0.355500	0.514540	0.853900
N481	N48	0.365200	0.552810	0.648200
C1271	C127	0.497300	0.264170	0.846600
C1281	C128	0.430000	0.262860	0.891200
C1291	C129	0.334000	0.242430	0.879800
H371	H37	0.310200	0.228900	0.844100
C1301	C130	0.273400	0.242260	0.922000
C1311	C131	0.303700	0.263570	0.975900
C1321	C132	0.400900	0.283370	0.985600
C1331	C133	0.465500	0.282500	0.945000
H381	H38	0.531600	0.294900	0.953800
C1341	C134	0.232800	0.264520	0.019100
C1351	C135	0.145400	0.291160	0.010800
C1361	C136	0.072300	0.289820	0.046000
H391	H39	0.014200	0.308000	0.038600
C1371	C137	0.087300	0.260690	0.092900
C1381	C138	0.171500	0.233170	0.102300
H401	H40	0.180600	0.213100	0.132800
C1391	C139	0.243300	0.235360	0.066000
C1401	C140	0.007200	0.258680	0.131700
C1411	C141	0.543900	0.168080	0.756400
C1421	C142	0.567500	0.119160	0.761200
C1431	C143	0.493300	0.089180	0.734300
H411	H41	0.428000	0.098700	0.715300
C1441	C144	0.517800	0.045020	0.736200
C1451	C145	0.613800	0.028330	0.762800
C1461	C146	0.686000	0.060020	0.789300
C1471	C147	0.662700	0.104770	0.789200
H421	H42	0.711900	0.124600	0.808200
C1481	C148	0.641900	0.980990	0.755400
C1491	C149	0.644300	0.948720	0.799100
C1501	C150	0.672300	0.905870	0.791800
H431	H43	0.674600	0.885700	0.821900
C1511	C151	0.697000	0.892650	0.739700
C1521	C152	0.690300	0.922440	0.694700
H441	H44	0.703400	0.913600	0.658900
C1531	C153	0.664000	0.965870	0.703500
C1541	C154	0.734200	0.846830	0.731900
C1551	C155	0.452700	0.344440	0.729600
C1561	C156	0.426700	0.393350	0.730500
C1571	C157	0.502200	0.422360	0.756800
H451	H45	0.569200	0.412500	0.772000
C1581	C158	0.477500	0.466440	0.760400
C1591	C159	0.378300	0.483580	0.739000
C1601	C160	0.305000	0.452470	0.713700
C1611	C161	0.328200	0.408150	0.709100
H461	H46	0.276800	0.388700	0.691600
C1621	C162	0.353900	0.530660	0.749100
C1631	C163	0.341600	0.545280	0.803300
C1641	C164	0.316700	0.588110	0.814600
H471	H47	0.312400	0.596500	0.852200
C1651	C165	0.298300	0.618380	0.769900
C1661	C166	0.314300	0.606090	0.715200
H481	H48	0.304700	0.626300	0.684900
C1671	C167	0.344600	0.563690	0.706300
C1681	C168	0.258200	0.663740	0.779400
