data_XEGJUQ_clean_PM
_symmetry_space_group_name_H-M	'P1'
_cell_length_a	13.307000
_cell_length_b	23.947000
_cell_length_c	30.217000
_cell_angle_alpha	90.000000
_cell_angle_beta	90.000000
_cell_angle_gamma	98.155000
_symmetry_Int_Tables_number 1

loop_
_symmetry_equiv_pos_as_xyz
'x,y,z'

loop_
_atom_site_label
_atom_site_type_symbol
_atom_site_fract_x
_atom_site_fract_y
_atom_site_fract_z
Gd11	Gd1	0.854810	0.729650	0.771270
Gd21	Gd2	0.151860	0.790200	0.748550
Gd31	Gd3	0.645190	0.770350	0.271270
Gd41	Gd4	0.348140	0.709800	0.248550
Gd51	Gd5	0.145190	0.270350	0.228730
Gd61	Gd6	0.848140	0.209800	0.251450
Gd71	Gd7	0.354810	0.229650	0.728730
Gd81	Gd8	0.651860	0.290200	0.751450
H11	H1	0.180000	0.653300	0.722600
H21	H2	0.990600	0.549300	0.797500
H31	H3	0.501200	0.461600	0.793700
H41	H4	0.322100	0.365700	0.706800
H51	H5	0.834600	0.681700	0.390200
H61	H6	0.787100	0.839800	0.412100
H71	H7	0.803100	0.707000	0.626500
H81	H8	0.076600	0.789100	0.600400
H91	H9	0.927400	0.724800	0.917400
H101	H10	0.209700	0.798600	0.894300
H111	H11	0.206300	0.644500	0.102200
H121	H12	0.167000	0.801800	0.132900
H131	H13	0.320000	0.846700	0.222600
H141	H14	0.509400	0.950700	0.297500
H151	H15	0.998800	0.038400	0.293700
H161	H16	0.177900	0.134300	0.206800
H171	H17	0.665400	0.818300	0.890200
H181	H18	0.712900	0.660200	0.912100
H191	H19	0.696900	0.793000	0.126500
H201	H20	0.423400	0.710900	0.100400
H211	H21	0.572600	0.775200	0.417400
H221	H22	0.290300	0.701400	0.394300
H231	H23	0.293700	0.855500	0.602200
H241	H24	0.333000	0.698200	0.632900
H251	H25	0.820000	0.346700	0.277400
H261	H26	0.009400	0.450700	0.202500
H271	H27	0.498800	0.538400	0.206300
H281	H28	0.677900	0.634300	0.293200
H291	H29	0.165400	0.318300	0.609800
H301	H30	0.212900	0.160200	0.587900
H311	H31	0.196900	0.293000	0.373500
H321	H32	0.923400	0.210900	0.399600
H331	H33	0.072600	0.275200	0.082600
H341	H34	0.790300	0.201400	0.105700
H351	H35	0.793700	0.355500	0.897800
H361	H36	0.833000	0.198200	0.867100
H371	H37	0.680000	0.153300	0.777400
H381	H38	0.490600	0.049300	0.702500
H391	H39	0.001200	0.961600	0.706300
H401	H40	0.822100	0.865700	0.793200
H411	H41	0.334600	0.181700	0.109800
H421	H42	0.287100	0.339800	0.087900
H431	H43	0.303100	0.207000	0.873500
H441	H44	0.576600	0.289100	0.899600
H451	H45	0.427400	0.224800	0.582600
H461	H46	0.709700	0.298600	0.605700
H471	H47	0.706300	0.144500	0.397800
H481	H48	0.667000	0.301800	0.367100
C11	C1	0.006800	0.652600	0.765800
C21	C2	0.075300	0.608900	0.761200
C31	C3	0.163000	0.619100	0.737300
C41	C4	0.228100	0.577100	0.735000
C51	C5	0.204700	0.525900	0.756300
C61	C6	0.117700	0.518400	0.779900
C71	C7	0.051300	0.557500	0.782000
C81	C8	0.278200	0.482000	0.754500
C91	C9	0.370600	0.489700	0.778300
C101	C10	0.441800	0.454100	0.777200
C111	C11	0.423000	0.405800	0.750400
C121	C12	0.335100	0.397000	0.725200
C131	C13	0.266300	0.435900	0.727800
C141	C14	0.495400	0.365400	0.749300
C151	C15	0.762600	0.766500	0.347500
C161	C16	0.802300	0.761700	0.392800
C171	C17	0.834800	0.712700	0.408700
C181	C18	0.868000	0.710300	0.453000
C191	C19	0.867000	0.752900	0.482600
C201	C20	0.837100	0.802100	0.465700
C211	C21	0.806000	0.806000	0.422000
C221	C22	0.897000	0.749200	0.531200
C231	C23	0.826400	0.725900	0.562700
C241	C24	0.850900	0.724200	0.606600
C251	C25	0.944400	0.747300	0.621500
C261	C26	0.012800	0.772100	0.591200
C271	C27	0.987200	0.771900	0.547200
C281	C28	0.972100	0.751100	0.670400
C291	C29	0.041800	0.767400	0.849200
C301	C30	0.064700	0.763900	0.898000
C311	C31	0.992500	0.738300	0.927300
C321	C32	0.016700	0.733100	0.970400
C331	C33	0.111400	0.750700	0.989300
C341	C34	0.180900	0.775300	0.958100
C351	C35	0.159400	0.781900	0.913400
C361	C36	0.136700	0.740900	0.036700
C371	C37	0.161700	0.690200	0.050900
C381	C38	0.190100	0.679700	0.094300
C391	C39	0.193500	0.722100	0.124700
C401	C40	0.165600	0.772800	0.112300
C411	C41	0.135600	0.780800	0.069900
C421	C42	0.230600	0.714100	0.170400
C431	C43	0.493200	0.847400	0.265800
C441	C44	0.424700	0.891100	0.261200
C451	C45	0.337000	0.880900	0.237300
C461	C46	0.271900	0.922900	0.235000
C471	C47	0.295300	0.974100	0.256300
C481	C48	0.382300	0.981600	0.279900
C491	C49	0.448700	0.942500	0.282000
C501	C50	0.221800	0.018000	0.254500
C511	C51	0.129400	0.010300	0.278300
C521	C52	0.058200	0.045900	0.277200
C531	C53	0.077000	0.094200	0.250400
C541	C54	0.164900	0.103000	0.225200
C551	C55	0.233700	0.064100	0.227800
C561	C56	0.004600	0.134600	0.249300
C571	C57	0.737400	0.733500	0.847500
C581	C58	0.697700	0.738300	0.892800
C591	C59	0.665200	0.787300	0.908700
C601	C60	0.632000	0.789700	0.953000
C611	C61	0.633000	0.747100	0.982600
C621	C62	0.662900	0.697900	0.965700
C631	C63	0.694000	0.694000	0.922000
C641	C64	0.603000	0.750800	0.031200
C651	C65	0.673600	0.774100	0.062700
C661	C66	0.649100	0.775800	0.106600
C671	C67	0.555600	0.752700	0.121500
C681	C68	0.487200	0.727900	0.091200
C691	C69	0.512800	0.728100	0.047200
C701	C70	0.527900	0.748900	0.170400
C711	C71	0.458200	0.732600	0.349200
C721	C72	0.435300	0.736100	0.398000
C731	C73	0.507500	0.761700	0.427300
C741	C74	0.483300	0.766900	0.470400
C751	C75	0.388600	0.749300	0.489300
C761	C76	0.319100	0.724700	0.458100
C771	C77	0.340600	0.718100	0.413400
C781	C78	0.363300	0.759100	0.536700
C791	C79	0.338300	0.809800	0.550900
C801	C80	0.309900	0.820300	0.594300
C811	C81	0.306500	0.777900	0.624700
C821	C82	0.334400	0.727200	0.612300
C831	C83	0.364400	0.719200	0.569900
C841	C84	0.269400	0.785900	0.670400
C851	C85	0.993200	0.347400	0.234200
C861	C86	0.924700	0.391100	0.238800
C871	C87	0.837000	0.380900	0.262700
C881	C88	0.771900	0.422900	0.265000
C891	C89	0.795300	0.474100	0.243700
C901	C90	0.882300	0.481600	0.220100
C911	C91	0.948700	0.442500	0.218000
C921	C92	0.721800	0.518000	0.245500
C931	C93	0.629400	0.510300	0.221700
C941	C94	0.558200	0.545900	0.222800
C951	C95	0.577000	0.594200	0.249600
C961	C96	0.664900	0.603000	0.274800
C971	C97	0.733700	0.564100	0.272200
C981	C98	0.504600	0.634600	0.250700
C991	C99	0.237400	0.233500	0.652500
C1001	C100	0.197700	0.238300	0.607200
C1011	C101	0.165200	0.287300	0.591300
C1021	C102	0.132000	0.289700	0.547000
C1031	C103	0.133000	0.247100	0.517400
C1041	C104	0.162900	0.197900	0.534300
C1051	C105	0.194000	0.194000	0.578000
C1061	C106	0.103000	0.250800	0.468800
C1071	C107	0.173600	0.274100	0.437300
C1081	C108	0.149100	0.275800	0.393400
C1091	C109	0.055600	0.252700	0.378500
C1101	C110	0.987200	0.227900	0.408800
C1111	C111	0.012800	0.228100	0.452800
C1121	C112	0.027900	0.248900	0.329600
C1131	C113	0.958200	0.232600	0.150800
C1141	C114	0.935300	0.236100	0.102000
C1151	C115	0.007500	0.261700	0.072700
C1161	C116	0.983300	0.266900	0.029600
C1171	C117	0.888600	0.249300	0.010700
C1181	C118	0.819100	0.224700	0.041900
C1191	C119	0.840600	0.218100	0.086600
C1201	C120	0.863300	0.259100	0.963300
C1211	C121	0.838300	0.309800	0.949100
C1221	C122	0.809900	0.320300	0.905700
C1231	C123	0.806500	0.277900	0.875300
C1241	C124	0.834400	0.227200	0.887700
C1251	C125	0.864400	0.219200	0.930100
C1261	C126	0.769400	0.285900	0.829600
C1271	C127	0.506800	0.152600	0.734200
C1281	C128	0.575300	0.108900	0.738800
C1291	C129	0.663000	0.119100	0.762700
C1301	C130	0.728100	0.077100	0.765000
C1311	C131	0.704700	0.025900	0.743700
C1321	C132	0.617700	0.018400	0.720100
C1331	C133	0.551300	0.057500	0.718000
C1341	C134	0.778200	0.982000	0.745500
C1351	C135	0.870600	0.989700	0.721700
C1361	C136	0.941800	0.954100	0.722800
C1371	C137	0.923000	0.905800	0.749600
C1381	C138	0.835100	0.897000	0.774800
C1391	C139	0.766300	0.935900	0.772200
C1401	C140	0.995400	0.865400	0.750700
C1411	C141	0.262600	0.266500	0.152500
C1421	C142	0.302300	0.261700	0.107200
C1431	C143	0.334800	0.212700	0.091300
C1441	C144	0.368000	0.210300	0.047000
C1451	C145	0.367000	0.252900	0.017400
C1461	C146	0.337100	0.302100	0.034300
C1471	C147	0.306000	0.306000	0.078000
C1481	C148	0.397000	0.249200	0.968800
C1491	C149	0.326400	0.225900	0.937300
C1501	C150	0.350900	0.224200	0.893400
C1511	C151	0.444400	0.247300	0.878500
C1521	C152	0.512800	0.272100	0.908800
C1531	C153	0.487200	0.271900	0.952800
C1541	C154	0.472100	0.251100	0.829600
C1551	C155	0.541800	0.267400	0.650800
C1561	C156	0.564700	0.263900	0.602000
C1571	C157	0.492500	0.238300	0.572700
C1581	C158	0.516700	0.233100	0.529600
C1591	C159	0.611400	0.250700	0.510700
C1601	C160	0.680900	0.275300	0.541900
C1611	C161	0.659400	0.281900	0.586600
C1621	C162	0.636700	0.240900	0.463300
C1631	C163	0.661700	0.190200	0.449100
C1641	C164	0.690100	0.179700	0.405700
C1651	C165	0.693500	0.222100	0.375300
C1661	C166	0.665600	0.272800	0.387700
C1671	C167	0.635600	0.280800	0.430100
C1681	C168	0.730600	0.214100	0.329600
N11	N1	0.322600	0.588600	0.708800
N21	N2	0.089500	0.465600	0.804400
N31	N3	0.396200	0.540600	0.808100
N41	N4	0.176300	0.423800	0.699800
N51	N5	0.902800	0.655800	0.465700
N61	N6	0.840700	0.851600	0.493300
N71	N7	0.722000	0.701200	0.550900
N81	N8	0.065100	0.803800	0.518100
N91	N9	0.938200	0.702100	0.000600
N101	N10	0.285900	0.796800	0.973200
N111	N11	0.158700	0.641800	0.020700
N121	N12	0.102400	0.835700	0.059100
N131	N13	0.177400	0.911400	0.208800
N141	N14	0.410500	0.034400	0.304400
N151	N15	0.103800	0.959400	0.308100
N161	N16	0.323700	0.076200	0.199800
N171	N17	0.597200	0.844200	0.965700
N181	N18	0.659300	0.648400	0.993300
N191	N19	0.778000	0.798800	0.050900
N201	N20	0.434900	0.696200	0.018100
N211	N21	0.561800	0.797900	0.500600
N221	N22	0.214100	0.703200	0.473200
N231	N23	0.341300	0.858200	0.520700
N241	N24	0.397600	0.664300	0.559100
N251	N25	0.677400	0.411400	0.291200
N261	N26	0.910500	0.534400	0.195600
N271	N27	0.603800	0.459400	0.191900
N281	N28	0.823700	0.576200	0.300200
N291	N29	0.097200	0.344200	0.534300
N301	N30	0.159300	0.148400	0.506700
N311	N31	0.278000	0.298800	0.449100
N321	N32	0.934900	0.196200	0.481900
N331	N33	0.061800	0.297900	0.999400
N341	N34	0.714100	0.203200	0.026800
N351	N35	0.841300	0.358200	0.979300
N361	N36	0.897600	0.164300	0.940900
N371	N37	0.822600	0.088600	0.791200
N381	N38	0.589500	0.965600	0.695600
N391	N39	0.896200	0.040600	0.691900
N401	N40	0.676300	0.923800	0.800200
N411	N41	0.402800	0.155800	0.034300
N421	N42	0.340700	0.351600	0.006700
N431	N43	0.222000	0.201200	0.949100
N441	N44	0.565100	0.303800	0.981900
N451	N45	0.438200	0.202100	0.499400
N461	N46	0.785900	0.296800	0.526800
N471	N47	0.658700	0.141800	0.479300
N481	N48	0.602400	0.335700	0.440900
O11	O1	0.917000	0.638300	0.775200
O21	O2	0.046000	0.703900	0.758000
O31	O3	0.587600	0.381300	0.758900
O41	O4	0.464800	0.314900	0.738000
O51	O5	0.358600	0.635100	0.703500
O61	O6	0.353800	0.552300	0.688900
O71	O7	0.000300	0.451300	0.812300
O81	O8	0.151000	0.438000	0.817400
O91	O9	0.330800	0.559500	0.825300
O101	O10	0.482700	0.558200	0.811600
O111	O11	0.099300	0.435100	0.711700
O121	O12	0.175400	0.399200	0.668000
O131	O13	0.738100	0.721600	0.326100
O141	O14	0.748200	0.813800	0.333900
O151	O15	0.898600	0.726400	0.695700
O161	O16	0.052200	0.776300	0.681200
O171	O17	0.903800	0.620000	0.438100
O181	O18	0.935400	0.651800	0.502000
O191	O19	0.836600	0.849100	0.532200
O201	O20	0.851600	0.895400	0.477300
O211	O21	0.700700	0.696900	0.513500
O221	O22	0.658400	0.691900	0.578400
O231	O23	0.062300	0.795200	0.478500
O241	O24	0.127500	0.840600	0.534500
O251	O25	0.956300	0.742600	0.836800
O261	O26	0.110000	0.791500	0.825000
O271	O27	0.253300	0.757800	0.194300
O281	O28	0.248000	0.667600	0.183600
O291	O29	0.876800	0.662200	0.979700
O301	O30	0.939400	0.702500	0.037300
O311	O31	0.349400	0.813700	0.943500
O321	O32	0.310400	0.793300	0.011300
O331	O33	0.169100	0.650400	0.981400
O341	O34	0.150000	0.595200	0.035700
O351	O35	0.084500	0.847900	0.022600
O361	O36	0.078400	0.862400	0.090300
O371	O37	0.583000	0.861700	0.275200
O381	O38	0.454000	0.796100	0.258000
O391	O39	0.912400	0.118700	0.258900
O401	O40	0.035200	0.185100	0.238000
O411	O41	0.141400	0.864900	0.203500
O421	O42	0.146200	0.947700	0.188900
O431	O43	0.499700	0.048700	0.312300
O441	O44	0.349000	0.062000	0.317400
O451	O45	0.169200	0.940500	0.325300
O461	O46	0.017300	0.941800	0.311600
O471	O47	0.400700	0.064900	0.211700
O481	O48	0.324600	0.100800	0.168000
O491	O49	0.761900	0.778400	0.826100
O501	O50	0.751800	0.686200	0.833900
O511	O51	0.601400	0.773600	0.195700
O521	O52	0.447800	0.723700	0.181200
O531	O53	0.596200	0.880000	0.938100
O541	O54	0.564600	0.848200	0.002000
O551	O55	0.663400	0.650900	0.032200
O561	O56	0.648400	0.604600	0.977300
O571	O57	0.799300	0.803100	0.013500
O581	O58	0.841600	0.808100	0.078400
O591	O59	0.437700	0.704800	0.978500
O601	O60	0.372500	0.659400	0.034500
O611	O61	0.543700	0.757400	0.336800
O621	O62	0.390000	0.708500	0.325000
O631	O63	0.246700	0.742200	0.694300
O641	O64	0.252000	0.832400	0.683600
O651	O65	0.623200	0.837800	0.479700
O661	O66	0.560600	0.797500	0.537300
O671	O67	0.150600	0.686300	0.443500
O681	O68	0.189600	0.706700	0.511300
O691	O69	0.330900	0.849600	0.481400
O701	O70	0.350000	0.904800	0.535700
O711	O71	0.415500	0.652100	0.522600
O721	O72	0.421600	0.637600	0.590300
O731	O73	0.083000	0.361700	0.224800
O741	O74	0.954000	0.296100	0.242000
O751	O75	0.412400	0.618700	0.241100
O761	O76	0.535200	0.685100	0.262000
O771	O77	0.641400	0.364900	0.296500
O781	O78	0.646200	0.447700	0.311100
O791	O79	0.999700	0.548700	0.187700
O801	O80	0.849000	0.562000	0.182600
O811	O81	0.669200	0.440500	0.174700
O821	O82	0.517300	0.441800	0.188400
O831	O83	0.900700	0.564900	0.288300
O841	O84	0.824600	0.600800	0.332000
O851	O85	0.261900	0.278400	0.673900
O861	O86	0.251800	0.186200	0.666100
O871	O87	0.101400	0.273600	0.304300
O881	O88	0.947800	0.223700	0.318800
O891	O89	0.096200	0.380000	0.561900
O901	O90	0.064600	0.348200	0.498000
O911	O91	0.163400	0.150900	0.467800
O921	O92	0.148400	0.104600	0.522700
O931	O93	0.299300	0.303100	0.486500
O941	O94	0.341600	0.308100	0.421600
O951	O95	0.937700	0.204800	0.521500
O961	O96	0.872500	0.159400	0.465500
O971	O97	0.043700	0.257400	0.163200
O981	O98	0.890000	0.208500	0.175000
O991	O99	0.746700	0.242200	0.805700
O1001	O100	0.752000	0.332400	0.816400
O1011	O101	0.123200	0.337800	0.020300
O1021	O102	0.060600	0.297500	0.962700
O1031	O103	0.650600	0.186300	0.056500
O1041	O104	0.689600	0.206700	0.988700
O1051	O105	0.830900	0.349600	0.018600
O1061	O106	0.850000	0.404800	0.964300
O1071	O107	0.915500	0.152100	0.977400
O1081	O108	0.921600	0.137600	0.909700
O1091	O109	0.417000	0.138300	0.724800
O1101	O110	0.546000	0.203900	0.742000
O1111	O111	0.087600	0.881300	0.741100
O1121	O112	0.964800	0.814900	0.762000
O1131	O113	0.858600	0.135100	0.796500
O1141	O114	0.853800	0.052300	0.811100
O1151	O115	0.500300	0.951300	0.687700
O1161	O116	0.651000	0.938000	0.682600
O1171	O117	0.830800	0.059500	0.674700
O1181	O118	0.982700	0.058200	0.688400
O1191	O119	0.599300	0.935100	0.788300
O1201	O120	0.675400	0.899200	0.832000
O1211	O121	0.238100	0.221600	0.173900
O1221	O122	0.248200	0.313800	0.166100
O1231	O123	0.398600	0.226400	0.804300
O1241	O124	0.552200	0.276300	0.818800
O1251	O125	0.403800	0.120000	0.061900
O1261	O126	0.435400	0.151800	0.998000
O1271	O127	0.336600	0.349100	0.967800
O1281	O128	0.351600	0.395400	0.022700
O1291	O129	0.200700	0.196900	0.986500
O1301	O130	0.158400	0.191900	0.921600
O1311	O131	0.562300	0.295200	0.021500
O1321	O132	0.627500	0.340600	0.965500
O1331	O133	0.456300	0.242600	0.663200
O1341	O134	0.610000	0.291500	0.675000
O1351	O135	0.753300	0.257800	0.305700
O1361	O136	0.748000	0.167600	0.316400
O1371	O137	0.376800	0.162200	0.520300
O1381	O138	0.439400	0.202500	0.462700
O1391	O139	0.849400	0.313700	0.556500
O1401	O140	0.810400	0.293300	0.488700
O1411	O141	0.669100	0.150400	0.518600
O1421	O142	0.650000	0.095200	0.464300
O1431	O143	0.584500	0.347900	0.477400
O1441	O144	0.578400	0.362400	0.409700
