data_XEGKEB_clean_PM
_symmetry_space_group_name_H-M	'P1'
_cell_length_a	13.362000
_cell_length_b	19.486800
_cell_length_c	19.486800
_cell_angle_alpha	101.901000
_cell_angle_beta	93.039400
_cell_angle_gamma	93.039400
_symmetry_Int_Tables_number 1

loop_
_symmetry_equiv_pos_as_xyz
'x,y,z'

loop_
_atom_site_label
_atom_site_type_symbol
_atom_site_fract_x
_atom_site_fract_y
_atom_site_fract_z
Gd11	Gd1	0.352520	0.487460	0.963260
Gd21	Gd2	0.147480	0.036740	0.512540
Gd31	Gd3	0.647480	0.512540	0.036740
Gd41	Gd4	0.852520	0.963260	0.487460
H11	H1	0.569000	0.386000	0.197000
H21	H2	0.299500	0.332000	0.098600
H31	H3	0.286500	0.248200	0.444200
H41	H4	0.340100	0.073000	0.308800
H51	H5	0.673300	0.349400	0.932200
H61	H6	0.493800	0.337400	0.759400
H71	H7	0.931000	0.803000	0.614000
H81	H8	0.200500	0.901400	0.668000
H91	H9	0.213500	0.555800	0.751800
H101	H10	0.159900	0.691200	0.927000
H111	H11	0.826700	0.067800	0.650600
H121	H12	0.006200	0.240600	0.662600
H131	H13	0.431000	0.614000	0.803000
H141	H14	0.700500	0.668000	0.901400
H151	H15	0.713500	0.751800	0.555800
H161	H16	0.659900	0.927000	0.691200
H171	H17	0.326700	0.650600	0.067800
H181	H18	0.506200	0.662600	0.240600
H191	H19	0.069000	0.197000	0.386000
H201	H20	0.799500	0.098600	0.332000
H211	H21	0.786500	0.444200	0.248200
H221	H22	0.840100	0.308800	0.073000
H231	H23	0.173300	0.932200	0.349400
H241	H24	0.993800	0.759400	0.337400
C11	C1	0.460000	0.412500	0.087700
C21	C2	0.438100	0.364600	0.139200
C31	C3	0.507400	0.360400	0.192000
C41	C4	0.483700	0.317100	0.237700
C51	C5	0.393300	0.276700	0.234300
C61	C6	0.321700	0.288000	0.181400
C71	C7	0.346400	0.328700	0.134500
C81	C8	0.367500	0.234300	0.287700
C91	C9	0.333200	0.263800	0.351600
C101	C10	0.304900	0.225300	0.400300
C111	C11	0.304000	0.153100	0.383700
C121	C12	0.339600	0.121700	0.321100
C131	C13	0.375200	0.163000	0.275800
C141	C14	0.262600	0.109900	0.433300
C151	C15	0.506000	0.400400	0.895400
C161	C16	0.576500	0.355400	0.851800
C171	C17	0.660600	0.335500	0.883700
C181	C18	0.727600	0.294200	0.843400
C191	C19	0.713000	0.274800	0.770600
C201	C20	0.623000	0.291800	0.741800
C211	C21	0.555000	0.329400	0.780600
C221	C22	0.040000	0.912300	0.587500
C231	C23	0.061900	0.860800	0.635400
C241	C24	0.992600	0.808000	0.639600
C251	C25	0.016300	0.762300	0.682900
C261	C26	0.106700	0.765700	0.723300
C271	C27	0.178300	0.818600	0.712000
C281	C28	0.153600	0.865500	0.671300
C291	C29	0.132500	0.712300	0.765700
C301	C30	0.166800	0.648400	0.736200
C311	C31	0.195100	0.599700	0.774700
C321	C32	0.196000	0.616300	0.846900
C331	C33	0.160400	0.678900	0.878300
C341	C34	0.124800	0.724200	0.837000
C351	C35	0.237400	0.566700	0.890100
C361	C36	0.994000	0.104600	0.599600
C371	C37	0.923500	0.148200	0.644600
C381	C38	0.839400	0.116300	0.664500
C391	C39	0.772400	0.156600	0.705800
C401	C40	0.787000	0.229400	0.725200
C411	C41	0.877000	0.258200	0.708200
C421	C42	0.945000	0.219400	0.670600
C431	C43	0.540000	0.587500	0.912300
C441	C44	0.561900	0.635400	0.860800
C451	C45	0.492600	0.639600	0.808000
C461	C46	0.516300	0.682900	0.762300
C471	C47	0.606700	0.723300	0.765700
C481	C48	0.678300	0.712000	0.818600
C491	C49	0.653600	0.671300	0.865500
C501	C50	0.632500	0.765700	0.712300
C511	C51	0.666800	0.736200	0.648400
C521	C52	0.695100	0.774700	0.599700
C531	C53	0.696000	0.846900	0.616300
C541	C54	0.660400	0.878300	0.678900
C551	C55	0.624800	0.837000	0.724200
C561	C56	0.737400	0.890100	0.566700
C571	C57	0.494000	0.599600	0.104600
C581	C58	0.423500	0.644600	0.148200
C591	C59	0.339400	0.664500	0.116300
C601	C60	0.272400	0.705800	0.156600
C611	C61	0.287000	0.725200	0.229400
C621	C62	0.377000	0.708200	0.258200
C631	C63	0.445000	0.670600	0.219400
C641	C64	0.960000	0.087700	0.412500
C651	C65	0.938100	0.139200	0.364600
C661	C66	0.007400	0.192000	0.360400
C671	C67	0.983700	0.237700	0.317100
C681	C68	0.893300	0.234300	0.276700
C691	C69	0.821700	0.181400	0.288000
C701	C70	0.846400	0.134500	0.328700
C711	C71	0.867500	0.287700	0.234300
C721	C72	0.833200	0.351600	0.263800
C731	C73	0.804900	0.400300	0.225300
C741	C74	0.804000	0.383700	0.153100
C751	C75	0.839600	0.321100	0.121700
C761	C76	0.875200	0.275800	0.163000
C771	C77	0.762600	0.433300	0.109900
C781	C78	0.006000	0.895400	0.400400
C791	C79	0.076500	0.851800	0.355400
C801	C80	0.160600	0.883700	0.335500
C811	C81	0.227600	0.843400	0.294200
C821	C82	0.213000	0.770600	0.274800
C831	C83	0.123000	0.741800	0.291800
C841	C84	0.055000	0.780600	0.329400
N11	N1	0.559400	0.316300	0.295900
N21	N2	0.223000	0.252800	0.173400
N31	N3	0.329300	0.342900	0.375500
N41	N4	0.414700	0.127200	0.211800
N51	N5	0.816900	0.274200	0.878400
N61	N6	0.602000	0.272200	0.662800
N71	N7	0.940600	0.704100	0.683700
N81	N8	0.277000	0.826600	0.747200
N91	N9	0.170700	0.624500	0.657100
N101	N10	0.085300	0.788200	0.872800
N111	N11	0.683100	0.121600	0.725800
N121	N12	0.898000	0.337200	0.727800
N131	N13	0.440600	0.683700	0.704100
N141	N14	0.777000	0.747200	0.826600
N151	N15	0.670700	0.657100	0.624500
N161	N16	0.585300	0.872800	0.788200
N171	N17	0.183100	0.725800	0.121600
N181	N18	0.398000	0.727800	0.337200
N191	N19	0.059400	0.295900	0.316300
N201	N20	0.723000	0.173400	0.252800
N211	N21	0.829300	0.375500	0.342900
N221	N22	0.914700	0.211800	0.127200
N231	N23	0.316900	0.878400	0.274200
N241	N24	0.102000	0.662800	0.272200
O11	O1	0.389800	0.416900	0.045100
O21	O2	0.545400	0.444000	0.098200
O31	O3	0.250800	0.139200	0.494200
O41	O4	0.236100	0.047900	0.407100
O51	O5	0.619000	0.365700	0.310300
O61	O6	0.552200	0.285200	0.336600
O71	O7	0.158700	0.273700	0.140500
O81	O8	0.203000	0.208900	0.207100
O91	O9	0.318000	0.375700	0.329900
O101	O10	0.335000	0.366900	0.439100
O111	O11	0.452000	0.157400	0.171400
O121	O12	0.425000	0.064300	0.204700
O131	O13	0.415900	0.399100	0.870100
O141	O14	0.538800	0.439300	0.952100
O151	O15	0.818000	0.274600	0.937000
O161	O16	0.892000	0.271800	0.852200
O171	O17	0.670000	0.261600	0.623600
O181	O18	0.517000	0.268300	0.641300
O191	O19	0.110200	0.954900	0.583100
O201	O20	0.954600	0.901800	0.556000
O211	O21	0.249200	0.505800	0.860800
O221	O22	0.263900	0.592900	0.952100
O231	O23	0.881000	0.689700	0.634300
O241	O24	0.947800	0.663400	0.714800
O251	O25	0.341300	0.859500	0.726300
O261	O26	0.297000	0.792900	0.791100
O271	O27	0.182000	0.670100	0.624300
O281	O28	0.165000	0.560900	0.633100
O291	O29	0.048000	0.828600	0.842600
O301	O30	0.075000	0.795300	0.935700
O311	O31	0.084100	0.129900	0.600900
O321	O32	0.961200	0.047900	0.560700
O331	O33	0.682000	0.063000	0.725400
O341	O34	0.608000	0.147800	0.728200
O351	O35	0.830000	0.376400	0.738400
O361	O36	0.983000	0.358700	0.731700
O371	O37	0.610200	0.583100	0.954900
O381	O38	0.454600	0.556000	0.901800
O391	O39	0.749200	0.860800	0.505800
O401	O40	0.763900	0.952100	0.592900
O411	O41	0.381000	0.634300	0.689700
O421	O42	0.447800	0.714800	0.663400
O431	O43	0.841300	0.726300	0.859500
O441	O44	0.797000	0.791100	0.792900
O451	O45	0.682000	0.624300	0.670100
O461	O46	0.665000	0.633100	0.560900
O471	O47	0.548000	0.842600	0.828600
O481	O48	0.575000	0.935700	0.795300
O491	O49	0.584100	0.600900	0.129900
O501	O50	0.461200	0.560700	0.047900
O511	O51	0.182000	0.725400	0.063000
O521	O52	0.108000	0.728200	0.147800
O531	O53	0.330000	0.738400	0.376400
O541	O54	0.483000	0.731700	0.358700
O551	O55	0.889800	0.045100	0.416900
O561	O56	0.045400	0.098200	0.444000
O571	O57	0.750800	0.494200	0.139200
O581	O58	0.736100	0.407100	0.047900
O591	O59	0.119000	0.310300	0.365700
O601	O60	0.052200	0.336600	0.285200
O611	O61	0.658700	0.140500	0.273700
O621	O62	0.703000	0.207100	0.208900
O631	O63	0.818000	0.329900	0.375700
O641	O64	0.835000	0.439100	0.366900
O651	O65	0.952000	0.171400	0.157400
O661	O66	0.925000	0.204700	0.064300
O671	O67	0.915900	0.870100	0.399100
O681	O68	0.038800	0.952100	0.439300
O691	O69	0.318000	0.937000	0.274600
O701	O70	0.392000	0.852200	0.271800
O711	O71	0.170000	0.623600	0.261600
O721	O72	0.017000	0.641300	0.268300
