data_XEGKUR_clean_PM
_symmetry_space_group_name_H-M	'P1'
_cell_length_a	15.309000
_cell_length_b	18.775300
_cell_length_c	18.775300
_cell_angle_alpha	107.984000
_cell_angle_beta	95.822100
_cell_angle_gamma	95.822100
_symmetry_Int_Tables_number 1

loop_
_symmetry_equiv_pos_as_xyz
'x,y,z'

loop_
_atom_site_label
_atom_site_type_symbol
_atom_site_fract_x
_atom_site_fract_y
_atom_site_fract_z
Gd11	Gd1	0.617390	0.566680	0.015340
Gd21	Gd2	0.882610	0.984660	0.433320
Gd31	Gd3	0.382610	0.433320	0.984660
Gd41	Gd4	0.117390	0.015340	0.566680
H11	H1	0.508500	0.301600	0.110600
H21	H2	0.741200	0.438200	0.158800
H31	H3	0.755800	0.204700	0.401900
H41	H4	0.813600	0.068300	0.205100
H51	H5	0.470500	0.754700	0.183700
H61	H6	0.341700	0.551600	0.156600
H71	H7	0.991500	0.889400	0.698400
H81	H8	0.758800	0.841200	0.561800
H91	H9	0.744200	0.598100	0.795300
H101	H10	0.686400	0.794900	0.931700
H111	H11	0.029500	0.816300	0.245300
H121	H12	0.158300	0.843400	0.448400
H131	H13	0.491500	0.698400	0.889400
H141	H14	0.258800	0.561800	0.841200
H151	H15	0.244200	0.795300	0.598100
H161	H16	0.186400	0.931700	0.794900
H171	H17	0.529500	0.245300	0.816300
H181	H18	0.658300	0.448400	0.843400
H191	H19	0.008500	0.110600	0.301600
H201	H20	0.241200	0.158800	0.438200
H211	H21	0.255800	0.401900	0.204700
H221	H22	0.313600	0.205100	0.068300
H231	H23	0.970500	0.183700	0.754700
H241	H24	0.841700	0.156600	0.551600
C11	C1	0.577900	0.423800	0.086000
C21	C2	0.620600	0.378100	0.127300
C31	C3	0.568300	0.312800	0.130400
C41	C4	0.609000	0.265700	0.163900
C51	C5	0.698300	0.279100	0.195700
C61	C6	0.744500	0.344200	0.192200
C71	C7	0.706900	0.394500	0.158900
C81	C8	0.733600	0.230300	0.236900
C91	C9	0.729900	0.241900	0.311100
C101	C10	0.757900	0.193000	0.350200
C111	C11	0.789200	0.125900	0.309700
C121	C12	0.793400	0.112000	0.233000
C131	C13	0.768600	0.161600	0.199200
C141	C14	0.818000	0.075400	0.350000
C151	C15	0.482900	0.613700	0.111500
C161	C16	0.418300	0.648800	0.163000
C171	C17	0.423000	0.724700	0.192100
C181	C18	0.361200	0.759900	0.233500
C191	C19	0.286200	0.716100	0.245500
C201	C20	0.281800	0.638100	0.218900
C211	C21	0.346700	0.604100	0.176100
C221	C22	0.922100	0.914000	0.576200
C231	C23	0.879400	0.872700	0.621900
C241	C24	0.931700	0.869600	0.687200
C251	C25	0.891000	0.836100	0.734300
C261	C26	0.801700	0.804300	0.720900
C271	C27	0.755500	0.807800	0.655800
C281	C28	0.793100	0.841100	0.605500
C291	C29	0.766400	0.763100	0.769700
C301	C30	0.770100	0.688900	0.758100
C311	C31	0.742100	0.649800	0.807000
C321	C32	0.710800	0.690300	0.874100
C331	C33	0.706600	0.767000	0.888000
C341	C34	0.731400	0.800800	0.838400
C351	C35	0.682000	0.650000	0.924600
C361	C36	0.017100	0.888500	0.386300
C371	C37	0.081700	0.837000	0.351200
C381	C38	0.077000	0.807900	0.275300
C391	C39	0.138800	0.766500	0.240100
C401	C40	0.213800	0.754500	0.283900
C411	C41	0.218200	0.781100	0.361900
C421	C42	0.153300	0.823900	0.395900
C431	C43	0.422100	0.576200	0.914000
C441	C44	0.379400	0.621900	0.872700
C451	C45	0.431700	0.687200	0.869600
C461	C46	0.391000	0.734300	0.836100
C471	C47	0.301700	0.720900	0.804300
C481	C48	0.255500	0.655800	0.807800
C491	C49	0.293100	0.605500	0.841100
C501	C50	0.266400	0.769700	0.763100
C511	C51	0.270100	0.758100	0.688900
C521	C52	0.242100	0.807000	0.649800
C531	C53	0.210800	0.874100	0.690300
C541	C54	0.206600	0.888000	0.767000
C551	C55	0.231400	0.838400	0.800800
C561	C56	0.182000	0.924600	0.650000
C571	C57	0.517100	0.386300	0.888500
C581	C58	0.581700	0.351200	0.837000
C591	C59	0.577000	0.275300	0.807900
C601	C60	0.638800	0.240100	0.766500
C611	C61	0.713800	0.283900	0.754500
C621	C62	0.718200	0.361900	0.781100
C631	C63	0.653300	0.395900	0.823900
C641	C64	0.077900	0.086000	0.423800
C651	C65	0.120600	0.127300	0.378100
C661	C66	0.068300	0.130400	0.312800
C671	C67	0.109000	0.163900	0.265700
C681	C68	0.198300	0.195700	0.279100
C691	C69	0.244500	0.192200	0.344200
C701	C70	0.206900	0.158900	0.394500
C711	C71	0.233600	0.236900	0.230300
C721	C72	0.229900	0.311100	0.241900
C731	C73	0.257900	0.350200	0.193000
C741	C74	0.289200	0.309700	0.125900
C751	C75	0.293400	0.233000	0.112000
C761	C76	0.268600	0.199200	0.161600
C771	C77	0.318000	0.350000	0.075400
C781	C78	0.982900	0.111500	0.613700
C791	C79	0.918300	0.163000	0.648800
C801	C80	0.923000	0.192100	0.724700
C811	C81	0.861200	0.233500	0.759900
C821	C82	0.786200	0.245500	0.716100
C831	C83	0.781800	0.218900	0.638100
C841	C84	0.846700	0.176100	0.604100
N11	N1	0.549500	0.198000	0.162600
N21	N2	0.837900	0.364700	0.226900
N31	N3	0.690900	0.307800	0.357200
N41	N4	0.776600	0.142500	0.118100
N51	N5	0.376600	0.844600	0.264600
N61	N6	0.205300	0.600600	0.237600
N71	N7	0.950500	0.837400	0.802000
N81	N8	0.662100	0.773100	0.635300
N91	N9	0.809100	0.642800	0.692200
N101	N10	0.723400	0.881900	0.857500
N111	N11	0.123400	0.735400	0.155400
N121	N12	0.294700	0.762400	0.399400
N131	N13	0.450500	0.802000	0.837400
N141	N14	0.162100	0.635300	0.773100
N151	N15	0.309100	0.692200	0.642800
N161	N16	0.223400	0.857500	0.881900
N171	N17	0.623400	0.155400	0.735400
N181	N18	0.794700	0.399400	0.762400
N191	N19	0.049500	0.162600	0.198000
N201	N20	0.337900	0.226900	0.364700
N211	N21	0.190900	0.357200	0.307800
N221	N22	0.276600	0.118100	0.142500
N231	N23	0.876600	0.264600	0.844600
N241	N24	0.705300	0.237600	0.600600
O11	O1	0.624900	0.484600	0.091200
O21	O2	0.501800	0.400100	0.052500
O31	O3	0.828900	0.099900	0.422700
O41	O4	0.830500	0.010700	0.312900
O51	O5	0.474300	0.199800	0.164800
O61	O6	0.584700	0.136900	0.143700
O71	O7	0.866400	0.428700	0.243900
O81	O8	0.879500	0.319400	0.240400
O91	O9	0.650000	0.300600	0.408400
O101	O10	0.714800	0.369700	0.344700
O111	O11	0.781200	0.193700	0.091300
O121	O12	0.780100	0.078200	0.084000
O131	O13	0.461800	0.546500	0.067700
O141	O14	0.553300	0.652700	0.114500
O151	O15	0.444900	0.877500	0.259500
O161	O16	0.351000	0.873900	0.324900
O171	O17	0.130300	0.610200	0.230200
O181	O18	0.214000	0.535000	0.226400
O191	O19	0.875100	0.908800	0.515400
O201	O20	0.998200	0.947500	0.599900
O211	O21	0.671100	0.577300	0.900100
O221	O22	0.669500	0.687100	0.989300
O231	O23	0.025700	0.835200	0.800200
O241	O24	0.915300	0.856300	0.863100
O251	O25	0.633600	0.756100	0.571300
O261	O26	0.620500	0.759600	0.680600
O271	O27	0.850000	0.591600	0.699400
O281	O28	0.785200	0.655300	0.630300
O291	O29	0.718800	0.908700	0.806300
O301	O30	0.719900	0.916000	0.921800
O311	O31	0.038200	0.932300	0.453500
O321	O32	0.946700	0.885500	0.347300
O331	O33	0.055100	0.740500	0.122500
O341	O34	0.149000	0.675100	0.126100
O351	O35	0.369700	0.769800	0.389800
O361	O36	0.286000	0.773600	0.465000
O371	O37	0.375100	0.515400	0.908800
O381	O38	0.498200	0.599900	0.947500
O391	O39	0.171100	0.900100	0.577300
O401	O40	0.169500	0.989300	0.687100
O411	O41	0.525700	0.800200	0.835200
O421	O42	0.415300	0.863100	0.856300
O431	O43	0.133600	0.571300	0.756100
O441	O44	0.120500	0.680600	0.759600
O451	O45	0.350000	0.699400	0.591600
O461	O46	0.285200	0.630300	0.655300
O471	O47	0.218800	0.806300	0.908700
O481	O48	0.219900	0.921800	0.916000
O491	O49	0.538200	0.453500	0.932300
O501	O50	0.446700	0.347300	0.885500
O511	O51	0.555100	0.122500	0.740500
O521	O52	0.649000	0.126100	0.675100
O531	O53	0.869700	0.389800	0.769800
O541	O54	0.786000	0.465000	0.773600
O551	O55	0.124900	0.091200	0.484600
O561	O56	0.001800	0.052500	0.400100
O571	O57	0.328900	0.422700	0.099900
O581	O58	0.330500	0.312900	0.010700
O591	O59	0.974300	0.164800	0.199800
O601	O60	0.084700	0.143700	0.136900
O611	O61	0.366400	0.243900	0.428700
O621	O62	0.379500	0.240400	0.319400
O631	O63	0.150000	0.408400	0.300600
O641	O64	0.214800	0.344700	0.369700
O651	O65	0.281200	0.091300	0.193700
O661	O66	0.280100	0.084000	0.078200
O671	O67	0.961800	0.067700	0.546500
O681	O68	0.053300	0.114500	0.652700
O691	O69	0.944900	0.259500	0.877500
O701	O70	0.851000	0.324900	0.873900
O711	O71	0.630300	0.230200	0.610200
O721	O72	0.714000	0.226400	0.535000
