data_XEHDEV_clean_PM
_symmetry_space_group_name_H-M	'P1'
_cell_length_a	31.379000
_cell_length_b	31.379000
_cell_length_c	12.684000
_cell_angle_alpha	90.000000
_cell_angle_beta	90.000000
_cell_angle_gamma	120.000000
_symmetry_Int_Tables_number 1

loop_
_symmetry_equiv_pos_as_xyz
'x,y,z'

loop_
_atom_site_label
_atom_site_type_symbol
_atom_site_fract_x
_atom_site_fract_y
_atom_site_fract_z
P11	P1	0.024320	0.655580	0.063060
H11	H1	0.079700	0.678300	0.057800
P21	P2	0.006390	0.568140	0.514380
H21	H2	0.956600	0.557200	0.496200
P31	P3	0.051560	0.524660	0.130390
H31	H3	0.100100	0.542700	0.107200
P41	P4	0.929850	0.520570	0.217700
H41	H4	0.882900	0.490400	0.224100
Be11	Be1	0.003700	0.506500	0.333400
Be21	Be2	0.988500	0.554470	0.024300
Be31	Be3	0.043640	0.669820	0.578800
O11	O1	0.010160	0.643180	0.177450
O21	O2	0.002870	0.610610	0.993600
O31	O3	0.012910	0.693900	0.022630
O41	O4	0.039010	0.623510	0.516100
O51	O5	0.021570	0.548470	0.422500
O61	O6	0.007680	0.546260	0.618900
O71	O7	0.048780	0.526730	0.249000
O81	O8	0.037060	0.557950	0.074700
O91	O9	0.025000	0.472590	0.090200
O101	O10	0.940900	0.528530	0.101100
O111	O11	0.953520	0.494880	0.272300
O121	O12	0.938620	0.565830	0.276300
P51	P5	0.690990	0.988910	0.396390
H51	H5	0.746370	0.011630	0.391130
P61	P6	0.673060	0.901470	0.847710
H61	H6	0.623270	0.890530	0.829530
P71	P7	0.718230	0.857990	0.463720
H71	H7	0.766770	0.876030	0.440530
P81	P8	0.596520	0.853900	0.551030
H81	H8	0.549570	0.823730	0.557430
Be41	Be4	0.670370	0.839830	0.666730
Be51	Be5	0.655170	0.887800	0.357630
Be61	Be6	0.710310	0.003150	0.912130
O131	O13	0.676830	0.976510	0.510780
O141	O14	0.669540	0.943940	0.326930
O151	O15	0.679580	0.027230	0.355960
O161	O16	0.705680	0.956840	0.849430
O171	O17	0.688240	0.881800	0.755830
O181	O18	0.674350	0.879590	0.952230
O191	O19	0.715450	0.860060	0.582330
O201	O20	0.703730	0.891280	0.408030
O211	O21	0.691670	0.805920	0.423530
O221	O22	0.607570	0.861860	0.434430
O231	O23	0.620190	0.828210	0.605630
O241	O24	0.605290	0.899160	0.609630
P91	P9	0.357650	0.322250	0.729730
H91	H9	0.413030	0.344970	0.724470
P101	P10	0.339720	0.234810	0.181050
H101	H10	0.289930	0.223870	0.162870
P111	P11	0.384890	0.191330	0.797060
H111	H11	0.433430	0.209370	0.773870
P121	P12	0.263180	0.187240	0.884370
H121	H12	0.216230	0.157070	0.890770
Be71	Be7	0.337030	0.173170	0.000070
Be81	Be8	0.321830	0.221140	0.690970
Be91	Be9	0.376970	0.336490	0.245470
O251	O25	0.343490	0.309850	0.844120
O261	O26	0.336200	0.277280	0.660270
O271	O27	0.346240	0.360570	0.689300
O281	O28	0.372340	0.290180	0.182770
O291	O29	0.354900	0.215140	0.089170
O301	O30	0.341010	0.212930	0.285570
O311	O31	0.382110	0.193400	0.915670
O321	O32	0.370390	0.224620	0.741370
O331	O33	0.358330	0.139260	0.756870
O341	O34	0.274230	0.195200	0.767770
O351	O35	0.286850	0.161550	0.938970
O361	O36	0.271950	0.232500	0.942970
P131	P13	0.344420	0.368740	0.063060
H131	H13	0.321700	0.401400	0.057800
P141	P14	0.431860	0.438250	0.514380
H141	H14	0.442800	0.399400	0.496200
P151	P15	0.475340	0.526900	0.130390
H151	H15	0.457300	0.557400	0.107200
P161	P16	0.479430	0.409280	0.217700
H161	H16	0.509600	0.392500	0.224100
Be101	Be10	0.493500	0.497200	0.333400
Be111	Be11	0.445530	0.434030	0.024300
Be121	Be12	0.330180	0.373820	0.578800
O371	O37	0.356820	0.366980	0.177450
O381	O38	0.389390	0.392260	0.993600
O391	O39	0.306100	0.319010	0.022630
O401	O40	0.376490	0.415500	0.516100
O411	O41	0.451530	0.473100	0.422500
O421	O42	0.453740	0.461420	0.618900
O431	O43	0.473270	0.522050	0.249000
O441	O44	0.442050	0.479110	0.074700
O451	O45	0.527410	0.552410	0.090200
O461	O46	0.471470	0.412370	0.101100
O471	O47	0.505120	0.458640	0.272300
O481	O48	0.434170	0.372790	0.276300
P171	P17	0.011090	0.702070	0.396390
H171	H17	0.988370	0.734730	0.391130
P181	P18	0.098530	0.771580	0.847710
H181	H18	0.109470	0.732730	0.829530
P191	P19	0.142010	0.860230	0.463720
H191	H19	0.123970	0.890730	0.440530
P201	P20	0.146100	0.742610	0.551030
H201	H20	0.176270	0.725830	0.557430
Be131	Be13	0.160170	0.830530	0.666730
Be141	Be14	0.112200	0.767360	0.357630
Be151	Be15	0.996850	0.707150	0.912130
O491	O49	0.023490	0.700310	0.510780
O501	O50	0.056060	0.725590	0.326930
O511	O51	0.972770	0.652340	0.355960
O521	O52	0.043160	0.748830	0.849430
O531	O53	0.118200	0.806430	0.755830
O541	O54	0.120410	0.794750	0.952230
O551	O55	0.139940	0.855380	0.582330
O561	O56	0.108720	0.812440	0.408030
O571	O57	0.194080	0.885740	0.423530
O581	O58	0.138140	0.745700	0.434430
O591	O59	0.171790	0.791970	0.605630
O601	O60	0.100840	0.706120	0.609630
P211	P21	0.677750	0.035410	0.729730
H211	H21	0.655030	0.068070	0.724470
P221	P22	0.765190	0.104920	0.181050
H221	H22	0.776130	0.066070	0.162870
P231	P23	0.808670	0.193570	0.797060
H231	H23	0.790630	0.224070	0.773870
P241	P24	0.812760	0.075950	0.884370
H241	H24	0.842930	0.059170	0.890770
Be161	Be16	0.826830	0.163870	0.000070
Be171	Be17	0.778860	0.100700	0.690970
Be181	Be18	0.663510	0.040490	0.245470
O611	O61	0.690150	0.033650	0.844120
O621	O62	0.722720	0.058930	0.660270
O631	O63	0.639430	0.985680	0.689300
O641	O64	0.709820	0.082170	0.182770
O651	O65	0.784860	0.139770	0.089170
O661	O66	0.787070	0.128090	0.285570
O671	O67	0.806600	0.188720	0.915670
O681	O68	0.775380	0.145780	0.741370
O691	O69	0.860740	0.219080	0.756870
O701	O70	0.804800	0.079040	0.767770
O711	O71	0.838450	0.125310	0.938970
O721	O72	0.767500	0.039460	0.942970
P251	P25	0.631260	0.975680	0.063060
H251	H25	0.598600	0.920300	0.057800
P261	P26	0.561750	0.993610	0.514380
H261	H26	0.600600	0.043400	0.496200
P271	P27	0.473100	0.948440	0.130390
H271	H27	0.442600	0.899900	0.107200
P281	P28	0.590720	0.070150	0.217700
H281	H28	0.607500	0.117100	0.224100
Be191	Be19	0.502800	0.996300	0.333400
Be201	Be20	0.565970	0.011500	0.024300
Be211	Be21	0.626180	0.956360	0.578800
O731	O73	0.633020	0.989840	0.177450
O741	O74	0.607740	0.997130	0.993600
O751	O75	0.680990	0.987090	0.022630
O761	O76	0.584500	0.960990	0.516100
O771	O77	0.526900	0.978430	0.422500
O781	O78	0.538580	0.992320	0.618900
O791	O79	0.477950	0.951220	0.249000
O801	O80	0.520890	0.962940	0.074700
O811	O81	0.447590	0.975000	0.090200
O821	O82	0.587630	0.059100	0.101100
O831	O83	0.541360	0.046480	0.272300
O841	O84	0.627210	0.061380	0.276300
P291	P29	0.297930	0.309010	0.396390
H291	H29	0.265270	0.253630	0.391130
P301	P30	0.228420	0.326940	0.847710
H301	H30	0.267270	0.376730	0.829530
P311	P31	0.139770	0.281770	0.463720
H311	H31	0.109270	0.233230	0.440530
P321	P32	0.257390	0.403480	0.551030
H321	H32	0.274170	0.450430	0.557430
Be221	Be22	0.169470	0.329630	0.666730
Be231	Be23	0.232640	0.344830	0.357630
Be241	Be24	0.292850	0.289690	0.912130
O851	O85	0.299690	0.323170	0.510780
O861	O86	0.274410	0.330460	0.326930
O871	O87	0.347660	0.320420	0.355960
O881	O88	0.251170	0.294320	0.849430
O891	O89	0.193570	0.311760	0.755830
O901	O90	0.205250	0.325650	0.952230
O911	O91	0.144620	0.284550	0.582330
O921	O92	0.187560	0.296270	0.408030
O931	O93	0.114260	0.308330	0.423530
O941	O94	0.254300	0.392430	0.434430
O951	O95	0.208030	0.379810	0.605630
O961	O96	0.293880	0.394710	0.609630
P331	P33	0.964590	0.642350	0.729730
H331	H33	0.931930	0.586970	0.724470
P341	P34	0.895080	0.660280	0.181050
H341	H34	0.933930	0.710070	0.162870
P351	P35	0.806430	0.615110	0.797060
H351	H35	0.775930	0.566570	0.773870
P361	P36	0.924050	0.736820	0.884370
H361	H36	0.940830	0.783770	0.890770
Be251	Be25	0.836130	0.662970	0.000070
Be261	Be26	0.899300	0.678170	0.690970
Be271	Be27	0.959510	0.623030	0.245470
O971	O97	0.966350	0.656510	0.844120
O981	O98	0.941070	0.663800	0.660270
O991	O99	0.014320	0.653760	0.689300
O1001	O100	0.917830	0.627660	0.182770
O1011	O101	0.860230	0.645100	0.089170
O1021	O102	0.871910	0.658990	0.285570
O1031	O103	0.811280	0.617890	0.915670
O1041	O104	0.854220	0.629610	0.741370
O1051	O105	0.780920	0.641670	0.756870
O1061	O106	0.920960	0.725770	0.767770
O1071	O107	0.874690	0.713150	0.938970
O1081	O108	0.960540	0.728050	0.942970
P371	P37	0.975680	0.344420	0.936940
H371	H37	0.920300	0.321700	0.942200
P381	P38	0.993610	0.431860	0.485620
H381	H38	0.043400	0.442800	0.503800
P391	P39	0.948440	0.475340	0.869610
H391	H39	0.899900	0.457300	0.892800
P401	P40	0.070150	0.479430	0.782300
H401	H40	0.117100	0.509600	0.775900
Be281	Be28	0.996300	0.493500	0.666600
Be291	Be29	0.011500	0.445530	0.975700
Be301	Be30	0.956360	0.330180	0.421200
O1091	O109	0.989840	0.356820	0.822550
O1101	O110	0.997130	0.389390	0.006400
O1111	O111	0.987090	0.306100	0.977370
O1121	O112	0.960990	0.376490	0.483900
O1131	O113	0.978430	0.451530	0.577500
O1141	O114	0.992320	0.453740	0.381100
O1151	O115	0.951220	0.473270	0.751000
O1161	O116	0.962940	0.442050	0.925300
O1171	O117	0.975000	0.527410	0.909800
O1181	O118	0.059100	0.471470	0.898900
O1191	O119	0.046480	0.505120	0.727700
O1201	O120	0.061380	0.434170	0.723700
P411	P41	0.642350	0.677750	0.270270
H411	H41	0.586970	0.655030	0.275530
P421	P42	0.660280	0.765190	0.818950
H421	H42	0.710070	0.776130	0.837130
P431	P43	0.615110	0.808670	0.202940
H431	H43	0.566570	0.790630	0.226130
P441	P44	0.736820	0.812760	0.115630
H441	H44	0.783770	0.842930	0.109230
Be311	Be31	0.662970	0.826830	0.999930
Be321	Be32	0.678170	0.778860	0.309030
Be331	Be33	0.623030	0.663510	0.754530
O1211	O121	0.656510	0.690150	0.155880
O1221	O122	0.663800	0.722720	0.339730
O1231	O123	0.653760	0.639430	0.310700
O1241	O124	0.627660	0.709820	0.817230
O1251	O125	0.645100	0.784860	0.910830
O1261	O126	0.658990	0.787070	0.714430
O1271	O127	0.617890	0.806600	0.084330
O1281	O128	0.629610	0.775380	0.258630
O1291	O129	0.641670	0.860740	0.243130
O1301	O130	0.725770	0.804800	0.232230
O1311	O131	0.713150	0.838450	0.061030
O1321	O132	0.728050	0.767500	0.057030
P451	P45	0.309010	0.011090	0.603610
H451	H45	0.253630	0.988370	0.608870
P461	P46	0.326940	0.098530	0.152290
H461	H46	0.376730	0.109470	0.170470
P471	P47	0.281770	0.142010	0.536280
H471	H47	0.233230	0.123970	0.559470
P481	P48	0.403480	0.146100	0.448970
H481	H48	0.450430	0.176270	0.442570
Be341	Be34	0.329630	0.160170	0.333270
Be351	Be35	0.344830	0.112200	0.642370
Be361	Be36	0.289690	0.996850	0.087870
O1331	O133	0.323170	0.023490	0.489220
O1341	O134	0.330460	0.056060	0.673070
O1351	O135	0.320420	0.972770	0.644040
O1361	O136	0.294320	0.043160	0.150570
O1371	O137	0.311760	0.118200	0.244170
O1381	O138	0.325650	0.120410	0.047770
O1391	O139	0.284550	0.139940	0.417670
O1401	O140	0.296270	0.108720	0.591970
O1411	O141	0.308330	0.194080	0.576470
O1421	O142	0.392430	0.138140	0.565570
O1431	O143	0.379810	0.171790	0.394370
O1441	O144	0.394710	0.100840	0.390370
P491	P49	0.655580	0.631260	0.936940
H491	H49	0.678300	0.598600	0.942200
P501	P50	0.568140	0.561750	0.485620
H501	H50	0.557200	0.600600	0.503800
P511	P51	0.524660	0.473100	0.869610
H511	H51	0.542700	0.442600	0.892800
P521	P52	0.520570	0.590720	0.782300
H521	H52	0.490400	0.607500	0.775900
Be371	Be37	0.506500	0.502800	0.666600
Be381	Be38	0.554470	0.565970	0.975700
Be391	Be39	0.669820	0.626180	0.421200
O1451	O145	0.643180	0.633020	0.822550
O1461	O146	0.610610	0.607740	0.006400
O1471	O147	0.693900	0.680990	0.977370
O1481	O148	0.623510	0.584500	0.483900
O1491	O149	0.548470	0.526900	0.577500
O1501	O150	0.546260	0.538580	0.381100
O1511	O151	0.526730	0.477950	0.751000
O1521	O152	0.557950	0.520890	0.925300
O1531	O153	0.472590	0.447590	0.909800
O1541	O154	0.528530	0.587630	0.898900
O1551	O155	0.494880	0.541360	0.727700
O1561	O156	0.565830	0.627210	0.723700
P531	P53	0.322250	0.964590	0.270270
H531	H53	0.344970	0.931930	0.275530
P541	P54	0.234810	0.895080	0.818950
H541	H54	0.223870	0.933930	0.837130
P551	P55	0.191330	0.806430	0.202940
H551	H55	0.209370	0.775930	0.226130
P561	P56	0.187240	0.924050	0.115630
H561	H56	0.157070	0.940830	0.109230
Be401	Be40	0.173170	0.836130	0.999930
Be411	Be41	0.221140	0.899300	0.309030
Be421	Be42	0.336490	0.959510	0.754530
O1571	O157	0.309850	0.966350	0.155880
O1581	O158	0.277280	0.941070	0.339730
O1591	O159	0.360570	0.014320	0.310700
O1601	O160	0.290180	0.917830	0.817230
O1611	O161	0.215140	0.860230	0.910830
O1621	O162	0.212930	0.871910	0.714430
O1631	O163	0.193400	0.811280	0.084330
O1641	O164	0.224620	0.854220	0.258630
O1651	O165	0.139260	0.780920	0.243130
O1661	O166	0.195200	0.920960	0.232230
O1671	O167	0.161550	0.874690	0.061030
O1681	O168	0.232500	0.960540	0.057030
P571	P57	0.988910	0.297930	0.603610
H571	H57	0.011630	0.265270	0.608870
P581	P58	0.901470	0.228420	0.152290
H581	H58	0.890530	0.267270	0.170470
P591	P59	0.857990	0.139770	0.536280
H591	H59	0.876030	0.109270	0.559470
P601	P60	0.853900	0.257390	0.448970
H601	H60	0.823730	0.274170	0.442570
Be431	Be43	0.839830	0.169470	0.333270
Be441	Be44	0.887800	0.232640	0.642370
Be451	Be45	0.003150	0.292850	0.087870
O1691	O169	0.976510	0.299690	0.489220
O1701	O170	0.943940	0.274410	0.673070
O1711	O171	0.027230	0.347660	0.644040
O1721	O172	0.956840	0.251170	0.150570
O1731	O173	0.881800	0.193570	0.244170
O1741	O174	0.879590	0.205250	0.047770
O1751	O175	0.860060	0.144620	0.417670
O1761	O176	0.891280	0.187560	0.591970
O1771	O177	0.805920	0.114260	0.576470
O1781	O178	0.861860	0.254300	0.565570
O1791	O179	0.828210	0.208030	0.394370
O1801	O180	0.899160	0.293880	0.390370
P611	P61	0.368740	0.024320	0.936940
H611	H61	0.401400	0.079700	0.942200
P621	P62	0.438250	0.006390	0.485620
H621	H62	0.399400	0.956600	0.503800
P631	P63	0.526900	0.051560	0.869610
H631	H63	0.557400	0.100100	0.892800
P641	P64	0.409280	0.929850	0.782300
H641	H64	0.392500	0.882900	0.775900
Be461	Be46	0.497200	0.003700	0.666600
Be471	Be47	0.434030	0.988500	0.975700
Be481	Be48	0.373820	0.043640	0.421200
O1811	O181	0.366980	0.010160	0.822550
O1821	O182	0.392260	0.002870	0.006400
O1831	O183	0.319010	0.012910	0.977370
O1841	O184	0.415500	0.039010	0.483900
O1851	O185	0.473100	0.021570	0.577500
O1861	O186	0.461420	0.007680	0.381100
O1871	O187	0.522050	0.048780	0.751000
O1881	O188	0.479110	0.037060	0.925300
O1891	O189	0.552410	0.025000	0.909800
O1901	O190	0.412370	0.940900	0.898900
O1911	O191	0.458640	0.953520	0.727700
O1921	O192	0.372790	0.938620	0.723700
P651	P65	0.035410	0.357650	0.270270
H651	H65	0.068070	0.413030	0.275530
P661	P66	0.104920	0.339720	0.818950
H661	H66	0.066070	0.289930	0.837130
P671	P67	0.193570	0.384890	0.202940
H671	H67	0.224070	0.433430	0.226130
P681	P68	0.075950	0.263180	0.115630
H681	H68	0.059170	0.216230	0.109230
Be491	Be49	0.163870	0.337030	0.999930
Be501	Be50	0.100700	0.321830	0.309030
Be511	Be51	0.040490	0.376970	0.754530
O1931	O193	0.033650	0.343490	0.155880
O1941	O194	0.058930	0.336200	0.339730
O1951	O195	0.985680	0.346240	0.310700
O1961	O196	0.082170	0.372340	0.817230
O1971	O197	0.139770	0.354900	0.910830
O1981	O198	0.128090	0.341010	0.714430
O1991	O199	0.188720	0.382110	0.084330
O2001	O200	0.145780	0.370390	0.258630
O2011	O201	0.219080	0.358330	0.243130
O2021	O202	0.079040	0.274230	0.232230
O2031	O203	0.125310	0.286850	0.061030
O2041	O204	0.039460	0.271950	0.057030
P691	P69	0.702070	0.690990	0.603610
H691	H69	0.734730	0.746370	0.608870
P701	P70	0.771580	0.673060	0.152290
H701	H70	0.732730	0.623270	0.170470
P711	P71	0.860230	0.718230	0.536280
H711	H71	0.890730	0.766770	0.559470
P721	P72	0.742610	0.596520	0.448970
H721	H72	0.725830	0.549570	0.442570
Be521	Be52	0.830530	0.670370	0.333270
Be531	Be53	0.767360	0.655170	0.642370
Be541	Be54	0.707150	0.710310	0.087870
O2051	O205	0.700310	0.676830	0.489220
O2061	O206	0.725590	0.669540	0.673070
O2071	O207	0.652340	0.679580	0.644040
O2081	O208	0.748830	0.705680	0.150570
O2091	O209	0.806430	0.688240	0.244170
O2101	O210	0.794750	0.674350	0.047770
O2111	O211	0.855380	0.715450	0.417670
O2121	O212	0.812440	0.703730	0.591970
O2131	O213	0.885740	0.691670	0.576470
O2141	O214	0.745700	0.607570	0.565570
O2151	O215	0.791970	0.620190	0.394370
O2161	O216	0.706120	0.605290	0.390370
