data_XEHFUL01_clean_PM
_symmetry_space_group_name_H-M	'P1'
_cell_length_a	7.817700
_cell_length_b	8.432200
_cell_length_c	9.484500
_cell_angle_alpha	90.000000
_cell_angle_beta	90.000000
_cell_angle_gamma	117.617000
_symmetry_Int_Tables_number 1

loop_
_symmetry_equiv_pos_as_xyz
'x,y,z'

loop_
_atom_site_label
_atom_site_type_symbol
_atom_site_fract_x
_atom_site_fract_y
_atom_site_fract_z
Y11	Y1	0.706800	0.413600	0.750000
Y21	Y2	0.292600	0.585200	0.750000
Y31	Y3	0.293200	0.586400	0.250000
Y41	Y4	0.707400	0.414800	0.250000
C11	C1	0.593000	0.986000	0.747000
C21	C2	0.083000	0.550000	0.497000
C31	C3	0.407000	0.014000	0.247000
C41	C4	0.917000	0.450000	0.997000
C51	C5	0.393000	0.986000	0.753000
C61	C6	0.467000	0.550000	0.003000
C71	C7	0.607000	0.014000	0.253000
C81	C8	0.533000	0.450000	0.503000
O11	O1	0.740000	0.142000	0.754000
O21	O2	0.584500	0.837000	0.717000
O31	O3	0.990000	0.474000	0.613000
O41	O4	0.265100	0.629800	0.495000
O51	O5	0.993000	0.526000	0.377000
O61	O6	0.260000	0.858000	0.254000
O71	O7	0.415500	0.163000	0.217000
O81	O8	0.010000	0.526000	0.113000
O91	O9	0.734900	0.370200	0.995000
O101	O10	0.007000	0.474000	0.877000
O111	O11	0.402000	0.142000	0.746000
O121	O12	0.252500	0.837000	0.783000
O131	O13	0.484000	0.474000	0.887000
O141	O14	0.364700	0.629800	0.005000
O151	O15	0.533000	0.526000	0.123000
O161	O16	0.598000	0.858000	0.246000
O171	O17	0.747500	0.163000	0.283000
O181	O18	0.516000	0.526000	0.387000
O191	O19	0.635300	0.370200	0.505000
O201	O20	0.467000	0.474000	0.623000
