data_XEHSEJ_clean_PM
_symmetry_space_group_name_H-M	'P1'
_cell_length_a	9.983100
_cell_length_b	11.376200
_cell_length_c	15.035800
_cell_angle_alpha	91.203000
_cell_angle_beta	90.000000
_cell_angle_gamma	90.000000
_symmetry_Int_Tables_number 1

loop_
_symmetry_equiv_pos_as_xyz
'x,y,z'

loop_
_atom_site_label
_atom_site_type_symbol
_atom_site_fract_x
_atom_site_fract_y
_atom_site_fract_z
Mg11	Mg1	0.570620	0.745030	0.364480
Mg21	Mg2	0.373740	0.760020	0.198240
Mg31	Mg3	0.070620	0.754970	0.135520
Mg41	Mg4	0.873740	0.739980	0.301760
Mg51	Mg5	0.429380	0.254970	0.635520
Mg61	Mg6	0.626260	0.239980	0.801760
Mg71	Mg7	0.929380	0.245030	0.864480
Mg81	Mg8	0.126260	0.260020	0.698240
Mg91	Mg9	0.500000	0.000000	0.500000
Mg101	Mg10	0.000000	0.500000	0.000000
Mg111	Mg11	0.500000	0.500000	0.500000
Mg121	Mg12	0.000000	0.000000	0.000000
H11	H1	0.439200	0.023400	0.245500
H21	H2	0.868500	0.959800	0.426200
H31	H3	0.785200	0.499100	0.467600
H41	H4	0.718500	0.643000	0.132000
H51	H5	0.368900	0.804400	0.579900
H61	H6	0.270900	0.537100	0.294100
H71	H7	0.939200	0.476600	0.254500
H81	H8	0.368500	0.540200	0.073800
H91	H9	0.285200	0.000900	0.032400
H101	H10	0.218500	0.857000	0.368000
H111	H11	0.868900	0.695600	0.920100
H121	H12	0.770900	0.962900	0.205900
H131	H13	0.560800	0.976600	0.754500
H141	H14	0.131500	0.040200	0.573800
H151	H15	0.214800	0.500900	0.532400
H161	H16	0.281500	0.357000	0.868000
H171	H17	0.631100	0.195600	0.420100
H181	H18	0.729100	0.462900	0.705900
H191	H19	0.060800	0.523400	0.745500
H201	H20	0.631500	0.459800	0.926200
H211	H21	0.714800	0.999100	0.967600
H221	H22	0.781500	0.143000	0.632000
H231	H23	0.131100	0.304400	0.079900
H241	H24	0.229100	0.037100	0.794100
C11	C1	0.462380	0.979650	0.296440
C21	C2	0.777900	0.934350	0.428300
C31	C3	0.765400	0.564510	0.431630
C41	C4	0.651590	0.672540	0.171490
C51	C5	0.416300	0.759060	0.536370
C61	C6	0.344550	0.559900	0.330540
C71	C7	0.962380	0.520350	0.203560
C81	C8	0.277900	0.565650	0.071700
C91	C9	0.265400	0.935490	0.068370
C101	C10	0.151590	0.827460	0.328510
C111	C11	0.916300	0.740940	0.963630
C121	C12	0.844550	0.940100	0.169460
C131	C13	0.537620	0.020350	0.703560
C141	C14	0.222100	0.065650	0.571700
C151	C15	0.234600	0.435490	0.568370
C161	C16	0.348410	0.327460	0.828510
C171	C17	0.583700	0.240940	0.463630
C181	C18	0.655450	0.440100	0.669460
C191	C19	0.037620	0.479650	0.796440
C201	C20	0.722100	0.434350	0.928300
C211	C21	0.734600	0.064510	0.931630
C221	C22	0.848410	0.172540	0.671490
C231	C23	0.083700	0.259060	0.036370
C241	C24	0.155450	0.059900	0.830540
O11	O1	0.479510	0.868970	0.285170
O21	O2	0.473290	0.034500	0.367550
O31	O3	0.746090	0.845760	0.378840
O41	O4	0.702010	0.989670	0.478300
O51	O5	0.643590	0.599050	0.429950
O61	O6	0.860020	0.608430	0.390630
O71	O7	0.685900	0.692590	0.251930
O81	O8	0.538130	0.688350	0.140280
O91	O9	0.480390	0.815730	0.477200
O101	O10	0.410240	0.651030	0.542230
O111	O11	0.406080	0.653800	0.310000
O121	O12	0.371670	0.495840	0.393300
O131	O13	0.979510	0.631030	0.214830
O141	O14	0.973290	0.465500	0.132450
O151	O15	0.246090	0.654240	0.121160
O161	O16	0.202010	0.510330	0.021700
O171	O17	0.143590	0.900950	0.070050
O181	O18	0.360020	0.891570	0.109370
O191	O19	0.185900	0.807410	0.248070
O201	O20	0.038130	0.811650	0.359720
O211	O21	0.980390	0.684270	0.022800
O221	O22	0.910240	0.848970	0.957770
O231	O23	0.906080	0.846200	0.190000
O241	O24	0.871670	0.004160	0.106700
O251	O25	0.520490	0.131030	0.714830
O261	O26	0.526710	0.965500	0.632450
O271	O27	0.253910	0.154240	0.621160
O281	O28	0.297990	0.010330	0.521700
O291	O29	0.356410	0.400950	0.570050
O301	O30	0.139980	0.391570	0.609370
O311	O31	0.314100	0.307410	0.748070
O321	O32	0.461870	0.311650	0.859720
O331	O33	0.519610	0.184270	0.522800
O341	O34	0.589760	0.348970	0.457770
O351	O35	0.593920	0.346200	0.690000
O361	O36	0.628330	0.504160	0.606700
O371	O37	0.020490	0.368970	0.785170
O381	O38	0.026710	0.534500	0.867550
O391	O39	0.753910	0.345760	0.878840
O401	O40	0.797990	0.489670	0.978300
O411	O41	0.856410	0.099050	0.929950
O421	O42	0.639980	0.108430	0.890630
O431	O43	0.814100	0.192590	0.751930
O441	O44	0.961870	0.188350	0.640280
O451	O45	0.019610	0.315730	0.977200
O461	O46	0.089760	0.151030	0.042230
O471	O47	0.093920	0.153800	0.810000
O481	O48	0.128330	0.995840	0.893300
