data_XEJJOM_clean_PM
_symmetry_space_group_name_H-M	'P1'
_cell_length_a	7.648000
_cell_length_b	9.676000
_cell_length_c	10.562000
_cell_angle_alpha	106.672000
_cell_angle_beta	105.283000
_cell_angle_gamma	100.706000
_symmetry_Int_Tables_number 1

loop_
_symmetry_equiv_pos_as_xyz
'x,y,z'

loop_
_atom_site_label
_atom_site_type_symbol
_atom_site_fract_x
_atom_site_fract_y
_atom_site_fract_z
Dy11	Dy1	0.753320	0.967920	0.548330
Dy21	Dy2	0.246680	0.032080	0.451670
H11	H1	0.185700	0.507400	0.036300
H21	H2	0.463300	0.197600	0.953100
H31	H3	0.450500	0.376900	0.344800
H41	H4	0.151800	0.603300	0.259600
H51	H5	0.220100	0.530300	0.375400
H61	H6	0.238500	0.429500	0.811300
H71	H7	0.366800	0.318200	0.786500
H81	H8	0.633600	0.124800	0.123400
H91	H9	0.736400	0.264600	0.266600
H101	H10	0.814300	0.492600	0.963700
H111	H11	0.536700	0.802400	0.046900
H121	H12	0.549500	0.623100	0.655200
H131	H13	0.848200	0.396700	0.740400
H141	H14	0.779900	0.469700	0.624600
H151	H15	0.761500	0.570500	0.188700
H161	H16	0.633200	0.681800	0.213500
H171	H17	0.366400	0.875200	0.876600
H181	H18	0.263600	0.735400	0.733400
C11	C1	0.308500	0.458600	0.205900
C21	C2	0.259300	0.446500	0.066600
C31	C3	0.313100	0.349200	0.969700
C41	C4	0.423600	0.264300	0.017600
C51	C5	0.478500	0.273100	0.156700
C61	C6	0.417100	0.370700	0.249700
C71	C7	0.259600	0.574700	0.310200
C81	C8	0.426500	0.715000	0.394400
C91	C9	0.260100	0.334300	0.819700
C101	C10	0.084000	0.205600	0.725600
C111	C11	0.613400	0.189800	0.206400
C121	C12	0.557100	0.092400	0.287500
C131	C13	0.691500	0.541400	0.794100
C141	C14	0.740700	0.553500	0.933400
C151	C15	0.686900	0.650800	0.030300
C161	C16	0.576400	0.735700	0.982400
C171	C17	0.521500	0.726900	0.843300
C181	C18	0.582900	0.629300	0.750300
C191	C19	0.740400	0.425300	0.689800
C201	C20	0.573500	0.285000	0.605600
C211	C21	0.739900	0.665700	0.180300
C221	C22	0.916000	0.794400	0.274400
C231	C23	0.386600	0.810200	0.793600
C241	C24	0.442900	0.907600	0.712500
O11	O1	0.401500	0.844400	0.416100
O21	O2	0.588000	0.702900	0.441700
O31	O3	0.065600	0.138400	0.596400
O41	O4	0.957400	0.168100	0.772300
O51	O5	0.392300	0.068300	0.290600
O61	O6	0.685000	0.039900	0.344900
O71	O7	0.598500	0.155600	0.583900
O81	O8	0.412000	0.297100	0.558300
O91	O9	0.934400	0.861600	0.403600
O101	O10	0.042600	0.831900	0.227700
O111	O11	0.607700	0.931700	0.709400
O121	O12	0.315000	0.960100	0.655100
