data_XEJWUG_clean_PM
_symmetry_space_group_name_H-M	'P1'
_cell_length_a	6.746000
_cell_length_b	22.334000
_cell_length_c	7.597000
_cell_angle_alpha	90.000000
_cell_angle_beta	90.000000
_cell_angle_gamma	90.000000
_symmetry_Int_Tables_number 1

loop_
_symmetry_equiv_pos_as_xyz
'x,y,z'

loop_
_atom_site_label
_atom_site_type_symbol
_atom_site_fract_x
_atom_site_fract_y
_atom_site_fract_z
Co11	Co1	0.464660	0.289100	0.248490
Co21	Co2	0.535340	0.710900	0.248490
Co31	Co3	0.964660	0.210900	0.751510
Co41	Co4	0.035340	0.789100	0.751510
H11	H1	0.372500	0.114800	0.368700
H21	H2	0.180000	0.121500	0.248700
H31	H3	0.477000	0.128600	0.084300
H41	H4	0.714200	0.185200	0.243800
H51	H5	0.045700	0.333200	0.336300
H61	H6	0.847400	0.418200	0.319000
H71	H7	0.304800	0.504400	0.090700
H81	H8	0.478800	0.415100	0.088900
H91	H9	0.627500	0.885200	0.368700
H101	H10	0.820000	0.878500	0.248700
H111	H11	0.523000	0.871400	0.084300
H121	H12	0.285800	0.814800	0.243800
H131	H13	0.954300	0.666800	0.336300
H141	H14	0.152600	0.581800	0.319000
H151	H15	0.695200	0.495600	0.090700
H161	H16	0.521200	0.584900	0.088900
H171	H17	0.872500	0.385200	0.631300
H181	H18	0.680000	0.378500	0.751300
H191	H19	0.977000	0.371400	0.915700
H201	H20	0.214200	0.314800	0.756200
H211	H21	0.545700	0.166800	0.663700
H221	H22	0.347400	0.081800	0.681000
H231	H23	0.804800	0.995600	0.909300
H241	H24	0.978800	0.084900	0.911100
H251	H25	0.127500	0.614800	0.631300
H261	H26	0.320000	0.621500	0.751300
H271	H27	0.023000	0.628600	0.915700
H281	H28	0.785800	0.685200	0.756200
H291	H29	0.454300	0.833200	0.663700
H301	H30	0.652600	0.918200	0.681000
H311	H31	0.195200	0.004400	0.909300
H321	H32	0.021200	0.915100	0.911100
C11	C1	0.214100	0.191390	0.422700
C21	C2	0.294300	0.143620	0.298200
C31	C3	0.422300	0.164480	0.146300
C41	C4	0.300400	0.201220	0.015400
C51	C5	0.099100	0.368600	0.285900
C61	C6	0.980300	0.419500	0.277800
C71	C7	0.058500	0.472200	0.208800
C81	C8	0.246900	0.469600	0.140900
C91	C9	0.353200	0.416500	0.145300
C101	C10	0.785900	0.808610	0.422700
C111	C11	0.705700	0.856380	0.298200
C121	C12	0.577700	0.835520	0.146300
C131	C13	0.699600	0.798780	0.015400
C141	C14	0.900900	0.631400	0.285900
C151	C15	0.019700	0.580500	0.277800
C161	C16	0.941500	0.527800	0.208800
C171	C17	0.753100	0.530400	0.140900
C181	C18	0.646800	0.583500	0.145300
C191	C19	0.714100	0.308610	0.577300
C201	C20	0.794300	0.356380	0.701800
C211	C21	0.922300	0.335520	0.853700
C221	C22	0.800400	0.298780	0.984600
C231	C23	0.599100	0.131400	0.714100
C241	C24	0.480300	0.080500	0.722200
C251	C25	0.558500	0.027800	0.791200
C261	C26	0.746900	0.030400	0.859100
C271	C27	0.853200	0.083500	0.854700
C281	C28	0.285900	0.691390	0.577300
C291	C29	0.205700	0.643620	0.701800
C301	C30	0.077700	0.664480	0.853700
C311	C31	0.199600	0.701220	0.984600
C321	C32	0.400900	0.868600	0.714100
C331	C33	0.519700	0.919500	0.722200
C341	C34	0.441500	0.972200	0.791200
C351	C35	0.253100	0.969600	0.859100
C361	C36	0.146800	0.916500	0.854700
N11	N1	0.287000	0.367480	0.225000
N21	N2	0.713000	0.632520	0.225000
N31	N3	0.787000	0.132520	0.775000
N41	N4	0.213000	0.867480	0.775000
O11	O1	0.253300	0.245970	0.400200
O21	O2	0.107800	0.171480	0.544600
O31	O3	0.584200	0.198790	0.216900
O41	O4	0.324500	0.257670	0.018500
O51	O5	0.182400	0.173740	0.918400
O61	O6	0.746700	0.754030	0.400200
O71	O7	0.892200	0.828520	0.544600
O81	O8	0.415800	0.801210	0.216900
O91	O9	0.675500	0.742330	0.018500
O101	O10	0.817600	0.826260	0.918400
O111	O11	0.753300	0.254030	0.599800
O121	O12	0.607800	0.328520	0.455400
O131	O13	0.084200	0.301210	0.783100
O141	O14	0.824500	0.242330	0.981500
O151	O15	0.682400	0.326260	0.081600
O161	O16	0.246700	0.745970	0.599800
O171	O17	0.392200	0.671480	0.455400
O181	O18	0.915800	0.698790	0.783100
O191	O19	0.175500	0.757670	0.981500
O201	O20	0.317600	0.673740	0.081600
