data_XEJXAN_clean_PM
_symmetry_space_group_name_H-M	'P1'
_cell_length_a	6.731000
_cell_length_b	22.186000
_cell_length_c	7.575000
_cell_angle_alpha	90.000000
_cell_angle_beta	90.000000
_cell_angle_gamma	90.000000
_symmetry_Int_Tables_number 1

loop_
_symmetry_equiv_pos_as_xyz
'x,y,z'

loop_
_atom_site_label
_atom_site_type_symbol
_atom_site_fract_x
_atom_site_fract_y
_atom_site_fract_z
Ni11	Ni1	0.457670	0.288940	0.245970
Ni21	Ni2	0.542330	0.711060	0.245970
Ni31	Ni3	0.957670	0.211060	0.754030
Ni41	Ni4	0.042330	0.788940	0.754030
H11	H1	0.364100	0.115500	0.370900
H21	H2	0.170900	0.122800	0.251300
H31	H3	0.469400	0.128900	0.086900
H41	H4	0.706500	0.187400	0.247400
H51	H5	0.030600	0.328600	0.303900
H61	H6	0.836400	0.415300	0.292900
H71	H7	0.323700	0.509900	0.138600
H81	H8	0.505400	0.420700	0.143900
H91	H9	0.635900	0.884500	0.370900
H101	H10	0.829100	0.877200	0.251300
H111	H11	0.530600	0.871100	0.086900
H121	H12	0.293500	0.812600	0.247400
H131	H13	0.969400	0.671400	0.303900
H141	H14	0.163600	0.584700	0.292900
H151	H15	0.676300	0.490100	0.138600
H161	H16	0.494600	0.579300	0.143900
H171	H17	0.864100	0.384500	0.629100
H181	H18	0.670900	0.377200	0.748700
H191	H19	0.969400	0.371100	0.913100
H201	H20	0.206500	0.312600	0.752600
H211	H21	0.530600	0.171400	0.696100
H221	H22	0.336400	0.084700	0.707100
H231	H23	0.823700	0.990100	0.861400
H241	H24	0.005400	0.079300	0.856100
H251	H25	0.135900	0.615500	0.629100
H261	H26	0.329100	0.622800	0.748700
H271	H27	0.030600	0.628900	0.913100
H281	H28	0.793500	0.687400	0.752600
H291	H29	0.469400	0.828600	0.696100
H301	H30	0.663600	0.915300	0.707100
H311	H31	0.176300	0.009900	0.861400
H321	H32	0.994600	0.920700	0.856100
C11	C1	0.208300	0.193300	0.425700
C21	C2	0.286500	0.144700	0.300400
C31	C3	0.414000	0.165100	0.148500
C41	C4	0.289200	0.202200	0.016200
C51	C5	0.089900	0.365700	0.269200
C61	C6	0.973100	0.417200	0.262400
C71	C7	0.058100	0.472000	0.210300
C81	C8	0.260700	0.473100	0.170000
C91	C9	0.369100	0.419800	0.176000
C101	C10	0.791700	0.806700	0.425700
C111	C11	0.713500	0.855300	0.300400
C121	C12	0.586000	0.834900	0.148500
C131	C13	0.710800	0.797800	0.016200
C141	C14	0.910100	0.634300	0.269200
C151	C15	0.026900	0.582800	0.262400
C161	C16	0.941900	0.528000	0.210300
C171	C17	0.739300	0.526900	0.170000
C181	C18	0.630900	0.580200	0.176000
C191	C19	0.708300	0.306700	0.574300
C201	C20	0.786500	0.355300	0.699600
C211	C21	0.914000	0.334900	0.851500
C221	C22	0.789200	0.297800	0.983800
C231	C23	0.589900	0.134300	0.730800
C241	C24	0.473100	0.082800	0.737600
C251	C25	0.558100	0.028000	0.789700
C261	C26	0.760700	0.026900	0.830000
C271	C27	0.869100	0.080200	0.824000
C281	C28	0.291700	0.693300	0.574300
C291	C29	0.213500	0.644700	0.699600
C301	C30	0.086000	0.665100	0.851500
C311	C31	0.210800	0.702200	0.983800
C321	C32	0.410100	0.865700	0.730800
C331	C33	0.526900	0.917200	0.737600
C341	C34	0.441900	0.972000	0.789700
C351	C35	0.239300	0.973100	0.830000
C361	C36	0.130900	0.919800	0.824000
N11	N1	0.287300	0.366490	0.227500
N21	N2	0.712700	0.633510	0.227500
N31	N3	0.787300	0.133510	0.772500
N41	N4	0.212700	0.866490	0.772500
O11	O1	0.249400	0.248250	0.402900
O21	O2	0.101300	0.172980	0.547000
O31	O3	0.576100	0.200620	0.219200
O41	O4	0.313200	0.259010	0.020600
O51	O5	0.175000	0.174540	0.917700
O61	O6	0.750600	0.751750	0.402900
O71	O7	0.898700	0.827020	0.547000
O81	O8	0.423900	0.799380	0.219200
O91	O9	0.686800	0.740990	0.020600
O101	O10	0.825000	0.825460	0.917700
O111	O11	0.749400	0.251750	0.597100
O121	O12	0.601300	0.327020	0.453000
O131	O13	0.076100	0.299380	0.780800
O141	O14	0.813200	0.240990	0.979400
O151	O15	0.675000	0.325460	0.082300
O161	O16	0.250600	0.748250	0.597100
O171	O17	0.398700	0.672980	0.453000
O181	O18	0.923900	0.700620	0.780800
O191	O19	0.186800	0.759010	0.979400
O201	O20	0.325000	0.674540	0.082300
