data_XEJXER_clean_PM
_symmetry_space_group_name_H-M	'P1'
_cell_length_a	9.687900
_cell_length_b	23.698700
_cell_length_c	10.456900
_cell_angle_alpha	90.000000
_cell_angle_beta	90.000000
_cell_angle_gamma	90.000000
_symmetry_Int_Tables_number 1

loop_
_symmetry_equiv_pos_as_xyz
'x,y,z'

loop_
_atom_site_label
_atom_site_type_symbol
_atom_site_fract_x
_atom_site_fract_y
_atom_site_fract_z
Ni11	Ni1	0.616850	0.212480	0.505330
Ni21	Ni2	0.642390	0.286400	0.995060
Ni31	Ni3	0.383150	0.787520	0.505330
Ni41	Ni4	0.357610	0.713600	0.995060
Ni51	Ni5	0.116850	0.287520	0.494670
Ni61	Ni6	0.142390	0.213600	0.004940
Ni71	Ni7	0.883150	0.712480	0.494670
Ni81	Ni8	0.857610	0.786400	0.004940
H11	H1	0.743400	0.355000	0.591600
H21	H2	0.788100	0.278900	0.474000
H31	H3	0.544700	0.378300	0.479500
H41	H4	0.508500	0.376900	0.628500
H51	H5	0.572600	0.134700	0.926100
H61	H6	0.692000	0.207800	0.846900
H71	H7	0.700900	0.136300	0.121100
H81	H8	0.540100	0.126200	0.145000
H91	H9	0.518500	0.097400	0.408400
H101	H10	0.380300	0.022900	0.472000
H111	H11	0.319500	0.103300	0.809000
H121	H12	0.452400	0.176900	0.732500
H131	H13	0.232900	0.977100	0.630300
H141	H14	0.244700	0.020800	0.876500
H151	H15	0.994500	0.891800	0.109900
H161	H16	0.134700	0.965900	0.044900
H171	H17	0.107500	0.906200	0.682600
H181	H18	0.963200	0.835500	0.757700
H191	H19	0.256600	0.645000	0.591600
H201	H20	0.211900	0.721100	0.474000
H211	H21	0.455300	0.621700	0.479500
H221	H22	0.491500	0.623100	0.628500
H231	H23	0.427400	0.865300	0.926100
H241	H24	0.308000	0.792200	0.846900
H251	H25	0.299100	0.863700	0.121100
H261	H26	0.459900	0.873800	0.145000
H271	H27	0.481500	0.902600	0.408400
H281	H28	0.619700	0.977100	0.472000
H291	H29	0.680500	0.896700	0.809000
H301	H30	0.547600	0.823100	0.732500
H311	H31	0.767100	0.022900	0.630300
H321	H32	0.755300	0.979200	0.876500
H331	H33	0.005500	0.108200	0.109900
H341	H34	0.865300	0.034100	0.044900
H351	H35	0.892500	0.093800	0.682600
H361	H36	0.036800	0.164500	0.757700
H371	H37	0.243400	0.145000	0.408400
H381	H38	0.288100	0.221100	0.526000
H391	H39	0.044700	0.121700	0.520500
H401	H40	0.008500	0.123100	0.371500
H411	H41	0.072600	0.365300	0.073900
H421	H42	0.192000	0.292200	0.153100
H431	H43	0.200900	0.363700	0.878900
H441	H44	0.040100	0.373800	0.855000
H451	H45	0.018500	0.402600	0.591600
H461	H46	0.880300	0.477100	0.528000
H471	H47	0.819500	0.396700	0.191000
H481	H48	0.952400	0.323100	0.267500
H491	H49	0.732900	0.522900	0.369700
H501	H50	0.744700	0.479200	0.123500
H511	H51	0.494500	0.608200	0.890100
H521	H52	0.634700	0.534100	0.955100
H531	H53	0.607500	0.593800	0.317400
H541	H54	0.463200	0.664500	0.242300
H551	H55	0.756600	0.855000	0.408400
H561	H56	0.711900	0.778900	0.526000
H571	H57	0.955300	0.878300	0.520500
H581	H58	0.991500	0.876900	0.371500
H591	H59	0.927400	0.634700	0.073900
H601	H60	0.808000	0.707800	0.153100
H611	H61	0.799100	0.636300	0.878900
H621	H62	0.959900	0.626200	0.855000
H631	H63	0.981500	0.597400	0.591600
H641	H64	0.119700	0.522900	0.528000
H651	H65	0.180500	0.603300	0.191000
H661	H66	0.047600	0.676900	0.267500
H671	H67	0.267100	0.477100	0.369700
H681	H68	0.255300	0.520800	0.123500
H691	H69	0.505500	0.391800	0.890100
H701	H70	0.365300	0.465900	0.955100
H711	H71	0.392500	0.406200	0.317400
H721	H72	0.536800	0.335500	0.242300
C11	C1	0.665830	0.289930	0.704700
C21	C2	0.671400	0.325040	0.581640
C31	C3	0.533500	0.353100	0.554300
C41	C4	0.414700	0.312830	0.527530
C51	C5	0.442500	0.203150	0.968250
C61	C6	0.579100	0.169930	0.978490
C71	C7	0.608900	0.154460	0.117100
C81	C8	0.606800	0.203540	0.211900
C91	C9	0.478000	0.098470	0.491100
C101	C10	0.396800	0.053410	0.529000
C111	C11	0.339400	0.052990	0.650800
C121	C12	0.360200	0.100790	0.726500
C131	C13	0.440400	0.144490	0.680300
C141	C14	0.258300	0.004060	0.693300
C151	C15	0.217500	0.994330	0.813100
C161	C16	0.015600	0.895490	0.021500
C171	C17	0.100300	0.939890	0.983500
C181	C18	0.134100	0.945960	0.855100
C191	C19	0.083500	0.904940	0.770600
C201	C20	0.998200	0.862530	0.816500
C211	C21	0.334170	0.710070	0.704700
C221	C22	0.328600	0.674960	0.581640
C231	C23	0.466500	0.646900	0.554300
C241	C24	0.585300	0.687170	0.527530
C251	C25	0.557500	0.796850	0.968250
C261	C26	0.420900	0.830070	0.978490
C271	C27	0.391100	0.845540	0.117100
C281	C28	0.393200	0.796460	0.211900
C291	C29	0.522000	0.901530	0.491100
C301	C30	0.603200	0.946590	0.529000
C311	C31	0.660600	0.947010	0.650800
C321	C32	0.639800	0.899210	0.726500
C331	C33	0.559600	0.855510	0.680300
C341	C34	0.741700	0.995940	0.693300
C351	C35	0.782500	0.005670	0.813100
C361	C36	0.984400	0.104510	0.021500
C371	C37	0.899700	0.060110	0.983500
C381	C38	0.865900	0.054040	0.855100
C391	C39	0.916500	0.095060	0.770600
C401	C40	0.001800	0.137470	0.816500
C411	C41	0.165830	0.210070	0.295300
C421	C42	0.171400	0.174960	0.418360
C431	C43	0.033500	0.146900	0.445700
C441	C44	0.914700	0.187170	0.472470
C451	C45	0.942500	0.296850	0.031750
C461	C46	0.079100	0.330070	0.021510
C471	C47	0.108900	0.345540	0.882900
C481	C48	0.106800	0.296460	0.788100
C491	C49	0.978000	0.401530	0.508900
C501	C50	0.896800	0.446590	0.471000
C511	C51	0.839400	0.447010	0.349200
C521	C52	0.860200	0.399210	0.273500
C531	C53	0.940400	0.355510	0.319700
C541	C54	0.758300	0.495940	0.306700
C551	C55	0.717500	0.505670	0.186900
C561	C56	0.515600	0.604510	0.978500
C571	C57	0.600300	0.560110	0.016500
C581	C58	0.634100	0.554040	0.144900
C591	C59	0.583500	0.595060	0.229400
C601	C60	0.498200	0.637470	0.183500
C611	C61	0.834170	0.789930	0.295300
C621	C62	0.828600	0.825040	0.418360
C631	C63	0.966500	0.853100	0.445700
C641	C64	0.085300	0.812830	0.472470
C651	C65	0.057500	0.703150	0.031750
C661	C66	0.920900	0.669930	0.021510
C671	C67	0.891100	0.654460	0.882900
C681	C68	0.893200	0.703540	0.788100
C691	C69	0.022000	0.598470	0.508900
C701	C70	0.103200	0.553410	0.471000
C711	C71	0.160600	0.552990	0.349200
C721	C72	0.139800	0.600790	0.273500
C731	C73	0.059600	0.644490	0.319700
C741	C74	0.241700	0.504060	0.306700
C751	C75	0.282500	0.494330	0.186900
C761	C76	0.484400	0.395490	0.978500
C771	C77	0.399700	0.439890	0.016500
C781	C78	0.365900	0.445960	0.144900
C791	C79	0.416500	0.404940	0.229400
C801	C80	0.501800	0.362530	0.183500
N11	N1	0.502420	0.143540	0.565390
N21	N2	0.962650	0.857840	0.940370
N31	N3	0.497580	0.856460	0.565390
N41	N4	0.037350	0.142160	0.940370
N51	N5	0.002420	0.356460	0.434610
N61	N6	0.462650	0.642160	0.059630
N71	N7	0.997580	0.643540	0.434610
N81	N8	0.537350	0.357840	0.059630
O11	O1	0.666200	0.236490	0.692210
O21	O2	0.660560	0.316770	0.807590
O31	O3	0.705260	0.291030	0.473290
O41	O4	0.438200	0.260140	0.524190
O51	O5	0.297970	0.334190	0.511670
O61	O6	0.451600	0.254910	0.949480
O71	O7	0.331620	0.175490	0.981570
O81	O8	0.692190	0.203730	0.933200
O91	O9	0.632560	0.252890	0.176230
O101	O10	0.580560	0.188900	0.324730
O111	O11	0.333800	0.763510	0.692210
O121	O12	0.339440	0.683230	0.807590
O131	O13	0.294740	0.708970	0.473290
O141	O14	0.561800	0.739860	0.524190
O151	O15	0.702030	0.665810	0.511670
O161	O16	0.548400	0.745090	0.949480
O171	O17	0.668380	0.824510	0.981570
O181	O18	0.307810	0.796270	0.933200
O191	O19	0.367440	0.747110	0.176230
O201	O20	0.419440	0.811100	0.324730
O211	O21	0.166200	0.263510	0.307790
O221	O22	0.160560	0.183230	0.192410
O231	O23	0.205260	0.208970	0.526710
O241	O24	0.938200	0.239860	0.475810
O251	O25	0.797970	0.165810	0.488330
O261	O26	0.951600	0.245090	0.050520
O271	O27	0.831620	0.324510	0.018430
O281	O28	0.192190	0.296270	0.066800
O291	O29	0.132560	0.247110	0.823770
O301	O30	0.080560	0.311100	0.675270
O311	O31	0.833800	0.736490	0.307790
O321	O32	0.839440	0.816770	0.192410
O331	O33	0.794740	0.791030	0.526710
O341	O34	0.061800	0.760140	0.475810
O351	O35	0.202030	0.834190	0.488330
O361	O36	0.048400	0.754910	0.050520
O371	O37	0.168380	0.675490	0.018430
O381	O38	0.807810	0.703730	0.066800
O391	O39	0.867440	0.752890	0.823770
O401	O40	0.919440	0.688900	0.675270
