data_XEKCIB_clean_PM
_symmetry_space_group_name_H-M	'P1'
_cell_length_a	19.428100
_cell_length_b	26.858700
_cell_length_c	34.727000
_cell_angle_alpha	90.000000
_cell_angle_beta	90.000000
_cell_angle_gamma	90.000000
_symmetry_Int_Tables_number 1

loop_
_symmetry_equiv_pos_as_xyz
'x,y,z'

loop_
_atom_site_label
_atom_site_type_symbol
_atom_site_fract_x
_atom_site_fract_y
_atom_site_fract_z
K11	K1	0.560640	0.634820	0.483730
Nd11	Nd1	0.743860	0.558140	0.932020
Nd21	Nd2	0.742770	0.568950	0.259880
Pt11	Pt1	0.752910	0.564440	0.096280
Pt21	Pt2	0.992050	0.561660	0.844740
Pt31	Pt3	0.500650	0.563620	0.839430
Pt41	Pt4	0.244780	0.557650	0.094950
C11	C1	0.651800	0.564900	0.098400
C21	C2	0.748900	0.562000	0.039200
C31	C3	0.855500	0.562200	0.094200
C41	C4	0.757600	0.568700	0.153000
C51	C5	0.039500	0.560500	0.895100
C61	C6	0.082300	0.567800	0.816700
C71	C7	0.946600	0.561900	0.793900
C81	C8	0.902000	0.554900	0.871200
C91	C9	0.586700	0.563000	0.871300
C101	C10	0.560100	0.563800	0.792500
C111	C11	0.418700	0.565400	0.807400
C121	C12	0.444500	0.563200	0.887700
C131	C13	0.175300	0.561400	0.134000
C141	C14	0.315400	0.555100	0.137700
C151	C15	0.315500	0.554300	0.055800
C161	C16	0.172700	0.558500	0.053000
N11	N1	0.592600	0.558600	0.100300
N21	N2	0.746600	0.560600	0.006000
N31	N3	0.914400	0.563500	0.090700
N41	N4	0.761600	0.570700	0.186200
N51	N5	0.069900	0.563500	0.923100
N61	N6	0.130500	0.567800	0.799500
N71	N7	0.923200	0.559300	0.762800
N81	N8	0.851000	0.551900	0.887900
N91	N9	0.636000	0.563000	0.888000
N101	N10	0.591600	0.565500	0.765600
N111	N11	0.369000	0.567600	0.786700
N121	N12	0.414600	0.561800	0.915100
N131	N13	0.131500	0.561400	0.157400
N141	N14	0.349600	0.552700	0.162700
N151	N15	0.358400	0.548400	0.032000
N161	N16	0.127700	0.558900	0.031300
O11	O1	0.459100	0.556900	0.483900
K21	K2	0.560640	0.134820	0.983730
Nd31	Nd3	0.743860	0.058140	0.432020
Nd41	Nd4	0.742770	0.068950	0.759880
Pt51	Pt5	0.752910	0.064440	0.596280
Pt61	Pt6	0.992050	0.061660	0.344740
Pt71	Pt7	0.500650	0.063620	0.339430
Pt81	Pt8	0.244780	0.057650	0.594950
C171	C17	0.651800	0.064900	0.598400
C181	C18	0.748900	0.062000	0.539200
C191	C19	0.855500	0.062200	0.594200
C201	C20	0.757600	0.068700	0.653000
C211	C21	0.039500	0.060500	0.395100
C221	C22	0.082300	0.067800	0.316700
C231	C23	0.946600	0.061900	0.293900
C241	C24	0.902000	0.054900	0.371200
C251	C25	0.586700	0.063000	0.371300
C261	C26	0.560100	0.063800	0.292500
C271	C27	0.418700	0.065400	0.307400
C281	C28	0.444500	0.063200	0.387700
C291	C29	0.175300	0.061400	0.634000
C301	C30	0.315400	0.055100	0.637700
C311	C31	0.315500	0.054300	0.555800
C321	C32	0.172700	0.058500	0.553000
N171	N17	0.592600	0.058600	0.600300
N181	N18	0.746600	0.060600	0.506000
N191	N19	0.914400	0.063500	0.590700
N201	N20	0.761600	0.070700	0.686200
N211	N21	0.069900	0.063500	0.423100
N221	N22	0.130500	0.067800	0.299500
N231	N23	0.923200	0.059300	0.262800
N241	N24	0.851000	0.051900	0.387900
N251	N25	0.636000	0.063000	0.388000
N261	N26	0.591600	0.065500	0.265600
N271	N27	0.369000	0.067600	0.286700
N281	N28	0.414600	0.061800	0.415100
N291	N29	0.131500	0.061400	0.657400
N301	N30	0.349600	0.052700	0.662700
N311	N31	0.358400	0.048400	0.532000
N321	N32	0.127700	0.058900	0.531300
O21	O2	0.459100	0.056900	0.983900
K31	K3	0.060640	0.634820	0.983730
Nd51	Nd5	0.243860	0.558140	0.432020
Nd61	Nd6	0.242770	0.568950	0.759880
Pt91	Pt9	0.252910	0.564440	0.596280
Pt101	Pt10	0.492050	0.561660	0.344740
Pt111	Pt11	0.000650	0.563620	0.339430
Pt121	Pt12	0.744780	0.557650	0.594950
C331	C33	0.151800	0.564900	0.598400
C341	C34	0.248900	0.562000	0.539200
C351	C35	0.355500	0.562200	0.594200
C361	C36	0.257600	0.568700	0.653000
C371	C37	0.539500	0.560500	0.395100
C381	C38	0.582300	0.567800	0.316700
C391	C39	0.446600	0.561900	0.293900
C401	C40	0.402000	0.554900	0.371200
C411	C41	0.086700	0.563000	0.371300
C421	C42	0.060100	0.563800	0.292500
C431	C43	0.918700	0.565400	0.307400
C441	C44	0.944500	0.563200	0.387700
C451	C45	0.675300	0.561400	0.634000
C461	C46	0.815400	0.555100	0.637700
C471	C47	0.815500	0.554300	0.555800
C481	C48	0.672700	0.558500	0.553000
N331	N33	0.092600	0.558600	0.600300
N341	N34	0.246600	0.560600	0.506000
N351	N35	0.414400	0.563500	0.590700
N361	N36	0.261600	0.570700	0.686200
N371	N37	0.569900	0.563500	0.423100
N381	N38	0.630500	0.567800	0.299500
N391	N39	0.423200	0.559300	0.262800
N401	N40	0.351000	0.551900	0.387900
N411	N41	0.136000	0.563000	0.388000
N421	N42	0.091600	0.565500	0.265600
N431	N43	0.869000	0.567600	0.286700
N441	N44	0.914600	0.561800	0.415100
N451	N45	0.631500	0.561400	0.657400
N461	N46	0.849600	0.552700	0.662700
N471	N47	0.858400	0.548400	0.532000
N481	N48	0.627700	0.558900	0.531300
O31	O3	0.959100	0.556900	0.983900
K41	K4	0.060640	0.134820	0.483730
Nd71	Nd7	0.243860	0.058140	0.932020
Nd81	Nd8	0.242770	0.068950	0.259880
Pt131	Pt13	0.252910	0.064440	0.096280
Pt141	Pt14	0.492050	0.061660	0.844740
Pt151	Pt15	0.000650	0.063620	0.839430
Pt161	Pt16	0.744780	0.057650	0.094950
C491	C49	0.151800	0.064900	0.098400
C501	C50	0.248900	0.062000	0.039200
C511	C51	0.355500	0.062200	0.094200
C521	C52	0.257600	0.068700	0.153000
C531	C53	0.539500	0.060500	0.895100
C541	C54	0.582300	0.067800	0.816700
C551	C55	0.446600	0.061900	0.793900
C561	C56	0.402000	0.054900	0.871200
C571	C57	0.086700	0.063000	0.871300
C581	C58	0.060100	0.063800	0.792500
C591	C59	0.918700	0.065400	0.807400
C601	C60	0.944500	0.063200	0.887700
C611	C61	0.675300	0.061400	0.134000
C621	C62	0.815400	0.055100	0.137700
C631	C63	0.815500	0.054300	0.055800
C641	C64	0.672700	0.058500	0.053000
N491	N49	0.092600	0.058600	0.100300
N501	N50	0.246600	0.060600	0.006000
N511	N51	0.414400	0.063500	0.090700
N521	N52	0.261600	0.070700	0.186200
N531	N53	0.569900	0.063500	0.923100
N541	N54	0.630500	0.067800	0.799500
N551	N55	0.423200	0.059300	0.762800
N561	N56	0.351000	0.051900	0.887900
N571	N57	0.136000	0.063000	0.888000
N581	N58	0.091600	0.065500	0.765600
N591	N59	0.869000	0.067600	0.786700
N601	N60	0.914600	0.061800	0.915100
N611	N61	0.631500	0.061400	0.157400
N621	N62	0.849600	0.052700	0.162700
N631	N63	0.858400	0.048400	0.032000
N641	N64	0.627700	0.058900	0.031300
O41	O4	0.959100	0.056900	0.483900
K51	K5	0.439360	0.365180	0.483730
Nd91	Nd9	0.256140	0.441860	0.932020
Nd101	Nd10	0.257230	0.431050	0.259880
Pt171	Pt17	0.247090	0.435560	0.096280
Pt181	Pt18	0.007950	0.438340	0.844740
Pt191	Pt19	0.499350	0.436380	0.839430
Pt201	Pt20	0.755220	0.442350	0.094950
C651	C65	0.348200	0.435100	0.098400
C661	C66	0.251100	0.438000	0.039200
C671	C67	0.144500	0.437800	0.094200
C681	C68	0.242400	0.431300	0.153000
C691	C69	0.960500	0.439500	0.895100
C701	C70	0.917700	0.432200	0.816700
C711	C71	0.053400	0.438100	0.793900
C721	C72	0.098000	0.445100	0.871200
C731	C73	0.413300	0.437000	0.871300
C741	C74	0.439900	0.436200	0.792500
C751	C75	0.581300	0.434600	0.807400
C761	C76	0.555500	0.436800	0.887700
C771	C77	0.824700	0.438600	0.134000
C781	C78	0.684600	0.444900	0.137700
C791	C79	0.684500	0.445700	0.055800
C801	C80	0.827300	0.441500	0.053000
N651	N65	0.407400	0.441400	0.100300
N661	N66	0.253400	0.439400	0.006000
N671	N67	0.085600	0.436500	0.090700
N681	N68	0.238400	0.429300	0.186200
N691	N69	0.930100	0.436500	0.923100
N701	N70	0.869500	0.432200	0.799500
N711	N71	0.076800	0.440700	0.762800
N721	N72	0.149000	0.448100	0.887900
N731	N73	0.364000	0.437000	0.888000
N741	N74	0.408400	0.434500	0.765600
N751	N75	0.631000	0.432400	0.786700
N761	N76	0.585400	0.438200	0.915100
N771	N77	0.868500	0.438600	0.157400
N781	N78	0.650400	0.447300	0.162700
N791	N79	0.641600	0.451600	0.032000
N801	N80	0.872300	0.441100	0.031300
O51	O5	0.540900	0.443100	0.483900
K61	K6	0.439360	0.865180	0.983730
Nd111	Nd11	0.256140	0.941860	0.432020
Nd121	Nd12	0.257230	0.931050	0.759880
Pt211	Pt21	0.247090	0.935560	0.596280
Pt221	Pt22	0.007950	0.938340	0.344740
Pt231	Pt23	0.499350	0.936380	0.339430
Pt241	Pt24	0.755220	0.942350	0.594950
C811	C81	0.348200	0.935100	0.598400
C821	C82	0.251100	0.938000	0.539200
C831	C83	0.144500	0.937800	0.594200
C841	C84	0.242400	0.931300	0.653000
C851	C85	0.960500	0.939500	0.395100
C861	C86	0.917700	0.932200	0.316700
C871	C87	0.053400	0.938100	0.293900
C881	C88	0.098000	0.945100	0.371200
C891	C89	0.413300	0.937000	0.371300
C901	C90	0.439900	0.936200	0.292500
C911	C91	0.581300	0.934600	0.307400
C921	C92	0.555500	0.936800	0.387700
C931	C93	0.824700	0.938600	0.634000
C941	C94	0.684600	0.944900	0.637700
C951	C95	0.684500	0.945700	0.555800
C961	C96	0.827300	0.941500	0.553000
N811	N81	0.407400	0.941400	0.600300
N821	N82	0.253400	0.939400	0.506000
N831	N83	0.085600	0.936500	0.590700
N841	N84	0.238400	0.929300	0.686200
N851	N85	0.930100	0.936500	0.423100
N861	N86	0.869500	0.932200	0.299500
N871	N87	0.076800	0.940700	0.262800
N881	N88	0.149000	0.948100	0.387900
N891	N89	0.364000	0.937000	0.388000
N901	N90	0.408400	0.934500	0.265600
N911	N91	0.631000	0.932400	0.286700
N921	N92	0.585400	0.938200	0.415100
N931	N93	0.868500	0.938600	0.657400
N941	N94	0.650400	0.947300	0.662700
N951	N95	0.641600	0.951600	0.532000
N961	N96	0.872300	0.941100	0.531300
O61	O6	0.540900	0.943100	0.983900
K71	K7	0.939360	0.365180	0.983730
Nd131	Nd13	0.756140	0.441860	0.432020
Nd141	Nd14	0.757230	0.431050	0.759880
Pt251	Pt25	0.747090	0.435560	0.596280
Pt261	Pt26	0.507950	0.438340	0.344740
Pt271	Pt27	0.999350	0.436380	0.339430
Pt281	Pt28	0.255220	0.442350	0.594950
C971	C97	0.848200	0.435100	0.598400
C981	C98	0.751100	0.438000	0.539200
C991	C99	0.644500	0.437800	0.594200
C1001	C100	0.742400	0.431300	0.653000
C1011	C101	0.460500	0.439500	0.395100
C1021	C102	0.417700	0.432200	0.316700
C1031	C103	0.553400	0.438100	0.293900
C1041	C104	0.598000	0.445100	0.371200
C1051	C105	0.913300	0.437000	0.371300
C1061	C106	0.939900	0.436200	0.292500
C1071	C107	0.081300	0.434600	0.307400
C1081	C108	0.055500	0.436800	0.387700
C1091	C109	0.324700	0.438600	0.634000
C1101	C110	0.184600	0.444900	0.637700
C1111	C111	0.184500	0.445700	0.555800
C1121	C112	0.327300	0.441500	0.553000
N971	N97	0.907400	0.441400	0.600300
N981	N98	0.753400	0.439400	0.506000
N991	N99	0.585600	0.436500	0.590700
N1001	N100	0.738400	0.429300	0.686200
N1011	N101	0.430100	0.436500	0.423100
N1021	N102	0.369500	0.432200	0.299500
N1031	N103	0.576800	0.440700	0.262800
N1041	N104	0.649000	0.448100	0.387900
N1051	N105	0.864000	0.437000	0.388000
N1061	N106	0.908400	0.434500	0.265600
N1071	N107	0.131000	0.432400	0.286700
N1081	N108	0.085400	0.438200	0.415100
N1091	N109	0.368500	0.438600	0.657400
N1101	N110	0.150400	0.447300	0.662700
N1111	N111	0.141600	0.451600	0.532000
N1121	N112	0.372300	0.441100	0.531300
O71	O7	0.040900	0.443100	0.983900
K81	K8	0.939360	0.865180	0.483730
Nd151	Nd15	0.756140	0.941860	0.932020
Nd161	Nd16	0.757230	0.931050	0.259880
Pt291	Pt29	0.747090	0.935560	0.096280
Pt301	Pt30	0.507950	0.938340	0.844740
Pt311	Pt31	0.999350	0.936380	0.839430
Pt321	Pt32	0.255220	0.942350	0.094950
C1131	C113	0.848200	0.935100	0.098400
C1141	C114	0.751100	0.938000	0.039200
C1151	C115	0.644500	0.937800	0.094200
C1161	C116	0.742400	0.931300	0.153000
C1171	C117	0.460500	0.939500	0.895100
C1181	C118	0.417700	0.932200	0.816700
C1191	C119	0.553400	0.938100	0.793900
C1201	C120	0.598000	0.945100	0.871200
C1211	C121	0.913300	0.937000	0.871300
C1221	C122	0.939900	0.936200	0.792500
C1231	C123	0.081300	0.934600	0.807400
C1241	C124	0.055500	0.936800	0.887700
C1251	C125	0.324700	0.938600	0.134000
C1261	C126	0.184600	0.944900	0.137700
C1271	C127	0.184500	0.945700	0.055800
C1281	C128	0.327300	0.941500	0.053000
N1131	N113	0.907400	0.941400	0.100300
N1141	N114	0.753400	0.939400	0.006000
N1151	N115	0.585600	0.936500	0.090700
N1161	N116	0.738400	0.929300	0.186200
N1171	N117	0.430100	0.936500	0.923100
N1181	N118	0.369500	0.932200	0.799500
N1191	N119	0.576800	0.940700	0.762800
N1201	N120	0.649000	0.948100	0.887900
N1211	N121	0.864000	0.937000	0.888000
N1221	N122	0.908400	0.934500	0.765600
N1231	N123	0.131000	0.932400	0.786700
N1241	N124	0.085400	0.938200	0.915100
N1251	N125	0.368500	0.938600	0.157400
N1261	N126	0.150400	0.947300	0.162700
N1271	N127	0.141600	0.951600	0.032000
N1281	N128	0.372300	0.941100	0.031300
O81	O8	0.040900	0.943100	0.483900
K91	K9	0.810640	0.615180	0.733730
Nd171	Nd17	0.993860	0.691860	0.182020
Nd181	Nd18	0.992770	0.681050	0.509880
Pt331	Pt33	0.002910	0.685560	0.346280
Pt341	Pt34	0.242050	0.688340	0.094740
Pt351	Pt35	0.750650	0.686380	0.089430
Pt361	Pt36	0.494780	0.692350	0.344950
C1291	C129	0.901800	0.685100	0.348400
C1301	C130	0.998900	0.688000	0.289200
C1311	C131	0.105500	0.687800	0.344200
C1321	C132	0.007600	0.681300	0.403000
C1331	C133	0.289500	0.689500	0.145100
C1341	C134	0.332300	0.682200	0.066700
C1351	C135	0.196600	0.688100	0.043900
C1361	C136	0.152000	0.695100	0.121200
C1371	C137	0.836700	0.687000	0.121300
C1381	C138	0.810100	0.686200	0.042500
C1391	C139	0.668700	0.684600	0.057400
C1401	C140	0.694500	0.686800	0.137700
C1411	C141	0.425300	0.688600	0.384000
C1421	C142	0.565400	0.694900	0.387700
C1431	C143	0.565500	0.695700	0.305800
C1441	C144	0.422700	0.691500	0.303000
N1291	N129	0.842600	0.691400	0.350300
N1301	N130	0.996600	0.689400	0.256000
N1311	N131	0.164400	0.686500	0.340700
N1321	N132	0.011600	0.679300	0.436200
N1331	N133	0.319900	0.686500	0.173100
N1341	N134	0.380500	0.682200	0.049500
N1351	N135	0.173200	0.690700	0.012800
N1361	N136	0.101000	0.698100	0.137900
N1371	N137	0.886000	0.687000	0.138000
N1381	N138	0.841600	0.684500	0.015600
N1391	N139	0.619000	0.682400	0.036700
N1401	N140	0.664600	0.688200	0.165100
N1411	N141	0.381500	0.688600	0.407400
N1421	N142	0.599600	0.697300	0.412700
N1431	N143	0.608400	0.701600	0.282000
N1441	N144	0.377700	0.691100	0.281300
O91	O9	0.709100	0.693100	0.733900
K101	K10	0.810640	0.115180	0.233730
Nd191	Nd19	0.993860	0.191860	0.682020
Nd201	Nd20	0.992770	0.181050	0.009880
Pt371	Pt37	0.002910	0.185560	0.846280
Pt381	Pt38	0.242050	0.188340	0.594740
Pt391	Pt39	0.750650	0.186380	0.589430
Pt401	Pt40	0.494780	0.192350	0.844950
C1451	C145	0.901800	0.185100	0.848400
C1461	C146	0.998900	0.188000	0.789200
C1471	C147	0.105500	0.187800	0.844200
C1481	C148	0.007600	0.181300	0.903000
C1491	C149	0.289500	0.189500	0.645100
C1501	C150	0.332300	0.182200	0.566700
C1511	C151	0.196600	0.188100	0.543900
C1521	C152	0.152000	0.195100	0.621200
C1531	C153	0.836700	0.187000	0.621300
C1541	C154	0.810100	0.186200	0.542500
C1551	C155	0.668700	0.184600	0.557400
C1561	C156	0.694500	0.186800	0.637700
C1571	C157	0.425300	0.188600	0.884000
C1581	C158	0.565400	0.194900	0.887700
C1591	C159	0.565500	0.195700	0.805800
C1601	C160	0.422700	0.191500	0.803000
N1451	N145	0.842600	0.191400	0.850300
N1461	N146	0.996600	0.189400	0.756000
N1471	N147	0.164400	0.186500	0.840700
N1481	N148	0.011600	0.179300	0.936200
N1491	N149	0.319900	0.186500	0.673100
N1501	N150	0.380500	0.182200	0.549500
N1511	N151	0.173200	0.190700	0.512800
N1521	N152	0.101000	0.198100	0.637900
N1531	N153	0.886000	0.187000	0.638000
N1541	N154	0.841600	0.184500	0.515600
N1551	N155	0.619000	0.182400	0.536700
N1561	N156	0.664600	0.188200	0.665100
N1571	N157	0.381500	0.188600	0.907400
N1581	N158	0.599600	0.197300	0.912700
N1591	N159	0.608400	0.201600	0.782000
N1601	N160	0.377700	0.191100	0.781300
O101	O10	0.709100	0.193100	0.233900
K111	K11	0.310640	0.615180	0.233730
Nd211	Nd21	0.493860	0.691860	0.682020
Nd221	Nd22	0.492770	0.681050	0.009880
Pt411	Pt41	0.502910	0.685560	0.846280
Pt421	Pt42	0.742050	0.688340	0.594740
Pt431	Pt43	0.250650	0.686380	0.589430
Pt441	Pt44	0.994780	0.692350	0.844950
C1611	C161	0.401800	0.685100	0.848400
C1621	C162	0.498900	0.688000	0.789200
C1631	C163	0.605500	0.687800	0.844200
C1641	C164	0.507600	0.681300	0.903000
C1651	C165	0.789500	0.689500	0.645100
C1661	C166	0.832300	0.682200	0.566700
C1671	C167	0.696600	0.688100	0.543900
C1681	C168	0.652000	0.695100	0.621200
C1691	C169	0.336700	0.687000	0.621300
C1701	C170	0.310100	0.686200	0.542500
C1711	C171	0.168700	0.684600	0.557400
C1721	C172	0.194500	0.686800	0.637700
C1731	C173	0.925300	0.688600	0.884000
C1741	C174	0.065400	0.694900	0.887700
C1751	C175	0.065500	0.695700	0.805800
C1761	C176	0.922700	0.691500	0.803000
N1611	N161	0.342600	0.691400	0.850300
N1621	N162	0.496600	0.689400	0.756000
N1631	N163	0.664400	0.686500	0.840700
N1641	N164	0.511600	0.679300	0.936200
N1651	N165	0.819900	0.686500	0.673100
N1661	N166	0.880500	0.682200	0.549500
N1671	N167	0.673200	0.690700	0.512800
N1681	N168	0.601000	0.698100	0.637900
N1691	N169	0.386000	0.687000	0.638000
N1701	N170	0.341600	0.684500	0.515600
N1711	N171	0.119000	0.682400	0.536700
N1721	N172	0.164600	0.688200	0.665100
N1731	N173	0.881500	0.688600	0.907400
N1741	N174	0.099600	0.697300	0.912700
N1751	N175	0.108400	0.701600	0.782000
N1761	N176	0.877700	0.691100	0.781300
O111	O11	0.209100	0.693100	0.233900
K121	K12	0.310640	0.115180	0.733730
Nd231	Nd23	0.493860	0.191860	0.182020
Nd241	Nd24	0.492770	0.181050	0.509880
Pt451	Pt45	0.502910	0.185560	0.346280
Pt461	Pt46	0.742050	0.188340	0.094740
Pt471	Pt47	0.250650	0.186380	0.089430
Pt481	Pt48	0.994780	0.192350	0.344950
C1771	C177	0.401800	0.185100	0.348400
C1781	C178	0.498900	0.188000	0.289200
C1791	C179	0.605500	0.187800	0.344200
C1801	C180	0.507600	0.181300	0.403000
C1811	C181	0.789500	0.189500	0.145100
C1821	C182	0.832300	0.182200	0.066700
C1831	C183	0.696600	0.188100	0.043900
C1841	C184	0.652000	0.195100	0.121200
C1851	C185	0.336700	0.187000	0.121300
C1861	C186	0.310100	0.186200	0.042500
C1871	C187	0.168700	0.184600	0.057400
C1881	C188	0.194500	0.186800	0.137700
C1891	C189	0.925300	0.188600	0.384000
C1901	C190	0.065400	0.194900	0.387700
C1911	C191	0.065500	0.195700	0.305800
C1921	C192	0.922700	0.191500	0.303000
N1771	N177	0.342600	0.191400	0.350300
N1781	N178	0.496600	0.189400	0.256000
N1791	N179	0.664400	0.186500	0.340700
N1801	N180	0.511600	0.179300	0.436200
N1811	N181	0.819900	0.186500	0.173100
N1821	N182	0.880500	0.182200	0.049500
N1831	N183	0.673200	0.190700	0.012800
N1841	N184	0.601000	0.198100	0.137900
N1851	N185	0.386000	0.187000	0.138000
N1861	N186	0.341600	0.184500	0.015600
N1871	N187	0.119000	0.182400	0.036700
N1881	N188	0.164600	0.188200	0.165100
N1891	N189	0.881500	0.188600	0.407400
N1901	N190	0.099600	0.197300	0.412700
N1911	N191	0.108400	0.201600	0.282000
N1921	N192	0.877700	0.191100	0.281300
O121	O12	0.209100	0.193100	0.733900
K131	K13	0.689360	0.884820	0.733730
Nd251	Nd25	0.506140	0.808140	0.182020
Nd261	Nd26	0.507230	0.818950	0.509880
Pt491	Pt49	0.497090	0.814440	0.346280
Pt501	Pt50	0.257950	0.811660	0.094740
Pt511	Pt51	0.749350	0.813620	0.089430
Pt521	Pt52	0.005220	0.807650	0.344950
C1931	C193	0.598200	0.814900	0.348400
C1941	C194	0.501100	0.812000	0.289200
C1951	C195	0.394500	0.812200	0.344200
C1961	C196	0.492400	0.818700	0.403000
C1971	C197	0.210500	0.810500	0.145100
C1981	C198	0.167700	0.817800	0.066700
C1991	C199	0.303400	0.811900	0.043900
C2001	C200	0.348000	0.804900	0.121200
C2011	C201	0.663300	0.813000	0.121300
C2021	C202	0.689900	0.813800	0.042500
C2031	C203	0.831300	0.815400	0.057400
C2041	C204	0.805500	0.813200	0.137700
C2051	C205	0.074700	0.811400	0.384000
C2061	C206	0.934600	0.805100	0.387700
C2071	C207	0.934500	0.804300	0.305800
C2081	C208	0.077300	0.808500	0.303000
N1931	N193	0.657400	0.808600	0.350300
N1941	N194	0.503400	0.810600	0.256000
N1951	N195	0.335600	0.813500	0.340700
N1961	N196	0.488400	0.820700	0.436200
N1971	N197	0.180100	0.813500	0.173100
N1981	N198	0.119500	0.817800	0.049500
N1991	N199	0.326800	0.809300	0.012800
N2001	N200	0.399000	0.801900	0.137900
N2011	N201	0.614000	0.813000	0.138000
N2021	N202	0.658400	0.815500	0.015600
N2031	N203	0.881000	0.817600	0.036700
N2041	N204	0.835400	0.811800	0.165100
N2051	N205	0.118500	0.811400	0.407400
N2061	N206	0.900400	0.802700	0.412700
N2071	N207	0.891600	0.798400	0.282000
N2081	N208	0.122300	0.808900	0.281300
O131	O13	0.790900	0.806900	0.733900
K141	K14	0.689360	0.384820	0.233730
Nd271	Nd27	0.506140	0.308140	0.682020
Nd281	Nd28	0.507230	0.318950	0.009880
Pt531	Pt53	0.497090	0.314440	0.846280
Pt541	Pt54	0.257950	0.311660	0.594740
Pt551	Pt55	0.749350	0.313620	0.589430
Pt561	Pt56	0.005220	0.307650	0.844950
C2091	C209	0.598200	0.314900	0.848400
C2101	C210	0.501100	0.312000	0.789200
C2111	C211	0.394500	0.312200	0.844200
C2121	C212	0.492400	0.318700	0.903000
C2131	C213	0.210500	0.310500	0.645100
C2141	C214	0.167700	0.317800	0.566700
C2151	C215	0.303400	0.311900	0.543900
C2161	C216	0.348000	0.304900	0.621200
C2171	C217	0.663300	0.313000	0.621300
C2181	C218	0.689900	0.313800	0.542500
C2191	C219	0.831300	0.315400	0.557400
C2201	C220	0.805500	0.313200	0.637700
C2211	C221	0.074700	0.311400	0.884000
C2221	C222	0.934600	0.305100	0.887700
C2231	C223	0.934500	0.304300	0.805800
C2241	C224	0.077300	0.308500	0.803000
N2091	N209	0.657400	0.308600	0.850300
N2101	N210	0.503400	0.310600	0.756000
N2111	N211	0.335600	0.313500	0.840700
N2121	N212	0.488400	0.320700	0.936200
N2131	N213	0.180100	0.313500	0.673100
N2141	N214	0.119500	0.317800	0.549500
N2151	N215	0.326800	0.309300	0.512800
N2161	N216	0.399000	0.301900	0.637900
N2171	N217	0.614000	0.313000	0.638000
N2181	N218	0.658400	0.315500	0.515600
N2191	N219	0.881000	0.317600	0.536700
N2201	N220	0.835400	0.311800	0.665100
N2211	N221	0.118500	0.311400	0.907400
N2221	N222	0.900400	0.302700	0.912700
N2231	N223	0.891600	0.298400	0.782000
N2241	N224	0.122300	0.308900	0.781300
O141	O14	0.790900	0.306900	0.233900
K151	K15	0.189360	0.884820	0.233730
Nd291	Nd29	0.006140	0.808140	0.682020
Nd301	Nd30	0.007230	0.818950	0.009880
Pt571	Pt57	0.997090	0.814440	0.846280
Pt581	Pt58	0.757950	0.811660	0.594740
Pt591	Pt59	0.249350	0.813620	0.589430
Pt601	Pt60	0.505220	0.807650	0.844950
C2251	C225	0.098200	0.814900	0.848400
C2261	C226	0.001100	0.812000	0.789200
C2271	C227	0.894500	0.812200	0.844200
C2281	C228	0.992400	0.818700	0.903000
C2291	C229	0.710500	0.810500	0.645100
C2301	C230	0.667700	0.817800	0.566700
C2311	C231	0.803400	0.811900	0.543900
C2321	C232	0.848000	0.804900	0.621200
C2331	C233	0.163300	0.813000	0.621300
C2341	C234	0.189900	0.813800	0.542500
C2351	C235	0.331300	0.815400	0.557400
C2361	C236	0.305500	0.813200	0.637700
C2371	C237	0.574700	0.811400	0.884000
C2381	C238	0.434600	0.805100	0.887700
C2391	C239	0.434500	0.804300	0.805800
C2401	C240	0.577300	0.808500	0.803000
N2251	N225	0.157400	0.808600	0.850300
N2261	N226	0.003400	0.810600	0.756000
N2271	N227	0.835600	0.813500	0.840700
N2281	N228	0.988400	0.820700	0.936200
N2291	N229	0.680100	0.813500	0.673100
N2301	N230	0.619500	0.817800	0.549500
N2311	N231	0.826800	0.809300	0.512800
N2321	N232	0.899000	0.801900	0.637900
N2331	N233	0.114000	0.813000	0.638000
N2341	N234	0.158400	0.815500	0.515600
N2351	N235	0.381000	0.817600	0.536700
N2361	N236	0.335400	0.811800	0.665100
N2371	N237	0.618500	0.811400	0.907400
N2381	N238	0.400400	0.802700	0.912700
N2391	N239	0.391600	0.798400	0.782000
N2401	N240	0.622300	0.808900	0.781300
O151	O15	0.290900	0.806900	0.233900
K161	K16	0.189360	0.384820	0.733730
Nd311	Nd31	0.006140	0.308140	0.182020
Nd321	Nd32	0.007230	0.318950	0.509880
Pt611	Pt61	0.997090	0.314440	0.346280
Pt621	Pt62	0.757950	0.311660	0.094740
Pt631	Pt63	0.249350	0.313620	0.089430
Pt641	Pt64	0.505220	0.307650	0.344950
C2411	C241	0.098200	0.314900	0.348400
C2421	C242	0.001100	0.312000	0.289200
C2431	C243	0.894500	0.312200	0.344200
C2441	C244	0.992400	0.318700	0.403000
C2451	C245	0.710500	0.310500	0.145100
C2461	C246	0.667700	0.317800	0.066700
C2471	C247	0.803400	0.311900	0.043900
C2481	C248	0.848000	0.304900	0.121200
C2491	C249	0.163300	0.313000	0.121300
C2501	C250	0.189900	0.313800	0.042500
C2511	C251	0.331300	0.315400	0.057400
C2521	C252	0.305500	0.313200	0.137700
C2531	C253	0.574700	0.311400	0.384000
C2541	C254	0.434600	0.305100	0.387700
C2551	C255	0.434500	0.304300	0.305800
C2561	C256	0.577300	0.308500	0.303000
N2411	N241	0.157400	0.308600	0.350300
N2421	N242	0.003400	0.310600	0.256000
N2431	N243	0.835600	0.313500	0.340700
N2441	N244	0.988400	0.320700	0.436200
N2451	N245	0.680100	0.313500	0.173100
N2461	N246	0.619500	0.317800	0.049500
N2471	N247	0.826800	0.309300	0.012800
N2481	N248	0.899000	0.301900	0.137900
N2491	N249	0.114000	0.313000	0.138000
N2501	N250	0.158400	0.315500	0.015600
N2511	N251	0.381000	0.317600	0.036700
N2521	N252	0.335400	0.311800	0.165100
N2531	N253	0.618500	0.311400	0.407400
N2541	N254	0.400400	0.302700	0.412700
N2551	N255	0.391600	0.298400	0.282000
N2561	N256	0.622300	0.308900	0.281300
O161	O16	0.290900	0.306900	0.733900
K171	K17	0.500000	0.500000	0.144360
K181	K18	0.500000	0.500000	0.545150
K191	K19	0.500000	0.000000	0.644360
K201	K20	0.500000	0.000000	0.045150
K211	K21	0.000000	0.500000	0.644360
K221	K22	0.000000	0.500000	0.045150
K231	K23	0.000000	0.000000	0.144360
K241	K24	0.000000	0.000000	0.545150
K251	K25	0.750000	0.750000	0.394360
K261	K26	0.750000	0.750000	0.795150
K271	K27	0.750000	0.250000	0.894360
K281	K28	0.750000	0.250000	0.295150
K291	K29	0.250000	0.750000	0.894360
K301	K30	0.250000	0.750000	0.295150
K311	K31	0.250000	0.250000	0.394360
K321	K32	0.250000	0.250000	0.795150
