data_XEKCOH_clean_PM
_symmetry_space_group_name_H-M	'P1'
_cell_length_a	16.625300
_cell_length_b	16.625400
_cell_length_c	20.041100
_cell_angle_alpha	73.277800
_cell_angle_beta	73.277700
_cell_angle_gamma	107.837000
_symmetry_Int_Tables_number 1

loop_
_symmetry_equiv_pos_as_xyz
'x,y,z'

loop_
_atom_site_label
_atom_site_type_symbol
_atom_site_fract_x
_atom_site_fract_y
_atom_site_fract_z
K11	K1	0.442650	0.713030	0.968400
K21	K2	0.588950	0.318570	0.968400
K31	K3	0.463030	0.692650	0.468400
K41	K4	0.068570	0.838950	0.468400
K51	K5	0.856410	0.856410	0.287180
K61	K6	0.455010	0.455010	0.089980
K71	K7	0.606410	0.106410	0.787180
K81	K8	0.205010	0.705010	0.589980
La11	La1	0.254060	0.370340	0.864200
La21	La2	0.914680	0.052320	0.519880
La31	La3	0.881740	0.765460	0.864200
La41	La4	0.565440	0.427800	0.519880
La51	La5	0.120340	0.504060	0.364200
La61	La6	0.802320	0.164680	0.019880
La71	La7	0.515460	0.131740	0.364200
La81	La8	0.177800	0.815440	0.019880
Pt11	Pt1	0.093390	0.221850	0.192730
Pt21	Pt2	0.585890	0.709290	0.689080
Pt31	Pt3	0.097850	0.225150	0.679230
Pt41	Pt4	0.591750	0.707320	0.189510
Pt51	Pt5	0.713880	0.585420	0.192730
Pt61	Pt6	0.725030	0.601630	0.689080
Pt71	Pt7	0.222920	0.095630	0.679230
Pt81	Pt8	0.218740	0.103170	0.189510
Pt91	Pt9	0.971850	0.343390	0.692730
Pt101	Pt10	0.459290	0.835890	0.189080
Pt111	Pt11	0.975150	0.347850	0.179230
Pt121	Pt12	0.457320	0.841750	0.689510
Pt131	Pt13	0.335420	0.963880	0.692730
Pt141	Pt14	0.351630	0.975030	0.189080
Pt151	Pt15	0.845620	0.472920	0.179230
Pt161	Pt16	0.853170	0.468740	0.689510
C11	C1	0.990100	0.115700	0.199800
C21	C2	0.148300	0.271500	0.078800
C31	C3	0.199700	0.325500	0.185800
C41	C4	0.038900	0.174500	0.305800
C51	C5	0.583400	0.707600	0.788800
C61	C6	0.696900	0.830900	0.635000
C71	C7	0.592700	0.714300	0.587200
C81	C8	0.476700	0.587300	0.741800
C91	C9	0.152600	0.277400	0.742000
C101	C10	0.201500	0.330900	0.585200
C111	C11	0.045400	0.177000	0.614400
C121	C12	0.996500	0.120700	0.773800
C131	C13	0.480000	0.599400	0.267800
C141	C14	0.621200	0.731400	0.273200
C151	C15	0.707100	0.813700	0.109000
C161	C16	0.560700	0.678300	0.106400
C171	C17	0.810100	0.684500	0.199800
C181	C18	0.772900	0.649700	0.078800
C191	C19	0.614500	0.488700	0.185800
C201	C20	0.655300	0.519700	0.305800
C211	C21	0.627800	0.503600	0.788800
C221	C22	0.668100	0.534100	0.635000
C231	C23	0.820100	0.698500	0.587200
C241	C24	0.781500	0.670900	0.741800
C251	C25	0.105400	0.980600	0.742000
C261	C26	0.213300	0.083900	0.585200
C271	C27	0.340200	0.208600	0.614400
C281	C28	0.229700	0.105500	0.773800
C291	C29	0.252200	0.132800	0.267800
C301	C30	0.105600	0.995400	0.273200
C311	C31	0.183900	0.077300	0.109000
C321	C32	0.332900	0.215300	0.106400
C331	C33	0.865700	0.240100	0.699800
C341	C34	0.021500	0.398300	0.578800
C351	C35	0.075500	0.449700	0.685800
C361	C36	0.924500	0.288900	0.805800
C371	C37	0.457600	0.833400	0.288800
C381	C38	0.580900	0.946900	0.135000
C391	C39	0.464300	0.842700	0.087200
C401	C40	0.337300	0.726700	0.241800
C411	C41	0.027400	0.402600	0.242000
C421	C42	0.080900	0.451500	0.085200
C431	C43	0.927000	0.295400	0.114400
C441	C44	0.870700	0.246500	0.273800
C451	C45	0.349400	0.730000	0.767800
C461	C46	0.481400	0.871200	0.773200
C471	C47	0.563700	0.957100	0.609000
C481	C48	0.428300	0.810700	0.606400
C491	C49	0.434500	0.060100	0.699800
C501	C50	0.399700	0.022900	0.578800
C511	C51	0.238700	0.864500	0.685800
C521	C52	0.269700	0.905300	0.805800
C531	C53	0.253600	0.877800	0.288800
C541	C54	0.284100	0.918100	0.135000
C551	C55	0.448500	0.070100	0.087200
C561	C56	0.420900	0.031500	0.241800
C571	C57	0.730600	0.355400	0.242000
C581	C58	0.833900	0.463300	0.085200
C591	C59	0.958600	0.590200	0.114400
C601	C60	0.855500	0.479700	0.273800
C611	C61	0.882800	0.502200	0.767800
C621	C62	0.745400	0.355600	0.773200
C631	C63	0.827300	0.433900	0.609000
C641	C64	0.965300	0.582900	0.606400
N11	N1	0.934300	0.053500	0.202600
N21	N2	0.179760	0.300160	0.014280
N31	N3	0.260100	0.386100	0.180000
N41	N4	0.007800	0.149000	0.370600
N51	N5	0.584700	0.709100	0.845200
N61	N6	0.762200	0.898200	0.600800
N71	N7	0.601800	0.721000	0.526600
N81	N8	0.413900	0.516700	0.772200
N91	N9	0.183100	0.309300	0.777400
N101	N10	0.261400	0.390800	0.531800
N111	N11	0.016900	0.153100	0.574600
N121	N12	0.939200	0.061800	0.829200
N131	N13	0.415700	0.535500	0.314600
N141	N14	0.636800	0.741000	0.322600
N151	N15	0.772400	0.873000	0.063000
N161	N16	0.540900	0.655700	0.063000
N171	N17	0.863100	0.743900	0.202600
N181	N18	0.805960	0.685560	0.014280
N191	N19	0.559900	0.433900	0.180000
N201	N20	0.621600	0.480400	0.370600
N211	N21	0.570100	0.445700	0.845200
N221	N22	0.637000	0.501000	0.600800
N231	N23	0.871600	0.752400	0.526600
N241	N24	0.813900	0.711100	0.772200
N251	N25	0.039500	0.913300	0.777400
N261	N26	0.206800	0.077400	0.531800
N271	N27	0.408500	0.272300	0.574600
N281	N28	0.231600	0.109000	0.829200
N291	N29	0.269700	0.149900	0.314600
N301	N30	0.040600	0.936400	0.322600
N311	N31	0.164600	0.064000	0.063000
N321	N32	0.396100	0.281300	0.063000
N331	N33	0.803500	0.184300	0.702600
N341	N34	0.050160	0.429760	0.514280
N351	N35	0.136100	0.510100	0.680000
N361	N36	0.899000	0.257800	0.870600
N371	N37	0.459100	0.834700	0.345200
N381	N38	0.648200	0.012200	0.100800
N391	N39	0.471000	0.851800	0.026600
N401	N40	0.266700	0.663900	0.272200
N411	N41	0.059300	0.433100	0.277400
N421	N42	0.140800	0.511400	0.031800
N431	N43	0.903100	0.266900	0.074600
N441	N44	0.811800	0.189200	0.329200
N451	N45	0.285500	0.665700	0.814600
N461	N46	0.491000	0.886800	0.822600
N471	N47	0.623000	0.022400	0.563000
N481	N48	0.405700	0.790900	0.563000
N491	N49	0.493900	0.113100	0.702600
N501	N50	0.435560	0.055960	0.514280
N511	N51	0.183900	0.809900	0.680000
N521	N52	0.230400	0.871600	0.870600
N531	N53	0.195700	0.820100	0.345200
N541	N54	0.251000	0.887000	0.100800
N551	N55	0.502400	0.121600	0.026600
N561	N56	0.461100	0.063900	0.272200
N571	N57	0.663300	0.289500	0.277400
N581	N58	0.827400	0.456800	0.031800
N591	N59	0.022300	0.658500	0.074600
N601	N60	0.859000	0.481600	0.329200
N611	N61	0.899900	0.519700	0.814600
N621	N62	0.686400	0.290600	0.822600
N631	N63	0.814000	0.414600	0.563000
N641	N64	0.031300	0.646100	0.563000
O11	O1	0.417800	0.533000	0.969000
O21	O2	0.613200	0.498000	0.969000
O31	O3	0.283000	0.667800	0.469000
O41	O4	0.248000	0.863200	0.469000
