data_XEKCAT_clean_PM
_symmetry_space_group_name_H-M	'P1'
_cell_length_a	17.490000
_cell_length_b	11.940000
_cell_length_c	18.460000
_cell_angle_alpha	90.000000
_cell_angle_beta	116.870000
_cell_angle_gamma	90.000000
_symmetry_Int_Tables_number 1

loop_
_symmetry_equiv_pos_as_xyz
'x,y,z'

loop_
_atom_site_label
_atom_site_type_symbol
_atom_site_fract_x
_atom_site_fract_y
_atom_site_fract_z
Mg11	Mg1	0.287080	0.417960	0.027560
Mg21	Mg2	0.287820	0.947570	0.699560
Mg31	Mg3	0.834100	0.820950	0.118240
O11	O1	0.320840	0.382360	0.940210
O21	O2	0.305230	0.094630	0.650730
O31	O3	0.185110	0.523880	0.982680
O41	O4	0.186900	0.594690	0.094960
O51	O5	0.372980	0.209910	0.608800
O61	O6	0.793330	0.520920	0.757110
O71	O7	0.813340	0.712960	0.009710
O81	O8	0.628000	0.377400	0.833360
O91	O9	0.614870	0.465930	0.933280
O101	O10	0.286380	0.205020	0.902220
O111	O11	0.937350	0.782680	0.094000
O121	O12	0.889200	0.583180	0.719590
C11	C1	0.921200	0.597210	0.858430
C21	C2	0.151110	0.572960	0.020970
C31	C3	0.892570	0.727010	0.031880
C41	C4	0.863640	0.563650	0.771960
C51	C5	0.356600	0.176030	0.663720
C61	C6	0.058490	0.606300	0.975900
C71	C7	0.933250	0.678100	0.982900
C81	C8	0.588570	0.403010	0.872980
C91	C9	0.393020	0.233420	0.743560
C101	C10	0.501640	0.349830	0.843690
C111	C11	0.377210	0.296760	0.859570
C121	C12	0.323950	0.295370	0.904880
C131	C13	0.008280	0.577040	0.895000
H11	H1	0.033500	0.543800	0.865500
C141	C14	0.884280	0.646690	0.903180
H21	H2	0.825400	0.658900	0.878900
C151	C15	0.020670	0.658940	0.018540
H31	H3	0.054500	0.681700	0.071800
C161	C16	0.348810	0.233270	0.789740
H41	H4	0.299600	0.190000	0.773500
C171	C17	0.453230	0.357270	0.886090
H51	H5	0.471500	0.402400	0.931900
C181	C18	0.470000	0.289930	0.771870
H61	H6	0.501100	0.287700	0.742200
Mg41	Mg4	0.712920	0.917960	0.472440
Mg51	Mg5	0.712180	0.447570	0.800440
Mg61	Mg6	0.165900	0.320950	0.381760
O131	O13	0.679160	0.882360	0.559790
O141	O14	0.694770	0.594630	0.849270
O151	O15	0.814890	0.023880	0.517320
O161	O16	0.813100	0.094690	0.405040
O171	O17	0.627020	0.709910	0.891200
O181	O18	0.206670	0.020920	0.742890
O191	O19	0.186660	0.212960	0.490290
O201	O20	0.372000	0.877400	0.666640
O211	O21	0.385130	0.965930	0.566720
O221	O22	0.713620	0.705020	0.597780
O231	O23	0.062650	0.282680	0.406000
O241	O24	0.110800	0.083180	0.780410
C191	C19	0.078800	0.097210	0.641570
C201	C20	0.848890	0.072960	0.479030
C211	C21	0.107430	0.227010	0.468120
C221	C22	0.136360	0.063650	0.728040
C231	C23	0.643400	0.676030	0.836280
C241	C24	0.941510	0.106300	0.524100
C251	C25	0.066750	0.178100	0.517100
C261	C26	0.411430	0.903010	0.627020
C271	C27	0.606980	0.733420	0.756440
C281	C28	0.498360	0.849830	0.656310
C291	C29	0.622790	0.796760	0.640430
C301	C30	0.676050	0.795370	0.595120
C311	C31	0.991720	0.077040	0.605000
H71	H7	0.966500	0.043800	0.634500
C321	C32	0.115720	0.146690	0.596820
H81	H8	0.174600	0.158900	0.621100
C331	C33	0.979330	0.158940	0.481460
H91	H9	0.945500	0.181700	0.428200
C341	C34	0.651190	0.733270	0.710260
H101	H10	0.700400	0.690000	0.726500
C351	C35	0.546770	0.857270	0.613910
H111	H11	0.528500	0.902400	0.568100
C361	C36	0.530000	0.789930	0.728130
H121	H12	0.498900	0.787700	0.757800
Mg71	Mg7	0.712920	0.582040	0.972440
Mg81	Mg8	0.712180	0.052430	0.300440
Mg91	Mg9	0.165900	0.179050	0.881760
O251	O25	0.679160	0.617640	0.059790
O261	O26	0.694770	0.905370	0.349270
O271	O27	0.814890	0.476120	0.017320
O281	O28	0.813100	0.405310	0.905040
O291	O29	0.627020	0.790090	0.391200
O301	O30	0.206670	0.479080	0.242890
O311	O31	0.186660	0.287040	0.990290
O321	O32	0.372000	0.622600	0.166640
O331	O33	0.385130	0.534070	0.066720
O341	O34	0.713620	0.794980	0.097780
O351	O35	0.062650	0.217320	0.906000
O361	O36	0.110800	0.416820	0.280410
C371	C37	0.078800	0.402790	0.141570
C381	C38	0.848890	0.427040	0.979030
C391	C39	0.107430	0.272990	0.968120
C401	C40	0.136360	0.436350	0.228040
C411	C41	0.643400	0.823970	0.336280
C421	C42	0.941510	0.393700	0.024100
C431	C43	0.066750	0.321900	0.017100
C441	C44	0.411430	0.596990	0.127020
C451	C45	0.606980	0.766580	0.256440
C461	C46	0.498360	0.650170	0.156310
C471	C47	0.622790	0.703240	0.140430
C481	C48	0.676050	0.704630	0.095120
C491	C49	0.991720	0.422960	0.105000
H131	H13	0.966500	0.456200	0.134500
C501	C50	0.115720	0.353310	0.096820
H141	H14	0.174600	0.341100	0.121100
C511	C51	0.979330	0.341060	0.981460
H151	H15	0.945500	0.318300	0.928200
C521	C52	0.651190	0.766730	0.210260
H161	H16	0.700400	0.810000	0.226500
C531	C53	0.546770	0.642730	0.113910
H171	H17	0.528500	0.597600	0.068100
C541	C54	0.530000	0.710070	0.228130
H181	H18	0.498900	0.712300	0.257800
Mg101	Mg10	0.287080	0.082040	0.527560
Mg111	Mg11	0.287820	0.552430	0.199560
Mg121	Mg12	0.834100	0.679050	0.618240
O371	O37	0.320840	0.117640	0.440210
O381	O38	0.305230	0.405370	0.150730
O391	O39	0.185110	0.976120	0.482680
O401	O40	0.186900	0.905310	0.594960
O411	O41	0.372980	0.290090	0.108800
O421	O42	0.793330	0.979080	0.257110
O431	O43	0.813340	0.787040	0.509710
O441	O44	0.628000	0.122600	0.333360
O451	O45	0.614870	0.034070	0.433280
O461	O46	0.286380	0.294980	0.402220
O471	O47	0.937350	0.717320	0.594000
O481	O48	0.889200	0.916820	0.219590
C551	C55	0.921200	0.902790	0.358430
C561	C56	0.151110	0.927040	0.520970
C571	C57	0.892570	0.772990	0.531880
C581	C58	0.863640	0.936350	0.271960
C591	C59	0.356600	0.323970	0.163720
C601	C60	0.058490	0.893700	0.475900
C611	C61	0.933250	0.821900	0.482900
C621	C62	0.588570	0.096990	0.372980
C631	C63	0.393020	0.266580	0.243560
C641	C64	0.501640	0.150170	0.343690
C651	C65	0.377210	0.203240	0.359570
C661	C66	0.323950	0.204630	0.404880
C671	C67	0.008280	0.922960	0.395000
H191	H19	0.033500	0.956200	0.365500
C681	C68	0.884280	0.853310	0.403180
H201	H20	0.825400	0.841100	0.378900
C691	C69	0.020670	0.841060	0.518540
H211	H21	0.054500	0.818300	0.571800
C701	C70	0.348810	0.266730	0.289740
H221	H22	0.299600	0.310000	0.273500
C711	C71	0.453230	0.142730	0.386090
H231	H23	0.471500	0.097600	0.431900
C721	C72	0.470000	0.210070	0.271870
H241	H24	0.501100	0.212300	0.242200
