data_XENCAU_clean_PM
_symmetry_space_group_name_H-M	'P1'
_cell_length_a	22.317500
_cell_length_b	22.317500
_cell_length_c	21.042900
_cell_angle_alpha	90.000000
_cell_angle_beta	90.000000
_cell_angle_gamma	90.000000
_symmetry_Int_Tables_number 1

loop_
_symmetry_equiv_pos_as_xyz
'x,y,z'

loop_
_atom_site_label
_atom_site_type_symbol
_atom_site_fract_x
_atom_site_fract_y
_atom_site_fract_z
N11	N1	0.973430	0.466220	0.093500
N21	N2	0.969300	0.504700	0.143400
H11	H1	0.984600	0.538800	0.138300
N31	N3	0.823420	0.314810	0.247800
N41	N4	0.871300	0.309700	0.287200
H21	H2	0.035700	0.383600	0.935800
C11	C1	0.950600	0.414400	0.115400
C21	C2	0.931200	0.420700	0.178400
C31	C3	0.944500	0.479500	0.195200
C41	C4	0.934500	0.512900	0.255300
H31	H3	0.950100	0.552700	0.251100
H41	H4	0.892200	0.514800	0.263300
H51	H5	0.954000	0.493000	0.290000
C51	C5	0.949500	0.358200	0.077300
H61	H6	0.965500	0.365500	0.035700
H71	H7	0.972900	0.328100	0.098200
H81	H8	0.908800	0.344800	0.073600
C61	C6	0.917300	0.345200	0.269600
C71	C7	0.898600	0.375700	0.216900
C81	C8	0.105200	0.409900	0.046200
C91	C9	0.125200	0.449400	0.098900
H91	H9	0.104400	0.486900	0.095800
H101	H10	0.167600	0.456300	0.096100
H111	H11	0.116000	0.430700	0.138700
C101	C10	0.095700	0.274900	0.944700
H121	H12	0.067800	0.276800	0.910000
H131	H13	0.085200	0.242300	0.972200
H141	H14	0.135400	0.268800	0.928400
N51	N5	0.473430	0.966220	0.593500
N61	N6	0.469300	0.004700	0.643400
H151	H15	0.484600	0.038800	0.638300
N71	N7	0.323420	0.814810	0.747800
N81	N8	0.371300	0.809700	0.787200
H161	H16	0.535700	0.883600	0.435800
C111	C11	0.450600	0.914400	0.615400
C121	C12	0.431200	0.920700	0.678400
C131	C13	0.444500	0.979500	0.695200
C141	C14	0.434500	0.012900	0.755300
H171	H17	0.450100	0.052700	0.751100
H181	H18	0.392200	0.014800	0.763300
H191	H19	0.454000	0.993000	0.790000
C151	C15	0.449500	0.858200	0.577300
H201	H20	0.465500	0.865500	0.535700
H211	H21	0.472900	0.828100	0.598200
H221	H22	0.408800	0.844800	0.573600
C161	C16	0.417300	0.845200	0.769600
C171	C17	0.398600	0.875700	0.716900
C181	C18	0.605200	0.909900	0.546200
C191	C19	0.625200	0.949400	0.598900
H231	H23	0.604400	0.986900	0.595800
H241	H24	0.667600	0.956300	0.596100
H251	H25	0.616000	0.930700	0.638700
C201	C20	0.595700	0.774900	0.444700
H261	H26	0.567800	0.776800	0.410000
H271	H27	0.585200	0.742300	0.472200
H281	H28	0.635400	0.768800	0.428400
N91	N9	0.526570	0.533780	0.593500
N101	N10	0.530700	0.495300	0.643400
H291	H29	0.515400	0.461200	0.638300
N111	N11	0.676580	0.685190	0.747800
N121	N12	0.628700	0.690300	0.787200
H301	H30	0.464300	0.616400	0.435800
C211	C21	0.549400	0.585600	0.615400
C221	C22	0.568800	0.579300	0.678400
C231	C23	0.555500	0.520500	0.695200
C241	C24	0.565500	0.487100	0.755300
H311	H31	0.549900	0.447300	0.751100
H321	H32	0.607800	0.485200	0.763300
H331	H33	0.546000	0.507000	0.790000
C251	C25	0.550500	0.641800	0.577300
H341	H34	0.534500	0.634500	0.535700
H351	H35	0.527100	0.671900	0.598200
H361	H36	0.591200	0.655200	0.573600
C261	C26	0.582700	0.654800	0.769600
C271	C27	0.601400	0.624300	0.716900
C281	C28	0.394800	0.590100	0.546200
C291	C29	0.374800	0.550600	0.598900
H371	H37	0.395600	0.513100	0.595800
H381	H38	0.332400	0.543700	0.596100
H391	H39	0.384000	0.569300	0.638700
C301	C30	0.404300	0.725100	0.444700
H401	H40	0.432200	0.723200	0.410000
H411	H41	0.414800	0.757700	0.472200
H421	H42	0.364600	0.731200	0.428400
N131	N13	0.026570	0.033780	0.093500
N141	N14	0.030700	0.995300	0.143400
H431	H43	0.015400	0.961200	0.138300
N151	N15	0.176580	0.185190	0.247800
N161	N16	0.128700	0.190300	0.287200
H441	H44	0.964300	0.116400	0.935800
C311	C31	0.049400	0.085600	0.115400
C321	C32	0.068800	0.079300	0.178400
C331	C33	0.055500	0.020500	0.195200
C341	C34	0.065500	0.987100	0.255300
H451	H45	0.049900	0.947300	0.251100
H461	H46	0.107800	0.985200	0.263300
H471	H47	0.046000	0.007000	0.290000
C351	C35	0.050500	0.141800	0.077300
H481	H48	0.034500	0.134500	0.035700
H491	H49	0.027100	0.171900	0.098200
H501	H50	0.091200	0.155200	0.073600
C361	C36	0.082700	0.154800	0.269600
C371	C37	0.101400	0.124300	0.216900
C381	C38	0.894800	0.090100	0.046200
C391	C39	0.874800	0.050600	0.098900
H511	H51	0.895600	0.013100	0.095800
H521	H52	0.832400	0.043700	0.096100
H531	H53	0.884000	0.069300	0.138700
C401	C40	0.904300	0.225100	0.944700
H541	H54	0.932200	0.223200	0.910000
H551	H55	0.914800	0.257700	0.972200
H561	H56	0.864600	0.231200	0.928400
N171	N17	0.283780	0.223430	0.343500
N181	N18	0.245300	0.219300	0.393400
H571	H57	0.211200	0.234600	0.388300
N191	N19	0.435190	0.073420	0.497800
N201	N20	0.440300	0.121300	0.537200
H581	H58	0.366400	0.285700	0.185800
C411	C41	0.335600	0.200600	0.365400
C421	C42	0.329300	0.181200	0.428400
C431	C43	0.270500	0.194500	0.445200
C441	C44	0.237100	0.184500	0.505300
H591	H59	0.197300	0.200100	0.501100
H601	H60	0.235200	0.142200	0.513300
H611	H61	0.257000	0.204000	0.540000
C451	C45	0.391800	0.199500	0.327300
H621	H62	0.384500	0.215500	0.285700
H631	H63	0.421900	0.222900	0.348200
H641	H64	0.405200	0.158800	0.323600
C461	C46	0.404800	0.167300	0.519600
C471	C47	0.374300	0.148600	0.466900
C481	C48	0.340100	0.355200	0.296200
C491	C49	0.300600	0.375200	0.348900
H651	H65	0.263100	0.354400	0.345800
H661	H66	0.293700	0.417600	0.346100
H671	H67	0.319300	0.366000	0.388700
C501	C50	0.475100	0.345700	0.194700
H681	H68	0.473200	0.317800	0.160000
H691	H69	0.507700	0.335200	0.222200
H701	H70	0.481200	0.385400	0.178400
N211	N21	0.783780	0.723430	0.843500
N221	N22	0.745300	0.719300	0.893400
H711	H71	0.711200	0.734600	0.888300
N231	N23	0.935190	0.573420	0.997800
N241	N24	0.940300	0.621300	0.037200
H721	H72	0.866400	0.785700	0.685800
C511	C51	0.835600	0.700600	0.865400
C521	C52	0.829300	0.681200	0.928400
C531	C53	0.770500	0.694500	0.945200
C541	C54	0.737100	0.684500	0.005300
H731	H73	0.697300	0.700100	0.001100
H741	H74	0.735200	0.642200	0.013300
H751	H75	0.757000	0.704000	0.040000
C551	C55	0.891800	0.699500	0.827300
H761	H76	0.884500	0.715500	0.785700
H771	H77	0.921900	0.722900	0.848200
H781	H78	0.905200	0.658800	0.823600
C561	C56	0.904800	0.667300	0.019600
C571	C57	0.874300	0.648600	0.966900
C581	C58	0.840100	0.855200	0.796200
C591	C59	0.800600	0.875200	0.848900
H791	H79	0.763100	0.854400	0.845800
H801	H80	0.793700	0.917600	0.846100
H811	H81	0.819300	0.866000	0.888700
C601	C60	0.975100	0.845700	0.694700
H821	H82	0.973200	0.817800	0.660000
H831	H83	0.007700	0.835200	0.722200
H841	H84	0.981200	0.885400	0.678400
N251	N25	0.216220	0.776570	0.843500
N261	N26	0.254700	0.780700	0.893400
H851	H85	0.288800	0.765400	0.888300
N271	N27	0.064810	0.926580	0.997800
N281	N28	0.059700	0.878700	0.037200
H861	H86	0.133600	0.714300	0.685800
C611	C61	0.164400	0.799400	0.865400
C621	C62	0.170700	0.818800	0.928400
C631	C63	0.229500	0.805500	0.945200
C641	C64	0.262900	0.815500	0.005300
H871	H87	0.302700	0.799900	0.001100
H881	H88	0.264800	0.857800	0.013300
H891	H89	0.243000	0.796000	0.040000
C651	C65	0.108200	0.800500	0.827300
H901	H90	0.115500	0.784500	0.785700
H911	H91	0.078100	0.777100	0.848200
H921	H92	0.094800	0.841200	0.823600
C661	C66	0.095200	0.832700	0.019600
C671	C67	0.125700	0.851400	0.966900
C681	C68	0.159900	0.644800	0.796200
C691	C69	0.199400	0.624800	0.848900
H931	H93	0.236900	0.645600	0.845800
H941	H94	0.206300	0.582400	0.846100
H951	H95	0.180700	0.634000	0.888700
C701	C70	0.024900	0.654300	0.694700
H961	H96	0.026800	0.682200	0.660000
H971	H97	0.992300	0.664800	0.722200
H981	H98	0.018800	0.614600	0.678400
N291	N29	0.716220	0.276570	0.343500
N301	N30	0.754700	0.280700	0.393400
H991	H99	0.788800	0.265400	0.388300
N311	N31	0.564810	0.426580	0.497800
N321	N32	0.559700	0.378700	0.537200
H1001	H100	0.633600	0.214300	0.185800
C711	C71	0.664400	0.299400	0.365400
C721	C72	0.670700	0.318800	0.428400
C731	C73	0.729500	0.305500	0.445200
C741	C74	0.762900	0.315500	0.505300
H1011	H101	0.802700	0.299900	0.501100
H1021	H102	0.764800	0.357800	0.513300
H1031	H103	0.743000	0.296000	0.540000
C751	C75	0.608200	0.300500	0.327300
H1041	H104	0.615500	0.284500	0.285700
H1051	H105	0.578100	0.277100	0.348200
H1061	H106	0.594800	0.341200	0.323600
C761	C76	0.595200	0.332700	0.519600
C771	C77	0.625700	0.351400	0.466900
C781	C78	0.659900	0.144800	0.296200
C791	C79	0.699400	0.124800	0.348900
H1071	H107	0.736900	0.145600	0.345800
H1081	H108	0.706300	0.082400	0.346100
H1091	H109	0.680700	0.134000	0.388700
C801	C80	0.524900	0.154300	0.194700
H1101	H110	0.526800	0.182200	0.160000
H1111	H111	0.492300	0.164800	0.222200
H1121	H112	0.518800	0.114600	0.178400
N331	N33	0.026570	0.533780	0.906500
N341	N34	0.030700	0.495300	0.856600
H1131	H113	0.015400	0.461200	0.861700
N351	N35	0.176580	0.685190	0.752200
N361	N36	0.128700	0.690300	0.712800
H1141	H114	0.964300	0.616400	0.064200
C811	C81	0.049400	0.585600	0.884600
C821	C82	0.068800	0.579300	0.821600
C831	C83	0.055500	0.520500	0.804800
C841	C84	0.065500	0.487100	0.744700
H1151	H115	0.049900	0.447300	0.748900
H1161	H116	0.107800	0.485200	0.736700
H1171	H117	0.046000	0.507000	0.710000
C851	C85	0.050500	0.641800	0.922700
H1181	H118	0.034500	0.634500	0.964300
H1191	H119	0.027100	0.671900	0.901800
H1201	H120	0.091200	0.655200	0.926400
C861	C86	0.082700	0.654800	0.730400
C871	C87	0.101400	0.624300	0.783100
C881	C88	0.894800	0.590100	0.953800
C891	C89	0.874800	0.550600	0.901100
H1211	H121	0.895600	0.513100	0.904200
H1221	H122	0.832400	0.543700	0.903900
H1231	H123	0.884000	0.569300	0.861300
C901	C90	0.904300	0.725100	0.055300
H1241	H124	0.932200	0.723200	0.090000
H1251	H125	0.914800	0.757700	0.027800
H1261	H126	0.864600	0.731200	0.071600
N371	N37	0.526570	0.033780	0.406500
N381	N38	0.530700	0.995300	0.356600
H1271	H127	0.515400	0.961200	0.361700
N391	N39	0.676580	0.185190	0.252200
N401	N40	0.628700	0.190300	0.212800
H1281	H128	0.464300	0.116400	0.564200
C911	C91	0.549400	0.085600	0.384600
C921	C92	0.568800	0.079300	0.321600
C931	C93	0.555500	0.020500	0.304800
C941	C94	0.565500	0.987100	0.244700
H1291	H129	0.549900	0.947300	0.248900
H1301	H130	0.607800	0.985200	0.236700
H1311	H131	0.546000	0.007000	0.210000
C951	C95	0.550500	0.141800	0.422700
H1321	H132	0.534500	0.134500	0.464300
H1331	H133	0.527100	0.171900	0.401800
H1341	H134	0.591200	0.155200	0.426400
C961	C96	0.582700	0.154800	0.230400
C971	C97	0.601400	0.124300	0.283100
C981	C98	0.394800	0.090100	0.453800
C991	C99	0.374800	0.050600	0.401100
H1351	H135	0.395600	0.013100	0.404200
H1361	H136	0.332400	0.043700	0.403900
H1371	H137	0.384000	0.069300	0.361300
C1001	C100	0.404300	0.225100	0.555300
H1381	H138	0.432200	0.223200	0.590000
H1391	H139	0.414800	0.257700	0.527800
H1401	H140	0.364600	0.231200	0.571600
N411	N41	0.473430	0.466220	0.406500
N421	N42	0.469300	0.504700	0.356600
H1411	H141	0.484600	0.538800	0.361700
N431	N43	0.323420	0.314810	0.252200
N441	N44	0.371300	0.309700	0.212800
H1421	H142	0.535700	0.383600	0.564200
C1011	C101	0.450600	0.414400	0.384600
C1021	C102	0.431200	0.420700	0.321600
C1031	C103	0.444500	0.479500	0.304800
C1041	C104	0.434500	0.512900	0.244700
H1431	H143	0.450100	0.552700	0.248900
H1441	H144	0.392200	0.514800	0.236700
H1451	H145	0.454000	0.493000	0.210000
C1051	C105	0.449500	0.358200	0.422700
H1461	H146	0.465500	0.365500	0.464300
H1471	H147	0.472900	0.328100	0.401800
H1481	H148	0.408800	0.344800	0.426400
C1061	C106	0.417300	0.345200	0.230400
C1071	C107	0.398600	0.375700	0.283100
C1081	C108	0.605200	0.409900	0.453800
C1091	C109	0.625200	0.449400	0.401100
H1491	H149	0.604400	0.486900	0.404200
H1501	H150	0.667600	0.456300	0.403900
H1511	H151	0.616000	0.430700	0.361300
C1101	C110	0.595700	0.274900	0.555300
H1521	H152	0.567800	0.276800	0.590000
H1531	H153	0.585200	0.242300	0.527800
H1541	H154	0.635400	0.268800	0.571600
N451	N45	0.973430	0.966220	0.906500
N461	N46	0.969300	0.004700	0.856600
H1551	H155	0.984600	0.038800	0.861700
N471	N47	0.823420	0.814810	0.752200
N481	N48	0.871300	0.809700	0.712800
H1561	H156	0.035700	0.883600	0.064200
C1111	C111	0.950600	0.914400	0.884600
C1121	C112	0.931200	0.920700	0.821600
C1131	C113	0.944500	0.979500	0.804800
C1141	C114	0.934500	0.012900	0.744700
H1571	H157	0.950100	0.052700	0.748900
H1581	H158	0.892200	0.014800	0.736700
H1591	H159	0.954000	0.993000	0.710000
C1151	C115	0.949500	0.858200	0.922700
H1601	H160	0.965500	0.865500	0.964300
H1611	H161	0.972900	0.828100	0.901800
H1621	H162	0.908800	0.844800	0.926400
C1161	C116	0.917300	0.845200	0.730400
C1171	C117	0.898600	0.875700	0.783100
C1181	C118	0.105200	0.909900	0.953800
C1191	C119	0.125200	0.949400	0.901100
H1631	H163	0.104400	0.986900	0.904200
H1641	H164	0.167600	0.956300	0.903900
H1651	H165	0.116000	0.930700	0.861300
C1201	C120	0.095700	0.774900	0.055300
H1661	H166	0.067800	0.776800	0.090000
H1671	H167	0.085200	0.742300	0.027800
H1681	H168	0.135400	0.768800	0.071600
N491	N49	0.716220	0.776570	0.656500
N501	N50	0.754700	0.780700	0.606600
H1691	H169	0.788800	0.765400	0.611700
N511	N51	0.564810	0.926580	0.502200
N521	N52	0.559700	0.878700	0.462800
H1701	H170	0.633600	0.714300	0.814200
C1211	C121	0.664400	0.799400	0.634600
C1221	C122	0.670700	0.818800	0.571600
C1231	C123	0.729500	0.805500	0.554800
C1241	C124	0.762900	0.815500	0.494700
H1711	H171	0.802700	0.799900	0.498900
H1721	H172	0.764800	0.857800	0.486700
H1731	H173	0.743000	0.796000	0.460000
C1251	C125	0.608200	0.800500	0.672700
H1741	H174	0.615500	0.784500	0.714300
H1751	H175	0.578100	0.777100	0.651800
H1761	H176	0.594800	0.841200	0.676400
C1261	C126	0.595200	0.832700	0.480400
C1271	C127	0.625700	0.851400	0.533100
C1281	C128	0.659900	0.644800	0.703800
C1291	C129	0.699400	0.624800	0.651100
H1771	H177	0.736900	0.645600	0.654200
H1781	H178	0.706300	0.582400	0.653900
H1791	H179	0.680700	0.634000	0.611300
C1301	C130	0.524900	0.654300	0.805300
H1801	H180	0.526800	0.682200	0.840000
H1811	H181	0.492300	0.664800	0.777800
H1821	H182	0.518800	0.614600	0.821600
N531	N53	0.216220	0.276570	0.156500
N541	N54	0.254700	0.280700	0.106600
H1831	H183	0.288800	0.265400	0.111700
N551	N55	0.064810	0.426580	0.002200
N561	N56	0.059700	0.378700	0.962800
H1841	H184	0.133600	0.214300	0.314200
C1311	C131	0.164400	0.299400	0.134600
C1321	C132	0.170700	0.318800	0.071600
C1331	C133	0.229500	0.305500	0.054800
C1341	C134	0.262900	0.315500	0.994700
H1851	H185	0.302700	0.299900	0.998900
H1861	H186	0.264800	0.357800	0.986700
H1871	H187	0.243000	0.296000	0.960000
C1351	C135	0.108200	0.300500	0.172700
H1881	H188	0.115500	0.284500	0.214300
H1891	H189	0.078100	0.277100	0.151800
H1901	H190	0.094800	0.341200	0.176400
C1361	C136	0.095200	0.332700	0.980400
C1371	C137	0.125700	0.351400	0.033100
C1381	C138	0.159900	0.144800	0.203800
C1391	C139	0.199400	0.124800	0.151100
H1911	H191	0.236900	0.145600	0.154200
H1921	H192	0.206300	0.082400	0.153900
H1931	H193	0.180700	0.134000	0.111300
C1401	C140	0.024900	0.154300	0.305300
H1941	H194	0.026800	0.182200	0.340000
H1951	H195	0.992300	0.164800	0.277800
H1961	H196	0.018800	0.114600	0.321600
N571	N57	0.783780	0.223430	0.156500
N581	N58	0.745300	0.219300	0.106600
H1971	H197	0.711200	0.234600	0.111700
N591	N59	0.935190	0.073420	0.002200
N601	N60	0.940300	0.121300	0.962800
H1981	H198	0.866400	0.285700	0.314200
C1411	C141	0.835600	0.200600	0.134600
C1421	C142	0.829300	0.181200	0.071600
C1431	C143	0.770500	0.194500	0.054800
C1441	C144	0.737100	0.184500	0.994700
H1991	H199	0.697300	0.200100	0.998900
H2001	H200	0.735200	0.142200	0.986700
H2011	H201	0.757000	0.204000	0.960000
C1451	C145	0.891800	0.199500	0.172700
H2021	H202	0.884500	0.215500	0.214300
H2031	H203	0.921900	0.222900	0.151800
H2041	H204	0.905200	0.158800	0.176400
C1461	C146	0.904800	0.167300	0.980400
C1471	C147	0.874300	0.148600	0.033100
C1481	C148	0.840100	0.355200	0.203800
C1491	C149	0.800600	0.375200	0.151100
H2051	H205	0.763100	0.354400	0.154200
H2061	H206	0.793700	0.417600	0.153900
H2071	H207	0.819300	0.366000	0.111300
C1501	C150	0.975100	0.345700	0.305300
H2081	H208	0.973200	0.317800	0.340000
H2091	H209	0.007700	0.335200	0.277800
H2101	H210	0.981200	0.385400	0.321600
N611	N61	0.283780	0.723430	0.656500
N621	N62	0.245300	0.719300	0.606600
H2111	H211	0.211200	0.734600	0.611700
N631	N63	0.435190	0.573420	0.502200
N641	N64	0.440300	0.621300	0.462800
H2121	H212	0.366400	0.785700	0.814200
C1511	C151	0.335600	0.700600	0.634600
C1521	C152	0.329300	0.681200	0.571600
C1531	C153	0.270500	0.694500	0.554800
C1541	C154	0.237100	0.684500	0.494700
H2131	H213	0.197300	0.700100	0.498900
H2141	H214	0.235200	0.642200	0.486700
H2151	H215	0.257000	0.704000	0.460000
C1551	C155	0.391800	0.699500	0.672700
H2161	H216	0.384500	0.715500	0.714300
H2171	H217	0.421900	0.722900	0.651800
H2181	H218	0.405200	0.658800	0.676400
C1561	C156	0.404800	0.667300	0.480400
C1571	C157	0.374300	0.648600	0.533100
C1581	C158	0.340100	0.855200	0.703800
C1591	C159	0.300600	0.875200	0.651100
H2191	H219	0.263100	0.854400	0.654200
H2201	H220	0.293700	0.917600	0.653900
H2211	H221	0.319300	0.866000	0.611300
C1601	C160	0.475100	0.845700	0.805300
H2221	H222	0.473200	0.817800	0.840000
H2231	H223	0.507700	0.835200	0.777800
H2241	H224	0.481200	0.885400	0.821600
Co11	Co1	0.000000	0.500000	0.000000
Co21	Co2	0.500000	0.000000	0.500000
Co31	Co3	0.500000	0.500000	0.500000
Co41	Co4	0.000000	0.000000	0.000000
Co51	Co5	0.250000	0.250000	0.250000
Co61	Co6	0.750000	0.750000	0.750000
Co71	Co7	0.250000	0.750000	0.750000
Co81	Co8	0.750000	0.250000	0.250000
