data_XENKIM_clean_PM
_symmetry_space_group_name_H-M	'P1'
_cell_length_a	13.548800
_cell_length_b	21.114000
_cell_length_c	21.114000
_cell_angle_alpha	84.091200
_cell_angle_beta	71.285700
_cell_angle_gamma	71.285600
_symmetry_Int_Tables_number 1

loop_
_symmetry_equiv_pos_as_xyz
'x,y,z'

loop_
_atom_site_label
_atom_site_type_symbol
_atom_site_fract_x
_atom_site_fract_y
_atom_site_fract_z
Ca11	Ca1	0.372060	0.814670	0.195130
Ca21	Ca2	0.881860	0.685330	0.304870
Ca31	Ca3	0.567190	0.804870	0.314670
Ca41	Ca4	0.186730	0.695130	0.185330
H11	H1	0.784100	0.754300	0.183900
H21	H2	0.020700	0.741200	0.005800
H31	H3	0.709900	0.769300	0.009700
H41	H4	0.876500	0.912500	0.805500
H51	H5	0.042000	0.590600	0.811000
H61	H6	0.222300	0.745700	0.316100
H71	H7	0.267700	0.758800	0.494200
H81	H8	0.988900	0.730700	0.490300
H91	H9	0.094500	0.587500	0.694500
H101	H10	0.943600	0.909400	0.689000
H111	H11	0.968000	0.816100	0.254300
H121	H12	0.026500	0.994200	0.241200
H131	H13	0.719600	0.990300	0.269300
H141	H14	0.682000	0.194500	0.412500
H151	H15	0.853000	0.189000	0.090600
H161	H16	0.538400	0.683900	0.245700
H171	H17	0.761900	0.505800	0.258800
H181	H18	0.479200	0.509700	0.230700
H191	H19	0.789000	0.305500	0.087500
H201	H20	0.632600	0.311000	0.409400
C11	C1	0.609700	0.779540	0.140060
C21	C2	0.000970	0.732350	0.135310
C31	C3	0.727890	0.765370	0.102450
C41	C4	0.806310	0.754580	0.136400
C51	C5	0.916250	0.744470	0.100430
C61	C6	0.946890	0.745580	0.031040
C71	C7	0.869600	0.753060	0.998740
C81	C8	0.761550	0.763420	0.033080
C91	C9	0.949600	0.689800	0.894600
C101	C10	0.888000	0.814000	0.892800
C111	C11	0.911900	0.870800	0.783000
C121	C12	0.926060	0.811670	0.818810
C131	C13	0.032200	0.631400	0.786800
C141	C14	0.985700	0.690100	0.821700
C151	C15	0.974600	0.749800	0.786000
C161	C16	0.029300	0.720460	0.359940
C171	C17	0.368630	0.767650	0.364690
C181	C18	0.095710	0.734630	0.397550
C191	C19	0.197290	0.745420	0.363600
C201	C20	0.261150	0.755530	0.399570
C211	C21	0.223510	0.754420	0.468960
C221	C22	0.121400	0.746940	0.501260
C231	C23	0.058050	0.736580	0.466920
C241	C24	0.034000	0.810200	0.605400
C251	C25	0.094800	0.686000	0.607200
C261	C26	0.065700	0.629200	0.717000
C271	C27	0.056540	0.688330	0.681190
C281	C28	0.950400	0.868600	0.713200
C291	C29	0.997500	0.809900	0.678300
C301	C30	0.010400	0.750200	0.714000
C311	C31	0.749760	0.859940	0.279540
C321	C32	0.136280	0.864690	0.232350
C331	C33	0.830340	0.897550	0.265370
C341	C34	0.942710	0.863600	0.254580
C351	C35	0.016680	0.899570	0.244470
C361	C36	0.977930	0.968960	0.245580
C371	C37	0.868340	0.001260	0.253060
C381	C38	0.794630	0.966920	0.263420
C391	C39	0.844200	0.105400	0.189800
C401	C40	0.780800	0.107200	0.314000
C411	C41	0.694900	0.217000	0.370800
C421	C42	0.744870	0.181190	0.311670
C431	C43	0.819000	0.213200	0.131400
C441	C44	0.807400	0.178300	0.190100
C451	C45	0.760600	0.214000	0.249800
C461	C46	0.389240	0.640060	0.220460
C471	C47	0.733320	0.635310	0.267650
C481	C48	0.493260	0.602450	0.234630
C491	C49	0.560890	0.636400	0.245420
C501	C50	0.660720	0.600430	0.255530
C511	C51	0.692470	0.531040	0.254420
C521	C52	0.622660	0.498740	0.246940
C531	C53	0.524970	0.533080	0.236580
C541	C54	0.639400	0.394600	0.310200
C551	C55	0.702000	0.392800	0.186000
C561	C56	0.782700	0.283000	0.129200
C571	C57	0.737730	0.318810	0.188330
C581	C58	0.663600	0.286800	0.368600
C591	C59	0.675800	0.321700	0.309900
C601	C60	0.724400	0.286000	0.250200
N11	N1	0.906640	0.751270	0.925450
N21	N2	0.083360	0.748730	0.574550
N31	N3	0.832090	0.074550	0.251270
N41	N4	0.657910	0.425450	0.248730
O11	O1	0.578540	0.794150	0.200970
O21	O2	0.545700	0.778210	0.109990
O31	O3	0.978410	0.711270	0.194910
O41	O4	0.089480	0.741040	0.104200
O51	O5	0.956690	0.639270	0.927350
O61	O6	0.846040	0.864900	0.924020
O71	O7	0.073660	0.705850	0.299030
O81	O8	0.933900	0.721790	0.390010
O91	O9	0.384590	0.788730	0.305090
O101	O10	0.434720	0.758960	0.395800
O111	O11	0.023310	0.860730	0.572650
O121	O12	0.134960	0.635100	0.575980
O131	O13	0.779510	0.799030	0.294150
O141	O14	0.655690	0.890010	0.278210
O151	O15	0.173320	0.805090	0.211270
O161	O16	0.193680	0.895800	0.241040
O171	O17	0.884040	0.072650	0.139270
O181	O18	0.770060	0.075980	0.364900
O191	O19	0.372690	0.700970	0.205850
O201	O20	0.323910	0.609990	0.221790
O211	O21	0.689680	0.694910	0.288730
O221	O22	0.830520	0.604200	0.258960
O231	O23	0.595960	0.427350	0.360730
O241	O24	0.710940	0.424020	0.135100
Ca51	Ca5	0.627940	0.185330	0.804870
Ca61	Ca6	0.118140	0.314670	0.695130
Ca71	Ca7	0.432810	0.195130	0.685330
Ca81	Ca8	0.813270	0.304870	0.814670
H211	H21	0.215900	0.245700	0.816100
H221	H22	0.979300	0.258800	0.994200
H231	H23	0.290100	0.230700	0.990300
H241	H24	0.123500	0.087500	0.194500
H251	H25	0.958000	0.409400	0.189000
H261	H26	0.777700	0.254300	0.683900
H271	H27	0.732300	0.241200	0.505800
H281	H28	0.011100	0.269300	0.509700
H291	H29	0.905500	0.412500	0.305500
H301	H30	0.056400	0.090600	0.311000
H311	H31	0.032000	0.183900	0.745700
H321	H32	0.973500	0.005800	0.758800
H331	H33	0.280400	0.009700	0.730700
H341	H34	0.318000	0.805500	0.587500
H351	H35	0.147000	0.811000	0.909400
H361	H36	0.461600	0.316100	0.754300
H371	H37	0.238100	0.494200	0.741200
H381	H38	0.520800	0.490300	0.769300
H391	H39	0.211000	0.694500	0.912500
H401	H40	0.367400	0.689000	0.590600
C611	C61	0.390300	0.220460	0.859940
C621	C62	0.999030	0.267650	0.864690
C631	C63	0.272110	0.234630	0.897550
C641	C64	0.193690	0.245420	0.863600
C651	C65	0.083750	0.255530	0.899570
C661	C66	0.053110	0.254420	0.968960
C671	C67	0.130400	0.246940	0.001260
C681	C68	0.238450	0.236580	0.966920
C691	C69	0.050400	0.310200	0.105400
C701	C70	0.112000	0.186000	0.107200
C711	C71	0.088100	0.129200	0.217000
C721	C72	0.073940	0.188330	0.181190
C731	C73	0.967800	0.368600	0.213200
C741	C74	0.014300	0.309900	0.178300
C751	C75	0.025400	0.250200	0.214000
C761	C76	0.970700	0.279540	0.640060
C771	C77	0.631370	0.232350	0.635310
C781	C78	0.904290	0.265370	0.602450
C791	C79	0.802710	0.254580	0.636400
C801	C80	0.738850	0.244470	0.600430
C811	C81	0.776490	0.245580	0.531040
C821	C82	0.878600	0.253060	0.498740
C831	C83	0.941950	0.263420	0.533080
C841	C84	0.966000	0.189800	0.394600
C851	C85	0.905200	0.314000	0.392800
C861	C86	0.934300	0.370800	0.283000
C871	C87	0.943460	0.311670	0.318810
C881	C88	0.049600	0.131400	0.286800
C891	C89	0.002500	0.190100	0.321700
C901	C90	0.989600	0.249800	0.286000
C911	C91	0.250240	0.140060	0.720460
C921	C92	0.863720	0.135310	0.767650
C931	C93	0.169660	0.102450	0.734630
C941	C94	0.057290	0.136400	0.745420
C951	C95	0.983320	0.100430	0.755530
C961	C96	0.022070	0.031040	0.754420
C971	C97	0.131660	0.998740	0.746940
C981	C98	0.205370	0.033080	0.736580
C991	C99	0.155800	0.894600	0.810200
C1001	C100	0.219200	0.892800	0.686000
C1011	C101	0.305100	0.783000	0.629200
C1021	C102	0.255130	0.818810	0.688330
C1031	C103	0.181000	0.786800	0.868600
C1041	C104	0.192600	0.821700	0.809900
C1051	C105	0.239400	0.786000	0.750200
C1061	C106	0.610760	0.359940	0.779540
C1071	C107	0.266680	0.364690	0.732350
C1081	C108	0.506740	0.397550	0.765370
C1091	C109	0.439110	0.363600	0.754580
C1101	C110	0.339280	0.399570	0.744470
C1111	C111	0.307530	0.468960	0.745580
C1121	C112	0.377340	0.501260	0.753060
C1131	C113	0.475030	0.466920	0.763420
C1141	C114	0.360600	0.605400	0.689800
C1151	C115	0.298000	0.607200	0.814000
C1161	C116	0.217300	0.717000	0.870800
C1171	C117	0.262270	0.681190	0.811670
C1181	C118	0.336400	0.713200	0.631400
C1191	C119	0.324200	0.678300	0.690100
C1201	C120	0.275600	0.714000	0.749800
N51	N5	0.093360	0.248730	0.074550
N61	N6	0.916640	0.251270	0.425450
N71	N7	0.167910	0.925450	0.748730
N81	N8	0.342090	0.574550	0.751270
O251	O25	0.421460	0.205850	0.799030
O261	O26	0.454300	0.221790	0.890010
O271	O27	0.021590	0.288730	0.805090
O281	O28	0.910520	0.258960	0.895800
O291	O29	0.043310	0.360730	0.072650
O301	O30	0.153960	0.135100	0.075980
O311	O31	0.926340	0.294150	0.700970
O321	O32	0.066100	0.278210	0.609990
O331	O33	0.615410	0.211270	0.694910
O341	O34	0.565280	0.241040	0.604200
O351	O35	0.976690	0.139270	0.427350
O361	O36	0.865040	0.364900	0.424020
O371	O37	0.220490	0.200970	0.705850
O381	O38	0.344310	0.109990	0.721790
O391	O39	0.826680	0.194910	0.788730
O401	O40	0.806320	0.104200	0.758960
O411	O41	0.115960	0.927350	0.860730
O421	O42	0.229940	0.924020	0.635100
O431	O43	0.627310	0.299030	0.794150
O441	O44	0.676090	0.390010	0.778210
O451	O45	0.310320	0.305090	0.711270
O461	O46	0.169480	0.395800	0.741040
O471	O47	0.404040	0.572650	0.639270
O481	O48	0.289060	0.575980	0.864900
