data_XEQLEM_clean_PM
_symmetry_space_group_name_H-M	'P1'
_cell_length_a	9.883600
_cell_length_b	10.981700
_cell_length_c	12.868100
_cell_angle_alpha	90.000000
_cell_angle_beta	90.000000
_cell_angle_gamma	99.384000
_symmetry_Int_Tables_number 1

loop_
_symmetry_equiv_pos_as_xyz
'x,y,z'

loop_
_atom_site_label
_atom_site_type_symbol
_atom_site_fract_x
_atom_site_fract_y
_atom_site_fract_z
Mg11	Mg1	0.627900	0.749700	0.765100
Mg21	Mg2	0.125000	0.752600	0.764300
Mg31	Mg3	0.372100	0.250300	0.265100
Mg41	Mg4	0.875000	0.247400	0.264300
H11	H1	0.099500	0.011500	0.538800
H21	H2	0.086500	0.138600	0.399900
H31	H3	0.693400	0.997100	0.582100
H41	H4	0.694800	0.123600	0.441800
H51	H5	0.050400	0.496100	0.933700
H61	H6	0.053400	0.363500	0.072200
H71	H7	0.653600	0.498200	0.992600
H81	H8	0.666700	0.365200	0.128100
H91	H9	0.383900	0.373600	0.875700
H101	H10	0.376600	0.246600	0.018100
H111	H11	0.333100	0.648800	0.064800
H121	H12	0.350500	0.524400	0.201300
H131	H13	0.392900	0.847600	0.461100
H141	H14	0.381500	0.980500	0.322600
H151	H15	0.398200	0.135100	0.650600
H161	H16	0.384500	0.257900	0.507300
H171	H17	0.900500	0.988500	0.038800
H181	H18	0.913500	0.861400	0.899900
H191	H19	0.306600	0.002900	0.082100
H201	H20	0.305200	0.876400	0.941800
H211	H21	0.949600	0.503900	0.433700
H221	H22	0.946600	0.636500	0.572200
H231	H23	0.346400	0.501800	0.492600
H241	H24	0.333300	0.634800	0.628100
H251	H25	0.616100	0.626400	0.375700
H261	H26	0.623400	0.753400	0.518100
H271	H27	0.666900	0.351200	0.564800
H281	H28	0.649500	0.475600	0.701300
H291	H29	0.607100	0.152400	0.961100
H301	H30	0.618500	0.019500	0.822600
H311	H31	0.601800	0.864900	0.150600
H321	H32	0.615500	0.742100	0.007300
C11	C1	0.903500	0.899000	0.666100
C21	C2	0.895700	0.984100	0.576400
C31	C3	0.015300	0.031800	0.519600
C41	C4	0.006900	0.107900	0.436200
C51	C5	0.774500	0.022600	0.545900
C61	C6	0.776700	0.098800	0.461300
C71	C7	0.847100	0.602900	0.859000
C81	C8	0.849100	0.512100	0.947900
C91	C9	0.971400	0.471400	0.972600
C101	C10	0.972200	0.392500	0.057400
C111	C11	0.736500	0.472400	0.007500
C121	C12	0.745800	0.393500	0.090300
C131	C13	0.348200	0.607000	0.859300
C141	C14	0.350500	0.522100	0.952300
C151	C15	0.370400	0.404700	0.941400
C161	C16	0.370800	0.329400	0.028600
C171	C17	0.343600	0.567200	0.053700
C181	C18	0.352200	0.491900	0.134600
C191	C19	0.403600	0.893500	0.665500
C201	C20	0.392300	0.975900	0.574300
C211	C21	0.390400	0.930600	0.473300
C221	C22	0.384600	0.012000	0.389800
C231	C23	0.393200	0.099900	0.584700
C241	C24	0.386700	0.174300	0.497700
C251	C25	0.096500	0.101000	0.166100
C261	C26	0.104300	0.015900	0.076400
C271	C27	0.984700	0.968200	0.019600
C281	C28	0.993100	0.892100	0.936200
C291	C29	0.225500	0.977400	0.045900
C301	C30	0.223300	0.901200	0.961300
C311	C31	0.152900	0.397100	0.359000
C321	C32	0.150900	0.487900	0.447900
C331	C33	0.028600	0.528600	0.472600
C341	C34	0.027800	0.607500	0.557400
C351	C35	0.263500	0.527600	0.507500
C361	C36	0.254200	0.606500	0.590300
C371	C37	0.651800	0.393000	0.359300
C381	C38	0.649500	0.477900	0.452300
C391	C39	0.629600	0.595300	0.441400
C401	C40	0.629200	0.670600	0.528600
C411	C41	0.656400	0.432800	0.553700
C421	C42	0.647800	0.508100	0.634600
C431	C43	0.596400	0.106500	0.165500
C441	C44	0.607700	0.024100	0.074300
C451	C45	0.609600	0.069400	0.973300
C461	C46	0.615400	0.988000	0.889800
C471	C47	0.606800	0.900100	0.084700
C481	C48	0.613300	0.825700	0.997700
N11	N1	0.888100	0.139800	0.405100
N21	N2	0.863600	0.355500	0.119100
N31	N3	0.363600	0.367800	0.124200
N41	N4	0.383500	0.130500	0.402400
N51	N5	0.111900	0.860200	0.905100
N61	N6	0.136400	0.644500	0.619100
N71	N7	0.636400	0.632200	0.624200
N81	N8	0.616500	0.869500	0.902400
O11	O1	0.796000	0.866300	0.719500
O21	O2	0.017600	0.864700	0.683200
O31	O3	0.735400	0.642400	0.850900
O41	O4	0.949700	0.628700	0.806400
O51	O5	0.452900	0.630000	0.807300
O61	O6	0.236200	0.641000	0.845800
O71	O7	0.515000	0.854000	0.675400
O81	O8	0.302600	0.871200	0.727500
O91	O9	0.204000	0.133700	0.219500
O101	O10	0.982400	0.135300	0.183200
O111	O11	0.264600	0.357600	0.350900
O121	O12	0.050300	0.371300	0.306400
O131	O13	0.547100	0.370000	0.307300
O141	O14	0.763800	0.359000	0.345800
O151	O15	0.485000	0.146000	0.175400
O161	O16	0.697400	0.128800	0.227500
