data_XEQRAO_clean_PM
_symmetry_space_group_name_H-M	'P1'
_cell_length_a	7.895100
_cell_length_b	9.807000
_cell_length_c	17.367100
_cell_angle_alpha	106.400000
_cell_angle_beta	96.407000
_cell_angle_gamma	90.000000
_symmetry_Int_Tables_number 1

loop_
_symmetry_equiv_pos_as_xyz
'x,y,z'

loop_
_atom_site_label
_atom_site_type_symbol
_atom_site_fract_x
_atom_site_fract_y
_atom_site_fract_z
Cd11	Cd1	0.250000	0.529210	0.000000
Cd21	Cd2	0.750000	0.470790	0.000000
H11	H1	0.701800	0.542700	0.222000
H21	H2	0.858500	0.652100	0.344800
H31	H3	0.724200	0.031500	0.320400
H41	H4	0.563700	0.922100	0.199000
H51	H5	0.610900	0.828000	0.450800
H61	H6	0.501600	0.849000	0.568600
H71	H7	0.655100	0.970700	0.691800
H81	H8	0.082900	0.931000	0.304800
H91	H9	0.798200	0.320700	0.778000
H101	H10	0.641500	0.307300	0.655200
H111	H11	0.775800	0.711100	0.679600
H121	H12	0.936300	0.723100	0.801000
H131	H13	0.889100	0.377200	0.549200
H141	H14	0.998400	0.280400	0.431400
H151	H15	0.844900	0.278900	0.308200
H161	H16	0.417100	0.626200	0.695200
H171	H17	0.298200	0.457300	0.778000
H181	H18	0.141500	0.347900	0.655200
H191	H19	0.275800	0.968500	0.679600
H201	H20	0.436300	0.077900	0.801000
H211	H21	0.389100	0.172000	0.549200
H221	H22	0.498400	0.151000	0.431400
H231	H23	0.344900	0.029300	0.308200
H241	H24	0.917100	0.069000	0.695200
H251	H25	0.201800	0.679300	0.222000
H261	H26	0.358500	0.692700	0.344800
H271	H27	0.224200	0.288900	0.320400
H281	H28	0.063700	0.276900	0.199000
H291	H29	0.110900	0.622800	0.450800
H301	H30	0.001600	0.719600	0.568600
H311	H31	0.155100	0.721100	0.691800
H321	H32	0.582900	0.373800	0.304800
C11	C1	0.504100	0.647700	0.122400
C21	C2	0.614600	0.721250	0.198700
C31	C3	0.704600	0.641270	0.242140
C41	C4	0.799300	0.707020	0.315640
C51	C5	0.806000	0.853280	0.345760
C61	C6	0.718700	0.932800	0.301200
C71	C7	0.622800	0.867190	0.228180
C81	C8	0.906900	0.926650	0.425500
C91	C9	0.067300	0.988140	0.426480
C101	C10	0.837500	0.936970	0.497340
C111	C11	0.674200	0.877040	0.499280
C121	C12	0.608600	0.889220	0.569440
C131	C13	0.701300	0.962590	0.643780
C141	C14	0.142600	0.978720	0.354440
C151	C15	0.995900	0.525300	0.877600
C161	C16	0.885400	0.522550	0.801300
C171	C17	0.795400	0.399130	0.757860
C181	C18	0.700700	0.391380	0.684360
C191	C19	0.694000	0.507520	0.654240
C201	C20	0.781300	0.631600	0.698800
C211	C21	0.877200	0.639010	0.771820
C221	C22	0.593100	0.501150	0.574500
C231	C23	0.432700	0.561660	0.573520
C241	C24	0.662500	0.439630	0.502660
C251	C25	0.825800	0.377760	0.500720
C261	C26	0.891400	0.319780	0.430560
C271	C27	0.798700	0.318810	0.356220
C281	C28	0.357400	0.624280	0.645560
C291	C29	0.495900	0.352300	0.877600
C301	C30	0.385400	0.278750	0.801300
C311	C31	0.295400	0.358730	0.757860
C321	C32	0.200700	0.292980	0.684360
C331	C33	0.194000	0.146720	0.654240
C341	C34	0.281300	0.067200	0.698800
C351	C35	0.377200	0.132810	0.771820
C361	C36	0.093100	0.073350	0.574500
C371	C37	0.932700	0.011860	0.573520
C381	C38	0.162500	0.063030	0.502660
C391	C39	0.325800	0.122960	0.500720
C401	C40	0.391400	0.110780	0.430560
C411	C41	0.298700	0.037410	0.356220
C421	C42	0.857400	0.021280	0.645560
C431	C43	0.004100	0.474700	0.122400
C441	C44	0.114600	0.477450	0.198700
C451	C45	0.204600	0.600870	0.242140
C461	C46	0.299300	0.608620	0.315640
C471	C47	0.306000	0.492480	0.345760
C481	C48	0.218700	0.368400	0.301200
C491	C49	0.122800	0.360990	0.228180
C501	C50	0.406900	0.498850	0.425500
C511	C51	0.567300	0.438340	0.426480
C521	C52	0.337500	0.560370	0.497340
C531	C53	0.174200	0.622240	0.499280
C541	C54	0.108600	0.680220	0.569440
C551	C55	0.201300	0.681190	0.643780
C561	C56	0.642600	0.375720	0.354440
O11	O1	0.388000	0.716070	0.095340
O21	O2	0.526300	0.519060	0.087920
O31	O3	0.112000	0.620730	0.904660
O41	O4	0.973700	0.431140	0.912080
O51	O5	0.612000	0.283930	0.904660
O61	O6	0.473700	0.480940	0.912080
O71	O7	0.888000	0.379270	0.095340
O81	O8	0.026300	0.568860	0.087920
