data_XESLAK_clean_PM
_symmetry_space_group_name_H-M	'P1'
_cell_length_a	28.094200
_cell_length_b	28.094200
_cell_length_c	6.284600
_cell_angle_alpha	90.000000
_cell_angle_beta	90.000000
_cell_angle_gamma	120.000000
_symmetry_Int_Tables_number 1

loop_
_symmetry_equiv_pos_as_xyz
'x,y,z'

loop_
_atom_site_label
_atom_site_type_symbol
_atom_site_fract_x
_atom_site_fract_y
_atom_site_fract_z
Co11	Co1	0.306800	0.032480	0.716800
P11	P1	0.422400	0.031000	0.570500
O11	O1	0.474700	0.082500	0.522000
O21	O2	0.389600	0.044500	0.718500
O31	O3	0.385000	0.002900	0.384200
N11	N1	0.447790	0.994400	0.955700
C11	C1	0.439400	0.984700	0.717300
C21	C2	0.497500	0.050800	0.001000
C31	C3	0.451500	0.949700	0.080000
Co21	Co2	0.973470	0.365810	0.050130
P21	P2	0.089070	0.364330	0.903830
O41	O4	0.141370	0.415830	0.855330
O51	O5	0.056270	0.377830	0.051830
O61	O6	0.051670	0.336230	0.717530
N21	N2	0.114460	0.327730	0.289030
C41	C4	0.106070	0.318030	0.050630
C51	C5	0.164170	0.384130	0.334330
C61	C6	0.118170	0.283030	0.413330
Co31	Co3	0.640130	0.699150	0.383470
P31	P3	0.755730	0.697670	0.237170
O71	O7	0.808030	0.749170	0.188670
O81	O8	0.722930	0.711170	0.385170
O91	O9	0.718330	0.669570	0.050870
N31	N3	0.781120	0.661070	0.622370
C71	C7	0.772730	0.651370	0.383970
C81	C8	0.830830	0.717470	0.667670
C91	C9	0.784830	0.616370	0.746670
Co41	Co4	0.967520	0.274320	0.716800
P41	P4	0.969000	0.391400	0.570500
O101	O10	0.917500	0.392200	0.522000
O111	O11	0.955500	0.345100	0.718500
O121	O12	0.997100	0.382100	0.384200
N41	N4	0.005600	0.453390	0.955700
C101	C10	0.015300	0.454700	0.717300
C111	C11	0.949200	0.446700	0.001000
C121	C12	0.050300	0.501800	0.080000
Co51	Co5	0.634190	0.607650	0.050130
P51	P5	0.635670	0.724730	0.903830
O131	O13	0.584170	0.725530	0.855330
O141	O14	0.622170	0.678430	0.051830
O151	O15	0.663770	0.715430	0.717530
N51	N5	0.672270	0.786720	0.289030
C131	C13	0.681970	0.788030	0.050630
C141	C14	0.615870	0.780030	0.334330
C151	C15	0.716970	0.835130	0.413330
Co61	Co6	0.300850	0.940990	0.383470
P61	P6	0.302330	0.058070	0.237170
O161	O16	0.250830	0.058870	0.188670
O171	O17	0.288830	0.011770	0.385170
O181	O18	0.330430	0.048770	0.050870
N61	N6	0.338930	0.120060	0.622370
C161	C16	0.348630	0.121370	0.383970
C171	C17	0.282530	0.113370	0.667670
C181	C18	0.383630	0.168470	0.746670
Co71	Co7	0.725680	0.693200	0.716800
P71	P7	0.608600	0.577600	0.570500
O191	O19	0.607800	0.525300	0.522000
O201	O20	0.654900	0.610400	0.718500
O211	O21	0.617900	0.615000	0.384200
N71	N7	0.546610	0.552210	0.955700
C191	C19	0.545300	0.560600	0.717300
C201	C20	0.553300	0.502500	0.001000
C211	C21	0.498200	0.548500	0.080000
Co81	Co8	0.392350	0.026530	0.050130
P81	P8	0.275270	0.910930	0.903830
O221	O22	0.274470	0.858630	0.855330
O231	O23	0.321570	0.943730	0.051830
O241	O24	0.284570	0.948330	0.717530
N81	N8	0.213280	0.885540	0.289030
C221	C22	0.211970	0.893930	0.050630
C231	C23	0.219970	0.835830	0.334330
C241	C24	0.164870	0.881830	0.413330
Co91	Co9	0.059010	0.359870	0.383470
P91	P9	0.941930	0.244270	0.237170
O251	O25	0.941130	0.191970	0.188670
O261	O26	0.988230	0.277070	0.385170
O271	O27	0.951230	0.281670	0.050870
N91	N9	0.879940	0.218880	0.622370
C251	C25	0.878630	0.227270	0.383970
C261	C26	0.886630	0.169170	0.667670
C271	C27	0.831530	0.215170	0.746670
Co101	Co10	0.693200	0.967520	0.283200
P101	P10	0.577600	0.969000	0.429500
O281	O28	0.525300	0.917500	0.478000
O291	O29	0.610400	0.955500	0.281500
O301	O30	0.615000	0.997100	0.615800
N101	N10	0.552210	0.005600	0.044300
C281	C28	0.560600	0.015300	0.282700
C291	C29	0.502500	0.949200	0.999000
C301	C30	0.548500	0.050300	0.920000
Co111	Co11	0.359870	0.300850	0.616530
P111	P11	0.244270	0.302330	0.762830
O311	O31	0.191970	0.250830	0.811330
O321	O32	0.277070	0.288830	0.614830
O331	O33	0.281670	0.330430	0.949130
N111	N11	0.218880	0.338930	0.377630
C311	C31	0.227270	0.348630	0.616030
C321	C32	0.169170	0.282530	0.332330
C331	C33	0.215170	0.383630	0.253330
Co121	Co12	0.026530	0.634190	0.949870
P121	P12	0.910930	0.635670	0.096170
O341	O34	0.858630	0.584170	0.144670
O351	O35	0.943730	0.622170	0.948170
O361	O36	0.948330	0.663770	0.282470
N121	N12	0.885540	0.672270	0.710970
C341	C34	0.893930	0.681970	0.949370
C351	C35	0.835830	0.615870	0.665670
C361	C36	0.881830	0.716970	0.586670
Co131	Co13	0.032480	0.725680	0.283200
P131	P13	0.031000	0.608600	0.429500
O371	O37	0.082500	0.607800	0.478000
O381	O38	0.044500	0.654900	0.281500
O391	O39	0.002900	0.617900	0.615800
N131	N13	0.994400	0.546610	0.044300
C371	C37	0.984700	0.545300	0.282700
C381	C38	0.050800	0.553300	0.999000
C391	C39	0.949700	0.498200	0.920000
Co141	Co14	0.699150	0.059010	0.616530
P141	P14	0.697670	0.941930	0.762830
O401	O40	0.749170	0.941130	0.811330
O411	O41	0.711170	0.988230	0.614830
O421	O42	0.669570	0.951230	0.949130
N141	N14	0.661070	0.879940	0.377630
C401	C40	0.651370	0.878630	0.616030
C411	C41	0.717470	0.886630	0.332330
C421	C42	0.616370	0.831530	0.253330
Co151	Co15	0.365810	0.392350	0.949870
P151	P15	0.364330	0.275270	0.096170
O431	O43	0.415830	0.274470	0.144670
O441	O44	0.377830	0.321570	0.948170
O451	O45	0.336230	0.284570	0.282470
N151	N15	0.327730	0.213280	0.710970
C431	C43	0.318030	0.211970	0.949370
C441	C44	0.384130	0.219970	0.665670
C451	C45	0.283030	0.164870	0.586670
Co161	Co16	0.274320	0.306800	0.283200
P161	P16	0.391400	0.422400	0.429500
O461	O46	0.392200	0.474700	0.478000
O471	O47	0.345100	0.389600	0.281500
O481	O48	0.382100	0.385000	0.615800
N161	N16	0.453390	0.447790	0.044300
C461	C46	0.454700	0.439400	0.282700
C471	C47	0.446700	0.497500	0.999000
C481	C48	0.501800	0.451500	0.920000
Co171	Co17	0.940990	0.640130	0.616530
P171	P17	0.058070	0.755730	0.762830
O491	O49	0.058870	0.808030	0.811330
O501	O50	0.011770	0.722930	0.614830
O511	O51	0.048770	0.718330	0.949130
N171	N17	0.120060	0.781120	0.377630
C491	C49	0.121370	0.772730	0.616030
C501	C50	0.113370	0.830830	0.332330
C511	C51	0.168470	0.784830	0.253330
Co181	Co18	0.607650	0.973470	0.949870
P181	P18	0.724730	0.089070	0.096170
O521	O52	0.725530	0.141370	0.144670
O531	O53	0.678430	0.056270	0.948170
O541	O54	0.715430	0.051670	0.282470
N181	N18	0.786720	0.114460	0.710970
C521	C52	0.788030	0.106070	0.949370
C531	C53	0.780030	0.164170	0.665670
C541	C54	0.835130	0.118170	0.586670
