data_XEVVUQ_clean_PM
_symmetry_space_group_name_H-M	'P1'
_cell_length_a	8.473800
_cell_length_b	16.685300
_cell_length_c	16.214800
_cell_angle_alpha	90.000000
_cell_angle_beta	95.919000
_cell_angle_gamma	90.000000
_symmetry_Int_Tables_number 1

loop_
_symmetry_equiv_pos_as_xyz
'x,y,z'

loop_
_atom_site_label
_atom_site_type_symbol
_atom_site_fract_x
_atom_site_fract_y
_atom_site_fract_z
P11	P1	0.813650	0.534880	0.769180
H11	H1	0.769600	0.499700	0.809400
P21	P2	0.300600	0.235840	0.707840
H21	H2	0.403800	0.253300	0.734600
P31	P3	0.018170	0.285370	0.890680
H31	H3	0.133300	0.287900	0.904800
P41	P4	0.801550	0.249240	0.662530
H41	H4	0.748100	0.252100	0.713300
O11	O1	0.201600	0.310370	0.692330
O21	O2	0.912400	0.483850	0.716460
O31	O3	0.973900	0.343650	0.820360
O41	O4	0.875600	0.330880	0.649180
O51	O5	0.222400	0.443490	0.800460
O61	O6	0.162800	0.459610	0.635690
O71	O7	0.331600	0.197570	0.625480
O81	O8	0.913300	0.598370	0.816890
O91	O9	0.676200	0.230600	0.590370
O101	O10	0.939000	0.307630	0.967420
O111	O11	0.352800	0.052300	0.544030
O121	O12	0.343600	0.932500	0.481120
O131	O13	0.974600	0.199690	0.864950
O141	O14	0.676300	0.570300	0.713270
O151	O15	0.926000	0.183250	0.673930
O161	O16	0.232800	0.178640	0.767280
O171	O17	0.404600	0.540320	0.801640
O181	O18	0.352900	0.553060	0.638090
C11	C1	0.268000	0.502900	0.671400
C21	C2	0.300500	0.494700	0.766200
C31	C3	0.411800	0.995300	0.507350
Fe11	Fe1	0.046220	0.387930	0.719930
Fe21	Fe2	0.509400	0.148650	0.578180
Fe31	Fe3	0.021360	0.128540	0.775190
P51	P5	0.686350	0.034880	0.730820
H51	H5	0.730400	0.999700	0.690600
P61	P6	0.199400	0.735840	0.792160
H61	H6	0.096200	0.753300	0.765400
P71	P7	0.481830	0.785370	0.609320
H71	H7	0.366700	0.787900	0.595200
P81	P8	0.698450	0.749240	0.837470
H81	H8	0.751900	0.752100	0.786700
O191	O19	0.298400	0.810370	0.807670
O201	O20	0.587600	0.983850	0.783540
O211	O21	0.526100	0.843650	0.679640
O221	O22	0.624400	0.830880	0.850820
O231	O23	0.277600	0.943490	0.699540
O241	O24	0.337200	0.959610	0.864310
O251	O25	0.168400	0.697570	0.874520
O261	O26	0.586700	0.098370	0.683110
O271	O27	0.823800	0.730600	0.909630
O281	O28	0.561000	0.807630	0.532580
O291	O29	0.147200	0.552300	0.955970
O301	O30	0.156400	0.432500	0.018880
O311	O31	0.525400	0.699690	0.635050
O321	O32	0.823700	0.070300	0.786730
O331	O33	0.574000	0.683250	0.826070
O341	O34	0.267200	0.678640	0.732720
O351	O35	0.095400	0.040320	0.698360
O361	O36	0.147100	0.053060	0.861910
C41	C4	0.232000	0.002900	0.828600
C51	C5	0.199500	0.994700	0.733800
C61	C6	0.088200	0.495300	0.992650
Fe41	Fe4	0.453780	0.887930	0.780070
Fe51	Fe5	0.990600	0.648650	0.921820
Fe61	Fe6	0.478640	0.628540	0.724810
P91	P9	0.186350	0.465120	0.230820
H91	H9	0.230400	0.500300	0.190600
P101	P10	0.699400	0.764160	0.292160
H101	H10	0.596200	0.746700	0.265400
P111	P11	0.981830	0.714630	0.109320
H111	H11	0.866700	0.712100	0.095200
P121	P12	0.198450	0.750760	0.337470
H121	H12	0.251900	0.747900	0.286700
O371	O37	0.798400	0.689630	0.307670
O381	O38	0.087600	0.516150	0.283540
O391	O39	0.026100	0.656350	0.179640
O401	O40	0.124400	0.669120	0.350820
O411	O41	0.777600	0.556510	0.199540
O421	O42	0.837200	0.540390	0.364310
O431	O43	0.668400	0.802430	0.374520
O441	O44	0.086700	0.401630	0.183110
O451	O45	0.323800	0.769400	0.409630
O461	O46	0.061000	0.692370	0.032580
O471	O47	0.647200	0.947700	0.455970
O481	O48	0.656400	0.067500	0.518880
O491	O49	0.025400	0.800310	0.135050
O501	O50	0.323700	0.429700	0.286730
O511	O51	0.074000	0.816750	0.326070
O521	O52	0.767200	0.821360	0.232720
O531	O53	0.595400	0.459680	0.198360
O541	O54	0.647100	0.446940	0.361910
C71	C7	0.732000	0.497100	0.328600
C81	C8	0.699500	0.505300	0.233800
C91	C9	0.588200	0.004700	0.492650
Fe71	Fe7	0.953780	0.612070	0.280070
Fe81	Fe8	0.490600	0.851350	0.421820
Fe91	Fe9	0.978640	0.871460	0.224810
P131	P13	0.313650	0.965120	0.269180
H131	H13	0.269600	0.000300	0.309400
P141	P14	0.800600	0.264160	0.207840
H141	H14	0.903800	0.246700	0.234600
P151	P15	0.518170	0.214630	0.390680
H151	H15	0.633300	0.212100	0.404800
P161	P16	0.301550	0.250760	0.162530
H161	H16	0.248100	0.247900	0.213300
O551	O55	0.701600	0.189630	0.192330
O561	O56	0.412400	0.016150	0.216460
O571	O57	0.473900	0.156350	0.320360
O581	O58	0.375600	0.169120	0.149180
O591	O59	0.722400	0.056510	0.300460
O601	O60	0.662800	0.040390	0.135690
O611	O61	0.831600	0.302430	0.125480
O621	O62	0.413300	0.901630	0.316890
O631	O63	0.176200	0.269400	0.090370
O641	O64	0.439000	0.192370	0.467420
O651	O65	0.852800	0.447700	0.044030
O661	O66	0.843600	0.567500	0.981120
O671	O67	0.474600	0.300310	0.364950
O681	O68	0.176300	0.929700	0.213270
O691	O69	0.426000	0.316750	0.173930
O701	O70	0.732800	0.321360	0.267280
O711	O71	0.904600	0.959680	0.301640
O721	O72	0.852900	0.946940	0.138090
C101	C10	0.768000	0.997100	0.171400
C111	C11	0.800500	0.005300	0.266200
C121	C12	0.911800	0.504700	0.007350
Fe101	Fe10	0.546220	0.112070	0.219930
Fe111	Fe11	0.009400	0.351350	0.078180
Fe121	Fe12	0.521360	0.371460	0.275190
