data_XEWDUA_clean_PM
_symmetry_space_group_name_H-M	'P1'
_cell_length_a	8.849200
_cell_length_b	17.245000
_cell_length_c	17.791000
_cell_angle_alpha	115.275000
_cell_angle_beta	95.662000
_cell_angle_gamma	103.865000
_symmetry_Int_Tables_number 1

loop_
_symmetry_equiv_pos_as_xyz
'x,y,z'

loop_
_atom_site_label
_atom_site_type_symbol
_atom_site_fract_x
_atom_site_fract_y
_atom_site_fract_z
Gd11	Gd1	0.185780	0.219650	0.375280
Gd21	Gd2	0.814220	0.780350	0.624720
Cu11	Cu1	0.000000	0.500000	0.500000
Cu21	Cu2	0.500000	0.000000	0.500000
Cu31	Cu3	0.500000	0.000000	0.000000
H11	H1	0.980900	0.365300	0.615900
H21	H2	0.145400	0.441200	0.647500
H31	H3	0.940000	0.589000	0.681600
H41	H4	0.987900	0.534400	0.725900
H51	H5	0.197200	0.660500	0.768000
H61	H6	0.248700	0.577400	0.711600
H71	H7	0.341200	0.700000	0.681300
H81	H8	0.163600	0.692400	0.650400
H91	H9	0.320100	0.508600	0.597500
H101	H10	0.353300	0.503800	0.511100
H111	H11	0.766500	0.397600	0.613500
H121	H12	0.736100	0.472900	0.592100
H131	H13	0.620700	0.328900	0.471700
H141	H14	0.790100	0.315200	0.471700
H151	H15	0.657000	0.087900	0.382700
H161	H16	0.758000	0.157800	0.474500
H171	H17	0.952300	0.084700	0.518500
H181	H18	0.856400	0.998700	0.524000
H191	H19	0.900000	0.130900	0.650600
H201	H20	0.797600	0.164400	0.600500
H211	H21	0.613400	0.971000	0.666900
H221	H22	0.780500	0.983900	0.644000
H231	H23	0.380400	0.827400	0.328500
H241	H24	0.307000	0.857900	0.266000
H251	H25	0.562200	0.964500	0.293600
H261	H26	0.568200	0.865500	0.251200
H271	H27	0.805800	0.944300	0.354600
H281	H28	0.697400	0.896100	0.396800
H291	H29	0.224400	0.044500	0.097000
H301	H30	0.305700	0.995500	0.136800
H311	H31	0.583300	0.118900	0.240900
H321	H32	0.698600	0.139300	0.185200
H331	H33	0.468600	0.220100	0.180000
H341	H34	0.580200	0.201000	0.115900
H351	H35	0.359900	0.238700	0.071200
H361	H36	0.245700	0.149100	0.062400
H371	H37	0.467800	0.156100	0.960300
H381	H38	0.283800	0.134200	0.929400
H391	H39	0.290400	0.991100	0.805400
H401	H40	0.474100	0.036400	0.847300
H411	H41	0.109200	0.958800	0.867800
H421	H42	0.127900	0.017100	0.965900
H431	H43	0.019100	0.634700	0.384100
H441	H44	0.854600	0.558800	0.352500
H451	H45	0.060000	0.411000	0.318400
H461	H46	0.012100	0.465600	0.274100
H471	H47	0.802800	0.339500	0.232000
H481	H48	0.751300	0.422600	0.288400
H491	H49	0.658800	0.300000	0.318700
H501	H50	0.836400	0.307600	0.349600
H511	H51	0.679900	0.491400	0.402500
H521	H52	0.646700	0.496200	0.488900
H531	H53	0.233500	0.602400	0.386500
H541	H54	0.263900	0.527100	0.407900
H551	H55	0.379300	0.671100	0.528300
H561	H56	0.209900	0.684800	0.528300
H571	H57	0.343000	0.912100	0.617300
H581	H58	0.242000	0.842200	0.525500
H591	H59	0.047700	0.915300	0.481500
H601	H60	0.143600	0.001300	0.476000
H611	H61	0.100000	0.869100	0.349400
H621	H62	0.202400	0.835600	0.399500
H631	H63	0.386600	0.029000	0.333100
H641	H64	0.219500	0.016100	0.356000
H651	H65	0.619600	0.172600	0.671500
H661	H66	0.693000	0.142100	0.734000
H671	H67	0.437800	0.035500	0.706400
H681	H68	0.431800	0.134500	0.748800
H691	H69	0.194200	0.055700	0.645400
H701	H70	0.302600	0.103900	0.603200
H711	H71	0.775600	0.955500	0.903000
H721	H72	0.694300	0.004500	0.863200
H731	H73	0.416700	0.881100	0.759100
H741	H74	0.301400	0.860700	0.814800
H751	H75	0.531400	0.779900	0.820000
H761	H76	0.419800	0.799000	0.884100
H771	H77	0.640100	0.761300	0.928800
H781	H78	0.754300	0.850900	0.937600
H791	H79	0.532200	0.843900	0.039700
H801	H80	0.716200	0.865800	0.070600
H811	H81	0.709600	0.008900	0.194600
H821	H82	0.525900	0.963600	0.152700
H831	H83	0.890800	0.041200	0.132200
H841	H84	0.872100	0.982900	0.034100
C11	C1	0.097400	0.354500	0.521300
C21	C2	0.049900	0.407400	0.601700
C31	C3	0.009200	0.553500	0.683000
C41	C4	0.179900	0.613100	0.710100
C51	C5	0.233900	0.658100	0.654000
C61	C6	0.353500	0.544800	0.569100
C71	C7	0.526600	0.607400	0.615300
C81	C8	0.790800	0.427800	0.578900
C91	C9	0.734400	0.359800	0.485100
C101	C10	0.897600	0.123000	0.387800
C111	C11	0.751900	0.102500	0.424700
C121	C12	0.849500	0.053700	0.523100
C131	C13	0.812800	0.111300	0.602500
C141	C14	0.668400	0.973700	0.623100
C151	C15	0.604700	0.884400	0.546000
C161	C16	0.386100	0.878700	0.318000
C171	C17	0.557700	0.912800	0.303300
C181	C18	0.710200	0.941200	0.377000
C191	C19	0.275800	0.109400	0.226900
C201	C20	0.310300	0.054300	0.141500
C211	C21	0.602200	0.097000	0.183800
C221	C22	0.475100	0.177900	0.123900
C231	C23	0.351100	0.176800	0.057600
C241	C24	0.363600	0.127200	0.965400
C251	C25	0.377200	0.994400	0.845700
C261	C26	0.172100	0.976800	0.923800
C271	C27	0.155300	0.894700	0.935700
C281	C28	0.902600	0.645500	0.478700
C291	C29	0.950100	0.592600	0.398300
C301	C30	0.990800	0.446500	0.317000
C311	C31	0.820100	0.386900	0.289900
C321	C32	0.766100	0.341900	0.346000
C331	C33	0.646500	0.455200	0.430900
C341	C34	0.473400	0.392600	0.384700
C351	C35	0.209200	0.572200	0.421100
C361	C36	0.265600	0.640200	0.514900
C371	C37	0.102400	0.877000	0.612200
C381	C38	0.248100	0.897500	0.575300
C391	C39	0.150500	0.946300	0.476900
C401	C40	0.187200	0.888700	0.397500
C411	C41	0.331600	0.026300	0.376900
C421	C42	0.395300	0.115600	0.454000
C431	C43	0.613900	0.121300	0.682000
C441	C44	0.442300	0.087200	0.696700
C451	C45	0.289800	0.058800	0.623000
C461	C46	0.724200	0.890600	0.773100
C471	C47	0.689700	0.945700	0.858500
C481	C48	0.397800	0.903000	0.816200
C491	C49	0.524900	0.822100	0.876100
C501	C50	0.648900	0.823200	0.942400
C511	C51	0.636400	0.872800	0.034600
C521	C52	0.622800	0.005600	0.154300
C531	C53	0.827900	0.023200	0.076200
C541	C54	0.844700	0.105300	0.064300
N11	N1	0.965900	0.471800	0.598500
N21	N2	0.232400	0.591600	0.565800
N31	N3	0.654500	0.054400	0.612500
N41	N4	0.727400	0.030900	0.449900
N51	N5	0.341900	0.028000	0.931400
N61	N6	0.462600	0.090400	0.123200
N71	N7	0.034100	0.528200	0.401500
N81	N8	0.767600	0.408400	0.434200
N91	N9	0.345500	0.945600	0.387500
N101	N10	0.272600	0.969100	0.550100
N111	N11	0.658100	0.972000	0.068600
N121	N12	0.537400	0.909600	0.876800
O11	O1	0.085700	0.370100	0.459800
O21	O2	0.151900	0.290800	0.520700
O31	O3	0.600500	0.648900	0.578800
O41	O4	0.586400	0.609700	0.682400
O51	O5	0.896700	0.171100	0.352500
O61	O6	0.014900	0.096000	0.397900
O71	O7	0.633000	0.816600	0.553100
O81	O8	0.528400	0.876500	0.486100
O91	O9	0.143400	0.080200	0.239600
O101	O10	0.378000	0.182600	0.283900
O111	O11	0.274000	0.889500	0.975800
O121	O12	0.018500	0.835200	0.904100
O131	O13	0.914300	0.629900	0.540200
O141	O14	0.848100	0.709200	0.479300
O151	O15	0.399500	0.351100	0.421200
O161	O16	0.413600	0.390300	0.317600
O171	O17	0.103300	0.828900	0.647500
O181	O18	0.985100	0.904000	0.602100
O191	O19	0.367000	0.183400	0.446900
O201	O20	0.471600	0.123500	0.513900
O211	O21	0.856600	0.919800	0.760400
O221	O22	0.622000	0.817400	0.716100
O231	O23	0.726000	0.110500	0.024200
O241	O24	0.981500	0.164800	0.095900
