data_XEXLIX_clean_PM
_symmetry_space_group_name_H-M	'P1'
_cell_length_a	5.641500
_cell_length_b	14.847000
_cell_length_c	27.633000
_cell_angle_alpha	90.000000
_cell_angle_beta	90.000000
_cell_angle_gamma	100.149000
_symmetry_Int_Tables_number 1

loop_
_symmetry_equiv_pos_as_xyz
'x,y,z'

loop_
_atom_site_label
_atom_site_type_symbol
_atom_site_fract_x
_atom_site_fract_y
_atom_site_fract_z
Zn11	Zn1	0.960750	0.589230	0.976280
Zn21	Zn2	0.539250	0.910770	0.476280
Zn31	Zn3	0.039250	0.410770	0.023720
Zn41	Zn4	0.460750	0.089230	0.523720
H11	H1	0.239800	0.760500	0.422800
H21	H2	0.222700	0.697400	0.345600
H31	H3	0.916700	0.820600	0.324900
H41	H4	0.918200	0.879000	0.403700
H51	H5	0.920800	0.537400	0.225000
H61	H6	0.913800	0.486000	0.144900
H71	H7	0.140200	0.751700	0.091700
H81	H8	0.163100	0.804900	0.172000
H91	H9	0.260200	0.739500	0.922800
H101	H10	0.277300	0.802600	0.845600
H111	H11	0.583300	0.679400	0.824900
H121	H12	0.581800	0.621000	0.903700
H131	H13	0.579200	0.962600	0.725000
H141	H14	0.586200	0.014000	0.644900
H151	H15	0.359800	0.748300	0.591700
H161	H16	0.336900	0.695100	0.672000
H171	H17	0.760200	0.239500	0.577200
H181	H18	0.777300	0.302600	0.654400
H191	H19	0.083300	0.179400	0.675100
H201	H20	0.081800	0.121000	0.596300
H211	H21	0.079200	0.462600	0.775000
H221	H22	0.086200	0.514000	0.855100
H231	H23	0.859800	0.248300	0.908300
H241	H24	0.836900	0.195100	0.828000
H251	H25	0.739800	0.260500	0.077200
H261	H26	0.722700	0.197400	0.154400
H271	H27	0.416700	0.320600	0.175100
H281	H28	0.418200	0.379000	0.096300
H291	H29	0.420800	0.037400	0.275000
H301	H30	0.413800	0.986000	0.355100
H311	H31	0.640200	0.251700	0.408300
H321	H32	0.663100	0.304900	0.328000
C11	C1	0.377900	0.773100	0.402600
C21	C2	0.365400	0.735700	0.356660
C31	C3	0.565100	0.755200	0.327300
C41	C4	0.776300	0.808300	0.344470
C51	C5	0.775300	0.842900	0.391290
C61	C6	0.706900	0.660100	0.265520
C71	C7	0.693500	0.627500	0.214630
C81	C8	0.540800	0.660600	0.180680
C91	C9	0.398500	0.725800	0.195020
C101	C10	0.396300	0.756700	0.246300
C111	C11	0.826100	0.561700	0.201530
C121	C12	0.820700	0.530900	0.153660
C131	C13	0.684100	0.563900	0.119020
C141	C14	0.530100	0.628400	0.131920
C151	C15	0.365600	0.660200	0.099360
C161	C16	0.238800	0.727200	0.114300
C171	C17	0.253400	0.759700	0.162310
C181	C18	0.729200	0.538700	0.067080
C191	C19	0.284300	0.612100	0.052320
C201	C20	0.122100	0.726900	0.902600
C211	C21	0.134600	0.764300	0.856660
C221	C22	0.934900	0.744800	0.827300
C231	C23	0.723700	0.691700	0.844470
C241	C24	0.724700	0.657100	0.891290
C251	C25	0.793100	0.839900	0.765520
C261	C26	0.806500	0.872500	0.714630
C271	C27	0.959200	0.839400	0.680680
C281	C28	0.101500	0.774200	0.695020
C291	C29	0.103700	0.743300	0.746300
C301	C30	0.673900	0.938300	0.701530
C311	C31	0.679300	0.969100	0.653660
C321	C32	0.815900	0.936100	0.619020
C331	C33	0.969900	0.871600	0.631920
C341	C34	0.134400	0.839800	0.599360
C351	C35	0.261200	0.772800	0.614300
C361	C36	0.246600	0.740300	0.662310
C371	C37	0.770800	0.961300	0.567080
C381	C38	0.215700	0.887900	0.552320
C391	C39	0.622100	0.226900	0.597400
C401	C40	0.634600	0.264300	0.643340
C411	C41	0.434900	0.244800	0.672700
C421	C42	0.223700	0.191700	0.655530
C431	C43	0.224700	0.157100	0.608710
C441	C44	0.293100	0.339900	0.734480
C451	C45	0.306500	0.372500	0.785370
C461	C46	0.459200	0.339400	0.819320
C471	C47	0.601500	0.274200	0.804980
C481	C48	0.603700	0.243300	0.753700
C491	C49	0.173900	0.438300	0.798470
C501	C50	0.179300	0.469100	0.846340
C511	C51	0.315900	0.436100	0.880980
C521	C52	0.469900	0.371600	0.868080
C531	C53	0.634400	0.339800	0.900640
C541	C54	0.761200	0.272800	0.885700
C551	C55	0.746600	0.240300	0.837690
C561	C56	0.270800	0.461300	0.932920
C571	C57	0.715700	0.387900	0.947680
C581	C58	0.877900	0.273100	0.097400
C591	C59	0.865400	0.235700	0.143340
C601	C60	0.065100	0.255200	0.172700
C611	C61	0.276300	0.308300	0.155530
C621	C62	0.275300	0.342900	0.108710
C631	C63	0.206900	0.160100	0.234480
C641	C64	0.193500	0.127500	0.285370
C651	C65	0.040800	0.160600	0.319320
C661	C66	0.898500	0.225800	0.304980
C671	C67	0.896300	0.256700	0.253700
C681	C68	0.326100	0.061700	0.298470
C691	C69	0.320700	0.030900	0.346340
C701	C70	0.184100	0.063900	0.380980
C711	C71	0.030100	0.128400	0.368080
C721	C72	0.865600	0.160200	0.400640
C731	C73	0.738800	0.227200	0.385700
C741	C74	0.753400	0.259700	0.337690
C751	C75	0.229200	0.038700	0.432920
C761	C76	0.784300	0.112100	0.447680
N11	N1	0.576200	0.826500	0.419780
N21	N2	0.555700	0.722700	0.277760
N31	N3	0.923800	0.673500	0.919780
N41	N4	0.944300	0.777300	0.777760
N51	N5	0.423800	0.173500	0.580220
N61	N6	0.444300	0.277300	0.722240
N71	N7	0.076200	0.326500	0.080220
N81	N8	0.055700	0.222700	0.222240
O11	O1	0.756600	0.601500	0.035730
O21	O2	0.762300	0.457400	0.060930
O31	O3	0.232100	0.661800	0.018140
O41	O4	0.247800	0.525900	0.053960
O51	O5	0.270900	0.809200	0.261050
O61	O6	0.839000	0.635300	0.295990
O71	O7	0.743400	0.898500	0.535730
O81	O8	0.737700	0.042600	0.560930
O91	O9	0.267900	0.838200	0.518140
O101	O10	0.252200	0.974100	0.553960
O111	O11	0.229100	0.690800	0.761050
O121	O12	0.661000	0.864700	0.795990
O131	O13	0.243400	0.398500	0.964270
O141	O14	0.237700	0.542600	0.939070
O151	O15	0.767900	0.338200	0.981860
O161	O16	0.752200	0.474100	0.946040
O171	O17	0.729100	0.190800	0.738950
O181	O18	0.161000	0.364700	0.704010
O191	O19	0.256600	0.101500	0.464270
O201	O20	0.262300	0.957400	0.439070
O211	O21	0.732100	0.161800	0.481860
O221	O22	0.747800	0.025900	0.446040
O231	O23	0.770900	0.309200	0.238950
O241	O24	0.339000	0.135300	0.204010
