data_XEXLUJ_clean_PM
_symmetry_space_group_name_H-M	'P1'
_cell_length_a	5.613700
_cell_length_b	17.149900
_cell_length_c	26.376900
_cell_angle_alpha	90.000000
_cell_angle_beta	90.000000
_cell_angle_gamma	96.820000
_symmetry_Int_Tables_number 1

loop_
_symmetry_equiv_pos_as_xyz
'x,y,z'

loop_
_atom_site_label
_atom_site_type_symbol
_atom_site_fract_x
_atom_site_fract_y
_atom_site_fract_z
Zn11	Zn1	0.109490	0.572420	0.528300
Zn21	Zn2	0.890510	0.927580	0.028300
Zn31	Zn3	0.890510	0.427580	0.471700
Zn41	Zn4	0.109490	0.072420	0.971700
H11	H1	0.471700	0.896900	0.100100
H21	H2	0.396300	0.832200	0.177200
H31	H3	0.986700	0.722300	0.154100
H41	H4	0.047500	0.790800	0.078600
H51	H5	0.123000	0.574300	0.262500
H61	H6	0.068700	0.514000	0.342300
H71	H7	0.050900	0.720500	0.420600
H81	H8	0.087900	0.783100	0.341900
H91	H9	0.528300	0.603100	0.600100
H101	H10	0.603700	0.667800	0.677200
H111	H11	0.013300	0.777700	0.654100
H121	H12	0.952500	0.709200	0.578600
H131	H13	0.877000	0.925700	0.762500
H141	H14	0.931300	0.986000	0.842300
H151	H15	0.949100	0.779500	0.920600
H161	H16	0.912100	0.716900	0.841900
H171	H17	0.528300	0.103100	0.899900
H181	H18	0.603700	0.167800	0.822800
H191	H19	0.013300	0.277700	0.845900
H201	H20	0.952500	0.209200	0.921400
H211	H21	0.877000	0.425700	0.737500
H221	H22	0.931300	0.486000	0.657700
H231	H23	0.949100	0.279500	0.579400
H241	H24	0.912100	0.216900	0.658100
H251	H25	0.471700	0.396900	0.399900
H261	H26	0.396300	0.332200	0.322800
H271	H27	0.986700	0.222300	0.345900
H281	H28	0.047500	0.290800	0.421400
H291	H29	0.123000	0.074300	0.237500
H301	H30	0.068700	0.014000	0.157700
H311	H31	0.050900	0.220500	0.079400
H321	H32	0.087900	0.283100	0.158100
C11	C1	0.578700	0.861900	0.111720
C21	C2	0.532700	0.823500	0.157610
C31	C3	0.688600	0.772600	0.174320
C41	C4	0.881000	0.758800	0.144150
C51	C5	0.914700	0.799500	0.099320
C61	C6	0.452200	0.681100	0.230310
C71	C7	0.426200	0.644200	0.280750
C81	C8	0.595800	0.664400	0.319190
C91	C9	0.795400	0.721100	0.309820
C101	C10	0.832500	0.757300	0.259390
C111	C11	0.234400	0.588500	0.289020
C121	C12	0.202300	0.552500	0.336790
C131	C13	0.362400	0.572200	0.375840
C141	C14	0.568400	0.627100	0.367830
C151	C15	0.751600	0.647300	0.404610
C161	C16	0.936600	0.705500	0.394810
C171	C17	0.959600	0.742800	0.347830
C181	C18	0.281800	0.540800	0.427070
C191	C19	0.784400	0.598400	0.450940
C201	C20	0.421300	0.638100	0.611720
C211	C21	0.467300	0.676500	0.657610
C221	C22	0.311400	0.727400	0.674320
C231	C23	0.119000	0.741200	0.644150
C241	C24	0.085300	0.700500	0.599320
C251	C25	0.547800	0.818900	0.730310
C261	C26	0.573800	0.855800	0.780750
C271	C27	0.404200	0.835600	0.819190
C281	C28	0.204600	0.778900	0.809820
C291	C29	0.167500	0.742700	0.759390
C301	C30	0.765600	0.911500	0.789020
C311	C31	0.797700	0.947500	0.836790
C321	C32	0.637600	0.927800	0.875840
C331	C33	0.431600	0.872900	0.867830
C341	C34	0.248400	0.852700	0.904610
C351	C35	0.063400	0.794500	0.894810
C361	C36	0.040400	0.757200	0.847830
C371	C37	0.718200	0.959200	0.927070
C381	C38	0.215600	0.901600	0.950940
C391	C39	0.421300	0.138100	0.888280
C401	C40	0.467300	0.176500	0.842390
C411	C41	0.311400	0.227400	0.825680
C421	C42	0.119000	0.241200	0.855850
C431	C43	0.085300	0.200500	0.900680
C441	C44	0.547800	0.318900	0.769690
C451	C45	0.573800	0.355800	0.719250
C461	C46	0.404200	0.335600	0.680810
C471	C47	0.204600	0.278900	0.690180
C481	C48	0.167500	0.242700	0.740610
C491	C49	0.765600	0.411500	0.710980
C501	C50	0.797700	0.447500	0.663210
C511	C51	0.637600	0.427800	0.624160
C521	C52	0.431600	0.372900	0.632170
C531	C53	0.248400	0.352700	0.595390
C541	C54	0.063400	0.294500	0.605190
C551	C55	0.040400	0.257200	0.652170
C561	C56	0.718200	0.459200	0.572930
C571	C57	0.215600	0.401600	0.549060
C581	C58	0.578700	0.361900	0.388280
C591	C59	0.532700	0.323500	0.342390
C601	C60	0.688600	0.272600	0.325680
C611	C61	0.881000	0.258800	0.355850
C621	C62	0.914700	0.299500	0.400680
C631	C63	0.452200	0.181100	0.269690
C641	C64	0.426200	0.144200	0.219250
C651	C65	0.595800	0.164400	0.180810
C661	C66	0.795400	0.221100	0.190180
C671	C67	0.832500	0.257300	0.240610
C681	C68	0.234400	0.088500	0.210980
C691	C69	0.202300	0.052500	0.163210
C701	C70	0.362400	0.072200	0.124160
C711	C71	0.568400	0.127100	0.132170
C721	C72	0.751600	0.147300	0.095390
C731	C73	0.936600	0.205500	0.105190
C741	C74	0.959600	0.242800	0.152170
C751	C75	0.281800	0.040800	0.072930
C761	C76	0.784400	0.098400	0.049060
N11	N1	0.769000	0.850900	0.083460
N21	N2	0.656800	0.735900	0.223120
N31	N3	0.231000	0.649100	0.583460
N41	N4	0.343200	0.764100	0.723120
N51	N5	0.231000	0.149100	0.916540
N61	N6	0.343200	0.264100	0.776880
N71	N7	0.769000	0.350900	0.416540
N81	N8	0.656800	0.235900	0.276880
O11	O1	0.302100	0.589030	0.463790
O21	O2	0.181600	0.471650	0.428540
O31	O3	0.748600	0.525450	0.445090
O41	O4	0.868700	0.633470	0.489780
O51	O5	0.311200	0.666500	0.196170
O61	O6	0.003100	0.804500	0.248990
O71	O7	0.697900	0.910970	0.963790
O81	O8	0.818400	0.028350	0.928540
O91	O9	0.251400	0.974550	0.945090
O101	O10	0.131300	0.866530	0.989780
O111	O11	0.688800	0.833500	0.696170
O121	O12	0.996900	0.695500	0.748990
O131	O13	0.697900	0.410970	0.536210
O141	O14	0.818400	0.528350	0.571460
O151	O15	0.251400	0.474550	0.554910
O161	O16	0.131300	0.366530	0.510220
O171	O17	0.688800	0.333500	0.803830
O181	O18	0.996900	0.195500	0.751010
O191	O19	0.302100	0.089030	0.036210
O201	O20	0.181600	0.971650	0.071460
O211	O21	0.748600	0.025450	0.054910
O221	O22	0.868700	0.133470	0.010220
O231	O23	0.311200	0.166500	0.303830
O241	O24	0.003100	0.304500	0.251010
