data_XEXMAQ_clean_PM
_symmetry_space_group_name_H-M	'P1'
_cell_length_a	5.587100
_cell_length_b	25.946200
_cell_length_c	17.498300
_cell_angle_alpha	90.000000
_cell_angle_beta	96.031000
_cell_angle_gamma	90.000000
_symmetry_Int_Tables_number 1

loop_
_symmetry_equiv_pos_as_xyz
'x,y,z'

loop_
_atom_site_label
_atom_site_type_symbol
_atom_site_fract_x
_atom_site_fract_y
_atom_site_fract_z
Zn11	Zn1	0.892060	0.473230	0.428070
O11	O1	0.713000	0.540980	0.416840
O21	O2	0.829900	0.575550	0.532390
O31	O3	0.264200	0.556160	0.480020
O41	O4	0.146600	0.511830	0.372620
O51	O5	0.685500	0.813040	0.344670
O61	O6	0.993800	0.757400	0.211300
N11	N1	0.233800	0.922380	0.154260
N21	N2	0.343000	0.784470	0.277600
C11	C1	0.427800	0.893100	0.145900
H11	H1	0.534600	0.903300	0.111500
C21	C2	0.472300	0.848040	0.187500
H21	H2	0.606600	0.828000	0.180800
C31	C3	0.314400	0.833310	0.238900
C41	C4	0.122000	0.864500	0.250300
H31	H3	0.018400	0.856200	0.286700
C51	C5	0.087100	0.908470	0.206300
H41	H4	0.955800	0.929400	0.213000
C61	C6	0.545500	0.777530	0.330100
C71	C7	0.573700	0.726320	0.367400
C81	C8	0.408300	0.686540	0.346500
C91	C9	0.208800	0.695650	0.291500
C101	C10	0.167400	0.747030	0.256400
C111	C11	0.763900	0.718310	0.421500
H51	H5	0.870400	0.745100	0.435500
C121	C12	0.799100	0.669820	0.456000
H61	H6	0.928400	0.664800	0.493200
C131	C13	0.644800	0.629390	0.435600
C141	C14	0.438500	0.637060	0.381900
C151	C15	0.259700	0.598850	0.361500
C161	C16	0.076800	0.608260	0.305200
H71	H7	0.967900	0.582100	0.290200
C171	C17	0.050200	0.656990	0.269200
H81	H8	0.925400	0.662700	0.230700
C181	C18	0.729700	0.576930	0.465000
C191	C19	0.230100	0.550900	0.408400
Zn21	Zn2	0.107940	0.973230	0.071930
O71	O7	0.287000	0.040980	0.083160
O81	O8	0.170100	0.075550	0.967610
O91	O9	0.735800	0.056160	0.019980
O101	O10	0.853400	0.011830	0.127380
O111	O11	0.314500	0.313040	0.155330
O121	O12	0.006200	0.257400	0.288700
N31	N3	0.766200	0.422380	0.345740
N41	N4	0.657000	0.284470	0.222400
C201	C20	0.572200	0.393100	0.354100
H91	H9	0.465400	0.403300	0.388500
C211	C21	0.527700	0.348040	0.312500
H101	H10	0.393400	0.328000	0.319200
C221	C22	0.685600	0.333310	0.261100
C231	C23	0.878000	0.364500	0.249700
H111	H11	0.981600	0.356200	0.213300
C241	C24	0.912900	0.408470	0.293700
H121	H12	0.044200	0.429400	0.287000
C251	C25	0.454500	0.277530	0.169900
C261	C26	0.426300	0.226320	0.132600
C271	C27	0.591700	0.186540	0.153500
C281	C28	0.791200	0.195650	0.208500
C291	C29	0.832600	0.247030	0.243600
C301	C30	0.236100	0.218310	0.078500
H131	H13	0.129600	0.245100	0.064500
C311	C31	0.200900	0.169820	0.044000
H141	H14	0.071600	0.164800	0.006800
C321	C32	0.355200	0.129390	0.064400
C331	C33	0.561500	0.137060	0.118100
C341	C34	0.740300	0.098850	0.138500
C351	C35	0.923200	0.108260	0.194800
H151	H15	0.032100	0.082100	0.209800
C361	C36	0.949800	0.156990	0.230800
H161	H16	0.074600	0.162700	0.269300
C371	C37	0.270300	0.076930	0.035000
C381	C38	0.769900	0.050900	0.091600
Zn31	Zn3	0.107940	0.526770	0.571930
O131	O13	0.287000	0.459020	0.583160
O141	O14	0.170100	0.424450	0.467610
O151	O15	0.735800	0.443840	0.519980
O161	O16	0.853400	0.488170	0.627380
O171	O17	0.314500	0.186960	0.655330
O181	O18	0.006200	0.242600	0.788700
N51	N5	0.766200	0.077620	0.845740
N61	N6	0.657000	0.215530	0.722400
C391	C39	0.572200	0.106900	0.854100
H171	H17	0.465400	0.096700	0.888500
C401	C40	0.527700	0.151960	0.812500
H181	H18	0.393400	0.172000	0.819200
C411	C41	0.685600	0.166690	0.761100
C421	C42	0.878000	0.135500	0.749700
H191	H19	0.981600	0.143800	0.713300
C431	C43	0.912900	0.091530	0.793700
H201	H20	0.044200	0.070600	0.787000
C441	C44	0.454500	0.222470	0.669900
C451	C45	0.426300	0.273680	0.632600
C461	C46	0.591700	0.313460	0.653500
C471	C47	0.791200	0.304350	0.708500
C481	C48	0.832600	0.252970	0.743600
C491	C49	0.236100	0.281690	0.578500
H211	H21	0.129600	0.254900	0.564500
C501	C50	0.200900	0.330180	0.544000
H221	H22	0.071600	0.335200	0.506800
C511	C51	0.355200	0.370610	0.564400
C521	C52	0.561500	0.362940	0.618100
C531	C53	0.740300	0.401150	0.638500
C541	C54	0.923200	0.391740	0.694800
H231	H23	0.032100	0.417900	0.709800
C551	C55	0.949800	0.343010	0.730800
H241	H24	0.074600	0.337300	0.769300
C561	C56	0.270300	0.423070	0.535000
C571	C57	0.769900	0.449100	0.591600
Zn41	Zn4	0.892060	0.026770	0.928070
O191	O19	0.713000	0.959020	0.916840
O201	O20	0.829900	0.924450	0.032390
O211	O21	0.264200	0.943840	0.980020
O221	O22	0.146600	0.988170	0.872620
O231	O23	0.685500	0.686960	0.844670
O241	O24	0.993800	0.742600	0.711300
N71	N7	0.233800	0.577620	0.654260
N81	N8	0.343000	0.715530	0.777600
C581	C58	0.427800	0.606900	0.645900
H251	H25	0.534600	0.596700	0.611500
C591	C59	0.472300	0.651960	0.687500
H261	H26	0.606600	0.672000	0.680800
C601	C60	0.314400	0.666690	0.738900
C611	C61	0.122000	0.635500	0.750300
H271	H27	0.018400	0.643800	0.786700
C621	C62	0.087100	0.591530	0.706300
H281	H28	0.955800	0.570600	0.713000
C631	C63	0.545500	0.722470	0.830100
C641	C64	0.573700	0.773680	0.867400
C651	C65	0.408300	0.813460	0.846500
C661	C66	0.208800	0.804350	0.791500
C671	C67	0.167400	0.752970	0.756400
C681	C68	0.763900	0.781690	0.921500
H291	H29	0.870400	0.754900	0.935500
C691	C69	0.799100	0.830180	0.956000
H301	H30	0.928400	0.835200	0.993200
C701	C70	0.644800	0.870610	0.935600
C711	C71	0.438500	0.862940	0.881900
C721	C72	0.259700	0.901150	0.861500
C731	C73	0.076800	0.891740	0.805200
H311	H31	0.967900	0.917900	0.790200
C741	C74	0.050200	0.843010	0.769200
H321	H32	0.925400	0.837300	0.730700
C751	C75	0.729700	0.923070	0.965000
C761	C76	0.230100	0.949100	0.908400
