data_XEZRIF_clean_PM
_symmetry_space_group_name_H-M	'P1'
_cell_length_a	17.254700
_cell_length_b	10.504500
_cell_length_c	26.609000
_cell_angle_alpha	90.000000
_cell_angle_beta	90.000000
_cell_angle_gamma	90.000000
_symmetry_Int_Tables_number 1

loop_
_symmetry_equiv_pos_as_xyz
'x,y,z'

loop_
_atom_site_label
_atom_site_type_symbol
_atom_site_fract_x
_atom_site_fract_y
_atom_site_fract_z
Sr11	Sr1	0.015880	0.499980	0.904070
Sr21	Sr2	0.912610	0.208120	0.008180
C11	C1	0.760600	0.498300	0.934300
C21	C2	0.719300	0.385000	0.933900
H11	H1	0.746100	0.308200	0.933700
C31	C3	0.639900	0.383900	0.933800
C41	C4	0.600700	0.495900	0.933600
H21	H2	0.546800	0.495800	0.934600
C51	C5	0.640400	0.610000	0.931900
C61	C6	0.720500	0.611900	0.931600
H31	H3	0.747100	0.688700	0.929600
C71	C7	0.847800	0.495800	0.939100
C81	C8	0.597900	0.256200	0.936100
C91	C9	0.595900	0.735100	0.931700
C101	C10	0.223500	0.659400	0.830100
C111	C11	0.256300	0.571000	0.860800
H41	H4	0.226600	0.502100	0.871400
C121	C12	0.332200	0.580300	0.876700
C131	C13	0.376000	0.681700	0.860400
H51	H5	0.426700	0.689700	0.871800
C141	C14	0.346600	0.774400	0.826800
C151	C15	0.268300	0.761500	0.813000
H61	H6	0.245900	0.822000	0.792000
C161	C16	0.139600	0.649400	0.812400
C171	C17	0.367000	0.482900	0.910700
C181	C18	0.396300	0.877500	0.805600
O11	O1	0.881500	0.390500	0.945200
O21	O2	0.884000	0.597800	0.935300
O31	O3	0.625600	0.827900	0.909500
O41	O4	0.531800	0.740900	0.951900
O51	O5	0.525300	0.255800	0.929500
O61	O6	0.636500	0.157900	0.945000
O71	O7	0.114100	0.722600	0.780200
O81	O8	0.100500	0.559600	0.831500
O91	O9	0.351800	0.370400	0.903500
O101	O10	0.410200	0.520800	0.946300
O111	O11	0.375600	0.931100	0.765700
O121	O12	0.461000	0.903100	0.825800
H71	H7	0.070000	0.550000	0.991000
Sr31	Sr3	0.515880	0.999980	0.904070
Sr41	Sr4	0.412610	0.708120	0.008180
C191	C19	0.260600	0.998300	0.934300
C201	C20	0.219300	0.885000	0.933900
H81	H8	0.246100	0.808200	0.933700
C211	C21	0.139900	0.883900	0.933800
C221	C22	0.100700	0.995900	0.933600
H91	H9	0.046800	0.995800	0.934600
C231	C23	0.140400	0.110000	0.931900
C241	C24	0.220500	0.111900	0.931600
H101	H10	0.247100	0.188700	0.929600
C251	C25	0.347800	0.995800	0.939100
C261	C26	0.097900	0.756200	0.936100
C271	C27	0.095900	0.235100	0.931700
C281	C28	0.723500	0.159400	0.830100
C291	C29	0.756300	0.071000	0.860800
H111	H11	0.726600	0.002100	0.871400
C301	C30	0.832200	0.080300	0.876700
C311	C31	0.876000	0.181700	0.860400
H121	H12	0.926700	0.189700	0.871800
C321	C32	0.846600	0.274400	0.826800
C331	C33	0.768300	0.261500	0.813000
H131	H13	0.745900	0.322000	0.792000
C341	C34	0.639600	0.149400	0.812400
C351	C35	0.867000	0.982900	0.910700
C361	C36	0.896300	0.377500	0.805600
O131	O13	0.381500	0.890500	0.945200
O141	O14	0.384000	0.097800	0.935300
O151	O15	0.125600	0.327900	0.909500
O161	O16	0.031800	0.240900	0.951900
O171	O17	0.025300	0.755800	0.929500
O181	O18	0.136500	0.657900	0.945000
O191	O19	0.614100	0.222600	0.780200
O201	O20	0.600500	0.059600	0.831500
O211	O21	0.851800	0.870400	0.903500
O221	O22	0.910200	0.020800	0.946300
O231	O23	0.875600	0.431100	0.765700
O241	O24	0.961000	0.403100	0.825800
H141	H14	0.570000	0.050000	0.991000
Sr51	Sr5	0.984120	0.500020	0.404070
Sr61	Sr6	0.087390	0.791880	0.508180
C371	C37	0.239400	0.501700	0.434300
C381	C38	0.280700	0.615000	0.433900
H151	H15	0.253900	0.691800	0.433700
C391	C39	0.360100	0.616100	0.433800
C401	C40	0.399300	0.504100	0.433600
H161	H16	0.453200	0.504200	0.434600
C411	C41	0.359600	0.390000	0.431900
C421	C42	0.279500	0.388100	0.431600
H171	H17	0.252900	0.311300	0.429600
C431	C43	0.152200	0.504200	0.439100
C441	C44	0.402100	0.743800	0.436100
C451	C45	0.404100	0.264900	0.431700
C461	C46	0.776500	0.340600	0.330100
C471	C47	0.743700	0.429000	0.360800
H181	H18	0.773400	0.497900	0.371400
C481	C48	0.667800	0.419700	0.376700
C491	C49	0.624000	0.318300	0.360400
H191	H19	0.573300	0.310300	0.371800
C501	C50	0.653400	0.225600	0.326800
C511	C51	0.731700	0.238500	0.313000
H201	H20	0.754100	0.178000	0.292000
C521	C52	0.860400	0.350600	0.312400
C531	C53	0.633000	0.517100	0.410700
C541	C54	0.603700	0.122500	0.305600
O251	O25	0.118500	0.609500	0.445200
O261	O26	0.116000	0.402200	0.435300
O271	O27	0.374400	0.172100	0.409500
O281	O28	0.468200	0.259100	0.451900
O291	O29	0.474700	0.744200	0.429500
O301	O30	0.363500	0.842100	0.445000
O311	O31	0.885900	0.277400	0.280200
O321	O32	0.899500	0.440400	0.331500
O331	O33	0.648200	0.629600	0.403500
O341	O34	0.589800	0.479200	0.446300
O351	O35	0.624400	0.068900	0.265700
O361	O36	0.539000	0.096900	0.325800
H211	H21	0.930000	0.450000	0.491000
Sr71	Sr7	0.484120	0.000020	0.404070
Sr81	Sr8	0.587390	0.291880	0.508180
C551	C55	0.739400	0.001700	0.434300
C561	C56	0.780700	0.115000	0.433900
H221	H22	0.753900	0.191800	0.433700
C571	C57	0.860100	0.116100	0.433800
C581	C58	0.899300	0.004100	0.433600
H231	H23	0.953200	0.004200	0.434600
C591	C59	0.859600	0.890000	0.431900
C601	C60	0.779500	0.888100	0.431600
H241	H24	0.752900	0.811300	0.429600
C611	C61	0.652200	0.004200	0.439100
C621	C62	0.902100	0.243800	0.436100
C631	C63	0.904100	0.764900	0.431700
C641	C64	0.276500	0.840600	0.330100
C651	C65	0.243700	0.929000	0.360800
H251	H25	0.273400	0.997900	0.371400
C661	C66	0.167800	0.919700	0.376700
C671	C67	0.124000	0.818300	0.360400
H261	H26	0.073300	0.810300	0.371800
C681	C68	0.153400	0.725600	0.326800
C691	C69	0.231700	0.738500	0.313000
H271	H27	0.254100	0.678000	0.292000
C701	C70	0.360400	0.850600	0.312400
C711	C71	0.133000	0.017100	0.410700
C721	C72	0.103700	0.622500	0.305600
O371	O37	0.618500	0.109500	0.445200
O381	O38	0.616000	0.902200	0.435300
O391	O39	0.874400	0.672100	0.409500
O401	O40	0.968200	0.759100	0.451900
O411	O41	0.974700	0.244200	0.429500
O421	O42	0.863500	0.342100	0.445000
O431	O43	0.385900	0.777400	0.280200
O441	O44	0.399500	0.940400	0.331500
O451	O45	0.148200	0.129600	0.403500
O461	O46	0.089800	0.979200	0.446300
O471	O47	0.124400	0.568900	0.265700
O481	O48	0.039000	0.596900	0.325800
H281	H28	0.430000	0.950000	0.491000
Sr91	Sr9	0.984120	0.499980	0.595930
Sr101	Sr10	0.087390	0.208120	0.491820
C731	C73	0.239400	0.498300	0.565700
C741	C74	0.280700	0.385000	0.566100
H291	H29	0.253900	0.308200	0.566300
C751	C75	0.360100	0.383900	0.566200
C761	C76	0.399300	0.495900	0.566400
H301	H30	0.453200	0.495800	0.565400
C771	C77	0.359600	0.610000	0.568100
C781	C78	0.279500	0.611900	0.568400
H311	H31	0.252900	0.688700	0.570400
C791	C79	0.152200	0.495800	0.560900
C801	C80	0.402100	0.256200	0.563900
C811	C81	0.404100	0.735100	0.568300
C821	C82	0.776500	0.659400	0.669900
C831	C83	0.743700	0.571000	0.639200
H321	H32	0.773400	0.502100	0.628600
C841	C84	0.667800	0.580300	0.623300
C851	C85	0.624000	0.681700	0.639600
H331	H33	0.573300	0.689700	0.628200
C861	C86	0.653400	0.774400	0.673200
C871	C87	0.731700	0.761500	0.687000
H341	H34	0.754100	0.822000	0.708000
C881	C88	0.860400	0.649400	0.687600
C891	C89	0.633000	0.482900	0.589300
C901	C90	0.603700	0.877500	0.694400
O491	O49	0.118500	0.390500	0.554800
O501	O50	0.116000	0.597800	0.564700
O511	O51	0.374400	0.827900	0.590500
O521	O52	0.468200	0.740900	0.548100
O531	O53	0.474700	0.255800	0.570500
O541	O54	0.363500	0.157900	0.555000
O551	O55	0.885900	0.722600	0.719800
O561	O56	0.899500	0.559600	0.668500
O571	O57	0.648200	0.370400	0.596500
O581	O58	0.589800	0.520800	0.553700
O591	O59	0.624400	0.931100	0.734300
O601	O60	0.539000	0.903100	0.674200
H351	H35	0.930000	0.550000	0.509000
Sr111	Sr11	0.484120	0.999980	0.595930
Sr121	Sr12	0.587390	0.708120	0.491820
C911	C91	0.739400	0.998300	0.565700
C921	C92	0.780700	0.885000	0.566100
H361	H36	0.753900	0.808200	0.566300
C931	C93	0.860100	0.883900	0.566200
C941	C94	0.899300	0.995900	0.566400
H371	H37	0.953200	0.995800	0.565400
C951	C95	0.859600	0.110000	0.568100
C961	C96	0.779500	0.111900	0.568400
H381	H38	0.752900	0.188700	0.570400
C971	C97	0.652200	0.995800	0.560900
C981	C98	0.902100	0.756200	0.563900
C991	C99	0.904100	0.235100	0.568300
C1001	C100	0.276500	0.159400	0.669900
C1011	C101	0.243700	0.071000	0.639200
H391	H39	0.273400	0.002100	0.628600
C1021	C102	0.167800	0.080300	0.623300
C1031	C103	0.124000	0.181700	0.639600
H401	H40	0.073300	0.189700	0.628200
C1041	C104	0.153400	0.274400	0.673200
C1051	C105	0.231700	0.261500	0.687000
H411	H41	0.254100	0.322000	0.708000
C1061	C106	0.360400	0.149400	0.687600
C1071	C107	0.133000	0.982900	0.589300
C1081	C108	0.103700	0.377500	0.694400
O611	O61	0.618500	0.890500	0.554800
O621	O62	0.616000	0.097800	0.564700
O631	O63	0.874400	0.327900	0.590500
O641	O64	0.968200	0.240900	0.548100
O651	O65	0.974700	0.755800	0.570500
O661	O66	0.863500	0.657900	0.555000
O671	O67	0.385900	0.222600	0.719800
O681	O68	0.399500	0.059600	0.668500
O691	O69	0.148200	0.870400	0.596500
O701	O70	0.089800	0.020800	0.553700
O711	O71	0.124400	0.431100	0.734300
O721	O72	0.039000	0.403100	0.674200
H421	H42	0.430000	0.050000	0.509000
Sr131	Sr13	0.015880	0.500020	0.095930
Sr141	Sr14	0.912610	0.791880	0.991820
C1091	C109	0.760600	0.501700	0.065700
C1101	C110	0.719300	0.615000	0.066100
H431	H43	0.746100	0.691800	0.066300
C1111	C111	0.639900	0.616100	0.066200
C1121	C112	0.600700	0.504100	0.066400
H441	H44	0.546800	0.504200	0.065400
C1131	C113	0.640400	0.390000	0.068100
C1141	C114	0.720500	0.388100	0.068400
H451	H45	0.747100	0.311300	0.070400
C1151	C115	0.847800	0.504200	0.060900
C1161	C116	0.597900	0.743800	0.063900
C1171	C117	0.595900	0.264900	0.068300
C1181	C118	0.223500	0.340600	0.169900
C1191	C119	0.256300	0.429000	0.139200
H461	H46	0.226600	0.497900	0.128600
C1201	C120	0.332200	0.419700	0.123300
C1211	C121	0.376000	0.318300	0.139600
H471	H47	0.426700	0.310300	0.128200
C1221	C122	0.346600	0.225600	0.173200
C1231	C123	0.268300	0.238500	0.187000
H481	H48	0.245900	0.178000	0.208000
C1241	C124	0.139600	0.350600	0.187600
C1251	C125	0.367000	0.517100	0.089300
C1261	C126	0.396300	0.122500	0.194400
O731	O73	0.881500	0.609500	0.054800
O741	O74	0.884000	0.402200	0.064700
O751	O75	0.625600	0.172100	0.090500
O761	O76	0.531800	0.259100	0.048100
O771	O77	0.525300	0.744200	0.070500
O781	O78	0.636500	0.842100	0.055000
O791	O79	0.114100	0.277400	0.219800
O801	O80	0.100500	0.440400	0.168500
O811	O81	0.351800	0.629600	0.096500
O821	O82	0.410200	0.479200	0.053700
O831	O83	0.375600	0.068900	0.234300
O841	O84	0.461000	0.096900	0.174200
H491	H49	0.070000	0.450000	0.009000
Sr151	Sr15	0.515880	0.000020	0.095930
Sr161	Sr16	0.412610	0.291880	0.991820
C1271	C127	0.260600	0.001700	0.065700
C1281	C128	0.219300	0.115000	0.066100
H501	H50	0.246100	0.191800	0.066300
C1291	C129	0.139900	0.116100	0.066200
C1301	C130	0.100700	0.004100	0.066400
H511	H51	0.046800	0.004200	0.065400
C1311	C131	0.140400	0.890000	0.068100
C1321	C132	0.220500	0.888100	0.068400
H521	H52	0.247100	0.811300	0.070400
C1331	C133	0.347800	0.004200	0.060900
C1341	C134	0.097900	0.243800	0.063900
C1351	C135	0.095900	0.764900	0.068300
C1361	C136	0.723500	0.840600	0.169900
C1371	C137	0.756300	0.929000	0.139200
H531	H53	0.726600	0.997900	0.128600
C1381	C138	0.832200	0.919700	0.123300
C1391	C139	0.876000	0.818300	0.139600
H541	H54	0.926700	0.810300	0.128200
C1401	C140	0.846600	0.725600	0.173200
C1411	C141	0.768300	0.738500	0.187000
H551	H55	0.745900	0.678000	0.208000
C1421	C142	0.639600	0.850600	0.187600
C1431	C143	0.867000	0.017100	0.089300
C1441	C144	0.896300	0.622500	0.194400
O851	O85	0.381500	0.109500	0.054800
O861	O86	0.384000	0.902200	0.064700
O871	O87	0.125600	0.672100	0.090500
O881	O88	0.031800	0.759100	0.048100
O891	O89	0.025300	0.244200	0.070500
O901	O90	0.136500	0.342100	0.055000
O911	O91	0.614100	0.777400	0.219800
O921	O92	0.600500	0.940400	0.168500
O931	O93	0.851800	0.129600	0.096500
O941	O94	0.910200	0.979200	0.053700
O951	O95	0.875600	0.568900	0.234300
O961	O96	0.961000	0.596900	0.174200
H561	H56	0.570000	0.950000	0.009000
Sr171	Sr17	0.000000	0.572530	0.750000
Sr181	Sr18	0.500000	0.072530	0.750000
Sr191	Sr19	0.000000	0.427470	0.250000
Sr201	Sr20	0.500000	0.927470	0.250000
O971	O97	0.045700	0.500000	0.000000
O981	O98	0.545700	0.000000	0.000000
O991	O99	0.954300	0.500000	0.500000
O1001	O100	0.454300	0.000000	0.500000
