data_XICDUI_charged_PM
_symmetry_space_group_name_H-M	'P1'
_cell_length_a	8.964600
_cell_length_b	22.892400
_cell_length_c	23.949700
_cell_angle_alpha	90.000000
_cell_angle_beta	90.000000
_cell_angle_gamma	90.000000
_symmetry_Int_Tables_number 1

loop_
_symmetry_equiv_pos_as_xyz
'x,y,z'

loop_
_atom_site_label
_atom_site_type_symbol
_atom_site_fract_x
_atom_site_fract_y
_atom_site_fract_z
Cu11	Cu1	0.502780	0.279390	0.578230
Cu21	Cu2	0.997220	0.720610	0.078230
Cu31	Cu3	0.497220	0.779390	0.921770
Cu41	Cu4	0.002780	0.220610	0.421770
Cu51	Cu5	0.497220	0.720610	0.421770
Cu61	Cu6	0.002780	0.279390	0.921770
Cu71	Cu7	0.502780	0.220610	0.078230
Cu81	Cu8	0.997220	0.779390	0.578230
H11	H1	0.782200	0.219900	0.520100
H21	H2	0.603500	0.369100	0.477400
H31	H3	0.947500	0.359200	0.397900
H41	H4	0.645300	0.270100	0.372000
H51	H5	0.569500	0.234100	0.284900
H61	H6	0.844700	0.347800	0.207300
H71	H7	0.922200	0.384400	0.293700
H81	H8	0.595100	0.413400	0.355600
H91	H9	0.516100	0.510700	0.365100
H101	H10	0.877600	0.547000	0.457800
H111	H11	0.959400	0.449600	0.448600
H121	H12	0.717800	0.780100	0.020100
H131	H13	0.896500	0.630900	0.977400
H141	H14	0.552500	0.640800	0.897900
H151	H15	0.854700	0.729900	0.872000
H161	H16	0.930500	0.765900	0.784900
H171	H17	0.655300	0.652200	0.707300
H181	H18	0.577800	0.615600	0.793700
H191	H19	0.904900	0.586600	0.855600
H201	H20	0.983900	0.489300	0.865100
H211	H21	0.622400	0.453000	0.957800
H221	H22	0.540600	0.550400	0.948600
H231	H23	0.217800	0.719900	0.979900
H241	H24	0.396500	0.869100	0.022600
H251	H25	0.052500	0.859200	0.102100
H261	H26	0.354700	0.770100	0.128000
H271	H27	0.430500	0.734100	0.215100
H281	H28	0.155300	0.847800	0.292700
H291	H29	0.077800	0.884400	0.206300
H301	H30	0.404900	0.913400	0.144400
H311	H31	0.483900	0.010700	0.134900
H321	H32	0.122400	0.047000	0.042200
H331	H33	0.040600	0.949600	0.051400
H341	H34	0.282200	0.280100	0.479900
H351	H35	0.103500	0.130900	0.522600
H361	H36	0.447500	0.140800	0.602100
H371	H37	0.145300	0.229900	0.628000
H381	H38	0.069500	0.265900	0.715100
H391	H39	0.344700	0.152200	0.792700
H401	H40	0.422200	0.115600	0.706300
H411	H41	0.095100	0.086600	0.644400
H421	H42	0.016100	0.989300	0.634900
H431	H43	0.377600	0.953000	0.542200
H441	H44	0.459400	0.050400	0.551400
H451	H45	0.217800	0.780100	0.479900
H461	H46	0.396500	0.630900	0.522600
H471	H47	0.052500	0.640800	0.602100
H481	H48	0.354700	0.729900	0.628000
H491	H49	0.430500	0.765900	0.715100
H501	H50	0.155300	0.652200	0.792700
H511	H51	0.077800	0.615600	0.706300
H521	H52	0.404900	0.586600	0.644400
H531	H53	0.483900	0.489300	0.634900
H541	H54	0.122400	0.453000	0.542200
H551	H55	0.040600	0.550400	0.551400
H561	H56	0.282200	0.219900	0.979900
H571	H57	0.103500	0.369100	0.022600
H581	H58	0.447500	0.359200	0.102100
H591	H59	0.145300	0.270100	0.128000
H601	H60	0.069500	0.234100	0.215100
H611	H61	0.344700	0.347800	0.292700
H621	H62	0.422200	0.384400	0.206300
H631	H63	0.095100	0.413400	0.144400
H641	H64	0.016100	0.510700	0.134900
H651	H65	0.377600	0.547000	0.042200
H661	H66	0.459400	0.449600	0.051400
H671	H67	0.782200	0.280100	0.020100
H681	H68	0.603500	0.130900	0.977400
H691	H69	0.947500	0.140800	0.897900
H701	H70	0.645300	0.229900	0.872000
H711	H71	0.569500	0.265900	0.784900
H721	H72	0.844700	0.152200	0.707300
H731	H73	0.922200	0.115600	0.793700
H741	H74	0.595100	0.086600	0.855600
H751	H75	0.516100	0.989300	0.865100
H761	H76	0.877600	0.953000	0.957800
H771	H77	0.959400	0.050400	0.948600
H781	H78	0.717800	0.719900	0.520100
H791	H79	0.896500	0.869100	0.477400
H801	H80	0.552500	0.859200	0.397900
H811	H81	0.854700	0.770100	0.372000
H821	H82	0.930500	0.734100	0.284900
H831	H83	0.655300	0.847800	0.207300
H841	H84	0.577800	0.884400	0.293700
H851	H85	0.904900	0.913400	0.355600
H861	H86	0.983900	0.010700	0.365100
H871	H87	0.622400	0.047000	0.457800
H881	H88	0.540600	0.949600	0.448600
C11	C1	0.764200	0.255600	0.501000
C21	C2	0.666300	0.335700	0.479000
C31	C3	0.836000	0.359400	0.396400
C41	C4	0.788200	0.330500	0.341100
C51	C5	0.685500	0.286100	0.338600
C61	C6	0.641000	0.264700	0.286900
C71	C7	0.700400	0.287700	0.238600
C81	C8	0.804500	0.332200	0.240800
C91	C9	0.850200	0.354000	0.291800
C101	C10	0.784500	0.422400	0.400700
C111	C11	0.653600	0.440300	0.376300
C121	C12	0.606500	0.498100	0.381900
C131	C13	0.691900	0.536500	0.412000
C141	C14	0.820600	0.519800	0.436800
C151	C15	0.869200	0.461800	0.431400
C161	C16	0.645800	0.266400	0.185800
C171	C17	0.642400	0.597100	0.415600
C181	C18	0.735800	0.744400	0.001000
C191	C19	0.833700	0.664300	0.979000
C201	C20	0.664000	0.640600	0.896400
C211	C21	0.711800	0.669500	0.841100
C221	C22	0.814500	0.713900	0.838600
C231	C23	0.859000	0.735300	0.786900
C241	C24	0.799600	0.712300	0.738600
C251	C25	0.695500	0.667800	0.740800
C261	C26	0.649800	0.646000	0.791800
C271	C27	0.715500	0.577600	0.900700
C281	C28	0.846400	0.559700	0.876300
C291	C29	0.893500	0.501900	0.881900
C301	C30	0.808100	0.463500	0.912000
C311	C31	0.679400	0.480200	0.936800
C321	C32	0.630800	0.538200	0.931400
C331	C33	0.854200	0.733600	0.685800
C341	C34	0.857600	0.402900	0.915600
C351	C35	0.235800	0.755600	0.999000
C361	C36	0.333700	0.835700	0.021000
C371	C37	0.164000	0.859400	0.103600
C381	C38	0.211800	0.830500	0.158900
C391	C39	0.314500	0.786100	0.161400
C401	C40	0.359000	0.764700	0.213100
C411	C41	0.299600	0.787700	0.261400
C421	C42	0.195500	0.832200	0.259200
C431	C43	0.149800	0.854000	0.208200
C441	C44	0.215500	0.922400	0.099300
C451	C45	0.346400	0.940300	0.123700
C461	C46	0.393500	0.998100	0.118100
C471	C47	0.308100	0.036500	0.088000
C481	C48	0.179400	0.019800	0.063200
C491	C49	0.130800	0.961800	0.068600
C501	C50	0.354200	0.766400	0.314200
C511	C51	0.357600	0.097100	0.084400
C521	C52	0.264200	0.244400	0.499000
C531	C53	0.166300	0.164300	0.521000
C541	C54	0.336000	0.140600	0.603600
C551	C55	0.288200	0.169500	0.658900
C561	C56	0.185500	0.213900	0.661400
C571	C57	0.141000	0.235300	0.713100
C581	C58	0.200400	0.212300	0.761400
C591	C59	0.304500	0.167800	0.759200
C601	C60	0.350200	0.146000	0.708200
C611	C61	0.284500	0.077600	0.599300
C621	C62	0.153600	0.059700	0.623700
C631	C63	0.106500	0.001900	0.618100
C641	C64	0.191900	0.963500	0.588000
C651	C65	0.320600	0.980200	0.563200
C661	C66	0.369200	0.038200	0.568600
C671	C67	0.145800	0.233600	0.814200
C681	C68	0.142400	0.902900	0.584400
C691	C69	0.235800	0.744400	0.499000
C701	C70	0.333700	0.664300	0.521000
C711	C71	0.164000	0.640600	0.603600
C721	C72	0.211800	0.669500	0.658900
C731	C73	0.314500	0.713900	0.661400
C741	C74	0.359000	0.735300	0.713100
C751	C75	0.299600	0.712300	0.761400
C761	C76	0.195500	0.667800	0.759200
C771	C77	0.149800	0.646000	0.708200
C781	C78	0.215500	0.577600	0.599300
C791	C79	0.346400	0.559700	0.623700
C801	C80	0.393500	0.501900	0.618100
C811	C81	0.308100	0.463500	0.588000
C821	C82	0.179400	0.480200	0.563200
C831	C83	0.130800	0.538200	0.568600
C841	C84	0.354200	0.733600	0.814200
C851	C85	0.357600	0.402900	0.584400
C861	C86	0.264200	0.255600	0.999000
C871	C87	0.166300	0.335700	0.021000
C881	C88	0.336000	0.359400	0.103600
C891	C89	0.288200	0.330500	0.158900
C901	C90	0.185500	0.286100	0.161400
C911	C91	0.141000	0.264700	0.213100
C921	C92	0.200400	0.287700	0.261400
C931	C93	0.304500	0.332200	0.259200
C941	C94	0.350200	0.354000	0.208200
C951	C95	0.284500	0.422400	0.099300
C961	C96	0.153600	0.440300	0.123700
C971	C97	0.106500	0.498100	0.118100
C981	C98	0.191900	0.536500	0.088000
C991	C99	0.320600	0.519800	0.063200
C1001	C100	0.369200	0.461800	0.068600
C1011	C101	0.145800	0.266400	0.314200
C1021	C102	0.142400	0.597100	0.084400
C1031	C103	0.764200	0.244400	0.001000
C1041	C104	0.666300	0.164300	0.979000
C1051	C105	0.836000	0.140600	0.896400
C1061	C106	0.788200	0.169500	0.841100
C1071	C107	0.685500	0.213900	0.838600
C1081	C108	0.641000	0.235300	0.786900
C1091	C109	0.700400	0.212300	0.738600
C1101	C110	0.804500	0.167800	0.740800
C1111	C111	0.850200	0.146000	0.791800
C1121	C112	0.784500	0.077600	0.900700
C1131	C113	0.653600	0.059700	0.876300
C1141	C114	0.606500	0.001900	0.881900
C1151	C115	0.691900	0.963500	0.912000
C1161	C116	0.820600	0.980200	0.936800
C1171	C117	0.869200	0.038200	0.931400
C1181	C118	0.645800	0.233600	0.685800
C1191	C119	0.642400	0.902900	0.915600
C1201	C120	0.735800	0.755600	0.501000
C1211	C121	0.833700	0.835700	0.479000
C1221	C122	0.664000	0.859400	0.396400
C1231	C123	0.711800	0.830500	0.341100
C1241	C124	0.814500	0.786100	0.338600
C1251	C125	0.859000	0.764700	0.286900
C1261	C126	0.799600	0.787700	0.238600
C1271	C127	0.695500	0.832200	0.240800
C1281	C128	0.649800	0.854000	0.291800
C1291	C129	0.715500	0.922400	0.400700
C1301	C130	0.846400	0.940300	0.376300
C1311	C131	0.893500	0.998100	0.381900
C1321	C132	0.808100	0.036500	0.412000
C1331	C133	0.679400	0.019800	0.436800
C1341	C134	0.630800	0.961800	0.431400
C1351	C135	0.854200	0.766400	0.185800
C1361	C136	0.857600	0.097100	0.415600
N11	N1	0.844700	0.272830	0.458390
N21	N2	0.653300	0.292800	0.515560
N31	N3	0.780700	0.325410	0.444640
N41	N4	0.597300	0.249200	0.144800
N51	N5	0.599500	0.643600	0.416400
N61	N6	0.655300	0.727170	0.958390
N71	N7	0.846700	0.707200	0.015560
N81	N8	0.719300	0.674590	0.944640
N91	N9	0.902700	0.750800	0.644800
N101	N10	0.900500	0.356400	0.916400
N111	N11	0.155300	0.772830	0.041610
N121	N12	0.346700	0.792800	0.984440
N131	N13	0.219300	0.825410	0.055360
N141	N14	0.402700	0.749200	0.355200
N151	N15	0.400500	0.143600	0.083600
N161	N16	0.344700	0.227170	0.541610
N171	N17	0.153300	0.207200	0.484440
N181	N18	0.280700	0.174590	0.555360
N191	N19	0.097300	0.250800	0.855200
N201	N20	0.099500	0.856400	0.583600
N211	N21	0.155300	0.727170	0.541610
N221	N22	0.346700	0.707200	0.484440
N231	N23	0.219300	0.674590	0.555360
N241	N24	0.402700	0.750800	0.855200
N251	N25	0.400500	0.356400	0.583600
N261	N26	0.344700	0.272830	0.041610
N271	N27	0.153300	0.292800	0.984440
N281	N28	0.280700	0.325410	0.055360
N291	N29	0.097300	0.249200	0.355200
N301	N30	0.099500	0.643600	0.083600
N311	N31	0.844700	0.227170	0.958390
N321	N32	0.653300	0.207200	0.015560
N331	N33	0.780700	0.174590	0.944640
N341	N34	0.597300	0.250800	0.644800
N351	N35	0.599500	0.856400	0.916400
N361	N36	0.655300	0.772830	0.458390
N371	N37	0.846700	0.792800	0.515560
N381	N38	0.719300	0.825410	0.444640
N391	N39	0.902700	0.749200	0.144800
N401	N40	0.900500	0.143600	0.416400
B11	B1	0.723900	0.610300	0.579800
F11	F1	0.837900	0.629300	0.543850
F21	F2	0.628800	0.654100	0.592630
F31	F3	0.652800	0.564900	0.554700
F41	F4	0.797500	0.593400	0.629100
B21	B2	0.776100	0.389700	0.079800
F51	F5	0.662100	0.370700	0.043850
F61	F6	0.871200	0.345900	0.092630
F71	F7	0.847200	0.435100	0.054700
F81	F8	0.702500	0.406600	0.129100
B31	B3	0.276100	0.110300	0.920200
F91	F9	0.162100	0.129300	0.956150
F101	F10	0.371200	0.154100	0.907370
F111	F11	0.347200	0.064900	0.945300
F121	F12	0.202500	0.093400	0.870900
B41	B4	0.223900	0.889700	0.420200
F131	F13	0.337900	0.870700	0.456150
F141	F14	0.128800	0.845900	0.407370
F151	F15	0.152800	0.935100	0.445300
F161	F16	0.297500	0.906600	0.370900
B51	B5	0.276100	0.389700	0.420200
F171	F17	0.162100	0.370700	0.456150
F181	F18	0.371200	0.345900	0.407370
F191	F19	0.347200	0.435100	0.445300
F201	F20	0.202500	0.406600	0.370900
B61	B6	0.223900	0.610300	0.920200
F211	F21	0.337900	0.629300	0.956150
F221	F22	0.128800	0.654100	0.907370
F231	F23	0.152800	0.564900	0.945300
F241	F24	0.297500	0.593400	0.870900
B71	B7	0.723900	0.889700	0.079800
F251	F25	0.837900	0.870700	0.043850
F261	F26	0.628800	0.845900	0.092630
F271	F27	0.652800	0.935100	0.054700
F281	F28	0.797500	0.906600	0.129100
B81	B8	0.776100	0.110300	0.579800
F291	F29	0.662100	0.129300	0.543850
F301	F30	0.871200	0.154100	0.592630
F311	F31	0.847200	0.064900	0.554700
F321	F32	0.702500	0.093400	0.629100
