data_XIDSUZ_clean_PM
_symmetry_space_group_name_H-M	'P1'
_cell_length_a	56.792000
_cell_length_b	14.331000
_cell_length_c	32.170000
_cell_angle_alpha	90.000000
_cell_angle_beta	90.000000
_cell_angle_gamma	90.000000
_symmetry_Int_Tables_number 1

loop_
_symmetry_equiv_pos_as_xyz
'x,y,z'

loop_
_atom_site_label
_atom_site_type_symbol
_atom_site_fract_x
_atom_site_fract_y
_atom_site_fract_z
Cu11	Cu1	0.406140	0.882100	0.482320
O11	O1	0.329160	0.607300	0.606100
O21	O2	0.267770	0.412200	0.675700
O31	O3	0.303190	0.153500	0.524600
N11	N1	0.382770	0.788900	0.505100
N21	N2	0.184390	0.280100	0.712390
N31	N3	0.384760	0.984200	0.498500
N41	N4	0.338150	0.568100	0.541000
H11	H1	0.335600	0.521800	0.523600
N51	N5	0.243910	0.318400	0.628600
H21	H2	0.243100	0.283400	0.606200
N61	N6	0.340890	0.204900	0.540100
H31	H3	0.348900	0.250500	0.551800
C11	C1	0.372830	0.785900	0.545000
H41	H4	0.376300	0.834100	0.564300
C21	C2	0.357790	0.712600	0.556800
H51	H5	0.351500	0.707600	0.584100
C31	C3	0.352540	0.645200	0.524500
C41	C4	0.361140	0.641200	0.479100
H61	H6	0.357100	0.597500	0.458100
C51	C5	0.377260	0.722200	0.476100
H71	H7	0.385000	0.729000	0.450100
C61	C6	0.328430	0.558500	0.578800
C71	C7	0.187940	0.248800	0.678000
H81	H8	0.174800	0.213000	0.669100
C81	C8	0.207190	0.249400	0.644400
H91	H9	0.207300	0.215100	0.619200
C91	C9	0.224990	0.312600	0.659100
C101	C10	0.222480	0.359900	0.695000
H101	H10	0.234100	0.404800	0.702300
C111	C11	0.204560	0.346400	0.720700
H111	H11	0.204400	0.380600	0.746000
C121	C12	0.262400	0.375000	0.633500
C131	C13	0.392340	0.057500	0.526900
H121	H12	0.408100	0.054700	0.536800
C141	C14	0.378700	0.129800	0.540400
H131	H13	0.384200	0.177400	0.558400
C151	C15	0.354400	0.126100	0.523800
C161	C16	0.345170	0.056300	0.496000
H141	H14	0.329500	0.057800	0.485900
C171	C17	0.360770	0.988000	0.485500
H151	H15	0.355200	0.939000	0.468100
C181	C18	0.317510	0.213600	0.538800
C191	C19	0.314410	0.462600	0.579100
C201	C20	0.296000	0.461900	0.607400
H161	H16	0.292600	0.512000	0.625800
C211	C21	0.283020	0.379000	0.605900
C221	C22	0.289940	0.297100	0.588000
H171	H17	0.282400	0.239900	0.594800
C231	C23	0.308820	0.299900	0.559000
C241	C24	0.321920	0.385100	0.554400
H181	H18	0.334900	0.389800	0.535900
O41	O4	0.077930	0.457800	0.618300
O51	O5	0.002940	0.621600	0.593200
O61	O6	0.012260	0.145800	0.536800
N71	N7	0.136180	0.266800	0.706810
N81	N8	0.930020	0.779900	0.523400
N91	N9	0.930860	0.977800	0.533600
N101	N10	0.076330	0.305300	0.629500
H191	H19	0.068500	0.253700	0.624100
N111	N11	0.977140	0.556900	0.546300
H201	H20	0.974700	0.508700	0.529900
N121	N12	0.977470	0.200000	0.560800
H211	H21	0.971000	0.248400	0.573100
C251	C25	0.133180	0.341700	0.683200
H221	H22	0.144600	0.389600	0.686000
C261	C26	0.115780	0.357900	0.655500
H231	H23	0.115900	0.411900	0.638400
C271	C27	0.097450	0.292500	0.652800
C281	C28	0.099880	0.214300	0.675700
H241	H24	0.088300	0.166900	0.672300
C291	C29	0.117540	0.197700	0.703400
H251	H25	0.117700	0.142800	0.719900
C301	C30	0.067090	0.378500	0.615500
C311	C31	0.932140	0.709400	0.500000
H261	H26	0.923300	0.707600	0.475000
C321	C32	0.946540	0.636000	0.509000
H271	H27	0.946400	0.583400	0.490900
C331	C33	0.961450	0.634700	0.543600
C341	C34	0.960070	0.711700	0.571000
H281	H28	0.969600	0.716600	0.595200
C351	C35	0.943280	0.781800	0.559400
H291	H29	0.941100	0.833000	0.577800
C361	C36	0.995520	0.553900	0.572900
C371	C37	0.924930	0.046300	0.558500
H301	H30	0.909400	0.045800	0.569500
C381	C38	0.939310	0.118500	0.569700
H311	H31	0.934700	0.163100	0.590000
C391	C39	0.961620	0.123200	0.549300
C401	C40	0.969000	0.054500	0.522900
H321	H32	0.984500	0.053800	0.511700
C411	C41	0.951260	0.980300	0.512800
H331	H33	0.954500	0.935500	0.491800
C421	C42	0.000920	0.203600	0.554300
C431	C43	0.042910	0.379100	0.597400
C441	C44	0.030490	0.461600	0.594800
H341	H34	0.036800	0.516900	0.606800
C451	C45	0.008730	0.464500	0.574400
C461	C46	0.998250	0.379300	0.564200
H351	H35	0.982200	0.378400	0.556200
C471	C47	0.010840	0.294800	0.565400
C481	C48	0.031800	0.291700	0.585200
H361	H36	0.039200	0.233700	0.590900
Cu21	Cu2	0.406140	0.617900	0.017680
O71	O7	0.329160	0.892700	0.893900
O81	O8	0.267770	0.087800	0.824300
O91	O9	0.303190	0.346500	0.975400
N131	N13	0.382770	0.711100	0.994900
N141	N14	0.184390	0.219900	0.787610
N151	N15	0.384760	0.515800	0.001500
N161	N16	0.338150	0.931900	0.959000
H371	H37	0.335600	0.978200	0.976400
N171	N17	0.243910	0.181600	0.871400
H381	H38	0.243100	0.216600	0.893800
N181	N18	0.340890	0.295100	0.959900
H391	H39	0.348900	0.249500	0.948200
C491	C49	0.372830	0.714100	0.955000
H401	H40	0.376300	0.665900	0.935700
C501	C50	0.357790	0.787400	0.943200
H411	H41	0.351500	0.792400	0.915900
C511	C51	0.352540	0.854800	0.975500
C521	C52	0.361140	0.858800	0.020900
H421	H42	0.357100	0.902500	0.041900
C531	C53	0.377260	0.777800	0.023900
H431	H43	0.385000	0.771000	0.049900
C541	C54	0.328430	0.941500	0.921200
C551	C55	0.187940	0.251200	0.822000
H441	H44	0.174800	0.287000	0.830900
C561	C56	0.207190	0.250600	0.855600
H451	H45	0.207300	0.284900	0.880800
C571	C57	0.224990	0.187400	0.840900
C581	C58	0.222480	0.140100	0.805000
H461	H46	0.234100	0.095200	0.797700
C591	C59	0.204560	0.153600	0.779300
H471	H47	0.204400	0.119400	0.754000
C601	C60	0.262400	0.125000	0.866500
C611	C61	0.392340	0.442500	0.973100
H481	H48	0.408100	0.445300	0.963200
C621	C62	0.378700	0.370200	0.959600
H491	H49	0.384200	0.322600	0.941600
C631	C63	0.354400	0.373900	0.976200
C641	C64	0.345170	0.443700	0.004000
H501	H50	0.329500	0.442200	0.014100
C651	C65	0.360770	0.512000	0.014500
H511	H51	0.355200	0.561000	0.031900
C661	C66	0.317510	0.286400	0.961200
C671	C67	0.314410	0.037400	0.920900
C681	C68	0.296000	0.038100	0.892600
H521	H52	0.292600	0.988000	0.874200
C691	C69	0.283020	0.121000	0.894100
C701	C70	0.289940	0.202900	0.912000
H531	H53	0.282400	0.260100	0.905200
C711	C71	0.308820	0.200100	0.941000
C721	C72	0.321920	0.114900	0.945600
H541	H54	0.334900	0.110200	0.964100
O101	O10	0.077930	0.042200	0.881700
O111	O11	0.002940	0.878400	0.906800
O121	O12	0.012260	0.354200	0.963200
N191	N19	0.136180	0.233200	0.793190
N201	N20	0.930020	0.720100	0.976600
N211	N21	0.930860	0.522200	0.966400
N221	N22	0.076330	0.194700	0.870500
H551	H55	0.068500	0.246300	0.875900
N231	N23	0.977140	0.943100	0.953700
H561	H56	0.974700	0.991300	0.970100
N241	N24	0.977470	0.300000	0.939200
H571	H57	0.971000	0.251600	0.926900
C731	C73	0.133180	0.158300	0.816800
H581	H58	0.144600	0.110400	0.814000
C741	C74	0.115780	0.142100	0.844500
H591	H59	0.115900	0.088100	0.861600
C751	C75	0.097450	0.207500	0.847200
C761	C76	0.099880	0.285700	0.824300
H601	H60	0.088300	0.333100	0.827700
C771	C77	0.117540	0.302300	0.796600
H611	H61	0.117700	0.357200	0.780100
C781	C78	0.067090	0.121500	0.884500
C791	C79	0.932140	0.790600	0.000000
H621	H62	0.923300	0.792400	0.025000
C801	C80	0.946540	0.864000	0.991000
H631	H63	0.946400	0.916600	0.009100
C811	C81	0.961450	0.865300	0.956400
C821	C82	0.960070	0.788300	0.929000
H641	H64	0.969600	0.783400	0.904800
C831	C83	0.943280	0.718200	0.940600
H651	H65	0.941100	0.667000	0.922200
C841	C84	0.995520	0.946100	0.927100
C851	C85	0.924930	0.453700	0.941500
H661	H66	0.909400	0.454200	0.930500
C861	C86	0.939310	0.381500	0.930300
H671	H67	0.934700	0.336900	0.910000
C871	C87	0.961620	0.376800	0.950700
C881	C88	0.969000	0.445500	0.977100
H681	H68	0.984500	0.446200	0.988300
C891	C89	0.951260	0.519700	0.987200
H691	H69	0.954500	0.564500	0.008200
C901	C90	0.000920	0.296400	0.945700
C911	C91	0.042910	0.120900	0.902600
C921	C92	0.030490	0.038400	0.905200
H701	H70	0.036800	0.983100	0.893200
C931	C93	0.008730	0.035500	0.925600
C941	C94	0.998250	0.120700	0.935800
H711	H71	0.982200	0.121600	0.943800
C951	C95	0.010840	0.205200	0.934600
C961	C96	0.031800	0.208300	0.914800
H721	H72	0.039200	0.266300	0.909100
Cu31	Cu3	0.906140	0.882100	0.517680
O131	O13	0.829160	0.607300	0.393900
O141	O14	0.767770	0.412200	0.324300
O151	O15	0.803190	0.153500	0.475400
N251	N25	0.882770	0.788900	0.494900
N261	N26	0.684390	0.280100	0.287610
N271	N27	0.884760	0.984200	0.501500
N281	N28	0.838150	0.568100	0.459000
H731	H73	0.835600	0.521800	0.476400
N291	N29	0.743910	0.318400	0.371400
H741	H74	0.743100	0.283400	0.393800
N301	N30	0.840890	0.204900	0.459900
H751	H75	0.848900	0.250500	0.448200
C971	C97	0.872830	0.785900	0.455000
H761	H76	0.876300	0.834100	0.435700
C981	C98	0.857790	0.712600	0.443200
H771	H77	0.851500	0.707600	0.415900
C991	C99	0.852540	0.645200	0.475500
C1001	C100	0.861140	0.641200	0.520900
H781	H78	0.857100	0.597500	0.541900
C1011	C101	0.877260	0.722200	0.523900
H791	H79	0.885000	0.729000	0.549900
C1021	C102	0.828430	0.558500	0.421200
C1031	C103	0.687940	0.248800	0.322000
H801	H80	0.674800	0.213000	0.330900
C1041	C104	0.707190	0.249400	0.355600
H811	H81	0.707300	0.215100	0.380800
C1051	C105	0.724990	0.312600	0.340900
C1061	C106	0.722480	0.359900	0.305000
H821	H82	0.734100	0.404800	0.297700
C1071	C107	0.704560	0.346400	0.279300
H831	H83	0.704400	0.380600	0.254000
C1081	C108	0.762400	0.375000	0.366500
C1091	C109	0.892340	0.057500	0.473100
H841	H84	0.908100	0.054700	0.463200
C1101	C110	0.878700	0.129800	0.459600
H851	H85	0.884200	0.177400	0.441600
C1111	C111	0.854400	0.126100	0.476200
C1121	C112	0.845170	0.056300	0.504000
H861	H86	0.829500	0.057800	0.514100
C1131	C113	0.860770	0.988000	0.514500
H871	H87	0.855200	0.939000	0.531900
C1141	C114	0.817510	0.213600	0.461200
C1151	C115	0.814410	0.462600	0.420900
C1161	C116	0.796000	0.461900	0.392600
H881	H88	0.792600	0.512000	0.374200
C1171	C117	0.783020	0.379000	0.394100
C1181	C118	0.789940	0.297100	0.412000
H891	H89	0.782400	0.239900	0.405200
C1191	C119	0.808820	0.299900	0.441000
C1201	C120	0.821920	0.385100	0.445600
H901	H90	0.834900	0.389800	0.464100
O161	O16	0.577930	0.457800	0.381700
O171	O17	0.502940	0.621600	0.406800
O181	O18	0.512260	0.145800	0.463200
N311	N31	0.636180	0.266800	0.293190
N321	N32	0.430020	0.779900	0.476600
N331	N33	0.430860	0.977800	0.466400
N341	N34	0.576330	0.305300	0.370500
H911	H91	0.568500	0.253700	0.375900
N351	N35	0.477140	0.556900	0.453700
H921	H92	0.474700	0.508700	0.470100
N361	N36	0.477470	0.200000	0.439200
H931	H93	0.471000	0.248400	0.426900
C1211	C121	0.633180	0.341700	0.316800
H941	H94	0.644600	0.389600	0.314000
C1221	C122	0.615780	0.357900	0.344500
H951	H95	0.615900	0.411900	0.361600
C1231	C123	0.597450	0.292500	0.347200
C1241	C124	0.599880	0.214300	0.324300
H961	H96	0.588300	0.166900	0.327700
C1251	C125	0.617540	0.197700	0.296600
H971	H97	0.617700	0.142800	0.280100
C1261	C126	0.567090	0.378500	0.384500
C1271	C127	0.432140	0.709400	0.500000
H981	H98	0.423300	0.707600	0.525000
C1281	C128	0.446540	0.636000	0.491000
H991	H99	0.446400	0.583400	0.509100
C1291	C129	0.461450	0.634700	0.456400
C1301	C130	0.460070	0.711700	0.429000
H1001	H100	0.469600	0.716600	0.404800
C1311	C131	0.443280	0.781800	0.440600
H1011	H101	0.441100	0.833000	0.422200
C1321	C132	0.495520	0.553900	0.427100
C1331	C133	0.424930	0.046300	0.441500
H1021	H102	0.409400	0.045800	0.430500
C1341	C134	0.439310	0.118500	0.430300
H1031	H103	0.434700	0.163100	0.410000
C1351	C135	0.461620	0.123200	0.450700
C1361	C136	0.469000	0.054500	0.477100
H1041	H104	0.484500	0.053800	0.488300
C1371	C137	0.451260	0.980300	0.487200
H1051	H105	0.454500	0.935500	0.508200
C1381	C138	0.500920	0.203600	0.445700
C1391	C139	0.542910	0.379100	0.402600
C1401	C140	0.530490	0.461600	0.405200
H1061	H106	0.536800	0.516900	0.393200
C1411	C141	0.508730	0.464500	0.425600
C1421	C142	0.498250	0.379300	0.435800
H1071	H107	0.482200	0.378400	0.443800
C1431	C143	0.510840	0.294800	0.434600
C1441	C144	0.531800	0.291700	0.414800
H1081	H108	0.539200	0.233700	0.409100
Cu41	Cu4	0.906140	0.617900	0.982320
O191	O19	0.829160	0.892700	0.106100
O201	O20	0.767770	0.087800	0.175700
O211	O21	0.803190	0.346500	0.024600
N371	N37	0.882770	0.711100	0.005100
N381	N38	0.684390	0.219900	0.212390
N391	N39	0.884760	0.515800	0.998500
N401	N40	0.838150	0.931900	0.041000
H1091	H109	0.835600	0.978200	0.023600
N411	N41	0.743910	0.181600	0.128600
H1101	H110	0.743100	0.216600	0.106200
N421	N42	0.840890	0.295100	0.040100
H1111	H111	0.848900	0.249500	0.051800
C1451	C145	0.872830	0.714100	0.045000
H1121	H112	0.876300	0.665900	0.064300
C1461	C146	0.857790	0.787400	0.056800
H1131	H113	0.851500	0.792400	0.084100
C1471	C147	0.852540	0.854800	0.024500
C1481	C148	0.861140	0.858800	0.979100
H1141	H114	0.857100	0.902500	0.958100
C1491	C149	0.877260	0.777800	0.976100
H1151	H115	0.885000	0.771000	0.950100
C1501	C150	0.828430	0.941500	0.078800
C1511	C151	0.687940	0.251200	0.178000
H1161	H116	0.674800	0.287000	0.169100
C1521	C152	0.707190	0.250600	0.144400
H1171	H117	0.707300	0.284900	0.119200
C1531	C153	0.724990	0.187400	0.159100
C1541	C154	0.722480	0.140100	0.195000
H1181	H118	0.734100	0.095200	0.202300
C1551	C155	0.704560	0.153600	0.220700
H1191	H119	0.704400	0.119400	0.246000
C1561	C156	0.762400	0.125000	0.133500
C1571	C157	0.892340	0.442500	0.026900
H1201	H120	0.908100	0.445300	0.036800
C1581	C158	0.878700	0.370200	0.040400
H1211	H121	0.884200	0.322600	0.058400
C1591	C159	0.854400	0.373900	0.023800
C1601	C160	0.845170	0.443700	0.996000
H1221	H122	0.829500	0.442200	0.985900
C1611	C161	0.860770	0.512000	0.985500
H1231	H123	0.855200	0.561000	0.968100
C1621	C162	0.817510	0.286400	0.038800
C1631	C163	0.814410	0.037400	0.079100
C1641	C164	0.796000	0.038100	0.107400
H1241	H124	0.792600	0.988000	0.125800
C1651	C165	0.783020	0.121000	0.105900
C1661	C166	0.789940	0.202900	0.088000
H1251	H125	0.782400	0.260100	0.094800
C1671	C167	0.808820	0.200100	0.059000
C1681	C168	0.821920	0.114900	0.054400
H1261	H126	0.834900	0.110200	0.035900
O221	O22	0.577930	0.042200	0.118300
O231	O23	0.502940	0.878400	0.093200
O241	O24	0.512260	0.354200	0.036800
N431	N43	0.636180	0.233200	0.206810
N441	N44	0.430020	0.720100	0.023400
N451	N45	0.430860	0.522200	0.033600
N461	N46	0.576330	0.194700	0.129500
H1271	H127	0.568500	0.246300	0.124100
N471	N47	0.477140	0.943100	0.046300
H1281	H128	0.474700	0.991300	0.029900
N481	N48	0.477470	0.300000	0.060800
H1291	H129	0.471000	0.251600	0.073100
C1691	C169	0.633180	0.158300	0.183200
H1301	H130	0.644600	0.110400	0.186000
C1701	C170	0.615780	0.142100	0.155500
H1311	H131	0.615900	0.088100	0.138400
C1711	C171	0.597450	0.207500	0.152800
C1721	C172	0.599880	0.285700	0.175700
H1321	H132	0.588300	0.333100	0.172300
C1731	C173	0.617540	0.302300	0.203400
H1331	H133	0.617700	0.357200	0.219900
C1741	C174	0.567090	0.121500	0.115500
C1751	C175	0.432140	0.790600	0.000000
H1341	H134	0.423300	0.792400	0.975000
C1761	C176	0.446540	0.864000	0.009000
H1351	H135	0.446400	0.916600	0.990900
C1771	C177	0.461450	0.865300	0.043600
C1781	C178	0.460070	0.788300	0.071000
H1361	H136	0.469600	0.783400	0.095200
C1791	C179	0.443280	0.718200	0.059400
H1371	H137	0.441100	0.667000	0.077800
C1801	C180	0.495520	0.946100	0.072900
C1811	C181	0.424930	0.453700	0.058500
H1381	H138	0.409400	0.454200	0.069500
C1821	C182	0.439310	0.381500	0.069700
H1391	H139	0.434700	0.336900	0.090000
C1831	C183	0.461620	0.376800	0.049300
C1841	C184	0.469000	0.445500	0.022900
H1401	H140	0.484500	0.446200	0.011700
C1851	C185	0.451260	0.519700	0.012800
H1411	H141	0.454500	0.564500	0.991800
C1861	C186	0.500920	0.296400	0.054300
C1871	C187	0.542910	0.120900	0.097400
C1881	C188	0.530490	0.038400	0.094800
H1421	H142	0.536800	0.983100	0.106800
C1891	C189	0.508730	0.035500	0.074400
C1901	C190	0.498250	0.120700	0.064200
H1431	H143	0.482200	0.121600	0.056200
C1911	C191	0.510840	0.205200	0.065400
C1921	C192	0.531800	0.208300	0.085200
H1441	H144	0.539200	0.266300	0.090900
Cu51	Cu5	0.160320	0.250000	0.750000
Cu61	Cu6	0.660320	0.250000	0.250000
Cu71	Cu7	0.093860	0.117900	0.482320
O251	O25	0.170840	0.392700	0.606100
O261	O26	0.232230	0.587800	0.675700
O271	O27	0.196810	0.846500	0.524600
N491	N49	0.117230	0.211100	0.505100
N501	N50	0.315610	0.719900	0.712390
N511	N51	0.115240	0.015800	0.498500
N521	N52	0.161850	0.431900	0.541000
H1451	H145	0.164400	0.478200	0.523600
N531	N53	0.256090	0.681600	0.628600
H1461	H146	0.256900	0.716600	0.606200
N541	N54	0.159110	0.795100	0.540100
H1471	H147	0.151100	0.749500	0.551800
C1931	C193	0.127170	0.214100	0.545000
H1481	H148	0.123700	0.165900	0.564300
C1941	C194	0.142210	0.287400	0.556800
H1491	H149	0.148500	0.292400	0.584100
C1951	C195	0.147460	0.354800	0.524500
C1961	C196	0.138860	0.358800	0.479100
H1501	H150	0.142900	0.402500	0.458100
C1971	C197	0.122740	0.277800	0.476100
H1511	H151	0.115000	0.271000	0.450100
C1981	C198	0.171570	0.441500	0.578800
C1991	C199	0.312060	0.751200	0.678000
H1521	H152	0.325200	0.787000	0.669100
C2001	C200	0.292810	0.750600	0.644400
H1531	H153	0.292700	0.784900	0.619200
C2011	C201	0.275010	0.687400	0.659100
C2021	C202	0.277520	0.640100	0.695000
H1541	H154	0.265900	0.595200	0.702300
C2031	C203	0.295440	0.653600	0.720700
H1551	H155	0.295600	0.619400	0.746000
C2041	C204	0.237600	0.625000	0.633500
C2051	C205	0.107660	0.942500	0.526900
H1561	H156	0.091900	0.945300	0.536800
C2061	C206	0.121300	0.870200	0.540400
H1571	H157	0.115800	0.822600	0.558400
C2071	C207	0.145600	0.873900	0.523800
C2081	C208	0.154830	0.943700	0.496000
H1581	H158	0.170500	0.942200	0.485900
C2091	C209	0.139230	0.012000	0.485500
H1591	H159	0.144800	0.061000	0.468100
C2101	C210	0.182490	0.786400	0.538800
C2111	C211	0.185590	0.537400	0.579100
C2121	C212	0.204000	0.538100	0.607400
H1601	H160	0.207400	0.488000	0.625800
C2131	C213	0.216980	0.621000	0.605900
C2141	C214	0.210060	0.702900	0.588000
H1611	H161	0.217600	0.760100	0.594800
C2151	C215	0.191180	0.700100	0.559000
C2161	C216	0.178080	0.614900	0.554400
H1621	H162	0.165100	0.610200	0.535900
O281	O28	0.422070	0.542200	0.618300
O291	O29	0.497060	0.378400	0.593200
O301	O30	0.487740	0.854200	0.536800
N551	N55	0.363820	0.733200	0.706810
N561	N56	0.569980	0.220100	0.523400
N571	N57	0.569140	0.022200	0.533600
N581	N58	0.423670	0.694700	0.629500
H1631	H163	0.431500	0.746300	0.624100
N591	N59	0.522860	0.443100	0.546300
H1641	H164	0.525300	0.491300	0.529900
N601	N60	0.522530	0.800000	0.560800
H1651	H165	0.529000	0.751600	0.573100
C2171	C217	0.366820	0.658300	0.683200
H1661	H166	0.355400	0.610400	0.686000
C2181	C218	0.384220	0.642100	0.655500
H1671	H167	0.384100	0.588100	0.638400
C2191	C219	0.402550	0.707500	0.652800
C2201	C220	0.400120	0.785700	0.675700
H1681	H168	0.411700	0.833100	0.672300
C2211	C221	0.382460	0.802300	0.703400
H1691	H169	0.382300	0.857200	0.719900
C2221	C222	0.432910	0.621500	0.615500
C2231	C223	0.567860	0.290600	0.500000
H1701	H170	0.576700	0.292400	0.475000
C2241	C224	0.553460	0.364000	0.509000
H1711	H171	0.553600	0.416600	0.490900
C2251	C225	0.538550	0.365300	0.543600
C2261	C226	0.539930	0.288300	0.571000
H1721	H172	0.530400	0.283400	0.595200
C2271	C227	0.556720	0.218200	0.559400
H1731	H173	0.558900	0.167000	0.577800
C2281	C228	0.504480	0.446100	0.572900
C2291	C229	0.575070	0.953700	0.558500
H1741	H174	0.590600	0.954200	0.569500
C2301	C230	0.560690	0.881500	0.569700
H1751	H175	0.565300	0.836900	0.590000
C2311	C231	0.538380	0.876800	0.549300
C2321	C232	0.531000	0.945500	0.522900
H1761	H176	0.515500	0.946200	0.511700
C2331	C233	0.548740	0.019700	0.512800
H1771	H177	0.545500	0.064500	0.491800
C2341	C234	0.499080	0.796400	0.554300
C2351	C235	0.457090	0.620900	0.597400
C2361	C236	0.469510	0.538400	0.594800
H1781	H178	0.463200	0.483100	0.606800
C2371	C237	0.491270	0.535500	0.574400
C2381	C238	0.501750	0.620700	0.564200
H1791	H179	0.517800	0.621600	0.556200
C2391	C239	0.489160	0.705200	0.565400
C2401	C240	0.468200	0.708300	0.585200
H1801	H180	0.460800	0.766300	0.590900
Cu81	Cu8	0.093860	0.382100	0.017680
O311	O31	0.170840	0.107300	0.893900
O321	O32	0.232230	0.912200	0.824300
O331	O33	0.196810	0.653500	0.975400
N611	N61	0.117230	0.288900	0.994900
N621	N62	0.315610	0.780100	0.787610
N631	N63	0.115240	0.484200	0.001500
N641	N64	0.161850	0.068100	0.959000
H1811	H181	0.164400	0.021800	0.976400
N651	N65	0.256090	0.818400	0.871400
H1821	H182	0.256900	0.783400	0.893800
N661	N66	0.159110	0.704900	0.959900
H1831	H183	0.151100	0.750500	0.948200
C2411	C241	0.127170	0.285900	0.955000
H1841	H184	0.123700	0.334100	0.935700
C2421	C242	0.142210	0.212600	0.943200
H1851	H185	0.148500	0.207600	0.915900
C2431	C243	0.147460	0.145200	0.975500
C2441	C244	0.138860	0.141200	0.020900
H1861	H186	0.142900	0.097500	0.041900
C2451	C245	0.122740	0.222200	0.023900
H1871	H187	0.115000	0.229000	0.049900
C2461	C246	0.171570	0.058500	0.921200
C2471	C247	0.312060	0.748800	0.822000
H1881	H188	0.325200	0.713000	0.830900
C2481	C248	0.292810	0.749400	0.855600
H1891	H189	0.292700	0.715100	0.880800
C2491	C249	0.275010	0.812600	0.840900
C2501	C250	0.277520	0.859900	0.805000
H1901	H190	0.265900	0.904800	0.797700
C2511	C251	0.295440	0.846400	0.779300
H1911	H191	0.295600	0.880600	0.754000
C2521	C252	0.237600	0.875000	0.866500
C2531	C253	0.107660	0.557500	0.973100
H1921	H192	0.091900	0.554700	0.963200
C2541	C254	0.121300	0.629800	0.959600
H1931	H193	0.115800	0.677400	0.941600
C2551	C255	0.145600	0.626100	0.976200
C2561	C256	0.154830	0.556300	0.004000
H1941	H194	0.170500	0.557800	0.014100
C2571	C257	0.139230	0.488000	0.014500
H1951	H195	0.144800	0.439000	0.031900
C2581	C258	0.182490	0.713600	0.961200
C2591	C259	0.185590	0.962600	0.920900
C2601	C260	0.204000	0.961900	0.892600
H1961	H196	0.207400	0.012000	0.874200
C2611	C261	0.216980	0.879000	0.894100
C2621	C262	0.210060	0.797100	0.912000
H1971	H197	0.217600	0.739900	0.905200
C2631	C263	0.191180	0.799900	0.941000
C2641	C264	0.178080	0.885100	0.945600
H1981	H198	0.165100	0.889800	0.964100
O341	O34	0.422070	0.957800	0.881700
O351	O35	0.497060	0.121600	0.906800
O361	O36	0.487740	0.645800	0.963200
N671	N67	0.363820	0.766800	0.793190
N681	N68	0.569980	0.279900	0.976600
N691	N69	0.569140	0.477800	0.966400
N701	N70	0.423670	0.805300	0.870500
H1991	H199	0.431500	0.753700	0.875900
N711	N71	0.522860	0.056900	0.953700
H2001	H200	0.525300	0.008700	0.970100
N721	N72	0.522530	0.700000	0.939200
H2011	H201	0.529000	0.748400	0.926900
C2651	C265	0.366820	0.841700	0.816800
H2021	H202	0.355400	0.889600	0.814000
C2661	C266	0.384220	0.857900	0.844500
H2031	H203	0.384100	0.911900	0.861600
C2671	C267	0.402550	0.792500	0.847200
C2681	C268	0.400120	0.714300	0.824300
H2041	H204	0.411700	0.666900	0.827700
C2691	C269	0.382460	0.697700	0.796600
H2051	H205	0.382300	0.642800	0.780100
C2701	C270	0.432910	0.878500	0.884500
C2711	C271	0.567860	0.209400	0.000000
H2061	H206	0.576700	0.207600	0.025000
C2721	C272	0.553460	0.136000	0.991000
H2071	H207	0.553600	0.083400	0.009100
C2731	C273	0.538550	0.134700	0.956400
C2741	C274	0.539930	0.211700	0.929000
H2081	H208	0.530400	0.216600	0.904800
C2751	C275	0.556720	0.281800	0.940600
H2091	H209	0.558900	0.333000	0.922200
C2761	C276	0.504480	0.053900	0.927100
C2771	C277	0.575070	0.546300	0.941500
H2101	H210	0.590600	0.545800	0.930500
C2781	C278	0.560690	0.618500	0.930300
H2111	H211	0.565300	0.663100	0.910000
C2791	C279	0.538380	0.623200	0.950700
C2801	C280	0.531000	0.554500	0.977100
H2121	H212	0.515500	0.553800	0.988300
C2811	C281	0.548740	0.480300	0.987200
H2131	H213	0.545500	0.435500	0.008200
C2821	C282	0.499080	0.703600	0.945700
C2831	C283	0.457090	0.879100	0.902600
C2841	C284	0.469510	0.961600	0.905200
H2141	H214	0.463200	0.016900	0.893200
C2851	C285	0.491270	0.964500	0.925600
C2861	C286	0.501750	0.879300	0.935800
H2151	H215	0.517800	0.878400	0.943800
C2871	C287	0.489160	0.794800	0.934600
C2881	C288	0.468200	0.791700	0.914800
H2161	H216	0.460800	0.733700	0.909100
Cu91	Cu9	0.593860	0.117900	0.517680
O371	O37	0.670840	0.392700	0.393900
O381	O38	0.732230	0.587800	0.324300
O391	O39	0.696810	0.846500	0.475400
N731	N73	0.617230	0.211100	0.494900
N741	N74	0.815610	0.719900	0.287610
N751	N75	0.615240	0.015800	0.501500
N761	N76	0.661850	0.431900	0.459000
H2171	H217	0.664400	0.478200	0.476400
N771	N77	0.756090	0.681600	0.371400
H2181	H218	0.756900	0.716600	0.393800
N781	N78	0.659110	0.795100	0.459900
H2191	H219	0.651100	0.749500	0.448200
C2891	C289	0.627170	0.214100	0.455000
H2201	H220	0.623700	0.165900	0.435700
C2901	C290	0.642210	0.287400	0.443200
H2211	H221	0.648500	0.292400	0.415900
C2911	C291	0.647460	0.354800	0.475500
C2921	C292	0.638860	0.358800	0.520900
H2221	H222	0.642900	0.402500	0.541900
C2931	C293	0.622740	0.277800	0.523900
H2231	H223	0.615000	0.271000	0.549900
C2941	C294	0.671570	0.441500	0.421200
C2951	C295	0.812060	0.751200	0.322000
H2241	H224	0.825200	0.787000	0.330900
C2961	C296	0.792810	0.750600	0.355600
H2251	H225	0.792700	0.784900	0.380800
C2971	C297	0.775010	0.687400	0.340900
C2981	C298	0.777520	0.640100	0.305000
H2261	H226	0.765900	0.595200	0.297700
C2991	C299	0.795440	0.653600	0.279300
H2271	H227	0.795600	0.619400	0.254000
C3001	C300	0.737600	0.625000	0.366500
C3011	C301	0.607660	0.942500	0.473100
H2281	H228	0.591900	0.945300	0.463200
C3021	C302	0.621300	0.870200	0.459600
H2291	H229	0.615800	0.822600	0.441600
C3031	C303	0.645600	0.873900	0.476200
C3041	C304	0.654830	0.943700	0.504000
H2301	H230	0.670500	0.942200	0.514100
C3051	C305	0.639230	0.012000	0.514500
H2311	H231	0.644800	0.061000	0.531900
C3061	C306	0.682490	0.786400	0.461200
C3071	C307	0.685590	0.537400	0.420900
C3081	C308	0.704000	0.538100	0.392600
H2321	H232	0.707400	0.488000	0.374200
C3091	C309	0.716980	0.621000	0.394100
C3101	C310	0.710060	0.702900	0.412000
H2331	H233	0.717600	0.760100	0.405200
C3111	C311	0.691180	0.700100	0.441000
C3121	C312	0.678080	0.614900	0.445600
H2341	H234	0.665100	0.610200	0.464100
O401	O40	0.922070	0.542200	0.381700
O411	O41	0.997060	0.378400	0.406800
O421	O42	0.987740	0.854200	0.463200
N791	N79	0.863820	0.733200	0.293190
N801	N80	0.069980	0.220100	0.476600
N811	N81	0.069140	0.022200	0.466400
N821	N82	0.923670	0.694700	0.370500
H2351	H235	0.931500	0.746300	0.375900
N831	N83	0.022860	0.443100	0.453700
H2361	H236	0.025300	0.491300	0.470100
N841	N84	0.022530	0.800000	0.439200
H2371	H237	0.029000	0.751600	0.426900
C3131	C313	0.866820	0.658300	0.316800
H2381	H238	0.855400	0.610400	0.314000
C3141	C314	0.884220	0.642100	0.344500
H2391	H239	0.884100	0.588100	0.361600
C3151	C315	0.902550	0.707500	0.347200
C3161	C316	0.900120	0.785700	0.324300
H2401	H240	0.911700	0.833100	0.327700
C3171	C317	0.882460	0.802300	0.296600
H2411	H241	0.882300	0.857200	0.280100
C3181	C318	0.932910	0.621500	0.384500
C3191	C319	0.067860	0.290600	0.500000
H2421	H242	0.076700	0.292400	0.525000
C3201	C320	0.053460	0.364000	0.491000
H2431	H243	0.053600	0.416600	0.509100
C3211	C321	0.038550	0.365300	0.456400
C3221	C322	0.039930	0.288300	0.429000
H2441	H244	0.030400	0.283400	0.404800
C3231	C323	0.056720	0.218200	0.440600
H2451	H245	0.058900	0.167000	0.422200
C3241	C324	0.004480	0.446100	0.427100
C3251	C325	0.075070	0.953700	0.441500
H2461	H246	0.090600	0.954200	0.430500
C3261	C326	0.060690	0.881500	0.430300
H2471	H247	0.065300	0.836900	0.410000
C3271	C327	0.038380	0.876800	0.450700
C3281	C328	0.031000	0.945500	0.477100
H2481	H248	0.015500	0.946200	0.488300
C3291	C329	0.048740	0.019700	0.487200
H2491	H249	0.045500	0.064500	0.508200
C3301	C330	0.999080	0.796400	0.445700
C3311	C331	0.957090	0.620900	0.402600
C3321	C332	0.969510	0.538400	0.405200
H2501	H250	0.963200	0.483100	0.393200
C3331	C333	0.991270	0.535500	0.425600
C3341	C334	0.001750	0.620700	0.435800
H2511	H251	0.017800	0.621600	0.443800
C3351	C335	0.989160	0.705200	0.434600
C3361	C336	0.968200	0.708300	0.414800
H2521	H252	0.960800	0.766300	0.409100
Cu101	Cu10	0.593860	0.382100	0.982320
O431	O43	0.670840	0.107300	0.106100
O441	O44	0.732230	0.912200	0.175700
O451	O45	0.696810	0.653500	0.024600
N851	N85	0.617230	0.288900	0.005100
N861	N86	0.815610	0.780100	0.212390
N871	N87	0.615240	0.484200	0.998500
N881	N88	0.661850	0.068100	0.041000
H2531	H253	0.664400	0.021800	0.023600
N891	N89	0.756090	0.818400	0.128600
H2541	H254	0.756900	0.783400	0.106200
N901	N90	0.659110	0.704900	0.040100
H2551	H255	0.651100	0.750500	0.051800
C3371	C337	0.627170	0.285900	0.045000
H2561	H256	0.623700	0.334100	0.064300
C3381	C338	0.642210	0.212600	0.056800
H2571	H257	0.648500	0.207600	0.084100
C3391	C339	0.647460	0.145200	0.024500
C3401	C340	0.638860	0.141200	0.979100
H2581	H258	0.642900	0.097500	0.958100
C3411	C341	0.622740	0.222200	0.976100
H2591	H259	0.615000	0.229000	0.950100
C3421	C342	0.671570	0.058500	0.078800
C3431	C343	0.812060	0.748800	0.178000
H2601	H260	0.825200	0.713000	0.169100
C3441	C344	0.792810	0.749400	0.144400
H2611	H261	0.792700	0.715100	0.119200
C3451	C345	0.775010	0.812600	0.159100
C3461	C346	0.777520	0.859900	0.195000
H2621	H262	0.765900	0.904800	0.202300
C3471	C347	0.795440	0.846400	0.220700
H2631	H263	0.795600	0.880600	0.246000
C3481	C348	0.737600	0.875000	0.133500
C3491	C349	0.607660	0.557500	0.026900
H2641	H264	0.591900	0.554700	0.036800
C3501	C350	0.621300	0.629800	0.040400
H2651	H265	0.615800	0.677400	0.058400
C3511	C351	0.645600	0.626100	0.023800
C3521	C352	0.654830	0.556300	0.996000
H2661	H266	0.670500	0.557800	0.985900
C3531	C353	0.639230	0.488000	0.985500
H2671	H267	0.644800	0.439000	0.968100
C3541	C354	0.682490	0.713600	0.038800
C3551	C355	0.685590	0.962600	0.079100
C3561	C356	0.704000	0.961900	0.107400
H2681	H268	0.707400	0.012000	0.125800
C3571	C357	0.716980	0.879000	0.105900
C3581	C358	0.710060	0.797100	0.088000
H2691	H269	0.717600	0.739900	0.094800
C3591	C359	0.691180	0.799900	0.059000
C3601	C360	0.678080	0.885100	0.054400
H2701	H270	0.665100	0.889800	0.035900
O461	O46	0.922070	0.957800	0.118300
O471	O47	0.997060	0.121600	0.093200
O481	O48	0.987740	0.645800	0.036800
N911	N91	0.863820	0.766800	0.206810
N921	N92	0.069980	0.279900	0.023400
N931	N93	0.069140	0.477800	0.033600
N941	N94	0.923670	0.805300	0.129500
H2711	H271	0.931500	0.753700	0.124100
N951	N95	0.022860	0.056900	0.046300
H2721	H272	0.025300	0.008700	0.029900
N961	N96	0.022530	0.700000	0.060800
H2731	H273	0.029000	0.748400	0.073100
C3611	C361	0.866820	0.841700	0.183200
H2741	H274	0.855400	0.889600	0.186000
C3621	C362	0.884220	0.857900	0.155500
H2751	H275	0.884100	0.911900	0.138400
C3631	C363	0.902550	0.792500	0.152800
C3641	C364	0.900120	0.714300	0.175700
H2761	H276	0.911700	0.666900	0.172300
C3651	C365	0.882460	0.697700	0.203400
H2771	H277	0.882300	0.642800	0.219900
C3661	C366	0.932910	0.878500	0.115500
C3671	C367	0.067860	0.209400	0.000000
H2781	H278	0.076700	0.207600	0.975000
C3681	C368	0.053460	0.136000	0.009000
H2791	H279	0.053600	0.083400	0.990900
C3691	C369	0.038550	0.134700	0.043600
C3701	C370	0.039930	0.211700	0.071000
H2801	H280	0.030400	0.216600	0.095200
C3711	C371	0.056720	0.281800	0.059400
H2811	H281	0.058900	0.333000	0.077800
C3721	C372	0.004480	0.053900	0.072900
C3731	C373	0.075070	0.546300	0.058500
H2821	H282	0.090600	0.545800	0.069500
C3741	C374	0.060690	0.618500	0.069700
H2831	H283	0.065300	0.663100	0.090000
C3751	C375	0.038380	0.623200	0.049300
C3761	C376	0.031000	0.554500	0.022900
H2841	H284	0.015500	0.553800	0.011700
C3771	C377	0.048740	0.480300	0.012800
H2851	H285	0.045500	0.435500	0.991800
C3781	C378	0.999080	0.703600	0.054300
C3791	C379	0.957090	0.879100	0.097400
C3801	C380	0.969510	0.961600	0.094800
H2861	H286	0.963200	0.016900	0.106800
C3811	C381	0.991270	0.964500	0.074400
C3821	C382	0.001750	0.879300	0.064200
H2871	H287	0.017800	0.878400	0.056200
C3831	C383	0.989160	0.794800	0.065400
C3841	C384	0.968200	0.791700	0.085200
H2881	H288	0.960800	0.733700	0.090900
Cu111	Cu11	0.339680	0.750000	0.750000
Cu121	Cu12	0.839680	0.750000	0.250000
