data_XIGHIF_clean_PM
_symmetry_space_group_name_H-M	'P1'
_cell_length_a	14.845000
_cell_length_b	19.451800
_cell_length_c	30.800000
_cell_angle_alpha	101.946000
_cell_angle_beta	90.000000
_cell_angle_gamma	112.432000
_symmetry_Int_Tables_number 1

loop_
_symmetry_equiv_pos_as_xyz
'x,y,z'

loop_
_atom_site_label
_atom_site_type_symbol
_atom_site_fract_x
_atom_site_fract_y
_atom_site_fract_z
Zn11	Zn1	0.960930	0.170560	0.592920
Zn21	Zn2	0.814610	0.346300	0.773620
Zn31	Zn3	0.288130	0.760020	0.934280
Zn41	Zn4	0.209630	0.170560	0.092920
Zn51	Zn5	0.531690	0.346300	0.273620
Zn61	Zn6	0.471890	0.760020	0.434280
H11	H1	0.439900	0.696400	0.916000
H21	H2	0.465100	0.594800	0.872000
H31	H3	0.200000	0.531800	0.807500
H41	H4	0.183300	0.635800	0.853500
H51	H5	0.468000	0.300200	0.734800
H61	H6	0.612500	0.280200	0.732900
H71	H7	0.747300	0.469600	0.822100
H81	H8	0.607200	0.495000	0.827600
H91	H9	0.116200	0.395000	0.723100
H101	H10	0.999300	0.316400	0.664600
H111	H11	0.147400	0.186600	0.633000
H121	H12	0.269700	0.263200	0.687600
H131	H13	0.030700	0.041600	0.557800
H141	H14	0.150000	0.021000	0.514600
H151	H15	0.220800	0.230400	0.488600
H161	H16	0.104100	0.246600	0.534400
H171	H17	0.339400	0.956600	0.501200
H181	H18	0.378800	0.851600	0.496300
H191	H19	0.486000	0.872800	0.382400
H201	H20	0.445600	0.976800	0.382400
H211	H21	0.343600	0.264800	0.400600
H221	H22	0.409100	0.341000	0.352600
H231	H23	0.557800	0.220400	0.306400
H241	H24	0.491900	0.137400	0.351700
H251	H25	0.256500	0.696400	0.416000
H261	H26	0.129700	0.594800	0.372000
H271	H27	0.331800	0.531800	0.307500
H281	H28	0.452500	0.635800	0.353500
H291	H29	0.832200	0.300200	0.234800
H301	H30	0.667700	0.280200	0.232900
H311	H31	0.722300	0.469600	0.322100
H321	H32	0.887800	0.495000	0.327600
H331	H33	0.278800	0.395000	0.223100
H341	H34	0.317100	0.316400	0.164600
H351	H35	0.039200	0.186600	0.133000
H361	H36	0.993500	0.263200	0.187600
H371	H37	0.010900	0.041600	0.057800
H381	H38	0.871000	0.021000	0.014600
H391	H39	0.009600	0.230400	0.988600
H401	H40	0.142500	0.246600	0.034400
H411	H41	0.617200	0.956600	0.001200
H421	H42	0.472800	0.851600	0.996300
H431	H43	0.386800	0.872800	0.882400
H441	H44	0.531200	0.976800	0.882400
H451	H45	0.921200	0.264800	0.900600
H461	H46	0.931900	0.341000	0.852600
H471	H47	0.662600	0.220400	0.806400
H481	H48	0.645500	0.137400	0.851700
C11	C1	0.389890	0.661780	0.893800
C21	C2	0.406020	0.601640	0.867600
C31	C3	0.334710	0.552020	0.835050
C41	C4	0.250590	0.564980	0.829900
C51	C5	0.240880	0.626760	0.857600
C61	C6	0.346820	0.487440	0.804440
C71	C7	0.431680	0.415760	0.780910
C81	C8	0.284720	0.386440	0.747150
C91	C9	0.522070	0.400540	0.781500
C101	C10	0.524590	0.335980	0.753300
C111	C11	0.611110	0.324420	0.752500
C121	C12	0.689260	0.434520	0.804400
C131	C13	0.606380	0.450360	0.807700
C141	C14	0.206200	0.337600	0.710900
C151	C15	0.124690	0.352980	0.704300
C161	C16	0.055240	0.305680	0.669600
C171	C17	0.142130	0.230660	0.651100
C181	C18	0.214200	0.275000	0.683700
C191	C19	0.070900	0.080600	0.544000
C201	C20	0.140990	0.067580	0.517840
C211	C21	0.197780	0.123360	0.496350
C221	C22	0.183110	0.191020	0.502800
C231	C23	0.113360	0.200120	0.529900
C241	C24	0.271680	0.111160	0.467400
C251	C25	0.362010	0.044220	0.442470
C261	C26	0.366780	0.140560	0.412100
C271	C27	0.388320	0.978240	0.442120
C281	C28	0.368990	0.940180	0.476000
C291	C29	0.393140	0.877880	0.472700
C301	C30	0.454500	0.889600	0.406800
C311	C31	0.431600	0.952200	0.406700
C321	C32	0.407690	0.190980	0.380500
C331	C33	0.386500	0.253000	0.380300
C341	C34	0.425600	0.298200	0.351700
C351	C35	0.510100	0.228200	0.325100
C361	C36	0.472700	0.179000	0.352400
C371	C37	0.271890	0.661780	0.393800
C381	C38	0.195620	0.601640	0.367600
C391	C39	0.217310	0.552020	0.335050
C401	C40	0.314390	0.564980	0.329900
C411	C41	0.385880	0.626760	0.357600
C421	C42	0.140620	0.487440	0.304440
C431	C43	0.984080	0.415760	0.280910
C441	C44	0.101720	0.386440	0.247150
C451	C45	0.878470	0.400540	0.281500
C461	C46	0.811390	0.335980	0.253300
C471	C47	0.713310	0.324420	0.252500
C481	C48	0.745260	0.434520	0.304400
C491	C49	0.843980	0.450360	0.307700
C501	C50	0.131400	0.337600	0.210900
C511	C51	0.228290	0.352980	0.204300
C521	C52	0.250440	0.305680	0.169600
C531	C53	0.088530	0.230660	0.151100
C541	C54	0.060800	0.275000	0.183700
C551	C55	0.009700	0.080600	0.044000
C561	C56	0.926590	0.067580	0.017840
C571	C57	0.925580	0.123360	0.996350
C581	C58	0.007910	0.191020	0.002800
C591	C59	0.086760	0.200120	0.029900
C601	C60	0.839480	0.111160	0.967400
C611	C61	0.682210	0.044220	0.942470
C621	C62	0.773780	0.140560	0.912100
C631	C63	0.589920	0.978240	0.942120
C641	C64	0.571190	0.940180	0.976000
C651	C65	0.484740	0.877880	0.972700
C661	C66	0.435100	0.889600	0.906800
C671	C67	0.520600	0.952200	0.906700
C681	C68	0.783290	0.190980	0.880500
C691	C69	0.866500	0.253000	0.880300
C701	C70	0.872600	0.298200	0.851700
C711	C71	0.718100	0.228200	0.825100
C721	C72	0.706300	0.179000	0.852400
I11	I1	0.158270	0.788480	0.897180
I21	I2	0.967640	0.466640	0.797640
I31	I3	0.790060	0.249510	0.700450
I41	I4	0.273070	0.719380	0.007870
I51	I5	0.888520	0.241540	0.552910
I61	I6	0.868090	0.055200	0.624100
I71	I7	0.630210	0.788480	0.397180
I81	I8	0.499000	0.466640	0.297640
I91	I9	0.459450	0.249510	0.200450
I101	I10	0.446310	0.719380	0.507870
I111	I11	0.353020	0.241540	0.052910
I121	I12	0.187110	0.055200	0.124100
N11	N1	0.309180	0.674160	0.889820
N21	N2	0.274290	0.445980	0.772570
N31	N3	0.361160	0.368520	0.749720
N41	N4	0.428130	0.475060	0.810270
N51	N5	0.064490	0.245780	0.643060
N61	N6	0.691650	0.371900	0.777460
N71	N7	0.485670	0.285340	0.322500
N81	N8	0.302140	0.056480	0.472320
N91	N9	0.397800	0.085200	0.411920
N101	N10	0.302080	0.155160	0.437830
N111	N11	0.057610	0.146020	0.550550
N121	N12	0.435010	0.852220	0.439020
N131	N13	0.364980	0.674160	0.389820
N141	N14	0.171690	0.445980	0.272570
N151	N15	0.007360	0.368520	0.249720
N161	N16	0.046930	0.475060	0.310270
N171	N17	0.181290	0.245780	0.143060
N181	N18	0.680250	0.371900	0.277460
N191	N19	0.799670	0.285340	0.822500
N201	N20	0.754340	0.056480	0.972320
N211	N21	0.687400	0.085200	0.911920
N221	N22	0.853080	0.155160	0.937830
N231	N23	0.088410	0.146020	0.050550
N241	N24	0.417210	0.852220	0.939020
Zn71	Zn7	0.790370	0.829440	0.907080
Zn81	Zn8	0.468310	0.653700	0.726380
Zn91	Zn9	0.528110	0.239980	0.565720
Zn101	Zn10	0.039070	0.829440	0.407080
Zn111	Zn11	0.185390	0.653700	0.226380
Zn121	Zn12	0.711870	0.239980	0.065720
H491	H49	0.743500	0.303600	0.584000
H501	H50	0.870300	0.405200	0.628000
H511	H51	0.668200	0.468200	0.692500
H521	H52	0.547500	0.364200	0.646500
H531	H53	0.167800	0.699800	0.765200
H541	H54	0.332300	0.719800	0.767100
H551	H55	0.277700	0.530400	0.677900
H561	H56	0.112200	0.505000	0.672400
H571	H57	0.721200	0.605000	0.776900
H581	H58	0.682900	0.683600	0.835400
H591	H59	0.960800	0.813400	0.867000
H601	H60	0.006500	0.736800	0.812400
H611	H61	0.989100	0.958400	0.942200
H621	H62	0.129000	0.979000	0.985400
H631	H63	0.990400	0.769600	0.011400
H641	H64	0.857500	0.753400	0.965600
H651	H65	0.382800	0.043400	0.998800
H661	H66	0.527200	0.148400	0.003700
H671	H67	0.613200	0.127200	0.117600
H681	H68	0.468800	0.023200	0.117600
H691	H69	0.078800	0.735200	0.099400
H701	H70	0.068100	0.659000	0.147400
H711	H71	0.337400	0.779600	0.193600
H721	H72	0.354500	0.862600	0.148300
H731	H73	0.560100	0.303600	0.084000
H741	H74	0.534900	0.405200	0.128000
H751	H75	0.800000	0.468200	0.192500
H761	H76	0.816700	0.364200	0.146500
H771	H77	0.532000	0.699800	0.265200
H781	H78	0.387500	0.719800	0.267100
H791	H79	0.252700	0.530400	0.177900
H801	H80	0.392800	0.505000	0.172400
H811	H81	0.883800	0.605000	0.276900
H821	H82	0.000700	0.683600	0.335400
H831	H83	0.852600	0.813400	0.367000
H841	H84	0.730300	0.736800	0.312400
H851	H85	0.969300	0.958400	0.442200
H861	H86	0.850000	0.979000	0.485400
H871	H87	0.779200	0.769600	0.511400
H881	H88	0.895900	0.753400	0.465600
H891	H89	0.660600	0.043400	0.498800
H901	H90	0.621200	0.148400	0.503700
H911	H91	0.514000	0.127200	0.617600
H921	H92	0.554400	0.023200	0.617600
H931	H93	0.656400	0.735200	0.599400
H941	H94	0.590900	0.659000	0.647400
H951	H95	0.442200	0.779600	0.693600
H961	H96	0.508100	0.862600	0.648300
C731	C73	0.728110	0.338220	0.606200
C741	C74	0.804380	0.398360	0.632400
C751	C75	0.782690	0.447980	0.664950
C761	C76	0.685610	0.435020	0.670100
C771	C77	0.614120	0.373240	0.642400
C781	C78	0.859380	0.512560	0.695560
C791	C79	0.015920	0.584240	0.719090
C801	C80	0.898280	0.613560	0.752850
C811	C81	0.121530	0.599460	0.718500
C821	C82	0.188610	0.664020	0.746700
C831	C83	0.286690	0.675580	0.747500
C841	C84	0.254740	0.565480	0.695600
C851	C85	0.156020	0.549640	0.692300
C861	C86	0.868600	0.662400	0.789100
C871	C87	0.771710	0.647020	0.795700
C881	C88	0.749560	0.694320	0.830400
C891	C89	0.911470	0.769340	0.848900
C901	C90	0.939200	0.725000	0.816300
C911	C91	0.990300	0.919400	0.956000
C921	C92	0.073410	0.932420	0.982160
C931	C93	0.074420	0.876640	0.003650
C941	C94	0.992090	0.808980	0.997200
C951	C95	0.913240	0.799880	0.970100
C961	C96	0.160520	0.888840	0.032600
C971	C97	0.317790	0.955780	0.057530
C981	C98	0.226220	0.859440	0.087900
C991	C99	0.410080	0.021760	0.057880
C1001	C100	0.428810	0.059820	0.024000
C1011	C101	0.515260	0.122120	0.027300
C1021	C102	0.564900	0.110400	0.093200
C1031	C103	0.479400	0.047800	0.093300
C1041	C104	0.216710	0.809020	0.119500
C1051	C105	0.133500	0.747000	0.119700
C1061	C106	0.127400	0.701800	0.148300
C1071	C107	0.281900	0.771800	0.174900
C1081	C108	0.293700	0.821000	0.147600
C1091	C109	0.610110	0.338220	0.106200
C1101	C110	0.593980	0.398360	0.132400
C1111	C111	0.665290	0.447980	0.164950
C1121	C112	0.749410	0.435020	0.170100
C1131	C113	0.759120	0.373240	0.142400
C1141	C114	0.653180	0.512560	0.195560
C1151	C115	0.568320	0.584240	0.219090
C1161	C116	0.715280	0.613560	0.252850
C1171	C117	0.477930	0.599460	0.218500
C1181	C118	0.475410	0.664020	0.246700
C1191	C119	0.388890	0.675580	0.247500
C1201	C120	0.310740	0.565480	0.195600
C1211	C121	0.393620	0.549640	0.192300
C1221	C122	0.793800	0.662400	0.289100
C1231	C123	0.875310	0.647020	0.295700
C1241	C124	0.944760	0.694320	0.330400
C1251	C125	0.857870	0.769340	0.348900
C1261	C126	0.785800	0.725000	0.316300
C1271	C127	0.929100	0.919400	0.456000
C1281	C128	0.859010	0.932420	0.482160
C1291	C129	0.802220	0.876640	0.503650
C1301	C130	0.816890	0.808980	0.497200
C1311	C131	0.886640	0.799880	0.470100
C1321	C132	0.728320	0.888840	0.532600
C1331	C133	0.637990	0.955780	0.557530
C1341	C134	0.633220	0.859440	0.587900
C1351	C135	0.611680	0.021760	0.557880
C1361	C136	0.631010	0.059820	0.524000
C1371	C137	0.606860	0.122120	0.527300
C1381	C138	0.545500	0.110400	0.593200
C1391	C139	0.568400	0.047800	0.593300
C1401	C140	0.592310	0.809020	0.619500
C1411	C141	0.613500	0.747000	0.619700
C1421	C142	0.574400	0.701800	0.648300
C1431	C143	0.489900	0.771800	0.674900
C1441	C144	0.527300	0.821000	0.647600
I131	I13	0.369790	0.211520	0.602820
I141	I14	0.501000	0.533360	0.702360
I151	I15	0.540550	0.750490	0.799550
I161	I16	0.553690	0.280620	0.492130
I171	I17	0.646980	0.758460	0.947090
I181	I18	0.812890	0.944800	0.875900
I191	I19	0.841730	0.211520	0.102820
I201	I20	0.032360	0.533360	0.202360
I211	I21	0.209940	0.750490	0.299550
I221	I22	0.726930	0.280620	0.992130
I231	I23	0.111480	0.758460	0.447090
I241	I24	0.131910	0.944800	0.375900
N251	N25	0.635020	0.325840	0.610180
N261	N26	0.828310	0.554020	0.727430
N271	N27	0.992640	0.631480	0.750280
N281	N28	0.953070	0.524940	0.689730
N291	N29	0.818710	0.754220	0.856940
N301	N30	0.319750	0.628100	0.722540
N311	N31	0.200330	0.714660	0.177500
N321	N32	0.245660	0.943520	0.027680
N331	N33	0.312600	0.914800	0.088080
N341	N34	0.146920	0.844840	0.062170
N351	N35	0.911590	0.853980	0.949450
N361	N36	0.582790	0.147780	0.060980
N371	N37	0.690820	0.325840	0.110180
N381	N38	0.725710	0.554020	0.227430
N391	N39	0.638840	0.631480	0.250280
N401	N40	0.571870	0.524940	0.189730
N411	N41	0.935510	0.754220	0.356940
N421	N42	0.308350	0.628100	0.222540
N431	N43	0.514330	0.714660	0.677500
N441	N44	0.697860	0.943520	0.527680
N451	N45	0.602200	0.914800	0.588080
N461	N46	0.697920	0.844840	0.562170
N471	N47	0.942390	0.853980	0.449450
N481	N48	0.564990	0.147780	0.560980
