data_XIHSEN01_clean_PM
_symmetry_space_group_name_H-M	'P1'
_cell_length_a	11.220000
_cell_length_b	11.220000
_cell_length_c	21.149000
_cell_angle_alpha	95.732900
_cell_angle_beta	95.732900
_cell_angle_gamma	107.107000
_symmetry_Int_Tables_number 1

loop_
_symmetry_equiv_pos_as_xyz
'x,y,z'

loop_
_atom_site_label
_atom_site_type_symbol
_atom_site_fract_x
_atom_site_fract_y
_atom_site_fract_z
Co11	Co1	0.019880	0.505260	0.807070
Co21	Co2	0.494740	0.980120	0.692930
Co31	Co3	0.980120	0.494740	0.192930
Co41	Co4	0.505260	0.019880	0.307070
Co51	Co5	0.247160	0.752840	0.750000
Co61	Co6	0.752840	0.247160	0.250000
H11	H1	0.048400	0.652000	0.609100
H21	H2	0.030600	0.743200	0.506400
H31	H3	0.006200	0.719200	0.396900
H41	H4	0.238300	0.010100	0.529500
H51	H5	0.170200	0.064800	0.422800
H61	H6	0.518700	0.733500	0.905400
H71	H7	0.285700	0.395100	0.923000
H81	H8	0.343000	0.277800	0.009700
H91	H9	0.982000	0.900600	0.647000
H101	H10	0.348000	0.951600	0.890900
H111	H11	0.256800	0.969400	0.993600
H121	H12	0.280800	0.993800	0.103100
H131	H13	0.989900	0.761700	0.970500
H141	H14	0.935200	0.829800	0.077200
H151	H15	0.266500	0.481300	0.594600
H161	H16	0.604900	0.714300	0.577000
H171	H17	0.722200	0.657000	0.490300
H181	H18	0.099400	0.018000	0.853000
H191	H19	0.951600	0.348000	0.390900
H201	H20	0.969400	0.256800	0.493600
H211	H21	0.993800	0.280800	0.603100
H221	H22	0.761700	0.989900	0.470500
H231	H23	0.829800	0.935200	0.577200
H241	H24	0.481300	0.266500	0.094600
H251	H25	0.714300	0.604900	0.077000
H261	H26	0.657000	0.722200	0.990300
H271	H27	0.018000	0.099400	0.353000
H281	H28	0.652000	0.048400	0.109100
H291	H29	0.743200	0.030600	0.006400
H301	H30	0.719200	0.006200	0.896900
H311	H31	0.010100	0.238300	0.029500
H321	H32	0.064800	0.170200	0.922800
H331	H33	0.733500	0.518700	0.405400
H341	H34	0.395100	0.285700	0.423000
H351	H35	0.277800	0.343000	0.509700
H361	H36	0.900600	0.982000	0.147000
C11	C1	0.011400	0.560400	0.517730
C21	C2	0.030700	0.572900	0.585490
C31	C3	0.033900	0.483500	0.688200
C41	C4	0.016300	0.663900	0.483700
C51	C5	0.023700	0.471300	0.616750
C61	C6	0.000800	0.649800	0.418350
C71	C7	0.061700	0.012500	0.492000
C81	C8	0.222600	0.920800	0.640030
C91	C9	0.155900	0.993100	0.538300
C101	C10	0.126400	0.951000	0.593900
C111	C11	0.089500	0.051700	0.433500
C121	C12	0.444100	0.450700	0.989870
C131	C13	0.500200	0.663000	0.926700
C141	C14	0.387500	0.564900	0.906340
C151	C15	0.359800	0.460400	0.936890
C161	C16	0.294400	0.576800	0.851600
C171	C17	0.417200	0.343600	0.022700
C181	C18	0.002000	0.928800	0.608400
C191	C19	0.439600	0.988600	0.982270
C201	C20	0.427100	0.969300	0.914510
C211	C21	0.516500	0.966100	0.811800
C221	C22	0.336100	0.983700	0.016300
C231	C23	0.528700	0.976300	0.883250
C241	C24	0.350200	0.999200	0.081650
C251	C25	0.987500	0.938300	0.008000
C261	C26	0.079200	0.777400	0.859970
C271	C27	0.006900	0.844100	0.961700
C281	C28	0.049000	0.873600	0.906100
C291	C29	0.948300	0.910500	0.066500
C301	C30	0.549300	0.555900	0.510130
C311	C31	0.337000	0.499800	0.573300
C321	C32	0.435100	0.612500	0.593660
C331	C33	0.539600	0.640200	0.563110
C341	C34	0.423200	0.705600	0.648400
C351	C35	0.656400	0.582800	0.477300
C361	C36	0.071200	0.998000	0.891600
C371	C37	0.988600	0.439600	0.482270
C381	C38	0.969300	0.427100	0.414510
C391	C39	0.966100	0.516500	0.311800
C401	C40	0.983700	0.336100	0.516300
C411	C41	0.976300	0.528700	0.383250
C421	C42	0.999200	0.350200	0.581650
C431	C43	0.938300	0.987500	0.508000
C441	C44	0.777400	0.079200	0.359970
C451	C45	0.844100	0.006900	0.461700
C461	C46	0.873600	0.049000	0.406100
C471	C47	0.910500	0.948300	0.566500
C481	C48	0.555900	0.549300	0.010130
C491	C49	0.499800	0.337000	0.073300
C501	C50	0.612500	0.435100	0.093660
C511	C51	0.640200	0.539600	0.063110
C521	C52	0.705600	0.423200	0.148400
C531	C53	0.582800	0.656400	0.977300
C541	C54	0.998000	0.071200	0.391600
C551	C55	0.560400	0.011400	0.017730
C561	C56	0.572900	0.030700	0.085490
C571	C57	0.483500	0.033900	0.188200
C581	C58	0.663900	0.016300	0.983700
C591	C59	0.471300	0.023700	0.116750
C601	C60	0.649800	0.000800	0.918350
C611	C61	0.012500	0.061700	0.992000
C621	C62	0.920800	0.222600	0.140030
C631	C63	0.993100	0.155900	0.038300
C641	C64	0.951000	0.126400	0.093900
C651	C65	0.051700	0.089500	0.933500
C661	C66	0.450700	0.444100	0.489870
C671	C67	0.663000	0.500200	0.426700
C681	C68	0.564900	0.387500	0.406340
C691	C69	0.460400	0.359800	0.436890
C701	C70	0.576800	0.294400	0.351600
C711	C71	0.343600	0.417200	0.522700
C721	C72	0.928800	0.002000	0.108400
O11	O1	0.077600	0.592200	0.721110
O21	O2	0.181570	0.860630	0.683660
O31	O3	0.994210	0.388190	0.714900
O41	O4	0.190650	0.491150	0.841020
O51	O5	0.328250	0.668550	0.822470
O61	O6	0.337000	0.959600	0.630340
O71	O7	0.407800	0.922400	0.778890
O81	O8	0.139370	0.818430	0.816340
O91	O9	0.611810	0.005790	0.785100
O101	O10	0.508850	0.809350	0.658980
O111	O11	0.331450	0.671750	0.677530
O121	O12	0.040400	0.663000	0.869660
O131	O13	0.922400	0.407800	0.278890
O141	O14	0.818430	0.139370	0.316340
O151	O15	0.005790	0.611810	0.285100
O161	O16	0.809350	0.508850	0.158980
O171	O17	0.671750	0.331450	0.177530
O181	O18	0.663000	0.040400	0.369660
O191	O19	0.592200	0.077600	0.221110
O201	O20	0.860630	0.181570	0.183660
O211	O21	0.388190	0.994210	0.214900
O221	O22	0.491150	0.190650	0.341020
O231	O23	0.668550	0.328250	0.322470
O241	O24	0.959600	0.337000	0.130340
