data_XIHXET_clean_PM
_symmetry_space_group_name_H-M	'P1'
_cell_length_a	7.457400
_cell_length_b	12.463000
_cell_length_c	29.451000
_cell_angle_alpha	96.324000
_cell_angle_beta	90.000000
_cell_angle_gamma	90.000000
_symmetry_Int_Tables_number 1

loop_
_symmetry_equiv_pos_as_xyz
'x,y,z'

loop_
_atom_site_label
_atom_site_type_symbol
_atom_site_fract_x
_atom_site_fract_y
_atom_site_fract_z
Mn11	Mn1	0.431860	0.484110	0.767290
Mn21	Mn2	0.931860	0.515890	0.732710
Mn31	Mn3	0.568140	0.515890	0.232710
Mn41	Mn4	0.068140	0.484110	0.267290
Mn51	Mn5	0.500000	0.000000	0.500000
Mn61	Mn6	0.000000	0.000000	0.000000
Mn71	Mn7	0.000000	0.000000	0.500000
Mn81	Mn8	0.500000	0.000000	0.000000
H11	H1	0.462000	0.359200	0.512800
H21	H2	0.464600	0.535100	0.545800
H31	H3	0.129300	0.454900	0.642600
H41	H4	0.104400	0.284700	0.605300
H51	H5	0.270900	0.693100	0.557400
H61	H6	0.241000	0.788800	0.712500
H71	H7	0.999300	0.998700	0.631900
H81	H8	0.964700	0.177600	0.660800
H91	H9	0.373500	0.148300	0.746900
H101	H10	0.395500	0.967000	0.720700
H111	H11	0.962000	0.640800	0.987200
H121	H12	0.964600	0.464900	0.954200
H131	H13	0.629300	0.545100	0.857400
H141	H14	0.604400	0.715300	0.894700
H151	H15	0.770900	0.306900	0.942600
H161	H16	0.741000	0.211200	0.787500
H171	H17	0.499300	0.001300	0.868100
H181	H18	0.464700	0.822400	0.839200
H191	H19	0.873500	0.851700	0.753100
H201	H20	0.895500	0.033000	0.779300
H211	H21	0.538000	0.640800	0.487200
H221	H22	0.535400	0.464900	0.454200
H231	H23	0.870700	0.545100	0.357400
H241	H24	0.895600	0.715300	0.394700
H251	H25	0.729100	0.306900	0.442600
H261	H26	0.759000	0.211200	0.287500
H271	H27	0.000700	0.001300	0.368100
H281	H28	0.035300	0.822400	0.339200
H291	H29	0.626500	0.851700	0.253100
H301	H30	0.604500	0.033000	0.279300
H311	H31	0.038000	0.359200	0.012800
H321	H32	0.035400	0.535100	0.045800
H331	H33	0.370700	0.454900	0.142600
H341	H34	0.395600	0.284700	0.105300
H351	H35	0.229100	0.693100	0.057400
H361	H36	0.259000	0.788800	0.212500
H371	H37	0.500700	0.998700	0.131900
H381	H38	0.535300	0.177600	0.160800
H391	H39	0.126500	0.148300	0.246900
H401	H40	0.104500	0.967000	0.220700
C11	C1	0.266400	0.190800	0.531530
C21	C2	0.278300	0.303300	0.554540
C31	C3	0.389500	0.379300	0.538030
C41	C4	0.394100	0.484500	0.558450
C51	C5	0.296100	0.515600	0.597190
C61	C6	0.191300	0.437000	0.615460
C71	C7	0.179800	0.334400	0.593660
C81	C8	0.285500	0.630500	0.617740
C91	C9	0.267100	0.712200	0.588820
C101	C10	0.243700	0.819900	0.604950
C111	C11	0.230800	0.897500	0.568930
C121	C12	0.232800	0.850700	0.652100
C131	C13	0.249100	0.770000	0.681090
C141	C14	0.277100	0.662200	0.664710
C151	C15	0.311100	0.585100	0.699580
C161	C16	0.205300	0.966100	0.671720
C171	C17	0.075100	0.028700	0.654950
C181	C18	0.055200	0.136400	0.672010
C191	C19	0.169900	0.182900	0.705750
C201	C20	0.297600	0.118600	0.723780
C211	C21	0.313000	0.010300	0.707550
C221	C22	0.162900	0.304200	0.720230
C231	C23	0.766400	0.809200	0.968470
C241	C24	0.778300	0.696700	0.945460
C251	C25	0.889500	0.620700	0.961970
C261	C26	0.894100	0.515500	0.941550
C271	C27	0.796100	0.484400	0.902810
C281	C28	0.691300	0.563000	0.884540
C291	C29	0.679800	0.665600	0.906340
C301	C30	0.785500	0.369500	0.882260
C311	C31	0.767100	0.287800	0.911180
C321	C32	0.743700	0.180100	0.895050
C331	C33	0.730800	0.102500	0.931070
C341	C34	0.732800	0.149300	0.847900
C351	C35	0.749100	0.230000	0.818910
C361	C36	0.777100	0.337800	0.835290
C371	C37	0.811100	0.414900	0.800420
C381	C38	0.705300	0.033900	0.828280
C391	C39	0.575100	0.971300	0.845050
C401	C40	0.555200	0.863600	0.827990
C411	C41	0.669900	0.817100	0.794250
C421	C42	0.797600	0.881400	0.776220
C431	C43	0.813000	0.989700	0.792450
C441	C44	0.662900	0.695800	0.779770
C451	C45	0.733600	0.809200	0.468470
C461	C46	0.721700	0.696700	0.445460
C471	C47	0.610500	0.620700	0.461970
C481	C48	0.605900	0.515500	0.441550
C491	C49	0.703900	0.484400	0.402810
C501	C50	0.808700	0.563000	0.384540
C511	C51	0.820200	0.665600	0.406340
C521	C52	0.714500	0.369500	0.382260
C531	C53	0.732900	0.287800	0.411180
C541	C54	0.756300	0.180100	0.395050
C551	C55	0.769200	0.102500	0.431070
C561	C56	0.767200	0.149300	0.347900
C571	C57	0.750900	0.230000	0.318910
C581	C58	0.722900	0.337800	0.335290
C591	C59	0.688900	0.414900	0.300420
C601	C60	0.794700	0.033900	0.328280
C611	C61	0.924900	0.971300	0.345050
C621	C62	0.944800	0.863600	0.327990
C631	C63	0.830100	0.817100	0.294250
C641	C64	0.702400	0.881400	0.276220
C651	C65	0.687000	0.989700	0.292450
C661	C66	0.837100	0.695800	0.279770
C671	C67	0.233600	0.190800	0.031530
C681	C68	0.221700	0.303300	0.054540
C691	C69	0.110500	0.379300	0.038030
C701	C70	0.105900	0.484500	0.058450
C711	C71	0.203900	0.515600	0.097190
C721	C72	0.308700	0.437000	0.115460
C731	C73	0.320200	0.334400	0.093660
C741	C74	0.214500	0.630500	0.117740
C751	C75	0.232900	0.712200	0.088820
C761	C76	0.256300	0.819900	0.104950
C771	C77	0.269200	0.897500	0.068930
C781	C78	0.267200	0.850700	0.152100
C791	C79	0.250900	0.770000	0.181090
C801	C80	0.222900	0.662200	0.164710
C811	C81	0.188900	0.585100	0.199580
C821	C82	0.294700	0.966100	0.171720
C831	C83	0.424900	0.028700	0.154950
C841	C84	0.444800	0.136400	0.172010
C851	C85	0.330100	0.182900	0.205750
C861	C86	0.202400	0.118600	0.223780
C871	C87	0.187000	0.010300	0.207550
C881	C88	0.337100	0.304200	0.220230
O11	O1	0.400700	0.156200	0.508500
O21	O2	0.124800	0.139500	0.535980
O31	O3	0.369600	0.948400	0.560810
O41	O4	0.082300	0.899200	0.548960
O51	O5	0.200500	0.582040	0.732410
O61	O6	0.453400	0.533500	0.697560
O71	O7	0.029300	0.355100	0.708250
O81	O8	0.294600	0.342200	0.743040
O91	O9	0.900700	0.843800	0.991500
O101	O10	0.624800	0.860500	0.964020
O111	O11	0.869600	0.051600	0.939190
O121	O12	0.582300	0.100800	0.951040
O131	O13	0.700500	0.417960	0.767590
O141	O14	0.953400	0.466500	0.802440
O151	O15	0.529300	0.644900	0.791750
O161	O16	0.794600	0.657800	0.756960
O171	O17	0.599300	0.843800	0.491500
O181	O18	0.875200	0.860500	0.464020
O191	O19	0.630400	0.051600	0.439190
O201	O20	0.917700	0.100800	0.451040
O211	O21	0.799500	0.417960	0.267590
O221	O22	0.546600	0.466500	0.302440
O231	O23	0.970700	0.644900	0.291750
O241	O24	0.705400	0.657800	0.256960
O251	O25	0.099300	0.156200	0.008500
O261	O26	0.375200	0.139500	0.035980
O271	O27	0.130400	0.948400	0.060810
O281	O28	0.417700	0.899200	0.048960
O291	O29	0.299500	0.582040	0.232410
O301	O30	0.046600	0.533500	0.197560
O311	O31	0.470700	0.355100	0.208250
O321	O32	0.205400	0.342200	0.243040
