data_XILLEL_clean_PM
_symmetry_space_group_name_H-M	'P1'
_cell_length_a	32.702000
_cell_length_b	32.702000
_cell_length_c	32.702000
_cell_angle_alpha	90.000000
_cell_angle_beta	90.000000
_cell_angle_gamma	90.000000
_symmetry_Int_Tables_number 1

loop_
_symmetry_equiv_pos_as_xyz
'x,y,z'

loop_
_atom_site_label
_atom_site_type_symbol
_atom_site_fract_x
_atom_site_fract_y
_atom_site_fract_z
C11	C1	0.704100	0.329500	0.131600
H11	H1	0.711800	0.343100	0.156100
C21	C2	0.726000	0.299700	0.113300
H21	H2	0.752500	0.290300	0.120900
C31	C3	0.669500	0.310010	0.081130
H31	H3	0.648100	0.307500	0.061600
C41	C4	0.711300	0.252200	0.055800
C51	C5	0.686100	0.244370	0.022500
H41	H4	0.663400	0.261700	0.016900
N11	N1	0.669810	0.337070	0.110300
N21	N2	0.702840	0.286040	0.081900
C61	C6	0.704100	0.829500	0.631600
H51	H5	0.711800	0.843100	0.656100
C71	C7	0.726000	0.799700	0.613300
H61	H6	0.752500	0.790300	0.620900
C81	C8	0.669500	0.810010	0.581130
H71	H7	0.648100	0.807500	0.561600
C91	C9	0.711300	0.752200	0.555800
C101	C10	0.686100	0.744370	0.522500
H81	H8	0.663400	0.761700	0.516900
N31	N3	0.669810	0.837070	0.610300
N41	N4	0.702840	0.786040	0.581900
C111	C11	0.204100	0.329500	0.631600
H91	H9	0.211800	0.343100	0.656100
C121	C12	0.226000	0.299700	0.613300
H101	H10	0.252500	0.290300	0.620900
C131	C13	0.169500	0.310010	0.581130
H111	H11	0.148100	0.307500	0.561600
C141	C14	0.211300	0.252200	0.555800
C151	C15	0.186100	0.244370	0.522500
H121	H12	0.163400	0.261700	0.516900
N51	N5	0.169810	0.337070	0.610300
N61	N6	0.202840	0.286040	0.581900
C161	C16	0.204100	0.829500	0.131600
H131	H13	0.211800	0.843100	0.156100
C171	C17	0.226000	0.799700	0.113300
H141	H14	0.252500	0.790300	0.120900
C181	C18	0.169500	0.810010	0.081130
H151	H15	0.148100	0.807500	0.061600
C191	C19	0.211300	0.752200	0.055800
C201	C20	0.186100	0.744370	0.022500
H161	H16	0.163400	0.761700	0.016900
N71	N7	0.169810	0.837070	0.110300
N81	N8	0.202840	0.786040	0.081900
C211	C21	0.545900	0.420500	0.631600
H171	H17	0.538200	0.406900	0.656100
C221	C22	0.524000	0.450300	0.613300
H181	H18	0.497500	0.459700	0.620900
C231	C23	0.580500	0.439990	0.581130
H191	H19	0.601900	0.442500	0.561600
C241	C24	0.538700	0.497800	0.555800
C251	C25	0.563900	0.505630	0.522500
H201	H20	0.586600	0.488300	0.516900
N91	N9	0.580190	0.412930	0.610300
N101	N10	0.547160	0.463960	0.581900
C261	C26	0.545900	0.920500	0.131600
H211	H21	0.538200	0.906900	0.156100
C271	C27	0.524000	0.950300	0.113300
H221	H22	0.497500	0.959700	0.120900
C281	C28	0.580500	0.939990	0.081130
H231	H23	0.601900	0.942500	0.061600
C291	C29	0.538700	0.997800	0.055800
C301	C30	0.563900	0.005630	0.022500
H241	H24	0.586600	0.988300	0.016900
N111	N11	0.580190	0.912930	0.110300
N121	N12	0.547160	0.963960	0.081900
C311	C31	0.045900	0.420500	0.131600
H251	H25	0.038200	0.406900	0.156100
C321	C32	0.024000	0.450300	0.113300
H261	H26	0.997500	0.459700	0.120900
C331	C33	0.080500	0.439990	0.081130
H271	H27	0.101900	0.442500	0.061600
C341	C34	0.038700	0.497800	0.055800
C351	C35	0.063900	0.505630	0.022500
H281	H28	0.086600	0.488300	0.016900
N131	N13	0.080190	0.412930	0.110300
N141	N14	0.047160	0.463960	0.081900
C361	C36	0.045900	0.920500	0.631600
H291	H29	0.038200	0.906900	0.656100
C371	C37	0.024000	0.950300	0.613300
H301	H30	0.997500	0.959700	0.620900
C381	C38	0.080500	0.939990	0.581130
H311	H31	0.101900	0.942500	0.561600
C391	C39	0.038700	0.997800	0.555800
C401	C40	0.063900	0.005630	0.522500
H321	H32	0.086600	0.988300	0.516900
N151	N15	0.080190	0.912930	0.610300
N161	N16	0.047160	0.963960	0.581900
C411	C41	0.045900	0.829500	0.118400
H331	H33	0.038200	0.843100	0.093900
C421	C42	0.024000	0.799700	0.136700
H341	H34	0.997500	0.790300	0.129100
C431	C43	0.080500	0.810010	0.168870
H351	H35	0.101900	0.807500	0.188400
C441	C44	0.038700	0.752200	0.194200
C451	C45	0.063900	0.744370	0.227500
H361	H36	0.086600	0.761700	0.233100
N171	N17	0.080190	0.837070	0.139700
N181	N18	0.047160	0.786040	0.168100
C461	C46	0.045900	0.329500	0.618400
H371	H37	0.038200	0.343100	0.593900
C471	C47	0.024000	0.299700	0.636700
H381	H38	0.997500	0.290300	0.629100
C481	C48	0.080500	0.310010	0.668870
H391	H39	0.101900	0.307500	0.688400
C491	C49	0.038700	0.252200	0.694200
C501	C50	0.063900	0.244370	0.727500
H401	H40	0.086600	0.261700	0.733100
N191	N19	0.080190	0.337070	0.639700
N201	N20	0.047160	0.286040	0.668100
C511	C51	0.545900	0.829500	0.618400
H411	H41	0.538200	0.843100	0.593900
C521	C52	0.524000	0.799700	0.636700
H421	H42	0.497500	0.790300	0.629100
C531	C53	0.580500	0.810010	0.668870
H431	H43	0.601900	0.807500	0.688400
C541	C54	0.538700	0.752200	0.694200
C551	C55	0.563900	0.744370	0.727500
H441	H44	0.586600	0.761700	0.733100
N211	N21	0.580190	0.837070	0.639700
N221	N22	0.547160	0.786040	0.668100
C561	C56	0.545900	0.329500	0.118400
H451	H45	0.538200	0.343100	0.093900
C571	C57	0.524000	0.299700	0.136700
H461	H46	0.497500	0.290300	0.129100
C581	C58	0.580500	0.310010	0.168870
H471	H47	0.601900	0.307500	0.188400
C591	C59	0.538700	0.252200	0.194200
C601	C60	0.563900	0.244370	0.227500
H481	H48	0.586600	0.261700	0.233100
N231	N23	0.580190	0.337070	0.139700
N241	N24	0.547160	0.286040	0.168100
C611	C61	0.204100	0.920500	0.618400
H491	H49	0.211800	0.906900	0.593900
C621	C62	0.226000	0.950300	0.636700
H501	H50	0.252500	0.959700	0.629100
C631	C63	0.169500	0.939990	0.668870
H511	H51	0.148100	0.942500	0.688400
C641	C64	0.211300	0.997800	0.694200
C651	C65	0.186100	0.005630	0.727500
H521	H52	0.163400	0.988300	0.733100
N251	N25	0.169810	0.912930	0.639700
N261	N26	0.202840	0.963960	0.668100
C661	C66	0.204100	0.420500	0.118400
H531	H53	0.211800	0.406900	0.093900
C671	C67	0.226000	0.450300	0.136700
H541	H54	0.252500	0.459700	0.129100
C681	C68	0.169500	0.439990	0.168870
H551	H55	0.148100	0.442500	0.188400
C691	C69	0.211300	0.497800	0.194200
C701	C70	0.186100	0.505630	0.227500
H561	H56	0.163400	0.488300	0.233100
N271	N27	0.169810	0.412930	0.139700
N281	N28	0.202840	0.463960	0.168100
C711	C71	0.704100	0.920500	0.118400
H571	H57	0.711800	0.906900	0.093900
C721	C72	0.726000	0.950300	0.136700
H581	H58	0.752500	0.959700	0.129100
C731	C73	0.669500	0.939990	0.168870
H591	H59	0.648100	0.942500	0.188400
C741	C74	0.711300	0.997800	0.194200
C751	C75	0.686100	0.005630	0.227500
H601	H60	0.663400	0.988300	0.233100
N291	N29	0.669810	0.912930	0.139700
N301	N30	0.702840	0.963960	0.168100
C761	C76	0.704100	0.420500	0.618400
H611	H61	0.711800	0.406900	0.593900
C771	C77	0.726000	0.450300	0.636700
H621	H62	0.752500	0.459700	0.629100
C781	C78	0.669500	0.439990	0.668870
H631	H63	0.648100	0.442500	0.688400
C791	C79	0.711300	0.497800	0.694200
C801	C80	0.686100	0.505630	0.727500
H641	H64	0.663400	0.488300	0.733100
N311	N31	0.669810	0.412930	0.639700
N321	N32	0.702840	0.463960	0.668100
C811	C81	0.131600	0.704100	0.329500
H651	H65	0.156100	0.711800	0.343100
C821	C82	0.113300	0.726000	0.299700
H661	H66	0.120900	0.752500	0.290300
C831	C83	0.081130	0.669500	0.310010
H671	H67	0.061600	0.648100	0.307500
C841	C84	0.055800	0.711300	0.252200
C851	C85	0.022500	0.686100	0.244370
H681	H68	0.016900	0.663400	0.261700
N331	N33	0.110300	0.669810	0.337070
N341	N34	0.081900	0.702840	0.286040
C861	C86	0.131600	0.204100	0.829500
H691	H69	0.156100	0.211800	0.843100
C871	C87	0.113300	0.226000	0.799700
H701	H70	0.120900	0.252500	0.790300
C881	C88	0.081130	0.169500	0.810010
H711	H71	0.061600	0.148100	0.807500
C891	C89	0.055800	0.211300	0.752200
C901	C90	0.022500	0.186100	0.744370
H721	H72	0.016900	0.163400	0.761700
N351	N35	0.110300	0.169810	0.837070
N361	N36	0.081900	0.202840	0.786040
C911	C91	0.631600	0.704100	0.829500
H731	H73	0.656100	0.711800	0.843100
C921	C92	0.613300	0.726000	0.799700
H741	H74	0.620900	0.752500	0.790300
C931	C93	0.581130	0.669500	0.810010
H751	H75	0.561600	0.648100	0.807500
C941	C94	0.555800	0.711300	0.752200
C951	C95	0.522500	0.686100	0.744370
H761	H76	0.516900	0.663400	0.761700
N371	N37	0.610300	0.669810	0.837070
N381	N38	0.581900	0.702840	0.786040
C961	C96	0.631600	0.204100	0.329500
H771	H77	0.656100	0.211800	0.343100
C971	C97	0.613300	0.226000	0.299700
H781	H78	0.620900	0.252500	0.290300
C981	C98	0.581130	0.169500	0.310010
H791	H79	0.561600	0.148100	0.307500
C991	C99	0.555800	0.211300	0.252200
C1001	C100	0.522500	0.186100	0.244370
H801	H80	0.516900	0.163400	0.261700
N391	N39	0.610300	0.169810	0.337070
N401	N40	0.581900	0.202840	0.286040
C1011	C101	0.631600	0.545900	0.420500
H811	H81	0.656100	0.538200	0.406900
C1021	C102	0.613300	0.524000	0.450300
H821	H82	0.620900	0.497500	0.459700
C1031	C103	0.581130	0.580500	0.439990
H831	H83	0.561600	0.601900	0.442500
C1041	C104	0.555800	0.538700	0.497800
C1051	C105	0.522500	0.563900	0.505630
H841	H84	0.516900	0.586600	0.488300
N411	N41	0.610300	0.580190	0.412930
N421	N42	0.581900	0.547160	0.463960
C1061	C106	0.631600	0.045900	0.920500
H851	H85	0.656100	0.038200	0.906900
C1071	C107	0.613300	0.024000	0.950300
H861	H86	0.620900	0.997500	0.959700
C1081	C108	0.581130	0.080500	0.939990
H871	H87	0.561600	0.101900	0.942500
C1091	C109	0.555800	0.038700	0.997800
C1101	C110	0.522500	0.063900	0.005630
H881	H88	0.516900	0.086600	0.988300
N431	N43	0.610300	0.080190	0.912930
N441	N44	0.581900	0.047160	0.963960
C1111	C111	0.131600	0.545900	0.920500
H891	H89	0.156100	0.538200	0.906900
C1121	C112	0.113300	0.524000	0.950300
H901	H90	0.120900	0.497500	0.959700
C1131	C113	0.081130	0.580500	0.939990
H911	H91	0.061600	0.601900	0.942500
C1141	C114	0.055800	0.538700	0.997800
C1151	C115	0.022500	0.563900	0.005630
H921	H92	0.016900	0.586600	0.988300
N451	N45	0.110300	0.580190	0.912930
N461	N46	0.081900	0.547160	0.963960
C1161	C116	0.131600	0.045900	0.420500
H931	H93	0.156100	0.038200	0.406900
C1171	C117	0.113300	0.024000	0.450300
H941	H94	0.120900	0.997500	0.459700
C1181	C118	0.081130	0.080500	0.439990
H951	H95	0.061600	0.101900	0.442500
C1191	C119	0.055800	0.038700	0.497800
C1201	C120	0.022500	0.063900	0.505630
H961	H96	0.016900	0.086600	0.488300
N471	N47	0.110300	0.080190	0.412930
N481	N48	0.081900	0.047160	0.463960
C1211	C121	0.118400	0.045900	0.829500
H971	H97	0.093900	0.038200	0.843100
C1221	C122	0.136700	0.024000	0.799700
H981	H98	0.129100	0.997500	0.790300
C1231	C123	0.168870	0.080500	0.810010
H991	H99	0.188400	0.101900	0.807500
C1241	C124	0.194200	0.038700	0.752200
C1251	C125	0.227500	0.063900	0.744370
H1001	H100	0.233100	0.086600	0.761700
N491	N49	0.139700	0.080190	0.837070
N501	N50	0.168100	0.047160	0.786040
C1261	C126	0.118400	0.545900	0.329500
H1011	H101	0.093900	0.538200	0.343100
C1271	C127	0.136700	0.524000	0.299700
H1021	H102	0.129100	0.497500	0.290300
C1281	C128	0.168870	0.580500	0.310010
H1031	H103	0.188400	0.601900	0.307500
C1291	C129	0.194200	0.538700	0.252200
C1301	C130	0.227500	0.563900	0.244370
H1041	H104	0.233100	0.586600	0.261700
N511	N51	0.139700	0.580190	0.337070
N521	N52	0.168100	0.547160	0.286040
C1311	C131	0.618400	0.045900	0.329500
H1051	H105	0.593900	0.038200	0.343100
C1321	C132	0.636700	0.024000	0.299700
H1061	H106	0.629100	0.997500	0.290300
C1331	C133	0.668870	0.080500	0.310010
H1071	H107	0.688400	0.101900	0.307500
C1341	C134	0.694200	0.038700	0.252200
C1351	C135	0.727500	0.063900	0.244370
H1081	H108	0.733100	0.086600	0.261700
N531	N53	0.639700	0.080190	0.337070
N541	N54	0.668100	0.047160	0.286040
C1361	C136	0.618400	0.545900	0.829500
H1091	H109	0.593900	0.538200	0.843100
C1371	C137	0.636700	0.524000	0.799700
H1101	H110	0.629100	0.497500	0.790300
C1381	C138	0.668870	0.580500	0.810010
H1111	H111	0.688400	0.601900	0.807500
C1391	C139	0.694200	0.538700	0.752200
C1401	C140	0.727500	0.563900	0.744370
H1121	H112	0.733100	0.586600	0.761700
N551	N55	0.639700	0.580190	0.837070
N561	N56	0.668100	0.547160	0.786040
C1411	C141	0.618400	0.204100	0.920500
H1131	H113	0.593900	0.211800	0.906900
C1421	C142	0.636700	0.226000	0.950300
H1141	H114	0.629100	0.252500	0.959700
C1431	C143	0.668870	0.169500	0.939990
H1151	H115	0.688400	0.148100	0.942500
C1441	C144	0.694200	0.211300	0.997800
C1451	C145	0.727500	0.186100	0.005630
H1161	H116	0.733100	0.163400	0.988300
N571	N57	0.639700	0.169810	0.912930
N581	N58	0.668100	0.202840	0.963960
C1461	C146	0.618400	0.704100	0.420500
H1171	H117	0.593900	0.711800	0.406900
C1471	C147	0.636700	0.726000	0.450300
H1181	H118	0.629100	0.752500	0.459700
C1481	C148	0.668870	0.669500	0.439990
H1191	H119	0.688400	0.648100	0.442500
C1491	C149	0.694200	0.711300	0.497800
C1501	C150	0.727500	0.686100	0.505630
H1201	H120	0.733100	0.663400	0.488300
N591	N59	0.639700	0.669810	0.412930
N601	N60	0.668100	0.702840	0.463960
C1511	C151	0.118400	0.204100	0.420500
H1211	H121	0.093900	0.211800	0.406900
C1521	C152	0.136700	0.226000	0.450300
H1221	H122	0.129100	0.252500	0.459700
C1531	C153	0.168870	0.169500	0.439990
H1231	H123	0.188400	0.148100	0.442500
C1541	C154	0.194200	0.211300	0.497800
C1551	C155	0.227500	0.186100	0.505630
H1241	H124	0.233100	0.163400	0.488300
N611	N61	0.139700	0.169810	0.412930
N621	N62	0.168100	0.202840	0.463960
C1561	C156	0.118400	0.704100	0.920500
H1251	H125	0.093900	0.711800	0.906900
C1571	C157	0.136700	0.726000	0.950300
H1261	H126	0.129100	0.752500	0.959700
C1581	C158	0.168870	0.669500	0.939990
H1271	H127	0.188400	0.648100	0.942500
C1591	C159	0.194200	0.711300	0.997800
C1601	C160	0.227500	0.686100	0.005630
H1281	H128	0.233100	0.663400	0.988300
N631	N63	0.139700	0.669810	0.912930
N641	N64	0.168100	0.702840	0.963960
C1611	C161	0.329500	0.131600	0.704100
H1291	H129	0.343100	0.156100	0.711800
C1621	C162	0.299700	0.113300	0.726000
H1301	H130	0.290300	0.120900	0.752500
C1631	C163	0.310010	0.081130	0.669500
H1311	H131	0.307500	0.061600	0.648100
C1641	C164	0.252200	0.055800	0.711300
C1651	C165	0.244370	0.022500	0.686100
H1321	H132	0.261700	0.016900	0.663400
N651	N65	0.337070	0.110300	0.669810
N661	N66	0.286040	0.081900	0.702840
C1661	C166	0.329500	0.631600	0.204100
H1331	H133	0.343100	0.656100	0.211800
C1671	C167	0.299700	0.613300	0.226000
H1341	H134	0.290300	0.620900	0.252500
C1681	C168	0.310010	0.581130	0.169500
H1351	H135	0.307500	0.561600	0.148100
C1691	C169	0.252200	0.555800	0.211300
C1701	C170	0.244370	0.522500	0.186100
H1361	H136	0.261700	0.516900	0.163400
N671	N67	0.337070	0.610300	0.169810
N681	N68	0.286040	0.581900	0.202840
C1711	C171	0.829500	0.131600	0.204100
H1371	H137	0.843100	0.156100	0.211800
C1721	C172	0.799700	0.113300	0.226000
H1381	H138	0.790300	0.120900	0.252500
C1731	C173	0.810010	0.081130	0.169500
H1391	H139	0.807500	0.061600	0.148100
C1741	C174	0.752200	0.055800	0.211300
C1751	C175	0.744370	0.022500	0.186100
H1401	H140	0.761700	0.016900	0.163400
N691	N69	0.837070	0.110300	0.169810
N701	N70	0.786040	0.081900	0.202840
C1761	C176	0.829500	0.631600	0.704100
H1411	H141	0.843100	0.656100	0.711800
C1771	C177	0.799700	0.613300	0.726000
H1421	H142	0.790300	0.620900	0.752500
C1781	C178	0.810010	0.581130	0.669500
H1431	H143	0.807500	0.561600	0.648100
C1791	C179	0.752200	0.555800	0.711300
C1801	C180	0.744370	0.522500	0.686100
H1441	H144	0.761700	0.516900	0.663400
N711	N71	0.837070	0.610300	0.669810
N721	N72	0.786040	0.581900	0.702840
C1811	C181	0.420500	0.631600	0.545900
H1451	H145	0.406900	0.656100	0.538200
C1821	C182	0.450300	0.613300	0.524000
H1461	H146	0.459700	0.620900	0.497500
C1831	C183	0.439990	0.581130	0.580500
H1471	H147	0.442500	0.561600	0.601900
C1841	C184	0.497800	0.555800	0.538700
C1851	C185	0.505630	0.522500	0.563900
H1481	H148	0.488300	0.516900	0.586600
N731	N73	0.412930	0.610300	0.580190
N741	N74	0.463960	0.581900	0.547160
C1861	C186	0.420500	0.131600	0.045900
H1491	H149	0.406900	0.156100	0.038200
C1871	C187	0.450300	0.113300	0.024000
H1501	H150	0.459700	0.120900	0.997500
C1881	C188	0.439990	0.081130	0.080500
H1511	H151	0.442500	0.061600	0.101900
C1891	C189	0.497800	0.055800	0.038700
C1901	C190	0.505630	0.022500	0.063900
H1521	H152	0.488300	0.016900	0.086600
N751	N75	0.412930	0.110300	0.080190
N761	N76	0.463960	0.081900	0.047160
C1911	C191	0.920500	0.631600	0.045900
H1531	H153	0.906900	0.656100	0.038200
C1921	C192	0.950300	0.613300	0.024000
H1541	H154	0.959700	0.620900	0.997500
C1931	C193	0.939990	0.581130	0.080500
H1551	H155	0.942500	0.561600	0.101900
C1941	C194	0.997800	0.555800	0.038700
C1951	C195	0.005630	0.522500	0.063900
H1561	H156	0.988300	0.516900	0.086600
N771	N77	0.912930	0.610300	0.080190
N781	N78	0.963960	0.581900	0.047160
C1961	C196	0.920500	0.131600	0.545900
H1571	H157	0.906900	0.156100	0.538200
C1971	C197	0.950300	0.113300	0.524000
H1581	H158	0.959700	0.120900	0.497500
C1981	C198	0.939990	0.081130	0.580500
H1591	H159	0.942500	0.061600	0.601900
C1991	C199	0.997800	0.055800	0.538700
C2001	C200	0.005630	0.022500	0.563900
H1601	H160	0.988300	0.016900	0.586600
N791	N79	0.912930	0.110300	0.580190
N801	N80	0.963960	0.081900	0.547160
C2011	C201	0.829500	0.118400	0.045900
H1611	H161	0.843100	0.093900	0.038200
C2021	C202	0.799700	0.136700	0.024000
H1621	H162	0.790300	0.129100	0.997500
C2031	C203	0.810010	0.168870	0.080500
H1631	H163	0.807500	0.188400	0.101900
C2041	C204	0.752200	0.194200	0.038700
C2051	C205	0.744370	0.227500	0.063900
H1641	H164	0.761700	0.233100	0.086600
N811	N81	0.837070	0.139700	0.080190
N821	N82	0.786040	0.168100	0.047160
C2061	C206	0.829500	0.618400	0.545900
H1651	H165	0.843100	0.593900	0.538200
C2071	C207	0.799700	0.636700	0.524000
H1661	H166	0.790300	0.629100	0.497500
C2081	C208	0.810010	0.668870	0.580500
H1671	H167	0.807500	0.688400	0.601900
C2091	C209	0.752200	0.694200	0.538700
C2101	C210	0.744370	0.727500	0.563900
H1681	H168	0.761700	0.733100	0.586600
N831	N83	0.837070	0.639700	0.580190
N841	N84	0.786040	0.668100	0.547160
C2111	C211	0.329500	0.118400	0.545900
H1691	H169	0.343100	0.093900	0.538200
C2121	C212	0.299700	0.136700	0.524000
H1701	H170	0.290300	0.129100	0.497500
C2131	C213	0.310010	0.168870	0.580500
H1711	H171	0.307500	0.188400	0.601900
C2141	C214	0.252200	0.194200	0.538700
C2151	C215	0.244370	0.227500	0.563900
H1721	H172	0.261700	0.233100	0.586600
N851	N85	0.337070	0.139700	0.580190
N861	N86	0.286040	0.168100	0.547160
C2161	C216	0.329500	0.618400	0.045900
H1731	H173	0.343100	0.593900	0.038200
C2171	C217	0.299700	0.636700	0.024000
H1741	H174	0.290300	0.629100	0.997500
C2181	C218	0.310010	0.668870	0.080500
H1751	H175	0.307500	0.688400	0.101900
C2191	C219	0.252200	0.694200	0.038700
C2201	C220	0.244370	0.727500	0.063900
H1761	H176	0.261700	0.733100	0.086600
N871	N87	0.337070	0.639700	0.080190
N881	N88	0.286040	0.668100	0.047160
C2211	C221	0.920500	0.618400	0.204100
H1771	H177	0.906900	0.593900	0.211800
C2221	C222	0.950300	0.636700	0.226000
H1781	H178	0.959700	0.629100	0.252500
C2231	C223	0.939990	0.668870	0.169500
H1791	H179	0.942500	0.688400	0.148100
C2241	C224	0.997800	0.694200	0.211300
C2251	C225	0.005630	0.727500	0.186100
H1801	H180	0.988300	0.733100	0.163400
N891	N89	0.912930	0.639700	0.169810
N901	N90	0.963960	0.668100	0.202840
C2261	C226	0.920500	0.118400	0.704100
H1811	H181	0.906900	0.093900	0.711800
C2271	C227	0.950300	0.136700	0.726000
H1821	H182	0.959700	0.129100	0.752500
C2281	C228	0.939990	0.168870	0.669500
H1831	H183	0.942500	0.188400	0.648100
C2291	C229	0.997800	0.194200	0.711300
C2301	C230	0.005630	0.227500	0.686100
H1841	H184	0.988300	0.233100	0.663400
N911	N91	0.912930	0.139700	0.669810
N921	N92	0.963960	0.168100	0.702840
C2311	C231	0.420500	0.618400	0.704100
H1851	H185	0.406900	0.593900	0.711800
C2321	C232	0.450300	0.636700	0.726000
H1861	H186	0.459700	0.629100	0.752500
C2331	C233	0.439990	0.668870	0.669500
H1871	H187	0.442500	0.688400	0.648100
C2341	C234	0.497800	0.694200	0.711300
C2351	C235	0.505630	0.727500	0.686100
H1881	H188	0.488300	0.733100	0.663400
N931	N93	0.412930	0.639700	0.669810
N941	N94	0.463960	0.668100	0.702840
C2361	C236	0.420500	0.118400	0.204100
H1891	H189	0.406900	0.093900	0.211800
C2371	C237	0.450300	0.136700	0.226000
H1901	H190	0.459700	0.129100	0.252500
C2381	C238	0.439990	0.168870	0.169500
H1911	H191	0.442500	0.188400	0.148100
C2391	C239	0.497800	0.194200	0.211300
C2401	C240	0.505630	0.227500	0.186100
H1921	H192	0.488300	0.233100	0.163400
N951	N95	0.412930	0.139700	0.169810
N961	N96	0.463960	0.168100	0.202840
C2411	C241	0.920500	0.045900	0.131600
H1931	H193	0.906900	0.038200	0.156100
C2421	C242	0.950300	0.024000	0.113300
H1941	H194	0.959700	0.997500	0.120900
C2431	C243	0.939990	0.080500	0.081130
H1951	H195	0.942500	0.101900	0.061600
C2441	C244	0.997800	0.038700	0.055800
C2451	C245	0.005630	0.063900	0.022500
H1961	H196	0.988300	0.086600	0.016900
N971	N97	0.912930	0.080190	0.110300
N981	N98	0.963960	0.047160	0.081900
C2461	C246	0.920500	0.545900	0.631600
H1971	H197	0.906900	0.538200	0.656100
C2471	C247	0.950300	0.524000	0.613300
H1981	H198	0.959700	0.497500	0.620900
C2481	C248	0.939990	0.580500	0.581130
H1991	H199	0.942500	0.601900	0.561600
C2491	C249	0.997800	0.538700	0.555800
C2501	C250	0.005630	0.563900	0.522500
H2001	H200	0.988300	0.586600	0.516900
N991	N99	0.912930	0.580190	0.610300
N1001	N100	0.963960	0.547160	0.581900
C2511	C251	0.420500	0.045900	0.631600
H2011	H201	0.406900	0.038200	0.656100
C2521	C252	0.450300	0.024000	0.613300
H2021	H202	0.459700	0.997500	0.620900
C2531	C253	0.439990	0.080500	0.581130
H2031	H203	0.442500	0.101900	0.561600
C2541	C254	0.497800	0.038700	0.555800
C2551	C255	0.505630	0.063900	0.522500
H2041	H204	0.488300	0.086600	0.516900
N1011	N101	0.412930	0.080190	0.610300
N1021	N102	0.463960	0.047160	0.581900
C2561	C256	0.420500	0.545900	0.131600
H2051	H205	0.406900	0.538200	0.156100
C2571	C257	0.450300	0.524000	0.113300
H2061	H206	0.459700	0.497500	0.120900
C2581	C258	0.439990	0.580500	0.081130
H2071	H207	0.442500	0.601900	0.061600
C2591	C259	0.497800	0.538700	0.055800
C2601	C260	0.505630	0.563900	0.022500
H2081	H208	0.488300	0.586600	0.016900
N1031	N103	0.412930	0.580190	0.110300
N1041	N104	0.463960	0.547160	0.081900
C2611	C261	0.829500	0.204100	0.631600
H2091	H209	0.843100	0.211800	0.656100
C2621	C262	0.799700	0.226000	0.613300
H2101	H210	0.790300	0.252500	0.620900
C2631	C263	0.810010	0.169500	0.581130
H2111	H211	0.807500	0.148100	0.561600
C2641	C264	0.752200	0.211300	0.555800
C2651	C265	0.744370	0.186100	0.522500
H2121	H212	0.761700	0.163400	0.516900
N1051	N105	0.837070	0.169810	0.610300
N1061	N106	0.786040	0.202840	0.581900
C2661	C266	0.829500	0.704100	0.131600
H2131	H213	0.843100	0.711800	0.156100
C2671	C267	0.799700	0.726000	0.113300
H2141	H214	0.790300	0.752500	0.120900
C2681	C268	0.810010	0.669500	0.081130
H2151	H215	0.807500	0.648100	0.061600
C2691	C269	0.752200	0.711300	0.055800
C2701	C270	0.744370	0.686100	0.022500
H2161	H216	0.761700	0.663400	0.016900
N1071	N107	0.837070	0.669810	0.110300
N1081	N108	0.786040	0.702840	0.081900
C2711	C271	0.329500	0.204100	0.131600
H2171	H217	0.343100	0.211800	0.156100
C2721	C272	0.299700	0.226000	0.113300
H2181	H218	0.290300	0.252500	0.120900
C2731	C273	0.310010	0.169500	0.081130
H2191	H219	0.307500	0.148100	0.061600
C2741	C274	0.252200	0.211300	0.055800
C2751	C275	0.244370	0.186100	0.022500
H2201	H220	0.261700	0.163400	0.016900
N1091	N109	0.337070	0.169810	0.110300
N1101	N110	0.286040	0.202840	0.081900
C2761	C276	0.329500	0.704100	0.631600
H2211	H221	0.343100	0.711800	0.656100
C2771	C277	0.299700	0.726000	0.613300
H2221	H222	0.290300	0.752500	0.620900
C2781	C278	0.310010	0.669500	0.581130
H2231	H223	0.307500	0.648100	0.561600
C2791	C279	0.252200	0.711300	0.555800
C2801	C280	0.244370	0.686100	0.522500
H2241	H224	0.261700	0.663400	0.516900
N1111	N111	0.337070	0.669810	0.610300
N1121	N112	0.286040	0.702840	0.581900
C2811	C281	0.420500	0.704100	0.118400
H2251	H225	0.406900	0.711800	0.093900
C2821	C282	0.450300	0.726000	0.136700
H2261	H226	0.459700	0.752500	0.129100
C2831	C283	0.439990	0.669500	0.168870
H2271	H227	0.442500	0.648100	0.188400
C2841	C284	0.497800	0.711300	0.194200
C2851	C285	0.505630	0.686100	0.227500
H2281	H228	0.488300	0.663400	0.233100
N1131	N113	0.412930	0.669810	0.139700
N1141	N114	0.463960	0.702840	0.168100
C2861	C286	0.420500	0.204100	0.618400
H2291	H229	0.406900	0.211800	0.593900
C2871	C287	0.450300	0.226000	0.636700
H2301	H230	0.459700	0.252500	0.629100
C2881	C288	0.439990	0.169500	0.668870
H2311	H231	0.442500	0.148100	0.688400
C2891	C289	0.497800	0.211300	0.694200
C2901	C290	0.505630	0.186100	0.727500
H2321	H232	0.488300	0.163400	0.733100
N1151	N115	0.412930	0.169810	0.639700
N1161	N116	0.463960	0.202840	0.668100
C2911	C291	0.920500	0.704100	0.618400
H2331	H233	0.906900	0.711800	0.593900
C2921	C292	0.950300	0.726000	0.636700
H2341	H234	0.959700	0.752500	0.629100
C2931	C293	0.939990	0.669500	0.668870
H2351	H235	0.942500	0.648100	0.688400
C2941	C294	0.997800	0.711300	0.694200
C2951	C295	0.005630	0.686100	0.727500
H2361	H236	0.988300	0.663400	0.733100
N1171	N117	0.912930	0.669810	0.639700
N1181	N118	0.963960	0.702840	0.668100
C2961	C296	0.920500	0.204100	0.118400
H2371	H237	0.906900	0.211800	0.093900
C2971	C297	0.950300	0.226000	0.136700
H2381	H238	0.959700	0.252500	0.129100
C2981	C298	0.939990	0.169500	0.168870
H2391	H239	0.942500	0.148100	0.188400
C2991	C299	0.997800	0.211300	0.194200
C3001	C300	0.005630	0.186100	0.227500
H2401	H240	0.988300	0.163400	0.233100
N1191	N119	0.912930	0.169810	0.139700
N1201	N120	0.963960	0.202840	0.168100
C3011	C301	0.329500	0.545900	0.618400
H2411	H241	0.343100	0.538200	0.593900
C3021	C302	0.299700	0.524000	0.636700
H2421	H242	0.290300	0.497500	0.629100
C3031	C303	0.310010	0.580500	0.668870
H2431	H243	0.307500	0.601900	0.688400
C3041	C304	0.252200	0.538700	0.694200
C3051	C305	0.244370	0.563900	0.727500
H2441	H244	0.261700	0.586600	0.733100
N1211	N121	0.337070	0.580190	0.639700
N1221	N122	0.286040	0.547160	0.668100
C3061	C306	0.329500	0.045900	0.118400
H2451	H245	0.343100	0.038200	0.093900
C3071	C307	0.299700	0.024000	0.136700
H2461	H246	0.290300	0.997500	0.129100
C3081	C308	0.310010	0.080500	0.168870
H2471	H247	0.307500	0.101900	0.188400
C3091	C309	0.252200	0.038700	0.194200
C3101	C310	0.244370	0.063900	0.227500
H2481	H248	0.261700	0.086600	0.233100
N1231	N123	0.337070	0.080190	0.139700
N1241	N124	0.286040	0.047160	0.168100
C3111	C311	0.829500	0.545900	0.118400
H2491	H249	0.843100	0.538200	0.093900
C3121	C312	0.799700	0.524000	0.136700
H2501	H250	0.790300	0.497500	0.129100
C3131	C313	0.810010	0.580500	0.168870
H2511	H251	0.807500	0.601900	0.188400
C3141	C314	0.752200	0.538700	0.194200
C3151	C315	0.744370	0.563900	0.227500
H2521	H252	0.761700	0.586600	0.233100
N1251	N125	0.837070	0.580190	0.139700
N1261	N126	0.786040	0.547160	0.168100
C3161	C316	0.829500	0.045900	0.618400
H2531	H253	0.843100	0.038200	0.593900
C3171	C317	0.799700	0.024000	0.636700
H2541	H254	0.790300	0.997500	0.629100
C3181	C318	0.810010	0.080500	0.668870
H2551	H255	0.807500	0.101900	0.688400
C3191	C319	0.752200	0.038700	0.694200
C3201	C320	0.744370	0.063900	0.727500
H2561	H256	0.761700	0.086600	0.733100
N1271	N127	0.837070	0.080190	0.639700
N1281	N128	0.786040	0.047160	0.668100
C3211	C321	0.545900	0.618400	0.329500
H2571	H257	0.538200	0.593900	0.343100
C3221	C322	0.524000	0.636700	0.299700
H2581	H258	0.497500	0.629100	0.290300
C3231	C323	0.580500	0.668870	0.310010
H2591	H259	0.601900	0.688400	0.307500
C3241	C324	0.538700	0.694200	0.252200
C3251	C325	0.563900	0.727500	0.244370
H2601	H260	0.586600	0.733100	0.261700
N1291	N129	0.580190	0.639700	0.337070
N1301	N130	0.547160	0.668100	0.286040
C3261	C326	0.545900	0.118400	0.829500
H2611	H261	0.538200	0.093900	0.843100
C3271	C327	0.524000	0.136700	0.799700
H2621	H262	0.497500	0.129100	0.790300
C3281	C328	0.580500	0.168870	0.810010
H2631	H263	0.601900	0.188400	0.807500
C3291	C329	0.538700	0.194200	0.752200
C3301	C330	0.563900	0.227500	0.744370
H2641	H264	0.586600	0.233100	0.761700
N1311	N131	0.580190	0.139700	0.837070
N1321	N132	0.547160	0.168100	0.786040
C3311	C331	0.045900	0.618400	0.829500
H2651	H265	0.038200	0.593900	0.843100
C3321	C332	0.024000	0.636700	0.799700
H2661	H266	0.997500	0.629100	0.790300
C3331	C333	0.080500	0.668870	0.810010
H2671	H267	0.101900	0.688400	0.807500
C3341	C334	0.038700	0.694200	0.752200
C3351	C335	0.063900	0.727500	0.744370
H2681	H268	0.086600	0.733100	0.761700
N1331	N133	0.080190	0.639700	0.837070
N1341	N134	0.047160	0.668100	0.786040
C3361	C336	0.045900	0.118400	0.329500
H2691	H269	0.038200	0.093900	0.343100
C3371	C337	0.024000	0.136700	0.299700
H2701	H270	0.997500	0.129100	0.290300
C3381	C338	0.080500	0.168870	0.310010
H2711	H271	0.101900	0.188400	0.307500
C3391	C339	0.038700	0.194200	0.252200
C3401	C340	0.063900	0.227500	0.244370
H2721	H272	0.086600	0.233100	0.261700
N1351	N135	0.080190	0.139700	0.337070
N1361	N136	0.047160	0.168100	0.286040
C3411	C341	0.704100	0.118400	0.420500
H2731	H273	0.711800	0.093900	0.406900
C3421	C342	0.726000	0.136700	0.450300
H2741	H274	0.752500	0.129100	0.459700
C3431	C343	0.669500	0.168870	0.439990
H2751	H275	0.648100	0.188400	0.442500
C3441	C344	0.711300	0.194200	0.497800
C3451	C345	0.686100	0.227500	0.505630
H2761	H276	0.663400	0.233100	0.488300
N1371	N137	0.669810	0.139700	0.412930
N1381	N138	0.702840	0.168100	0.463960
C3461	C346	0.704100	0.618400	0.920500
H2771	H277	0.711800	0.593900	0.906900
C3471	C347	0.726000	0.636700	0.950300
H2781	H278	0.752500	0.629100	0.959700
C3481	C348	0.669500	0.668870	0.939990
H2791	H279	0.648100	0.688400	0.942500
C3491	C349	0.711300	0.694200	0.997800
C3501	C350	0.686100	0.727500	0.005630
H2801	H280	0.663400	0.733100	0.988300
N1391	N139	0.669810	0.639700	0.912930
N1401	N140	0.702840	0.668100	0.963960
C3511	C351	0.204100	0.118400	0.920500
H2811	H281	0.211800	0.093900	0.906900
C3521	C352	0.226000	0.136700	0.950300
H2821	H282	0.252500	0.129100	0.959700
C3531	C353	0.169500	0.168870	0.939990
H2831	H283	0.148100	0.188400	0.942500
C3541	C354	0.211300	0.194200	0.997800
C3551	C355	0.186100	0.227500	0.005630
H2841	H284	0.163400	0.233100	0.988300
N1411	N141	0.169810	0.139700	0.912930
N1421	N142	0.202840	0.168100	0.963960
C3561	C356	0.204100	0.618400	0.420500
H2851	H285	0.211800	0.593900	0.406900
C3571	C357	0.226000	0.636700	0.450300
H2861	H286	0.252500	0.629100	0.459700
C3581	C358	0.169500	0.668870	0.439990
H2871	H287	0.148100	0.688400	0.442500
C3591	C359	0.211300	0.694200	0.497800
C3601	C360	0.186100	0.727500	0.505630
H2881	H288	0.163400	0.733100	0.488300
N1431	N143	0.169810	0.639700	0.412930
N1441	N144	0.202840	0.668100	0.463960
C3611	C361	0.204100	0.631600	0.829500
H2891	H289	0.211800	0.656100	0.843100
C3621	C362	0.226000	0.613300	0.799700
H2901	H290	0.252500	0.620900	0.790300
C3631	C363	0.169500	0.581130	0.810010
H2911	H291	0.148100	0.561600	0.807500
C3641	C364	0.211300	0.555800	0.752200
C3651	C365	0.186100	0.522500	0.744370
H2921	H292	0.163400	0.516900	0.761700
N1451	N145	0.169810	0.610300	0.837070
N1461	N146	0.202840	0.581900	0.786040
C3661	C366	0.204100	0.131600	0.329500
H2931	H293	0.211800	0.156100	0.343100
C3671	C367	0.226000	0.113300	0.299700
H2941	H294	0.252500	0.120900	0.290300
C3681	C368	0.169500	0.081130	0.310010
H2951	H295	0.148100	0.061600	0.307500
C3691	C369	0.211300	0.055800	0.252200
C3701	C370	0.186100	0.022500	0.244370
H2961	H296	0.163400	0.016900	0.261700
N1471	N147	0.169810	0.110300	0.337070
N1481	N148	0.202840	0.081900	0.286040
C3711	C371	0.704100	0.631600	0.329500
H2971	H297	0.711800	0.656100	0.343100
C3721	C372	0.726000	0.613300	0.299700
H2981	H298	0.752500	0.620900	0.290300
C3731	C373	0.669500	0.581130	0.310010
H2991	H299	0.648100	0.561600	0.307500
C3741	C374	0.711300	0.555800	0.252200
C3751	C375	0.686100	0.522500	0.244370
H3001	H300	0.663400	0.516900	0.261700
N1491	N149	0.669810	0.610300	0.337070
N1501	N150	0.702840	0.581900	0.286040
C3761	C376	0.704100	0.131600	0.829500
H3011	H301	0.711800	0.156100	0.843100
C3771	C377	0.726000	0.113300	0.799700
H3021	H302	0.752500	0.120900	0.790300
C3781	C378	0.669500	0.081130	0.810010
H3031	H303	0.648100	0.061600	0.807500
C3791	C379	0.711300	0.055800	0.752200
C3801	C380	0.686100	0.022500	0.744370
H3041	H304	0.663400	0.016900	0.761700
N1511	N151	0.669810	0.110300	0.837070
N1521	N152	0.702840	0.081900	0.786040
C3811	C381	0.045900	0.131600	0.920500
H3051	H305	0.038200	0.156100	0.906900
C3821	C382	0.024000	0.113300	0.950300
H3061	H306	0.997500	0.120900	0.959700
C3831	C383	0.080500	0.081130	0.939990
H3071	H307	0.101900	0.061600	0.942500
C3841	C384	0.038700	0.055800	0.997800
C3851	C385	0.063900	0.022500	0.005630
H3081	H308	0.086600	0.016900	0.988300
N1531	N153	0.080190	0.110300	0.912930
N1541	N154	0.047160	0.081900	0.963960
C3861	C386	0.045900	0.631600	0.420500
H3091	H309	0.038200	0.656100	0.406900
C3871	C387	0.024000	0.613300	0.450300
H3101	H310	0.997500	0.620900	0.459700
C3881	C388	0.080500	0.581130	0.439990
H3111	H311	0.101900	0.561600	0.442500
C3891	C389	0.038700	0.555800	0.497800
C3901	C390	0.063900	0.522500	0.505630
H3121	H312	0.086600	0.516900	0.488300
N1551	N155	0.080190	0.610300	0.412930
N1561	N156	0.047160	0.581900	0.463960
C3911	C391	0.545900	0.131600	0.420500
H3131	H313	0.538200	0.156100	0.406900
C3921	C392	0.524000	0.113300	0.450300
H3141	H314	0.497500	0.120900	0.459700
C3931	C393	0.580500	0.081130	0.439990
H3151	H315	0.601900	0.061600	0.442500
C3941	C394	0.538700	0.055800	0.497800
C3951	C395	0.563900	0.022500	0.505630
H3161	H316	0.586600	0.016900	0.488300
N1571	N157	0.580190	0.110300	0.412930
N1581	N158	0.547160	0.081900	0.463960
C3961	C396	0.545900	0.631600	0.920500
H3171	H317	0.538200	0.656100	0.906900
C3971	C397	0.524000	0.613300	0.950300
H3181	H318	0.497500	0.620900	0.959700
C3981	C398	0.580500	0.581130	0.939990
H3191	H319	0.601900	0.561600	0.942500
C3991	C399	0.538700	0.555800	0.997800
C4001	C400	0.563900	0.522500	0.005630
H3201	H320	0.586600	0.516900	0.988300
N1591	N159	0.580190	0.610300	0.912930
N1601	N160	0.547160	0.581900	0.963960
C4011	C401	0.118400	0.420500	0.704100
H3211	H321	0.093900	0.406900	0.711800
C4021	C402	0.136700	0.450300	0.726000
H3221	H322	0.129100	0.459700	0.752500
C4031	C403	0.168870	0.439990	0.669500
H3231	H323	0.188400	0.442500	0.648100
C4041	C404	0.194200	0.497800	0.711300
C4051	C405	0.227500	0.505630	0.686100
H3241	H324	0.233100	0.488300	0.663400
N1611	N161	0.139700	0.412930	0.669810
N1621	N162	0.168100	0.463960	0.702840
C4061	C406	0.118400	0.920500	0.204100
H3251	H325	0.093900	0.906900	0.211800
C4071	C407	0.136700	0.950300	0.226000
H3261	H326	0.129100	0.959700	0.252500
C4081	C408	0.168870	0.939990	0.169500
H3271	H327	0.188400	0.942500	0.148100
C4091	C409	0.194200	0.997800	0.211300
C4101	C410	0.227500	0.005630	0.186100
H3281	H328	0.233100	0.988300	0.163400
N1631	N163	0.139700	0.912930	0.169810
N1641	N164	0.168100	0.963960	0.202840
C4111	C411	0.618400	0.420500	0.204100
H3291	H329	0.593900	0.406900	0.211800
C4121	C412	0.636700	0.450300	0.226000
H3301	H330	0.629100	0.459700	0.252500
C4131	C413	0.668870	0.439990	0.169500
H3311	H331	0.688400	0.442500	0.148100
C4141	C414	0.694200	0.497800	0.211300
C4151	C415	0.727500	0.505630	0.186100
H3321	H332	0.733100	0.488300	0.163400
N1651	N165	0.639700	0.412930	0.169810
N1661	N166	0.668100	0.463960	0.202840
C4161	C416	0.618400	0.920500	0.704100
H3331	H333	0.593900	0.906900	0.711800
C4171	C417	0.636700	0.950300	0.726000
H3341	H334	0.629100	0.959700	0.752500
C4181	C418	0.668870	0.939990	0.669500
H3351	H335	0.688400	0.942500	0.648100
C4191	C419	0.694200	0.997800	0.711300
C4201	C420	0.727500	0.005630	0.686100
H3361	H336	0.733100	0.988300	0.663400
N1671	N167	0.639700	0.912930	0.669810
N1681	N168	0.668100	0.963960	0.702840
C4211	C421	0.618400	0.329500	0.545900
H3371	H337	0.593900	0.343100	0.538200
C4221	C422	0.636700	0.299700	0.524000
H3381	H338	0.629100	0.290300	0.497500
C4231	C423	0.668870	0.310010	0.580500
H3391	H339	0.688400	0.307500	0.601900
C4241	C424	0.694200	0.252200	0.538700
C4251	C425	0.727500	0.244370	0.563900
H3401	H340	0.733100	0.261700	0.586600
N1691	N169	0.639700	0.337070	0.580190
N1701	N170	0.668100	0.286040	0.547160
C4261	C426	0.618400	0.829500	0.045900
H3411	H341	0.593900	0.843100	0.038200
C4271	C427	0.636700	0.799700	0.024000
H3421	H342	0.629100	0.790300	0.997500
C4281	C428	0.668870	0.810010	0.080500
H3431	H343	0.688400	0.807500	0.101900
C4291	C429	0.694200	0.752200	0.038700
C4301	C430	0.727500	0.744370	0.063900
H3441	H344	0.733100	0.761700	0.086600
N1711	N171	0.639700	0.837070	0.080190
N1721	N172	0.668100	0.786040	0.047160
C4311	C431	0.118400	0.329500	0.045900
H3451	H345	0.093900	0.343100	0.038200
C4321	C432	0.136700	0.299700	0.024000
H3461	H346	0.129100	0.290300	0.997500
C4331	C433	0.168870	0.310010	0.080500
H3471	H347	0.188400	0.307500	0.101900
C4341	C434	0.194200	0.252200	0.038700
C4351	C435	0.227500	0.244370	0.063900
H3481	H348	0.233100	0.261700	0.086600
N1731	N173	0.139700	0.337070	0.080190
N1741	N174	0.168100	0.286040	0.047160
C4361	C436	0.118400	0.829500	0.545900
H3491	H349	0.093900	0.843100	0.538200
C4371	C437	0.136700	0.799700	0.524000
H3501	H350	0.129100	0.790300	0.497500
C4381	C438	0.168870	0.810010	0.580500
H3511	H351	0.188400	0.807500	0.601900
C4391	C439	0.194200	0.752200	0.538700
C4401	C440	0.227500	0.744370	0.563900
H3521	H352	0.233100	0.761700	0.586600
N1751	N175	0.139700	0.837070	0.580190
N1761	N176	0.168100	0.786040	0.547160
C4411	C441	0.131600	0.920500	0.045900
H3531	H353	0.156100	0.906900	0.038200
C4421	C442	0.113300	0.950300	0.024000
H3541	H354	0.120900	0.959700	0.997500
C4431	C443	0.081130	0.939990	0.080500
H3551	H355	0.061600	0.942500	0.101900
C4441	C444	0.055800	0.997800	0.038700
C4451	C445	0.022500	0.005630	0.063900
H3561	H356	0.016900	0.988300	0.086600
N1771	N177	0.110300	0.912930	0.080190
N1781	N178	0.081900	0.963960	0.047160
C4461	C446	0.131600	0.420500	0.545900
H3571	H357	0.156100	0.406900	0.538200
C4471	C447	0.113300	0.450300	0.524000
H3581	H358	0.120900	0.459700	0.497500
C4481	C448	0.081130	0.439990	0.580500
H3591	H359	0.061600	0.442500	0.601900
C4491	C449	0.055800	0.497800	0.538700
C4501	C450	0.022500	0.505630	0.563900
H3601	H360	0.016900	0.488300	0.586600
N1791	N179	0.110300	0.412930	0.580190
N1801	N180	0.081900	0.463960	0.547160
C4511	C451	0.631600	0.920500	0.545900
H3611	H361	0.656100	0.906900	0.538200
C4521	C452	0.613300	0.950300	0.524000
H3621	H362	0.620900	0.959700	0.497500
C4531	C453	0.581130	0.939990	0.580500
H3631	H363	0.561600	0.942500	0.601900
C4541	C454	0.555800	0.997800	0.538700
C4551	C455	0.522500	0.005630	0.563900
H3641	H364	0.516900	0.988300	0.586600
N1811	N181	0.610300	0.912930	0.580190
N1821	N182	0.581900	0.963960	0.547160
C4561	C456	0.631600	0.420500	0.045900
H3651	H365	0.656100	0.406900	0.038200
C4571	C457	0.613300	0.450300	0.024000
H3661	H366	0.620900	0.459700	0.997500
C4581	C458	0.581130	0.439990	0.080500
H3671	H367	0.561600	0.442500	0.101900
C4591	C459	0.555800	0.497800	0.038700
C4601	C460	0.522500	0.505630	0.063900
H3681	H368	0.516900	0.488300	0.086600
N1831	N183	0.610300	0.412930	0.080190
N1841	N184	0.581900	0.463960	0.047160
C4611	C461	0.631600	0.829500	0.204100
H3691	H369	0.656100	0.843100	0.211800
C4621	C462	0.613300	0.799700	0.226000
H3701	H370	0.620900	0.790300	0.252500
C4631	C463	0.581130	0.810010	0.169500
H3711	H371	0.561600	0.807500	0.148100
C4641	C464	0.555800	0.752200	0.211300
C4651	C465	0.522500	0.744370	0.186100
H3721	H372	0.516900	0.761700	0.163400
N1851	N185	0.610300	0.837070	0.169810
N1861	N186	0.581900	0.786040	0.202840
C4661	C466	0.631600	0.329500	0.704100
H3731	H373	0.656100	0.343100	0.711800
C4671	C467	0.613300	0.299700	0.726000
H3741	H374	0.620900	0.290300	0.752500
C4681	C468	0.581130	0.310010	0.669500
H3751	H375	0.561600	0.307500	0.648100
C4691	C469	0.555800	0.252200	0.711300
C4701	C470	0.522500	0.244370	0.686100
H3761	H376	0.516900	0.261700	0.663400
N1871	N187	0.610300	0.337070	0.669810
N1881	N188	0.581900	0.286040	0.702840
C4711	C471	0.131600	0.829500	0.704100
H3771	H377	0.156100	0.843100	0.711800
C4721	C472	0.113300	0.799700	0.726000
H3781	H378	0.120900	0.790300	0.752500
C4731	C473	0.081130	0.810010	0.669500
H3791	H379	0.061600	0.807500	0.648100
C4741	C474	0.055800	0.752200	0.711300
C4751	C475	0.022500	0.744370	0.686100
H3801	H380	0.016900	0.761700	0.663400
N1891	N189	0.110300	0.837070	0.669810
N1901	N190	0.081900	0.786040	0.702840
C4761	C476	0.131600	0.329500	0.204100
H3811	H381	0.156100	0.343100	0.211800
C4771	C477	0.113300	0.299700	0.226000
H3821	H382	0.120900	0.290300	0.252500
C4781	C478	0.081130	0.310010	0.169500
H3831	H383	0.061600	0.307500	0.148100
C4791	C479	0.055800	0.252200	0.211300
C4801	C480	0.022500	0.244370	0.186100
H3841	H384	0.016900	0.261700	0.163400
N1911	N191	0.110300	0.337070	0.169810
N1921	N192	0.081900	0.286040	0.202840
Zn11	Zn1	0.625000	0.375000	0.125000
Zn21	Zn2	0.625000	0.875000	0.625000
Zn31	Zn3	0.625000	0.375000	0.625000
Zn41	Zn4	0.125000	0.875000	0.125000
Zn51	Zn5	0.125000	0.875000	0.625000
Zn61	Zn6	0.125000	0.375000	0.125000
Zn71	Zn7	0.125000	0.625000	0.375000
Zn81	Zn8	0.625000	0.625000	0.875000
Zn91	Zn9	0.625000	0.625000	0.375000
Zn101	Zn10	0.125000	0.125000	0.875000
Zn111	Zn11	0.625000	0.125000	0.875000
Zn121	Zn12	0.375000	0.125000	0.625000
Zn131	Zn13	0.875000	0.625000	0.625000
Zn141	Zn14	0.375000	0.625000	0.625000
Zn151	Zn15	0.375000	0.125000	0.125000
Zn161	Zn16	0.875000	0.125000	0.125000
Zn171	Zn17	0.875000	0.625000	0.125000
Zn181	Zn18	0.375000	0.625000	0.125000
Zn191	Zn19	0.875000	0.125000	0.625000
Zn201	Zn20	0.625000	0.125000	0.375000
Zn211	Zn21	0.125000	0.625000	0.875000
Zn221	Zn22	0.125000	0.125000	0.375000
Zn231	Zn23	0.125000	0.375000	0.625000
Zn241	Zn24	0.625000	0.875000	0.125000
C4811	C481	0.079500	0.954100	0.868400
H3851	H385	0.093100	0.961800	0.843900
C4821	C482	0.049700	0.976000	0.886700
H3861	H386	0.040300	0.002500	0.879100
C4831	C483	0.060010	0.919500	0.918870
H3871	H387	0.057500	0.898100	0.938400
C4841	C484	0.002200	0.961300	0.944200
C4851	C485	0.994370	0.936100	0.977500
H3881	H388	0.011700	0.913400	0.983100
N1931	N193	0.087070	0.919810	0.889700
N1941	N194	0.036040	0.952840	0.918100
C4861	C486	0.079500	0.454100	0.368400
H3891	H389	0.093100	0.461800	0.343900
C4871	C487	0.049700	0.476000	0.386700
H3901	H390	0.040300	0.502500	0.379100
C4881	C488	0.060010	0.419500	0.418870
H3911	H391	0.057500	0.398100	0.438400
C4891	C489	0.002200	0.461300	0.444200
C4901	C490	0.994370	0.436100	0.477500
H3921	H392	0.011700	0.413400	0.483100
N1951	N195	0.087070	0.419810	0.389700
N1961	N196	0.036040	0.452840	0.418100
C4911	C491	0.579500	0.954100	0.368400
H3931	H393	0.593100	0.961800	0.343900
C4921	C492	0.549700	0.976000	0.386700
H3941	H394	0.540300	0.002500	0.379100
C4931	C493	0.560010	0.919500	0.418870
H3951	H395	0.557500	0.898100	0.438400
C4941	C494	0.502200	0.961300	0.444200
C4951	C495	0.494370	0.936100	0.477500
H3961	H396	0.511700	0.913400	0.483100
N1971	N197	0.587070	0.919810	0.389700
N1981	N198	0.536040	0.952840	0.418100
C4961	C496	0.579500	0.454100	0.868400
H3971	H397	0.593100	0.461800	0.843900
C4971	C497	0.549700	0.476000	0.886700
H3981	H398	0.540300	0.502500	0.879100
C4981	C498	0.560010	0.419500	0.918870
H3991	H399	0.557500	0.398100	0.938400
C4991	C499	0.502200	0.461300	0.944200
C5001	C500	0.494370	0.436100	0.977500
H4001	H400	0.511700	0.413400	0.983100
N1991	N199	0.587070	0.419810	0.889700
N2001	N200	0.536040	0.452840	0.918100
C5011	C501	0.170500	0.795900	0.368400
H4011	H401	0.156900	0.788200	0.343900
C5021	C502	0.200300	0.774000	0.386700
H4021	H402	0.209700	0.747500	0.379100
C5031	C503	0.189990	0.830500	0.418870
H4031	H403	0.192500	0.851900	0.438400
C5041	C504	0.247800	0.788700	0.444200
C5051	C505	0.255630	0.813900	0.477500
H4041	H404	0.238300	0.836600	0.483100
N2011	N201	0.162930	0.830190	0.389700
N2021	N202	0.213960	0.797160	0.418100
C5061	C506	0.170500	0.295900	0.868400
H4051	H405	0.156900	0.288200	0.843900
C5071	C507	0.200300	0.274000	0.886700
H4061	H406	0.209700	0.247500	0.879100
C5081	C508	0.189990	0.330500	0.918870
H4071	H407	0.192500	0.351900	0.938400
C5091	C509	0.247800	0.288700	0.944200
C5101	C510	0.255630	0.313900	0.977500
H4081	H408	0.238300	0.336600	0.983100
N2031	N203	0.162930	0.330190	0.889700
N2041	N204	0.213960	0.297160	0.918100
C5111	C511	0.670500	0.795900	0.868400
H4091	H409	0.656900	0.788200	0.843900
C5121	C512	0.700300	0.774000	0.886700
H4101	H410	0.709700	0.747500	0.879100
C5131	C513	0.689990	0.830500	0.918870
H4111	H411	0.692500	0.851900	0.938400
C5141	C514	0.747800	0.788700	0.944200
C5151	C515	0.755630	0.813900	0.977500
H4121	H412	0.738300	0.836600	0.983100
N2051	N205	0.662930	0.830190	0.889700
N2061	N206	0.713960	0.797160	0.918100
C5161	C516	0.670500	0.295900	0.368400
H4131	H413	0.656900	0.288200	0.343900
C5171	C517	0.700300	0.274000	0.386700
H4141	H414	0.709700	0.247500	0.379100
C5181	C518	0.689990	0.330500	0.418870
H4151	H415	0.692500	0.351900	0.438400
C5191	C519	0.747800	0.288700	0.444200
C5201	C520	0.755630	0.313900	0.477500
H4161	H416	0.738300	0.336600	0.483100
N2071	N207	0.662930	0.330190	0.389700
N2081	N208	0.713960	0.297160	0.418100
C5211	C521	0.579500	0.295900	0.881600
H4171	H417	0.593100	0.288200	0.906100
C5221	C522	0.549700	0.274000	0.863300
H4181	H418	0.540300	0.247500	0.870900
C5231	C523	0.560010	0.330500	0.831130
H4191	H419	0.557500	0.351900	0.811600
C5241	C524	0.502200	0.288700	0.805800
C5251	C525	0.494370	0.313900	0.772500
H4201	H420	0.511700	0.336600	0.766900
N2091	N209	0.587070	0.330190	0.860300
N2101	N210	0.536040	0.297160	0.831900
C5261	C526	0.579500	0.795900	0.381600
H4211	H421	0.593100	0.788200	0.406100
C5271	C527	0.549700	0.774000	0.363300
H4221	H422	0.540300	0.747500	0.370900
C5281	C528	0.560010	0.830500	0.331130
H4231	H423	0.557500	0.851900	0.311600
C5291	C529	0.502200	0.788700	0.305800
C5301	C530	0.494370	0.813900	0.272500
H4241	H424	0.511700	0.836600	0.266900
N2111	N211	0.587070	0.830190	0.360300
N2121	N212	0.536040	0.797160	0.331900
C5311	C531	0.079500	0.295900	0.381600
H4251	H425	0.093100	0.288200	0.406100
C5321	C532	0.049700	0.274000	0.363300
H4261	H426	0.040300	0.247500	0.370900
C5331	C533	0.060010	0.330500	0.331130
H4271	H427	0.057500	0.351900	0.311600
C5341	C534	0.002200	0.288700	0.305800
C5351	C535	0.994370	0.313900	0.272500
H4281	H428	0.011700	0.336600	0.266900
N2131	N213	0.087070	0.330190	0.360300
N2141	N214	0.036040	0.297160	0.331900
C5361	C536	0.079500	0.795900	0.881600
H4291	H429	0.093100	0.788200	0.906100
C5371	C537	0.049700	0.774000	0.863300
H4301	H430	0.040300	0.747500	0.870900
C5381	C538	0.060010	0.830500	0.831130
H4311	H431	0.057500	0.851900	0.811600
C5391	C539	0.002200	0.788700	0.805800
C5401	C540	0.994370	0.813900	0.772500
H4321	H432	0.011700	0.836600	0.766900
N2151	N215	0.087070	0.830190	0.860300
N2161	N216	0.036040	0.797160	0.831900
C5411	C541	0.670500	0.454100	0.381600
H4331	H433	0.656900	0.461800	0.406100
C5421	C542	0.700300	0.476000	0.363300
H4341	H434	0.709700	0.502500	0.370900
C5431	C543	0.689990	0.419500	0.331130
H4351	H435	0.692500	0.398100	0.311600
C5441	C544	0.747800	0.461300	0.305800
C5451	C545	0.755630	0.436100	0.272500
H4361	H436	0.738300	0.413400	0.266900
N2171	N217	0.662930	0.419810	0.360300
N2181	N218	0.713960	0.452840	0.331900
C5461	C546	0.670500	0.954100	0.881600
H4371	H437	0.656900	0.961800	0.906100
C5471	C547	0.700300	0.976000	0.863300
H4381	H438	0.709700	0.002500	0.870900
C5481	C548	0.689990	0.919500	0.831130
H4391	H439	0.692500	0.898100	0.811600
C5491	C549	0.747800	0.961300	0.805800
C5501	C550	0.755630	0.936100	0.772500
H4401	H440	0.738300	0.913400	0.766900
N2191	N219	0.662930	0.919810	0.860300
N2201	N220	0.713960	0.952840	0.831900
C5511	C551	0.170500	0.454100	0.881600
H4411	H441	0.156900	0.461800	0.906100
C5521	C552	0.200300	0.476000	0.863300
H4421	H442	0.209700	0.502500	0.870900
C5531	C553	0.189990	0.419500	0.831130
H4431	H443	0.192500	0.398100	0.811600
C5541	C554	0.247800	0.461300	0.805800
C5551	C555	0.255630	0.436100	0.772500
H4441	H444	0.238300	0.413400	0.766900
N2211	N221	0.162930	0.419810	0.860300
N2221	N222	0.213960	0.452840	0.831900
C5561	C556	0.170500	0.954100	0.381600
H4451	H445	0.156900	0.961800	0.406100
C5571	C557	0.200300	0.976000	0.363300
H4461	H446	0.209700	0.002500	0.370900
C5581	C558	0.189990	0.919500	0.331130
H4471	H447	0.192500	0.898100	0.311600
C5591	C559	0.247800	0.961300	0.305800
C5601	C560	0.255630	0.936100	0.272500
H4481	H448	0.238300	0.913400	0.266900
N2231	N223	0.162930	0.919810	0.360300
N2241	N224	0.213960	0.952840	0.331900
C5611	C561	0.454100	0.381600	0.670500
H4491	H449	0.461800	0.406100	0.656900
C5621	C562	0.476000	0.363300	0.700300
H4501	H450	0.502500	0.370900	0.709700
C5631	C563	0.419500	0.331130	0.689990
H4511	H451	0.398100	0.311600	0.692500
C5641	C564	0.461300	0.305800	0.747800
C5651	C565	0.436100	0.272500	0.755630
H4521	H452	0.413400	0.266900	0.738300
N2251	N225	0.419810	0.360300	0.662930
N2261	N226	0.452840	0.331900	0.713960
C5661	C566	0.454100	0.881600	0.170500
H4531	H453	0.461800	0.906100	0.156900
C5671	C567	0.476000	0.863300	0.200300
H4541	H454	0.502500	0.870900	0.209700
C5681	C568	0.419500	0.831130	0.189990
H4551	H455	0.398100	0.811600	0.192500
C5691	C569	0.461300	0.805800	0.247800
C5701	C570	0.436100	0.772500	0.255630
H4561	H456	0.413400	0.766900	0.238300
N2271	N227	0.419810	0.860300	0.162930
N2281	N228	0.452840	0.831900	0.213960
C5711	C571	0.954100	0.381600	0.170500
H4571	H457	0.961800	0.406100	0.156900
C5721	C572	0.976000	0.363300	0.200300
H4581	H458	0.002500	0.370900	0.209700
C5731	C573	0.919500	0.331130	0.189990
H4591	H459	0.898100	0.311600	0.192500
C5741	C574	0.961300	0.305800	0.247800
C5751	C575	0.936100	0.272500	0.255630
H4601	H460	0.913400	0.266900	0.238300
N2291	N229	0.919810	0.360300	0.162930
N2301	N230	0.952840	0.331900	0.213960
C5761	C576	0.954100	0.881600	0.670500
H4611	H461	0.961800	0.906100	0.656900
C5771	C577	0.976000	0.863300	0.700300
H4621	H462	0.002500	0.870900	0.709700
C5781	C578	0.919500	0.831130	0.689990
H4631	H463	0.898100	0.811600	0.692500
C5791	C579	0.961300	0.805800	0.747800
C5801	C580	0.936100	0.772500	0.755630
H4641	H464	0.913400	0.766900	0.738300
N2311	N231	0.919810	0.860300	0.662930
N2321	N232	0.952840	0.831900	0.713960
C5811	C581	0.295900	0.881600	0.579500
H4651	H465	0.288200	0.906100	0.593100
C5821	C582	0.274000	0.863300	0.549700
H4661	H466	0.247500	0.870900	0.540300
C5831	C583	0.330500	0.831130	0.560010
H4671	H467	0.351900	0.811600	0.557500
C5841	C584	0.288700	0.805800	0.502200
C5851	C585	0.313900	0.772500	0.494370
H4681	H468	0.336600	0.766900	0.511700
N2331	N233	0.330190	0.860300	0.587070
N2341	N234	0.297160	0.831900	0.536040
C5861	C586	0.295900	0.381600	0.079500
H4691	H469	0.288200	0.406100	0.093100
C5871	C587	0.274000	0.363300	0.049700
H4701	H470	0.247500	0.370900	0.040300
C5881	C588	0.330500	0.331130	0.060010
H4711	H471	0.351900	0.311600	0.057500
C5891	C589	0.288700	0.305800	0.002200
C5901	C590	0.313900	0.272500	0.994370
H4721	H472	0.336600	0.266900	0.011700
N2351	N235	0.330190	0.360300	0.087070
N2361	N236	0.297160	0.331900	0.036040
C5911	C591	0.795900	0.881600	0.079500
H4731	H473	0.788200	0.906100	0.093100
C5921	C592	0.774000	0.863300	0.049700
H4741	H474	0.747500	0.870900	0.040300
C5931	C593	0.830500	0.831130	0.060010
H4751	H475	0.851900	0.811600	0.057500
C5941	C594	0.788700	0.805800	0.002200
C5951	C595	0.813900	0.772500	0.994370
H4761	H476	0.836600	0.766900	0.011700
N2371	N237	0.830190	0.860300	0.087070
N2381	N238	0.797160	0.831900	0.036040
C5961	C596	0.795900	0.381600	0.579500
H4771	H477	0.788200	0.406100	0.593100
C5971	C597	0.774000	0.363300	0.549700
H4781	H478	0.747500	0.370900	0.540300
C5981	C598	0.830500	0.331130	0.560010
H4791	H479	0.851900	0.311600	0.557500
C5991	C599	0.788700	0.305800	0.502200
C6001	C600	0.813900	0.272500	0.494370
H4801	H480	0.836600	0.266900	0.511700
N2391	N239	0.830190	0.360300	0.587070
N2401	N240	0.797160	0.331900	0.536040
C6011	C601	0.795900	0.368400	0.170500
H4811	H481	0.788200	0.343900	0.156900
C6021	C602	0.774000	0.386700	0.200300
H4821	H482	0.747500	0.379100	0.209700
C6031	C603	0.830500	0.418870	0.189990
H4831	H483	0.851900	0.438400	0.192500
C6041	C604	0.788700	0.444200	0.247800
C6051	C605	0.813900	0.477500	0.255630
H4841	H484	0.836600	0.483100	0.238300
N2411	N241	0.830190	0.389700	0.162930
N2421	N242	0.797160	0.418100	0.213960
C6061	C606	0.795900	0.868400	0.670500
H4851	H485	0.788200	0.843900	0.656900
C6071	C607	0.774000	0.886700	0.700300
H4861	H486	0.747500	0.879100	0.709700
C6081	C608	0.830500	0.918870	0.689990
H4871	H487	0.851900	0.938400	0.692500
C6091	C609	0.788700	0.944200	0.747800
C6101	C610	0.813900	0.977500	0.755630
H4881	H488	0.836600	0.983100	0.738300
N2431	N243	0.830190	0.889700	0.662930
N2441	N244	0.797160	0.918100	0.713960
C6111	C611	0.295900	0.368400	0.670500
H4891	H489	0.288200	0.343900	0.656900
C6121	C612	0.274000	0.386700	0.700300
H4901	H490	0.247500	0.379100	0.709700
C6131	C613	0.330500	0.418870	0.689990
H4911	H491	0.351900	0.438400	0.692500
C6141	C614	0.288700	0.444200	0.747800
C6151	C615	0.313900	0.477500	0.755630
H4921	H492	0.336600	0.483100	0.738300
N2451	N245	0.330190	0.389700	0.662930
N2461	N246	0.297160	0.418100	0.713960
C6161	C616	0.295900	0.868400	0.170500
H4931	H493	0.288200	0.843900	0.156900
C6171	C617	0.274000	0.886700	0.200300
H4941	H494	0.247500	0.879100	0.209700
C6181	C618	0.330500	0.918870	0.189990
H4951	H495	0.351900	0.938400	0.192500
C6191	C619	0.288700	0.944200	0.247800
C6201	C620	0.313900	0.977500	0.255630
H4961	H496	0.336600	0.983100	0.238300
N2471	N247	0.330190	0.889700	0.162930
N2481	N248	0.297160	0.918100	0.213960
C6211	C621	0.954100	0.868400	0.079500
H4971	H497	0.961800	0.843900	0.093100
C6221	C622	0.976000	0.886700	0.049700
H4981	H498	0.002500	0.879100	0.040300
C6231	C623	0.919500	0.918870	0.060010
H4991	H499	0.898100	0.938400	0.057500
C6241	C624	0.961300	0.944200	0.002200
C6251	C625	0.936100	0.977500	0.994370
H5001	H500	0.913400	0.983100	0.011700
N2491	N249	0.919810	0.889700	0.087070
N2501	N250	0.952840	0.918100	0.036040
C6261	C626	0.954100	0.368400	0.579500
H5011	H501	0.961800	0.343900	0.593100
C6271	C627	0.976000	0.386700	0.549700
H5021	H502	0.002500	0.379100	0.540300
C6281	C628	0.919500	0.418870	0.560010
H5031	H503	0.898100	0.438400	0.557500
C6291	C629	0.961300	0.444200	0.502200
C6301	C630	0.936100	0.477500	0.494370
H5041	H504	0.913400	0.483100	0.511700
N2511	N251	0.919810	0.389700	0.587070
N2521	N252	0.952840	0.418100	0.536040
C6311	C631	0.454100	0.868400	0.579500
H5051	H505	0.461800	0.843900	0.593100
C6321	C632	0.476000	0.886700	0.549700
H5061	H506	0.502500	0.879100	0.540300
C6331	C633	0.419500	0.918870	0.560010
H5071	H507	0.398100	0.938400	0.557500
C6341	C634	0.461300	0.944200	0.502200
C6351	C635	0.436100	0.977500	0.494370
H5081	H508	0.413400	0.983100	0.511700
N2531	N253	0.419810	0.889700	0.587070
N2541	N254	0.452840	0.918100	0.536040
C6361	C636	0.454100	0.368400	0.079500
H5091	H509	0.461800	0.343900	0.093100
C6371	C637	0.476000	0.386700	0.049700
H5101	H510	0.502500	0.379100	0.040300
C6381	C638	0.419500	0.418870	0.060010
H5111	H511	0.398100	0.438400	0.057500
C6391	C639	0.461300	0.444200	0.002200
C6401	C640	0.436100	0.477500	0.994370
H5121	H512	0.413400	0.483100	0.011700
N2551	N255	0.419810	0.389700	0.087070
N2561	N256	0.452840	0.418100	0.036040
C6411	C641	0.881600	0.579500	0.295900
H5131	H513	0.906100	0.593100	0.288200
C6421	C642	0.863300	0.549700	0.274000
H5141	H514	0.870900	0.540300	0.247500
C6431	C643	0.831130	0.560010	0.330500
H5151	H515	0.811600	0.557500	0.351900
C6441	C644	0.805800	0.502200	0.288700
C6451	C645	0.772500	0.494370	0.313900
H5161	H516	0.766900	0.511700	0.336600
N2571	N257	0.860300	0.587070	0.330190
N2581	N258	0.831900	0.536040	0.297160
C6461	C646	0.881600	0.079500	0.795900
H5171	H517	0.906100	0.093100	0.788200
C6471	C647	0.863300	0.049700	0.774000
H5181	H518	0.870900	0.040300	0.747500
C6481	C648	0.831130	0.060010	0.830500
H5191	H519	0.811600	0.057500	0.851900
C6491	C649	0.805800	0.002200	0.788700
C6501	C650	0.772500	0.994370	0.813900
H5201	H520	0.766900	0.011700	0.836600
N2591	N259	0.860300	0.087070	0.830190
N2601	N260	0.831900	0.036040	0.797160
C6511	C651	0.381600	0.579500	0.795900
H5211	H521	0.406100	0.593100	0.788200
C6521	C652	0.363300	0.549700	0.774000
H5221	H522	0.370900	0.540300	0.747500
C6531	C653	0.331130	0.560010	0.830500
H5231	H523	0.311600	0.557500	0.851900
C6541	C654	0.305800	0.502200	0.788700
C6551	C655	0.272500	0.494370	0.813900
H5241	H524	0.266900	0.511700	0.836600
N2611	N261	0.360300	0.587070	0.830190
N2621	N262	0.331900	0.536040	0.797160
C6561	C656	0.381600	0.079500	0.295900
H5251	H525	0.406100	0.093100	0.288200
C6571	C657	0.363300	0.049700	0.274000
H5261	H526	0.370900	0.040300	0.247500
C6581	C658	0.331130	0.060010	0.330500
H5271	H527	0.311600	0.057500	0.351900
C6591	C659	0.305800	0.002200	0.288700
C6601	C660	0.272500	0.994370	0.313900
H5281	H528	0.266900	0.011700	0.336600
N2631	N263	0.360300	0.087070	0.330190
N2641	N264	0.331900	0.036040	0.297160
C6611	C661	0.381600	0.670500	0.454100
H5291	H529	0.406100	0.656900	0.461800
C6621	C662	0.363300	0.700300	0.476000
H5301	H530	0.370900	0.709700	0.502500
C6631	C663	0.331130	0.689990	0.419500
H5311	H531	0.311600	0.692500	0.398100
C6641	C664	0.305800	0.747800	0.461300
C6651	C665	0.272500	0.755630	0.436100
H5321	H532	0.266900	0.738300	0.413400
N2651	N265	0.360300	0.662930	0.419810
N2661	N266	0.331900	0.713960	0.452840
C6661	C666	0.381600	0.170500	0.954100
H5331	H533	0.406100	0.156900	0.961800
C6671	C667	0.363300	0.200300	0.976000
H5341	H534	0.370900	0.209700	0.002500
C6681	C668	0.331130	0.189990	0.919500
H5351	H535	0.311600	0.192500	0.898100
C6691	C669	0.305800	0.247800	0.961300
C6701	C670	0.272500	0.255630	0.936100
H5361	H536	0.266900	0.238300	0.913400
N2671	N267	0.360300	0.162930	0.919810
N2681	N268	0.331900	0.213960	0.952840
C6711	C671	0.881600	0.670500	0.954100
H5371	H537	0.906100	0.656900	0.961800
C6721	C672	0.863300	0.700300	0.976000
H5381	H538	0.870900	0.709700	0.002500
C6731	C673	0.831130	0.689990	0.919500
H5391	H539	0.811600	0.692500	0.898100
C6741	C674	0.805800	0.747800	0.961300
C6751	C675	0.772500	0.755630	0.936100
H5401	H540	0.766900	0.738300	0.913400
N2691	N269	0.860300	0.662930	0.919810
N2701	N270	0.831900	0.713960	0.952840
C6761	C676	0.881600	0.170500	0.454100
H5411	H541	0.906100	0.156900	0.461800
C6771	C677	0.863300	0.200300	0.476000
H5421	H542	0.870900	0.209700	0.502500
C6781	C678	0.831130	0.189990	0.419500
H5431	H543	0.811600	0.192500	0.398100
C6791	C679	0.805800	0.247800	0.461300
C6801	C680	0.772500	0.255630	0.436100
H5441	H544	0.766900	0.238300	0.413400
N2711	N271	0.860300	0.162930	0.419810
N2721	N272	0.831900	0.213960	0.452840
C6811	C681	0.868400	0.079500	0.954100
H5451	H545	0.843900	0.093100	0.961800
C6821	C682	0.886700	0.049700	0.976000
H5461	H546	0.879100	0.040300	0.002500
C6831	C683	0.918870	0.060010	0.919500
H5471	H547	0.938400	0.057500	0.898100
C6841	C684	0.944200	0.002200	0.961300
C6851	C685	0.977500	0.994370	0.936100
H5481	H548	0.983100	0.011700	0.913400
N2731	N273	0.889700	0.087070	0.919810
N2741	N274	0.918100	0.036040	0.952840
C6861	C686	0.868400	0.579500	0.454100
H5491	H549	0.843900	0.593100	0.461800
C6871	C687	0.886700	0.549700	0.476000
H5501	H550	0.879100	0.540300	0.502500
C6881	C688	0.918870	0.560010	0.419500
H5511	H551	0.938400	0.557500	0.398100
C6891	C689	0.944200	0.502200	0.461300
C6901	C690	0.977500	0.494370	0.436100
H5521	H552	0.983100	0.511700	0.413400
N2751	N275	0.889700	0.587070	0.419810
N2761	N276	0.918100	0.536040	0.452840
C6911	C691	0.368400	0.079500	0.454100
H5531	H553	0.343900	0.093100	0.461800
C6921	C692	0.386700	0.049700	0.476000
H5541	H554	0.379100	0.040300	0.502500
C6931	C693	0.418870	0.060010	0.419500
H5551	H555	0.438400	0.057500	0.398100
C6941	C694	0.444200	0.002200	0.461300
C6951	C695	0.477500	0.994370	0.436100
H5561	H556	0.483100	0.011700	0.413400
N2771	N277	0.389700	0.087070	0.419810
N2781	N278	0.418100	0.036040	0.452840
C6961	C696	0.368400	0.579500	0.954100
H5571	H557	0.343900	0.593100	0.961800
C6971	C697	0.386700	0.549700	0.976000
H5581	H558	0.379100	0.540300	0.002500
C6981	C698	0.418870	0.560010	0.919500
H5591	H559	0.438400	0.557500	0.898100
C6991	C699	0.444200	0.502200	0.961300
C7001	C700	0.477500	0.494370	0.936100
H5601	H560	0.483100	0.511700	0.913400
N2791	N279	0.389700	0.587070	0.919810
N2801	N280	0.418100	0.536040	0.952840
C7011	C701	0.368400	0.170500	0.795900
H5611	H561	0.343900	0.156900	0.788200
C7021	C702	0.386700	0.200300	0.774000
H5621	H562	0.379100	0.209700	0.747500
C7031	C703	0.418870	0.189990	0.830500
H5631	H563	0.438400	0.192500	0.851900
C7041	C704	0.444200	0.247800	0.788700
C7051	C705	0.477500	0.255630	0.813900
H5641	H564	0.483100	0.238300	0.836600
N2811	N281	0.389700	0.162930	0.830190
N2821	N282	0.418100	0.213960	0.797160
C7061	C706	0.368400	0.670500	0.295900
H5651	H565	0.343900	0.656900	0.288200
C7071	C707	0.386700	0.700300	0.274000
H5661	H566	0.379100	0.709700	0.247500
C7081	C708	0.418870	0.689990	0.330500
H5671	H567	0.438400	0.692500	0.351900
C7091	C709	0.444200	0.747800	0.288700
C7101	C710	0.477500	0.755630	0.313900
H5681	H568	0.483100	0.738300	0.336600
N2831	N283	0.389700	0.662930	0.330190
N2841	N284	0.418100	0.713960	0.297160
C7111	C711	0.868400	0.170500	0.295900
H5691	H569	0.843900	0.156900	0.288200
C7121	C712	0.886700	0.200300	0.274000
H5701	H570	0.879100	0.209700	0.247500
C7131	C713	0.918870	0.189990	0.330500
H5711	H571	0.938400	0.192500	0.351900
C7141	C714	0.944200	0.247800	0.288700
C7151	C715	0.977500	0.255630	0.313900
H5721	H572	0.983100	0.238300	0.336600
N2851	N285	0.889700	0.162930	0.330190
N2861	N286	0.918100	0.213960	0.297160
C7161	C716	0.868400	0.670500	0.795900
H5731	H573	0.843900	0.656900	0.788200
C7171	C717	0.886700	0.700300	0.774000
H5741	H574	0.879100	0.709700	0.747500
C7181	C718	0.918870	0.689990	0.830500
H5751	H575	0.938400	0.692500	0.851900
C7191	C719	0.944200	0.747800	0.788700
C7201	C720	0.977500	0.755630	0.813900
H5761	H576	0.983100	0.738300	0.836600
N2871	N287	0.889700	0.662930	0.830190
N2881	N288	0.918100	0.713960	0.797160
C7211	C721	0.295900	0.670500	0.868400
H5771	H577	0.288200	0.656900	0.843900
C7221	C722	0.274000	0.700300	0.886700
H5781	H578	0.247500	0.709700	0.879100
C7231	C723	0.330500	0.689990	0.918870
H5791	H579	0.351900	0.692500	0.938400
C7241	C724	0.288700	0.747800	0.944200
C7251	C725	0.313900	0.755630	0.977500
H5801	H580	0.336600	0.738300	0.983100
N2891	N289	0.330190	0.662930	0.889700
N2901	N290	0.297160	0.713960	0.918100
C7261	C726	0.295900	0.170500	0.368400
H5811	H581	0.288200	0.156900	0.343900
C7271	C727	0.274000	0.200300	0.386700
H5821	H582	0.247500	0.209700	0.379100
C7281	C728	0.330500	0.189990	0.418870
H5831	H583	0.351900	0.192500	0.438400
C7291	C729	0.288700	0.247800	0.444200
C7301	C730	0.313900	0.255630	0.477500
H5841	H584	0.336600	0.238300	0.483100
N2911	N291	0.330190	0.162930	0.389700
N2921	N292	0.297160	0.213960	0.418100
C7311	C731	0.795900	0.670500	0.368400
H5851	H585	0.788200	0.656900	0.343900
C7321	C732	0.774000	0.700300	0.386700
H5861	H586	0.747500	0.709700	0.379100
C7331	C733	0.830500	0.689990	0.418870
H5871	H587	0.851900	0.692500	0.438400
C7341	C734	0.788700	0.747800	0.444200
C7351	C735	0.813900	0.755630	0.477500
H5881	H588	0.836600	0.738300	0.483100
N2931	N293	0.830190	0.662930	0.389700
N2941	N294	0.797160	0.713960	0.418100
C7361	C736	0.795900	0.170500	0.868400
H5891	H589	0.788200	0.156900	0.843900
C7371	C737	0.774000	0.200300	0.886700
H5901	H590	0.747500	0.209700	0.879100
C7381	C738	0.830500	0.189990	0.918870
H5911	H591	0.851900	0.192500	0.938400
C7391	C739	0.788700	0.247800	0.944200
C7401	C740	0.813900	0.255630	0.977500
H5921	H592	0.836600	0.238300	0.983100
N2951	N295	0.830190	0.162930	0.889700
N2961	N296	0.797160	0.213960	0.918100
C7411	C741	0.454100	0.579500	0.368400
H5931	H593	0.461800	0.593100	0.343900
C7421	C742	0.476000	0.549700	0.386700
H5941	H594	0.502500	0.540300	0.379100
C7431	C743	0.419500	0.560010	0.418870
H5951	H595	0.398100	0.557500	0.438400
C7441	C744	0.461300	0.502200	0.444200
C7451	C745	0.436100	0.494370	0.477500
H5961	H596	0.413400	0.511700	0.483100
N2971	N297	0.419810	0.587070	0.389700
N2981	N298	0.452840	0.536040	0.418100
C7461	C746	0.454100	0.079500	0.868400
H5971	H597	0.461800	0.093100	0.843900
C7471	C747	0.476000	0.049700	0.886700
H5981	H598	0.502500	0.040300	0.879100
C7481	C748	0.419500	0.060010	0.918870
H5991	H599	0.398100	0.057500	0.938400
C7491	C749	0.461300	0.002200	0.944200
C7501	C750	0.436100	0.994370	0.977500
H6001	H600	0.413400	0.011700	0.983100
N2991	N299	0.419810	0.087070	0.889700
N3001	N300	0.452840	0.036040	0.918100
C7511	C751	0.954100	0.579500	0.868400
H6011	H601	0.961800	0.593100	0.843900
C7521	C752	0.976000	0.549700	0.886700
H6021	H602	0.002500	0.540300	0.879100
C7531	C753	0.919500	0.560010	0.918870
H6031	H603	0.898100	0.557500	0.938400
C7541	C754	0.961300	0.502200	0.944200
C7551	C755	0.936100	0.494370	0.977500
H6041	H604	0.913400	0.511700	0.983100
N3011	N301	0.919810	0.587070	0.889700
N3021	N302	0.952840	0.536040	0.918100
C7561	C756	0.954100	0.079500	0.368400
H6051	H605	0.961800	0.093100	0.343900
C7571	C757	0.976000	0.049700	0.386700
H6061	H606	0.002500	0.040300	0.379100
C7581	C758	0.919500	0.060010	0.418870
H6071	H607	0.898100	0.057500	0.438400
C7591	C759	0.961300	0.002200	0.444200
C7601	C760	0.936100	0.994370	0.477500
H6081	H608	0.913400	0.011700	0.483100
N3031	N303	0.919810	0.087070	0.389700
N3041	N304	0.952840	0.036040	0.418100
C7611	C761	0.954100	0.170500	0.881600
H6091	H609	0.961800	0.156900	0.906100
C7621	C762	0.976000	0.200300	0.863300
H6101	H610	0.002500	0.209700	0.870900
C7631	C763	0.919500	0.189990	0.831130
H6111	H611	0.898100	0.192500	0.811600
C7641	C764	0.961300	0.247800	0.805800
C7651	C765	0.936100	0.255630	0.772500
H6121	H612	0.913400	0.238300	0.766900
N3051	N305	0.919810	0.162930	0.860300
N3061	N306	0.952840	0.213960	0.831900
C7661	C766	0.954100	0.670500	0.381600
H6131	H613	0.961800	0.656900	0.406100
C7671	C767	0.976000	0.700300	0.363300
H6141	H614	0.002500	0.709700	0.370900
C7681	C768	0.919500	0.689990	0.331130
H6151	H615	0.898100	0.692500	0.311600
C7691	C769	0.961300	0.747800	0.305800
C7701	C770	0.936100	0.755630	0.272500
H6161	H616	0.913400	0.738300	0.266900
N3071	N307	0.919810	0.662930	0.360300
N3081	N308	0.952840	0.713960	0.331900
C7711	C771	0.454100	0.170500	0.381600
H6171	H617	0.461800	0.156900	0.406100
C7721	C772	0.476000	0.200300	0.363300
H6181	H618	0.502500	0.209700	0.370900
C7731	C773	0.419500	0.189990	0.331130
H6191	H619	0.398100	0.192500	0.311600
C7741	C774	0.461300	0.247800	0.305800
C7751	C775	0.436100	0.255630	0.272500
H6201	H620	0.413400	0.238300	0.266900
N3091	N309	0.419810	0.162930	0.360300
N3101	N310	0.452840	0.213960	0.331900
C7761	C776	0.454100	0.670500	0.881600
H6211	H621	0.461800	0.656900	0.906100
C7771	C777	0.476000	0.700300	0.863300
H6221	H622	0.502500	0.709700	0.870900
C7781	C778	0.419500	0.689990	0.831130
H6231	H623	0.398100	0.692500	0.811600
C7791	C779	0.461300	0.747800	0.805800
C7801	C780	0.436100	0.755630	0.772500
H6241	H624	0.413400	0.738300	0.766900
N3111	N311	0.419810	0.662930	0.860300
N3121	N312	0.452840	0.713960	0.831900
C7811	C781	0.795900	0.079500	0.381600
H6251	H625	0.788200	0.093100	0.406100
C7821	C782	0.774000	0.049700	0.363300
H6261	H626	0.747500	0.040300	0.370900
C7831	C783	0.830500	0.060010	0.331130
H6271	H627	0.851900	0.057500	0.311600
C7841	C784	0.788700	0.002200	0.305800
C7851	C785	0.813900	0.994370	0.272500
H6281	H628	0.836600	0.011700	0.266900
N3131	N313	0.830190	0.087070	0.360300
N3141	N314	0.797160	0.036040	0.331900
C7861	C786	0.795900	0.579500	0.881600
H6291	H629	0.788200	0.593100	0.906100
C7871	C787	0.774000	0.549700	0.863300
H6301	H630	0.747500	0.540300	0.870900
C7881	C788	0.830500	0.560010	0.831130
H6311	H631	0.851900	0.557500	0.811600
C7891	C789	0.788700	0.502200	0.805800
C7901	C790	0.813900	0.494370	0.772500
H6321	H632	0.836600	0.511700	0.766900
N3151	N315	0.830190	0.587070	0.860300
N3161	N316	0.797160	0.536040	0.831900
C7911	C791	0.295900	0.079500	0.881600
H6331	H633	0.288200	0.093100	0.906100
C7921	C792	0.274000	0.049700	0.863300
H6341	H634	0.247500	0.040300	0.870900
C7931	C793	0.330500	0.060010	0.831130
H6351	H635	0.351900	0.057500	0.811600
C7941	C794	0.288700	0.002200	0.805800
C7951	C795	0.313900	0.994370	0.772500
H6361	H636	0.336600	0.011700	0.766900
N3171	N317	0.330190	0.087070	0.860300
N3181	N318	0.297160	0.036040	0.831900
C7961	C796	0.295900	0.579500	0.381600
H6371	H637	0.288200	0.593100	0.406100
C7971	C797	0.274000	0.549700	0.363300
H6381	H638	0.247500	0.540300	0.370900
C7981	C798	0.330500	0.560010	0.331130
H6391	H639	0.351900	0.557500	0.311600
C7991	C799	0.288700	0.502200	0.305800
C8001	C800	0.313900	0.494370	0.272500
H6401	H640	0.336600	0.511700	0.266900
N3191	N319	0.330190	0.587070	0.360300
N3201	N320	0.297160	0.536040	0.331900
C8011	C801	0.868400	0.295900	0.670500
H6411	H641	0.843900	0.288200	0.656900
C8021	C802	0.886700	0.274000	0.700300
H6421	H642	0.879100	0.247500	0.709700
C8031	C803	0.918870	0.330500	0.689990
H6431	H643	0.938400	0.351900	0.692500
C8041	C804	0.944200	0.288700	0.747800
C8051	C805	0.977500	0.313900	0.755630
H6441	H644	0.983100	0.336600	0.738300
N3211	N321	0.889700	0.330190	0.662930
N3221	N322	0.918100	0.297160	0.713960
C8061	C806	0.868400	0.795900	0.170500
H6451	H645	0.843900	0.788200	0.156900
C8071	C807	0.886700	0.774000	0.200300
H6461	H646	0.879100	0.747500	0.209700
C8081	C808	0.918870	0.830500	0.189990
H6471	H647	0.938400	0.851900	0.192500
C8091	C809	0.944200	0.788700	0.247800
C8101	C810	0.977500	0.813900	0.255630
H6481	H648	0.983100	0.836600	0.238300
N3231	N323	0.889700	0.830190	0.162930
N3241	N324	0.918100	0.797160	0.213960
C8111	C811	0.368400	0.295900	0.170500
H6491	H649	0.343900	0.288200	0.156900
C8121	C812	0.386700	0.274000	0.200300
H6501	H650	0.379100	0.247500	0.209700
C8131	C813	0.418870	0.330500	0.189990
H6511	H651	0.438400	0.351900	0.192500
C8141	C814	0.444200	0.288700	0.247800
C8151	C815	0.477500	0.313900	0.255630
H6521	H652	0.483100	0.336600	0.238300
N3251	N325	0.389700	0.330190	0.162930
N3261	N326	0.418100	0.297160	0.213960
C8161	C816	0.368400	0.795900	0.670500
H6531	H653	0.343900	0.788200	0.656900
C8171	C817	0.386700	0.774000	0.700300
H6541	H654	0.379100	0.747500	0.709700
C8181	C818	0.418870	0.830500	0.689990
H6551	H655	0.438400	0.851900	0.692500
C8191	C819	0.444200	0.788700	0.747800
C8201	C820	0.477500	0.813900	0.755630
H6561	H656	0.483100	0.836600	0.738300
N3271	N327	0.389700	0.830190	0.662930
N3281	N328	0.418100	0.797160	0.713960
C8211	C821	0.368400	0.454100	0.579500
H6571	H657	0.343900	0.461800	0.593100
C8221	C822	0.386700	0.476000	0.549700
H6581	H658	0.379100	0.502500	0.540300
C8231	C823	0.418870	0.419500	0.560010
H6591	H659	0.438400	0.398100	0.557500
C8241	C824	0.444200	0.461300	0.502200
C8251	C825	0.477500	0.436100	0.494370
H6601	H660	0.483100	0.413400	0.511700
N3291	N329	0.389700	0.419810	0.587070
N3301	N330	0.418100	0.452840	0.536040
C8261	C826	0.368400	0.954100	0.079500
H6611	H661	0.343900	0.961800	0.093100
C8271	C827	0.386700	0.976000	0.049700
H6621	H662	0.379100	0.002500	0.040300
C8281	C828	0.418870	0.919500	0.060010
H6631	H663	0.438400	0.898100	0.057500
C8291	C829	0.444200	0.961300	0.002200
C8301	C830	0.477500	0.936100	0.994370
H6641	H664	0.483100	0.913400	0.011700
N3311	N331	0.389700	0.919810	0.087070
N3321	N332	0.418100	0.952840	0.036040
C8311	C831	0.868400	0.454100	0.079500
H6651	H665	0.843900	0.461800	0.093100
C8321	C832	0.886700	0.476000	0.049700
H6661	H666	0.879100	0.502500	0.040300
C8331	C833	0.918870	0.419500	0.060010
H6671	H667	0.938400	0.398100	0.057500
C8341	C834	0.944200	0.461300	0.002200
C8351	C835	0.977500	0.436100	0.994370
H6681	H668	0.983100	0.413400	0.011700
N3331	N333	0.889700	0.419810	0.087070
N3341	N334	0.918100	0.452840	0.036040
C8361	C836	0.868400	0.954100	0.579500
H6691	H669	0.843900	0.961800	0.593100
C8371	C837	0.886700	0.976000	0.549700
H6701	H670	0.879100	0.002500	0.540300
C8381	C838	0.918870	0.919500	0.560010
H6711	H671	0.938400	0.898100	0.557500
C8391	C839	0.944200	0.961300	0.502200
C8401	C840	0.977500	0.936100	0.494370
H6721	H672	0.983100	0.913400	0.511700
N3351	N335	0.889700	0.919810	0.587070
N3361	N336	0.918100	0.952840	0.536040
C8411	C841	0.881600	0.954100	0.170500
H6731	H673	0.906100	0.961800	0.156900
C8421	C842	0.863300	0.976000	0.200300
H6741	H674	0.870900	0.002500	0.209700
C8431	C843	0.831130	0.919500	0.189990
H6751	H675	0.811600	0.898100	0.192500
C8441	C844	0.805800	0.961300	0.247800
C8451	C845	0.772500	0.936100	0.255630
H6761	H676	0.766900	0.913400	0.238300
N3371	N337	0.860300	0.919810	0.162930
N3381	N338	0.831900	0.952840	0.213960
C8461	C846	0.881600	0.454100	0.670500
H6771	H677	0.906100	0.461800	0.656900
C8471	C847	0.863300	0.476000	0.700300
H6781	H678	0.870900	0.502500	0.709700
C8481	C848	0.831130	0.419500	0.689990
H6791	H679	0.811600	0.398100	0.692500
C8491	C849	0.805800	0.461300	0.747800
C8501	C850	0.772500	0.436100	0.755630
H6801	H680	0.766900	0.413400	0.738300
N3391	N339	0.860300	0.419810	0.662930
N3401	N340	0.831900	0.452840	0.713960
C8511	C851	0.381600	0.954100	0.670500
H6811	H681	0.406100	0.961800	0.656900
C8521	C852	0.363300	0.976000	0.700300
H6821	H682	0.370900	0.002500	0.709700
C8531	C853	0.331130	0.919500	0.689990
H6831	H683	0.311600	0.898100	0.692500
C8541	C854	0.305800	0.961300	0.747800
C8551	C855	0.272500	0.936100	0.755630
H6841	H684	0.266900	0.913400	0.738300
N3411	N341	0.360300	0.919810	0.662930
N3421	N342	0.331900	0.952840	0.713960
C8561	C856	0.381600	0.454100	0.170500
H6851	H685	0.406100	0.461800	0.156900
C8571	C857	0.363300	0.476000	0.200300
H6861	H686	0.370900	0.502500	0.209700
C8581	C858	0.331130	0.419500	0.189990
H6871	H687	0.311600	0.398100	0.192500
C8591	C859	0.305800	0.461300	0.247800
C8601	C860	0.272500	0.436100	0.255630
H6881	H688	0.266900	0.413400	0.238300
N3431	N343	0.360300	0.419810	0.162930
N3441	N344	0.331900	0.452840	0.213960
C8611	C861	0.381600	0.795900	0.079500
H6891	H689	0.406100	0.788200	0.093100
C8621	C862	0.363300	0.774000	0.049700
H6901	H690	0.370900	0.747500	0.040300
C8631	C863	0.331130	0.830500	0.060010
H6911	H691	0.311600	0.851900	0.057500
C8641	C864	0.305800	0.788700	0.002200
C8651	C865	0.272500	0.813900	0.994370
H6921	H692	0.266900	0.836600	0.011700
N3451	N345	0.360300	0.830190	0.087070
N3461	N346	0.331900	0.797160	0.036040
C8661	C866	0.381600	0.295900	0.579500
H6931	H693	0.406100	0.288200	0.593100
C8671	C867	0.363300	0.274000	0.549700
H6941	H694	0.370900	0.247500	0.540300
C8681	C868	0.331130	0.330500	0.560010
H6951	H695	0.311600	0.351900	0.557500
C8691	C869	0.305800	0.288700	0.502200
C8701	C870	0.272500	0.313900	0.494370
H6961	H696	0.266900	0.336600	0.511700
N3471	N347	0.360300	0.330190	0.587070
N3481	N348	0.331900	0.297160	0.536040
C8711	C871	0.881600	0.795900	0.579500
H6971	H697	0.906100	0.788200	0.593100
C8721	C872	0.863300	0.774000	0.549700
H6981	H698	0.870900	0.747500	0.540300
C8731	C873	0.831130	0.830500	0.560010
H6991	H699	0.811600	0.851900	0.557500
C8741	C874	0.805800	0.788700	0.502200
C8751	C875	0.772500	0.813900	0.494370
H7001	H700	0.766900	0.836600	0.511700
N3491	N349	0.860300	0.830190	0.587070
N3501	N350	0.831900	0.797160	0.536040
C8761	C876	0.881600	0.295900	0.079500
H7011	H701	0.906100	0.288200	0.093100
C8771	C877	0.863300	0.274000	0.049700
H7021	H702	0.870900	0.247500	0.040300
C8781	C878	0.831130	0.330500	0.060010
H7031	H703	0.811600	0.351900	0.057500
C8791	C879	0.805800	0.288700	0.002200
C8801	C880	0.772500	0.313900	0.994370
H7041	H704	0.766900	0.336600	0.011700
N3511	N351	0.860300	0.330190	0.087070
N3521	N352	0.831900	0.297160	0.036040
C8811	C881	0.670500	0.868400	0.295900
H7051	H705	0.656900	0.843900	0.288200
C8821	C882	0.700300	0.886700	0.274000
H7061	H706	0.709700	0.879100	0.247500
C8831	C883	0.689990	0.918870	0.330500
H7071	H707	0.692500	0.938400	0.351900
C8841	C884	0.747800	0.944200	0.288700
C8851	C885	0.755630	0.977500	0.313900
H7081	H708	0.738300	0.983100	0.336600
N3531	N353	0.662930	0.889700	0.330190
N3541	N354	0.713960	0.918100	0.297160
C8861	C886	0.670500	0.368400	0.795900
H7091	H709	0.656900	0.343900	0.788200
C8871	C887	0.700300	0.386700	0.774000
H7101	H710	0.709700	0.379100	0.747500
C8881	C888	0.689990	0.418870	0.830500
H7111	H711	0.692500	0.438400	0.851900
C8891	C889	0.747800	0.444200	0.788700
C8901	C890	0.755630	0.477500	0.813900
H7121	H712	0.738300	0.483100	0.836600
N3551	N355	0.662930	0.389700	0.830190
N3561	N356	0.713960	0.418100	0.797160
C8911	C891	0.170500	0.868400	0.795900
H7131	H713	0.156900	0.843900	0.788200
C8921	C892	0.200300	0.886700	0.774000
H7141	H714	0.209700	0.879100	0.747500
C8931	C893	0.189990	0.918870	0.830500
H7151	H715	0.192500	0.938400	0.851900
C8941	C894	0.247800	0.944200	0.788700
C8951	C895	0.255630	0.977500	0.813900
H7161	H716	0.238300	0.983100	0.836600
N3571	N357	0.162930	0.889700	0.830190
N3581	N358	0.213960	0.918100	0.797160
C8961	C896	0.170500	0.368400	0.295900
H7171	H717	0.156900	0.343900	0.288200
C8971	C897	0.200300	0.386700	0.274000
H7181	H718	0.209700	0.379100	0.247500
C8981	C898	0.189990	0.418870	0.330500
H7191	H719	0.192500	0.438400	0.351900
C8991	C899	0.247800	0.444200	0.288700
C9001	C900	0.255630	0.477500	0.313900
H7201	H720	0.238300	0.483100	0.336600
N3591	N359	0.162930	0.389700	0.330190
N3601	N360	0.213960	0.418100	0.297160
C9011	C901	0.579500	0.368400	0.454100
H7211	H721	0.593100	0.343900	0.461800
C9021	C902	0.549700	0.386700	0.476000
H7221	H722	0.540300	0.379100	0.502500
C9031	C903	0.560010	0.418870	0.419500
H7231	H723	0.557500	0.438400	0.398100
C9041	C904	0.502200	0.444200	0.461300
C9051	C905	0.494370	0.477500	0.436100
H7241	H724	0.511700	0.483100	0.413400
N3611	N361	0.587070	0.389700	0.419810
N3621	N362	0.536040	0.418100	0.452840
C9061	C906	0.579500	0.868400	0.954100
H7251	H725	0.593100	0.843900	0.961800
C9071	C907	0.549700	0.886700	0.976000
H7261	H726	0.540300	0.879100	0.002500
C9081	C908	0.560010	0.918870	0.919500
H7271	H727	0.557500	0.938400	0.898100
C9091	C909	0.502200	0.944200	0.961300
C9101	C910	0.494370	0.977500	0.936100
H7281	H728	0.511700	0.983100	0.913400
N3631	N363	0.587070	0.889700	0.919810
N3641	N364	0.536040	0.918100	0.952840
C9111	C911	0.079500	0.368400	0.954100
H7291	H729	0.093100	0.343900	0.961800
C9121	C912	0.049700	0.386700	0.976000
H7301	H730	0.040300	0.379100	0.002500
C9131	C913	0.060010	0.418870	0.919500
H7311	H731	0.057500	0.438400	0.898100
C9141	C914	0.002200	0.444200	0.961300
C9151	C915	0.994370	0.477500	0.936100
H7321	H732	0.011700	0.483100	0.913400
N3651	N365	0.087070	0.389700	0.919810
N3661	N366	0.036040	0.418100	0.952840
C9161	C916	0.079500	0.868400	0.454100
H7331	H733	0.093100	0.843900	0.461800
C9171	C917	0.049700	0.886700	0.476000
H7341	H734	0.040300	0.879100	0.502500
C9181	C918	0.060010	0.918870	0.419500
H7351	H735	0.057500	0.938400	0.398100
C9191	C919	0.002200	0.944200	0.461300
C9201	C920	0.994370	0.977500	0.436100
H7361	H736	0.011700	0.983100	0.413400
N3671	N367	0.087070	0.889700	0.419810
N3681	N368	0.036040	0.918100	0.452840
C9211	C921	0.170500	0.881600	0.954100
H7371	H737	0.156900	0.906100	0.961800
C9221	C922	0.200300	0.863300	0.976000
H7381	H738	0.209700	0.870900	0.002500
C9231	C923	0.189990	0.831130	0.919500
H7391	H739	0.192500	0.811600	0.898100
C9241	C924	0.247800	0.805800	0.961300
C9251	C925	0.255630	0.772500	0.936100
H7401	H740	0.238300	0.766900	0.913400
N3691	N369	0.162930	0.860300	0.919810
N3701	N370	0.213960	0.831900	0.952840
C9261	C926	0.170500	0.381600	0.454100
H7411	H741	0.156900	0.406100	0.461800
C9271	C927	0.200300	0.363300	0.476000
H7421	H742	0.209700	0.370900	0.502500
C9281	C928	0.189990	0.331130	0.419500
H7431	H743	0.192500	0.311600	0.398100
C9291	C929	0.247800	0.305800	0.461300
C9301	C930	0.255630	0.272500	0.436100
H7441	H744	0.238300	0.266900	0.413400
N3711	N371	0.162930	0.360300	0.419810
N3721	N372	0.213960	0.331900	0.452840
C9311	C931	0.670500	0.881600	0.454100
H7451	H745	0.656900	0.906100	0.461800
C9321	C932	0.700300	0.863300	0.476000
H7461	H746	0.709700	0.870900	0.502500
C9331	C933	0.689990	0.831130	0.419500
H7471	H747	0.692500	0.811600	0.398100
C9341	C934	0.747800	0.805800	0.461300
C9351	C935	0.755630	0.772500	0.436100
H7481	H748	0.738300	0.766900	0.413400
N3731	N373	0.662930	0.860300	0.419810
N3741	N374	0.713960	0.831900	0.452840
C9361	C936	0.670500	0.381600	0.954100
H7491	H749	0.656900	0.406100	0.961800
C9371	C937	0.700300	0.363300	0.976000
H7501	H750	0.709700	0.370900	0.002500
C9381	C938	0.689990	0.331130	0.919500
H7511	H751	0.692500	0.311600	0.898100
C9391	C939	0.747800	0.305800	0.961300
C9401	C940	0.755630	0.272500	0.936100
H7521	H752	0.738300	0.266900	0.913400
N3751	N375	0.662930	0.360300	0.919810
N3761	N376	0.713960	0.331900	0.952840
C9411	C941	0.079500	0.381600	0.795900
H7531	H753	0.093100	0.406100	0.788200
C9421	C942	0.049700	0.363300	0.774000
H7541	H754	0.040300	0.370900	0.747500
C9431	C943	0.060010	0.331130	0.830500
H7551	H755	0.057500	0.311600	0.851900
C9441	C944	0.002200	0.305800	0.788700
C9451	C945	0.994370	0.272500	0.813900
H7561	H756	0.011700	0.266900	0.836600
N3771	N377	0.087070	0.360300	0.830190
N3781	N378	0.036040	0.331900	0.797160
C9461	C946	0.079500	0.881600	0.295900
H7571	H757	0.093100	0.906100	0.288200
C9471	C947	0.049700	0.863300	0.274000
H7581	H758	0.040300	0.870900	0.247500
C9481	C948	0.060010	0.831130	0.330500
H7591	H759	0.057500	0.811600	0.351900
C9491	C949	0.002200	0.805800	0.288700
C9501	C950	0.994370	0.772500	0.313900
H7601	H760	0.011700	0.766900	0.336600
N3791	N379	0.087070	0.860300	0.330190
N3801	N380	0.036040	0.831900	0.297160
C9511	C951	0.579500	0.381600	0.295900
H7611	H761	0.593100	0.406100	0.288200
C9521	C952	0.549700	0.363300	0.274000
H7621	H762	0.540300	0.370900	0.247500
C9531	C953	0.560010	0.331130	0.330500
H7631	H763	0.557500	0.311600	0.351900
C9541	C954	0.502200	0.305800	0.288700
C9551	C955	0.494370	0.272500	0.313900
H7641	H764	0.511700	0.266900	0.336600
N3811	N381	0.587070	0.360300	0.330190
N3821	N382	0.536040	0.331900	0.297160
C9561	C956	0.579500	0.881600	0.795900
H7651	H765	0.593100	0.906100	0.788200
C9571	C957	0.549700	0.863300	0.774000
H7661	H766	0.540300	0.870900	0.747500
C9581	C958	0.560010	0.831130	0.830500
H7671	H767	0.557500	0.811600	0.851900
C9591	C959	0.502200	0.805800	0.788700
C9601	C960	0.494370	0.772500	0.813900
H7681	H768	0.511700	0.766900	0.836600
N3831	N383	0.587070	0.860300	0.830190
N3841	N384	0.536040	0.831900	0.797160
Zn251	Zn25	0.125000	0.875000	0.875000
Zn261	Zn26	0.125000	0.375000	0.375000
Zn271	Zn27	0.125000	0.875000	0.375000
Zn281	Zn28	0.625000	0.375000	0.875000
Zn291	Zn29	0.625000	0.375000	0.375000
Zn301	Zn30	0.625000	0.875000	0.875000
Zn311	Zn31	0.375000	0.375000	0.625000
Zn321	Zn32	0.375000	0.875000	0.625000
Zn331	Zn33	0.375000	0.375000	0.125000
Zn341	Zn34	0.875000	0.375000	0.125000
Zn351	Zn35	0.875000	0.875000	0.625000
Zn361	Zn36	0.875000	0.875000	0.125000
Zn371	Zn37	0.875000	0.625000	0.375000
Zn381	Zn38	0.375000	0.625000	0.375000
Zn391	Zn39	0.875000	0.125000	0.875000
Zn401	Zn40	0.375000	0.125000	0.875000
Zn411	Zn41	0.375000	0.625000	0.875000
Zn421	Zn42	0.375000	0.125000	0.375000
Zn431	Zn43	0.875000	0.125000	0.375000
Zn441	Zn44	0.875000	0.625000	0.875000
Zn451	Zn45	0.875000	0.375000	0.625000
Zn461	Zn46	0.375000	0.875000	0.125000
Zn471	Zn47	0.625000	0.875000	0.375000
Zn481	Zn48	0.125000	0.375000	0.875000
