data_XINYAW_clean_PM
_symmetry_space_group_name_H-M	'P1'
_cell_length_a	20.220300
_cell_length_b	20.220300
_cell_length_c	17.484100
_cell_angle_alpha	90.000000
_cell_angle_beta	90.000000
_cell_angle_gamma	90.000000
_symmetry_Int_Tables_number 1

loop_
_symmetry_equiv_pos_as_xyz
'x,y,z'

loop_
_atom_site_label
_atom_site_type_symbol
_atom_site_fract_x
_atom_site_fract_y
_atom_site_fract_z
O11	O1	0.587010	0.468620	0.033010
O21	O2	0.530780	0.384500	0.080600
C11	C1	0.717300	0.457800	0.008800
C21	C2	0.583300	0.414600	0.069100
C31	C3	0.709000	0.406300	0.070900
C41	C4	0.647700	0.386600	0.099200
C51	C5	0.765700	0.376200	0.098200
H11	H1	0.806500	0.387300	0.077400
C61	C6	0.645100	0.339500	0.157500
H21	H2	0.604500	0.326500	0.177400
C71	C7	0.702900	0.312300	0.185500
H31	H3	0.701200	0.281600	0.225100
C81	C8	0.762600	0.330500	0.155100
H41	H4	0.801400	0.311500	0.173500
C91	C9	0.680500	0.679600	0.125700
H51	H5	0.675700	0.642200	0.156300
C101	C10	0.704200	0.777800	0.085800
H61	H6	0.719300	0.821200	0.084700
C111	C11	0.675000	0.746100	0.028100
H71	H7	0.666500	0.763300	0.979700
C121	C12	0.677500	0.601600	0.949100
H81	H8	0.688300	0.636400	0.912900
H91	H9	0.655200	0.566700	0.921100
C131	C13	0.630200	0.629400	0.008700
H101	H10	0.617400	0.594400	0.043600
H111	H11	0.590500	0.645200	0.983400
N11	N1	0.708300	0.735010	0.148000
N21	N2	0.659700	0.684050	0.052700
O31	O3	0.716180	0.442380	0.940650
C141	C14	0.741200	0.574200	0.982300
H121	H12	0.769500	0.560000	0.940700
H131	H13	0.763900	0.609300	0.009500
N31	N3	0.730950	0.518350	0.034700
O41	O4	0.087010	0.968620	0.533010
O51	O5	0.030780	0.884500	0.580600
C151	C15	0.217300	0.957800	0.508800
C161	C16	0.083300	0.914600	0.569100
C171	C17	0.209000	0.906300	0.570900
C181	C18	0.147700	0.886600	0.599200
C191	C19	0.265700	0.876200	0.598200
H141	H14	0.306500	0.887300	0.577400
C201	C20	0.145100	0.839500	0.657500
H151	H15	0.104500	0.826500	0.677400
C211	C21	0.202900	0.812300	0.685500
H161	H16	0.201200	0.781600	0.725100
C221	C22	0.262600	0.830500	0.655100
H171	H17	0.301400	0.811500	0.673500
C231	C23	0.180500	0.179600	0.625700
H181	H18	0.175700	0.142200	0.656300
C241	C24	0.204200	0.277800	0.585800
H191	H19	0.219300	0.321200	0.584700
C251	C25	0.175000	0.246100	0.528100
H201	H20	0.166500	0.263300	0.479700
C261	C26	0.177500	0.101600	0.449100
H211	H21	0.188300	0.136400	0.412900
H221	H22	0.155200	0.066700	0.421100
C271	C27	0.130200	0.129400	0.508700
H231	H23	0.117400	0.094400	0.543600
H241	H24	0.090500	0.145200	0.483400
N41	N4	0.208300	0.235010	0.648000
N51	N5	0.159700	0.184050	0.552700
O61	O6	0.216180	0.942380	0.440650
C281	C28	0.241200	0.074200	0.482300
H251	H25	0.269500	0.060000	0.440700
H261	H26	0.263900	0.109300	0.509500
N61	N6	0.230950	0.018350	0.534700
O71	O7	0.912990	0.531380	0.533010
O81	O8	0.969220	0.615500	0.580600
C291	C29	0.782700	0.542200	0.508800
C301	C30	0.916700	0.585400	0.569100
C311	C31	0.791000	0.593700	0.570900
C321	C32	0.852300	0.613400	0.599200
C331	C33	0.734300	0.623800	0.598200
H271	H27	0.693500	0.612700	0.577400
C341	C34	0.854900	0.660500	0.657500
H281	H28	0.895500	0.673500	0.677400
C351	C35	0.797100	0.687700	0.685500
H291	H29	0.798800	0.718400	0.725100
C361	C36	0.737400	0.669500	0.655100
H301	H30	0.698600	0.688500	0.673500
C371	C37	0.819500	0.320400	0.625700
H311	H31	0.824300	0.357800	0.656300
C381	C38	0.795800	0.222200	0.585800
H321	H32	0.780700	0.178800	0.584700
C391	C39	0.825000	0.253900	0.528100
H331	H33	0.833500	0.236700	0.479700
C401	C40	0.822500	0.398400	0.449100
H341	H34	0.811700	0.363600	0.412900
H351	H35	0.844800	0.433300	0.421100
C411	C41	0.869800	0.370600	0.508700
H361	H36	0.882600	0.405600	0.543600
H371	H37	0.909500	0.354800	0.483400
N71	N7	0.791700	0.264990	0.648000
N81	N8	0.840300	0.315950	0.552700
O91	O9	0.783820	0.557620	0.440650
C421	C42	0.758800	0.425800	0.482300
H381	H38	0.730500	0.440000	0.440700
H391	H39	0.736100	0.390700	0.509500
N91	N9	0.769050	0.481650	0.534700
O101	O10	0.412990	0.031380	0.033010
O111	O11	0.469220	0.115500	0.080600
C431	C43	0.282700	0.042200	0.008800
C441	C44	0.416700	0.085400	0.069100
C451	C45	0.291000	0.093700	0.070900
C461	C46	0.352300	0.113400	0.099200
C471	C47	0.234300	0.123800	0.098200
H401	H40	0.193500	0.112700	0.077400
C481	C48	0.354900	0.160500	0.157500
H411	H41	0.395500	0.173500	0.177400
C491	C49	0.297100	0.187700	0.185500
H421	H42	0.298800	0.218400	0.225100
C501	C50	0.237400	0.169500	0.155100
H431	H43	0.198600	0.188500	0.173500
C511	C51	0.319500	0.820400	0.125700
H441	H44	0.324300	0.857800	0.156300
C521	C52	0.295800	0.722200	0.085800
H451	H45	0.280700	0.678800	0.084700
C531	C53	0.325000	0.753900	0.028100
H461	H46	0.333500	0.736700	0.979700
C541	C54	0.322500	0.898400	0.949100
H471	H47	0.311700	0.863600	0.912900
H481	H48	0.344800	0.933300	0.921100
C551	C55	0.369800	0.870600	0.008700
H491	H49	0.382600	0.905600	0.043600
H501	H50	0.409500	0.854800	0.983400
N101	N10	0.291700	0.764990	0.148000
N111	N11	0.340300	0.815950	0.052700
O121	O12	0.283820	0.057620	0.940650
C561	C56	0.258800	0.925800	0.982300
H511	H51	0.230500	0.940000	0.940700
H521	H52	0.236100	0.890700	0.009500
N121	N12	0.269050	0.981650	0.034700
O131	O13	0.281380	0.837010	0.283010
O141	O14	0.365500	0.780780	0.330600
C571	C57	0.292200	0.967300	0.258800
C581	C58	0.335400	0.833300	0.319100
C591	C59	0.343700	0.959000	0.320900
C601	C60	0.363400	0.897700	0.349200
C611	C61	0.373800	0.015700	0.348200
H531	H53	0.362700	0.056500	0.327400
C621	C62	0.410500	0.895100	0.407500
H541	H54	0.423500	0.854500	0.427400
C631	C63	0.437700	0.952900	0.435500
H551	H55	0.468400	0.951200	0.475100
C641	C64	0.419500	0.012600	0.405100
H561	H56	0.438500	0.051400	0.423500
C651	C65	0.070400	0.930500	0.375700
H571	H57	0.107800	0.925700	0.406300
C661	C66	0.972200	0.954200	0.335800
H581	H58	0.928800	0.969300	0.334700
C671	C67	0.003900	0.925000	0.278100
H591	H59	0.986700	0.916500	0.229700
C681	C68	0.148400	0.927500	0.199100
H601	H60	0.113600	0.938300	0.162900
H611	H61	0.183300	0.905200	0.171100
C691	C69	0.120600	0.880200	0.258700
H621	H62	0.155600	0.867400	0.293600
H631	H63	0.104800	0.840500	0.233400
N131	N13	0.014990	0.958300	0.398000
N141	N14	0.065950	0.909700	0.302700
O151	O15	0.307620	0.966180	0.190650
C701	C70	0.175800	0.991200	0.232300
H641	H64	0.190000	0.019500	0.190700
H651	H65	0.140700	0.013900	0.259500
N151	N15	0.231650	0.980950	0.284700
O161	O16	0.781380	0.337010	0.783010
O171	O17	0.865500	0.280780	0.830600
C711	C71	0.792200	0.467300	0.758800
C721	C72	0.835400	0.333300	0.819100
C731	C73	0.843700	0.459000	0.820900
C741	C74	0.863400	0.397700	0.849200
C751	C75	0.873800	0.515700	0.848200
H661	H66	0.862700	0.556500	0.827400
C761	C76	0.910500	0.395100	0.907500
H671	H67	0.923500	0.354500	0.927400
C771	C77	0.937700	0.452900	0.935500
H681	H68	0.968400	0.451200	0.975100
C781	C78	0.919500	0.512600	0.905100
H691	H69	0.938500	0.551400	0.923500
C791	C79	0.570400	0.430500	0.875700
H701	H70	0.607800	0.425700	0.906300
C801	C80	0.472200	0.454200	0.835800
H711	H71	0.428800	0.469300	0.834700
C811	C81	0.503900	0.425000	0.778100
H721	H72	0.486700	0.416500	0.729700
C821	C82	0.648400	0.427500	0.699100
H731	H73	0.613600	0.438300	0.662900
H741	H74	0.683300	0.405200	0.671100
C831	C83	0.620600	0.380200	0.758700
H751	H75	0.655600	0.367400	0.793600
H761	H76	0.604800	0.340500	0.733400
N161	N16	0.514990	0.458300	0.898000
N171	N17	0.565950	0.409700	0.802700
O181	O18	0.807620	0.466180	0.690650
C841	C84	0.675800	0.491200	0.732300
H771	H77	0.690000	0.519500	0.690700
H781	H78	0.640700	0.513900	0.759500
N181	N18	0.731650	0.480950	0.784700
O191	O19	0.218620	0.162990	0.783010
O201	O20	0.134500	0.219220	0.830600
C851	C85	0.207800	0.032700	0.758800
C861	C86	0.164600	0.166700	0.819100
C871	C87	0.156300	0.041000	0.820900
C881	C88	0.136600	0.102300	0.849200
C891	C89	0.126200	0.984300	0.848200
H791	H79	0.137300	0.943500	0.827400
C901	C90	0.089500	0.104900	0.907500
H801	H80	0.076500	0.145500	0.927400
C911	C91	0.062300	0.047100	0.935500
H811	H81	0.031600	0.048800	0.975100
C921	C92	0.080500	0.987400	0.905100
H821	H82	0.061500	0.948600	0.923500
C931	C93	0.429600	0.069500	0.875700
H831	H83	0.392200	0.074300	0.906300
C941	C94	0.527800	0.045800	0.835800
H841	H84	0.571200	0.030700	0.834700
C951	C95	0.496100	0.075000	0.778100
H851	H85	0.513300	0.083500	0.729700
C961	C96	0.351600	0.072500	0.699100
H861	H86	0.386400	0.061700	0.662900
H871	H87	0.316700	0.094800	0.671100
C971	C97	0.379400	0.119800	0.758700
H881	H88	0.344400	0.132600	0.793600
H891	H89	0.395200	0.159500	0.733400
N191	N19	0.485010	0.041700	0.898000
N201	N20	0.434050	0.090300	0.802700
O211	O21	0.192380	0.033820	0.690650
C981	C98	0.324200	0.008800	0.732300
H901	H90	0.310000	0.980500	0.690700
H911	H91	0.359300	0.986100	0.759500
N211	N21	0.268350	0.019050	0.784700
O221	O22	0.718620	0.662990	0.283010
O231	O23	0.634500	0.719220	0.330600
C991	C99	0.707800	0.532700	0.258800
C1001	C100	0.664600	0.666700	0.319100
C1011	C101	0.656300	0.541000	0.320900
C1021	C102	0.636600	0.602300	0.349200
C1031	C103	0.626200	0.484300	0.348200
H921	H92	0.637300	0.443500	0.327400
C1041	C104	0.589500	0.604900	0.407500
H931	H93	0.576500	0.645500	0.427400
C1051	C105	0.562300	0.547100	0.435500
H941	H94	0.531600	0.548800	0.475100
C1061	C106	0.580500	0.487400	0.405100
H951	H95	0.561500	0.448600	0.423500
C1071	C107	0.929600	0.569500	0.375700
H961	H96	0.892200	0.574300	0.406300
C1081	C108	0.027800	0.545800	0.335800
H971	H97	0.071200	0.530700	0.334700
C1091	C109	0.996100	0.575000	0.278100
H981	H98	0.013300	0.583500	0.229700
C1101	C110	0.851600	0.572500	0.199100
H991	H99	0.886400	0.561700	0.162900
H1001	H100	0.816700	0.594800	0.171100
C1111	C111	0.879400	0.619800	0.258700
H1011	H101	0.844400	0.632600	0.293600
H1021	H102	0.895200	0.659500	0.233400
N221	N22	0.985010	0.541700	0.398000
N231	N23	0.934050	0.590300	0.302700
O241	O24	0.692380	0.533820	0.190650
C1121	C112	0.824200	0.508800	0.232300
H1031	H103	0.810000	0.480500	0.190700
H1041	H104	0.859300	0.486100	0.259500
N241	N24	0.768350	0.519050	0.284700
O251	O25	0.412990	0.531380	0.966990
O261	O26	0.469220	0.615500	0.919400
C1131	C113	0.282700	0.542200	0.991200
C1141	C114	0.416700	0.585400	0.930900
C1151	C115	0.291000	0.593700	0.929100
C1161	C116	0.352300	0.613400	0.900800
C1171	C117	0.234300	0.623800	0.901800
H1051	H105	0.193500	0.612700	0.922600
C1181	C118	0.354900	0.660500	0.842500
H1061	H106	0.395500	0.673500	0.822600
C1191	C119	0.297100	0.687700	0.814500
H1071	H107	0.298800	0.718400	0.774900
C1201	C120	0.237400	0.669500	0.844900
H1081	H108	0.198600	0.688500	0.826500
C1211	C121	0.319500	0.320400	0.874300
H1091	H109	0.324300	0.357800	0.843700
C1221	C122	0.295800	0.222200	0.914200
H1101	H110	0.280700	0.178800	0.915300
C1231	C123	0.325000	0.253900	0.971900
H1111	H111	0.333500	0.236700	0.020300
C1241	C124	0.322500	0.398400	0.050900
H1121	H112	0.311700	0.363600	0.087100
H1131	H113	0.344800	0.433300	0.078900
C1251	C125	0.369800	0.370600	0.991300
H1141	H114	0.382600	0.405600	0.956400
H1151	H115	0.409500	0.354800	0.016600
N251	N25	0.291700	0.264990	0.852000
N261	N26	0.340300	0.315950	0.947300
O271	O27	0.283820	0.557620	0.059350
C1261	C126	0.258800	0.425800	0.017700
H1161	H116	0.230500	0.440000	0.059300
H1171	H117	0.236100	0.390700	0.990500
N271	N27	0.269050	0.481650	0.965300
O281	O28	0.912990	0.031380	0.466990
O291	O29	0.969220	0.115500	0.419400
C1271	C127	0.782700	0.042200	0.491200
C1281	C128	0.916700	0.085400	0.430900
C1291	C129	0.791000	0.093700	0.429100
C1301	C130	0.852300	0.113400	0.400800
C1311	C131	0.734300	0.123800	0.401800
H1181	H118	0.693500	0.112700	0.422600
C1321	C132	0.854900	0.160500	0.342500
H1191	H119	0.895500	0.173500	0.322600
C1331	C133	0.797100	0.187700	0.314500
H1201	H120	0.798800	0.218400	0.274900
C1341	C134	0.737400	0.169500	0.344900
H1211	H121	0.698600	0.188500	0.326500
C1351	C135	0.819500	0.820400	0.374300
H1221	H122	0.824300	0.857800	0.343700
C1361	C136	0.795800	0.722200	0.414200
H1231	H123	0.780700	0.678800	0.415300
C1371	C137	0.825000	0.753900	0.471900
H1241	H124	0.833500	0.736700	0.520300
C1381	C138	0.822500	0.898400	0.550900
H1251	H125	0.811700	0.863600	0.587100
H1261	H126	0.844800	0.933300	0.578900
C1391	C139	0.869800	0.870600	0.491300
H1271	H127	0.882600	0.905600	0.456400
H1281	H128	0.909500	0.854800	0.516600
N281	N28	0.791700	0.764990	0.352000
N291	N29	0.840300	0.815950	0.447300
O301	O30	0.783820	0.057620	0.559350
C1401	C140	0.758800	0.925800	0.517700
H1291	H129	0.730500	0.940000	0.559300
H1301	H130	0.736100	0.890700	0.490500
N301	N30	0.769050	0.981650	0.465300
O311	O31	0.087010	0.468620	0.466990
O321	O32	0.030780	0.384500	0.419400
C1411	C141	0.217300	0.457800	0.491200
C1421	C142	0.083300	0.414600	0.430900
C1431	C143	0.209000	0.406300	0.429100
C1441	C144	0.147700	0.386600	0.400800
C1451	C145	0.265700	0.376200	0.401800
H1311	H131	0.306500	0.387300	0.422600
C1461	C146	0.145100	0.339500	0.342500
H1321	H132	0.104500	0.326500	0.322600
C1471	C147	0.202900	0.312300	0.314500
H1331	H133	0.201200	0.281600	0.274900
C1481	C148	0.262600	0.330500	0.344900
H1341	H134	0.301400	0.311500	0.326500
C1491	C149	0.180500	0.679600	0.374300
H1351	H135	0.175700	0.642200	0.343700
C1501	C150	0.204200	0.777800	0.414200
H1361	H136	0.219300	0.821200	0.415300
C1511	C151	0.175000	0.746100	0.471900
H1371	H137	0.166500	0.763300	0.520300
C1521	C152	0.177500	0.601600	0.550900
H1381	H138	0.188300	0.636400	0.587100
H1391	H139	0.155200	0.566700	0.578900
C1531	C153	0.130200	0.629400	0.491300
H1401	H140	0.117400	0.594400	0.456400
H1411	H141	0.090500	0.645200	0.516600
N311	N31	0.208300	0.735010	0.352000
N321	N32	0.159700	0.684050	0.447300
O331	O33	0.216180	0.442380	0.559350
C1541	C154	0.241200	0.574200	0.517700
H1421	H142	0.269500	0.560000	0.559300
H1431	H143	0.263900	0.609300	0.490500
N331	N33	0.230950	0.518350	0.465300
O341	O34	0.587010	0.968620	0.966990
O351	O35	0.530780	0.884500	0.919400
C1551	C155	0.717300	0.957800	0.991200
C1561	C156	0.583300	0.914600	0.930900
C1571	C157	0.709000	0.906300	0.929100
C1581	C158	0.647700	0.886600	0.900800
C1591	C159	0.765700	0.876200	0.901800
H1441	H144	0.806500	0.887300	0.922600
C1601	C160	0.645100	0.839500	0.842500
H1451	H145	0.604500	0.826500	0.822600
C1611	C161	0.702900	0.812300	0.814500
H1461	H146	0.701200	0.781600	0.774900
C1621	C162	0.762600	0.830500	0.844900
H1471	H147	0.801400	0.811500	0.826500
C1631	C163	0.680500	0.179600	0.874300
H1481	H148	0.675700	0.142200	0.843700
C1641	C164	0.704200	0.277800	0.914200
H1491	H149	0.719300	0.321200	0.915300
C1651	C165	0.675000	0.246100	0.971900
H1501	H150	0.666500	0.263300	0.020300
C1661	C166	0.677500	0.101600	0.050900
H1511	H151	0.688300	0.136400	0.087100
H1521	H152	0.655200	0.066700	0.078900
C1671	C167	0.630200	0.129400	0.991300
H1531	H153	0.617400	0.094400	0.956400
H1541	H154	0.590500	0.145200	0.016600
N341	N34	0.708300	0.235010	0.852000
N351	N35	0.659700	0.184050	0.947300
O361	O36	0.716180	0.942380	0.059350
C1681	C168	0.741200	0.074200	0.017700
H1551	H155	0.769500	0.060000	0.059300
H1561	H156	0.763900	0.109300	0.990500
N361	N36	0.730950	0.018350	0.965300
O371	O37	0.718620	0.162990	0.716990
O381	O38	0.634500	0.219220	0.669400
C1691	C169	0.707800	0.032700	0.741200
C1701	C170	0.664600	0.166700	0.680900
C1711	C171	0.656300	0.041000	0.679100
C1721	C172	0.636600	0.102300	0.650800
C1731	C173	0.626200	0.984300	0.651800
H1571	H157	0.637300	0.943500	0.672600
C1741	C174	0.589500	0.104900	0.592500
H1581	H158	0.576500	0.145500	0.572600
C1751	C175	0.562300	0.047100	0.564500
H1591	H159	0.531600	0.048800	0.524900
C1761	C176	0.580500	0.987400	0.594900
H1601	H160	0.561500	0.948600	0.576500
C1771	C177	0.929600	0.069500	0.624300
H1611	H161	0.892200	0.074300	0.593700
C1781	C178	0.027800	0.045800	0.664200
H1621	H162	0.071200	0.030700	0.665300
C1791	C179	0.996100	0.075000	0.721900
H1631	H163	0.013300	0.083500	0.770300
C1801	C180	0.851600	0.072500	0.800900
H1641	H164	0.886400	0.061700	0.837100
H1651	H165	0.816700	0.094800	0.828900
C1811	C181	0.879400	0.119800	0.741300
H1661	H166	0.844400	0.132600	0.706400
H1671	H167	0.895200	0.159500	0.766600
N371	N37	0.985010	0.041700	0.602000
N381	N38	0.934050	0.090300	0.697300
O391	O39	0.692380	0.033820	0.809350
C1821	C182	0.824200	0.008800	0.767700
H1681	H168	0.810000	0.980500	0.809300
H1691	H169	0.859300	0.986100	0.740500
N391	N39	0.768350	0.019050	0.715300
O401	O40	0.218620	0.662990	0.216990
O411	O41	0.134500	0.719220	0.169400
C1831	C183	0.207800	0.532700	0.241200
C1841	C184	0.164600	0.666700	0.180900
C1851	C185	0.156300	0.541000	0.179100
C1861	C186	0.136600	0.602300	0.150800
C1871	C187	0.126200	0.484300	0.151800
H1701	H170	0.137300	0.443500	0.172600
C1881	C188	0.089500	0.604900	0.092500
H1711	H171	0.076500	0.645500	0.072600
C1891	C189	0.062300	0.547100	0.064500
H1721	H172	0.031600	0.548800	0.024900
C1901	C190	0.080500	0.487400	0.094900
H1731	H173	0.061500	0.448600	0.076500
C1911	C191	0.429600	0.569500	0.124300
H1741	H174	0.392200	0.574300	0.093700
C1921	C192	0.527800	0.545800	0.164200
H1751	H175	0.571200	0.530700	0.165300
C1931	C193	0.496100	0.575000	0.221900
H1761	H176	0.513300	0.583500	0.270300
C1941	C194	0.351600	0.572500	0.300900
H1771	H177	0.386400	0.561700	0.337100
H1781	H178	0.316700	0.594800	0.328900
C1951	C195	0.379400	0.619800	0.241300
H1791	H179	0.344400	0.632600	0.206400
H1801	H180	0.395200	0.659500	0.266600
N401	N40	0.485010	0.541700	0.102000
N411	N41	0.434050	0.590300	0.197300
O421	O42	0.192380	0.533820	0.309350
C1961	C196	0.324200	0.508800	0.267700
H1811	H181	0.310000	0.480500	0.309300
H1821	H182	0.359300	0.486100	0.240500
N421	N42	0.268350	0.519050	0.215300
O431	O43	0.781380	0.837010	0.216990
O441	O44	0.865500	0.780780	0.169400
C1971	C197	0.792200	0.967300	0.241200
C1981	C198	0.835400	0.833300	0.180900
C1991	C199	0.843700	0.959000	0.179100
C2001	C200	0.863400	0.897700	0.150800
C2011	C201	0.873800	0.015700	0.151800
H1831	H183	0.862700	0.056500	0.172600
C2021	C202	0.910500	0.895100	0.092500
H1841	H184	0.923500	0.854500	0.072600
C2031	C203	0.937700	0.952900	0.064500
H1851	H185	0.968400	0.951200	0.024900
C2041	C204	0.919500	0.012600	0.094900
H1861	H186	0.938500	0.051400	0.076500
C2051	C205	0.570400	0.930500	0.124300
H1871	H187	0.607800	0.925700	0.093700
C2061	C206	0.472200	0.954200	0.164200
H1881	H188	0.428800	0.969300	0.165300
C2071	C207	0.503900	0.925000	0.221900
H1891	H189	0.486700	0.916500	0.270300
C2081	C208	0.648400	0.927500	0.300900
H1901	H190	0.613600	0.938300	0.337100
H1911	H191	0.683300	0.905200	0.328900
C2091	C209	0.620600	0.880200	0.241300
H1921	H192	0.655600	0.867400	0.206400
H1931	H193	0.604800	0.840500	0.266600
N431	N43	0.514990	0.958300	0.102000
N441	N44	0.565950	0.909700	0.197300
O451	O45	0.807620	0.966180	0.309350
C2101	C210	0.675800	0.991200	0.267700
H1941	H194	0.690000	0.019500	0.309300
H1951	H195	0.640700	0.013900	0.240500
N451	N45	0.731650	0.980950	0.215300
O461	O46	0.281380	0.337010	0.716990
O471	O47	0.365500	0.280780	0.669400
C2111	C211	0.292200	0.467300	0.741200
C2121	C212	0.335400	0.333300	0.680900
C2131	C213	0.343700	0.459000	0.679100
C2141	C214	0.363400	0.397700	0.650800
C2151	C215	0.373800	0.515700	0.651800
H1961	H196	0.362700	0.556500	0.672600
C2161	C216	0.410500	0.395100	0.592500
H1971	H197	0.423500	0.354500	0.572600
C2171	C217	0.437700	0.452900	0.564500
H1981	H198	0.468400	0.451200	0.524900
C2181	C218	0.419500	0.512600	0.594900
H1991	H199	0.438500	0.551400	0.576500
C2191	C219	0.070400	0.430500	0.624300
H2001	H200	0.107800	0.425700	0.593700
C2201	C220	0.972200	0.454200	0.664200
H2011	H201	0.928800	0.469300	0.665300
C2211	C221	0.003900	0.425000	0.721900
H2021	H202	0.986700	0.416500	0.770300
C2221	C222	0.148400	0.427500	0.800900
H2031	H203	0.113600	0.438300	0.837100
H2041	H204	0.183300	0.405200	0.828900
C2231	C223	0.120600	0.380200	0.741300
H2051	H205	0.155600	0.367400	0.706400
H2061	H206	0.104800	0.340500	0.766600
N461	N46	0.014990	0.458300	0.602000
N471	N47	0.065950	0.409700	0.697300
O481	O48	0.307620	0.466180	0.809350
C2241	C224	0.175800	0.491200	0.767700
H2071	H207	0.190000	0.519500	0.809300
H2081	H208	0.140700	0.513900	0.740500
N481	N48	0.231650	0.480950	0.715300
Cu11	Cu1	0.500000	0.500000	0.000000
Cu21	Cu2	0.000000	0.000000	0.500000
Cu31	Cu3	0.000000	0.500000	0.500000
Cu41	Cu4	0.500000	0.000000	0.000000
Cu51	Cu5	0.250000	0.750000	0.250000
Cu61	Cu6	0.250000	0.250000	0.750000
Cu71	Cu7	0.750000	0.250000	0.750000
Cu81	Cu8	0.750000	0.750000	0.250000
