data_XIPTEW_clean_PM
_symmetry_space_group_name_H-M	'P1'
_cell_length_a	7.600400
_cell_length_b	9.807700
_cell_length_c	14.714500
_cell_angle_alpha	90.000000
_cell_angle_beta	98.160000
_cell_angle_gamma	90.000000
_symmetry_Int_Tables_number 1

loop_
_symmetry_equiv_pos_as_xyz
'x,y,z'

loop_
_atom_site_label
_atom_site_type_symbol
_atom_site_fract_x
_atom_site_fract_y
_atom_site_fract_z
Ho11	Ho1	0.849900	0.454760	0.638970
Ho21	Ho2	0.650100	0.954760	0.861030
Ho31	Ho3	0.150100	0.545240	0.361030
Ho41	Ho4	0.349900	0.045240	0.138970
H11	H1	0.884000	0.702000	0.023000
H21	H2	0.672000	0.398000	0.856000
H31	H3	0.707000	0.388000	0.139000
H41	H4	0.616000	0.202000	0.477000
H51	H5	0.828000	0.898000	0.644000
H61	H6	0.793000	0.888000	0.361000
H71	H7	0.116000	0.298000	0.977000
H81	H8	0.328000	0.602000	0.144000
H91	H9	0.293000	0.612000	0.861000
H101	H10	0.384000	0.798000	0.523000
H111	H11	0.172000	0.102000	0.356000
H121	H12	0.207000	0.112000	0.639000
C11	C1	0.830300	0.613200	0.012200
C21	C2	0.778400	0.557500	0.925300
C31	C3	0.703300	0.428400	0.919800
C41	C4	0.672900	0.365000	0.000700
C51	C5	0.726100	0.430600	0.084500
C61	C6	0.806900	0.637200	0.842200
C71	C7	0.589400	0.226900	0.999500
C81	C8	0.543700	0.468200	0.460400
C91	C9	0.669700	0.113200	0.487800
C101	C10	0.721600	0.057500	0.574700
C111	C11	0.796700	0.928400	0.580200
C121	C12	0.827100	0.865000	0.499300
C131	C13	0.773900	0.930600	0.415500
C141	C14	0.693100	0.137200	0.657800
C151	C15	0.910600	0.726900	0.500500
C161	C16	0.956300	0.968200	0.039600
C171	C17	0.169700	0.386800	0.987800
C181	C18	0.221600	0.442500	0.074700
C191	C19	0.296700	0.571600	0.080200
C201	C20	0.327100	0.635000	0.999300
C211	C21	0.273900	0.569400	0.915500
C221	C22	0.193100	0.362800	0.157800
C231	C23	0.410600	0.773100	0.000500
C241	C24	0.456300	0.531800	0.539600
C251	C25	0.330300	0.886800	0.512200
C261	C26	0.278400	0.942500	0.425300
C271	C27	0.203300	0.071600	0.419800
C281	C28	0.172900	0.135000	0.500700
C291	C29	0.226100	0.069400	0.584500
C301	C30	0.306900	0.862800	0.342200
C311	C31	0.089400	0.273100	0.499500
C321	C32	0.043700	0.031800	0.960400
N11	N1	0.807100	0.552200	0.090400
N21	N2	0.692900	0.052200	0.409600
N31	N3	0.192900	0.447800	0.909600
N41	N4	0.307100	0.947800	0.590400
O11	O1	0.804400	0.577400	0.767310
O21	O2	0.833000	0.765300	0.852610
O31	O3	0.593600	0.154700	0.929210
O41	O4	0.518600	0.192100	0.068030
O51	O5	0.704500	0.436400	0.479570
O61	O6	0.447300	0.453800	0.384900
O71	O7	0.695600	0.077400	0.732690
O81	O8	0.667000	0.265300	0.647390
O91	O9	0.906400	0.654700	0.570790
O101	O10	0.981400	0.692100	0.431970
O111	O11	0.795500	0.936400	0.020430
O121	O12	0.052700	0.953800	0.115100
O131	O13	0.195600	0.422600	0.232690
O141	O14	0.167000	0.234700	0.147390
O151	O15	0.406400	0.845300	0.070790
O161	O16	0.481400	0.807900	0.931970
O171	O17	0.295500	0.563600	0.520430
O181	O18	0.552700	0.546200	0.615100
O191	O19	0.304400	0.922600	0.267310
O201	O20	0.333000	0.734700	0.352610
O211	O21	0.093600	0.345300	0.429210
O221	O22	0.018600	0.307900	0.568030
O231	O23	0.204500	0.063600	0.979570
O241	O24	0.947300	0.046200	0.884900
