data_XIPTIA_clean_PM
_symmetry_space_group_name_H-M	'P1'
_cell_length_a	7.621600
_cell_length_b	9.833000
_cell_length_c	14.762000
_cell_angle_alpha	90.000000
_cell_angle_beta	98.191000
_cell_angle_gamma	90.000000
_symmetry_Int_Tables_number 1

loop_
_symmetry_equiv_pos_as_xyz
'x,y,z'

loop_
_atom_site_label
_atom_site_type_symbol
_atom_site_fract_x
_atom_site_fract_y
_atom_site_fract_z
Dy11	Dy1	0.649430	0.545070	0.360890
Dy21	Dy2	0.850570	0.045070	0.139110
Dy31	Dy3	0.350570	0.454930	0.639110
Dy41	Dy4	0.149430	0.954930	0.860890
H11	H1	0.799400	0.610300	0.862200
H21	H2	0.827100	0.614100	0.135700
H31	H3	0.616600	0.301100	0.984500
H41	H4	0.700600	0.110300	0.637800
H51	H5	0.672900	0.114100	0.364300
H61	H6	0.883400	0.801100	0.515500
H71	H7	0.200600	0.389700	0.137800
H81	H8	0.172900	0.385900	0.864300
H91	H9	0.383400	0.698900	0.015500
H101	H10	0.299400	0.889700	0.362200
H111	H11	0.327100	0.885900	0.635700
H121	H12	0.116600	0.198900	0.484500
C11	C1	0.775400	0.569100	0.915800
C21	C2	0.827100	0.635600	0.999300
C31	C3	0.797000	0.571500	0.079400
C41	C4	0.720400	0.441500	0.074100
C51	C5	0.669800	0.386400	0.988300
C61	C6	0.912300	0.773100	0.000700
C71	C7	0.693200	0.362400	0.157600
C81	C8	0.457200	0.969200	0.039000
C91	C9	0.724600	0.069100	0.584200
C101	C10	0.672900	0.135600	0.500700
C111	C11	0.703000	0.071500	0.420600
C121	C12	0.779600	0.941500	0.425900
C131	C13	0.830200	0.886400	0.511700
C141	C14	0.587700	0.273100	0.499300
C151	C15	0.806800	0.862400	0.342400
C161	C16	0.042800	0.469200	0.461000
C171	C17	0.224600	0.430900	0.084200
C181	C18	0.172900	0.364400	0.000700
C191	C19	0.203000	0.428500	0.920600
C201	C20	0.279600	0.558500	0.925900
C211	C21	0.330200	0.613600	0.011700
C221	C22	0.087700	0.226900	0.999300
C231	C23	0.306800	0.637600	0.842400
C241	C24	0.542800	0.030800	0.961000
C251	C25	0.275400	0.930900	0.415800
C261	C26	0.327100	0.864400	0.499300
C271	C27	0.297000	0.928500	0.579400
C281	C28	0.220400	0.058500	0.574100
C291	C29	0.169800	0.113600	0.488300
C301	C30	0.412300	0.726900	0.500700
C311	C31	0.193200	0.137600	0.657600
C321	C32	0.957200	0.530800	0.539000
N11	N1	0.693100	0.448900	0.910400
N21	N2	0.806900	0.948900	0.589600
N31	N3	0.306900	0.551100	0.089600
N41	N4	0.193100	0.051100	0.410400
O11	O1	0.980500	0.808300	0.932200
O21	O2	0.906600	0.843800	0.070700
O31	O3	0.695800	0.421900	0.231900
O41	O4	0.666800	0.235300	0.147300
O51	O5	0.553100	0.952900	0.115000
O61	O6	0.295700	0.937200	0.020400
O71	O7	0.519500	0.308300	0.567800
O81	O8	0.593400	0.343800	0.429300
O91	O9	0.804200	0.921900	0.268100
O101	O10	0.833200	0.735300	0.352700
O111	O11	0.946900	0.452900	0.385000
O121	O12	0.204300	0.437200	0.479600
O131	O13	0.019500	0.191700	0.067800
O141	O14	0.093400	0.156200	0.929300
O151	O15	0.304200	0.578100	0.768100
O161	O16	0.333200	0.764700	0.852700
O171	O17	0.446900	0.047100	0.885000
O181	O18	0.704300	0.062800	0.979600
O191	O19	0.480500	0.691700	0.432200
O201	O20	0.406600	0.656200	0.570700
O211	O21	0.195800	0.078100	0.731900
O221	O22	0.166800	0.264700	0.647300
O231	O23	0.053100	0.547100	0.615000
O241	O24	0.795700	0.562800	0.520400
