data_XIQHIO_clean_PM
_symmetry_space_group_name_H-M	'P1'
_cell_length_a	9.341000
_cell_length_b	8.892000
_cell_length_c	9.480000
_cell_angle_alpha	90.000000
_cell_angle_beta	117.600000
_cell_angle_gamma	90.000000
_symmetry_Int_Tables_number 1

loop_
_symmetry_equiv_pos_as_xyz
'x,y,z'

loop_
_atom_site_label
_atom_site_type_symbol
_atom_site_fract_x
_atom_site_fract_y
_atom_site_fract_z
P11	P1	0.837000	0.899700	0.066900
P21	P2	0.137600	0.658600	0.467600
O11	O1	0.009700	0.854600	0.118100
O21	O2	0.242200	0.732600	0.403400
O31	O3	0.748100	0.944300	0.890800
O41	O4	0.244500	0.548500	0.594500
O51	O5	0.985900	0.587600	0.338700
O61	O6	0.737500	0.774800	0.092700
O71	O7	0.846200	0.039000	0.172200
O81	O8	0.080100	0.783300	0.549900
P31	P3	0.663000	0.899700	0.433100
P41	P4	0.362400	0.658600	0.032400
O91	O9	0.490300	0.854600	0.381900
O101	O10	0.257800	0.732600	0.096600
O111	O11	0.751900	0.944300	0.609200
O121	O12	0.255500	0.548500	0.905500
O131	O13	0.514100	0.587600	0.161300
O141	O14	0.762500	0.774800	0.407300
O151	O15	0.653800	0.039000	0.327800
O161	O16	0.419900	0.783300	0.950100
P51	P5	0.163000	0.100300	0.933100
P61	P6	0.862400	0.341400	0.532400
O171	O17	0.990300	0.145400	0.881900
O181	O18	0.757800	0.267400	0.596600
O191	O19	0.251900	0.055700	0.109200
O201	O20	0.755500	0.451500	0.405500
O211	O21	0.014100	0.412400	0.661300
O221	O22	0.262500	0.225200	0.907300
O231	O23	0.153800	0.961000	0.827800
O241	O24	0.919900	0.216700	0.450100
P71	P7	0.337000	0.100300	0.566900
P81	P8	0.637600	0.341400	0.967600
O251	O25	0.509700	0.145400	0.618100
O261	O26	0.742200	0.267400	0.903400
O271	O27	0.248100	0.055700	0.390800
O281	O28	0.744500	0.451500	0.094500
O291	O29	0.485900	0.412400	0.838700
O301	O30	0.237500	0.225200	0.592700
O311	O31	0.346200	0.961000	0.672200
O321	O32	0.580100	0.216700	0.049900
Fe11	Fe1	0.250000	0.881800	0.250000
Fe21	Fe2	0.750000	0.118200	0.750000
Fe31	Fe3	0.750000	0.604200	0.250000
Fe41	Fe4	0.250000	0.395800	0.750000
