data_XISKUF_clean_PM
_symmetry_space_group_name_H-M	'P1'
_cell_length_a	19.191200
_cell_length_b	9.347000
_cell_length_c	9.637500
_cell_angle_alpha	90.000000
_cell_angle_beta	92.709000
_cell_angle_gamma	90.000000
_symmetry_Int_Tables_number 1

loop_
_symmetry_equiv_pos_as_xyz
'x,y,z'

loop_
_atom_site_label
_atom_site_type_symbol
_atom_site_fract_x
_atom_site_fract_y
_atom_site_fract_z
P11	P1	0.833400	0.150800	0.528900
P21	P2	0.952000	0.844800	0.216500
P31	P3	0.580800	0.906400	0.400500
P41	P4	0.605000	0.156800	0.780200
Al11	Al1	0.944100	0.919500	0.519200
Al21	Al2	0.918300	0.157200	0.272500
Al31	Al3	0.674600	0.155400	0.489100
Al41	Al4	0.466000	0.139200	0.285300
O11	O1	0.870600	0.015200	0.580000
O21	O2	0.839100	0.178200	0.372200
O31	O3	0.757500	0.145300	0.559000
O41	O4	0.865300	0.275600	0.615400
O51	O5	0.914900	0.818300	0.353300
O61	O6	0.911300	0.745200	0.116200
O71	O7	0.030900	0.820000	0.235700
O81	O8	0.934700	0.999000	0.169900
O91	O9	0.513300	0.985700	0.364100
O101	O10	0.572700	0.833100	0.540500
O111	O11	0.590000	0.785500	0.293000
O121	O12	0.650200	0.990400	0.413300
O131	O13	0.538800	0.228100	0.827100
O141	O14	0.620900	0.196000	0.628300
O151	O15	0.601600	0.991900	0.789500
O161	O16	0.671400	0.199900	0.870100
O171	O17	0.969200	0.081300	0.420800
P51	P5	0.166600	0.650800	0.971100
P61	P6	0.048000	0.344800	0.283500
P71	P7	0.419200	0.406400	0.099500
P81	P8	0.395000	0.656800	0.719800
Al51	Al5	0.055900	0.419500	0.980800
Al61	Al6	0.081700	0.657200	0.227500
Al71	Al7	0.325400	0.655400	0.010900
Al81	Al8	0.534000	0.639200	0.214700
O181	O18	0.129400	0.515200	0.920000
O191	O19	0.160900	0.678200	0.127800
O201	O20	0.242500	0.645300	0.941000
O211	O21	0.134700	0.775600	0.884600
O221	O22	0.085100	0.318300	0.146700
O231	O23	0.088700	0.245200	0.383800
O241	O24	0.969100	0.320000	0.264300
O251	O25	0.065300	0.499000	0.330100
O261	O26	0.486700	0.485700	0.135900
O271	O27	0.427300	0.333100	0.959500
O281	O28	0.410000	0.285500	0.207000
O291	O29	0.349800	0.490400	0.086700
O301	O30	0.461200	0.728100	0.672900
O311	O31	0.379100	0.696000	0.871700
O321	O32	0.398400	0.491900	0.710500
O331	O33	0.328600	0.699900	0.629900
O341	O34	0.030800	0.581300	0.079200
P91	P9	0.166600	0.849200	0.471100
P101	P10	0.048000	0.155200	0.783500
P111	P11	0.419200	0.093600	0.599500
P121	P12	0.395000	0.843200	0.219800
Al91	Al9	0.055900	0.080500	0.480800
Al101	Al10	0.081700	0.842800	0.727500
Al111	Al11	0.325400	0.844600	0.510900
Al121	Al12	0.534000	0.860800	0.714700
O351	O35	0.129400	0.984800	0.420000
O361	O36	0.160900	0.821800	0.627800
O371	O37	0.242500	0.854700	0.441000
O381	O38	0.134700	0.724400	0.384600
O391	O39	0.085100	0.181700	0.646700
O401	O40	0.088700	0.254800	0.883800
O411	O41	0.969100	0.180000	0.764300
O421	O42	0.065300	0.001000	0.830100
O431	O43	0.486700	0.014300	0.635900
O441	O44	0.427300	0.166900	0.459500
O451	O45	0.410000	0.214500	0.707000
O461	O46	0.349800	0.009600	0.586700
O471	O47	0.461200	0.771900	0.172900
O481	O48	0.379100	0.804000	0.371700
O491	O49	0.398400	0.008100	0.210500
O501	O50	0.328600	0.800100	0.129900
O511	O51	0.030800	0.918700	0.579200
P131	P13	0.833400	0.349200	0.028900
P141	P14	0.952000	0.655200	0.716500
P151	P15	0.580800	0.593600	0.900500
P161	P16	0.605000	0.343200	0.280200
Al131	Al13	0.944100	0.580500	0.019200
Al141	Al14	0.918300	0.342800	0.772500
Al151	Al15	0.674600	0.344600	0.989100
Al161	Al16	0.466000	0.360800	0.785300
O521	O52	0.870600	0.484800	0.080000
O531	O53	0.839100	0.321800	0.872200
O541	O54	0.757500	0.354700	0.059000
O551	O55	0.865300	0.224400	0.115400
O561	O56	0.914900	0.681700	0.853300
O571	O57	0.911300	0.754800	0.616200
O581	O58	0.030900	0.680000	0.735700
O591	O59	0.934700	0.501000	0.669900
O601	O60	0.513300	0.514300	0.864100
O611	O61	0.572700	0.666900	0.040500
O621	O62	0.590000	0.714500	0.793000
O631	O63	0.650200	0.509600	0.913300
O641	O64	0.538800	0.271900	0.327100
O651	O65	0.620900	0.304000	0.128300
O661	O66	0.601600	0.508100	0.289500
O671	O67	0.671400	0.300100	0.370100
O681	O68	0.969200	0.418700	0.920800
