data_XISLAM_clean_PM
_symmetry_space_group_name_H-M	'P1'
_cell_length_a	19.249100
_cell_length_b	9.275000
_cell_length_c	9.701900
_cell_angle_alpha	90.000000
_cell_angle_beta	93.793000
_cell_angle_gamma	90.000000
_symmetry_Int_Tables_number 1

loop_
_symmetry_equiv_pos_as_xyz
'x,y,z'

loop_
_atom_site_label
_atom_site_type_symbol
_atom_site_fract_x
_atom_site_fract_y
_atom_site_fract_z
P11	P1	0.836500	0.159800	0.522700
P21	P2	0.948100	0.844400	0.217500
P31	P3	0.580300	0.898900	0.397200
P41	P4	0.600800	0.151600	0.778900
Al11	Al1	0.942300	0.922300	0.511700
Al21	Al2	0.919500	0.157200	0.266900
Al31	Al3	0.671600	0.151000	0.490400
Al41	Al4	0.461300	0.144200	0.302900
O11	O1	0.868900	0.013800	0.566100
O21	O2	0.840600	0.179500	0.365800
O31	O3	0.759300	0.146800	0.540800
O41	O4	0.871200	0.284800	0.606800
O51	O5	0.921000	0.807900	0.358800
O61	O6	0.918300	0.735800	0.110800
O71	O7	0.027100	0.824800	0.225400
O81	O8	0.938100	0.997300	0.159100
O91	O9	0.517400	0.997500	0.366900
O101	O10	0.582000	0.832000	0.542300
O111	O11	0.593000	0.784600	0.286900
O121	O12	0.645200	0.996300	0.396900
O131	O13	0.537500	0.244500	0.798000
O141	O14	0.621300	0.181500	0.629900
O151	O15	0.585400	0.992900	0.809600
O161	O16	0.657000	0.192400	0.891500
O171	O17	0.971000	0.076300	0.410700
P51	P5	0.163500	0.659800	0.977300
P61	P6	0.051900	0.344400	0.282500
P71	P7	0.419700	0.398900	0.102800
P81	P8	0.399200	0.651600	0.721100
Al51	Al5	0.057700	0.422300	0.988300
Al61	Al6	0.080500	0.657200	0.233100
Al71	Al7	0.328400	0.651000	0.009600
Al81	Al8	0.538700	0.644200	0.197100
O181	O18	0.131100	0.513800	0.933900
O191	O19	0.159400	0.679500	0.134200
O201	O20	0.240700	0.646800	0.959200
O211	O21	0.128800	0.784800	0.893200
O221	O22	0.079000	0.307900	0.141200
O231	O23	0.081700	0.235800	0.389200
O241	O24	0.972900	0.324800	0.274600
O251	O25	0.061900	0.497300	0.340900
O261	O26	0.482600	0.497500	0.133100
O271	O27	0.418000	0.332000	0.957700
O281	O28	0.407000	0.284600	0.213100
O291	O29	0.354800	0.496300	0.103100
O301	O30	0.462500	0.744500	0.702000
O311	O31	0.378700	0.681500	0.870100
O321	O32	0.414600	0.492900	0.690400
O331	O33	0.343000	0.692400	0.608500
O341	O34	0.029000	0.576300	0.089300
P91	P9	0.163500	0.840200	0.477300
P101	P10	0.051900	0.155600	0.782500
P111	P11	0.419700	0.101100	0.602800
P121	P12	0.399200	0.848400	0.221100
Al91	Al9	0.057700	0.077700	0.488300
Al101	Al10	0.080500	0.842800	0.733100
Al111	Al11	0.328400	0.849000	0.509600
Al121	Al12	0.538700	0.855800	0.697100
O351	O35	0.131100	0.986200	0.433900
O361	O36	0.159400	0.820500	0.634200
O371	O37	0.240700	0.853200	0.459200
O381	O38	0.128800	0.715200	0.393200
O391	O39	0.079000	0.192100	0.641200
O401	O40	0.081700	0.264200	0.889200
O411	O41	0.972900	0.175200	0.774600
O421	O42	0.061900	0.002700	0.840900
O431	O43	0.482600	0.002500	0.633100
O441	O44	0.418000	0.168000	0.457700
O451	O45	0.407000	0.215400	0.713100
O461	O46	0.354800	0.003700	0.603100
O471	O47	0.462500	0.755500	0.202000
O481	O48	0.378700	0.818500	0.370100
O491	O49	0.414600	0.007100	0.190400
O501	O50	0.343000	0.807600	0.108500
O511	O51	0.029000	0.923700	0.589300
P131	P13	0.836500	0.340200	0.022700
P141	P14	0.948100	0.655600	0.717500
P151	P15	0.580300	0.601100	0.897200
P161	P16	0.600800	0.348400	0.278900
Al131	Al13	0.942300	0.577700	0.011700
Al141	Al14	0.919500	0.342800	0.766900
Al151	Al15	0.671600	0.349000	0.990400
Al161	Al16	0.461300	0.355800	0.802900
O521	O52	0.868900	0.486200	0.066100
O531	O53	0.840600	0.320500	0.865800
O541	O54	0.759300	0.353200	0.040800
O551	O55	0.871200	0.215200	0.106800
O561	O56	0.921000	0.692100	0.858800
O571	O57	0.918300	0.764200	0.610800
O581	O58	0.027100	0.675200	0.725400
O591	O59	0.938100	0.502700	0.659100
O601	O60	0.517400	0.502500	0.866900
O611	O61	0.582000	0.668000	0.042300
O621	O62	0.593000	0.715400	0.786900
O631	O63	0.645200	0.503700	0.896900
O641	O64	0.537500	0.255500	0.298000
O651	O65	0.621300	0.318500	0.129900
O661	O66	0.585400	0.507100	0.309600
O671	O67	0.657000	0.307600	0.391500
O681	O68	0.971000	0.423700	0.910700
