data_XISPUM01_clean_PM
_symmetry_space_group_name_H-M	'P1'
_cell_length_a	7.487200
_cell_length_b	14.302400
_cell_length_c	15.020300
_cell_angle_alpha	86.393000
_cell_angle_beta	84.502000
_cell_angle_gamma	89.936000
_symmetry_Int_Tables_number 1

loop_
_symmetry_equiv_pos_as_xyz
'x,y,z'

loop_
_atom_site_label
_atom_site_type_symbol
_atom_site_fract_x
_atom_site_fract_y
_atom_site_fract_z
Pt11	Pt1	0.006810	0.258910	0.462300
N11	N1	0.518600	0.594100	0.377900
N21	N2	0.716600	0.414700	0.443600
N31	N3	0.488000	0.000700	0.649000
N41	N4	0.295300	0.106500	0.496900
N51	N5	0.706000	0.105400	0.487100
N61	N6	0.306300	0.413300	0.448400
C11	C1	0.532000	0.552700	0.292400
C21	C2	0.535000	0.613400	0.218100
C31	C3	0.525000	0.710100	0.221000
C41	C4	0.524000	0.747000	0.303500
C51	C5	0.517000	0.686800	0.379800
C61	C6	0.528000	0.766000	0.141900
C71	C7	0.514000	0.814800	0.070900
C81	C8	0.497000	0.868000	0.996400
C91	C9	0.822500	0.357300	0.445600
C101	C10	0.638000	0.990800	0.688900
C111	C11	0.636000	0.966200	0.780500
C121	C12	0.487000	0.952000	0.831000
C131	C13	0.337000	0.959400	0.795800
C141	C14	0.330000	0.991500	0.700800
C151	C15	0.493000	0.911000	0.925000
C161	C16	0.192600	0.162600	0.483900
C171	C17	0.813500	0.162500	0.479600
C181	C18	0.197900	0.357100	0.448500
Pt21	Pt2	0.993190	0.741090	0.537700
N71	N7	0.481400	0.405900	0.622100
N81	N8	0.283400	0.585300	0.556400
N91	N9	0.512000	0.999300	0.351000
N101	N10	0.704700	0.893500	0.503100
N111	N11	0.294000	0.894600	0.512900
N121	N12	0.693700	0.586700	0.551600
C191	C19	0.468000	0.447300	0.707600
C201	C20	0.465000	0.386600	0.781900
C211	C21	0.475000	0.289900	0.779000
C221	C22	0.476000	0.253000	0.696500
C231	C23	0.483000	0.313200	0.620200
C241	C24	0.472000	0.234000	0.858100
C251	C25	0.486000	0.185200	0.929100
C261	C26	0.503000	0.132000	0.003600
C271	C27	0.177500	0.642700	0.554400
C281	C28	0.362000	0.009200	0.311100
C291	C29	0.364000	0.033800	0.219500
C301	C30	0.513000	0.048000	0.169000
C311	C31	0.663000	0.040600	0.204200
C321	C32	0.670000	0.008500	0.299200
C331	C33	0.507000	0.089000	0.075000
C341	C34	0.807400	0.837400	0.516100
C351	C35	0.186500	0.837500	0.520400
C361	C36	0.802100	0.642900	0.551500
Fe11	Fe1	0.500000	0.500000	0.500000
Fe21	Fe2	0.500000	0.000000	0.500000
