data_XISVUR_clean_PM
_symmetry_space_group_name_H-M	'P1'
_cell_length_a	14.466900
_cell_length_b	17.046000
_cell_length_c	18.020000
_cell_angle_alpha	90.000000
_cell_angle_beta	90.000000
_cell_angle_gamma	90.000000
_symmetry_Int_Tables_number 1

loop_
_symmetry_equiv_pos_as_xyz
'x,y,z'

loop_
_atom_site_label
_atom_site_type_symbol
_atom_site_fract_x
_atom_site_fract_y
_atom_site_fract_z
Zn11	Zn1	0.846440	0.944730	0.601660
Zn21	Zn2	0.053990	0.936390	0.546670
Zn31	Zn3	0.153560	0.444730	0.898340
Zn41	Zn4	0.946010	0.436390	0.953330
Zn51	Zn5	0.153560	0.055270	0.398340
Zn61	Zn6	0.946010	0.063610	0.453330
Zn71	Zn7	0.846440	0.555270	0.101660
Zn81	Zn8	0.053990	0.563610	0.046670
H11	H1	0.133400	0.121200	0.693900
H21	H2	0.163800	0.230400	0.766000
H31	H3	0.909100	0.220200	0.847100
H41	H4	0.877400	0.111100	0.779200
H51	H5	0.578800	0.064600	0.592300
H61	H6	0.563100	0.892000	0.444300
H71	H7	0.866600	0.621200	0.806100
H81	H8	0.836200	0.730400	0.734000
H91	H9	0.090900	0.720200	0.652900
H101	H10	0.122600	0.611100	0.720800
H111	H11	0.421200	0.564600	0.907700
H121	H12	0.436900	0.392000	0.055700
H131	H13	0.866600	0.878800	0.306100
H141	H14	0.836200	0.769600	0.234000
H151	H15	0.090900	0.779800	0.152900
H161	H16	0.122600	0.888900	0.220800
H171	H17	0.421200	0.935400	0.407700
H181	H18	0.436900	0.108000	0.555700
H191	H19	0.133400	0.378800	0.193900
H201	H20	0.163800	0.269600	0.266000
H211	H21	0.909100	0.279800	0.347100
H221	H22	0.877400	0.388900	0.279200
H231	H23	0.578800	0.435400	0.092300
H241	H24	0.563100	0.608000	0.944300
C11	C1	0.980800	0.035400	0.677900
C21	C2	0.001600	0.104100	0.727600
C31	C3	0.087600	0.141100	0.724800
C41	C4	0.105700	0.207200	0.767600
C51	C5	0.038400	0.238200	0.812000
C61	C6	0.954400	0.200300	0.815700
C71	C7	0.935000	0.135000	0.775200
C81	C8	0.053100	0.311100	0.855000
C91	C9	0.681300	0.943700	0.543800
C101	C10	0.586800	0.973300	0.522700
C111	C11	0.547400	0.038000	0.554900
C121	C12	0.537700	0.935900	0.467200
C131	C13	0.019200	0.535400	0.822100
C141	C14	0.998400	0.604100	0.772400
C151	C15	0.912400	0.641100	0.775200
C161	C16	0.894300	0.707200	0.732400
C171	C17	0.961600	0.738200	0.688000
C181	C18	0.045600	0.700300	0.684300
C191	C19	0.065000	0.635000	0.724800
C201	C20	0.946900	0.811100	0.645000
C211	C21	0.318700	0.443700	0.956200
C221	C22	0.413200	0.473300	0.977300
C231	C23	0.452600	0.538000	0.945100
C241	C24	0.462300	0.435900	0.032800
C251	C25	0.019200	0.964600	0.322100
C261	C26	0.998400	0.895900	0.272400
C271	C27	0.912400	0.858900	0.275200
C281	C28	0.894300	0.792800	0.232400
C291	C29	0.961600	0.761800	0.188000
C301	C30	0.045600	0.799700	0.184300
C311	C31	0.065000	0.865000	0.224800
C321	C32	0.946900	0.688900	0.145000
C331	C33	0.318700	0.056300	0.456200
C341	C34	0.413200	0.026700	0.477300
C351	C35	0.452600	0.962000	0.445100
C361	C36	0.462300	0.064100	0.532800
C371	C37	0.980800	0.464600	0.177900
C381	C38	0.001600	0.395900	0.227600
C391	C39	0.087600	0.358900	0.224800
C401	C40	0.105700	0.292800	0.267600
C411	C41	0.038400	0.261800	0.312000
C421	C42	0.954400	0.299700	0.315700
C431	C43	0.935000	0.365000	0.275200
C441	C44	0.053100	0.188900	0.355000
C451	C45	0.681300	0.556300	0.043800
C461	C46	0.586800	0.526700	0.022700
C471	C47	0.547400	0.462000	0.054900
C481	C48	0.537700	0.564100	0.967200
O11	O1	0.918000	0.961500	0.511100
O21	O2	0.898000	0.011900	0.680300
O31	O3	0.044300	0.009900	0.638600
O41	O4	0.987900	0.338900	0.890300
O51	O5	0.134600	0.340600	0.853400
O61	O6	0.719900	0.980100	0.597500
O71	O7	0.717100	0.889700	0.509800
O81	O8	0.082000	0.461500	0.988900
O91	O9	0.102000	0.511900	0.819700
O101	O10	0.955700	0.509900	0.861400
O111	O11	0.012100	0.838900	0.609700
O121	O12	0.865400	0.840600	0.646600
O131	O13	0.280100	0.480100	0.902500
O141	O14	0.282900	0.389700	0.990200
O151	O15	0.082000	0.038500	0.488900
O161	O16	0.102000	0.988100	0.319700
O171	O17	0.955700	0.990100	0.361400
O181	O18	0.012100	0.661100	0.109700
O191	O19	0.865400	0.659400	0.146600
O201	O20	0.280100	0.019900	0.402500
O211	O21	0.282900	0.110300	0.490200
O221	O22	0.918000	0.538500	0.011100
O231	O23	0.898000	0.488100	0.180300
O241	O24	0.044300	0.490100	0.138600
O251	O25	0.987900	0.161100	0.390300
O261	O26	0.134600	0.159400	0.353400
O271	O27	0.719900	0.519900	0.097500
O281	O28	0.717100	0.610300	0.009800
Zn91	Zn9	0.653560	0.055270	0.101660
Zn101	Zn10	0.446010	0.063610	0.046670
Zn111	Zn11	0.346440	0.555270	0.398340
Zn121	Zn12	0.553990	0.563610	0.453330
Zn131	Zn13	0.346440	0.944730	0.898340
Zn141	Zn14	0.553990	0.936390	0.953330
Zn151	Zn15	0.653560	0.444730	0.601660
Zn161	Zn16	0.446010	0.436390	0.546670
H251	H25	0.366600	0.878800	0.193900
H261	H26	0.336200	0.769600	0.266000
H271	H27	0.590900	0.779800	0.347100
H281	H28	0.622600	0.888900	0.279200
H291	H29	0.921200	0.935400	0.092300
H301	H30	0.936900	0.108000	0.944300
H311	H31	0.633400	0.378800	0.306100
H321	H32	0.663800	0.269600	0.234000
H331	H33	0.409100	0.279800	0.152900
H341	H34	0.377400	0.388900	0.220800
H351	H35	0.078800	0.435400	0.407700
H361	H36	0.063100	0.608000	0.555700
H371	H37	0.633400	0.121200	0.806100
H381	H38	0.663800	0.230400	0.734000
H391	H39	0.409100	0.220200	0.652900
H401	H40	0.377400	0.111100	0.720800
H411	H41	0.078800	0.064600	0.907700
H421	H42	0.063100	0.892000	0.055700
H431	H43	0.366600	0.621200	0.693900
H441	H44	0.336200	0.730400	0.766000
H451	H45	0.590900	0.720200	0.847100
H461	H46	0.622600	0.611100	0.779200
H471	H47	0.921200	0.564600	0.592300
H481	H48	0.936900	0.392000	0.444300
C491	C49	0.519200	0.964600	0.177900
C501	C50	0.498400	0.895900	0.227600
C511	C51	0.412400	0.858900	0.224800
C521	C52	0.394300	0.792800	0.267600
C531	C53	0.461600	0.761800	0.312000
C541	C54	0.545600	0.799700	0.315700
C551	C55	0.565000	0.865000	0.275200
C561	C56	0.446900	0.688900	0.355000
C571	C57	0.818700	0.056300	0.043800
C581	C58	0.913200	0.026700	0.022700
C591	C59	0.952600	0.962000	0.054900
C601	C60	0.962300	0.064100	0.967200
C611	C61	0.480800	0.464600	0.322100
C621	C62	0.501600	0.395900	0.272400
C631	C63	0.587600	0.358900	0.275200
C641	C64	0.605700	0.292800	0.232400
C651	C65	0.538400	0.261800	0.188000
C661	C66	0.454400	0.299700	0.184300
C671	C67	0.435000	0.365000	0.224800
C681	C68	0.553100	0.188900	0.145000
C691	C69	0.181300	0.556300	0.456200
C701	C70	0.086800	0.526700	0.477300
C711	C71	0.047400	0.462000	0.445100
C721	C72	0.037700	0.564100	0.532800
C731	C73	0.480800	0.035400	0.822100
C741	C74	0.501600	0.104100	0.772400
C751	C75	0.587600	0.141100	0.775200
C761	C76	0.605700	0.207200	0.732400
C771	C77	0.538400	0.238200	0.688000
C781	C78	0.454400	0.200300	0.684300
C791	C79	0.435000	0.135000	0.724800
C801	C80	0.553100	0.311100	0.645000
C811	C81	0.181300	0.943700	0.956200
C821	C82	0.086800	0.973300	0.977300
C831	C83	0.047400	0.038000	0.945100
C841	C84	0.037700	0.935900	0.032800
C851	C85	0.519200	0.535400	0.677900
C861	C86	0.498400	0.604100	0.727600
C871	C87	0.412400	0.641100	0.724800
C881	C88	0.394300	0.707200	0.767600
C891	C89	0.461600	0.738200	0.812000
C901	C90	0.545600	0.700300	0.815700
C911	C91	0.565000	0.635000	0.775200
C921	C92	0.446900	0.811100	0.855000
C931	C93	0.818700	0.443700	0.543800
C941	C94	0.913200	0.473300	0.522700
C951	C95	0.952600	0.538000	0.554900
C961	C96	0.962300	0.435900	0.467200
O291	O29	0.582000	0.038500	0.011100
O301	O30	0.602000	0.988100	0.180300
O311	O31	0.455700	0.990100	0.138600
O321	O32	0.512100	0.661100	0.390300
O331	O33	0.365400	0.659400	0.353400
O341	O34	0.780100	0.019900	0.097500
O351	O35	0.782900	0.110300	0.009800
O361	O36	0.418000	0.538500	0.488900
O371	O37	0.398000	0.488100	0.319700
O381	O38	0.544300	0.490100	0.361400
O391	O39	0.487900	0.161100	0.109700
O401	O40	0.634600	0.159400	0.146600
O411	O41	0.219900	0.519900	0.402500
O421	O42	0.217100	0.610300	0.490200
O431	O43	0.418000	0.961500	0.988900
O441	O44	0.398000	0.011900	0.819700
O451	O45	0.544300	0.009900	0.861400
O461	O46	0.487900	0.338900	0.609700
O471	O47	0.634600	0.340600	0.646600
O481	O48	0.219900	0.980100	0.902500
O491	O49	0.217100	0.889700	0.990200
O501	O50	0.582000	0.461500	0.511100
O511	O51	0.602000	0.511900	0.680300
O521	O52	0.455700	0.509900	0.638600
O531	O53	0.512100	0.838900	0.890300
O541	O54	0.365400	0.840600	0.853400
O551	O55	0.780100	0.480100	0.597500
O561	O56	0.782900	0.389700	0.509800
