data_XITYOP_clean_PM
_symmetry_space_group_name_H-M	'P1'
_cell_length_a	18.453000
_cell_length_b	18.453000
_cell_length_c	27.782600
_cell_angle_alpha	70.603900
_cell_angle_beta	70.603900
_cell_angle_gamma	60.000000
_symmetry_Int_Tables_number 1

loop_
_symmetry_equiv_pos_as_xyz
'x,y,z'

loop_
_atom_site_label
_atom_site_type_symbol
_atom_site_fract_x
_atom_site_fract_y
_atom_site_fract_z
Cu11	Cu1	0.221130	0.783830	0.792250
Cu21	Cu2	0.783830	0.202790	0.792250
Cu31	Cu3	0.202790	0.221130	0.792250
Cu41	Cu4	0.278870	0.297210	0.707750
Cu51	Cu5	0.716170	0.278870	0.707750
Cu61	Cu6	0.297210	0.716170	0.707750
Cu71	Cu7	0.778870	0.216170	0.207750
Cu81	Cu8	0.216170	0.797210	0.207750
Cu91	Cu9	0.797210	0.778870	0.207750
Cu101	Cu10	0.721130	0.702790	0.292250
Cu111	Cu11	0.283830	0.721130	0.292250
Cu121	Cu12	0.702790	0.283830	0.292250
H11	H1	0.088900	0.412300	0.882100
H21	H2	0.100400	0.622700	0.885400
H31	H3	0.209900	0.523600	0.754900
H41	H4	0.935100	0.561100	0.885100
H51	H5	0.202300	0.476000	0.940600
H61	H6	0.795700	0.585400	0.906700
H71	H7	0.273000	0.435800	0.005400
H81	H8	0.412300	0.616700	0.882100
H91	H9	0.622700	0.391500	0.885400
H101	H10	0.523600	0.511600	0.754900
H111	H11	0.561100	0.618700	0.885100
H121	H12	0.476000	0.381100	0.940600
H131	H13	0.585400	0.712200	0.906700
H141	H14	0.435800	0.285800	0.005400
H151	H15	0.616700	0.088900	0.882100
H161	H16	0.391500	0.100400	0.885400
H171	H17	0.511600	0.209900	0.754900
H181	H18	0.618700	0.935100	0.885100
H191	H19	0.381100	0.202300	0.940600
H201	H20	0.712200	0.795700	0.906700
H211	H21	0.285800	0.273000	0.005400
H221	H22	0.411100	0.883300	0.617900
H231	H23	0.399600	0.108500	0.614600
H241	H24	0.290100	0.988400	0.745100
H251	H25	0.564900	0.881300	0.614900
H261	H26	0.297700	0.118900	0.559400
H271	H27	0.704300	0.787800	0.593300
H281	H28	0.227000	0.214200	0.494600
H291	H29	0.087700	0.411100	0.617900
H301	H30	0.877300	0.399600	0.614600
H311	H31	0.976400	0.290100	0.745100
H321	H32	0.938900	0.564900	0.614900
H331	H33	0.024000	0.297700	0.559400
H341	H34	0.914600	0.704300	0.593300
H351	H35	0.064200	0.227000	0.494600
H361	H36	0.883300	0.087700	0.617900
H371	H37	0.108500	0.877300	0.614600
H381	H38	0.988400	0.976400	0.745100
H391	H39	0.881300	0.938900	0.614900
H401	H40	0.118900	0.024000	0.559400
H411	H41	0.787800	0.914600	0.593300
H421	H42	0.214200	0.064200	0.494600
H431	H43	0.911100	0.587700	0.117900
H441	H44	0.899600	0.377300	0.114600
H451	H45	0.790100	0.476400	0.245100
H461	H46	0.064900	0.438900	0.114900
H471	H47	0.797700	0.524000	0.059400
H481	H48	0.204300	0.414600	0.093300
H491	H49	0.727000	0.564200	0.994600
H501	H50	0.587700	0.383300	0.117900
H511	H51	0.377300	0.608500	0.114600
H521	H52	0.476400	0.488400	0.245100
H531	H53	0.438900	0.381300	0.114900
H541	H54	0.524000	0.618900	0.059400
H551	H55	0.414600	0.287800	0.093300
H561	H56	0.564200	0.714200	0.994600
H571	H57	0.383300	0.911100	0.117900
H581	H58	0.608500	0.899600	0.114600
H591	H59	0.488400	0.790100	0.245100
H601	H60	0.381300	0.064900	0.114900
H611	H61	0.618900	0.797700	0.059400
H621	H62	0.287800	0.204300	0.093300
H631	H63	0.714200	0.727000	0.994600
H641	H64	0.588900	0.116700	0.382100
H651	H65	0.600400	0.891500	0.385400
H661	H66	0.709900	0.011600	0.254900
H671	H67	0.435100	0.118700	0.385100
H681	H68	0.702300	0.881100	0.440600
H691	H69	0.295700	0.212200	0.406700
H701	H70	0.773000	0.785800	0.505400
H711	H71	0.912300	0.588900	0.382100
H721	H72	0.122700	0.600400	0.385400
H731	H73	0.023600	0.709900	0.254900
H741	H74	0.061100	0.435100	0.385100
H751	H75	0.976000	0.702300	0.440600
H761	H76	0.085400	0.295700	0.406700
H771	H77	0.935800	0.773000	0.505400
H781	H78	0.116700	0.912300	0.382100
H791	H79	0.891500	0.122700	0.385400
H801	H80	0.011600	0.023600	0.254900
H811	H81	0.118700	0.061100	0.385100
H821	H82	0.881100	0.976000	0.440600
H831	H83	0.212200	0.085400	0.406700
H841	H84	0.785800	0.935800	0.505400
C11	C1	0.181590	0.387250	0.788680
C21	C2	0.087030	0.517280	0.892150
C31	C3	0.194140	0.648200	0.791200
C41	C4	0.106890	0.456310	0.865390
C51	C5	0.086560	0.485380	0.987190
C61	C6	0.956770	0.524920	0.960070
C71	C7	0.113570	0.580630	0.867370
C81	C8	0.159560	0.583690	0.816160
C91	C9	0.041240	0.510650	0.947710
C101	C10	0.178680	0.521940	0.790000
C111	C11	0.908250	0.552650	0.920950
C121	C12	0.152380	0.458360	0.814840
C131	C13	0.173150	0.469370	0.975910
C141	C14	0.826050	0.567050	0.933550
C151	C15	0.215170	0.444970	0.013890
C161	C16	0.387250	0.642480	0.788680
C171	C17	0.517280	0.503540	0.892150
C181	C18	0.648200	0.366460	0.791200
C191	C19	0.456310	0.571410	0.865390
C201	C20	0.485380	0.440870	0.987190
C211	C21	0.524920	0.558240	0.960070
C221	C22	0.580630	0.438430	0.867370
C231	C23	0.583690	0.440590	0.816160
C241	C24	0.510650	0.500400	0.947710
C251	C25	0.521940	0.509380	0.790000
C261	C26	0.552650	0.618150	0.920950
C271	C27	0.458360	0.574420	0.814840
C281	C28	0.469370	0.381570	0.975910
C291	C29	0.567050	0.673350	0.933550
C301	C30	0.444970	0.325970	0.013890
C311	C31	0.642480	0.181590	0.788680
C321	C32	0.503540	0.087030	0.892150
C331	C33	0.366460	0.194140	0.791200
C341	C34	0.571410	0.106890	0.865390
C351	C35	0.440870	0.086560	0.987190
C361	C36	0.558240	0.956770	0.960070
C371	C37	0.438430	0.113570	0.867370
C381	C38	0.440590	0.159560	0.816160
C391	C39	0.500400	0.041240	0.947710
C401	C40	0.509380	0.178680	0.790000
C411	C41	0.618150	0.908250	0.920950
C421	C42	0.574420	0.152380	0.814840
C431	C43	0.381570	0.173150	0.975910
C441	C44	0.673350	0.826050	0.933550
C451	C45	0.325970	0.215170	0.013890
C461	C46	0.318410	0.857520	0.711320
C471	C47	0.412970	0.996460	0.607850
C481	C48	0.305860	0.133540	0.708800
C491	C49	0.393110	0.928590	0.634610
C501	C50	0.413440	0.059130	0.512810
C511	C51	0.543230	0.941760	0.539930
C521	C52	0.386430	0.061570	0.632630
C531	C53	0.340440	0.059410	0.683840
C541	C54	0.458760	0.999600	0.552290
C551	C55	0.321320	0.990620	0.710000
C561	C56	0.591750	0.881850	0.579050
C571	C57	0.347620	0.925580	0.685160
C581	C58	0.326850	0.118430	0.524090
C591	C59	0.673950	0.826650	0.566450
C601	C60	0.284830	0.174030	0.486110
C611	C61	0.112750	0.318410	0.711320
C621	C62	0.982720	0.412970	0.607850
C631	C63	0.851800	0.305860	0.708800
C641	C64	0.043690	0.393110	0.634610
C651	C65	0.014620	0.413440	0.512810
C661	C66	0.975080	0.543230	0.539930
C671	C67	0.919370	0.386430	0.632630
C681	C68	0.916310	0.340440	0.683840
C691	C69	0.989350	0.458760	0.552290
C701	C70	0.978060	0.321320	0.710000
C711	C71	0.947350	0.591750	0.579050
C721	C72	0.041640	0.347620	0.685160
C731	C73	0.030630	0.326850	0.524090
C741	C74	0.932950	0.673950	0.566450
C751	C75	0.055030	0.284830	0.486110
C761	C76	0.857520	0.112750	0.711320
C771	C77	0.996460	0.982720	0.607850
C781	C78	0.133540	0.851800	0.708800
C791	C79	0.928590	0.043690	0.634610
C801	C80	0.059130	0.014620	0.512810
C811	C81	0.941760	0.975080	0.539930
C821	C82	0.061570	0.919370	0.632630
C831	C83	0.059410	0.916310	0.683840
C841	C84	0.999600	0.989350	0.552290
C851	C85	0.990620	0.978060	0.710000
C861	C86	0.881850	0.947350	0.579050
C871	C87	0.925580	0.041640	0.685160
C881	C88	0.118430	0.030630	0.524090
C891	C89	0.826650	0.932950	0.566450
C901	C90	0.174030	0.055030	0.486110
C911	C91	0.818410	0.612750	0.211320
C921	C92	0.912970	0.482720	0.107850
C931	C93	0.805860	0.351800	0.208800
C941	C94	0.893110	0.543690	0.134610
C951	C95	0.913440	0.514620	0.012810
C961	C96	0.043230	0.475080	0.039930
C971	C97	0.886430	0.419370	0.132630
C981	C98	0.840440	0.416310	0.183840
C991	C99	0.958760	0.489350	0.052290
C1001	C100	0.821320	0.478060	0.210000
C1011	C101	0.091750	0.447350	0.079050
C1021	C102	0.847620	0.541640	0.185160
C1031	C103	0.826850	0.530630	0.024090
C1041	C104	0.173950	0.432950	0.066450
C1051	C105	0.784830	0.555030	0.986110
C1061	C106	0.612750	0.357520	0.211320
C1071	C107	0.482720	0.496460	0.107850
C1081	C108	0.351800	0.633540	0.208800
C1091	C109	0.543690	0.428590	0.134610
C1101	C110	0.514620	0.559130	0.012810
C1111	C111	0.475080	0.441760	0.039930
C1121	C112	0.419370	0.561570	0.132630
C1131	C113	0.416310	0.559410	0.183840
C1141	C114	0.489350	0.499600	0.052290
C1151	C115	0.478060	0.490620	0.210000
C1161	C116	0.447350	0.381850	0.079050
C1171	C117	0.541640	0.425580	0.185160
C1181	C118	0.530630	0.618430	0.024090
C1191	C119	0.432950	0.326650	0.066450
C1201	C120	0.555030	0.674030	0.986110
C1211	C121	0.357520	0.818410	0.211320
C1221	C122	0.496460	0.912970	0.107850
C1231	C123	0.633540	0.805860	0.208800
C1241	C124	0.428590	0.893110	0.134610
C1251	C125	0.559130	0.913440	0.012810
C1261	C126	0.441760	0.043230	0.039930
C1271	C127	0.561570	0.886430	0.132630
C1281	C128	0.559410	0.840440	0.183840
C1291	C129	0.499600	0.958760	0.052290
C1301	C130	0.490620	0.821320	0.210000
C1311	C131	0.381850	0.091750	0.079050
C1321	C132	0.425580	0.847620	0.185160
C1331	C133	0.618430	0.826850	0.024090
C1341	C134	0.326650	0.173950	0.066450
C1351	C135	0.674030	0.784830	0.986110
C1361	C136	0.681590	0.142480	0.288680
C1371	C137	0.587030	0.003540	0.392150
C1381	C138	0.694140	0.866460	0.291200
C1391	C139	0.606890	0.071410	0.365390
C1401	C140	0.586560	0.940870	0.487190
C1411	C141	0.456770	0.058240	0.460070
C1421	C142	0.613570	0.938430	0.367370
C1431	C143	0.659560	0.940590	0.316160
C1441	C144	0.541240	0.000400	0.447710
C1451	C145	0.678680	0.009380	0.290000
C1461	C146	0.408250	0.118150	0.420950
C1471	C147	0.652380	0.074420	0.314840
C1481	C148	0.673150	0.881570	0.475910
C1491	C149	0.326050	0.173350	0.433550
C1501	C150	0.715170	0.825970	0.513890
C1511	C151	0.887250	0.681590	0.288680
C1521	C152	0.017280	0.587030	0.392150
C1531	C153	0.148200	0.694140	0.291200
C1541	C154	0.956310	0.606890	0.365390
C1551	C155	0.985380	0.586560	0.487190
C1561	C156	0.024920	0.456770	0.460070
C1571	C157	0.080630	0.613570	0.367370
C1581	C158	0.083690	0.659560	0.316160
C1591	C159	0.010650	0.541240	0.447710
C1601	C160	0.021940	0.678680	0.290000
C1611	C161	0.052650	0.408250	0.420950
C1621	C162	0.958360	0.652380	0.314840
C1631	C163	0.969370	0.673150	0.475910
C1641	C164	0.067050	0.326050	0.433550
C1651	C165	0.944970	0.715170	0.513890
C1661	C166	0.142480	0.887250	0.288680
C1671	C167	0.003540	0.017280	0.392150
C1681	C168	0.866460	0.148200	0.291200
C1691	C169	0.071410	0.956310	0.365390
C1701	C170	0.940870	0.985380	0.487190
C1711	C171	0.058240	0.024920	0.460070
C1721	C172	0.938430	0.080630	0.367370
C1731	C173	0.940590	0.083690	0.316160
C1741	C174	0.000400	0.010650	0.447710
C1751	C175	0.009380	0.021940	0.290000
C1761	C176	0.118150	0.052650	0.420950
C1771	C177	0.074420	0.958360	0.314840
C1781	C178	0.881570	0.969370	0.475910
C1791	C179	0.173350	0.067050	0.433550
C1801	C180	0.825970	0.944970	0.513890
O11	O1	0.177670	0.698560	0.818410
O21	O2	0.228160	0.389780	0.744190
O31	O3	0.237740	0.644170	0.745900
O41	O4	0.158610	0.328760	0.814180
O51	O5	0.698560	0.305360	0.818410
O61	O6	0.389780	0.637870	0.744190
O71	O7	0.644170	0.372190	0.745900
O81	O8	0.328760	0.698450	0.814180
O91	O9	0.305360	0.177670	0.818410
O101	O10	0.637870	0.228160	0.744190
O111	O11	0.372190	0.237740	0.745900
O121	O12	0.698450	0.158610	0.814180
O131	O13	0.322330	0.194640	0.681590
O141	O14	0.271840	0.862130	0.755810
O151	O15	0.262260	0.127810	0.754100
O161	O16	0.341390	0.801550	0.685820
O171	O17	0.801440	0.322330	0.681590
O181	O18	0.110220	0.271840	0.755810
O191	O19	0.855830	0.262260	0.754100
O201	O20	0.171240	0.341390	0.685820
O211	O21	0.194640	0.801440	0.681590
O221	O22	0.862130	0.110220	0.755810
O231	O23	0.127810	0.855830	0.754100
O241	O24	0.801550	0.171240	0.685820
O251	O25	0.822330	0.301440	0.181590
O261	O26	0.771840	0.610220	0.255810
O271	O27	0.762260	0.355830	0.254100
O281	O28	0.841390	0.671240	0.185820
O291	O29	0.301440	0.694640	0.181590
O301	O30	0.610220	0.362130	0.255810
O311	O31	0.355830	0.627810	0.254100
O321	O32	0.671240	0.301550	0.185820
O331	O33	0.694640	0.822330	0.181590
O341	O34	0.362130	0.771840	0.255810
O351	O35	0.627810	0.762260	0.254100
O361	O36	0.301550	0.841390	0.185820
O371	O37	0.677670	0.805360	0.318410
O381	O38	0.728160	0.137870	0.244190
O391	O39	0.737740	0.872190	0.245900
O401	O40	0.658610	0.198450	0.314180
O411	O41	0.198560	0.677670	0.318410
O421	O42	0.889780	0.728160	0.244190
O431	O43	0.144170	0.737740	0.245900
O441	O44	0.828760	0.658610	0.314180
O451	O45	0.805360	0.198560	0.318410
O461	O46	0.137870	0.889780	0.244190
O471	O47	0.872190	0.144170	0.245900
O481	O48	0.198450	0.828760	0.314180
