data_XIYYEL_clean_PM
_symmetry_space_group_name_H-M	'P1'
_cell_length_a	15.371000
_cell_length_b	15.371000
_cell_length_c	15.371000
_cell_angle_alpha	90.000000
_cell_angle_beta	90.000000
_cell_angle_gamma	90.000000
_symmetry_Int_Tables_number 1

loop_
_symmetry_equiv_pos_as_xyz
'x,y,z'

loop_
_atom_site_label
_atom_site_type_symbol
_atom_site_fract_x
_atom_site_fract_y
_atom_site_fract_z
O11	O1	0.988900	0.636300	0.878900
O21	O2	0.488900	0.136300	0.378900
O31	O3	0.511100	0.363700	0.378900
O41	O4	0.011100	0.863700	0.878900
O51	O5	0.011100	0.136300	0.621100
O61	O6	0.511100	0.636300	0.121100
O71	O7	0.488900	0.863700	0.121100
O81	O8	0.988900	0.363700	0.621100
O91	O9	0.878900	0.988900	0.636300
O101	O10	0.378900	0.488900	0.136300
O111	O11	0.378900	0.511100	0.363700
O121	O12	0.878900	0.011100	0.863700
O131	O13	0.621100	0.011100	0.136300
O141	O14	0.121100	0.511100	0.636300
O151	O15	0.121100	0.488900	0.863700
O161	O16	0.621100	0.988900	0.363700
O171	O17	0.636300	0.878900	0.988900
O181	O18	0.136300	0.378900	0.488900
O191	O19	0.363700	0.378900	0.511100
O201	O20	0.863700	0.878900	0.011100
O211	O21	0.136300	0.621100	0.011100
O221	O22	0.636300	0.121100	0.511100
O231	O23	0.863700	0.121100	0.488900
O241	O24	0.363700	0.621100	0.988900
O251	O25	0.386300	0.238900	0.371100
O261	O26	0.886300	0.738900	0.871100
O271	O27	0.113700	0.761100	0.871100
O281	O28	0.613700	0.261100	0.371100
O291	O29	0.886300	0.261100	0.628900
O301	O30	0.386300	0.761100	0.128900
O311	O31	0.613700	0.738900	0.128900
O321	O32	0.113700	0.238900	0.628900
O331	O33	0.738900	0.128900	0.613700
O341	O34	0.238900	0.628900	0.113700
O351	O35	0.261100	0.628900	0.886300
O361	O36	0.761100	0.128900	0.386300
O371	O37	0.761100	0.871100	0.113700
O381	O38	0.261100	0.371100	0.613700
O391	O39	0.238900	0.371100	0.386300
O401	O40	0.738900	0.871100	0.886300
O411	O41	0.628900	0.886300	0.261100
O421	O42	0.128900	0.386300	0.761100
O431	O43	0.128900	0.613700	0.738900
O441	O44	0.628900	0.113700	0.238900
O451	O45	0.371100	0.386300	0.238900
O461	O46	0.871100	0.886300	0.738900
O471	O47	0.871100	0.113700	0.761100
O481	O48	0.371100	0.613700	0.261100
Zn11	Zn1	0.125000	0.625000	0.875000
Zn21	Zn2	0.625000	0.125000	0.375000
Zn31	Zn3	0.375000	0.375000	0.375000
Zn41	Zn4	0.875000	0.875000	0.875000
Zn51	Zn5	0.875000	0.125000	0.625000
Zn61	Zn6	0.375000	0.625000	0.125000
Zn71	Zn7	0.625000	0.875000	0.125000
Zn81	Zn8	0.125000	0.375000	0.625000
C11	C1	0.963300	0.713300	0.875000
C21	C2	0.536700	0.286700	0.375000
C31	C3	0.036700	0.213300	0.625000
C41	C4	0.463300	0.786700	0.125000
C51	C5	0.875000	0.963300	0.713300
C61	C6	0.375000	0.536700	0.286700
C71	C7	0.625000	0.036700	0.213300
C81	C8	0.125000	0.463300	0.786700
C91	C9	0.713300	0.875000	0.963300
C101	C10	0.286700	0.375000	0.536700
C111	C11	0.213300	0.625000	0.036700
C121	C12	0.786700	0.125000	0.463300
C131	C13	0.463300	0.213300	0.375000
C141	C14	0.036700	0.786700	0.875000
C151	C15	0.963300	0.286700	0.625000
C161	C16	0.536700	0.713300	0.125000
C171	C17	0.713300	0.125000	0.536700
C181	C18	0.286700	0.625000	0.963300
C191	C19	0.786700	0.875000	0.036700
C201	C20	0.213300	0.375000	0.463300
C211	C21	0.625000	0.963300	0.286700
C221	C22	0.125000	0.536700	0.713300
C231	C23	0.375000	0.463300	0.213300
C241	C24	0.875000	0.036700	0.786700
