data_XOCWET_clean_PM
_symmetry_space_group_name_H-M	'P1'
_cell_length_a	11.001000
_cell_length_b	11.563000
_cell_length_c	13.432000
_cell_angle_alpha	69.358000
_cell_angle_beta	79.869000
_cell_angle_gamma	61.864000
_symmetry_Int_Tables_number 1

loop_
_symmetry_equiv_pos_as_xyz
'x,y,z'

loop_
_atom_site_label
_atom_site_type_symbol
_atom_site_fract_x
_atom_site_fract_y
_atom_site_fract_z
U11	U1	0.633300	0.701250	0.833770
La11	La1	0.624380	0.212800	0.775210
O11	O1	0.859200	0.527100	0.905700
O21	O2	0.776100	0.483400	0.795100
O31	O3	0.862200	0.203300	0.760900
O41	O4	0.903800	0.355000	0.622800
O51	O5	0.429700	0.908500	0.828300
O61	O6	0.516900	0.058400	0.776500
O71	O7	0.474500	0.174800	0.932900
O81	O8	0.309500	0.217200	0.053300
O91	O9	0.508200	0.691600	0.713600
O101	O10	0.425300	0.701600	0.570300
O111	O11	0.738200	0.630900	0.531400
O121	O12	0.855900	0.749700	0.476400
C11	C1	0.010600	0.336600	0.845400
C21	C2	0.118100	0.310300	0.904900
H11	H1	0.098800	0.359800	0.951900
C31	C3	0.251200	0.214000	0.896700
C41	C4	0.280300	0.132600	0.830300
C51	C5	0.169400	0.153300	0.774400
H21	H2	0.185900	0.097000	0.733400
C61	C6	0.036100	0.256500	0.780000
C71	C7	0.621600	0.998700	0.451000
H31	H3	0.703800	0.998100	0.418600
C81	C8	0.616700	0.875000	0.502400
C91	C9	0.491700	0.876000	0.554300
C101	C10	0.876300	0.452700	0.849700
C111	C11	0.355400	0.199700	0.962200
C121	C12	0.419500	0.028100	0.810400
C131	C13	0.923200	0.276000	0.717200
C141	C14	0.475200	0.746300	0.614800
C151	C15	0.742500	0.744100	0.505500
U21	U2	0.366700	0.298750	0.166230
La21	La2	0.375620	0.787200	0.224790
O131	O13	0.140800	0.472900	0.094300
O141	O14	0.223900	0.516600	0.204900
O151	O15	0.137800	0.796700	0.239100
O161	O16	0.096200	0.645000	0.377200
O171	O17	0.570300	0.091500	0.171700
O181	O18	0.483100	0.941600	0.223500
O191	O19	0.525500	0.825200	0.067100
O201	O20	0.690500	0.782800	0.946700
O211	O21	0.491800	0.308400	0.286400
O221	O22	0.574700	0.298400	0.429700
O231	O23	0.261800	0.369100	0.468600
O241	O24	0.144100	0.250300	0.523600
C161	C16	0.989400	0.663400	0.154600
C171	C17	0.881900	0.689700	0.095100
H41	H4	0.901200	0.640200	0.048100
C181	C18	0.748800	0.786000	0.103300
C191	C19	0.719700	0.867400	0.169700
C201	C20	0.830600	0.846700	0.225600
H51	H5	0.814100	0.903000	0.266600
C211	C21	0.963900	0.743500	0.220000
C221	C22	0.378400	0.001300	0.549000
H61	H6	0.296200	0.001900	0.581400
C231	C23	0.383300	0.125000	0.497600
C241	C24	0.508300	0.124000	0.445700
C251	C25	0.123700	0.547300	0.150300
C261	C26	0.644600	0.800300	0.037800
C271	C27	0.580500	0.971900	0.189600
C281	C28	0.076800	0.724000	0.282800
C291	C29	0.524800	0.253700	0.385200
C301	C30	0.257500	0.255900	0.494500
U31	U3	0.000000	0.500000	0.500000
