data_XOCWOD_clean_PM
_symmetry_space_group_name_H-M	'P1'
_cell_length_a	10.513600
_cell_length_b	11.465000
_cell_length_c	13.417500
_cell_angle_alpha	69.084000
_cell_angle_beta	78.607000
_cell_angle_gamma	63.542000
_symmetry_Int_Tables_number 1

loop_
_symmetry_equiv_pos_as_xyz
'x,y,z'

loop_
_atom_site_label
_atom_site_type_symbol
_atom_site_fract_x
_atom_site_fract_y
_atom_site_fract_z
U11	U1	0.623040	0.713430	0.836400
Er11	Er1	0.598860	0.230450	0.750150
O11	O1	0.849500	0.537400	0.913700
O21	O2	0.760800	0.496400	0.801700
O31	O3	0.813100	0.235700	0.770900
O41	O4	0.886100	0.363600	0.626900
O51	O5	0.418500	0.920000	0.819300
O61	O6	0.503900	0.078400	0.753600
O71	O7	0.484100	0.176900	0.916800
O81	O8	0.327000	0.197100	0.051400
O91	O9	0.500800	0.693900	0.718100
O101	O10	0.409700	0.701600	0.580800
O111	O11	0.732900	0.634000	0.534000
O121	O12	0.865400	0.749600	0.478800
C11	C1	0.997900	0.343500	0.852800
C21	C2	0.111100	0.312900	0.909500
H11	H1	0.096800	0.358600	0.958400
C31	C3	0.246000	0.215100	0.894800
C41	C4	0.265700	0.141300	0.824700
C51	C5	0.146800	0.166100	0.774500
H21	H2	0.158000	0.112600	0.732500
C61	C6	0.013300	0.267300	0.785400
C71	C7	0.626300	0.999400	0.450100
H31	H3	0.712600	0.998500	0.415800
C81	C8	0.616400	0.875900	0.505400
C91	C9	0.487000	0.876200	0.556100
C101	C10	0.860900	0.461800	0.859200
C111	C11	0.362200	0.194400	0.955700
C121	C12	0.406800	0.041600	0.795800
C131	C13	0.893700	0.291200	0.725500
C141	C14	0.468000	0.747500	0.621300
C151	C15	0.744500	0.745400	0.507900
U21	U2	0.376960	0.286570	0.163600
Er21	Er2	0.401140	0.769550	0.249850
O131	O13	0.150500	0.462600	0.086300
O141	O14	0.239200	0.503600	0.198300
O151	O15	0.186900	0.764300	0.229100
O161	O16	0.113900	0.636400	0.373100
O171	O17	0.581500	0.080000	0.180700
O181	O18	0.496100	0.921600	0.246400
O191	O19	0.515900	0.823100	0.083200
O201	O20	0.673000	0.802900	0.948600
O211	O21	0.499200	0.306100	0.281900
O221	O22	0.590300	0.298400	0.419200
O231	O23	0.267100	0.366000	0.466000
O241	O24	0.134600	0.250400	0.521200
C161	C16	0.002100	0.656500	0.147200
C171	C17	0.888900	0.687100	0.090500
H41	H4	0.903200	0.641400	0.041600
C181	C18	0.754000	0.784900	0.105200
C191	C19	0.734300	0.858700	0.175300
C201	C20	0.853200	0.833900	0.225500
H51	H5	0.842000	0.887400	0.267500
C211	C21	0.986700	0.732700	0.214600
C221	C22	0.373700	0.000600	0.549900
H61	H6	0.287400	0.001500	0.584200
C231	C23	0.383600	0.124100	0.494600
C241	C24	0.513000	0.123800	0.443900
C251	C25	0.139100	0.538200	0.140800
C261	C26	0.637800	0.805600	0.044300
C271	C27	0.593200	0.958400	0.204200
C281	C28	0.106300	0.708800	0.274500
C291	C29	0.532000	0.252500	0.378700
C301	C30	0.255500	0.254600	0.492100
U31	U3	0.000000	0.500000	0.500000
