data_XODXIZ_clean_PM
_symmetry_space_group_name_H-M	'P1'
_cell_length_a	6.653700
_cell_length_b	8.099800
_cell_length_c	20.179000
_cell_angle_alpha	90.000000
_cell_angle_beta	90.000000
_cell_angle_gamma	90.000000
_symmetry_Int_Tables_number 1

loop_
_symmetry_equiv_pos_as_xyz
'x,y,z'

loop_
_atom_site_label
_atom_site_type_symbol
_atom_site_fract_x
_atom_site_fract_y
_atom_site_fract_z
Y11	Y1	0.506810	0.945950	0.119470
O11	O1	0.170100	0.935900	0.155900
O21	O2	0.510600	0.589000	0.281690
O31	O3	0.832500	0.599400	0.980530
O41	O4	0.400700	0.222900	0.090130
O51	O5	0.674400	0.128300	0.042770
O61	O6	0.838700	0.957500	0.160450
O71	O7	0.497600	0.721200	0.186500
O81	O8	0.686800	0.734500	0.063010
C11	C1	0.549900	0.241000	0.052560
H11	H1	0.568400	0.343900	0.030900
C21	C2	0.003800	0.969000	0.130830
H21	H2	0.002000	0.005600	0.086100
C31	C3	0.745000	0.721200	0.004480
H31	H3	0.720400	0.811900	0.975800
C41	C4	0.419200	0.667100	0.238040
H41	H4	0.279900	0.686900	0.244500
Y21	Y2	0.993190	0.054050	0.619470
O91	O9	0.329900	0.064100	0.655900
O101	O10	0.989400	0.411000	0.781690
O111	O11	0.667500	0.400600	0.480530
O121	O12	0.099300	0.777100	0.590130
O131	O13	0.825600	0.871700	0.542770
O141	O14	0.661300	0.042500	0.660450
O151	O15	0.002400	0.278800	0.686500
O161	O16	0.813200	0.265500	0.563010
C51	C5	0.950100	0.759000	0.552560
H51	H5	0.931600	0.656100	0.530900
C61	C6	0.496200	0.031000	0.630830
H61	H6	0.498000	0.994400	0.586100
C71	C7	0.755000	0.278800	0.504480
H71	H7	0.779600	0.188100	0.475800
C81	C8	0.080800	0.332900	0.738040
H81	H8	0.220100	0.313100	0.744500
Y31	Y3	0.493190	0.445950	0.380530
O171	O17	0.829900	0.435900	0.344100
O181	O18	0.489400	0.089000	0.218310
O191	O19	0.167500	0.099400	0.519470
O201	O20	0.599300	0.722900	0.409870
O211	O21	0.325600	0.628300	0.457230
O221	O22	0.161300	0.457500	0.339550
O231	O23	0.502400	0.221200	0.313500
O241	O24	0.313200	0.234500	0.436990
C91	C9	0.450100	0.741000	0.447440
H91	H9	0.431600	0.843900	0.469100
C101	C10	0.996200	0.469000	0.369170
H101	H10	0.998000	0.505600	0.413900
C111	C11	0.255000	0.221200	0.495520
H111	H11	0.279600	0.311900	0.524200
C121	C12	0.580800	0.167100	0.261960
H121	H12	0.720100	0.186900	0.255500
Y41	Y4	0.006810	0.554050	0.880530
O251	O25	0.670100	0.564100	0.844100
O261	O26	0.010600	0.911000	0.718310
O271	O27	0.332500	0.900600	0.019470
O281	O28	0.900700	0.277100	0.909870
O291	O29	0.174400	0.371700	0.957230
O301	O30	0.338700	0.542500	0.839550
O311	O31	0.997600	0.778800	0.813500
O321	O32	0.186800	0.765500	0.936990
C131	C13	0.049900	0.259000	0.947440
H131	H13	0.068400	0.156100	0.969100
C141	C14	0.503800	0.531000	0.869170
H141	H14	0.502000	0.494400	0.913900
C151	C15	0.245000	0.778800	0.995520
H151	H15	0.220400	0.688100	0.024200
C161	C16	0.919200	0.832900	0.761960
H161	H16	0.779900	0.813100	0.755500
