data_XOFTOC_clean_PM
_symmetry_space_group_name_H-M	'P1'
_cell_length_a	7.080700
_cell_length_b	18.187400
_cell_length_c	24.823700
_cell_angle_alpha	90.000000
_cell_angle_beta	90.000000
_cell_angle_gamma	99.022000
_symmetry_Int_Tables_number 1

loop_
_symmetry_equiv_pos_as_xyz
'x,y,z'

loop_
_atom_site_label
_atom_site_type_symbol
_atom_site_fract_x
_atom_site_fract_y
_atom_site_fract_z
Sm11	Sm1	0.782450	0.984330	0.597380
Sm21	Sm2	0.217550	0.015670	0.097380
Sm31	Sm3	0.217550	0.015670	0.402620
Sm41	Sm4	0.782450	0.984330	0.902620
Cu11	Cu1	0.249450	0.553620	0.683510
Cu21	Cu2	0.175110	0.439040	0.580430
Cu31	Cu3	0.377900	0.544830	0.492160
Cu41	Cu4	0.750550	0.446380	0.183510
Cu51	Cu5	0.824890	0.560960	0.080430
Cu61	Cu6	0.622100	0.455170	0.992160
Cu71	Cu7	0.750550	0.446380	0.316490
Cu81	Cu8	0.824890	0.560960	0.419570
Cu91	Cu9	0.622100	0.455170	0.507840
Cu101	Cu10	0.249450	0.553620	0.816490
Cu111	Cu11	0.175110	0.439040	0.919570
Cu121	Cu12	0.377900	0.544830	0.007840
Cu131	Cu13	0.230190	0.432850	0.750000
Cu141	Cu14	0.769810	0.567150	0.250000
H11	H1	0.300100	0.828600	0.658300
H21	H2	0.405300	0.716900	0.674700
H31	H3	0.892600	0.608200	0.655900
H41	H4	0.774300	0.715200	0.639900
H51	H5	0.197000	0.217100	0.465100
H61	H6	0.196800	0.339500	0.485300
H71	H7	0.112100	0.293000	0.636300
H81	H8	0.100400	0.168800	0.621000
H91	H9	0.697600	0.194000	0.472400
H101	H10	0.680800	0.316500	0.453700
H111	H11	0.587400	0.356800	0.604300
H121	H12	0.612500	0.236800	0.627600
H131	H13	0.699900	0.171400	0.158300
H141	H14	0.594700	0.283100	0.174700
H151	H15	0.107400	0.391800	0.155900
H161	H16	0.225700	0.284800	0.139900
H171	H17	0.803000	0.782900	0.965100
H181	H18	0.803200	0.660500	0.985300
H191	H19	0.887900	0.707000	0.136300
H201	H20	0.899600	0.831200	0.121000
H211	H21	0.302400	0.806000	0.972400
H221	H22	0.319200	0.683500	0.953700
H231	H23	0.412600	0.643200	0.104300
H241	H24	0.387500	0.763200	0.127600
H251	H25	0.699900	0.171400	0.341700
H261	H26	0.594700	0.283100	0.325300
H271	H27	0.107400	0.391800	0.344100
H281	H28	0.225700	0.284800	0.360100
H291	H29	0.803000	0.782900	0.534900
H301	H30	0.803200	0.660500	0.514700
H311	H31	0.887900	0.707000	0.363700
H321	H32	0.899600	0.831200	0.379000
H331	H33	0.302400	0.806000	0.527600
H341	H34	0.319200	0.683500	0.546300
H351	H35	0.412600	0.643200	0.395700
H361	H36	0.387500	0.763200	0.372400
H371	H37	0.300100	0.828600	0.841700
H381	H38	0.405300	0.716900	0.825300
H391	H39	0.892600	0.608200	0.844100
H401	H40	0.774300	0.715200	0.860100
H411	H41	0.197000	0.217100	0.034900
H421	H42	0.196800	0.339500	0.014700
H431	H43	0.112100	0.293000	0.863700
H441	H44	0.100400	0.168800	0.879000
H451	H45	0.697600	0.194000	0.027600
H461	H46	0.680800	0.316500	0.046300
H471	H47	0.587400	0.356800	0.895700
H481	H48	0.612500	0.236800	0.872400
H491	H49	0.770300	0.289400	0.750000
H501	H50	0.617300	0.391300	0.750000
H511	H51	0.121300	0.265100	0.750000
H521	H52	0.261000	0.160100	0.750000
H531	H53	0.229700	0.710600	0.250000
H541	H54	0.382700	0.608700	0.250000
H551	H55	0.878700	0.734900	0.250000
H561	H56	0.739000	0.839900	0.250000
C11	C1	0.947100	0.856200	0.635500
C21	C2	0.024600	0.785100	0.647800
C31	C3	0.213900	0.784400	0.657900
C41	C4	0.276100	0.716600	0.667700
C51	C5	0.976200	0.653000	0.656800
C61	C6	0.903900	0.717100	0.647000
C71	C7	0.140500	0.096500	0.527500
C81	C8	0.145500	0.177800	0.540500
C91	C9	0.177000	0.231000	0.500400
C101	C10	0.178800	0.304700	0.513000
C111	C11	0.128100	0.277400	0.601200
C121	C12	0.121100	0.202400	0.592500
C131	C13	0.673600	0.122500	0.566900
C141	C14	0.654600	0.201300	0.552100
C151	C15	0.675700	0.226200	0.500000
C161	C16	0.664000	0.299700	0.489000
C171	C17	0.610600	0.323700	0.577500
C181	C18	0.623900	0.251500	0.591800
C191	C19	0.052900	0.143800	0.135500
C201	C20	0.975400	0.214900	0.147800
C211	C21	0.786100	0.215600	0.157900
C221	C22	0.723900	0.283400	0.167700
C231	C23	0.023800	0.347000	0.156800
C241	C24	0.096100	0.282900	0.147000
C251	C25	0.859500	0.903500	0.027500
C261	C26	0.854500	0.822200	0.040500
C271	C27	0.823000	0.769000	0.000400
C281	C28	0.821200	0.695300	0.013000
C291	C29	0.871900	0.722600	0.101200
C301	C30	0.878900	0.797600	0.092500
C311	C31	0.326400	0.877500	0.066900
C321	C32	0.345400	0.798700	0.052100
C331	C33	0.324300	0.773800	0.000000
C341	C34	0.336000	0.700300	0.989000
C351	C35	0.389400	0.676300	0.077500
C361	C36	0.376100	0.748500	0.091800
C371	C37	0.052900	0.143800	0.364500
C381	C38	0.975400	0.214900	0.352200
C391	C39	0.786100	0.215600	0.342100
C401	C40	0.723900	0.283400	0.332300
C411	C41	0.023800	0.347000	0.343200
C421	C42	0.096100	0.282900	0.353000
C431	C43	0.859500	0.903500	0.472500
C441	C44	0.854500	0.822200	0.459500
C451	C45	0.823000	0.769000	0.499600
C461	C46	0.821200	0.695300	0.487000
C471	C47	0.871900	0.722600	0.398800
C481	C48	0.878900	0.797600	0.407500
C491	C49	0.326400	0.877500	0.433100
C501	C50	0.345400	0.798700	0.447900
C511	C51	0.324300	0.773800	0.500000
C521	C52	0.336000	0.700300	0.511000
C531	C53	0.389400	0.676300	0.422500
C541	C54	0.376100	0.748500	0.408200
C551	C55	0.947100	0.856200	0.864500
C561	C56	0.024600	0.785100	0.852200
C571	C57	0.213900	0.784400	0.842100
C581	C58	0.276100	0.716600	0.832300
C591	C59	0.976200	0.653000	0.843200
C601	C60	0.903900	0.717100	0.853000
C611	C61	0.140500	0.096500	0.972500
C621	C62	0.145500	0.177800	0.959500
C631	C63	0.177000	0.231000	0.999600
C641	C64	0.178800	0.304700	0.987000
C651	C65	0.128100	0.277400	0.898800
C661	C66	0.121100	0.202400	0.907500
C671	C67	0.673600	0.122500	0.933100
C681	C68	0.654600	0.201300	0.947900
C691	C69	0.675700	0.226200	0.000000
C701	C70	0.664000	0.299700	0.011000
C711	C71	0.610600	0.323700	0.922500
C721	C72	0.623900	0.251500	0.908200
C731	C73	0.636200	0.143200	0.750000
C741	C74	0.533800	0.212200	0.750000
C751	C75	0.637400	0.282900	0.750000
C761	C76	0.544300	0.344100	0.750000
C771	C77	0.254100	0.270500	0.750000
C781	C78	0.337300	0.206700	0.750000
C791	C79	0.363800	0.856800	0.250000
C801	C80	0.466200	0.787800	0.250000
C811	C81	0.362600	0.717100	0.250000
C821	C82	0.455700	0.655900	0.250000
C831	C83	0.745900	0.729500	0.250000
C841	C84	0.662700	0.793300	0.250000
I11	I1	0.980550	0.443170	0.670200
I21	I2	0.509370	0.529740	0.589470
I31	I3	0.019450	0.556830	0.170200
I41	I4	0.490630	0.470260	0.089470
I51	I5	0.019450	0.556830	0.329800
I61	I6	0.490630	0.470260	0.410530
I71	I7	0.980550	0.443170	0.829800
I81	I8	0.509370	0.529740	0.910530
I91	I9	0.525860	0.557460	0.750000
I101	I10	0.474140	0.442540	0.250000
I111	I11	0.000000	0.500000	0.500000
I121	I12	0.000000	0.500000	0.000000
N11	N1	0.160500	0.651300	0.667500
N21	N2	0.155900	0.328800	0.563300
N31	N3	0.629400	0.347900	0.527200
N41	N4	0.839500	0.348700	0.167500
N51	N5	0.844100	0.671200	0.063300
N61	N6	0.370600	0.652100	0.027200
N71	N7	0.839500	0.348700	0.332500
N81	N8	0.844100	0.671200	0.436700
N91	N9	0.370600	0.652100	0.472800
N101	N10	0.160500	0.651300	0.832500
N111	N11	0.155900	0.328800	0.936700
N121	N12	0.629400	0.347900	0.972800
N131	N13	0.351400	0.338600	0.750000
N141	N14	0.648600	0.661400	0.250000
O11	O1	0.060500	0.914100	0.626300
O21	O2	0.769000	0.853600	0.633600
O31	O3	0.207000	0.081700	0.482680
O41	O4	0.074700	0.049700	0.562240
O51	O5	0.697900	0.077400	0.529710
O61	O6	0.673300	0.104300	0.614940
O71	O7	0.939500	0.085900	0.126300
O81	O8	0.231000	0.146400	0.133600
O91	O9	0.793000	0.918300	0.982680
O101	O10	0.925300	0.950300	0.062240
O111	O11	0.302100	0.922600	0.029710
O121	O12	0.326700	0.895700	0.114940
O131	O13	0.939500	0.085900	0.373700
O141	O14	0.231000	0.146400	0.366400
O151	O15	0.793000	0.918300	0.517320
O161	O16	0.925300	0.950300	0.437760
O171	O17	0.302100	0.922600	0.470290
O181	O18	0.326700	0.895700	0.385060
O191	O19	0.060500	0.914100	0.873700
O201	O20	0.769000	0.853600	0.866400
O211	O21	0.207000	0.081700	0.017320
O221	O22	0.074700	0.049700	0.937760
O231	O23	0.697900	0.077400	0.970290
O241	O24	0.673300	0.104300	0.885060
O251	O25	0.809900	0.152800	0.750000
O261	O26	0.531400	0.081600	0.750000
O271	O27	0.190100	0.847200	0.250000
O281	O28	0.468600	0.918400	0.250000
