data_XOFTIW_clean_PM
_symmetry_space_group_name_H-M	'P1'
_cell_length_a	7.105400
_cell_length_b	18.241900
_cell_length_c	24.947700
_cell_angle_alpha	90.000000
_cell_angle_beta	90.000000
_cell_angle_gamma	99.522000
_symmetry_Int_Tables_number 1

loop_
_symmetry_equiv_pos_as_xyz
'x,y,z'

loop_
_atom_site_label
_atom_site_type_symbol
_atom_site_fract_x
_atom_site_fract_y
_atom_site_fract_z
Ce11	Ce1	0.778820	0.983800	0.598590
Ce21	Ce2	0.221180	0.016200	0.098590
Ce31	Ce3	0.221180	0.016200	0.401410
Ce41	Ce4	0.778820	0.983800	0.901410
Cu11	Cu1	0.251020	0.553610	0.683160
Cu21	Cu2	0.173710	0.438960	0.580140
Cu31	Cu3	0.378160	0.544220	0.492310
Cu41	Cu4	0.748980	0.446390	0.183160
Cu51	Cu5	0.826290	0.561040	0.080140
Cu61	Cu6	0.621840	0.455780	0.992310
Cu71	Cu7	0.748980	0.446390	0.316840
Cu81	Cu8	0.826290	0.561040	0.419860
Cu91	Cu9	0.621840	0.455780	0.507690
Cu101	Cu10	0.251020	0.553610	0.816840
Cu111	Cu11	0.173710	0.438960	0.919860
Cu121	Cu12	0.378160	0.544220	0.007690
Cu131	Cu13	0.230170	0.433860	0.750000
Cu141	Cu14	0.769830	0.566140	0.250000
H11	H1	0.298900	0.827300	0.659000
H21	H2	0.404900	0.717200	0.674700
H31	H3	0.894100	0.606100	0.655700
H41	H4	0.774800	0.713000	0.639800
H51	H5	0.194200	0.217200	0.465400
H61	H6	0.193700	0.339900	0.485300
H71	H7	0.112600	0.293400	0.636600
H81	H8	0.099900	0.169200	0.620300
H91	H9	0.694800	0.195500	0.473000
H101	H10	0.679500	0.317700	0.454300
H111	H11	0.588000	0.358200	0.604300
H121	H12	0.610000	0.238400	0.627700
H131	H13	0.701100	0.172700	0.159000
H141	H14	0.595100	0.282800	0.174700
H151	H15	0.105900	0.393900	0.155700
H161	H16	0.225200	0.287000	0.139800
H171	H17	0.805800	0.782800	0.965400
H181	H18	0.806300	0.660100	0.985300
H191	H19	0.887400	0.706600	0.136600
H201	H20	0.900100	0.830800	0.120300
H211	H21	0.305200	0.804500	0.973000
H221	H22	0.320500	0.682300	0.954300
H231	H23	0.412000	0.641800	0.104300
H241	H24	0.390000	0.761600	0.127700
H251	H25	0.701100	0.172700	0.341000
H261	H26	0.595100	0.282800	0.325300
H271	H27	0.105900	0.393900	0.344300
H281	H28	0.225200	0.287000	0.360200
H291	H29	0.805800	0.782800	0.534600
H301	H30	0.806300	0.660100	0.514700
H311	H31	0.887400	0.706600	0.363400
H321	H32	0.900100	0.830800	0.379700
H331	H33	0.305200	0.804500	0.527000
H341	H34	0.320500	0.682300	0.545700
H351	H35	0.412000	0.641800	0.395700
H361	H36	0.390000	0.761600	0.372300
H371	H37	0.298900	0.827300	0.841000
H381	H38	0.404900	0.717200	0.825300
H391	H39	0.894100	0.606100	0.844300
H401	H40	0.774800	0.713000	0.860200
H411	H41	0.194200	0.217200	0.034600
H421	H42	0.193700	0.339900	0.014700
H431	H43	0.112600	0.293400	0.863400
H441	H44	0.099900	0.169200	0.879700
H451	H45	0.694800	0.195500	0.027000
H461	H46	0.679500	0.317700	0.045700
H471	H47	0.588000	0.358200	0.895700
H481	H48	0.610000	0.238400	0.872300
H491	H49	0.765400	0.291200	0.750000
H501	H50	0.617300	0.392700	0.750000
H511	H51	0.119600	0.266700	0.750000
H521	H52	0.257000	0.162000	0.750000
H531	H53	0.234600	0.708800	0.250000
H541	H54	0.382700	0.607300	0.250000
H551	H55	0.880400	0.733300	0.250000
H561	H56	0.743000	0.838000	0.250000
C11	C1	0.946500	0.854200	0.637600
C21	C2	0.024200	0.783000	0.648600
C31	C3	0.213100	0.782900	0.658500
C41	C4	0.275900	0.716200	0.667800
C51	C5	0.976900	0.651300	0.656700
C61	C6	0.903900	0.715200	0.647200
C71	C7	0.144100	0.097600	0.528400
C81	C8	0.146900	0.178900	0.540570
C91	C9	0.175600	0.231300	0.500500
C101	C10	0.176500	0.305100	0.512900
C111	C11	0.127400	0.277800	0.601600
C121	C12	0.121200	0.203100	0.592200
C131	C13	0.672500	0.124600	0.567100
C141	C14	0.653900	0.203100	0.552400
C151	C15	0.673800	0.227800	0.500400
C161	C16	0.662300	0.301000	0.489400
C171	C17	0.609800	0.325000	0.577700
C181	C18	0.622400	0.253200	0.592000
C191	C19	0.053500	0.145800	0.137600
C201	C20	0.975800	0.217000	0.148600
C211	C21	0.786900	0.217100	0.158500
C221	C22	0.724100	0.283800	0.167800
C231	C23	0.023100	0.348700	0.156700
C241	C24	0.096100	0.284800	0.147200
C251	C25	0.855900	0.902400	0.028400
C261	C26	0.853100	0.821100	0.040570
C271	C27	0.824400	0.768700	0.000500
C281	C28	0.823500	0.694900	0.012900
C291	C29	0.872600	0.722200	0.101600
C301	C30	0.878800	0.796900	0.092200
C311	C31	0.327500	0.875400	0.067100
C321	C32	0.346100	0.796900	0.052400
C331	C33	0.326200	0.772200	0.000400
C341	C34	0.337700	0.699000	0.989400
C351	C35	0.390200	0.675000	0.077700
C361	C36	0.377600	0.746800	0.092000
C371	C37	0.053500	0.145800	0.362400
C381	C38	0.975800	0.217000	0.351400
C391	C39	0.786900	0.217100	0.341500
C401	C40	0.724100	0.283800	0.332200
C411	C41	0.023100	0.348700	0.343300
C421	C42	0.096100	0.284800	0.352800
C431	C43	0.855900	0.902400	0.471600
C441	C44	0.853100	0.821100	0.459430
C451	C45	0.824400	0.768700	0.499500
C461	C46	0.823500	0.694900	0.487100
C471	C47	0.872600	0.722200	0.398400
C481	C48	0.878800	0.796900	0.407800
C491	C49	0.327500	0.875400	0.432900
C501	C50	0.346100	0.796900	0.447600
C511	C51	0.326200	0.772200	0.499600
C521	C52	0.337700	0.699000	0.510600
C531	C53	0.390200	0.675000	0.422300
C541	C54	0.377600	0.746800	0.408000
C551	C55	0.946500	0.854200	0.862400
C561	C56	0.024200	0.783000	0.851400
C571	C57	0.213100	0.782900	0.841500
C581	C58	0.275900	0.716200	0.832200
C591	C59	0.976900	0.651300	0.843300
C601	C60	0.903900	0.715200	0.852800
C611	C61	0.144100	0.097600	0.971600
C621	C62	0.146900	0.178900	0.959430
C631	C63	0.175600	0.231300	0.999500
C641	C64	0.176500	0.305100	0.987100
C651	C65	0.127400	0.277800	0.898400
C661	C66	0.121200	0.203100	0.907800
C671	C67	0.672500	0.124600	0.932900
C681	C68	0.653900	0.203100	0.947600
C691	C69	0.673800	0.227800	0.999600
C701	C70	0.662300	0.301000	0.010600
C711	C71	0.609800	0.325000	0.922300
C721	C72	0.622400	0.253200	0.908000
C731	C73	0.630100	0.145500	0.750000
C741	C74	0.529100	0.213400	0.750000
C751	C75	0.632800	0.284600	0.750000
C761	C76	0.542900	0.345700	0.750000
C771	C77	0.252100	0.272100	0.750000
C781	C78	0.334200	0.208400	0.750000
C791	C79	0.369900	0.854500	0.250000
C801	C80	0.470900	0.786600	0.250000
C811	C81	0.367200	0.715400	0.250000
C821	C82	0.457100	0.654300	0.250000
C831	C83	0.747900	0.727900	0.250000
C841	C84	0.665800	0.791600	0.250000
I11	I1	0.981700	0.442860	0.670150
I21	I2	0.509220	0.529580	0.589240
I31	I3	0.018300	0.557140	0.170150
I41	I4	0.490780	0.470420	0.089240
I51	I5	0.018300	0.557140	0.329850
I61	I6	0.490780	0.470420	0.410760
I71	I7	0.981700	0.442860	0.829850
I81	I8	0.509220	0.529580	0.910760
I91	I9	0.525230	0.558110	0.750000
I101	I10	0.474770	0.441890	0.250000
I111	I11	0.000000	0.500000	0.500000
I121	I12	0.000000	0.500000	0.000000
N11	N1	0.161600	0.650700	0.667400
N21	N2	0.153600	0.328800	0.562900
N31	N3	0.627500	0.349000	0.527280
N41	N4	0.838400	0.349300	0.167400
N51	N5	0.846400	0.671200	0.062900
N61	N6	0.372500	0.651000	0.027280
N71	N7	0.838400	0.349300	0.332600
N81	N8	0.846400	0.671200	0.437100
N91	N9	0.372500	0.651000	0.472720
N101	N10	0.161600	0.650700	0.832600
N111	N11	0.153600	0.328800	0.937100
N121	N12	0.627500	0.349000	0.972720
N131	N13	0.352000	0.340500	0.750000
N141	N14	0.648000	0.659500	0.250000
O11	O1	0.059700	0.912800	0.629700
O21	O2	0.769300	0.850800	0.635900
O31	O3	0.209200	0.083100	0.483480
O41	O4	0.079300	0.050580	0.563020
O51	O5	0.698800	0.080110	0.530450
O61	O6	0.666500	0.106800	0.615520
O71	O7	0.940300	0.087200	0.129700
O81	O8	0.230700	0.149200	0.135900
O91	O9	0.790800	0.916900	0.983480
O101	O10	0.920700	0.949420	0.063020
O111	O11	0.301200	0.919890	0.030450
O121	O12	0.333500	0.893200	0.115520
O131	O13	0.940300	0.087200	0.370300
O141	O14	0.230700	0.149200	0.364100
O151	O15	0.790800	0.916900	0.516520
O161	O16	0.920700	0.949420	0.436980
O171	O17	0.301200	0.919890	0.469550
O181	O18	0.333500	0.893200	0.384480
O191	O19	0.059700	0.912800	0.870300
O201	O20	0.769300	0.850800	0.864100
O211	O21	0.209200	0.083100	0.016520
O221	O22	0.079300	0.050580	0.936980
O231	O23	0.698800	0.080110	0.969550
O241	O24	0.666500	0.106800	0.884480
O251	O25	0.805000	0.155300	0.750000
O261	O26	0.525400	0.083600	0.750000
O271	O27	0.195000	0.844700	0.250000
O281	O28	0.474600	0.916400	0.250000
