data_XOHJUA_clean_PM
_symmetry_space_group_name_H-M	'P1'
_cell_length_a	9.155000
_cell_length_b	9.545400
_cell_length_c	21.567900
_cell_angle_alpha	90.000000
_cell_angle_beta	90.000000
_cell_angle_gamma	116.278000
_symmetry_Int_Tables_number 1

loop_
_symmetry_equiv_pos_as_xyz
'x,y,z'

loop_
_atom_site_label
_atom_site_type_symbol
_atom_site_fract_x
_atom_site_fract_y
_atom_site_fract_z
La11	La1	0.121220	0.357650	0.009380
La21	La2	0.378780	0.642350	0.509380
La31	La3	0.878780	0.642350	0.990620
La41	La4	0.621220	0.357650	0.490620
Cu11	Cu1	0.451250	0.309190	0.145750
Cu21	Cu2	0.048750	0.690810	0.645750
Cu31	Cu3	0.548750	0.690810	0.854250
Cu41	Cu4	0.951250	0.309190	0.354250
H11	H1	0.287800	0.021400	0.071800
H21	H2	0.697500	0.199900	0.163600
H31	H3	0.756700	0.002500	0.132500
H41	H4	0.570700	0.802500	0.072900
H51	H5	0.384100	0.587900	0.155700
H61	H6	0.360800	0.741900	0.232900
H71	H7	0.400500	0.691000	0.335300
H81	H8	0.497700	0.346100	0.275700
H91	H9	0.212200	0.978600	0.571800
H101	H10	0.802500	0.800100	0.663600
H111	H11	0.743300	0.997500	0.632500
H121	H12	0.929300	0.197500	0.572900
H131	H13	0.115900	0.412100	0.655700
H141	H14	0.139200	0.258100	0.732900
H151	H15	0.099500	0.309000	0.835300
H161	H16	0.002300	0.653900	0.775700
H171	H17	0.712200	0.978600	0.928200
H181	H18	0.302500	0.800100	0.836400
H191	H19	0.243300	0.997500	0.867500
H201	H20	0.429300	0.197500	0.927100
H211	H21	0.615900	0.412100	0.844300
H221	H22	0.639200	0.258100	0.767100
H231	H23	0.599500	0.309000	0.664700
H241	H24	0.502300	0.653900	0.724300
H251	H25	0.787800	0.021400	0.428200
H261	H26	0.197500	0.199900	0.336400
H271	H27	0.256700	0.002500	0.367500
H281	H28	0.070700	0.802500	0.427100
H291	H29	0.884100	0.587900	0.344300
H301	H30	0.860800	0.741900	0.267100
H311	H31	0.900500	0.691000	0.164700
H321	H32	0.997700	0.346100	0.224300
C11	C1	0.276400	0.760100	0.030400
C21	C2	0.406600	0.890600	0.067000
C31	C3	0.382600	0.016900	0.084600
C41	C4	0.624000	0.122900	0.137700
C51	C5	0.659600	0.003300	0.120300
C61	C6	0.549900	0.885400	0.084900
C71	C7	0.989100	0.992900	0.034200
C81	C8	0.503400	0.477200	0.033900
C91	C9	0.401000	0.567200	0.196500
C101	C10	0.386900	0.660700	0.242600
C111	C11	0.412000	0.631500	0.303200
C121	C12	0.454400	0.512400	0.315600
C131	C13	0.490200	0.475100	0.380100
C141	C14	0.467200	0.425000	0.267000
C151	C15	0.223600	0.239900	0.530400
C161	C16	0.093400	0.109400	0.567000
C171	C17	0.117400	0.983100	0.584600
C181	C18	0.876000	0.877100	0.637700
C191	C19	0.840400	0.996700	0.620300
C201	C20	0.950100	0.114600	0.584900
C211	C21	0.510900	0.007100	0.534200
C221	C22	0.996600	0.522800	0.533900
C231	C23	0.099000	0.432800	0.696500
C241	C24	0.113100	0.339300	0.742600
C251	C25	0.088000	0.368500	0.803200
C261	C26	0.045600	0.487600	0.815600
C271	C27	0.009800	0.524900	0.880100
C281	C28	0.032800	0.575000	0.767000
C291	C29	0.723600	0.239900	0.969600
C301	C30	0.593400	0.109400	0.933000
C311	C31	0.617400	0.983100	0.915400
C321	C32	0.376000	0.877100	0.862300
C331	C33	0.340400	0.996700	0.879700
C341	C34	0.450100	0.114600	0.915100
C351	C35	0.010900	0.007100	0.965800
C361	C36	0.496600	0.522800	0.966100
C371	C37	0.599000	0.432800	0.803500
C381	C38	0.613100	0.339300	0.757400
C391	C39	0.588000	0.368500	0.696800
C401	C40	0.545600	0.487600	0.684400
C411	C41	0.509800	0.524900	0.619900
C421	C42	0.532800	0.575000	0.733000
C431	C43	0.776400	0.760100	0.469600
C441	C44	0.906600	0.890600	0.433000
C451	C45	0.882600	0.016900	0.415400
C461	C46	0.124000	0.122900	0.362300
C471	C47	0.159600	0.003300	0.379700
C481	C48	0.049900	0.885400	0.415100
C491	C49	0.489100	0.992900	0.465800
C501	C50	0.003400	0.477200	0.466100
C511	C51	0.901000	0.567200	0.303500
C521	C52	0.886900	0.660700	0.257400
C531	C53	0.912000	0.631500	0.196800
C541	C54	0.954400	0.512400	0.184400
C551	C55	0.990200	0.475100	0.119900
C561	C56	0.967200	0.425000	0.233000
N11	N1	0.490600	0.136100	0.120000
N21	N2	0.437800	0.448000	0.207300
N31	N3	0.009400	0.863900	0.620000
N41	N4	0.062200	0.552000	0.707300
N51	N5	0.509400	0.863900	0.880000
N61	N6	0.562200	0.552000	0.792700
N71	N7	0.990600	0.136100	0.380000
N81	N8	0.937800	0.448000	0.292700
O11	O1	0.286100	0.632700	0.031100
O21	O2	0.168200	0.784800	0.003900
O31	O3	0.049800	0.115900	0.066200
O41	O4	0.911600	0.856500	0.056500
O51	O5	0.372700	0.381000	0.058100
O61	O6	0.638600	0.539400	0.060600
O71	O7	0.557800	0.385900	0.384900
O81	O8	0.451400	0.531200	0.425800
O91	O9	0.213900	0.367300	0.531100
O101	O10	0.331800	0.215200	0.503900
O111	O11	0.450200	0.884100	0.566200
O121	O12	0.588400	0.143500	0.556500
O131	O13	0.127300	0.619000	0.558100
O141	O14	0.861400	0.460600	0.560600
O151	O15	0.942200	0.614100	0.884900
O161	O16	0.048600	0.468800	0.925800
O171	O17	0.713900	0.367300	0.968900
O181	O18	0.831800	0.215200	0.996100
O191	O19	0.950200	0.884100	0.933800
O201	O20	0.088400	0.143500	0.943500
O211	O21	0.627300	0.619000	0.941900
O221	O22	0.361400	0.460600	0.939400
O231	O23	0.442200	0.614100	0.615100
O241	O24	0.548600	0.468800	0.574200
O251	O25	0.786100	0.632700	0.468900
O261	O26	0.668200	0.784800	0.496100
O271	O27	0.549800	0.115900	0.433800
O281	O28	0.411600	0.856500	0.443500
O291	O29	0.872700	0.381000	0.441900
O301	O30	0.138600	0.539400	0.439400
O311	O31	0.057800	0.385900	0.115100
O321	O32	0.951400	0.531200	0.074200
