data_XOJCUV_clean_PM
_symmetry_space_group_name_H-M	'P1'
_cell_length_a	11.086000
_cell_length_b	17.978000
_cell_length_c	17.978000
_cell_angle_alpha	90.000000
_cell_angle_beta	90.000000
_cell_angle_gamma	90.000000
_symmetry_Int_Tables_number 1

loop_
_symmetry_equiv_pos_as_xyz
'x,y,z'

loop_
_atom_site_label
_atom_site_type_symbol
_atom_site_fract_x
_atom_site_fract_y
_atom_site_fract_z
V11	V1	0.095090	0.559680	0.962670
V21	V2	0.595090	0.440320	0.037330
V31	V3	0.845090	0.537330	0.059680
V41	V4	0.345090	0.462670	0.940320
V51	V5	0.654910	0.940320	0.462670
V61	V6	0.154910	0.059680	0.537330
V71	V7	0.904910	0.962670	0.559680
V81	V8	0.404910	0.037330	0.440320
V91	V9	0.000000	0.960630	0.960630
V101	V10	0.500000	0.039370	0.039370
V111	V11	0.750000	0.539370	0.460630
V121	V12	0.250000	0.460630	0.539370
V131	V13	0.250000	0.067130	0.932870
V141	V14	0.750000	0.932870	0.067130
V151	V15	0.000000	0.567130	0.567130
V161	V16	0.500000	0.432870	0.432870
Ni11	Ni1	0.077690	0.764630	0.970940
Ni21	Ni2	0.577690	0.235370	0.029060
Ni31	Ni3	0.827690	0.529060	0.264630
Ni41	Ni4	0.327690	0.470940	0.735370
Ni51	Ni5	0.672310	0.735370	0.470940
Ni61	Ni6	0.172310	0.264630	0.529060
Ni71	Ni7	0.922310	0.970940	0.764630
Ni81	Ni8	0.422310	0.029060	0.235370
H11	H1	0.037300	0.653500	0.109500
H21	H2	0.051400	0.687300	0.240800
H31	H3	0.106900	0.866200	0.118700
H41	H4	0.164300	0.875000	0.261300
H51	H5	0.025900	0.868000	0.277800
H61	H6	0.057800	0.765400	0.352200
H71	H7	0.194700	0.762900	0.329900
H81	H8	0.225200	0.877800	0.389300
H91	H9	0.088900	0.879800	0.411900
H101	H10	0.118600	0.775900	0.489000
H111	H11	0.198300	0.843200	0.514200
H121	H12	0.233500	0.651400	0.465800
H131	H13	0.444900	0.616400	0.461900
H141	H14	0.432400	0.833300	0.474300
H151	H15	0.537300	0.346500	0.890500
H161	H16	0.551400	0.312700	0.759200
H171	H17	0.606900	0.133800	0.881300
H181	H18	0.664300	0.125000	0.738700
H191	H19	0.525900	0.132000	0.722200
H201	H20	0.557800	0.234600	0.647800
H211	H21	0.694700	0.237100	0.670100
H221	H22	0.725200	0.122200	0.610700
H231	H23	0.588900	0.120200	0.588100
H241	H24	0.618600	0.224100	0.511000
H251	H25	0.698300	0.156800	0.485800
H261	H26	0.733500	0.348600	0.534200
H271	H27	0.944900	0.383600	0.538100
H281	H28	0.932400	0.166700	0.525700
H291	H29	0.787300	0.390500	0.153500
H301	H30	0.801400	0.259200	0.187300
H311	H31	0.856900	0.381300	0.366200
H321	H32	0.914300	0.238700	0.375000
H331	H33	0.775900	0.222200	0.368000
H341	H34	0.807800	0.147800	0.265400
H351	H35	0.944700	0.170100	0.262900
H361	H36	0.975200	0.110700	0.377800
H371	H37	0.838900	0.088100	0.379800
H381	H38	0.868600	0.011000	0.275900
H391	H39	0.948300	0.985800	0.343200
H401	H40	0.983500	0.034200	0.151400
H411	H41	0.194900	0.038100	0.116400
H421	H42	0.182400	0.025700	0.333300
H431	H43	0.287300	0.609500	0.846500
H441	H44	0.301400	0.740800	0.812700
H451	H45	0.356900	0.618700	0.633800
H461	H46	0.414300	0.761300	0.625000
H471	H47	0.275900	0.777800	0.632000
H481	H48	0.307800	0.852200	0.734600
H491	H49	0.444700	0.829900	0.737100
H501	H50	0.475200	0.889300	0.622200
H511	H51	0.338900	0.911900	0.620200
H521	H52	0.368600	0.989000	0.724100
H531	H53	0.448300	0.014200	0.656800
H541	H54	0.483500	0.965800	0.848600
H551	H55	0.694900	0.961900	0.883600
H561	H56	0.682400	0.974300	0.666700
H571	H57	0.712700	0.846500	0.609500
H581	H58	0.698600	0.812700	0.740800
H591	H59	0.643100	0.633800	0.618700
H601	H60	0.585700	0.625000	0.761300
H611	H61	0.724100	0.632000	0.777800
H621	H62	0.692200	0.734600	0.852200
H631	H63	0.555300	0.737100	0.829900
H641	H64	0.524800	0.622200	0.889300
H651	H65	0.661100	0.620200	0.911900
H661	H66	0.631400	0.724100	0.989000
H671	H67	0.551700	0.656800	0.014200
H681	H68	0.516500	0.848600	0.965800
H691	H69	0.305100	0.883600	0.961900
H701	H70	0.317600	0.666700	0.974300
H711	H71	0.212700	0.153500	0.390500
H721	H72	0.198600	0.187300	0.259200
H731	H73	0.143100	0.366200	0.381300
H741	H74	0.085700	0.375000	0.238700
H751	H75	0.224100	0.368000	0.222200
H761	H76	0.192200	0.265400	0.147800
H771	H77	0.055300	0.262900	0.170100
H781	H78	0.024800	0.377800	0.110700
H791	H79	0.161100	0.379800	0.088100
H801	H80	0.131400	0.275900	0.011000
H811	H81	0.051700	0.343200	0.985800
H821	H82	0.016500	0.151400	0.034200
H831	H83	0.805100	0.116400	0.038100
H841	H84	0.817600	0.333300	0.025700
H851	H85	0.962700	0.109500	0.653500
H861	H86	0.948600	0.240800	0.687300
H871	H87	0.893100	0.118700	0.866200
H881	H88	0.835700	0.261300	0.875000
H891	H89	0.974100	0.277800	0.868000
H901	H90	0.942200	0.352200	0.765400
H911	H91	0.805300	0.329900	0.762900
H921	H92	0.774800	0.389300	0.877800
H931	H93	0.911100	0.411900	0.879800
H941	H94	0.881400	0.489000	0.775900
H951	H95	0.801700	0.514200	0.843200
H961	H96	0.766500	0.465800	0.651400
H971	H97	0.555100	0.461900	0.616400
H981	H98	0.567600	0.474300	0.833300
H991	H99	0.462700	0.890500	0.346500
H1001	H100	0.448600	0.759200	0.312700
H1011	H101	0.393100	0.881300	0.133800
H1021	H102	0.335700	0.738700	0.125000
H1031	H103	0.474100	0.722200	0.132000
H1041	H104	0.442200	0.647800	0.234600
H1051	H105	0.305300	0.670100	0.237100
H1061	H106	0.274800	0.610700	0.122200
H1071	H107	0.411100	0.588100	0.120200
H1081	H108	0.381400	0.511000	0.224100
H1091	H109	0.301700	0.485800	0.156800
H1101	H110	0.266500	0.534200	0.348600
H1111	H111	0.055100	0.538100	0.383600
H1121	H112	0.067600	0.525700	0.166700
C11	C1	0.052800	0.700950	0.127800
C21	C2	0.060700	0.719180	0.200530
C31	C3	0.090900	0.817280	0.132480
C41	C4	0.099400	0.839810	0.269880
C51	C5	0.127000	0.795780	0.339200
C61	C6	0.157000	0.847070	0.403230
C71	C7	0.186770	0.806720	0.475170
C81	C8	0.299000	0.683630	0.466800
C91	C9	0.416000	0.664890	0.464780
C101	C10	0.409870	0.783590	0.471430
C111	C11	0.552800	0.299050	0.872200
C121	C12	0.560700	0.280820	0.799470
C131	C13	0.590900	0.182720	0.867520
C141	C14	0.599400	0.160190	0.730120
C151	C15	0.627000	0.204220	0.660800
C161	C16	0.657000	0.152930	0.596770
C171	C17	0.686770	0.193280	0.524830
C181	C18	0.799000	0.316370	0.533200
C191	C19	0.916000	0.335110	0.535220
C201	C20	0.909870	0.216410	0.528570
C211	C21	0.802800	0.372200	0.200950
C221	C22	0.810700	0.299470	0.219180
C231	C23	0.840900	0.367520	0.317280
C241	C24	0.849400	0.230120	0.339810
C251	C25	0.877000	0.160800	0.295780
C261	C26	0.907000	0.096770	0.347070
C271	C27	0.936770	0.024830	0.306720
C281	C28	0.049000	0.033200	0.183630
C291	C29	0.166000	0.035220	0.164890
C301	C30	0.159870	0.028570	0.283590
C311	C31	0.302800	0.627800	0.799050
C321	C32	0.310700	0.700530	0.780820
C331	C33	0.340900	0.632480	0.682720
C341	C34	0.349400	0.769880	0.660190
C351	C35	0.377000	0.839200	0.704220
C361	C36	0.407000	0.903230	0.652930
C371	C37	0.436770	0.975170	0.693280
C381	C38	0.549000	0.966800	0.816370
C391	C39	0.666000	0.964780	0.835110
C401	C40	0.659870	0.971430	0.716410
C411	C41	0.697200	0.799050	0.627800
C421	C42	0.689300	0.780820	0.700530
C431	C43	0.659100	0.682720	0.632480
C441	C44	0.650600	0.660190	0.769880
C451	C45	0.623000	0.704220	0.839200
C461	C46	0.593000	0.652930	0.903230
C471	C47	0.563230	0.693280	0.975170
C481	C48	0.451000	0.816370	0.966800
C491	C49	0.334000	0.835110	0.964780
C501	C50	0.340130	0.716410	0.971430
C511	C51	0.197200	0.200950	0.372200
C521	C52	0.189300	0.219180	0.299470
C531	C53	0.159100	0.317280	0.367520
C541	C54	0.150600	0.339810	0.230120
C551	C55	0.123000	0.295780	0.160800
C561	C56	0.093000	0.347070	0.096770
C571	C57	0.063230	0.306720	0.024830
C581	C58	0.951000	0.183630	0.033200
C591	C59	0.834000	0.164890	0.035220
C601	C60	0.840130	0.283590	0.028570
C611	C61	0.947200	0.127800	0.700950
C621	C62	0.939300	0.200530	0.719180
C631	C63	0.909100	0.132480	0.817280
C641	C64	0.900600	0.269880	0.839810
C651	C65	0.873000	0.339200	0.795780
C661	C66	0.843000	0.403230	0.847070
C671	C67	0.813230	0.475170	0.806720
C681	C68	0.701000	0.466800	0.683630
C691	C69	0.584000	0.464780	0.664890
C701	C70	0.590130	0.471430	0.783590
C711	C71	0.447200	0.872200	0.299050
C721	C72	0.439300	0.799470	0.280820
C731	C73	0.409100	0.867520	0.182720
C741	C74	0.400600	0.730120	0.160190
C751	C75	0.373000	0.660800	0.204220
C761	C76	0.343000	0.596770	0.152930
C771	C77	0.313230	0.524830	0.193280
C781	C78	0.201000	0.533200	0.316370
C791	C79	0.084000	0.535220	0.335110
C801	C80	0.090130	0.528570	0.216410
N11	N1	0.071270	0.762930	0.085290
N21	N2	0.084760	0.793250	0.203360
N31	N3	0.295080	0.759620	0.470600
N41	N4	0.487050	0.727390	0.467590
N51	N5	0.571270	0.237070	0.914710
N61	N6	0.584760	0.206750	0.796640
N71	N7	0.795080	0.240380	0.529400
N81	N8	0.987050	0.272610	0.532410
N91	N9	0.821270	0.414710	0.262930
N101	N10	0.834760	0.296640	0.293250
N111	N11	0.045080	0.029400	0.259620
N121	N12	0.237050	0.032410	0.227390
N131	N13	0.321270	0.585290	0.737070
N141	N14	0.334760	0.703360	0.706750
N151	N15	0.545080	0.970600	0.740380
N161	N16	0.737050	0.967590	0.772610
N171	N17	0.678730	0.737070	0.585290
N181	N18	0.665240	0.706750	0.703360
N191	N19	0.454920	0.740380	0.970600
N201	N20	0.262950	0.772610	0.967590
N211	N21	0.178730	0.262930	0.414710
N221	N22	0.165240	0.293250	0.296640
N231	N23	0.954920	0.259620	0.029400
N241	N24	0.762950	0.227390	0.032410
N251	N25	0.928730	0.085290	0.762930
N261	N26	0.915240	0.203360	0.793250
N271	N27	0.704920	0.470600	0.759620
N281	N28	0.512950	0.467590	0.727390
N291	N29	0.428730	0.914710	0.237070
N301	N30	0.415240	0.796640	0.206750
N311	N31	0.204920	0.529400	0.240380
N321	N32	0.012950	0.532410	0.272610
O11	O1	0.248200	0.533000	0.979390
O21	O2	0.055660	0.876840	0.970710
O31	O3	0.116990	0.027460	0.974280
O41	O4	0.088750	0.650940	0.966130
O51	O5	0.748200	0.467000	0.020610
O61	O6	0.555660	0.123160	0.029290
O71	O7	0.616990	0.972540	0.025720
O81	O8	0.588750	0.349060	0.033870
O91	O9	0.998200	0.520610	0.033000
O101	O10	0.805660	0.529290	0.376840
O111	O11	0.866990	0.525720	0.527460
O121	O12	0.838750	0.533870	0.150940
O131	O13	0.498200	0.479390	0.967000
O141	O14	0.305660	0.470710	0.623160
O151	O15	0.366990	0.474280	0.472540
O161	O16	0.338750	0.466130	0.849060
O171	O17	0.501800	0.967000	0.479390
O181	O18	0.694340	0.623160	0.470710
O191	O19	0.633010	0.472540	0.474280
O201	O20	0.661250	0.849060	0.466130
O211	O21	0.001800	0.033000	0.520610
O221	O22	0.194340	0.376840	0.529290
O231	O23	0.133010	0.527460	0.525720
O241	O24	0.161250	0.150940	0.533870
O251	O25	0.751800	0.979390	0.533000
O261	O26	0.944340	0.970710	0.876840
O271	O27	0.883010	0.974280	0.027460
O281	O28	0.911250	0.966130	0.650940
O291	O29	0.251800	0.020610	0.467000
O301	O30	0.444340	0.029290	0.123160
O311	O31	0.383010	0.025720	0.972540
O321	O32	0.411250	0.033870	0.349060
