data_XOJPIW_charged_PM
_symmetry_space_group_name_H-M	'P1'
_cell_length_a	22.682700
_cell_length_b	22.682700
_cell_length_c	34.369000
_cell_angle_alpha	90.000000
_cell_angle_beta	90.000000
_cell_angle_gamma	120.000000
_symmetry_Int_Tables_number 1

loop_
_symmetry_equiv_pos_as_xyz
'x,y,z'

loop_
_atom_site_label
_atom_site_type_symbol
_atom_site_fract_x
_atom_site_fract_y
_atom_site_fract_z
Ag11	Ag1	0.370760	0.000100	0.030100
Ag21	Ag2	0.568390	0.999580	0.029800
Ag31	Ag3	0.542500	0.136750	0.030100
Ag41	Ag4	0.542110	0.405770	0.196500
Ag51	Ag5	0.629340	0.629240	0.696770
Ag61	Ag6	0.431190	0.431610	0.696470
Ag71	Ag7	0.594250	0.457500	0.696770
Ag81	Ag8	0.863660	0.457890	0.863170
Ag91	Ag9	0.999900	0.370660	0.363430
Ag101	Ag10	0.000420	0.568810	0.363130
Ag111	Ag11	0.863250	0.405750	0.363430
Ag121	Ag12	0.594230	0.136340	0.529830
Ag131	Ag13	0.629240	0.999900	0.530100
Ag141	Ag14	0.431610	0.000420	0.529800
Ag151	Ag15	0.457500	0.863250	0.530100
Ag161	Ag16	0.457890	0.594230	0.696500
Ag171	Ag17	0.370660	0.370760	0.196770
Ag181	Ag18	0.568810	0.568390	0.196470
Ag191	Ag19	0.405750	0.542500	0.196770
Ag201	Ag20	0.136340	0.542110	0.363170
Ag211	Ag21	0.000100	0.629340	0.863430
Ag221	Ag22	0.999580	0.431190	0.863130
Ag231	Ag23	0.136750	0.594250	0.863430
Ag241	Ag24	0.405770	0.863660	0.029830
H11	H1	0.444000	0.876400	0.248400
H21	H2	0.437300	0.880300	0.315700
H31	H3	0.533000	0.084500	0.311500
H41	H4	0.539800	0.080800	0.244300
H51	H5	0.349500	0.335300	0.988400
H61	H6	0.300800	0.397800	0.966200
H71	H7	0.294700	0.328600	0.857800
H81	H8	0.343400	0.266100	0.880000
H91	H9	0.080400	0.731500	0.182800
H101	H10	0.969100	0.669200	0.205000
H111	H11	0.904300	0.612500	0.095300
H121	H12	0.015600	0.674800	0.073100
H131	H13	0.441500	0.092000	0.151800
H141	H14	0.523300	0.920100	0.159700
H151	H15	0.266100	0.123300	0.988200
H161	H16	0.574200	0.265600	0.983600
H171	H17	0.144500	0.877000	0.073500
H181	H18	0.207900	0.685600	0.062800
H191	H19	0.659000	0.081600	0.404600
H201	H20	0.369200	0.942900	0.431500
H211	H21	0.031900	0.323200	0.910700
H221	H22	0.658400	0.389500	0.162600
H231	H23	0.432400	0.556000	0.915070
H241	H24	0.443000	0.562700	0.982370
H251	H25	0.551500	0.467000	0.978170
H261	H26	0.541000	0.460200	0.910970
H271	H27	0.985800	0.650500	0.655070
H281	H28	0.097000	0.699200	0.632870
H291	H29	0.033900	0.705300	0.524470
H301	H30	0.922700	0.656600	0.546670
H311	H31	0.651100	0.919600	0.849470
H321	H32	0.700100	0.030900	0.871670
H331	H33	0.708200	0.095700	0.761970
H341	H34	0.659200	0.984400	0.739770
H351	H35	0.650500	0.558500	0.818470
H361	H36	0.396800	0.476700	0.826370
H371	H37	0.857200	0.733900	0.654870
H381	H38	0.691400	0.425800	0.650270
H391	H39	0.732500	0.855500	0.740170
H401	H40	0.477700	0.792100	0.729470
H411	H41	0.422600	0.341000	0.071270
H421	H42	0.573700	0.630800	0.098170
H431	H43	0.291300	0.968100	0.577370
H441	H44	0.731100	0.341600	0.829270
H451	H45	0.123600	0.567600	0.581730
H461	H46	0.119700	0.557000	0.649030
H471	H47	0.915500	0.448500	0.644830
H481	H48	0.919200	0.459000	0.577630
H491	H49	0.664700	0.014200	0.321730
H501	H50	0.602200	0.903000	0.299530
H511	H51	0.671400	0.966100	0.191130
H521	H52	0.733900	0.077300	0.213330
H531	H53	0.268500	0.348900	0.516130
H541	H54	0.330800	0.299900	0.538330
H551	H55	0.387500	0.291800	0.428630
H561	H56	0.325200	0.340800	0.406430
H571	H57	0.908000	0.349500	0.485130
H581	H58	0.079900	0.603200	0.493030
H591	H59	0.876700	0.142800	0.321530
H601	H60	0.734400	0.308600	0.316930
H611	H61	0.123000	0.267500	0.406830
H621	H62	0.314400	0.522300	0.396130
H631	H63	0.918400	0.577400	0.737930
H641	H64	0.057100	0.426300	0.764830
H651	H65	0.676800	0.708700	0.244030
H661	H66	0.610500	0.268900	0.495930
H671	H67	0.556000	0.123600	0.748400
H681	H68	0.562700	0.119700	0.815700
H691	H69	0.467000	0.915500	0.811500
H701	H70	0.460200	0.919200	0.744300
H711	H71	0.650500	0.664700	0.488400
H721	H72	0.699200	0.602200	0.466200
H731	H73	0.705300	0.671400	0.357800
H741	H74	0.656600	0.733900	0.380000
H751	H75	0.919600	0.268500	0.682800
H761	H76	0.030900	0.330800	0.705000
H771	H77	0.095700	0.387500	0.595300
H781	H78	0.984400	0.325200	0.573100
H791	H79	0.558500	0.908000	0.651800
H801	H80	0.476700	0.079900	0.659700
H811	H81	0.733900	0.876700	0.488200
H821	H82	0.425800	0.734400	0.483600
H831	H83	0.855500	0.123000	0.573500
H841	H84	0.792100	0.314400	0.562800
H851	H85	0.341000	0.918400	0.904600
H861	H86	0.630800	0.057100	0.931500
H871	H87	0.968100	0.676800	0.410700
H881	H88	0.341600	0.610500	0.662600
H891	H89	0.567600	0.444000	0.415070
H901	H90	0.557000	0.437300	0.482370
H911	H91	0.448500	0.533000	0.478170
H921	H92	0.459000	0.539800	0.410970
H931	H93	0.014200	0.349500	0.155070
H941	H94	0.903000	0.300800	0.132870
H951	H95	0.966100	0.294700	0.024470
H961	H96	0.077300	0.343400	0.046670
H971	H97	0.348900	0.080400	0.349470
H981	H98	0.299900	0.969100	0.371670
H991	H99	0.291800	0.904300	0.261970
H1001	H100	0.340800	0.015600	0.239770
H1011	H101	0.349500	0.441500	0.318470
H1021	H102	0.603200	0.523300	0.326370
H1031	H103	0.142800	0.266100	0.154870
H1041	H104	0.308600	0.574200	0.150270
H1051	H105	0.267500	0.144500	0.240170
H1061	H106	0.522300	0.207900	0.229470
H1071	H107	0.577400	0.659000	0.571270
H1081	H108	0.426300	0.369200	0.598170
H1091	H109	0.708700	0.031900	0.077370
H1101	H110	0.268900	0.658400	0.329270
H1111	H111	0.876400	0.432400	0.081730
H1121	H112	0.880300	0.443000	0.149030
H1131	H113	0.084500	0.551500	0.144830
H1141	H114	0.080800	0.541000	0.077630
H1151	H115	0.335300	0.985800	0.821730
H1161	H116	0.397800	0.097000	0.799530
H1171	H117	0.328600	0.033900	0.691130
H1181	H118	0.266100	0.922700	0.713330
H1191	H119	0.731500	0.651100	0.016130
H1201	H120	0.669200	0.700100	0.038330
H1211	H121	0.612500	0.708200	0.928630
H1221	H122	0.674800	0.659200	0.906430
H1231	H123	0.092000	0.650500	0.985130
H1241	H124	0.920100	0.396800	0.993030
H1251	H125	0.123300	0.857200	0.821530
H1261	H126	0.265600	0.691400	0.816930
H1271	H127	0.877000	0.732500	0.906830
H1281	H128	0.685600	0.477700	0.896130
H1291	H129	0.081600	0.422600	0.237930
H1301	H130	0.942900	0.573700	0.264830
H1311	H131	0.323200	0.291300	0.744030
H1321	H132	0.389500	0.731100	0.995930
C11	C1	0.444600	0.033000	0.115000
C21	C2	0.496600	0.968200	0.116500
C31	C3	0.358100	0.130400	0.002900
C41	C4	0.471300	0.207300	0.992600
C51	C5	0.228400	0.869800	0.058600
C61	C6	0.259800	0.788400	0.065500
C71	C7	0.589000	0.040800	0.446200
C81	C8	0.472600	0.973000	0.443000
C91	C9	0.117400	0.407200	0.899000
C101	C10	0.205800	0.516600	0.890200
C111	C11	0.695600	0.486400	0.168800
C121	C12	0.717000	0.596900	0.167600
C131	C13	0.496300	0.975700	0.196300
C141	C14	0.483800	0.985400	0.363800
C151	C15	0.492600	0.978200	0.239700
C161	C16	0.461900	0.918200	0.261100
C171	C17	0.457800	0.920400	0.301400
C181	C18	0.484500	0.982800	0.320300
C191	C19	0.515200	0.042900	0.298900
C201	C20	0.519200	0.040500	0.258600
C211	C21	0.382700	0.254100	0.950700
C221	C22	0.259500	0.408500	0.895600
C231	C23	0.351200	0.294400	0.936400
C241	C24	0.338500	0.333900	0.962200
C251	C25	0.309400	0.371500	0.948900
C261	C26	0.293000	0.369500	0.909800
C271	C27	0.305700	0.330000	0.883900
C281	C28	0.334900	0.292500	0.897200
C291	C29	0.129700	0.755700	0.111000
C301	C30	0.854000	0.593400	0.166700
C311	C31	0.059000	0.709300	0.125800
C321	C32	0.045100	0.707600	0.165300
C331	C33	0.978400	0.670300	0.178600
C341	C34	0.925700	0.634700	0.152300
C351	C35	0.939600	0.636400	0.112800
C361	C36	0.006300	0.673700	0.099600
C371	C37	0.412000	0.073400	0.129100
C381	C38	0.350000	0.034000	0.152000
C391	C39	0.534000	0.932900	0.132400
C401	C40	0.610000	0.978000	0.126000
C411	C41	0.281700	0.101700	0.007100
C421	C42	0.265000	0.114000	0.048700
C431	C43	0.535500	0.273500	0.981600
C441	C44	0.547000	0.328000	0.010000
C451	C45	0.182100	0.900500	0.055000
C461	C46	0.152000	0.885000	0.013600
C471	C47	0.254000	0.719000	0.071700
C481	C48	0.258000	0.699000	0.109200
C491	C49	0.662700	0.083700	0.433100
C501	C50	0.703000	0.050000	0.441000
C511	C51	0.401900	0.927900	0.425700
C521	C52	0.379000	0.855000	0.438400
C531	C53	0.079000	0.333000	0.911600
C541	C54	0.088000	0.329000	0.954200
C551	C55	0.277000	0.577000	0.889300
C561	C56	0.270000	0.642000	0.880000
C571	C57	0.706000	0.426000	0.163600
C581	C58	0.728000	0.401000	0.193400
C591	C59	0.756000	0.674000	0.163700
C601	C60	0.824000	0.704000	0.152000
C611	C61	0.588400	0.555400	0.781670
C621	C62	0.471600	0.503400	0.783170
C631	C63	0.772300	0.641900	0.669570
C641	C64	0.736000	0.528700	0.659270
C651	C65	0.641400	0.771600	0.725270
C661	C66	0.528600	0.740200	0.732170
C671	C67	0.451800	0.411000	0.112870
C681	C68	0.500400	0.527400	0.109670
C691	C69	0.289800	0.882600	0.565670
C701	C70	0.310800	0.794200	0.556870
C711	C71	0.790800	0.304400	0.835470
C721	C72	0.879900	0.283000	0.834270
C731	C73	0.479400	0.503700	0.862970
C741	C74	0.501600	0.516200	0.030470
C751	C75	0.485600	0.507400	0.906370
C761	C76	0.456300	0.538100	0.927770
C771	C77	0.462600	0.542200	0.968070
C781	C78	0.498300	0.515500	0.986970
C791	C79	0.527700	0.484800	0.965570
C801	C80	0.521300	0.480800	0.925270
C811	C81	0.871400	0.617300	0.617370
C821	C82	0.149000	0.740500	0.562270
C831	C83	0.943200	0.648800	0.603070
C841	C84	0.995400	0.661500	0.628870
C851	C85	0.062100	0.690600	0.615570
C861	C86	0.076500	0.707000	0.576470
C871	C87	0.024300	0.694300	0.550570
C881	C88	0.957600	0.665100	0.563870
C891	C89	0.626000	0.870300	0.777670
C901	C90	0.739400	0.146000	0.833370
C911	C91	0.650300	0.941000	0.792470
C921	C92	0.662500	0.954900	0.831970
C931	C93	0.691900	0.021600	0.845270
C941	C94	0.709000	0.074300	0.818970
C951	C95	0.696800	0.060400	0.779470
C961	C96	0.667400	0.993700	0.766270
C971	C97	0.661400	0.588000	0.795770
C981	C98	0.684000	0.650000	0.818670
C991	C99	0.398900	0.466000	0.799070
C1001	C100	0.368000	0.390000	0.792670
C1011	C101	0.820000	0.718300	0.673770
C1021	C102	0.849000	0.735000	0.715370
C1031	C103	0.738000	0.464500	0.648270
C1041	C104	0.781000	0.453000	0.676670
C1051	C105	0.718400	0.817900	0.721670
C1061	C106	0.733000	0.848000	0.680270
C1071	C107	0.465000	0.746000	0.738370
C1081	C108	0.441000	0.742000	0.775870
C1091	C109	0.421000	0.337300	0.099770
C1101	C110	0.347000	0.297000	0.107670
C1111	C111	0.526000	0.598100	0.092370
C1121	C112	0.476000	0.621000	0.105070
C1131	C113	0.254000	0.921000	0.578270
C1141	C114	0.241000	0.912000	0.620870
C1151	C115	0.300000	0.723000	0.555970
C1161	C116	0.372000	0.730000	0.546670
C1171	C117	0.720000	0.294000	0.830270
C1181	C118	0.673000	0.272000	0.860070
C1191	C119	0.918000	0.244000	0.830370
C1201	C120	0.880000	0.176000	0.818670
C1211	C121	0.967000	0.411600	0.448330
C1221	C122	0.031800	0.528400	0.449830
C1231	C123	0.869600	0.227700	0.336230
C1241	C124	0.792700	0.264000	0.325930
C1251	C125	0.130200	0.358600	0.391930
C1261	C126	0.211600	0.471400	0.398830
C1271	C127	0.959200	0.548200	0.779530
C1281	C128	0.027000	0.499600	0.776330
C1291	C129	0.592800	0.710200	0.232330
C1301	C130	0.483400	0.689200	0.223530
C1311	C131	0.513600	0.209200	0.502130
C1321	C132	0.403100	0.120100	0.500930
C1331	C133	0.024300	0.520600	0.529630
C1341	C134	0.014600	0.498400	0.697130
C1351	C135	0.021800	0.514400	0.573030
C1361	C136	0.081800	0.543700	0.594430
C1371	C137	0.079600	0.537400	0.634730
C1381	C138	0.017200	0.501700	0.653630
C1391	C139	0.957100	0.472300	0.632230
C1401	C140	0.959500	0.478700	0.591930
C1411	C141	0.745900	0.128600	0.284030
C1421	C142	0.591500	0.851000	0.228930
C1431	C143	0.705600	0.056800	0.269730
C1441	C144	0.666100	0.004600	0.295530
C1451	C145	0.628500	0.937900	0.282230
C1461	C146	0.630500	0.923500	0.243130
C1471	C147	0.670000	0.975700	0.217230
C1481	C148	0.707500	0.042400	0.230530
C1491	C149	0.244300	0.374000	0.444330
C1501	C150	0.406600	0.260600	0.500030
C1511	C151	0.290700	0.349700	0.459130
C1521	C152	0.292400	0.337500	0.498630
C1531	C153	0.329700	0.308100	0.511930
C1541	C154	0.365300	0.291000	0.485630
C1551	C155	0.363600	0.303200	0.446130
C1561	C156	0.326300	0.332600	0.432930
C1571	C157	0.926600	0.338600	0.462430
C1581	C158	0.966000	0.316000	0.485330
C1591	C159	0.067100	0.601100	0.465730
C1601	C160	0.022000	0.632000	0.459330
C1611	C161	0.898300	0.180000	0.340430
C1621	C162	0.886000	0.151000	0.382030
C1631	C163	0.726500	0.262000	0.314930
C1641	C164	0.672000	0.219000	0.343330
C1651	C165	0.099500	0.281600	0.388330
C1661	C166	0.115000	0.267000	0.346930
C1671	C167	0.281000	0.535000	0.405030
C1681	C168	0.301000	0.559000	0.442530
C1691	C169	0.916300	0.579000	0.766430
C1701	C170	0.950000	0.653000	0.774330
C1711	C171	0.072100	0.474000	0.759030
C1721	C172	0.145000	0.524000	0.771730
C1731	C173	0.667000	0.746000	0.244930
C1741	C174	0.671000	0.759000	0.287530
C1751	C175	0.423000	0.700000	0.222630
C1761	C176	0.358000	0.628000	0.213330
C1771	C177	0.574000	0.280000	0.496930
C1781	C178	0.599000	0.327000	0.526730
C1791	C179	0.326000	0.082000	0.497030
C1801	C180	0.296000	0.120000	0.485330
C1811	C181	0.555400	0.967000	0.615000
C1821	C182	0.503400	0.031800	0.616500
C1831	C183	0.641900	0.869600	0.502900
C1841	C184	0.528700	0.792700	0.492600
C1851	C185	0.771600	0.130200	0.558600
C1861	C186	0.740200	0.211600	0.565500
C1871	C187	0.411000	0.959200	0.946200
C1881	C188	0.527400	0.027000	0.943000
C1891	C189	0.882600	0.592800	0.399000
C1901	C190	0.794200	0.483400	0.390200
C1911	C191	0.304400	0.513600	0.668800
C1921	C192	0.283000	0.403100	0.667600
C1931	C193	0.503700	0.024300	0.696300
C1941	C194	0.516200	0.014600	0.863800
C1951	C195	0.507400	0.021800	0.739700
C1961	C196	0.538100	0.081800	0.761100
C1971	C197	0.542200	0.079600	0.801400
C1981	C198	0.515500	0.017200	0.820300
C1991	C199	0.484800	0.957100	0.798900
C2001	C200	0.480800	0.959500	0.758600
C2011	C201	0.617300	0.745900	0.450700
C2021	C202	0.740500	0.591500	0.395600
C2031	C203	0.648800	0.705600	0.436400
C2041	C204	0.661500	0.666100	0.462200
C2051	C205	0.690600	0.628500	0.448900
C2061	C206	0.707000	0.630500	0.409800
C2071	C207	0.694300	0.670000	0.383900
C2081	C208	0.665100	0.707500	0.397200
C2091	C209	0.870300	0.244300	0.611000
C2101	C210	0.146000	0.406600	0.666700
C2111	C211	0.941000	0.290700	0.625800
C2121	C212	0.954900	0.292400	0.665300
C2131	C213	0.021600	0.329700	0.678600
C2141	C214	0.074300	0.365300	0.652300
C2151	C215	0.060400	0.363600	0.612800
C2161	C216	0.993700	0.326300	0.599600
C2171	C217	0.588000	0.926600	0.629100
C2181	C218	0.650000	0.966000	0.652000
C2191	C219	0.466000	0.067100	0.632400
C2201	C220	0.390000	0.022000	0.626000
C2211	C221	0.718300	0.898300	0.507100
C2221	C222	0.735000	0.886000	0.548700
C2231	C223	0.464500	0.726500	0.481600
C2241	C224	0.453000	0.672000	0.510000
C2251	C225	0.817900	0.099500	0.555000
C2261	C226	0.848000	0.115000	0.513600
C2271	C227	0.746000	0.281000	0.571700
C2281	C228	0.742000	0.301000	0.609200
C2291	C229	0.337300	0.916300	0.933100
C2301	C230	0.297000	0.950000	0.941000
C2311	C231	0.598100	0.072100	0.925700
C2321	C232	0.621000	0.145000	0.938400
C2331	C233	0.921000	0.667000	0.411600
C2341	C234	0.912000	0.671000	0.454200
C2351	C235	0.723000	0.423000	0.389300
C2361	C236	0.730000	0.358000	0.380000
C2371	C237	0.294000	0.574000	0.663600
C2381	C238	0.272000	0.599000	0.693400
C2391	C239	0.244000	0.326000	0.663700
C2401	C240	0.176000	0.296000	0.652000
C2411	C241	0.411600	0.444600	0.281670
C2421	C242	0.528400	0.496600	0.283170
C2431	C243	0.227700	0.358100	0.169570
C2441	C244	0.264000	0.471300	0.159270
C2451	C245	0.358600	0.228400	0.225270
C2461	C246	0.471400	0.259800	0.232170
C2471	C247	0.548200	0.589000	0.612870
C2481	C248	0.499600	0.472600	0.609670
C2491	C249	0.710200	0.117400	0.065670
C2501	C250	0.689200	0.205800	0.056870
C2511	C251	0.209200	0.695600	0.335470
C2521	C252	0.120100	0.717000	0.334270
C2531	C253	0.520600	0.496300	0.362970
C2541	C254	0.498400	0.483800	0.530470
C2551	C255	0.514400	0.492600	0.406370
C2561	C256	0.543700	0.461900	0.427770
C2571	C257	0.537400	0.457800	0.468070
C2581	C258	0.501700	0.484500	0.486970
C2591	C259	0.472300	0.515200	0.465570
C2601	C260	0.478700	0.519200	0.425270
C2611	C261	0.128600	0.382700	0.117370
C2621	C262	0.851000	0.259500	0.062270
C2631	C263	0.056800	0.351200	0.103070
C2641	C264	0.004600	0.338500	0.128870
C2651	C265	0.937900	0.309400	0.115570
C2661	C266	0.923500	0.293000	0.076470
C2671	C267	0.975700	0.305700	0.050570
C2681	C268	0.042400	0.334900	0.063870
C2691	C269	0.374000	0.129700	0.277670
C2701	C270	0.260600	0.854000	0.333370
C2711	C271	0.349700	0.059000	0.292470
C2721	C272	0.337500	0.045100	0.331970
C2731	C273	0.308100	0.978400	0.345270
C2741	C274	0.291000	0.925700	0.318970
C2751	C275	0.303200	0.939600	0.279470
C2761	C276	0.332600	0.006300	0.266270
C2771	C277	0.338600	0.412000	0.295770
C2781	C278	0.316000	0.350000	0.318670
C2791	C279	0.601100	0.534000	0.299070
C2801	C280	0.632000	0.610000	0.292670
C2811	C281	0.180000	0.281700	0.173770
C2821	C282	0.151000	0.265000	0.215370
C2831	C283	0.262000	0.535500	0.148270
C2841	C284	0.219000	0.547000	0.176670
C2851	C285	0.281600	0.182100	0.221670
C2861	C286	0.267000	0.152000	0.180270
C2871	C287	0.535000	0.254000	0.238370
C2881	C288	0.559000	0.258000	0.275870
C2891	C289	0.579000	0.662700	0.599770
C2901	C290	0.653000	0.703000	0.607670
C2911	C291	0.474000	0.401900	0.592370
C2921	C292	0.524000	0.379000	0.605070
C2931	C293	0.746000	0.079000	0.078270
C2941	C294	0.759000	0.088000	0.120870
C2951	C295	0.700000	0.277000	0.055970
C2961	C296	0.628000	0.270000	0.046670
C2971	C297	0.280000	0.706000	0.330270
C2981	C298	0.327000	0.728000	0.360070
C2991	C299	0.082000	0.756000	0.330370
C3001	C300	0.120000	0.824000	0.318670
C3011	C301	0.033000	0.588400	0.948330
C3021	C302	0.968200	0.471600	0.949830
C3031	C303	0.130400	0.772300	0.836230
C3041	C304	0.207300	0.736000	0.825930
C3051	C305	0.869800	0.641400	0.891930
C3061	C306	0.788400	0.528600	0.898830
C3071	C307	0.040800	0.451800	0.279530
C3081	C308	0.973000	0.500400	0.276330
C3091	C309	0.407200	0.289800	0.732330
C3101	C310	0.516600	0.310800	0.723530
C3111	C311	0.486400	0.790800	0.002130
C3121	C312	0.596900	0.879900	0.000930
C3131	C313	0.975700	0.479400	0.029630
C3141	C314	0.985400	0.501600	0.197130
C3151	C315	0.978200	0.485600	0.073030
C3161	C316	0.918200	0.456300	0.094430
C3171	C317	0.920400	0.462600	0.134730
C3181	C318	0.982800	0.498300	0.153630
C3191	C319	0.042900	0.527700	0.132230
C3201	C320	0.040500	0.521300	0.091930
C3211	C321	0.254100	0.871400	0.784030
C3221	C322	0.408500	0.149000	0.728930
C3231	C323	0.294400	0.943200	0.769730
C3241	C324	0.333900	0.995400	0.795530
C3251	C325	0.371500	0.062100	0.782230
C3261	C326	0.369500	0.076500	0.743130
C3271	C327	0.330000	0.024300	0.717230
C3281	C328	0.292500	0.957600	0.730530
C3291	C329	0.755700	0.626000	0.944330
C3301	C330	0.593400	0.739400	0.000030
C3311	C331	0.709300	0.650300	0.959130
C3321	C332	0.707600	0.662500	0.998630
C3331	C333	0.670300	0.691900	0.011930
C3341	C334	0.634700	0.709000	0.985630
C3351	C335	0.636400	0.696800	0.946130
C3361	C336	0.673700	0.667400	0.932930
C3371	C337	0.073400	0.661400	0.962430
C3381	C338	0.034000	0.684000	0.985330
C3391	C339	0.932900	0.398900	0.965730
C3401	C340	0.978000	0.368000	0.959330
C3411	C341	0.101700	0.820000	0.840430
C3421	C342	0.114000	0.849000	0.882030
C3431	C343	0.273500	0.738000	0.814930
C3441	C344	0.328000	0.781000	0.843330
C3451	C345	0.900500	0.718400	0.888330
C3461	C346	0.885000	0.733000	0.846930
C3471	C347	0.719000	0.465000	0.905030
C3481	C348	0.699000	0.441000	0.942530
C3491	C349	0.083700	0.421000	0.266430
C3501	C350	0.050000	0.347000	0.274330
C3511	C351	0.927900	0.526000	0.259030
C3521	C352	0.855000	0.476000	0.271730
C3531	C353	0.333000	0.254000	0.744930
C3541	C354	0.329000	0.241000	0.787530
C3551	C355	0.577000	0.300000	0.722630
C3561	C356	0.642000	0.372000	0.713330
C3571	C357	0.426000	0.720000	0.996930
C3581	C358	0.401000	0.673000	0.026730
C3591	C359	0.674000	0.918000	0.997030
C3601	C360	0.704000	0.880000	0.985330
N11	N1	0.484600	0.978400	0.079400
N21	N2	0.452400	0.015400	0.078500
N31	N3	0.473100	0.003600	0.138600
N41	N4	0.463700	0.147400	0.004600
N51	N5	0.396700	0.102000	0.011200
N61	N6	0.405300	0.197100	0.992200
N71	N7	0.313000	0.847600	0.053200
N81	N8	0.294400	0.895900	0.048800
N91	N9	0.206200	0.801800	0.067500
N101	N10	0.493400	0.982200	0.480400
N111	N11	0.562200	0.022900	0.482300
N121	N12	0.532800	0.006500	0.421600
N131	N13	0.145700	0.512100	0.881000
N141	N14	0.093100	0.447500	0.886700
N151	N15	0.187500	0.450700	0.901900
N161	N16	0.652300	0.554200	0.179200
N171	N17	0.639400	0.488600	0.179400
N181	N18	0.743500	0.554100	0.160700
N191	N19	0.476000	0.007700	0.180000
N201	N20	0.536800	0.008800	0.379500
N211	N21	0.386100	0.246500	0.983800
N221	N22	0.234600	0.430600	0.915500
N231	N23	0.138200	0.757700	0.077700
N241	N24	0.809100	0.575000	0.145000
N251	N25	0.493800	0.515400	0.746070
N261	N26	0.563000	0.547600	0.745170
N271	N27	0.530500	0.526900	0.805270
N281	N28	0.683700	0.536300	0.671270
N291	N29	0.705300	0.603300	0.677870
N301	N30	0.791800	0.594700	0.658870
N311	N31	0.534600	0.687000	0.719870
N321	N32	0.601500	0.705600	0.715470
N331	N33	0.595600	0.793800	0.734170
N341	N34	0.488800	0.506600	0.147070
N351	N35	0.460700	0.437800	0.148970
N361	N36	0.473700	0.467200	0.088270
N371	N37	0.366400	0.854300	0.547670
N381	N38	0.354400	0.906900	0.553370
N391	N39	0.263200	0.812500	0.568570
N401	N40	0.901900	0.347700	0.845870
N411	N41	0.849200	0.360600	0.846070
N421	N42	0.810600	0.256500	0.827370
N431	N43	0.531700	0.524000	0.846670
N441	N44	0.472000	0.463200	0.046170
N451	N45	0.860400	0.613900	0.650470
N461	N46	0.196000	0.765400	0.582170
N471	N47	0.619500	0.861800	0.744370
N481	N48	0.765900	0.190900	0.811670
N491	N49	0.021600	0.506200	0.412730
N501	N50	0.984600	0.437000	0.411830
N511	N51	0.996400	0.469500	0.471930
N521	N52	0.852600	0.316300	0.337930
N531	N53	0.898000	0.294700	0.344530
N541	N54	0.802900	0.208200	0.325530
N551	N55	0.152400	0.465400	0.386530
N561	N56	0.104100	0.398500	0.382130
N571	N57	0.198200	0.404400	0.400830
N581	N58	0.017800	0.511200	0.813730
N591	N59	0.977100	0.539300	0.815630
N601	N60	0.993500	0.526300	0.754930
N611	N61	0.487900	0.633600	0.214330
N621	N62	0.552500	0.645600	0.220030
N631	N63	0.549300	0.736800	0.235230
N641	N64	0.445800	0.098100	0.512530
N651	N65	0.511400	0.150800	0.512730
N661	N66	0.445900	0.189400	0.494030
N671	N67	0.992300	0.468300	0.513330
N681	N68	0.991200	0.528000	0.712830
N691	N69	0.753500	0.139600	0.317130
N701	N70	0.569400	0.804000	0.248830
N711	N71	0.242300	0.380500	0.411030
N721	N72	0.425000	0.234100	0.478330
N731	N73	0.515400	0.021600	0.579400
N741	N74	0.547600	0.984600	0.578500
N751	N75	0.526900	0.996400	0.638600
N761	N76	0.536300	0.852600	0.504600
N771	N77	0.603300	0.898000	0.511200
N781	N78	0.594700	0.802900	0.492200
N791	N79	0.687000	0.152400	0.553200
N801	N80	0.705600	0.104100	0.548800
N811	N81	0.793800	0.198200	0.567500
N821	N82	0.506600	0.017800	0.980400
N831	N83	0.437800	0.977100	0.982300
N841	N84	0.467200	0.993500	0.921600
N851	N85	0.854300	0.487900	0.381000
N861	N86	0.906900	0.552500	0.386700
N871	N87	0.812500	0.549300	0.401900
N881	N88	0.347700	0.445800	0.679200
N891	N89	0.360600	0.511400	0.679400
N901	N90	0.256500	0.445900	0.660700
N911	N91	0.524000	0.992300	0.680000
N921	N92	0.463200	0.991200	0.879500
N931	N93	0.613900	0.753500	0.483800
N941	N94	0.765400	0.569400	0.415500
N951	N95	0.861800	0.242300	0.577700
N961	N96	0.190900	0.425000	0.645000
N971	N97	0.506200	0.484600	0.246070
N981	N98	0.437000	0.452400	0.245170
N991	N99	0.469500	0.473100	0.305270
N1001	N100	0.316300	0.463700	0.171270
N1011	N101	0.294700	0.396700	0.177870
N1021	N102	0.208200	0.405300	0.158870
N1031	N103	0.465400	0.313000	0.219870
N1041	N104	0.398500	0.294400	0.215470
N1051	N105	0.404400	0.206200	0.234170
N1061	N106	0.511200	0.493400	0.647070
N1071	N107	0.539300	0.562200	0.648970
N1081	N108	0.526300	0.532800	0.588270
N1091	N109	0.633600	0.145700	0.047670
N1101	N110	0.645600	0.093100	0.053370
N1111	N111	0.736800	0.187500	0.068570
N1121	N112	0.098100	0.652300	0.345870
N1131	N113	0.150800	0.639400	0.346070
N1141	N114	0.189400	0.743500	0.327370
N1151	N115	0.468300	0.476000	0.346670
N1161	N116	0.528000	0.536800	0.546170
N1171	N117	0.139600	0.386100	0.150470
N1181	N118	0.804000	0.234600	0.082170
N1191	N119	0.380500	0.138200	0.244370
N1201	N120	0.234100	0.809100	0.311670
N1211	N121	0.978400	0.493800	0.912730
N1221	N122	0.015400	0.563000	0.911830
N1231	N123	0.003600	0.530500	0.971930
N1241	N124	0.147400	0.683700	0.837930
N1251	N125	0.102000	0.705300	0.844530
N1261	N126	0.197100	0.791800	0.825530
N1271	N127	0.847600	0.534600	0.886530
N1281	N128	0.895900	0.601500	0.882130
N1291	N129	0.801800	0.595600	0.900830
N1301	N130	0.982200	0.488800	0.313730
N1311	N131	0.022900	0.460700	0.315630
N1321	N132	0.006500	0.473700	0.254930
N1331	N133	0.512100	0.366400	0.714330
N1341	N134	0.447500	0.354400	0.720030
N1351	N135	0.450700	0.263200	0.735230
N1361	N136	0.554200	0.901900	0.012530
N1371	N137	0.488600	0.849200	0.012730
N1381	N138	0.554100	0.810600	0.994030
N1391	N139	0.007700	0.531700	0.013330
N1401	N140	0.008800	0.472000	0.212830
N1411	N141	0.246500	0.860400	0.817130
N1421	N142	0.430600	0.196000	0.748830
N1431	N143	0.757700	0.619500	0.911030
N1441	N144	0.575000	0.765900	0.978330
O11	O1	0.430000	0.132000	0.114000
O21	O2	0.512000	0.874000	0.107000
O31	O3	0.249000	0.030000	0.999900
O41	O4	0.532000	0.292000	0.942600
O51	O5	0.215000	0.967000	0.064000
O61	O6	0.301000	0.717000	0.042200
O71	O7	0.692000	0.152000	0.441000
O81	O8	0.418000	0.928000	0.381800
O91	O9	0.077000	0.288000	0.887400
O101	O10	0.314000	0.573000	0.854600
O111	O11	0.725000	0.422000	0.124600
O121	O12	0.718000	0.704000	0.161000
O131	O13	0.702000	0.570000	0.780670
O141	O14	0.362000	0.488000	0.773670
O151	O15	0.781000	0.751000	0.666570
O161	O16	0.760000	0.468000	0.609270
O171	O17	0.752000	0.785000	0.730670
O181	O18	0.416000	0.699000	0.708870
O191	O19	0.460000	0.308000	0.107670
O201	O20	0.510000	0.582000	0.048470
O211	O21	0.211000	0.923000	0.554070
O221	O22	0.259000	0.686000	0.521270
O231	O23	0.697000	0.275000	0.791270
O241	O24	0.986000	0.282000	0.827670
O251	O25	0.868000	0.298000	0.447330
O261	O26	0.126000	0.638000	0.440330
O271	O27	0.970000	0.219000	0.333230
O281	O28	0.708000	0.240000	0.275930
O291	O29	0.033000	0.248000	0.397330
O301	O30	0.283000	0.584000	0.375530
O311	O31	0.848000	0.540000	0.774330
O321	O32	0.072000	0.490000	0.715130
O331	O33	0.712000	0.789000	0.220730
O341	O34	0.427000	0.741000	0.187930
O351	O35	0.578000	0.303000	0.457930
O361	O36	0.296000	0.014000	0.494330
O371	O37	0.570000	0.868000	0.614000
O381	O38	0.488000	0.126000	0.607000
O391	O39	0.751000	0.970000	0.499900
O401	O40	0.468000	0.708000	0.442600
O411	O41	0.785000	0.033000	0.564000
O421	O42	0.699000	0.283000	0.542200
O431	O43	0.308000	0.848000	0.941000
O441	O44	0.582000	0.072000	0.881800
O451	O45	0.923000	0.712000	0.387400
O461	O46	0.686000	0.427000	0.354600
O471	O47	0.275000	0.578000	0.624600
O481	O48	0.282000	0.296000	0.661000
O491	O49	0.298000	0.430000	0.280670
O501	O50	0.638000	0.512000	0.273670
O511	O51	0.219000	0.249000	0.166570
O521	O52	0.240000	0.532000	0.109270
O531	O53	0.248000	0.215000	0.230670
O541	O54	0.584000	0.301000	0.208870
O551	O55	0.540000	0.692000	0.607670
O561	O56	0.490000	0.418000	0.548470
O571	O57	0.789000	0.077000	0.054070
O581	O58	0.741000	0.314000	0.021270
O591	O59	0.303000	0.725000	0.291270
O601	O60	0.014000	0.718000	0.327670
O611	O61	0.132000	0.702000	0.947330
O621	O62	0.874000	0.362000	0.940330
O631	O63	0.030000	0.781000	0.833230
O641	O64	0.292000	0.760000	0.775930
O651	O65	0.967000	0.752000	0.897330
O661	O66	0.717000	0.416000	0.875530
O671	O67	0.152000	0.460000	0.274330
O681	O68	0.928000	0.510000	0.215130
O691	O69	0.288000	0.211000	0.720730
O701	O70	0.573000	0.259000	0.687930
O711	O71	0.422000	0.697000	0.957930
O721	O72	0.704000	0.986000	0.994330
