data_XOJWID_charged_PM
_symmetry_space_group_name_H-M	'P1'
_cell_length_a	10.075000
_cell_length_b	13.051000
_cell_length_c	13.240000
_cell_angle_alpha	70.790000
_cell_angle_beta	68.850000
_cell_angle_gamma	70.610000
_symmetry_Int_Tables_number 1

loop_
_symmetry_equiv_pos_as_xyz
'x,y,z'

loop_
_atom_site_label
_atom_site_type_symbol
_atom_site_fract_x
_atom_site_fract_y
_atom_site_fract_z
Zn11	Zn1	0.566820	0.166370	0.447150
Zn21	Zn2	0.162560	0.054510	0.334830
Zn31	Zn3	0.433180	0.833630	0.552850
Zn41	Zn4	0.837440	0.945490	0.665170
P11	P1	0.870070	0.164110	0.473390
P21	P2	0.492080	0.031000	0.335980
P31	P3	0.129930	0.835890	0.526610
P41	P4	0.507920	0.969000	0.664020
H11	H1	0.828600	0.392300	0.352600
H21	H2	0.706300	0.563000	0.400500
H31	H3	0.589300	0.405400	0.719400
H41	H4	0.712200	0.236000	0.674000
H51	H5	0.619700	0.133300	0.108100
H61	H6	0.720400	0.078200	0.946000
H71	H7	0.631000	0.781000	0.100700
H81	H8	0.534800	0.834500	0.266700
H91	H9	0.171400	0.607700	0.647400
H101	H10	0.293700	0.437000	0.599500
H111	H11	0.410700	0.594600	0.280600
H121	H12	0.287800	0.764000	0.326000
H131	H13	0.380300	0.866700	0.891900
H141	H14	0.279600	0.921800	0.054000
H151	H15	0.369000	0.219000	0.899300
H161	H16	0.465200	0.165500	0.733300
C11	C1	0.782300	0.296500	0.508400
C21	C2	0.780700	0.394200	0.426800
C31	C3	0.706700	0.496800	0.455800
C41	C4	0.636200	0.500300	0.562900
C51	C5	0.637600	0.402900	0.645400
C61	C6	0.710800	0.301600	0.618000
C71	C7	0.552600	0.609600	0.593300
C81	C8	0.567000	0.990600	0.204600
C91	C9	0.622400	0.061600	0.107500
C101	C10	0.681000	0.029000	0.010600
C111	C11	0.684000	0.924700	0.004700
C121	C12	0.629000	0.852300	0.102100
C131	C13	0.571200	0.884300	0.201400
C141	C14	0.741100	0.891800	0.897200
C151	C15	0.217700	0.703500	0.491600
C161	C16	0.219300	0.605800	0.573200
C171	C17	0.293300	0.503200	0.544200
C181	C18	0.363800	0.499700	0.437100
C191	C19	0.362400	0.597100	0.354600
C201	C20	0.289200	0.698400	0.382000
C211	C21	0.447400	0.390400	0.406700
C221	C22	0.433000	0.009400	0.795400
C231	C23	0.377600	0.938400	0.892500
C241	C24	0.319000	0.971000	0.989400
C251	C25	0.316000	0.075300	0.995300
C261	C26	0.371000	0.147700	0.897900
C271	C27	0.428800	0.115700	0.798600
C281	C28	0.258900	0.108200	0.102800
O11	O1	0.771200	0.132700	0.432100
O21	O2	0.011900	0.178000	0.384000
O31	O3	0.899000	0.083300	0.579400
O41	O4	0.553300	0.694700	0.514500
O51	O5	0.490400	0.612300	0.692800
O61	O6	0.328000	0.071200	0.362100
O71	O7	0.558600	0.125600	0.320700
O81	O8	0.541600	0.928700	0.420200
O91	O9	0.797000	0.962400	0.813500
O101	O10	0.730300	0.802000	0.892400
O111	O11	0.228800	0.867300	0.567900
O121	O12	0.988100	0.822000	0.616000
O131	O13	0.101000	0.916700	0.420600
O141	O14	0.446700	0.305300	0.485500
O151	O15	0.509600	0.387700	0.307200
O161	O16	0.672000	0.928800	0.637900
O171	O17	0.441400	0.874400	0.679300
O181	O18	0.458400	0.071300	0.579800
O191	O19	0.203000	0.037600	0.186500
O201	O20	0.269700	0.198000	0.107600
H171	H17	0.671300	0.736900	0.816400
H181	H18	0.599600	0.714800	0.750900
H191	H19	0.840700	0.670500	0.675200
H201	H20	0.857200	0.587400	0.789000
H211	H21	0.779800	0.563100	0.718600
H221	H22	0.486000	0.658000	0.932900
H231	H23	0.559300	0.554800	0.879100
H241	H24	0.636000	0.579000	0.950000
C291	C29	0.795000	0.620700	0.740300
C301	C30	0.577600	0.612400	0.898700
N11	N1	0.656300	0.682200	0.797600
H251	H25	0.891000	0.902500	0.428200
H261	H26	0.750600	0.913600	0.413500
H271	H27	0.875000	0.020000	0.266000
H281	H28	0.002100	0.913400	0.246300
H291	H29	0.850100	0.925900	0.230600
H301	H30	0.839000	0.736500	0.491400
H311	H31	0.827200	0.746100	0.373600
H321	H32	0.979300	0.734100	0.388800
C311	C31	0.898000	0.940900	0.273300
C321	C32	0.875700	0.765600	0.412700
N21	N2	0.847800	0.885600	0.388900
H331	H33	0.328700	0.263100	0.183600
H341	H34	0.400400	0.285200	0.249100
H351	H35	0.159300	0.329500	0.324800
H361	H36	0.142800	0.412600	0.211000
H371	H37	0.220200	0.436900	0.281400
H381	H38	0.514000	0.342000	0.067100
H391	H39	0.440700	0.445200	0.120900
H401	H40	0.364000	0.421000	0.050000
C331	C33	0.205000	0.379300	0.259700
C341	C34	0.422400	0.387600	0.101300
N31	N3	0.343700	0.317800	0.202400
H411	H41	0.109000	0.097500	0.571800
H421	H42	0.249400	0.086400	0.586500
H431	H43	0.125000	0.980000	0.734000
H441	H44	0.997900	0.086600	0.753700
H451	H45	0.149900	0.074100	0.769400
H461	H46	0.161000	0.263500	0.508600
H471	H47	0.172800	0.253900	0.626400
H481	H48	0.020700	0.265900	0.611200
C351	C35	0.102000	0.059100	0.726700
C361	C36	0.124300	0.234400	0.587300
N41	N4	0.152200	0.114400	0.611100
