data_XOJWOJ_clean_PM
_symmetry_space_group_name_H-M	'P1'
_cell_length_a	9.869000
_cell_length_b	17.101000
_cell_length_c	17.320000
_cell_angle_alpha	90.000000
_cell_angle_beta	94.896000
_cell_angle_gamma	90.000000
_symmetry_Int_Tables_number 1

loop_
_symmetry_equiv_pos_as_xyz
'x,y,z'

loop_
_atom_site_label
_atom_site_type_symbol
_atom_site_fract_x
_atom_site_fract_y
_atom_site_fract_z
Zn11	Zn1	0.062810	0.965980	0.099740
Zn21	Zn2	0.550160	0.107330	0.963200
P11	P1	0.353930	0.061280	0.087670
P21	P2	0.853540	0.102720	0.054200
O11	O1	0.204900	0.041800	0.085800
O21	O2	0.383700	0.111100	0.017500
O31	O3	0.447700	0.990700	0.096800
O41	O4	0.514200	0.326500	0.372700
O51	O5	0.482200	0.224200	0.445300
O61	O6	0.897800	0.028600	0.097800
O71	O7	0.930000	0.113700	0.981700
O81	O8	0.701400	0.106900	0.039500
O91	O9	0.900600	0.411200	0.300700
O101	O10	0.102700	0.357100	0.330100
C11	C1	0.391700	0.120100	0.173500
C21	C2	0.356900	0.092800	0.244500
H11	H1	0.313100	0.044900	0.247700
C31	C3	0.388000	0.137500	0.311000
H21	H2	0.365800	0.118300	0.358600
C41	C4	0.449900	0.208500	0.308200
C51	C5	0.482500	0.237200	0.237900
H31	H3	0.523800	0.285900	0.235100
C61	C6	0.453400	0.192800	0.170600
H41	H4	0.475900	0.212300	0.123300
C71	C7	0.484400	0.254600	0.381600
C81	C8	0.898800	0.183400	0.118100
C91	C9	0.024200	0.186200	0.160900
H51	H5	0.088100	0.147500	0.153700
C101	C10	0.056200	0.245300	0.214000
H61	H6	0.141400	0.246100	0.241500
C111	C11	0.963000	0.302500	0.226300
C121	C12	0.837900	0.302400	0.182700
H71	H7	0.775300	0.341900	0.189500
C131	C13	0.806400	0.243500	0.129200
H81	H8	0.722500	0.244000	0.100300
C141	C14	0.992800	0.360600	0.289700
Zn31	Zn3	0.937190	0.465980	0.400260
Zn41	Zn4	0.449840	0.607330	0.536800
P31	P3	0.646070	0.561280	0.412330
P41	P4	0.146460	0.602720	0.445800
O111	O11	0.795100	0.541800	0.414200
O121	O12	0.616300	0.611100	0.482500
O131	O13	0.552300	0.490700	0.403200
O141	O14	0.485800	0.826500	0.127300
O151	O15	0.517800	0.724200	0.054700
O161	O16	0.102200	0.528600	0.402200
O171	O17	0.070000	0.613700	0.518300
O181	O18	0.298600	0.606900	0.460500
O191	O19	0.099400	0.911200	0.199300
O201	O20	0.897300	0.857100	0.169900
C151	C15	0.608300	0.620100	0.326500
C161	C16	0.643100	0.592800	0.255500
H91	H9	0.686900	0.544900	0.252300
C171	C17	0.612000	0.637500	0.189000
H101	H10	0.634200	0.618300	0.141400
C181	C18	0.550100	0.708500	0.191800
C191	C19	0.517500	0.737200	0.262100
H111	H11	0.476200	0.785900	0.264900
C201	C20	0.546600	0.692800	0.329400
H121	H12	0.524100	0.712300	0.376700
C211	C21	0.515600	0.754600	0.118400
C221	C22	0.101200	0.683400	0.381900
C231	C23	0.975800	0.686200	0.339100
H131	H13	0.911900	0.647500	0.346300
C241	C24	0.943800	0.745300	0.286000
H141	H14	0.858600	0.746100	0.258500
C251	C25	0.037000	0.802500	0.273700
C261	C26	0.162100	0.802400	0.317300
H151	H15	0.224700	0.841900	0.310500
C271	C27	0.193600	0.743500	0.370800
H161	H16	0.277500	0.744000	0.399700
C281	C28	0.007200	0.860600	0.210300
Zn51	Zn5	0.937190	0.034020	0.900260
Zn61	Zn6	0.449840	0.892670	0.036800
P51	P5	0.646070	0.938720	0.912330
P61	P6	0.146460	0.897280	0.945800
O211	O21	0.795100	0.958200	0.914200
O221	O22	0.616300	0.888900	0.982500
O231	O23	0.552300	0.009300	0.903200
O241	O24	0.485800	0.673500	0.627300
O251	O25	0.517800	0.775800	0.554700
O261	O26	0.102200	0.971400	0.902200
O271	O27	0.070000	0.886300	0.018300
O281	O28	0.298600	0.893100	0.960500
O291	O29	0.099400	0.588800	0.699300
O301	O30	0.897300	0.642900	0.669900
C291	C29	0.608300	0.879900	0.826500
C301	C30	0.643100	0.907200	0.755500
H171	H17	0.686900	0.955100	0.752300
C311	C31	0.612000	0.862500	0.689000
H181	H18	0.634200	0.881700	0.641400
C321	C32	0.550100	0.791500	0.691800
C331	C33	0.517500	0.762800	0.762100
H191	H19	0.476200	0.714100	0.764900
C341	C34	0.546600	0.807200	0.829400
H201	H20	0.524100	0.787700	0.876700
C351	C35	0.515600	0.745400	0.618400
C361	C36	0.101200	0.816600	0.881900
C371	C37	0.975800	0.813800	0.839100
H211	H21	0.911900	0.852500	0.846300
C381	C38	0.943800	0.754700	0.786000
H221	H22	0.858600	0.753900	0.758500
C391	C39	0.037000	0.697500	0.773700
C401	C40	0.162100	0.697600	0.817300
H231	H23	0.224700	0.658100	0.810500
C411	C41	0.193600	0.756500	0.870800
H241	H24	0.277500	0.756000	0.899700
C421	C42	0.007200	0.639400	0.710300
Zn71	Zn7	0.062810	0.534020	0.599740
Zn81	Zn8	0.550160	0.392670	0.463200
P71	P7	0.353930	0.438720	0.587670
P81	P8	0.853540	0.397280	0.554200
O311	O31	0.204900	0.458200	0.585800
O321	O32	0.383700	0.388900	0.517500
O331	O33	0.447700	0.509300	0.596800
O341	O34	0.514200	0.173500	0.872700
O351	O35	0.482200	0.275800	0.945300
O361	O36	0.897800	0.471400	0.597800
O371	O37	0.930000	0.386300	0.481700
O381	O38	0.701400	0.393100	0.539500
O391	O39	0.900600	0.088800	0.800700
O401	O40	0.102700	0.142900	0.830100
C431	C43	0.391700	0.379900	0.673500
C441	C44	0.356900	0.407200	0.744500
H251	H25	0.313100	0.455100	0.747700
C451	C45	0.388000	0.362500	0.811000
H261	H26	0.365800	0.381700	0.858600
C461	C46	0.449900	0.291500	0.808200
C471	C47	0.482500	0.262800	0.737900
H271	H27	0.523800	0.214100	0.735100
C481	C48	0.453400	0.307200	0.670600
H281	H28	0.475900	0.287700	0.623300
C491	C49	0.484400	0.245400	0.881600
C501	C50	0.898800	0.316600	0.618100
C511	C51	0.024200	0.313800	0.660900
H291	H29	0.088100	0.352500	0.653700
C521	C52	0.056200	0.254700	0.714000
H301	H30	0.141400	0.253900	0.741500
C531	C53	0.963000	0.197500	0.726300
C541	C54	0.837900	0.197600	0.682700
H311	H31	0.775300	0.158100	0.689500
C551	C55	0.806400	0.256500	0.629200
H321	H32	0.722500	0.256000	0.600300
C561	C56	0.992800	0.139400	0.789700
