data_XOKHIP_clean_PM
_symmetry_space_group_name_H-M	'P1'
_cell_length_a	12.206900
_cell_length_b	14.481100
_cell_length_c	28.550000
_cell_angle_alpha	90.000000
_cell_angle_beta	90.000000
_cell_angle_gamma	90.000000
_symmetry_Int_Tables_number 1

loop_
_symmetry_equiv_pos_as_xyz
'x,y,z'

loop_
_atom_site_label
_atom_site_type_symbol
_atom_site_fract_x
_atom_site_fract_y
_atom_site_fract_z
Sm11	Sm1	0.387820	0.474300	0.707750
Sm21	Sm2	0.615740	0.493000	0.605080
Sm31	Sm3	0.612180	0.525700	0.207750
Sm41	Sm4	0.384260	0.507000	0.105080
Sm51	Sm5	0.112180	0.974300	0.707750
Sm61	Sm6	0.884260	0.993000	0.605080
Sm71	Sm7	0.887820	0.025700	0.207750
Sm81	Sm8	0.115740	0.007000	0.105080
Zn11	Zn1	0.174690	0.276990	0.766050
Zn21	Zn2	0.668460	0.189260	0.549060
Zn31	Zn3	0.825310	0.723010	0.266050
Zn41	Zn4	0.331540	0.810740	0.049060
Zn51	Zn5	0.325310	0.776990	0.766050
Zn61	Zn6	0.831540	0.689260	0.549060
Zn71	Zn7	0.674690	0.223010	0.266050
Zn81	Zn8	0.168460	0.310740	0.049060
H11	H1	0.941700	0.301700	0.647400
H21	H2	0.929100	0.455900	0.529400
H31	H3	0.192000	0.477500	0.615800
H41	H4	0.207000	0.739500	0.638700
H51	H5	0.176600	0.863500	0.510700
H61	H6	0.420700	0.680400	0.532700
H71	H7	0.703600	0.729400	0.677200
H81	H8	0.938600	0.775600	0.775600
H91	H9	0.699200	0.585100	0.797900
H101	H10	0.242700	0.384500	0.906700
H111	H11	0.513000	0.463000	0.833300
H121	H12	0.509400	0.482600	0.975400
H131	H13	0.055200	0.664500	0.668200
H141	H14	0.079900	0.494500	0.781700
H151	H15	0.817200	0.477100	0.694300
H161	H16	0.058300	0.698300	0.147400
H171	H17	0.070900	0.544100	0.029400
H181	H18	0.808000	0.522500	0.115800
H191	H19	0.793000	0.260500	0.138700
H201	H20	0.823400	0.136500	0.010700
H211	H21	0.579300	0.319600	0.032700
H221	H22	0.296400	0.270600	0.177200
H231	H23	0.061400	0.224400	0.275600
H241	H24	0.300800	0.414900	0.297900
H251	H25	0.757300	0.615500	0.406700
H261	H26	0.487000	0.537000	0.333300
H271	H27	0.490600	0.517400	0.475400
H281	H28	0.944800	0.335500	0.168200
H291	H29	0.920100	0.505500	0.281700
H301	H30	0.182800	0.522900	0.194300
H311	H31	0.558300	0.801700	0.647400
H321	H32	0.570900	0.955900	0.529400
H331	H33	0.308000	0.977500	0.615800
H341	H34	0.293000	0.239500	0.638700
H351	H35	0.323400	0.363500	0.510700
H361	H36	0.079300	0.180400	0.532700
H371	H37	0.796400	0.229400	0.677200
H381	H38	0.561400	0.275600	0.775600
H391	H39	0.800800	0.085100	0.797900
H401	H40	0.257300	0.884500	0.906700
H411	H41	0.987000	0.963000	0.833300
H421	H42	0.990600	0.982600	0.975400
H431	H43	0.444800	0.164500	0.668200
H441	H44	0.420100	0.994500	0.781700
H451	H45	0.682800	0.977100	0.694300
H461	H46	0.441700	0.198300	0.147400
H471	H47	0.429100	0.044100	0.029400
H481	H48	0.692000	0.022500	0.115800
H491	H49	0.707000	0.760500	0.138700
H501	H50	0.676600	0.636500	0.010700
H511	H51	0.920700	0.819600	0.032700
H521	H52	0.203600	0.770600	0.177200
H531	H53	0.438600	0.724400	0.275600
H541	H54	0.199200	0.914900	0.297900
H551	H55	0.742700	0.115500	0.406700
H561	H56	0.013000	0.037000	0.333300
H571	H57	0.009400	0.017400	0.475400
H581	H58	0.555200	0.835500	0.168200
H591	H59	0.579900	0.005500	0.281700
H601	H60	0.317200	0.022900	0.194300
C11	C1	0.075900	0.387000	0.638400
C21	C2	0.973000	0.346600	0.627100
C31	C3	0.918100	0.372600	0.586500
C41	C4	0.966400	0.437300	0.557000
C51	C5	0.067600	0.475000	0.567100
C61	C6	0.123100	0.450600	0.608500
C71	C7	0.133700	0.362400	0.683400
C81	C8	0.807500	0.333700	0.575000
C91	C9	0.320800	0.695000	0.588600
C101	C10	0.230700	0.746900	0.607300
C111	C11	0.179700	0.809000	0.576800
C121	C12	0.214100	0.822300	0.531000
C131	C13	0.303700	0.774100	0.516200
C141	C14	0.357800	0.711700	0.544200
C151	C15	0.084300	0.870400	0.592900
C161	C16	0.376000	0.618200	0.616100
C171	C17	0.687500	0.646900	0.734200
C181	C18	0.734600	0.715700	0.707000
C191	C19	0.824600	0.764600	0.721600
C201	C20	0.876300	0.742400	0.765000
C211	C21	0.831900	0.670200	0.791100
C221	C22	0.734000	0.627600	0.777400
C231	C23	0.589100	0.594800	0.720200
C241	C24	0.873000	0.845400	0.695900
C251	C25	0.368700	0.431900	0.948500
C261	C26	0.315500	0.407700	0.906100
C271	C27	0.369300	0.417700	0.863800
C281	C28	0.475300	0.455200	0.862100
C291	C29	0.523000	0.480600	0.904800
C301	C30	0.472500	0.467300	0.947200
C311	C31	0.314700	0.419400	0.995700
C321	C32	0.317500	0.391500	0.817200
C331	C33	0.932900	0.571200	0.674200
C341	C34	0.027800	0.614700	0.686400
C351	C35	0.084600	0.584200	0.726500
C361	C36	0.041400	0.515900	0.754900
C371	C37	0.941100	0.480100	0.743000
C381	C38	0.885200	0.504800	0.702300
C391	C39	0.876300	0.597700	0.630100
C401	C40	0.191800	0.628800	0.741500
C411	C41	0.924100	0.613000	0.138400
C421	C42	0.027000	0.653400	0.127100
C431	C43	0.081900	0.627400	0.086500
C441	C44	0.033600	0.562700	0.057000
C451	C45	0.932400	0.525000	0.067100
C461	C46	0.876900	0.549400	0.108500
C471	C47	0.866300	0.637600	0.183400
C481	C48	0.192500	0.666300	0.075000
C491	C49	0.679200	0.305000	0.088600
C501	C50	0.769300	0.253100	0.107300
C511	C51	0.820300	0.191000	0.076800
C521	C52	0.785900	0.177700	0.031000
C531	C53	0.696300	0.225900	0.016200
C541	C54	0.642200	0.288300	0.044200
C551	C55	0.915700	0.129600	0.092900
C561	C56	0.624000	0.381800	0.116100
C571	C57	0.312500	0.353100	0.234200
C581	C58	0.265400	0.284300	0.207000
C591	C59	0.175400	0.235400	0.221600
C601	C60	0.123700	0.257600	0.265000
C611	C61	0.168100	0.329800	0.291100
C621	C62	0.266000	0.372400	0.277400
C631	C63	0.410900	0.405200	0.220200
C641	C64	0.127000	0.154600	0.195900
C651	C65	0.631300	0.568100	0.448500
C661	C66	0.684500	0.592300	0.406100
C671	C67	0.630700	0.582300	0.363800
C681	C68	0.524700	0.544800	0.362100
C691	C69	0.477000	0.519400	0.404800
C701	C70	0.527500	0.532700	0.447200
C711	C71	0.685300	0.580600	0.495700
C721	C72	0.682500	0.608500	0.317200
C731	C73	0.067100	0.428800	0.174200
C741	C74	0.972200	0.385300	0.186400
C751	C75	0.915400	0.415800	0.226500
C761	C76	0.958600	0.484100	0.254900
C771	C77	0.058900	0.519900	0.243000
C781	C78	0.114800	0.495200	0.202300
C791	C79	0.123700	0.402300	0.130100
C801	C80	0.808200	0.371200	0.241500
C811	C81	0.424100	0.887000	0.638400
C821	C82	0.527000	0.846600	0.627100
C831	C83	0.581900	0.872600	0.586500
C841	C84	0.533600	0.937300	0.557000
C851	C85	0.432400	0.975000	0.567100
C861	C86	0.376900	0.950600	0.608500
C871	C87	0.366300	0.862400	0.683400
C881	C88	0.692500	0.833700	0.575000
C891	C89	0.179200	0.195000	0.588600
C901	C90	0.269300	0.246900	0.607300
C911	C91	0.320300	0.309000	0.576800
C921	C92	0.285900	0.322300	0.531000
C931	C93	0.196300	0.274100	0.516200
C941	C94	0.142200	0.211700	0.544200
C951	C95	0.415700	0.370400	0.592900
C961	C96	0.124000	0.118200	0.616100
C971	C97	0.812500	0.146900	0.734200
C981	C98	0.765400	0.215700	0.707000
C991	C99	0.675400	0.264600	0.721600
C1001	C100	0.623700	0.242400	0.765000
C1011	C101	0.668100	0.170200	0.791100
C1021	C102	0.766000	0.127600	0.777400
C1031	C103	0.910900	0.094800	0.720200
C1041	C104	0.627000	0.345400	0.695900
C1051	C105	0.131300	0.931900	0.948500
C1061	C106	0.184500	0.907700	0.906100
C1071	C107	0.130700	0.917700	0.863800
C1081	C108	0.024700	0.955200	0.862100
C1091	C109	0.977000	0.980600	0.904800
C1101	C110	0.027500	0.967300	0.947200
C1111	C111	0.185300	0.919400	0.995700
C1121	C112	0.182500	0.891500	0.817200
C1131	C113	0.567100	0.071200	0.674200
C1141	C114	0.472200	0.114700	0.686400
C1151	C115	0.415400	0.084200	0.726500
C1161	C116	0.458600	0.015900	0.754900
C1171	C117	0.558900	0.980100	0.743000
C1181	C118	0.614800	0.004800	0.702300
C1191	C119	0.623700	0.097700	0.630100
C1201	C120	0.308200	0.128800	0.741500
C1211	C121	0.575900	0.113000	0.138400
C1221	C122	0.473000	0.153400	0.127100
C1231	C123	0.418100	0.127400	0.086500
C1241	C124	0.466400	0.062700	0.057000
C1251	C125	0.567600	0.025000	0.067100
C1261	C126	0.623100	0.049400	0.108500
C1271	C127	0.633700	0.137600	0.183400
C1281	C128	0.307500	0.166300	0.075000
C1291	C129	0.820800	0.805000	0.088600
C1301	C130	0.730700	0.753100	0.107300
C1311	C131	0.679700	0.691000	0.076800
C1321	C132	0.714100	0.677700	0.031000
C1331	C133	0.803700	0.725900	0.016200
C1341	C134	0.857800	0.788300	0.044200
C1351	C135	0.584300	0.629600	0.092900
C1361	C136	0.876000	0.881800	0.116100
C1371	C137	0.187500	0.853100	0.234200
C1381	C138	0.234600	0.784300	0.207000
C1391	C139	0.324600	0.735400	0.221600
C1401	C140	0.376300	0.757600	0.265000
C1411	C141	0.331900	0.829800	0.291100
C1421	C142	0.234000	0.872400	0.277400
C1431	C143	0.089100	0.905200	0.220200
C1441	C144	0.373000	0.654600	0.195900
C1451	C145	0.868700	0.068100	0.448500
C1461	C146	0.815500	0.092300	0.406100
C1471	C147	0.869300	0.082300	0.363800
C1481	C148	0.975300	0.044800	0.362100
C1491	C149	0.023000	0.019400	0.404800
C1501	C150	0.972500	0.032700	0.447200
C1511	C151	0.814700	0.080600	0.495700
C1521	C152	0.817500	0.108500	0.317200
C1531	C153	0.432900	0.928800	0.174200
C1541	C154	0.527800	0.885300	0.186400
C1551	C155	0.584600	0.915800	0.226500
C1561	C156	0.541400	0.984100	0.254900
C1571	C157	0.441100	0.019900	0.243000
C1581	C158	0.385200	0.995200	0.202300
C1591	C159	0.376300	0.902300	0.130100
C1601	C160	0.691800	0.871200	0.241500
Br11	Br1	0.132680	0.557470	0.524710
Br21	Br2	0.354000	0.790120	0.453410
Br31	Br3	0.906570	0.633300	0.845950
Br41	Br4	0.669500	0.526420	0.902760
Br51	Br5	0.876180	0.391190	0.783880
Br61	Br6	0.867320	0.442530	0.024710
Br71	Br7	0.646000	0.209880	0.953410
Br81	Br8	0.093430	0.366700	0.345950
Br91	Br9	0.330500	0.473580	0.402760
Br101	Br10	0.123820	0.608810	0.283880
Br111	Br11	0.367320	0.057470	0.524710
Br121	Br12	0.146000	0.290120	0.453410
Br131	Br13	0.593430	0.133300	0.845950
Br141	Br14	0.830500	0.026420	0.902760
Br151	Br15	0.623820	0.891190	0.783880
Br161	Br16	0.632680	0.942530	0.024710
Br171	Br17	0.854000	0.709880	0.953410
Br181	Br18	0.406570	0.866700	0.345950
Br191	Br19	0.169500	0.973580	0.402760
Br201	Br20	0.376180	0.108810	0.283880
O11	O1	0.221600	0.401600	0.692600
O21	O2	0.086200	0.305800	0.710400
O31	O3	0.802700	0.245600	0.573600
O41	O4	0.731700	0.387600	0.563400
O51	O5	0.334000	0.595100	0.655100
O61	O6	0.457300	0.585900	0.598400
O71	O7	0.080000	0.898100	0.635300
O81	O8	0.012800	0.891600	0.563300
O91	O9	0.519600	0.572900	0.751100
O101	O10	0.577400	0.569000	0.678200
O111	O11	0.829700	0.872200	0.658100
O121	O12	0.957600	0.883200	0.715300
O131	O13	0.367000	0.440300	0.030600
O141	O14	0.218600	0.383600	0.995300
O151	O15	0.221200	0.353500	0.819400
O161	O16	0.368600	0.405000	0.781600
O171	O17	0.783800	0.562000	0.620700
O181	O18	0.923000	0.657200	0.603000
O191	O19	0.194100	0.714100	0.741900
O201	O20	0.272000	0.578700	0.751600
O211	O21	0.778400	0.598400	0.192600
O221	O22	0.913800	0.694200	0.210400
O231	O23	0.197300	0.754400	0.073600
O241	O24	0.268300	0.612400	0.063400
O251	O25	0.666000	0.404900	0.155100
O261	O26	0.542700	0.414100	0.098400
O271	O27	0.920000	0.101900	0.135300
O281	O28	0.987200	0.108400	0.063300
O291	O29	0.480400	0.427100	0.251100
O301	O30	0.422600	0.431000	0.178200
O311	O31	0.170300	0.127800	0.158100
O321	O32	0.042400	0.116800	0.215300
O331	O33	0.633000	0.559700	0.530600
O341	O34	0.781400	0.616400	0.495300
O351	O35	0.778800	0.646500	0.319400
O361	O36	0.631400	0.595000	0.281600
O371	O37	0.216200	0.438000	0.120700
O381	O38	0.077000	0.342800	0.103000
O391	O39	0.805900	0.285900	0.241900
O401	O40	0.728000	0.421300	0.251600
O411	O41	0.278400	0.901600	0.692600
O421	O42	0.413800	0.805800	0.710400
O431	O43	0.697300	0.745600	0.573600
O441	O44	0.768300	0.887600	0.563400
O451	O45	0.166000	0.095100	0.655100
O461	O46	0.042700	0.085900	0.598400
O471	O47	0.420000	0.398100	0.635300
O481	O48	0.487200	0.391600	0.563300
O491	O49	0.980400	0.072900	0.751100
O501	O50	0.922600	0.069000	0.678200
O511	O51	0.670300	0.372200	0.658100
O521	O52	0.542400	0.383200	0.715300
O531	O53	0.133000	0.940300	0.030600
O541	O54	0.281400	0.883600	0.995300
O551	O55	0.278800	0.853500	0.819400
O561	O56	0.131400	0.905000	0.781600
O571	O57	0.716200	0.062000	0.620700
O581	O58	0.577000	0.157200	0.603000
O591	O59	0.305900	0.214100	0.741900
O601	O60	0.228000	0.078700	0.751600
O611	O61	0.721600	0.098400	0.192600
O621	O62	0.586200	0.194200	0.210400
O631	O63	0.302700	0.254400	0.073600
O641	O64	0.231700	0.112400	0.063400
O651	O65	0.834000	0.904900	0.155100
O661	O66	0.957300	0.914100	0.098400
O671	O67	0.580000	0.601900	0.135300
O681	O68	0.512800	0.608400	0.063300
O691	O69	0.019600	0.927100	0.251100
O701	O70	0.077400	0.931000	0.178200
O711	O71	0.329700	0.627800	0.158100
O721	O72	0.457600	0.616800	0.215300
O731	O73	0.867000	0.059700	0.530600
O741	O74	0.718600	0.116400	0.495300
O751	O75	0.721200	0.146500	0.319400
O761	O76	0.868600	0.095000	0.281600
O771	O77	0.283800	0.938000	0.120700
O781	O78	0.423000	0.842800	0.103000
O791	O79	0.694100	0.785900	0.241900
O801	O80	0.772000	0.921300	0.251600
