data_XOLGEM_clean_PM
_symmetry_space_group_name_H-M	'P1'
_cell_length_a	17.697200
_cell_length_b	17.697200
_cell_length_c	76.397000
_cell_angle_alpha	90.000000
_cell_angle_beta	90.000000
_cell_angle_gamma	120.000000
_symmetry_Int_Tables_number 1

loop_
_symmetry_equiv_pos_as_xyz
'x,y,z'

loop_
_atom_site_label
_atom_site_type_symbol
_atom_site_fract_x
_atom_site_fract_y
_atom_site_fract_z
C11	C1	0.861100	0.835300	0.420610
C21	C2	0.829900	0.858900	0.436920
C31	C3	0.756300	0.821900	0.447370
C41	C4	0.668600	0.740400	0.448180
C51	C5	0.569400	0.739500	0.505450
C61	C6	0.651100	0.732900	0.506760
C71	C7	0.688400	0.696300	0.516860
C81	C8	0.663800	0.637700	0.532630
Co11	Co1	0.672040	0.839910	0.477170
N11	N1	0.884100	0.936400	0.443890
N21	N2	0.849400	0.951500	0.457890
N31	N3	0.771700	0.882300	0.459810
N41	N4	0.711300	0.776600	0.493660
N51	N5	0.779100	0.766300	0.495520
N61	N6	0.766400	0.719100	0.509380
O11	O1	0.937500	0.893000	0.416120
O21	O2	0.814400	0.766100	0.413090
O31	O3	0.647000	0.682200	0.436920
O41	O4	0.620700	0.736600	0.460830
O51	O5	0.566200	0.781700	0.492500
O61	O6	0.512600	0.703800	0.516420
O71	O7	0.593800	0.613300	0.539970
O81	O8	0.721500	0.618600	0.537100
C91	C9	0.527770	0.168630	0.753940
C101	C10	0.496570	0.192230	0.770250
C111	C11	0.422970	0.155230	0.780700
C121	C12	0.335270	0.073730	0.781510
C131	C13	0.236070	0.072830	0.838780
C141	C14	0.317770	0.066230	0.840090
C151	C15	0.355070	0.029630	0.850190
C161	C16	0.330470	0.971030	0.865960
Co21	Co2	0.338710	0.173240	0.810510
N71	N7	0.550770	0.269730	0.777220
N81	N8	0.516070	0.284830	0.791220
N91	N9	0.438370	0.215630	0.793140
N101	N10	0.377970	0.109930	0.826990
N111	N11	0.445770	0.099630	0.828850
N121	N12	0.433070	0.052430	0.842710
O91	O9	0.604170	0.226330	0.749450
O101	O10	0.481070	0.099430	0.746420
O111	O11	0.313670	0.015530	0.770250
O121	O12	0.287370	0.069930	0.794160
O131	O13	0.232870	0.115030	0.825830
O141	O14	0.179270	0.037130	0.849750
O151	O15	0.260470	0.946630	0.873300
O161	O16	0.388170	0.951930	0.870430
C171	C17	0.194430	0.501970	0.087280
C181	C18	0.163230	0.525570	0.103590
C191	C19	0.089630	0.488570	0.114040
C201	C20	0.001930	0.407070	0.114850
C211	C21	0.902730	0.406170	0.172120
C221	C22	0.984430	0.399570	0.173430
C231	C23	0.021730	0.362970	0.183530
C241	C24	0.997130	0.304370	0.199300
Co31	Co3	0.005370	0.506580	0.143840
N131	N13	0.217430	0.603070	0.110560
N141	N14	0.182730	0.618170	0.124560
N151	N15	0.105030	0.548970	0.126480
N161	N16	0.044630	0.443270	0.160330
N171	N17	0.112430	0.432970	0.162190
N181	N18	0.099730	0.385770	0.176050
O171	O17	0.270830	0.559670	0.082790
O181	O18	0.147730	0.432770	0.079760
O191	O19	0.980330	0.348870	0.103590
O201	O20	0.954030	0.403270	0.127500
O211	O21	0.899530	0.448370	0.159170
O221	O22	0.845930	0.370470	0.183090
O231	O23	0.927130	0.279970	0.206640
O241	O24	0.054830	0.285270	0.203770
C251	C25	0.164700	0.025800	0.420610
C261	C26	0.141100	0.971000	0.436920
C271	C27	0.178100	0.934400	0.447370
C281	C28	0.259600	0.928200	0.448180
C291	C29	0.260500	0.829900	0.505450
C301	C30	0.267100	0.918200	0.506760
C311	C31	0.303700	0.992100	0.516860
C321	C32	0.362300	0.026100	0.532630
Co41	Co4	0.160090	0.832130	0.477170
N191	N19	0.063600	0.947700	0.443890
N201	N20	0.048500	0.897900	0.457890
N211	N21	0.117700	0.889400	0.459810
N221	N22	0.223400	0.934700	0.493660
N231	N23	0.233700	0.012800	0.495520
N241	N24	0.280900	0.047300	0.509380
O251	O25	0.107000	0.044500	0.416120
O261	O26	0.233900	0.048300	0.413090
O271	O27	0.317800	0.964800	0.436920
O281	O28	0.263400	0.884100	0.460830
O291	O29	0.218300	0.784500	0.492500
O301	O30	0.296200	0.808800	0.516420
O311	O31	0.386700	0.980500	0.539970
O321	O32	0.381400	0.102900	0.537100
C331	C33	0.831370	0.359130	0.753940
C341	C34	0.807770	0.304330	0.770250
C351	C35	0.844770	0.267730	0.780700
C361	C36	0.926270	0.261530	0.781510
C371	C37	0.927170	0.163230	0.838780
C381	C38	0.933770	0.251530	0.840090
C391	C39	0.970370	0.325430	0.850190
C401	C40	0.028970	0.359430	0.865960
Co51	Co5	0.826760	0.165460	0.810510
N251	N25	0.730270	0.281030	0.777220
N261	N26	0.715170	0.231230	0.791220
N271	N27	0.784370	0.222730	0.793140
N281	N28	0.890070	0.268030	0.826990
N291	N29	0.900370	0.346130	0.828850
N301	N30	0.947570	0.380630	0.842710
O331	O33	0.773670	0.377830	0.749450
O341	O34	0.900570	0.381630	0.746420
O351	O35	0.984470	0.298130	0.770250
O361	O36	0.930070	0.217430	0.794160
O371	O37	0.884970	0.117830	0.825830
O381	O38	0.962870	0.142130	0.849750
O391	O39	0.053370	0.313830	0.873300
O401	O40	0.048070	0.436230	0.870430
C411	C41	0.498030	0.692470	0.087280
C421	C42	0.474430	0.637670	0.103590
C431	C43	0.511430	0.601070	0.114040
C441	C44	0.592930	0.594870	0.114850
C451	C45	0.593830	0.496570	0.172120
C461	C46	0.600430	0.584870	0.173430
C471	C47	0.637030	0.658770	0.183530
C481	C48	0.695630	0.692770	0.199300
Co61	Co6	0.493420	0.498800	0.143840
N311	N31	0.396930	0.614370	0.110560
N321	N32	0.381830	0.564570	0.124560
N331	N33	0.451030	0.556070	0.126480
N341	N34	0.556730	0.601370	0.160330
N351	N35	0.567030	0.679470	0.162190
N361	N36	0.614230	0.713970	0.176050
O411	O41	0.440330	0.711170	0.082790
O421	O42	0.567230	0.714970	0.079760
O431	O43	0.651130	0.631470	0.103590
O441	O44	0.596730	0.550770	0.127500
O451	O45	0.551630	0.451170	0.159170
O461	O46	0.629530	0.475470	0.183090
O471	O47	0.720030	0.647170	0.206640
O481	O48	0.714730	0.769570	0.203770
C491	C49	0.974200	0.138900	0.420610
C501	C50	0.029000	0.170100	0.436920
C511	C51	0.065600	0.243700	0.447370
C521	C52	0.071800	0.331400	0.448180
C531	C53	0.170100	0.430600	0.505450
C541	C54	0.081800	0.348900	0.506760
C551	C55	0.007900	0.311600	0.516860
C561	C56	0.973900	0.336200	0.532630
Co71	Co7	0.167870	0.327960	0.477170
N371	N37	0.052300	0.115900	0.443890
N381	N38	0.102100	0.150600	0.457890
N391	N39	0.110600	0.228300	0.459810
N401	N40	0.065300	0.288700	0.493660
N411	N41	0.987200	0.220900	0.495520
N421	N42	0.952700	0.233600	0.509380
O491	O49	0.955500	0.062500	0.416120
O501	O50	0.951700	0.185600	0.413090
O511	O51	0.035200	0.353000	0.436920
O521	O52	0.115900	0.379300	0.460830
O531	O53	0.215500	0.433800	0.492500
O541	O54	0.191200	0.487400	0.516420
O551	O55	0.019500	0.406200	0.539970
O561	O56	0.897100	0.278500	0.537100
C571	C57	0.640870	0.472230	0.753940
C581	C58	0.695670	0.503430	0.770250
C591	C59	0.732270	0.577030	0.780700
C601	C60	0.738470	0.664730	0.781510
C611	C61	0.836770	0.763930	0.838780
C621	C62	0.748470	0.682230	0.840090
C631	C63	0.674570	0.644930	0.850190
C641	C64	0.640570	0.669530	0.865960
Co81	Co8	0.834540	0.661290	0.810510
N431	N43	0.718970	0.449230	0.777220
N441	N44	0.768770	0.483930	0.791220
N451	N45	0.777270	0.561630	0.793140
N461	N46	0.731970	0.622030	0.826990
N471	N47	0.653870	0.554230	0.828850
N481	N48	0.619370	0.566930	0.842710
O571	O57	0.622170	0.395830	0.749450
O581	O58	0.618370	0.518930	0.746420
O591	O59	0.701870	0.686330	0.770250
O601	O60	0.782570	0.712630	0.794160
O611	O61	0.882170	0.767130	0.825830
O621	O62	0.857870	0.820730	0.849750
O631	O63	0.686170	0.739530	0.873300
O641	O64	0.563770	0.611830	0.870430
C651	C65	0.307530	0.805570	0.087280
C661	C66	0.362330	0.836770	0.103590
C671	C67	0.398930	0.910370	0.114040
C681	C68	0.405130	0.998070	0.114850
C691	C69	0.503430	0.097270	0.172120
C701	C70	0.415130	0.015570	0.173430
C711	C71	0.341230	0.978270	0.183530
C721	C72	0.307230	0.002870	0.199300
Co91	Co9	0.501200	0.994630	0.143840
N491	N49	0.385630	0.782570	0.110560
N501	N50	0.435430	0.817270	0.124560
N511	N51	0.443930	0.894970	0.126480
N521	N52	0.398630	0.955370	0.160330
N531	N53	0.320530	0.887570	0.162190
N541	N54	0.286030	0.900270	0.176050
O651	O65	0.288830	0.729170	0.082790
O661	O66	0.285030	0.852270	0.079760
O671	O67	0.368530	0.019670	0.103590
O681	O68	0.449230	0.045970	0.127500
O691	O69	0.548830	0.100470	0.159170
O701	O70	0.524530	0.154070	0.183090
O711	O71	0.352830	0.072870	0.206640
O721	O72	0.230430	0.945170	0.203770
C731	C73	0.835300	0.861100	0.079390
C741	C74	0.858900	0.829900	0.063080
C751	C75	0.821900	0.756300	0.052630
C761	C76	0.740400	0.668600	0.051820
C771	C77	0.739500	0.569400	0.994550
C781	C78	0.732900	0.651100	0.993240
C791	C79	0.696300	0.688400	0.983140
C801	C80	0.637700	0.663800	0.967370
Co101	Co10	0.839910	0.672040	0.022830
N551	N55	0.936400	0.884100	0.056110
N561	N56	0.951500	0.849400	0.042110
N571	N57	0.882300	0.771700	0.040190
N581	N58	0.776600	0.711300	0.006340
N591	N59	0.766300	0.779100	0.004480
N601	N60	0.719100	0.766400	0.990620
O731	O73	0.893000	0.937500	0.083880
O741	O74	0.766100	0.814400	0.086910
O751	O75	0.682200	0.647000	0.063080
O761	O76	0.736600	0.620700	0.039170
O771	O77	0.781700	0.566200	0.007500
O781	O78	0.703800	0.512600	0.983580
O791	O79	0.613300	0.593800	0.960030
O801	O80	0.618600	0.721500	0.962900
C811	C81	0.501970	0.194430	0.412720
C821	C82	0.525570	0.163230	0.396410
C831	C83	0.488570	0.089630	0.385960
C841	C84	0.407070	0.001930	0.385150
C851	C85	0.406170	0.902730	0.327880
C861	C86	0.399570	0.984430	0.326570
C871	C87	0.362970	0.021730	0.316470
C881	C88	0.304370	0.997130	0.300700
Co111	Co11	0.506580	0.005370	0.356160
N611	N61	0.603070	0.217430	0.389440
N621	N62	0.618170	0.182730	0.375440
N631	N63	0.548970	0.105030	0.373520
N641	N64	0.443270	0.044630	0.339670
N651	N65	0.432970	0.112430	0.337810
N661	N66	0.385770	0.099730	0.323950
O811	O81	0.559670	0.270830	0.417210
O821	O82	0.432770	0.147730	0.420240
O831	O83	0.348870	0.980330	0.396410
O841	O84	0.403270	0.954030	0.372500
O851	O85	0.448370	0.899530	0.340830
O861	O86	0.370470	0.845930	0.316910
O871	O87	0.279970	0.927130	0.293360
O881	O88	0.285270	0.054830	0.296230
C891	C89	0.168630	0.527770	0.746060
C901	C90	0.192230	0.496570	0.729750
C911	C91	0.155230	0.422970	0.719300
C921	C92	0.073730	0.335270	0.718490
C931	C93	0.072830	0.236070	0.661220
C941	C94	0.066230	0.317770	0.659910
C951	C95	0.029630	0.355070	0.649810
C961	C96	0.971030	0.330470	0.634040
Co121	Co12	0.173240	0.338710	0.689490
N671	N67	0.269730	0.550770	0.722780
N681	N68	0.284830	0.516070	0.708780
N691	N69	0.215630	0.438370	0.706860
N701	N70	0.109930	0.377970	0.673010
N711	N71	0.099630	0.445770	0.671150
N721	N72	0.052430	0.433070	0.657290
O891	O89	0.226330	0.604170	0.750550
O901	O90	0.099430	0.481070	0.753580
O911	O91	0.015530	0.313670	0.729750
O921	O92	0.069930	0.287370	0.705840
O931	O93	0.115030	0.232870	0.674170
O941	O94	0.037130	0.179270	0.650250
O951	O95	0.946630	0.260470	0.626700
O961	O96	0.951930	0.388170	0.629570
C971	C97	0.025800	0.164700	0.079390
C981	C98	0.971000	0.141100	0.063080
C991	C99	0.934400	0.178100	0.052630
C1001	C100	0.928200	0.259600	0.051820
C1011	C101	0.829900	0.260500	0.994550
C1021	C102	0.918200	0.267100	0.993240
C1031	C103	0.992100	0.303700	0.983140
C1041	C104	0.026100	0.362300	0.967370
Co131	Co13	0.832130	0.160090	0.022830
N731	N73	0.947700	0.063600	0.056110
N741	N74	0.897900	0.048500	0.042110
N751	N75	0.889400	0.117700	0.040190
N761	N76	0.934700	0.223400	0.006340
N771	N77	0.012800	0.233700	0.004480
N781	N78	0.047300	0.280900	0.990620
O971	O97	0.044500	0.107000	0.083880
O981	O98	0.048300	0.233900	0.086910
O991	O99	0.964800	0.317800	0.063080
O1001	O100	0.884100	0.263400	0.039170
O1011	O101	0.784500	0.218300	0.007500
O1021	O102	0.808800	0.296200	0.983580
O1031	O103	0.980500	0.386700	0.960030
O1041	O104	0.102900	0.381400	0.962900
C1051	C105	0.692470	0.498030	0.412720
C1061	C106	0.637670	0.474430	0.396410
C1071	C107	0.601070	0.511430	0.385960
C1081	C108	0.594870	0.592930	0.385150
C1091	C109	0.496570	0.593830	0.327880
C1101	C110	0.584870	0.600430	0.326570
C1111	C111	0.658770	0.637030	0.316470
C1121	C112	0.692770	0.695630	0.300700
Co141	Co14	0.498800	0.493420	0.356160
N791	N79	0.614370	0.396930	0.389440
N801	N80	0.564570	0.381830	0.375440
N811	N81	0.556070	0.451030	0.373520
N821	N82	0.601370	0.556730	0.339670
N831	N83	0.679470	0.567030	0.337810
N841	N84	0.713970	0.614230	0.323950
O1051	O105	0.711170	0.440330	0.417210
O1061	O106	0.714970	0.567230	0.420240
O1071	O107	0.631470	0.651130	0.396410
O1081	O108	0.550770	0.596730	0.372500
O1091	O109	0.451170	0.551630	0.340830
O1101	O110	0.475470	0.629530	0.316910
O1111	O111	0.647170	0.720030	0.293360
O1121	O112	0.769570	0.714730	0.296230
C1131	C113	0.359130	0.831370	0.746060
C1141	C114	0.304330	0.807770	0.729750
C1151	C115	0.267730	0.844770	0.719300
C1161	C116	0.261530	0.926270	0.718490
C1171	C117	0.163230	0.927170	0.661220
C1181	C118	0.251530	0.933770	0.659910
C1191	C119	0.325430	0.970370	0.649810
C1201	C120	0.359430	0.028970	0.634040
Co151	Co15	0.165460	0.826760	0.689490
N851	N85	0.281030	0.730270	0.722780
N861	N86	0.231230	0.715170	0.708780
N871	N87	0.222730	0.784370	0.706860
N881	N88	0.268030	0.890070	0.673010
N891	N89	0.346130	0.900370	0.671150
N901	N90	0.380630	0.947570	0.657290
O1131	O113	0.377830	0.773670	0.750550
O1141	O114	0.381630	0.900570	0.753580
O1151	O115	0.298130	0.984470	0.729750
O1161	O116	0.217430	0.930070	0.705840
O1171	O117	0.117830	0.884970	0.674170
O1181	O118	0.142130	0.962870	0.650250
O1191	O119	0.313830	0.053370	0.626700
O1201	O120	0.436230	0.048070	0.629570
C1211	C121	0.138900	0.974200	0.079390
C1221	C122	0.170100	0.029000	0.063080
C1231	C123	0.243700	0.065600	0.052630
C1241	C124	0.331400	0.071800	0.051820
C1251	C125	0.430600	0.170100	0.994550
C1261	C126	0.348900	0.081800	0.993240
C1271	C127	0.311600	0.007900	0.983140
C1281	C128	0.336200	0.973900	0.967370
Co161	Co16	0.327960	0.167870	0.022830
N911	N91	0.115900	0.052300	0.056110
N921	N92	0.150600	0.102100	0.042110
N931	N93	0.228300	0.110600	0.040190
N941	N94	0.288700	0.065300	0.006340
N951	N95	0.220900	0.987200	0.004480
N961	N96	0.233600	0.952700	0.990620
O1211	O121	0.062500	0.955500	0.083880
O1221	O122	0.185600	0.951700	0.086910
O1231	O123	0.353000	0.035200	0.063080
O1241	O124	0.379300	0.115900	0.039170
O1251	O125	0.433800	0.215500	0.007500
O1261	O126	0.487400	0.191200	0.983580
O1271	O127	0.406200	0.019500	0.960030
O1281	O128	0.278500	0.897100	0.962900
C1291	C129	0.805570	0.307530	0.412720
C1301	C130	0.836770	0.362330	0.396410
C1311	C131	0.910370	0.398930	0.385960
C1321	C132	0.998070	0.405130	0.385150
C1331	C133	0.097270	0.503430	0.327880
C1341	C134	0.015570	0.415130	0.326570
C1351	C135	0.978270	0.341230	0.316470
C1361	C136	0.002870	0.307230	0.300700
Co171	Co17	0.994630	0.501200	0.356160
N971	N97	0.782570	0.385630	0.389440
N981	N98	0.817270	0.435430	0.375440
N991	N99	0.894970	0.443930	0.373520
N1001	N100	0.955370	0.398630	0.339670
N1011	N101	0.887570	0.320530	0.337810
N1021	N102	0.900270	0.286030	0.323950
O1291	O129	0.729170	0.288830	0.417210
O1301	O130	0.852270	0.285030	0.420240
O1311	O131	0.019670	0.368530	0.396410
O1321	O132	0.045970	0.449230	0.372500
O1331	O133	0.100470	0.548830	0.340830
O1341	O134	0.154070	0.524530	0.316910
O1351	O135	0.072870	0.352830	0.293360
O1361	O136	0.945170	0.230430	0.296230
C1371	C137	0.472230	0.640870	0.746060
C1381	C138	0.503430	0.695670	0.729750
C1391	C139	0.577030	0.732270	0.719300
C1401	C140	0.664730	0.738470	0.718490
C1411	C141	0.763930	0.836770	0.661220
C1421	C142	0.682230	0.748470	0.659910
C1431	C143	0.644930	0.674570	0.649810
C1441	C144	0.669530	0.640570	0.634040
Co181	Co18	0.661290	0.834540	0.689490
N1031	N103	0.449230	0.718970	0.722780
N1041	N104	0.483930	0.768770	0.708780
N1051	N105	0.561630	0.777270	0.706860
N1061	N106	0.622030	0.731970	0.673010
N1071	N107	0.554230	0.653870	0.671150
N1081	N108	0.566930	0.619370	0.657290
O1371	O137	0.395830	0.622170	0.750550
O1381	O138	0.518930	0.618370	0.753580
O1391	O139	0.686330	0.701870	0.729750
O1401	O140	0.712630	0.782570	0.705840
O1411	O141	0.767130	0.882170	0.674170
O1421	O142	0.820730	0.857870	0.650250
O1431	O143	0.739530	0.686170	0.626700
O1441	O144	0.611830	0.563770	0.629570
C1451	C145	0.138900	0.164700	0.579390
C1461	C146	0.170100	0.141100	0.563080
C1471	C147	0.243700	0.178100	0.552630
C1481	C148	0.331400	0.259600	0.551820
C1491	C149	0.430600	0.260500	0.494550
C1501	C150	0.348900	0.267100	0.493240
C1511	C151	0.311600	0.303700	0.483140
C1521	C152	0.336200	0.362300	0.467370
Co191	Co19	0.327960	0.160090	0.522830
N1091	N109	0.115900	0.063600	0.556110
N1101	N110	0.150600	0.048500	0.542110
N1111	N111	0.228300	0.117700	0.540190
N1121	N112	0.288700	0.223400	0.506340
N1131	N113	0.220900	0.233700	0.504480
N1141	N114	0.233600	0.280900	0.490620
O1451	O145	0.062500	0.107000	0.583880
O1461	O146	0.185600	0.233900	0.586910
O1471	O147	0.353000	0.317800	0.563080
O1481	O148	0.379300	0.263400	0.539170
O1491	O149	0.433800	0.218300	0.507500
O1501	O150	0.487400	0.296200	0.483580
O1511	O151	0.406200	0.386700	0.460030
O1521	O152	0.278500	0.381400	0.462900
C1531	C153	0.805570	0.498030	0.912720
C1541	C154	0.836770	0.474430	0.896410
C1551	C155	0.910370	0.511430	0.885960
C1561	C156	0.998070	0.592930	0.885150
C1571	C157	0.097270	0.593830	0.827880
C1581	C158	0.015570	0.600430	0.826570
C1591	C159	0.978270	0.637030	0.816470
C1601	C160	0.002870	0.695630	0.800700
Co201	Co20	0.994630	0.493420	0.856160
N1151	N115	0.782570	0.396930	0.889440
N1161	N116	0.817270	0.381830	0.875440
N1171	N117	0.894970	0.451030	0.873520
N1181	N118	0.955370	0.556730	0.839670
N1191	N119	0.887570	0.567030	0.837810
N1201	N120	0.900270	0.614230	0.823950
O1531	O153	0.729170	0.440330	0.917210
O1541	O154	0.852270	0.567230	0.920240
O1551	O155	0.019670	0.651130	0.896410
O1561	O156	0.045970	0.596730	0.872500
O1571	O157	0.100470	0.551630	0.840830
O1581	O158	0.154070	0.629530	0.816910
O1591	O159	0.072870	0.720030	0.793360
O1601	O160	0.945170	0.714730	0.796230
C1611	C161	0.472230	0.831370	0.246060
C1621	C162	0.503430	0.807770	0.229750
C1631	C163	0.577030	0.844770	0.219300
C1641	C164	0.664730	0.926270	0.218490
C1651	C165	0.763930	0.927170	0.161220
C1661	C166	0.682230	0.933770	0.159910
C1671	C167	0.644930	0.970370	0.149810
C1681	C168	0.669530	0.028970	0.134040
Co211	Co21	0.661290	0.826760	0.189490
N1211	N121	0.449230	0.730270	0.222780
N1221	N122	0.483930	0.715170	0.208780
N1231	N123	0.561630	0.784370	0.206860
N1241	N124	0.622030	0.890070	0.173010
N1251	N125	0.554230	0.900370	0.171150
N1261	N126	0.566930	0.947570	0.157290
O1611	O161	0.395830	0.773670	0.250550
O1621	O162	0.518930	0.900570	0.253580
O1631	O163	0.686330	0.984470	0.229750
O1641	O164	0.712630	0.930070	0.205840
O1651	O165	0.767130	0.884970	0.174170
O1661	O166	0.820730	0.962870	0.150250
O1671	O167	0.739530	0.053370	0.126700
O1681	O168	0.611830	0.048070	0.129570
C1691	C169	0.835300	0.974200	0.579390
C1701	C170	0.858900	0.029000	0.563080
C1711	C171	0.821900	0.065600	0.552630
C1721	C172	0.740400	0.071800	0.551820
C1731	C173	0.739500	0.170100	0.494550
C1741	C174	0.732900	0.081800	0.493240
C1751	C175	0.696300	0.007900	0.483140
C1761	C176	0.637700	0.973900	0.467370
Co221	Co22	0.839910	0.167870	0.522830
N1271	N127	0.936400	0.052300	0.556110
N1281	N128	0.951500	0.102100	0.542110
N1291	N129	0.882300	0.110600	0.540190
N1301	N130	0.776600	0.065300	0.506340
N1311	N131	0.766300	0.987200	0.504480
N1321	N132	0.719100	0.952700	0.490620
O1691	O169	0.893000	0.955500	0.583880
O1701	O170	0.766100	0.951700	0.586910
O1711	O171	0.682200	0.035200	0.563080
O1721	O172	0.736600	0.115900	0.539170
O1731	O173	0.781700	0.215500	0.507500
O1741	O174	0.703800	0.191200	0.483580
O1751	O175	0.613300	0.019500	0.460030
O1761	O176	0.618600	0.897100	0.462900
C1771	C177	0.501970	0.307530	0.912720
C1781	C178	0.525570	0.362330	0.896410
C1791	C179	0.488570	0.398930	0.885960
C1801	C180	0.407070	0.405130	0.885150
C1811	C181	0.406170	0.503430	0.827880
C1821	C182	0.399570	0.415130	0.826570
C1831	C183	0.362970	0.341230	0.816470
C1841	C184	0.304370	0.307230	0.800700
Co231	Co23	0.506580	0.501200	0.856160
N1331	N133	0.603070	0.385630	0.889440
N1341	N134	0.618170	0.435430	0.875440
N1351	N135	0.548970	0.443930	0.873520
N1361	N136	0.443270	0.398630	0.839670
N1371	N137	0.432970	0.320530	0.837810
N1381	N138	0.385770	0.286030	0.823950
O1771	O177	0.559670	0.288830	0.917210
O1781	O178	0.432770	0.285030	0.920240
O1791	O179	0.348870	0.368530	0.896410
O1801	O180	0.403270	0.449230	0.872500
O1811	O181	0.448370	0.548830	0.840830
O1821	O182	0.370470	0.524530	0.816910
O1831	O183	0.279970	0.352830	0.793360
O1841	O184	0.285270	0.230430	0.796230
C1851	C185	0.168630	0.640870	0.246060
C1861	C186	0.192230	0.695670	0.229750
C1871	C187	0.155230	0.732270	0.219300
C1881	C188	0.073730	0.738470	0.218490
C1891	C189	0.072830	0.836770	0.161220
C1901	C190	0.066230	0.748470	0.159910
C1911	C191	0.029630	0.674570	0.149810
C1921	C192	0.971030	0.640570	0.134040
Co241	Co24	0.173240	0.834540	0.189490
N1391	N139	0.269730	0.718970	0.222780
N1401	N140	0.284830	0.768770	0.208780
N1411	N141	0.215630	0.777270	0.206860
N1421	N142	0.109930	0.731970	0.173010
N1431	N143	0.099630	0.653870	0.171150
N1441	N144	0.052430	0.619370	0.157290
O1851	O185	0.226330	0.622170	0.250550
O1861	O186	0.099430	0.618370	0.253580
O1871	O187	0.015530	0.701870	0.229750
O1881	O188	0.069930	0.782570	0.205840
O1891	O189	0.115030	0.882170	0.174170
O1901	O190	0.037130	0.857870	0.150250
O1911	O191	0.946630	0.686170	0.126700
O1921	O192	0.951930	0.563770	0.129570
C1931	C193	0.025800	0.861100	0.579390
C1941	C194	0.971000	0.829900	0.563080
C1951	C195	0.934400	0.756300	0.552630
C1961	C196	0.928200	0.668600	0.551820
C1971	C197	0.829900	0.569400	0.494550
C1981	C198	0.918200	0.651100	0.493240
C1991	C199	0.992100	0.688400	0.483140
C2001	C200	0.026100	0.663800	0.467370
Co251	Co25	0.832130	0.672040	0.522830
N1451	N145	0.947700	0.884100	0.556110
N1461	N146	0.897900	0.849400	0.542110
N1471	N147	0.889400	0.771700	0.540190
N1481	N148	0.934700	0.711300	0.506340
N1491	N149	0.012800	0.779100	0.504480
N1501	N150	0.047300	0.766400	0.490620
O1931	O193	0.044500	0.937500	0.583880
O1941	O194	0.048300	0.814400	0.586910
O1951	O195	0.964800	0.647000	0.563080
O1961	O196	0.884100	0.620700	0.539170
O1971	O197	0.784500	0.566200	0.507500
O1981	O198	0.808800	0.512600	0.483580
O1991	O199	0.980500	0.593800	0.460030
O2001	O200	0.102900	0.721500	0.462900
C2011	C201	0.692470	0.194430	0.912720
C2021	C202	0.637670	0.163230	0.896410
C2031	C203	0.601070	0.089630	0.885960
C2041	C204	0.594870	0.001930	0.885150
C2051	C205	0.496570	0.902730	0.827880
C2061	C206	0.584870	0.984430	0.826570
C2071	C207	0.658770	0.021730	0.816470
C2081	C208	0.692770	0.997130	0.800700
Co261	Co26	0.498800	0.005370	0.856160
N1511	N151	0.614370	0.217430	0.889440
N1521	N152	0.564570	0.182730	0.875440
N1531	N153	0.556070	0.105030	0.873520
N1541	N154	0.601370	0.044630	0.839670
N1551	N155	0.679470	0.112430	0.837810
N1561	N156	0.713970	0.099730	0.823950
O2011	O201	0.711170	0.270830	0.917210
O2021	O202	0.714970	0.147730	0.920240
O2031	O203	0.631470	0.980330	0.896410
O2041	O204	0.550770	0.954030	0.872500
O2051	O205	0.451170	0.899530	0.840830
O2061	O206	0.475470	0.845930	0.816910
O2071	O207	0.647170	0.927130	0.793360
O2081	O208	0.769570	0.054830	0.796230
C2091	C209	0.359130	0.527770	0.246060
C2101	C210	0.304330	0.496570	0.229750
C2111	C211	0.267730	0.422970	0.219300
C2121	C212	0.261530	0.335270	0.218490
C2131	C213	0.163230	0.236070	0.161220
C2141	C214	0.251530	0.317770	0.159910
C2151	C215	0.325430	0.355070	0.149810
C2161	C216	0.359430	0.330470	0.134040
Co271	Co27	0.165460	0.338710	0.189490
N1571	N157	0.281030	0.550770	0.222780
N1581	N158	0.231230	0.516070	0.208780
N1591	N159	0.222730	0.438370	0.206860
N1601	N160	0.268030	0.377970	0.173010
N1611	N161	0.346130	0.445770	0.171150
N1621	N162	0.380630	0.433070	0.157290
O2091	O209	0.377830	0.604170	0.250550
O2101	O210	0.381630	0.481070	0.253580
O2111	O211	0.298130	0.313670	0.229750
O2121	O212	0.217430	0.287370	0.205840
O2131	O213	0.117830	0.232870	0.174170
O2141	O214	0.142130	0.179270	0.150250
O2151	O215	0.313830	0.260470	0.126700
O2161	O216	0.436230	0.388170	0.129570
C2171	C217	0.164700	0.138900	0.920610
C2181	C218	0.141100	0.170100	0.936920
C2191	C219	0.178100	0.243700	0.947370
C2201	C220	0.259600	0.331400	0.948180
C2211	C221	0.260500	0.430600	0.005450
C2221	C222	0.267100	0.348900	0.006760
C2231	C223	0.303700	0.311600	0.016860
C2241	C224	0.362300	0.336200	0.032630
Co281	Co28	0.160090	0.327960	0.977170
N1631	N163	0.063600	0.115900	0.943890
N1641	N164	0.048500	0.150600	0.957890
N1651	N165	0.117700	0.228300	0.959810
N1661	N166	0.223400	0.288700	0.993660
N1671	N167	0.233700	0.220900	0.995520
N1681	N168	0.280900	0.233600	0.009380
O2171	O217	0.107000	0.062500	0.916120
O2181	O218	0.233900	0.185600	0.913090
O2191	O219	0.317800	0.353000	0.936920
O2201	O220	0.263400	0.379300	0.960830
O2211	O221	0.218300	0.433800	0.992500
O2221	O222	0.296200	0.487400	0.016420
O2231	O223	0.386700	0.406200	0.039970
O2241	O224	0.381400	0.278500	0.037100
C2251	C225	0.831370	0.472230	0.253940
C2261	C226	0.807770	0.503430	0.270250
C2271	C227	0.844770	0.577030	0.280700
C2281	C228	0.926270	0.664730	0.281510
C2291	C229	0.927170	0.763930	0.338780
C2301	C230	0.933770	0.682230	0.340090
C2311	C231	0.970370	0.644930	0.350190
C2321	C232	0.028970	0.669530	0.365960
Co291	Co29	0.826760	0.661290	0.310510
N1691	N169	0.730270	0.449230	0.277220
N1701	N170	0.715170	0.483930	0.291220
N1711	N171	0.784370	0.561630	0.293140
N1721	N172	0.890070	0.622030	0.326990
N1731	N173	0.900370	0.554230	0.328850
N1741	N174	0.947570	0.566930	0.342710
O2251	O225	0.773670	0.395830	0.249450
O2261	O226	0.900570	0.518930	0.246420
O2271	O227	0.984470	0.686330	0.270250
O2281	O228	0.930070	0.712630	0.294160
O2291	O229	0.884970	0.767130	0.325830
O2301	O230	0.962870	0.820730	0.349750
O2311	O231	0.053370	0.739530	0.373300
O2321	O232	0.048070	0.611830	0.370430
C2331	C233	0.498030	0.805570	0.587280
C2341	C234	0.474430	0.836770	0.603590
C2351	C235	0.511430	0.910370	0.614040
C2361	C236	0.592930	0.998070	0.614850
C2371	C237	0.593830	0.097270	0.672120
C2381	C238	0.600430	0.015570	0.673430
C2391	C239	0.637030	0.978270	0.683530
C2401	C240	0.695630	0.002870	0.699300
Co301	Co30	0.493420	0.994630	0.643840
N1751	N175	0.396930	0.782570	0.610560
N1761	N176	0.381830	0.817270	0.624560
N1771	N177	0.451030	0.894970	0.626480
N1781	N178	0.556730	0.955370	0.660330
N1791	N179	0.567030	0.887570	0.662190
N1801	N180	0.614230	0.900270	0.676050
O2331	O233	0.440330	0.729170	0.582790
O2341	O234	0.567230	0.852270	0.579760
O2351	O235	0.651130	0.019670	0.603590
O2361	O236	0.596730	0.045970	0.627500
O2371	O237	0.551630	0.100470	0.659170
O2381	O238	0.629530	0.154070	0.683090
O2391	O239	0.720030	0.072870	0.706640
O2401	O240	0.714730	0.945170	0.703770
C2411	C241	0.974200	0.835300	0.920610
C2421	C242	0.029000	0.858900	0.936920
C2431	C243	0.065600	0.821900	0.947370
C2441	C244	0.071800	0.740400	0.948180
C2451	C245	0.170100	0.739500	0.005450
C2461	C246	0.081800	0.732900	0.006760
C2471	C247	0.007900	0.696300	0.016860
C2481	C248	0.973900	0.637700	0.032630
Co311	Co31	0.167870	0.839910	0.977170
N1811	N181	0.052300	0.936400	0.943890
N1821	N182	0.102100	0.951500	0.957890
N1831	N183	0.110600	0.882300	0.959810
N1841	N184	0.065300	0.776600	0.993660
N1851	N185	0.987200	0.766300	0.995520
N1861	N186	0.952700	0.719100	0.009380
O2411	O241	0.955500	0.893000	0.916120
O2421	O242	0.951700	0.766100	0.913090
O2431	O243	0.035200	0.682200	0.936920
O2441	O244	0.115900	0.736600	0.960830
O2451	O245	0.215500	0.781700	0.992500
O2461	O246	0.191200	0.703800	0.016420
O2471	O247	0.019500	0.613300	0.039970
O2481	O248	0.897100	0.618600	0.037100
C2491	C249	0.640870	0.168630	0.253940
C2501	C250	0.695670	0.192230	0.270250
C2511	C251	0.732270	0.155230	0.280700
C2521	C252	0.738470	0.073730	0.281510
C2531	C253	0.836770	0.072830	0.338780
C2541	C254	0.748470	0.066230	0.340090
C2551	C255	0.674570	0.029630	0.350190
C2561	C256	0.640570	0.971030	0.365960
Co321	Co32	0.834540	0.173240	0.310510
N1871	N187	0.718970	0.269730	0.277220
N1881	N188	0.768770	0.284830	0.291220
N1891	N189	0.777270	0.215630	0.293140
N1901	N190	0.731970	0.109930	0.326990
N1911	N191	0.653870	0.099630	0.328850
N1921	N192	0.619370	0.052430	0.342710
O2491	O249	0.622170	0.226330	0.249450
O2501	O250	0.618370	0.099430	0.246420
O2511	O251	0.701870	0.015530	0.270250
O2521	O252	0.782570	0.069930	0.294160
O2531	O253	0.882170	0.115030	0.325830
O2541	O254	0.857870	0.037130	0.349750
O2551	O255	0.686170	0.946630	0.373300
O2561	O256	0.563770	0.951930	0.370430
C2571	C257	0.307530	0.501970	0.587280
C2581	C258	0.362330	0.525570	0.603590
C2591	C259	0.398930	0.488570	0.614040
C2601	C260	0.405130	0.407070	0.614850
C2611	C261	0.503430	0.406170	0.672120
C2621	C262	0.415130	0.399570	0.673430
C2631	C263	0.341230	0.362970	0.683530
C2641	C264	0.307230	0.304370	0.699300
Co331	Co33	0.501200	0.506580	0.643840
N1931	N193	0.385630	0.603070	0.610560
N1941	N194	0.435430	0.618170	0.624560
N1951	N195	0.443930	0.548970	0.626480
N1961	N196	0.398630	0.443270	0.660330
N1971	N197	0.320530	0.432970	0.662190
N1981	N198	0.286030	0.385770	0.676050
O2571	O257	0.288830	0.559670	0.582790
O2581	O258	0.285030	0.432770	0.579760
O2591	O259	0.368530	0.348870	0.603590
O2601	O260	0.449230	0.403270	0.627500
O2611	O261	0.548830	0.448370	0.659170
O2621	O262	0.524530	0.370470	0.683090
O2631	O263	0.352830	0.279970	0.706640
O2641	O264	0.230430	0.285270	0.703770
C2651	C265	0.861100	0.025800	0.920610
C2661	C266	0.829900	0.971000	0.936920
C2671	C267	0.756300	0.934400	0.947370
C2681	C268	0.668600	0.928200	0.948180
C2691	C269	0.569400	0.829900	0.005450
C2701	C270	0.651100	0.918200	0.006760
C2711	C271	0.688400	0.992100	0.016860
C2721	C272	0.663800	0.026100	0.032630
Co341	Co34	0.672040	0.832130	0.977170
N1991	N199	0.884100	0.947700	0.943890
N2001	N200	0.849400	0.897900	0.957890
N2011	N201	0.771700	0.889400	0.959810
N2021	N202	0.711300	0.934700	0.993660
N2031	N203	0.779100	0.012800	0.995520
N2041	N204	0.766400	0.047300	0.009380
O2651	O265	0.937500	0.044500	0.916120
O2661	O266	0.814400	0.048300	0.913090
O2671	O267	0.647000	0.964800	0.936920
O2681	O268	0.620700	0.884100	0.960830
O2691	O269	0.566200	0.784500	0.992500
O2701	O270	0.512600	0.808800	0.016420
O2711	O271	0.593800	0.980500	0.039970
O2721	O272	0.721500	0.102900	0.037100
C2731	C273	0.527770	0.359130	0.253940
C2741	C274	0.496570	0.304330	0.270250
C2751	C275	0.422970	0.267730	0.280700
C2761	C276	0.335270	0.261530	0.281510
C2771	C277	0.236070	0.163230	0.338780
C2781	C278	0.317770	0.251530	0.340090
C2791	C279	0.355070	0.325430	0.350190
C2801	C280	0.330470	0.359430	0.365960
Co351	Co35	0.338710	0.165460	0.310510
N2051	N205	0.550770	0.281030	0.277220
N2061	N206	0.516070	0.231230	0.291220
N2071	N207	0.438370	0.222730	0.293140
N2081	N208	0.377970	0.268030	0.326990
N2091	N209	0.445770	0.346130	0.328850
N2101	N210	0.433070	0.380630	0.342710
O2731	O273	0.604170	0.377830	0.249450
O2741	O274	0.481070	0.381630	0.246420
O2751	O275	0.313670	0.298130	0.270250
O2761	O276	0.287370	0.217430	0.294160
O2771	O277	0.232870	0.117830	0.325830
O2781	O278	0.179270	0.142130	0.349750
O2791	O279	0.260470	0.313830	0.373300
O2801	O280	0.388170	0.436230	0.370430
C2811	C281	0.194430	0.692470	0.587280
C2821	C282	0.163230	0.637670	0.603590
C2831	C283	0.089630	0.601070	0.614040
C2841	C284	0.001930	0.594870	0.614850
C2851	C285	0.902730	0.496570	0.672120
C2861	C286	0.984430	0.584870	0.673430
C2871	C287	0.021730	0.658770	0.683530
C2881	C288	0.997130	0.692770	0.699300
Co361	Co36	0.005370	0.498800	0.643840
N2111	N211	0.217430	0.614370	0.610560
N2121	N212	0.182730	0.564570	0.624560
N2131	N213	0.105030	0.556070	0.626480
N2141	N214	0.044630	0.601370	0.660330
N2151	N215	0.112430	0.679470	0.662190
N2161	N216	0.099730	0.713970	0.676050
O2811	O281	0.270830	0.711170	0.582790
O2821	O282	0.147730	0.714970	0.579760
O2831	O283	0.980330	0.631470	0.603590
O2841	O284	0.954030	0.550770	0.627500
O2851	O285	0.899530	0.451170	0.659170
O2861	O286	0.845930	0.475470	0.683090
O2871	O287	0.927130	0.647170	0.706640
O2881	O288	0.054830	0.769570	0.703770
Co371	Co37	0.000000	0.000000	0.431200
Co381	Co38	0.666670	0.333330	0.764530
Co391	Co39	0.333330	0.666670	0.097860
Co401	Co40	0.000000	0.000000	0.068800
Co411	Co41	0.666670	0.333330	0.402140
Co421	Co42	0.333330	0.666670	0.735470
Co431	Co43	0.000000	0.000000	0.568800
Co441	Co44	0.666670	0.333330	0.902140
Co451	Co45	0.333330	0.666670	0.235470
Co461	Co46	0.000000	0.000000	0.931200
Co471	Co47	0.666670	0.333330	0.264530
Co481	Co48	0.333330	0.666670	0.597860
Li11	Li1	0.701180	0.666670	0.416670
Li21	Li2	0.367850	0.000000	0.750000
Li31	Li3	0.333330	0.034520	0.416670
Li41	Li4	0.000000	0.367850	0.750000
Li51	Li5	0.965480	0.298820	0.416670
Li61	Li6	0.632150	0.632150	0.750000
Li71	Li7	0.666670	0.701180	0.083330
Li81	Li8	0.034520	0.333330	0.083330
Li91	Li9	0.298820	0.965480	0.083330
Li101	Li10	0.298820	0.333330	0.583330
Li111	Li11	0.666670	0.965480	0.583330
Li121	Li12	0.034520	0.701180	0.583330
Li131	Li13	0.333330	0.298820	0.916670
Li141	Li14	0.000000	0.632150	0.250000
Li151	Li15	0.965480	0.666670	0.916670
Li161	Li16	0.632150	0.000000	0.250000
Li171	Li17	0.701180	0.034520	0.916670
Li181	Li18	0.367850	0.367850	0.250000
