data_XOMCOT_clean_PM
_symmetry_space_group_name_H-M	'P1'
_cell_length_a	20.365000
_cell_length_b	20.119000
_cell_length_c	17.311000
_cell_angle_alpha	90.000000
_cell_angle_beta	103.166000
_cell_angle_gamma	90.000000
_symmetry_Int_Tables_number 1

loop_
_symmetry_equiv_pos_as_xyz
'x,y,z'

loop_
_atom_site_label
_atom_site_type_symbol
_atom_site_fract_x
_atom_site_fract_y
_atom_site_fract_z
Co11	Co1	0.875100	0.135500	0.263280
Co21	Co2	0.384090	0.128160	0.255810
C11	C1	0.877800	0.208800	0.423300
H11	H1	0.840200	0.233900	0.400000
C21	C2	0.913400	0.215800	0.499700
H21	H2	0.905100	0.245600	0.537500
C31	C3	0.957090	0.138440	0.438400
H31	H3	0.986000	0.105500	0.428300
C41	C4	0.016460	0.159680	0.578400
C51	C5	0.040180	0.214390	0.626000
H41	H4	0.022900	0.256600	0.611900
C61	C6	0.089270	0.205180	0.693700
H51	H5	0.104800	0.241700	0.725500
C71	C7	0.116660	0.142980	0.716500
C81	C8	0.091960	0.088930	0.667400
H61	H6	0.109600	0.046700	0.680500
C91	C9	0.041900	0.097770	0.600200
H71	H7	0.025000	0.061200	0.569100
C101	C10	0.170160	0.135570	0.790400
C111	C11	0.217520	0.186000	0.813200
H81	H8	0.215800	0.223500	0.781400
C121	C12	0.266600	0.181140	0.881900
H91	H9	0.298000	0.215100	0.896100
C131	C13	0.269510	0.126100	0.930100
C141	C14	0.223800	0.075210	0.907600
H101	H10	0.226200	0.037500	0.939200
C151	C15	0.174340	0.080000	0.838300
H111	H11	0.143600	0.045500	0.823800
C161	C16	0.311950	0.114640	0.075300
H121	H12	0.270600	0.104700	0.086800
C171	C17	0.415700	0.138000	0.087900
H131	H13	0.460900	0.146800	0.110300
C181	C18	0.387300	0.139500	0.009400
H141	H14	0.408700	0.149600	0.968800
C191	C19	0.795400	0.136300	0.086000
H151	H15	0.759300	0.157600	0.100000
C201	C20	0.888600	0.092500	0.094100
H161	H16	0.932400	0.077500	0.113800
C211	C21	0.855600	0.088600	0.018300
H171	H17	0.871200	0.068700	0.977300
C221	C22	0.743340	0.124680	0.941300
C231	C23	0.718900	0.185600	0.911900
H181	H18	0.735300	0.224200	0.939100
C241	C24	0.670100	0.189500	0.842600
H191	H19	0.653300	0.230800	0.823800
C251	C25	0.645470	0.132380	0.799700
C261	C26	0.669700	0.072300	0.831000
H201	H20	0.652400	0.033400	0.805200
C271	C27	0.719400	0.068300	0.900400
H211	H21	0.736500	0.027100	0.919200
C281	C28	0.594170	0.135770	0.723200
C291	C29	0.549600	0.189300	0.704600
H221	H22	0.552900	0.224300	0.740300
C301	C30	0.501300	0.191600	0.635300
H231	H23	0.471800	0.227500	0.624500
C311	C31	0.496540	0.140020	0.581300
C321	C32	0.539000	0.086100	0.598000
H241	H24	0.535000	0.051000	0.562300
C331	C33	0.587700	0.084900	0.668400
H251	H25	0.616900	0.048700	0.679100
C341	C34	0.379800	0.162400	0.498500
H261	H26	0.358600	0.176800	0.537700
C351	C35	0.352000	0.157200	0.420900
H271	H27	0.307300	0.167200	0.397400
C361	C36	0.454030	0.126410	0.436300
H281	H28	0.494400	0.111000	0.426400
C371	C37	0.511500	0.090300	0.269100
C381	C38	0.575890	0.052250	0.271300
C391	C39	0.636920	0.085300	0.275500
H291	H29	0.638100	0.131500	0.277800
C401	C40	0.760820	0.085190	0.275000
C411	C41	0.696070	0.050140	0.276400
C421	C42	0.693090	0.981130	0.273000
H301	H30	0.732300	0.957100	0.274400
C431	C43	0.632890	0.947380	0.267690
C441	C44	0.574730	0.983570	0.266700
H311	H31	0.534100	0.961200	0.262900
C451	C45	0.630110	0.873510	0.262300
C461	C46	0.675730	0.833270	0.313300
H321	H32	0.709900	0.852200	0.351900
C471	C47	0.670260	0.765570	0.306700
H331	H33	0.701500	0.739800	0.341500
C481	C48	0.578420	0.773060	0.202600
H341	H34	0.545300	0.752900	0.163700
C491	C49	0.580410	0.841120	0.206600
H351	H35	0.548100	0.865900	0.171700
C501	C50	0.246790	0.100470	0.247000
C511	C51	0.187460	0.061670	0.260990
C521	C52	0.188590	0.992260	0.266480
H361	H36	0.228000	0.969600	0.264700
C531	C53	0.132280	0.956500	0.274490
C541	C54	0.074020	0.991800	0.278860
H371	H37	0.036100	0.968800	0.285600
C551	C55	0.071910	0.060830	0.273270
C561	C56	0.007250	0.099210	0.270900
C571	C57	0.129030	0.094860	0.265060
H381	H38	0.128000	0.141000	0.262200
C581	C58	0.132950	0.882870	0.274000
C591	C59	0.189800	0.846080	0.276800
H391	H39	0.231000	0.867700	0.282400
C601	C60	0.187700	0.778360	0.271600
H401	H40	0.228200	0.755800	0.275900
C611	C61	0.077380	0.778120	0.261400
H411	H41	0.037000	0.755300	0.257200
C621	C62	0.075680	0.846310	0.267900
H421	H42	0.035200	0.867500	0.268100
N11	N1	0.904680	0.160270	0.385840
N21	N2	0.964090	0.169330	0.508870
N31	N3	0.320610	0.123230	0.001500
N41	N4	0.368570	0.121870	0.129830
N51	N5	0.850640	0.120670	0.137100
N61	N6	0.795450	0.118910	0.011980
N71	N7	0.445930	0.142460	0.508900
N81	N8	0.398760	0.134820	0.380840
N91	N9	0.622290	0.734180	0.252680
N101	N10	0.131480	0.742640	0.260730
O11	O1	0.458350	0.057630	0.264190
O21	O2	0.511870	0.151240	0.271900
O31	O3	0.760350	0.146350	0.264230
O41	O4	0.813660	0.052740	0.282710
O51	O5	0.302320	0.069870	0.256370
O61	O6	0.238600	0.158850	0.226600
O71	O7	0.955510	0.068290	0.276580
O81	O8	0.007970	0.159590	0.262300
Co31	Co3	0.124900	0.635500	0.236720
Co41	Co4	0.615910	0.628160	0.244190
C631	C63	0.122200	0.708800	0.076700
H431	H43	0.159800	0.733900	0.100000
C641	C64	0.086600	0.715800	0.000300
H441	H44	0.094900	0.745600	0.962500
C651	C65	0.042910	0.638440	0.061600
H451	H45	0.014000	0.605500	0.071700
C661	C66	0.983540	0.659680	0.921600
C671	C67	0.959820	0.714390	0.874000
H461	H46	0.977100	0.756600	0.888100
C681	C68	0.910730	0.705180	0.806300
H471	H47	0.895200	0.741700	0.774500
C691	C69	0.883340	0.642980	0.783500
C701	C70	0.908040	0.588930	0.832600
H481	H48	0.890400	0.546700	0.819500
C711	C71	0.958100	0.597770	0.899800
H491	H49	0.975000	0.561200	0.930900
C721	C72	0.829840	0.635570	0.709600
C731	C73	0.782480	0.686000	0.686800
H501	H50	0.784200	0.723500	0.718600
C741	C74	0.733400	0.681140	0.618100
H511	H51	0.702000	0.715100	0.603900
C751	C75	0.730490	0.626100	0.569900
C761	C76	0.776200	0.575210	0.592400
H521	H52	0.773800	0.537500	0.560800
C771	C77	0.825660	0.580000	0.661700
H531	H53	0.856400	0.545500	0.676200
C781	C78	0.688050	0.614640	0.424700
H541	H54	0.729400	0.604700	0.413200
C791	C79	0.584300	0.638000	0.412100
H551	H55	0.539100	0.646800	0.389700
C801	C80	0.612700	0.639500	0.490600
H561	H56	0.591300	0.649600	0.531200
C811	C81	0.204600	0.636300	0.414000
H571	H57	0.240700	0.657600	0.400000
C821	C82	0.111400	0.592500	0.405900
H581	H58	0.067600	0.577500	0.386200
C831	C83	0.144400	0.588600	0.481700
H591	H59	0.128800	0.568700	0.522700
C841	C84	0.256660	0.624680	0.558700
C851	C85	0.281100	0.685600	0.588100
H601	H60	0.264700	0.724200	0.560900
C861	C86	0.329900	0.689500	0.657400
H611	H61	0.346700	0.730800	0.676200
C871	C87	0.354530	0.632380	0.700300
C881	C88	0.330300	0.572300	0.669000
H621	H62	0.347600	0.533400	0.694800
C891	C89	0.280600	0.568300	0.599600
H631	H63	0.263500	0.527100	0.580800
C901	C90	0.405830	0.635770	0.776800
C911	C91	0.450400	0.689300	0.795400
H641	H64	0.447100	0.724300	0.759700
C921	C92	0.498700	0.691600	0.864700
H651	H65	0.528200	0.727500	0.875500
C931	C93	0.503460	0.640020	0.918700
C941	C94	0.461000	0.586100	0.902000
H661	H66	0.465000	0.551000	0.937700
C951	C95	0.412300	0.584900	0.831600
H671	H67	0.383100	0.548700	0.820900
C961	C96	0.620200	0.662400	0.001500
H681	H68	0.641400	0.676800	0.962300
C971	C97	0.648000	0.657200	0.079100
H691	H69	0.692700	0.667200	0.102600
C981	C98	0.545970	0.626410	0.063700
H701	H70	0.505600	0.611000	0.073600
C991	C99	0.488500	0.590300	0.230900
C1001	C100	0.424110	0.552250	0.228700
C1011	C101	0.363080	0.585300	0.224500
H711	H71	0.361900	0.631500	0.222200
C1021	C102	0.239180	0.585190	0.225000
C1031	C103	0.303930	0.550140	0.223600
C1041	C104	0.306910	0.481130	0.227000
H721	H72	0.267700	0.457100	0.225600
C1051	C105	0.367110	0.447380	0.232310
C1061	C106	0.425270	0.483570	0.233300
H731	H73	0.465900	0.461200	0.237100
C1071	C107	0.369890	0.373510	0.237700
C1081	C108	0.324270	0.333270	0.186700
H741	H74	0.290100	0.352200	0.148100
C1091	C109	0.329740	0.265570	0.193300
H751	H75	0.298500	0.239800	0.158500
C1101	C110	0.421580	0.273060	0.297400
H761	H76	0.454700	0.252900	0.336300
C1111	C111	0.419590	0.341120	0.293400
H771	H77	0.451900	0.365900	0.328300
C1121	C112	0.753210	0.600470	0.253000
C1131	C113	0.812540	0.561670	0.239010
C1141	C114	0.811410	0.492260	0.233520
H781	H78	0.772000	0.469600	0.235300
C1151	C115	0.867720	0.456500	0.225510
C1161	C116	0.925980	0.491800	0.221140
H791	H79	0.963900	0.468800	0.214400
C1171	C117	0.928090	0.560830	0.226730
C1181	C118	0.992750	0.599210	0.229100
C1191	C119	0.870970	0.594860	0.234940
H801	H80	0.872000	0.641000	0.237800
C1201	C120	0.867050	0.382870	0.226000
C1211	C121	0.810200	0.346080	0.223200
H811	H81	0.769000	0.367700	0.217600
C1221	C122	0.812300	0.278360	0.228400
H821	H82	0.771800	0.255800	0.224100
C1231	C123	0.922620	0.278120	0.238600
H831	H83	0.963000	0.255300	0.242800
C1241	C124	0.924320	0.346310	0.232100
H841	H84	0.964800	0.367500	0.231900
N111	N11	0.095320	0.660270	0.114160
N121	N12	0.035910	0.669330	0.991130
N131	N13	0.679390	0.623230	0.498500
N141	N14	0.631430	0.621870	0.370170
N151	N15	0.149360	0.620670	0.362900
N161	N16	0.204550	0.618910	0.488020
N171	N17	0.554070	0.642460	0.991100
N181	N18	0.601240	0.634820	0.119160
N191	N19	0.377710	0.234180	0.247320
N201	N20	0.868520	0.242640	0.239270
O91	O9	0.541650	0.557630	0.235810
O101	O10	0.488130	0.651240	0.228100
O111	O11	0.239650	0.646350	0.235770
O121	O12	0.186340	0.552740	0.217290
O131	O13	0.697680	0.569870	0.243630
O141	O14	0.761400	0.658850	0.273400
O151	O15	0.044490	0.568290	0.223420
O161	O16	0.992030	0.659590	0.237700
Co51	Co5	0.124900	0.864500	0.736720
Co61	Co6	0.615910	0.871840	0.744190
C1251	C125	0.122200	0.791200	0.576700
H851	H85	0.159800	0.766100	0.600000
C1261	C126	0.086600	0.784200	0.500300
H861	H86	0.094900	0.754400	0.462500
C1271	C127	0.042910	0.861560	0.561600
H871	H87	0.014000	0.894500	0.571700
C1281	C128	0.983540	0.840320	0.421600
C1291	C129	0.959820	0.785610	0.374000
H881	H88	0.977100	0.743400	0.388100
C1301	C130	0.910730	0.794820	0.306300
H891	H89	0.895200	0.758300	0.274500
C1311	C131	0.883340	0.857020	0.283500
C1321	C132	0.908040	0.911070	0.332600
H901	H90	0.890400	0.953300	0.319500
C1331	C133	0.958100	0.902230	0.399800
H911	H91	0.975000	0.938800	0.430900
C1341	C134	0.829840	0.864430	0.209600
C1351	C135	0.782480	0.814000	0.186800
H921	H92	0.784200	0.776500	0.218600
C1361	C136	0.733400	0.818860	0.118100
H931	H93	0.702000	0.784900	0.103900
C1371	C137	0.730490	0.873900	0.069900
C1381	C138	0.776200	0.924790	0.092400
H941	H94	0.773800	0.962500	0.060800
C1391	C139	0.825660	0.920000	0.161700
H951	H95	0.856400	0.954500	0.176200
C1401	C140	0.688050	0.885360	0.924700
H961	H96	0.729400	0.895300	0.913200
C1411	C141	0.584300	0.862000	0.912100
H971	H97	0.539100	0.853200	0.889700
C1421	C142	0.612700	0.860500	0.990600
H981	H98	0.591300	0.850400	0.031200
C1431	C143	0.204600	0.863700	0.914000
H991	H99	0.240700	0.842400	0.900000
C1441	C144	0.111400	0.907500	0.905900
H1001	H100	0.067600	0.922500	0.886200
C1451	C145	0.144400	0.911400	0.981700
H1011	H101	0.128800	0.931300	0.022700
C1461	C146	0.256660	0.875320	0.058700
C1471	C147	0.281100	0.814400	0.088100
H1021	H102	0.264700	0.775800	0.060900
C1481	C148	0.329900	0.810500	0.157400
H1031	H103	0.346700	0.769200	0.176200
C1491	C149	0.354530	0.867620	0.200300
C1501	C150	0.330300	0.927700	0.169000
H1041	H104	0.347600	0.966600	0.194800
C1511	C151	0.280600	0.931700	0.099600
H1051	H105	0.263500	0.972900	0.080800
C1521	C152	0.405830	0.864230	0.276800
C1531	C153	0.450400	0.810700	0.295400
H1061	H106	0.447100	0.775700	0.259700
C1541	C154	0.498700	0.808400	0.364700
H1071	H107	0.528200	0.772500	0.375500
C1551	C155	0.503460	0.859980	0.418700
C1561	C156	0.461000	0.913900	0.402000
H1081	H108	0.465000	0.949000	0.437700
C1571	C157	0.412300	0.915100	0.331600
H1091	H109	0.383100	0.951300	0.320900
C1581	C158	0.620200	0.837600	0.501500
H1101	H110	0.641400	0.823200	0.462300
C1591	C159	0.648000	0.842800	0.579100
H1111	H111	0.692700	0.832800	0.602600
C1601	C160	0.545970	0.873590	0.563700
H1121	H112	0.505600	0.889000	0.573600
C1611	C161	0.488500	0.909700	0.730900
C1621	C162	0.424110	0.947750	0.728700
C1631	C163	0.363080	0.914700	0.724500
H1131	H113	0.361900	0.868500	0.722200
C1641	C164	0.239180	0.914810	0.725000
C1651	C165	0.303930	0.949860	0.723600
C1661	C166	0.306910	0.018870	0.727000
H1141	H114	0.267700	0.042900	0.725600
C1671	C167	0.367110	0.052620	0.732310
C1681	C168	0.425270	0.016430	0.733300
H1151	H115	0.465900	0.038800	0.737100
C1691	C169	0.369890	0.126490	0.737700
C1701	C170	0.324270	0.166730	0.686700
H1161	H116	0.290100	0.147800	0.648100
C1711	C171	0.329740	0.234430	0.693300
H1171	H117	0.298500	0.260200	0.658500
C1721	C172	0.421580	0.226940	0.797400
H1181	H118	0.454700	0.247100	0.836300
C1731	C173	0.419590	0.158880	0.793400
H1191	H119	0.451900	0.134100	0.828300
C1741	C174	0.753210	0.899530	0.753000
C1751	C175	0.812540	0.938330	0.739010
C1761	C176	0.811410	0.007740	0.733520
H1201	H120	0.772000	0.030400	0.735300
C1771	C177	0.867720	0.043500	0.725510
C1781	C178	0.925980	0.008200	0.721140
H1211	H121	0.963900	0.031200	0.714400
C1791	C179	0.928090	0.939170	0.726730
C1801	C180	0.992750	0.900790	0.729100
C1811	C181	0.870970	0.905140	0.734940
H1221	H122	0.872000	0.859000	0.737800
C1821	C182	0.867050	0.117130	0.726000
C1831	C183	0.810200	0.153920	0.723200
H1231	H123	0.769000	0.132300	0.717600
C1841	C184	0.812300	0.221640	0.728400
H1241	H124	0.771800	0.244200	0.724100
C1851	C185	0.922620	0.221880	0.738600
H1251	H125	0.963000	0.244700	0.742800
C1861	C186	0.924320	0.153690	0.732100
H1261	H126	0.964800	0.132500	0.731900
N211	N21	0.095320	0.839730	0.614160
N221	N22	0.035910	0.830670	0.491130
N231	N23	0.679390	0.876770	0.998500
N241	N24	0.631430	0.878130	0.870170
N251	N25	0.149360	0.879330	0.862900
N261	N26	0.204550	0.881090	0.988020
N271	N27	0.554070	0.857540	0.491100
N281	N28	0.601240	0.865180	0.619160
N291	N29	0.377710	0.265820	0.747320
N301	N30	0.868520	0.257360	0.739270
O171	O17	0.541650	0.942370	0.735810
O181	O18	0.488130	0.848760	0.728100
O191	O19	0.239650	0.853650	0.735770
O201	O20	0.186340	0.947260	0.717290
O211	O21	0.697680	0.930130	0.743630
O221	O22	0.761400	0.841150	0.773400
O231	O23	0.044490	0.931710	0.723420
O241	O24	0.992030	0.840410	0.737700
Co71	Co7	0.875100	0.364500	0.763280
Co81	Co8	0.384090	0.371840	0.755810
C1871	C187	0.877800	0.291200	0.923300
H1271	H127	0.840200	0.266100	0.900000
C1881	C188	0.913400	0.284200	0.999700
H1281	H128	0.905100	0.254400	0.037500
C1891	C189	0.957090	0.361560	0.938400
H1291	H129	0.986000	0.394500	0.928300
C1901	C190	0.016460	0.340320	0.078400
C1911	C191	0.040180	0.285610	0.126000
H1301	H130	0.022900	0.243400	0.111900
C1921	C192	0.089270	0.294820	0.193700
H1311	H131	0.104800	0.258300	0.225500
C1931	C193	0.116660	0.357020	0.216500
C1941	C194	0.091960	0.411070	0.167400
H1321	H132	0.109600	0.453300	0.180500
C1951	C195	0.041900	0.402230	0.100200
H1331	H133	0.025000	0.438800	0.069100
C1961	C196	0.170160	0.364430	0.290400
C1971	C197	0.217520	0.314000	0.313200
H1341	H134	0.215800	0.276500	0.281400
C1981	C198	0.266600	0.318860	0.381900
H1351	H135	0.298000	0.284900	0.396100
C1991	C199	0.269510	0.373900	0.430100
C2001	C200	0.223800	0.424790	0.407600
H1361	H136	0.226200	0.462500	0.439200
C2011	C201	0.174340	0.420000	0.338300
H1371	H137	0.143600	0.454500	0.323800
C2021	C202	0.311950	0.385360	0.575300
H1381	H138	0.270600	0.395300	0.586800
C2031	C203	0.415700	0.362000	0.587900
H1391	H139	0.460900	0.353200	0.610300
C2041	C204	0.387300	0.360500	0.509400
H1401	H140	0.408700	0.350400	0.468800
C2051	C205	0.795400	0.363700	0.586000
H1411	H141	0.759300	0.342400	0.600000
C2061	C206	0.888600	0.407500	0.594100
H1421	H142	0.932400	0.422500	0.613800
C2071	C207	0.855600	0.411400	0.518300
H1431	H143	0.871200	0.431300	0.477300
C2081	C208	0.743340	0.375320	0.441300
C2091	C209	0.718900	0.314400	0.411900
H1441	H144	0.735300	0.275800	0.439100
C2101	C210	0.670100	0.310500	0.342600
H1451	H145	0.653300	0.269200	0.323800
C2111	C211	0.645470	0.367620	0.299700
C2121	C212	0.669700	0.427700	0.331000
H1461	H146	0.652400	0.466600	0.305200
C2131	C213	0.719400	0.431700	0.400400
H1471	H147	0.736500	0.472900	0.419200
C2141	C214	0.594170	0.364230	0.223200
C2151	C215	0.549600	0.310700	0.204600
H1481	H148	0.552900	0.275700	0.240300
C2161	C216	0.501300	0.308400	0.135300
H1491	H149	0.471800	0.272500	0.124500
C2171	C217	0.496540	0.359980	0.081300
C2181	C218	0.539000	0.413900	0.098000
H1501	H150	0.535000	0.449000	0.062300
C2191	C219	0.587700	0.415100	0.168400
H1511	H151	0.616900	0.451300	0.179100
C2201	C220	0.379800	0.337600	0.998500
H1521	H152	0.358600	0.323200	0.037700
C2211	C221	0.352000	0.342800	0.920900
H1531	H153	0.307300	0.332800	0.897400
C2221	C222	0.454030	0.373590	0.936300
H1541	H154	0.494400	0.389000	0.926400
C2231	C223	0.511500	0.409700	0.769100
C2241	C224	0.575890	0.447750	0.771300
C2251	C225	0.636920	0.414700	0.775500
H1551	H155	0.638100	0.368500	0.777800
C2261	C226	0.760820	0.414810	0.775000
C2271	C227	0.696070	0.449860	0.776400
C2281	C228	0.693090	0.518870	0.773000
H1561	H156	0.732300	0.542900	0.774400
C2291	C229	0.632890	0.552620	0.767690
C2301	C230	0.574730	0.516430	0.766700
H1571	H157	0.534100	0.538800	0.762900
C2311	C231	0.630110	0.626490	0.762300
C2321	C232	0.675730	0.666730	0.813300
H1581	H158	0.709900	0.647800	0.851900
C2331	C233	0.670260	0.734430	0.806700
H1591	H159	0.701500	0.760200	0.841500
C2341	C234	0.578420	0.726940	0.702600
H1601	H160	0.545300	0.747100	0.663700
C2351	C235	0.580410	0.658880	0.706600
H1611	H161	0.548100	0.634100	0.671700
C2361	C236	0.246790	0.399530	0.747000
C2371	C237	0.187460	0.438330	0.760990
C2381	C238	0.188590	0.507740	0.766480
H1621	H162	0.228000	0.530400	0.764700
C2391	C239	0.132280	0.543500	0.774490
C2401	C240	0.074020	0.508200	0.778860
H1631	H163	0.036100	0.531200	0.785600
C2411	C241	0.071910	0.439170	0.773270
C2421	C242	0.007250	0.400790	0.770900
C2431	C243	0.129030	0.405140	0.765060
H1641	H164	0.128000	0.359000	0.762200
C2441	C244	0.132950	0.617130	0.774000
C2451	C245	0.189800	0.653920	0.776800
H1651	H165	0.231000	0.632300	0.782400
C2461	C246	0.187700	0.721640	0.771600
H1661	H166	0.228200	0.744200	0.775900
C2471	C247	0.077380	0.721880	0.761400
H1671	H167	0.037000	0.744700	0.757200
C2481	C248	0.075680	0.653690	0.767900
H1681	H168	0.035200	0.632500	0.768100
N311	N31	0.904680	0.339730	0.885840
N321	N32	0.964090	0.330670	0.008870
N331	N33	0.320610	0.376770	0.501500
N341	N34	0.368570	0.378130	0.629830
N351	N35	0.850640	0.379330	0.637100
N361	N36	0.795450	0.381090	0.511980
N371	N37	0.445930	0.357540	0.008900
N381	N38	0.398760	0.365180	0.880840
N391	N39	0.622290	0.765820	0.752680
N401	N40	0.131480	0.757360	0.760730
O251	O25	0.458350	0.442370	0.764190
O261	O26	0.511870	0.348760	0.771900
O271	O27	0.760350	0.353650	0.764230
O281	O28	0.813660	0.447260	0.782710
O291	O29	0.302320	0.430130	0.756370
O301	O30	0.238600	0.341150	0.726600
O311	O31	0.955510	0.431710	0.776580
O321	O32	0.007970	0.340410	0.762300
