data_XOMGIQ_clean_PM
_symmetry_space_group_name_H-M	'P1'
_cell_length_a	21.501200
_cell_length_b	11.725100
_cell_length_c	25.760600
_cell_angle_alpha	90.000000
_cell_angle_beta	103.492000
_cell_angle_gamma	90.000000
_symmetry_Int_Tables_number 1

loop_
_symmetry_equiv_pos_as_xyz
'x,y,z'

loop_
_atom_site_label
_atom_site_type_symbol
_atom_site_fract_x
_atom_site_fract_y
_atom_site_fract_z
Ag11	Ag1	0.053990	0.304080	0.030520
Cr11	Cr1	0.230330	0.362630	0.337520
O11	O1	0.201320	0.232240	0.291120
O21	O2	0.206060	0.463940	0.276610
O31	O3	0.261700	0.505920	0.881810
O41	O4	0.146580	0.620800	0.852970
O51	O5	0.816330	0.153690	0.826000
O61	O6	0.752920	0.237210	0.899140
N11	N1	0.086510	0.311200	0.116580
N21	N2	0.129750	0.364300	0.988160
N31	N3	0.967200	0.326900	0.965870
C11	C1	0.151460	0.117200	0.218290
H11	H1	0.159800	0.058100	0.245900
H21	H2	0.177000	0.101900	0.192100
H31	H3	0.105900	0.117000	0.200400
C21	C2	0.169270	0.231240	0.243350
C31	C3	0.152210	0.332100	0.213000
C41	C4	0.172390	0.442700	0.230870
C51	C5	0.155610	0.543700	0.194420
H41	H4	0.111300	0.566400	0.192600
H51	H5	0.160300	0.523300	0.158600
H61	H6	0.184300	0.607200	0.208200
C61	C6	0.115280	0.319800	0.159780
C71	C7	0.271030	0.354100	0.943020
H71	H7	0.313700	0.349800	0.935600
H81	H8	0.275200	0.366300	0.981300
H91	H9	0.248000	0.282600	0.932200
C81	C8	0.234750	0.451000	0.912430
C91	C9	0.172480	0.476000	0.918070
C101	C10	0.130250	0.556700	0.886980
C111	C11	0.063410	0.567700	0.893000
H101	H10	0.036600	0.509600	0.871200
H111	H11	0.062600	0.557100	0.930600
H121	H12	0.047000	0.643700	0.881200
C121	C12	0.148930	0.412600	0.956560
C131	C13	0.809690	0.343800	0.972000
H131	H13	0.836800	0.306500	0.003200
H141	H14	0.827400	0.419100	0.967100
H151	H15	0.766300	0.352700	0.977400
C141	C14	0.807530	0.272200	0.923200
C151	C15	0.863680	0.251100	0.905590
C161	C16	0.865790	0.191990	0.857900
C171	C17	0.927370	0.174100	0.842420
H161	H16	0.919700	0.131100	0.808900
H171	H17	0.946400	0.248100	0.837600
H181	H18	0.956600	0.131100	0.870500
C181	C18	0.921820	0.290900	0.938400
Ag21	Ag2	0.553990	0.804080	0.030520
Cr21	Cr2	0.730330	0.862630	0.337520
O71	O7	0.701320	0.732240	0.291120
O81	O8	0.706060	0.963940	0.276610
O91	O9	0.761700	0.005920	0.881810
O101	O10	0.646580	0.120800	0.852970
O111	O11	0.316330	0.653690	0.826000
O121	O12	0.252920	0.737210	0.899140
N41	N4	0.586510	0.811200	0.116580
N51	N5	0.629750	0.864300	0.988160
N61	N6	0.467200	0.826900	0.965870
C191	C19	0.651460	0.617200	0.218290
H191	H19	0.659800	0.558100	0.245900
H201	H20	0.677000	0.601900	0.192100
H211	H21	0.605900	0.617000	0.200400
C201	C20	0.669270	0.731240	0.243350
C211	C21	0.652210	0.832100	0.213000
C221	C22	0.672390	0.942700	0.230870
C231	C23	0.655610	0.043700	0.194420
H221	H22	0.611300	0.066400	0.192600
H231	H23	0.660300	0.023300	0.158600
H241	H24	0.684300	0.107200	0.208200
C241	C24	0.615280	0.819800	0.159780
C251	C25	0.771030	0.854100	0.943020
H251	H25	0.813700	0.849800	0.935600
H261	H26	0.775200	0.866300	0.981300
H271	H27	0.748000	0.782600	0.932200
C261	C26	0.734750	0.951000	0.912430
C271	C27	0.672480	0.976000	0.918070
C281	C28	0.630250	0.056700	0.886980
C291	C29	0.563410	0.067700	0.893000
H281	H28	0.536600	0.009600	0.871200
H291	H29	0.562600	0.057100	0.930600
H301	H30	0.547000	0.143700	0.881200
C301	C30	0.648930	0.912600	0.956560
C311	C31	0.309690	0.843800	0.972000
H311	H31	0.336800	0.806500	0.003200
H321	H32	0.327400	0.919100	0.967100
H331	H33	0.266300	0.852700	0.977400
C321	C32	0.307530	0.772200	0.923200
C331	C33	0.363680	0.751100	0.905590
C341	C34	0.365790	0.691990	0.857900
C351	C35	0.427370	0.674100	0.842420
H341	H34	0.419700	0.631100	0.808900
H351	H35	0.446400	0.748100	0.837600
H361	H36	0.456600	0.631100	0.870500
C361	C36	0.421820	0.790900	0.938400
Ag31	Ag3	0.053990	0.695920	0.530520
Cr31	Cr3	0.230330	0.637370	0.837520
O131	O13	0.201320	0.767760	0.791120
O141	O14	0.206060	0.536060	0.776610
O151	O15	0.261700	0.494080	0.381810
O161	O16	0.146580	0.379200	0.352970
O171	O17	0.816330	0.846310	0.326000
O181	O18	0.752920	0.762790	0.399140
N71	N7	0.086510	0.688800	0.616580
N81	N8	0.129750	0.635700	0.488160
N91	N9	0.967200	0.673100	0.465870
C371	C37	0.151460	0.882800	0.718290
H371	H37	0.159800	0.941900	0.745900
H381	H38	0.177000	0.898100	0.692100
H391	H39	0.105900	0.883000	0.700400
C381	C38	0.169270	0.768760	0.743350
C391	C39	0.152210	0.667900	0.713000
C401	C40	0.172390	0.557300	0.730870
C411	C41	0.155610	0.456300	0.694420
H401	H40	0.111300	0.433600	0.692600
H411	H41	0.160300	0.476700	0.658600
H421	H42	0.184300	0.392800	0.708200
C421	C42	0.115280	0.680200	0.659780
C431	C43	0.271030	0.645900	0.443020
H431	H43	0.313700	0.650200	0.435600
H441	H44	0.275200	0.633700	0.481300
H451	H45	0.248000	0.717400	0.432200
C441	C44	0.234750	0.549000	0.412430
C451	C45	0.172480	0.524000	0.418070
C461	C46	0.130250	0.443300	0.386980
C471	C47	0.063410	0.432300	0.393000
H461	H46	0.036600	0.490400	0.371200
H471	H47	0.062600	0.442900	0.430600
H481	H48	0.047000	0.356300	0.381200
C481	C48	0.148930	0.587400	0.456560
C491	C49	0.809690	0.656200	0.472000
H491	H49	0.836800	0.693500	0.503200
H501	H50	0.827400	0.580900	0.467100
H511	H51	0.766300	0.647300	0.477400
C501	C50	0.807530	0.727800	0.423200
C511	C51	0.863680	0.748900	0.405590
C521	C52	0.865790	0.808010	0.357900
C531	C53	0.927370	0.825900	0.342420
H521	H52	0.919700	0.868900	0.308900
H531	H53	0.946400	0.751900	0.337600
H541	H54	0.956600	0.868900	0.370500
C541	C54	0.921820	0.709100	0.438400
Ag41	Ag4	0.553990	0.195920	0.530520
Cr41	Cr4	0.730330	0.137370	0.837520
O191	O19	0.701320	0.267760	0.791120
O201	O20	0.706060	0.036060	0.776610
O211	O21	0.761700	0.994080	0.381810
O221	O22	0.646580	0.879200	0.352970
O231	O23	0.316330	0.346310	0.326000
O241	O24	0.252920	0.262790	0.399140
N101	N10	0.586510	0.188800	0.616580
N111	N11	0.629750	0.135700	0.488160
N121	N12	0.467200	0.173100	0.465870
C551	C55	0.651460	0.382800	0.718290
H551	H55	0.659800	0.441900	0.745900
H561	H56	0.677000	0.398100	0.692100
H571	H57	0.605900	0.383000	0.700400
C561	C56	0.669270	0.268760	0.743350
C571	C57	0.652210	0.167900	0.713000
C581	C58	0.672390	0.057300	0.730870
C591	C59	0.655610	0.956300	0.694420
H581	H58	0.611300	0.933600	0.692600
H591	H59	0.660300	0.976700	0.658600
H601	H60	0.684300	0.892800	0.708200
C601	C60	0.615280	0.180200	0.659780
C611	C61	0.771030	0.145900	0.443020
H611	H61	0.813700	0.150200	0.435600
H621	H62	0.775200	0.133700	0.481300
H631	H63	0.748000	0.217400	0.432200
C621	C62	0.734750	0.049000	0.412430
C631	C63	0.672480	0.024000	0.418070
C641	C64	0.630250	0.943300	0.386980
C651	C65	0.563410	0.932300	0.393000
H641	H64	0.536600	0.990400	0.371200
H651	H65	0.562600	0.942900	0.430600
H661	H66	0.547000	0.856300	0.381200
C661	C66	0.648930	0.087400	0.456560
C671	C67	0.309690	0.156200	0.472000
H671	H67	0.336800	0.193500	0.503200
H681	H68	0.327400	0.080900	0.467100
H691	H69	0.266300	0.147300	0.477400
C681	C68	0.307530	0.227800	0.423200
C691	C69	0.363680	0.248900	0.405590
C701	C70	0.365790	0.308010	0.357900
C711	C71	0.427370	0.325900	0.342420
H701	H70	0.419700	0.368900	0.308900
H711	H71	0.446400	0.251900	0.337600
H721	H72	0.456600	0.368900	0.370500
C721	C72	0.421820	0.209100	0.438400
Ag51	Ag5	0.946010	0.304080	0.469480
Cr51	Cr5	0.769670	0.362630	0.162480
O251	O25	0.798680	0.232240	0.208880
O261	O26	0.793940	0.463940	0.223390
O271	O27	0.738300	0.505920	0.618190
O281	O28	0.853420	0.620800	0.647030
O291	O29	0.183670	0.153690	0.674000
O301	O30	0.247080	0.237210	0.600860
N131	N13	0.913490	0.311200	0.383420
N141	N14	0.870250	0.364300	0.511840
N151	N15	0.032800	0.326900	0.534130
C731	C73	0.848540	0.117200	0.281710
H731	H73	0.840200	0.058100	0.254100
H741	H74	0.823000	0.101900	0.307900
H751	H75	0.894100	0.117000	0.299600
C741	C74	0.830730	0.231240	0.256650
C751	C75	0.847790	0.332100	0.287000
C761	C76	0.827610	0.442700	0.269130
C771	C77	0.844390	0.543700	0.305580
H761	H76	0.888700	0.566400	0.307400
H771	H77	0.839700	0.523300	0.341400
H781	H78	0.815700	0.607200	0.291800
C781	C78	0.884720	0.319800	0.340220
C791	C79	0.728970	0.354100	0.556980
H791	H79	0.686300	0.349800	0.564400
H801	H80	0.724800	0.366300	0.518700
H811	H81	0.752000	0.282600	0.567800
C801	C80	0.765250	0.451000	0.587570
C811	C81	0.827520	0.476000	0.581930
C821	C82	0.869750	0.556700	0.613020
C831	C83	0.936590	0.567700	0.607000
H821	H82	0.963400	0.509600	0.628800
H831	H83	0.937400	0.557100	0.569400
H841	H84	0.953000	0.643700	0.618800
C841	C84	0.851070	0.412600	0.543440
C851	C85	0.190310	0.343800	0.528000
H851	H85	0.163200	0.306500	0.496800
H861	H86	0.172600	0.419100	0.532900
H871	H87	0.233700	0.352700	0.522600
C861	C86	0.192470	0.272200	0.576800
C871	C87	0.136320	0.251100	0.594410
C881	C88	0.134210	0.191990	0.642100
C891	C89	0.072630	0.174100	0.657580
H881	H88	0.080300	0.131100	0.691100
H891	H89	0.053600	0.248100	0.662400
H901	H90	0.043400	0.131100	0.629500
C901	C90	0.078180	0.290900	0.561600
Ag61	Ag6	0.446010	0.804080	0.469480
Cr61	Cr6	0.269670	0.862630	0.162480
O311	O31	0.298680	0.732240	0.208880
O321	O32	0.293940	0.963940	0.223390
O331	O33	0.238300	0.005920	0.618190
O341	O34	0.353420	0.120800	0.647030
O351	O35	0.683670	0.653690	0.674000
O361	O36	0.747080	0.737210	0.600860
N161	N16	0.413490	0.811200	0.383420
N171	N17	0.370250	0.864300	0.511840
N181	N18	0.532800	0.826900	0.534130
C911	C91	0.348540	0.617200	0.281710
H911	H91	0.340200	0.558100	0.254100
H921	H92	0.323000	0.601900	0.307900
H931	H93	0.394100	0.617000	0.299600
C921	C92	0.330730	0.731240	0.256650
C931	C93	0.347790	0.832100	0.287000
C941	C94	0.327610	0.942700	0.269130
C951	C95	0.344390	0.043700	0.305580
H941	H94	0.388700	0.066400	0.307400
H951	H95	0.339700	0.023300	0.341400
H961	H96	0.315700	0.107200	0.291800
C961	C96	0.384720	0.819800	0.340220
C971	C97	0.228970	0.854100	0.556980
H971	H97	0.186300	0.849800	0.564400
H981	H98	0.224800	0.866300	0.518700
H991	H99	0.252000	0.782600	0.567800
C981	C98	0.265250	0.951000	0.587570
C991	C99	0.327520	0.976000	0.581930
C1001	C100	0.369750	0.056700	0.613020
C1011	C101	0.436590	0.067700	0.607000
H1001	H100	0.463400	0.009600	0.628800
H1011	H101	0.437400	0.057100	0.569400
H1021	H102	0.453000	0.143700	0.618800
C1021	C102	0.351070	0.912600	0.543440
C1031	C103	0.690310	0.843800	0.528000
H1031	H103	0.663200	0.806500	0.496800
H1041	H104	0.672600	0.919100	0.532900
H1051	H105	0.733700	0.852700	0.522600
C1041	C104	0.692470	0.772200	0.576800
C1051	C105	0.636320	0.751100	0.594410
C1061	C106	0.634210	0.691990	0.642100
C1071	C107	0.572630	0.674100	0.657580
H1061	H106	0.580300	0.631100	0.691100
H1071	H107	0.553600	0.748100	0.662400
H1081	H108	0.543400	0.631100	0.629500
C1081	C108	0.578180	0.790900	0.561600
Ag71	Ag7	0.946010	0.695920	0.969480
Cr71	Cr7	0.769670	0.637370	0.662480
O371	O37	0.798680	0.767760	0.708880
O381	O38	0.793940	0.536060	0.723390
O391	O39	0.738300	0.494080	0.118190
O401	O40	0.853420	0.379200	0.147030
O411	O41	0.183670	0.846310	0.174000
O421	O42	0.247080	0.762790	0.100860
N191	N19	0.913490	0.688800	0.883420
N201	N20	0.870250	0.635700	0.011840
N211	N21	0.032800	0.673100	0.034130
C1091	C109	0.848540	0.882800	0.781710
H1091	H109	0.840200	0.941900	0.754100
H1101	H110	0.823000	0.898100	0.807900
H1111	H111	0.894100	0.883000	0.799600
C1101	C110	0.830730	0.768760	0.756650
C1111	C111	0.847790	0.667900	0.787000
C1121	C112	0.827610	0.557300	0.769130
C1131	C113	0.844390	0.456300	0.805580
H1121	H112	0.888700	0.433600	0.807400
H1131	H113	0.839700	0.476700	0.841400
H1141	H114	0.815700	0.392800	0.791800
C1141	C114	0.884720	0.680200	0.840220
C1151	C115	0.728970	0.645900	0.056980
H1151	H115	0.686300	0.650200	0.064400
H1161	H116	0.724800	0.633700	0.018700
H1171	H117	0.752000	0.717400	0.067800
C1161	C116	0.765250	0.549000	0.087570
C1171	C117	0.827520	0.524000	0.081930
C1181	C118	0.869750	0.443300	0.113020
C1191	C119	0.936590	0.432300	0.107000
H1181	H118	0.963400	0.490400	0.128800
H1191	H119	0.937400	0.442900	0.069400
H1201	H120	0.953000	0.356300	0.118800
C1201	C120	0.851070	0.587400	0.043440
C1211	C121	0.190310	0.656200	0.028000
H1211	H121	0.163200	0.693500	0.996800
H1221	H122	0.172600	0.580900	0.032900
H1231	H123	0.233700	0.647300	0.022600
C1221	C122	0.192470	0.727800	0.076800
C1231	C123	0.136320	0.748900	0.094410
C1241	C124	0.134210	0.808010	0.142100
C1251	C125	0.072630	0.825900	0.157580
H1241	H124	0.080300	0.868900	0.191100
H1251	H125	0.053600	0.751900	0.162400
H1261	H126	0.043400	0.868900	0.129500
C1261	C126	0.078180	0.709100	0.061600
Ag81	Ag8	0.446010	0.195920	0.969480
Cr81	Cr8	0.269670	0.137370	0.662480
O431	O43	0.298680	0.267760	0.708880
O441	O44	0.293940	0.036060	0.723390
O451	O45	0.238300	0.994080	0.118190
O461	O46	0.353420	0.879200	0.147030
O471	O47	0.683670	0.346310	0.174000
O481	O48	0.747080	0.262790	0.100860
N221	N22	0.413490	0.188800	0.883420
N231	N23	0.370250	0.135700	0.011840
N241	N24	0.532800	0.173100	0.034130
C1271	C127	0.348540	0.382800	0.781710
H1271	H127	0.340200	0.441900	0.754100
H1281	H128	0.323000	0.398100	0.807900
H1291	H129	0.394100	0.383000	0.799600
C1281	C128	0.330730	0.268760	0.756650
C1291	C129	0.347790	0.167900	0.787000
C1301	C130	0.327610	0.057300	0.769130
C1311	C131	0.344390	0.956300	0.805580
H1301	H130	0.388700	0.933600	0.807400
H1311	H131	0.339700	0.976700	0.841400
H1321	H132	0.315700	0.892800	0.791800
C1321	C132	0.384720	0.180200	0.840220
C1331	C133	0.228970	0.145900	0.056980
H1331	H133	0.186300	0.150200	0.064400
H1341	H134	0.224800	0.133700	0.018700
H1351	H135	0.252000	0.217400	0.067800
C1341	C134	0.265250	0.049000	0.087570
C1351	C135	0.327520	0.024000	0.081930
C1361	C136	0.369750	0.943300	0.113020
C1371	C137	0.436590	0.932300	0.107000
H1361	H136	0.463400	0.990400	0.128800
H1371	H137	0.437400	0.942900	0.069400
H1381	H138	0.453000	0.856300	0.118800
C1381	C138	0.351070	0.087400	0.043440
C1391	C139	0.690310	0.156200	0.028000
H1391	H139	0.663200	0.193500	0.996800
H1401	H140	0.672600	0.080900	0.032900
H1411	H141	0.733700	0.147300	0.022600
C1401	C140	0.692470	0.227800	0.076800
C1411	C141	0.636320	0.248900	0.094410
C1421	C142	0.634210	0.308010	0.142100
C1431	C143	0.572630	0.325900	0.157580
H1421	H142	0.580300	0.368900	0.191100
H1431	H143	0.553600	0.251900	0.162400
H1441	H144	0.543400	0.368900	0.129500
C1441	C144	0.578180	0.209100	0.061600
