data_XOMJOY_clean_PM
_symmetry_space_group_name_H-M	'P1'
_cell_length_a	12.816000
_cell_length_b	18.392900
_cell_length_c	24.816000
_cell_angle_alpha	90.000000
_cell_angle_beta	90.000000
_cell_angle_gamma	110.389000
_symmetry_Int_Tables_number 1

loop_
_symmetry_equiv_pos_as_xyz
'x,y,z'

loop_
_atom_site_label
_atom_site_type_symbol
_atom_site_fract_x
_atom_site_fract_y
_atom_site_fract_z
Gd11	Gd1	0.231050	0.770080	0.785720
Gd21	Gd2	0.768950	0.229920	0.285720
Gd31	Gd3	0.539030	0.770080	0.714280
Gd41	Gd4	0.460970	0.229920	0.214280
H11	H1	0.073700	0.890200	0.765000
H21	H2	0.042700	0.997800	0.800100
H31	H3	0.143400	0.061600	0.874300
H41	H4	0.275000	0.017800	0.913500
H51	H5	0.306000	0.910200	0.878300
H61	H6	0.069700	0.548000	0.903500
H71	H7	0.064600	0.794600	0.935000
H81	H8	0.916300	0.781800	0.078900
H91	H9	0.903400	0.654400	0.088100
H101	H10	0.988200	0.421400	0.908400
H111	H11	0.099400	0.431600	0.939700
H121	H12	0.995000	0.298000	0.930300
H131	H13	0.005200	0.320200	0.991600
H141	H14	0.894600	0.310000	0.960300
H151	H15	0.679800	0.369600	0.092300
H161	H16	0.921500	0.439000	0.240100
H171	H17	0.180500	0.619600	0.186300
H181	H18	0.094300	0.617200	0.106100
H191	H19	0.724400	0.344400	0.000400
H201	H20	0.618000	0.368000	0.994700
H211	H21	0.672400	0.339200	0.909800
H221	H22	0.683700	0.426800	0.911900
H231	H23	0.789700	0.403400	0.917600
H241	H24	0.407100	0.840400	0.908800
H251	H25	0.712300	0.980800	0.803200
H261	H26	0.906600	0.141800	0.903500
H271	H27	0.786000	0.093400	0.973200
H281	H28	0.279500	0.837400	0.977900
H291	H29	0.348100	0.783400	0.990600
H301	H30	0.209100	0.763400	0.051700
H311	H31	0.324700	0.797600	0.080600
H321	H32	0.255900	0.851200	0.067800
H331	H33	0.926300	0.109800	0.265000
H341	H34	0.957300	0.002200	0.300100
H351	H35	0.856600	0.938400	0.374300
H361	H36	0.725000	0.982200	0.413500
H371	H37	0.694000	0.089800	0.378300
H381	H38	0.930300	0.452000	0.403500
H391	H39	0.935400	0.205400	0.435000
H401	H40	0.083700	0.218200	0.578900
H411	H41	0.096600	0.345600	0.588100
H421	H42	0.011800	0.578600	0.408400
H431	H43	0.900600	0.568400	0.439700
H441	H44	0.005000	0.702000	0.430300
H451	H45	0.994800	0.679800	0.491600
H461	H46	0.105400	0.690000	0.460300
H471	H47	0.320200	0.630400	0.592300
H481	H48	0.078500	0.561000	0.740100
H491	H49	0.819500	0.380400	0.686300
H501	H50	0.905700	0.382800	0.606100
H511	H51	0.275600	0.655600	0.500400
H521	H52	0.382000	0.632000	0.494700
H531	H53	0.327600	0.660800	0.409800
H541	H54	0.316300	0.573200	0.411900
H551	H55	0.210300	0.596600	0.417600
H561	H56	0.592900	0.159600	0.408800
H571	H57	0.287700	0.019200	0.303200
H581	H58	0.093400	0.858200	0.403500
H591	H59	0.214000	0.906600	0.473200
H601	H60	0.720500	0.162600	0.477900
H611	H61	0.651900	0.216600	0.490600
H621	H62	0.790900	0.236600	0.551700
H631	H63	0.675300	0.202400	0.580600
H641	H64	0.744100	0.148800	0.567800
H651	H65	0.816500	0.890200	0.735000
H661	H66	0.955100	0.997800	0.699900
H671	H67	0.918200	0.061600	0.625700
H681	H68	0.742800	0.017800	0.586500
H691	H69	0.604200	0.910200	0.621700
H701	H70	0.478300	0.548000	0.596500
H711	H71	0.730000	0.794600	0.565000
H721	H72	0.865500	0.781800	0.421100
H731	H73	0.751000	0.654400	0.411900
H741	H74	0.433200	0.421400	0.591600
H751	H75	0.332200	0.431600	0.560300
H761	H76	0.303000	0.298000	0.569700
H771	H77	0.315000	0.320200	0.508400
H781	H78	0.415400	0.310000	0.539700
H791	H79	0.689800	0.369600	0.407700
H801	H80	0.517500	0.439000	0.259900
H811	H81	0.439100	0.619600	0.313700
H821	H82	0.522900	0.617200	0.393900
H831	H83	0.620000	0.344400	0.499600
H841	H84	0.750000	0.368000	0.505300
H851	H85	0.666800	0.339200	0.590200
H861	H86	0.743100	0.426800	0.588100
H871	H87	0.613700	0.403400	0.582400
H881	H88	0.433300	0.840400	0.591200
H891	H89	0.268500	0.980800	0.696800
H901	H90	0.235200	0.141800	0.596500
H911	H91	0.307400	0.093400	0.526800
H921	H92	0.557900	0.837400	0.522100
H931	H93	0.435300	0.783400	0.509400
H941	H94	0.554300	0.763400	0.448300
H951	H95	0.472900	0.797600	0.419400
H961	H96	0.595300	0.851200	0.432200
H971	H97	0.183500	0.109800	0.235000
H981	H98	0.044900	0.002200	0.199900
H991	H99	0.081800	0.938400	0.125700
H1001	H100	0.257200	0.982200	0.086500
H1011	H101	0.395800	0.089800	0.121700
H1021	H102	0.521700	0.452000	0.096500
H1031	H103	0.270000	0.205400	0.065000
H1041	H104	0.134500	0.218200	0.921100
H1051	H105	0.249000	0.345600	0.911900
H1061	H106	0.566800	0.578600	0.091600
H1071	H107	0.667800	0.568400	0.060300
H1081	H108	0.697000	0.702000	0.069700
H1091	H109	0.685000	0.679800	0.008400
H1101	H110	0.584600	0.690000	0.039700
H1111	H111	0.310200	0.630400	0.907700
H1121	H112	0.482500	0.561000	0.759900
H1131	H113	0.560900	0.380400	0.813700
H1141	H114	0.477100	0.382800	0.893900
H1151	H115	0.380000	0.655600	0.999600
H1161	H116	0.250000	0.632000	0.005300
H1171	H117	0.333200	0.660800	0.090200
H1181	H118	0.256900	0.573200	0.088100
H1191	H119	0.386300	0.596600	0.082400
H1201	H120	0.566700	0.159600	0.091200
H1211	H121	0.731500	0.019200	0.196800
H1221	H122	0.764800	0.858200	0.096500
H1231	H123	0.692600	0.906600	0.026800
H1241	H124	0.442100	0.162600	0.022100
H1251	H125	0.564700	0.216600	0.009400
H1261	H126	0.445700	0.236600	0.948300
H1271	H127	0.527100	0.202400	0.919400
H1281	H128	0.404700	0.148800	0.932200
C11	C1	0.114100	0.915800	0.794700
C21	C2	0.095500	0.980200	0.815800
C31	C3	0.155700	0.018400	0.860300
C41	C4	0.234600	0.992200	0.883700
C51	C5	0.253200	0.927800	0.862600
C61	C6	0.963930	0.565060	0.020300
C71	C7	0.000860	0.530720	0.978600
C81	C8	0.048050	0.572700	0.931800
C91	C9	0.062150	0.650500	0.927900
C101	C10	0.025750	0.687900	0.969400
C111	C11	0.032510	0.765820	0.965300
C121	C12	0.991930	0.799460	0.005900
C131	C13	0.943290	0.757980	0.051900
C141	C14	0.935270	0.681740	0.057200
C151	C15	0.975250	0.644300	0.016100
C161	C16	0.117900	0.693200	0.877800
C171	C17	0.018800	0.413200	0.942600
C181	C18	0.974300	0.327400	0.957600
C191	C19	0.906540	0.515880	0.067200
C201	C20	0.802950	0.459500	0.058400
C211	C21	0.749520	0.406440	0.099100
C221	C22	0.797210	0.407620	0.147900
C231	C23	0.902000	0.465800	0.160300
C241	C24	0.955410	0.473020	0.212400
C251	C25	0.055600	0.530000	0.220500
C261	C26	0.110400	0.582800	0.180000
C271	C27	0.060000	0.579600	0.131700
C281	C28	0.955560	0.520520	0.118400
C291	C29	0.738180	0.343760	0.187500
C301	C30	0.696400	0.383000	0.985800
C311	C31	0.712000	0.388600	0.925900
C321	C32	0.591700	0.979800	0.973300
C331	C33	0.496500	0.917800	0.964900
C341	C34	0.472500	0.882400	0.914000
C351	C35	0.545410	0.909420	0.871700
C361	C36	0.646700	0.971200	0.879400
C371	C37	0.725000	0.001800	0.837700
C381	C38	0.818200	0.061800	0.848800
C391	C39	0.842300	0.099000	0.898500
C401	C40	0.769200	0.070800	0.939300
C411	C41	0.666600	0.007200	0.931800
C421	C42	0.509100	0.868200	0.818900
C431	C43	0.329500	0.827000	0.003700
C441	C44	0.275300	0.808200	0.055200
C451	C45	0.885900	0.084200	0.294700
C461	C46	0.904500	0.019800	0.315800
C471	C47	0.844300	0.981600	0.360300
C481	C48	0.765400	0.007800	0.383700
C491	C49	0.746800	0.072200	0.362600
C501	C50	0.036070	0.434940	0.520300
C511	C51	0.999140	0.469280	0.478600
C521	C52	0.951950	0.427300	0.431800
C531	C53	0.937850	0.349500	0.427900
C541	C54	0.974250	0.312100	0.469400
C551	C55	0.967490	0.234180	0.465300
C561	C56	0.008070	0.200540	0.505900
C571	C57	0.056710	0.242020	0.551900
C581	C58	0.064730	0.318260	0.557200
C591	C59	0.024750	0.355700	0.516100
C601	C60	0.882100	0.306800	0.377800
C611	C61	0.981200	0.586800	0.442600
C621	C62	0.025700	0.672600	0.457600
C631	C63	0.093460	0.484120	0.567200
C641	C64	0.197050	0.540500	0.558400
C651	C65	0.250480	0.593560	0.599100
C661	C66	0.202790	0.592380	0.647900
C671	C67	0.098000	0.534200	0.660300
C681	C68	0.044590	0.526980	0.712400
C691	C69	0.944400	0.470000	0.720500
C701	C70	0.889600	0.417200	0.680000
C711	C71	0.940000	0.420400	0.631700
C721	C72	0.044440	0.479480	0.618400
C731	C73	0.261820	0.656240	0.687500
C741	C74	0.303600	0.617000	0.485800
C751	C75	0.288000	0.611400	0.425900
C761	C76	0.408300	0.020200	0.473300
C771	C77	0.503500	0.082200	0.464900
C781	C78	0.527500	0.117600	0.414000
C791	C79	0.454590	0.090580	0.371700
C801	C80	0.353300	0.028800	0.379400
C811	C81	0.275000	0.998200	0.337700
C821	C82	0.181800	0.938200	0.348800
C831	C83	0.157700	0.901000	0.398500
C841	C84	0.230800	0.929200	0.439300
C851	C85	0.333400	0.992800	0.431800
C861	C86	0.490900	0.131800	0.318900
C871	C87	0.670500	0.173000	0.503700
C881	C88	0.724700	0.191800	0.555200
C891	C89	0.801700	0.915800	0.705300
C901	C90	0.884700	0.980200	0.684200
C911	C91	0.862700	0.018400	0.639700
C921	C92	0.757600	0.992200	0.616300
C931	C93	0.674600	0.927800	0.637400
C941	C94	0.601130	0.565060	0.479700
C951	C95	0.529860	0.530720	0.521400
C961	C96	0.524650	0.572700	0.568200
C971	C97	0.588350	0.650500	0.572100
C981	C98	0.662150	0.687900	0.530600
C991	C99	0.733310	0.765820	0.534700
C1001	C100	0.807530	0.799460	0.494100
C1011	C101	0.814690	0.757980	0.448100
C1021	C102	0.746470	0.681740	0.442800
C1031	C103	0.669050	0.644300	0.483900
C1041	C104	0.575300	0.693200	0.622200
C1051	C105	0.394400	0.413200	0.557400
C1061	C106	0.353100	0.327400	0.542400
C1071	C107	0.609340	0.515880	0.432800
C1081	C108	0.656550	0.459500	0.441600
C1091	C109	0.656920	0.406440	0.400900
C1101	C110	0.610410	0.407620	0.352100
C1111	C111	0.563800	0.465800	0.339700
C1121	C112	0.517610	0.473020	0.287600
C1131	C113	0.474400	0.530000	0.279500
C1141	C114	0.472400	0.582800	0.320000
C1151	C115	0.519600	0.579600	0.368300
C1161	C116	0.564960	0.520520	0.381600
C1171	C117	0.605580	0.343760	0.312500
C1181	C118	0.686600	0.383000	0.514200
C1191	C119	0.676600	0.388600	0.574100
C1201	C120	0.388100	0.979800	0.526700
C1211	C121	0.421300	0.917800	0.535100
C1221	C122	0.409900	0.882400	0.586000
C1231	C123	0.364010	0.909420	0.628300
C1241	C124	0.324500	0.971200	0.620600
C1251	C125	0.276800	0.001800	0.662300
C1261	C126	0.243600	0.061800	0.651200
C1271	C127	0.256700	0.099000	0.601500
C1281	C128	0.301600	0.070800	0.560700
C1291	C129	0.340600	0.007200	0.568200
C1301	C130	0.359100	0.868200	0.681100
C1311	C131	0.497500	0.827000	0.496300
C1321	C132	0.532900	0.808200	0.444800
C1331	C133	0.198300	0.084200	0.205300
C1341	C134	0.115300	0.019800	0.184200
C1351	C135	0.137300	0.981600	0.139700
C1361	C136	0.242400	0.007800	0.116300
C1371	C137	0.325400	0.072200	0.137400
C1381	C138	0.398870	0.434940	0.979700
C1391	C139	0.470140	0.469280	0.021400
C1401	C140	0.475350	0.427300	0.068200
C1411	C141	0.411650	0.349500	0.072100
C1421	C142	0.337850	0.312100	0.030600
C1431	C143	0.266690	0.234180	0.034700
C1441	C144	0.192470	0.200540	0.994100
C1451	C145	0.185310	0.242020	0.948100
C1461	C146	0.253530	0.318260	0.942800
C1471	C147	0.330950	0.355700	0.983900
C1481	C148	0.424700	0.306800	0.122200
C1491	C149	0.605600	0.586800	0.057400
C1501	C150	0.646900	0.672600	0.042400
C1511	C151	0.390660	0.484120	0.932800
C1521	C152	0.343450	0.540500	0.941600
C1531	C153	0.343080	0.593560	0.900900
C1541	C154	0.389590	0.592380	0.852100
C1551	C155	0.436200	0.534200	0.839700
C1561	C156	0.482390	0.526980	0.787600
C1571	C157	0.525600	0.470000	0.779500
C1581	C158	0.527600	0.417200	0.820000
C1591	C159	0.480400	0.420400	0.868300
C1601	C160	0.435040	0.479480	0.881600
C1611	C161	0.394420	0.656240	0.812500
C1621	C162	0.313400	0.617000	0.014200
C1631	C163	0.323400	0.611400	0.074100
C1641	C164	0.611900	0.020200	0.026700
C1651	C165	0.578700	0.082200	0.035100
C1661	C166	0.590100	0.117600	0.086000
C1671	C167	0.635990	0.090580	0.128300
C1681	C168	0.675500	0.028800	0.120600
C1691	C169	0.723200	0.998200	0.162300
C1701	C170	0.756400	0.938200	0.151200
C1711	C171	0.743300	0.901000	0.101500
C1721	C172	0.698400	0.929200	0.060700
C1731	C173	0.659400	0.992800	0.068200
C1741	C174	0.640900	0.131800	0.181100
C1751	C175	0.502500	0.173000	0.996300
C1761	C176	0.467100	0.191800	0.944800
N11	N1	0.192880	0.889560	0.818200
N21	N2	0.807120	0.110440	0.318200
N31	N3	0.696680	0.889560	0.681800
N41	N4	0.303320	0.110440	0.181800
Cl11	Cl1	0.995810	0.895420	0.000220
Cl21	Cl2	0.119740	0.536440	0.283930
Cl31	Cl3	0.915570	0.101540	0.796500
Cl41	Cl4	0.004190	0.104580	0.500220
Cl51	Cl5	0.880260	0.463560	0.783930
Cl61	Cl6	0.084430	0.898460	0.296500
Cl71	Cl7	0.899610	0.895420	0.499780
Cl81	Cl8	0.416700	0.536440	0.216070
Cl91	Cl9	0.185970	0.101540	0.703500
Cl101	Cl10	0.100390	0.104580	0.999780
Cl111	Cl11	0.583300	0.463560	0.716070
Cl121	Cl12	0.814030	0.898460	0.203500
O11	O1	0.195030	0.756460	0.882420
O21	O2	0.083690	0.663780	0.832610
O31	O3	0.985330	0.453660	0.984900
O41	O4	0.634530	0.321060	0.187500
O51	O5	0.798170	0.315540	0.214900
O61	O6	0.757270	0.458140	0.008030
O71	O7	0.406560	0.843520	0.809900
O81	O8	0.580620	0.859240	0.788200
O91	O9	0.425880	0.891760	0.008200
O101	O10	0.804970	0.243540	0.382420
O111	O11	0.916310	0.336220	0.332610
O121	O12	0.014670	0.546340	0.484900
O131	O13	0.365470	0.678940	0.687500
O141	O14	0.201830	0.684460	0.714900
O151	O15	0.242730	0.541860	0.508030
O161	O16	0.593440	0.156480	0.309900
O171	O17	0.419380	0.140760	0.288200
O181	O18	0.574120	0.108240	0.508200
O191	O19	0.561430	0.756460	0.617580
O201	O20	0.580090	0.663780	0.667390
O211	O21	0.468330	0.453660	0.515100
O221	O22	0.686530	0.321060	0.312500
O231	O23	0.517370	0.315540	0.285100
O241	O24	0.700870	0.458140	0.491970
O251	O25	0.436960	0.843520	0.690100
O261	O26	0.278620	0.859240	0.711800
O271	O27	0.465880	0.891760	0.491800
O281	O28	0.438570	0.243540	0.117580
O291	O29	0.419910	0.336220	0.167390
O301	O30	0.531670	0.546340	0.015100
O311	O31	0.313470	0.678940	0.812500
O321	O32	0.482630	0.684460	0.785100
O331	O33	0.299130	0.541860	0.991970
O341	O34	0.563040	0.156480	0.190100
O351	O35	0.721380	0.140760	0.211800
O361	O36	0.534120	0.108240	0.991800
