data_XONLES01_clean_PM
_symmetry_space_group_name_H-M	'P1'
_cell_length_a	24.502100
_cell_length_b	24.502100
_cell_length_c	71.808800
_cell_angle_alpha	90.000000
_cell_angle_beta	90.000000
_cell_angle_gamma	90.000000
_symmetry_Int_Tables_number 1

loop_
_symmetry_equiv_pos_as_xyz
'x,y,z'

loop_
_atom_site_label
_atom_site_type_symbol
_atom_site_fract_x
_atom_site_fract_y
_atom_site_fract_z
O11	O1	0.929800	0.007540	0.116810
O21	O2	0.995690	0.072680	0.118140
O31	O3	0.926100	0.488310	0.094700
C11	C1	0.949600	0.051100	0.112100
C21	C2	0.873780	0.141390	0.067560
C31	C3	0.850300	0.094010	0.074490
H11	H1	0.817200	0.081300	0.069600
C41	C4	0.875800	0.065380	0.088670
H21	H2	0.860000	0.033300	0.093400
C51	C5	0.924870	0.084120	0.095930
C61	C6	0.948340	0.131490	0.089010
H31	H3	0.981500	0.144200	0.093900
C71	C7	0.922800	0.160120	0.074830
H41	H4	0.938700	0.192200	0.070100
Cu11	Cu1	0.960260	0.964110	0.136670
C81	C8	0.826400	0.259000	0.035810
C91	C9	0.829230	0.315540	0.035080
C101	C10	0.803000	0.343640	0.020910
H51	H5	0.805000	0.381900	0.020400
C111	C11	0.774050	0.315220	0.007470
C121	C12	0.771230	0.258680	0.008200
C131	C13	0.797400	0.230570	0.022370
C141	C14	0.849600	0.229000	0.050800
H61	H6	0.867200	0.248100	0.060400
C151	C15	0.847100	0.173100	0.051750
C161	C16	0.817100	0.143800	0.037770
H71	H7	0.814700	0.105500	0.038100
C171	C17	0.791600	0.173200	0.023760
H81	H8	0.770100	0.154700	0.015000
C181	C18	0.862680	0.350810	0.049050
C191	C19	0.837580	0.394250	0.058000
H91	H9	0.800900	0.402400	0.055500
C201	C20	0.866750	0.425570	0.070630
H101	H10	0.849800	0.454900	0.076700
C211	C21	0.921030	0.413450	0.074310
C221	C22	0.946130	0.370010	0.065350
H111	H11	0.982800	0.361800	0.067800
C231	C23	0.916960	0.338690	0.052720
H121	H12	0.933900	0.309300	0.046700
O41	O4	0.998200	0.429290	0.093380
C241	C24	0.951900	0.446700	0.089280
O51	O5	0.748500	0.340800	0.993130
C251	C25	0.768300	0.398800	0.989600
C261	C26	0.731500	0.427300	0.974700
C271	C27	0.726500	0.395200	0.996900
C281	C28	0.676000	0.392200	0.009400
O61	O6	0.429800	0.507540	0.616810
O71	O7	0.495690	0.572680	0.618140
O81	O8	0.426100	0.988310	0.594700
C291	C29	0.449600	0.551100	0.612100
C301	C30	0.373780	0.641390	0.567560
C311	C31	0.350300	0.594010	0.574490
H131	H13	0.317200	0.581300	0.569600
C321	C32	0.375800	0.565380	0.588670
H141	H14	0.360000	0.533300	0.593400
C331	C33	0.424870	0.584120	0.595930
C341	C34	0.448340	0.631490	0.589010
H151	H15	0.481500	0.644200	0.593900
C351	C35	0.422800	0.660120	0.574830
H161	H16	0.438700	0.692200	0.570100
Cu21	Cu2	0.460260	0.464110	0.636670
C361	C36	0.326400	0.759000	0.535810
C371	C37	0.329230	0.815540	0.535080
C381	C38	0.303000	0.843640	0.520910
H171	H17	0.305000	0.881900	0.520400
C391	C39	0.274050	0.815220	0.507470
C401	C40	0.271230	0.758680	0.508200
C411	C41	0.297400	0.730570	0.522370
C421	C42	0.349600	0.729000	0.550800
H181	H18	0.367200	0.748100	0.560400
C431	C43	0.347100	0.673100	0.551750
C441	C44	0.317100	0.643800	0.537770
H191	H19	0.314700	0.605500	0.538100
C451	C45	0.291600	0.673200	0.523760
H201	H20	0.270100	0.654700	0.515000
C461	C46	0.362680	0.850810	0.549050
C471	C47	0.337580	0.894250	0.558000
H211	H21	0.300900	0.902400	0.555500
C481	C48	0.366750	0.925570	0.570630
H221	H22	0.349800	0.954900	0.576700
C491	C49	0.421030	0.913450	0.574310
C501	C50	0.446130	0.870010	0.565350
H231	H23	0.482800	0.861800	0.567800
C511	C51	0.416960	0.838690	0.552720
H241	H24	0.433900	0.809300	0.546700
O91	O9	0.498200	0.929290	0.593380
C521	C52	0.451900	0.946700	0.589280
O101	O10	0.248500	0.840800	0.493130
C531	C53	0.268300	0.898800	0.489600
C541	C54	0.231500	0.927300	0.474700
C551	C55	0.226500	0.895200	0.496900
C561	C56	0.176000	0.892200	0.509400
O111	O11	0.570200	0.492460	0.616810
O121	O12	0.504310	0.427320	0.618140
O131	O13	0.573900	0.011690	0.594700
C571	C57	0.550400	0.448900	0.612100
C581	C58	0.626220	0.358610	0.567560
C591	C59	0.649700	0.405990	0.574490
H251	H25	0.682800	0.418700	0.569600
C601	C60	0.624200	0.434620	0.588670
H261	H26	0.640000	0.466700	0.593400
C611	C61	0.575130	0.415880	0.595930
C621	C62	0.551660	0.368510	0.589010
H271	H27	0.518500	0.355800	0.593900
C631	C63	0.577200	0.339880	0.574830
H281	H28	0.561300	0.307800	0.570100
Cu31	Cu3	0.539740	0.535890	0.636670
C641	C64	0.673600	0.241000	0.535810
C651	C65	0.670770	0.184460	0.535080
C661	C66	0.697000	0.156360	0.520910
H291	H29	0.695000	0.118100	0.520400
C671	C67	0.725950	0.184780	0.507470
C681	C68	0.728770	0.241320	0.508200
C691	C69	0.702600	0.269430	0.522370
C701	C70	0.650400	0.271000	0.550800
H301	H30	0.632800	0.251900	0.560400
C711	C71	0.652900	0.326900	0.551750
C721	C72	0.682900	0.356200	0.537770
H311	H31	0.685300	0.394500	0.538100
C731	C73	0.708400	0.326800	0.523760
H321	H32	0.729900	0.345300	0.515000
C741	C74	0.637320	0.149190	0.549050
C751	C75	0.662420	0.105750	0.558000
H331	H33	0.699100	0.097600	0.555500
C761	C76	0.633250	0.074430	0.570630
H341	H34	0.650200	0.045100	0.576700
C771	C77	0.578970	0.086550	0.574310
C781	C78	0.553870	0.129990	0.565350
H351	H35	0.517200	0.138200	0.567800
C791	C79	0.583040	0.161310	0.552720
H361	H36	0.566100	0.190700	0.546700
O141	O14	0.501800	0.070710	0.593380
C801	C80	0.548100	0.053300	0.589280
O151	O15	0.751500	0.159200	0.493130
C811	C81	0.731700	0.101200	0.489600
C821	C82	0.768500	0.072700	0.474700
C831	C83	0.773500	0.104800	0.496900
C841	C84	0.824000	0.107800	0.509400
O161	O16	0.070200	0.992460	0.116810
O171	O17	0.004310	0.927320	0.118140
O181	O18	0.073900	0.511690	0.094700
C851	C85	0.050400	0.948900	0.112100
C861	C86	0.126220	0.858610	0.067560
C871	C87	0.149700	0.905990	0.074490
H371	H37	0.182800	0.918700	0.069600
C881	C88	0.124200	0.934620	0.088670
H381	H38	0.140000	0.966700	0.093400
C891	C89	0.075130	0.915880	0.095930
C901	C90	0.051660	0.868510	0.089010
H391	H39	0.018500	0.855800	0.093900
C911	C91	0.077200	0.839880	0.074830
H401	H40	0.061300	0.807800	0.070100
Cu41	Cu4	0.039740	0.035890	0.136670
C921	C92	0.173600	0.741000	0.035810
C931	C93	0.170770	0.684460	0.035080
C941	C94	0.197000	0.656360	0.020910
H411	H41	0.195000	0.618100	0.020400
C951	C95	0.225950	0.684780	0.007470
C961	C96	0.228770	0.741320	0.008200
C971	C97	0.202600	0.769430	0.022370
C981	C98	0.150400	0.771000	0.050800
H421	H42	0.132800	0.751900	0.060400
C991	C99	0.152900	0.826900	0.051750
C1001	C100	0.182900	0.856200	0.037770
H431	H43	0.185300	0.894500	0.038100
C1011	C101	0.208400	0.826800	0.023760
H441	H44	0.229900	0.845300	0.015000
C1021	C102	0.137320	0.649190	0.049050
C1031	C103	0.162420	0.605750	0.058000
H451	H45	0.199100	0.597600	0.055500
C1041	C104	0.133250	0.574430	0.070630
H461	H46	0.150200	0.545100	0.076700
C1051	C105	0.078970	0.586550	0.074310
C1061	C106	0.053870	0.629990	0.065350
H471	H47	0.017200	0.638200	0.067800
C1071	C107	0.083040	0.661310	0.052720
H481	H48	0.066100	0.690700	0.046700
O191	O19	0.001800	0.570710	0.093380
C1081	C108	0.048100	0.553300	0.089280
O201	O20	0.251500	0.659200	0.993130
C1091	C109	0.231700	0.601200	0.989600
C1101	C110	0.268500	0.572700	0.974700
C1111	C111	0.273500	0.604800	0.996900
C1121	C112	0.324000	0.607800	0.009400
O211	O21	0.992460	0.429800	0.366810
O221	O22	0.927320	0.495690	0.368140
O231	O23	0.511690	0.426100	0.344700
C1131	C113	0.948900	0.449600	0.362100
C1141	C114	0.858610	0.373780	0.317560
C1151	C115	0.905990	0.350300	0.324490
H491	H49	0.918700	0.317200	0.319600
C1161	C116	0.934620	0.375800	0.338670
H501	H50	0.966700	0.360000	0.343400
C1171	C117	0.915880	0.424870	0.345930
C1181	C118	0.868510	0.448340	0.339010
H511	H51	0.855800	0.481500	0.343900
C1191	C119	0.839880	0.422800	0.324830
H521	H52	0.807800	0.438700	0.320100
Cu51	Cu5	0.035890	0.460260	0.386670
C1201	C120	0.741000	0.326400	0.285810
C1211	C121	0.684460	0.329230	0.285080
C1221	C122	0.656360	0.303000	0.270910
H531	H53	0.618100	0.305000	0.270400
C1231	C123	0.684780	0.274050	0.257470
C1241	C124	0.741320	0.271230	0.258200
C1251	C125	0.769430	0.297400	0.272370
C1261	C126	0.771000	0.349600	0.300800
H541	H54	0.751900	0.367200	0.310400
C1271	C127	0.826900	0.347100	0.301750
C1281	C128	0.856200	0.317100	0.287770
H551	H55	0.894500	0.314700	0.288100
C1291	C129	0.826800	0.291600	0.273760
H561	H56	0.845300	0.270100	0.265000
C1301	C130	0.649190	0.362680	0.299050
C1311	C131	0.605750	0.337580	0.308000
H571	H57	0.597600	0.300900	0.305500
C1321	C132	0.574430	0.366750	0.320630
H581	H58	0.545100	0.349800	0.326700
C1331	C133	0.586550	0.421030	0.324310
C1341	C134	0.629990	0.446130	0.315350
H591	H59	0.638200	0.482800	0.317800
C1351	C135	0.661310	0.416960	0.302720
H601	H60	0.690700	0.433900	0.296700
O241	O24	0.570710	0.498200	0.343380
C1361	C136	0.553300	0.451900	0.339280
O251	O25	0.659200	0.248500	0.243130
C1371	C137	0.601200	0.268300	0.239600
C1381	C138	0.572700	0.231500	0.224700
C1391	C139	0.604800	0.226500	0.246900
C1401	C140	0.607800	0.176000	0.259400
O261	O26	0.492460	0.929800	0.866810
O271	O27	0.427320	0.995690	0.868140
O281	O28	0.011690	0.926100	0.844700
C1411	C141	0.448900	0.949600	0.862100
C1421	C142	0.358610	0.873780	0.817560
C1431	C143	0.405990	0.850300	0.824490
H611	H61	0.418700	0.817200	0.819600
C1441	C144	0.434620	0.875800	0.838670
H621	H62	0.466700	0.860000	0.843400
C1451	C145	0.415880	0.924870	0.845930
C1461	C146	0.368510	0.948340	0.839010
H631	H63	0.355800	0.981500	0.843900
C1471	C147	0.339880	0.922800	0.824830
H641	H64	0.307800	0.938700	0.820100
Cu61	Cu6	0.535890	0.960260	0.886670
C1481	C148	0.241000	0.826400	0.785810
C1491	C149	0.184460	0.829230	0.785080
C1501	C150	0.156360	0.803000	0.770910
H651	H65	0.118100	0.805000	0.770400
C1511	C151	0.184780	0.774050	0.757470
C1521	C152	0.241320	0.771230	0.758200
C1531	C153	0.269430	0.797400	0.772370
C1541	C154	0.271000	0.849600	0.800800
H661	H66	0.251900	0.867200	0.810400
C1551	C155	0.326900	0.847100	0.801750
C1561	C156	0.356200	0.817100	0.787770
H671	H67	0.394500	0.814700	0.788100
C1571	C157	0.326800	0.791600	0.773760
H681	H68	0.345300	0.770100	0.765000
C1581	C158	0.149190	0.862680	0.799050
C1591	C159	0.105750	0.837580	0.808000
H691	H69	0.097600	0.800900	0.805500
C1601	C160	0.074430	0.866750	0.820630
H701	H70	0.045100	0.849800	0.826700
C1611	C161	0.086550	0.921030	0.824310
C1621	C162	0.129990	0.946130	0.815350
H711	H71	0.138200	0.982800	0.817800
C1631	C163	0.161310	0.916960	0.802720
H721	H72	0.190700	0.933900	0.796700
O291	O29	0.070710	0.998200	0.843380
C1641	C164	0.053300	0.951900	0.839280
O301	O30	0.159200	0.748500	0.743130
C1651	C165	0.101200	0.768300	0.739600
C1661	C166	0.072700	0.731500	0.724700
C1671	C167	0.104800	0.726500	0.746900
C1681	C168	0.107800	0.676000	0.759400
O311	O31	0.507540	0.070200	0.866810
O321	O32	0.572680	0.004310	0.868140
O331	O33	0.988310	0.073900	0.844700
C1691	C169	0.551100	0.050400	0.862100
C1701	C170	0.641390	0.126220	0.817560
C1711	C171	0.594010	0.149700	0.824490
H731	H73	0.581300	0.182800	0.819600
C1721	C172	0.565380	0.124200	0.838670
H741	H74	0.533300	0.140000	0.843400
C1731	C173	0.584120	0.075130	0.845930
C1741	C174	0.631490	0.051660	0.839010
H751	H75	0.644200	0.018500	0.843900
C1751	C175	0.660120	0.077200	0.824830
H761	H76	0.692200	0.061300	0.820100
Cu71	Cu7	0.464110	0.039740	0.886670
C1761	C176	0.759000	0.173600	0.785810
C1771	C177	0.815540	0.170770	0.785080
C1781	C178	0.843640	0.197000	0.770910
H771	H77	0.881900	0.195000	0.770400
C1791	C179	0.815220	0.225950	0.757470
C1801	C180	0.758680	0.228770	0.758200
C1811	C181	0.730570	0.202600	0.772370
C1821	C182	0.729000	0.150400	0.800800
H781	H78	0.748100	0.132800	0.810400
C1831	C183	0.673100	0.152900	0.801750
C1841	C184	0.643800	0.182900	0.787770
H791	H79	0.605500	0.185300	0.788100
C1851	C185	0.673200	0.208400	0.773760
H801	H80	0.654700	0.229900	0.765000
C1861	C186	0.850810	0.137320	0.799050
C1871	C187	0.894250	0.162420	0.808000
H811	H81	0.902400	0.199100	0.805500
C1881	C188	0.925570	0.133250	0.820630
H821	H82	0.954900	0.150200	0.826700
C1891	C189	0.913450	0.078970	0.824310
C1901	C190	0.870010	0.053870	0.815350
H831	H83	0.861800	0.017200	0.817800
C1911	C191	0.838690	0.083040	0.802720
H841	H84	0.809300	0.066100	0.796700
O341	O34	0.929290	0.001800	0.843380
C1921	C192	0.946700	0.048100	0.839280
O351	O35	0.840800	0.251500	0.743130
C1931	C193	0.898800	0.231700	0.739600
C1941	C194	0.927300	0.268500	0.724700
C1951	C195	0.895200	0.273500	0.746900
C1961	C196	0.892200	0.324000	0.759400
O361	O36	0.007540	0.570200	0.366810
O371	O37	0.072680	0.504310	0.368140
O381	O38	0.488310	0.573900	0.344700
C1971	C197	0.051100	0.550400	0.362100
C1981	C198	0.141390	0.626220	0.317560
C1991	C199	0.094010	0.649700	0.324490
H851	H85	0.081300	0.682800	0.319600
C2001	C200	0.065380	0.624200	0.338670
H861	H86	0.033300	0.640000	0.343400
C2011	C201	0.084120	0.575130	0.345930
C2021	C202	0.131490	0.551660	0.339010
H871	H87	0.144200	0.518500	0.343900
C2031	C203	0.160120	0.577200	0.324830
H881	H88	0.192200	0.561300	0.320100
Cu81	Cu8	0.964110	0.539740	0.386670
C2041	C204	0.259000	0.673600	0.285810
C2051	C205	0.315540	0.670770	0.285080
C2061	C206	0.343640	0.697000	0.270910
H891	H89	0.381900	0.695000	0.270400
C2071	C207	0.315220	0.725950	0.257470
C2081	C208	0.258680	0.728770	0.258200
C2091	C209	0.230570	0.702600	0.272370
C2101	C210	0.229000	0.650400	0.300800
H901	H90	0.248100	0.632800	0.310400
C2111	C211	0.173100	0.652900	0.301750
C2121	C212	0.143800	0.682900	0.287770
H911	H91	0.105500	0.685300	0.288100
C2131	C213	0.173200	0.708400	0.273760
H921	H92	0.154700	0.729900	0.265000
C2141	C214	0.350810	0.637320	0.299050
C2151	C215	0.394250	0.662420	0.308000
H931	H93	0.402400	0.699100	0.305500
C2161	C216	0.425570	0.633250	0.320630
H941	H94	0.454900	0.650200	0.326700
C2171	C217	0.413450	0.578970	0.324310
C2181	C218	0.370010	0.553870	0.315350
H951	H95	0.361800	0.517200	0.317800
C2191	C219	0.338690	0.583040	0.302720
H961	H96	0.309300	0.566100	0.296700
O391	O39	0.429290	0.501800	0.343380
C2201	C220	0.446700	0.548100	0.339280
O401	O40	0.340800	0.751500	0.243130
C2211	C221	0.398800	0.731700	0.239600
C2221	C222	0.427300	0.768500	0.224700
C2231	C223	0.395200	0.773500	0.246900
C2241	C224	0.392200	0.824000	0.259400
O411	O41	0.570200	0.007540	0.633190
O421	O42	0.504310	0.072680	0.631860
O431	O43	0.573900	0.488310	0.655300
C2251	C225	0.550400	0.051100	0.637900
C2261	C226	0.626220	0.141390	0.682440
C2271	C227	0.649700	0.094010	0.675510
H971	H97	0.682800	0.081300	0.680400
C2281	C228	0.624200	0.065380	0.661330
H981	H98	0.640000	0.033300	0.656600
C2291	C229	0.575130	0.084120	0.654070
C2301	C230	0.551660	0.131490	0.660990
H991	H99	0.518500	0.144200	0.656100
C2311	C231	0.577200	0.160120	0.675170
H1001	H100	0.561300	0.192200	0.679900
Cu91	Cu9	0.539740	0.964110	0.613330
C2321	C232	0.673600	0.259000	0.714190
C2331	C233	0.670770	0.315540	0.714920
C2341	C234	0.697000	0.343640	0.729090
H1011	H101	0.695000	0.381900	0.729600
C2351	C235	0.725950	0.315220	0.742530
C2361	C236	0.728770	0.258680	0.741800
C2371	C237	0.702600	0.230570	0.727630
C2381	C238	0.650400	0.229000	0.699200
H1021	H102	0.632800	0.248100	0.689600
C2391	C239	0.652900	0.173100	0.698250
C2401	C240	0.682900	0.143800	0.712230
H1031	H103	0.685300	0.105500	0.711900
C2411	C241	0.708400	0.173200	0.726240
H1041	H104	0.729900	0.154700	0.735000
C2421	C242	0.637320	0.350810	0.700950
C2431	C243	0.662420	0.394250	0.692000
H1051	H105	0.699100	0.402400	0.694500
C2441	C244	0.633250	0.425570	0.679370
H1061	H106	0.650200	0.454900	0.673300
C2451	C245	0.578970	0.413450	0.675690
C2461	C246	0.553870	0.370010	0.684650
H1071	H107	0.517200	0.361800	0.682200
C2471	C247	0.583040	0.338690	0.697280
H1081	H108	0.566100	0.309300	0.703300
O441	O44	0.501800	0.429290	0.656620
C2481	C248	0.548100	0.446700	0.660720
O451	O45	0.751500	0.340800	0.756870
C2491	C249	0.731700	0.398800	0.760400
C2501	C250	0.768500	0.427300	0.775300
C2511	C251	0.773500	0.395200	0.753100
C2521	C252	0.824000	0.392200	0.740600
O461	O46	0.070200	0.507540	0.133190
O471	O47	0.004310	0.572680	0.131860
O481	O48	0.073900	0.988310	0.155300
C2531	C253	0.050400	0.551100	0.137900
C2541	C254	0.126220	0.641390	0.182440
C2551	C255	0.149700	0.594010	0.175510
H1091	H109	0.182800	0.581300	0.180400
C2561	C256	0.124200	0.565380	0.161330
H1101	H110	0.140000	0.533300	0.156600
C2571	C257	0.075130	0.584120	0.154070
C2581	C258	0.051660	0.631490	0.160990
H1111	H111	0.018500	0.644200	0.156100
C2591	C259	0.077200	0.660120	0.175170
H1121	H112	0.061300	0.692200	0.179900
Cu101	Cu10	0.039740	0.464110	0.113330
C2601	C260	0.173600	0.759000	0.214190
C2611	C261	0.170770	0.815540	0.214920
C2621	C262	0.197000	0.843640	0.229090
H1131	H113	0.195000	0.881900	0.229600
C2631	C263	0.225950	0.815220	0.242530
C2641	C264	0.228770	0.758680	0.241800
C2651	C265	0.202600	0.730570	0.227630
C2661	C266	0.150400	0.729000	0.199200
H1141	H114	0.132800	0.748100	0.189600
C2671	C267	0.152900	0.673100	0.198250
C2681	C268	0.182900	0.643800	0.212230
H1151	H115	0.185300	0.605500	0.211900
C2691	C269	0.208400	0.673200	0.226240
H1161	H116	0.229900	0.654700	0.235000
C2701	C270	0.137320	0.850810	0.200950
C2711	C271	0.162420	0.894250	0.192000
H1171	H117	0.199100	0.902400	0.194500
C2721	C272	0.133250	0.925570	0.179370
H1181	H118	0.150200	0.954900	0.173300
C2731	C273	0.078970	0.913450	0.175690
C2741	C274	0.053870	0.870010	0.184650
H1191	H119	0.017200	0.861800	0.182200
C2751	C275	0.083040	0.838690	0.197280
H1201	H120	0.066100	0.809300	0.203300
O491	O49	0.001800	0.929290	0.156620
C2761	C276	0.048100	0.946700	0.160720
O501	O50	0.251500	0.840800	0.256870
C2771	C277	0.231700	0.898800	0.260400
C2781	C278	0.268500	0.927300	0.275300
C2791	C279	0.273500	0.895200	0.253100
C2801	C280	0.324000	0.892200	0.240600
O511	O51	0.929800	0.492460	0.133190
O521	O52	0.995690	0.427320	0.131860
O531	O53	0.926100	0.011690	0.155300
C2811	C281	0.949600	0.448900	0.137900
C2821	C282	0.873780	0.358610	0.182440
C2831	C283	0.850300	0.405990	0.175510
H1211	H121	0.817200	0.418700	0.180400
C2841	C284	0.875800	0.434620	0.161330
H1221	H122	0.860000	0.466700	0.156600
C2851	C285	0.924870	0.415880	0.154070
C2861	C286	0.948340	0.368510	0.160990
H1231	H123	0.981500	0.355800	0.156100
C2871	C287	0.922800	0.339880	0.175170
H1241	H124	0.938700	0.307800	0.179900
Cu111	Cu11	0.960260	0.535890	0.113330
C2881	C288	0.826400	0.241000	0.214190
C2891	C289	0.829230	0.184460	0.214920
C2901	C290	0.803000	0.156360	0.229090
H1251	H125	0.805000	0.118100	0.229600
C2911	C291	0.774050	0.184780	0.242530
C2921	C292	0.771230	0.241320	0.241800
C2931	C293	0.797400	0.269430	0.227630
C2941	C294	0.849600	0.271000	0.199200
H1261	H126	0.867200	0.251900	0.189600
C2951	C295	0.847100	0.326900	0.198250
C2961	C296	0.817100	0.356200	0.212230
H1271	H127	0.814700	0.394500	0.211900
C2971	C297	0.791600	0.326800	0.226240
H1281	H128	0.770100	0.345300	0.235000
C2981	C298	0.862680	0.149190	0.200950
C2991	C299	0.837580	0.105750	0.192000
H1291	H129	0.800900	0.097600	0.194500
C3001	C300	0.866750	0.074430	0.179370
H1301	H130	0.849800	0.045100	0.173300
C3011	C301	0.921030	0.086550	0.175690
C3021	C302	0.946130	0.129990	0.184650
H1311	H131	0.982800	0.138200	0.182200
C3031	C303	0.916960	0.161310	0.197280
H1321	H132	0.933900	0.190700	0.203300
O541	O54	0.998200	0.070710	0.156620
C3041	C304	0.951900	0.053300	0.160720
O551	O55	0.748500	0.159200	0.256870
C3051	C305	0.768300	0.101200	0.260400
C3061	C306	0.731500	0.072700	0.275300
C3071	C307	0.726500	0.104800	0.253100
C3081	C308	0.676000	0.107800	0.240600
O561	O56	0.429800	0.992460	0.633190
O571	O57	0.495690	0.927320	0.631860
O581	O58	0.426100	0.511690	0.655300
C3091	C309	0.449600	0.948900	0.637900
C3101	C310	0.373780	0.858610	0.682440
C3111	C311	0.350300	0.905990	0.675510
H1331	H133	0.317200	0.918700	0.680400
C3121	C312	0.375800	0.934620	0.661330
H1341	H134	0.360000	0.966700	0.656600
C3131	C313	0.424870	0.915880	0.654070
C3141	C314	0.448340	0.868510	0.660990
H1351	H135	0.481500	0.855800	0.656100
C3151	C315	0.422800	0.839880	0.675170
H1361	H136	0.438700	0.807800	0.679900
Cu121	Cu12	0.460260	0.035890	0.613330
C3161	C316	0.326400	0.741000	0.714190
C3171	C317	0.329230	0.684460	0.714920
C3181	C318	0.303000	0.656360	0.729090
H1371	H137	0.305000	0.618100	0.729600
C3191	C319	0.274050	0.684780	0.742530
C3201	C320	0.271230	0.741320	0.741800
C3211	C321	0.297400	0.769430	0.727630
C3221	C322	0.349600	0.771000	0.699200
H1381	H138	0.367200	0.751900	0.689600
C3231	C323	0.347100	0.826900	0.698250
C3241	C324	0.317100	0.856200	0.712230
H1391	H139	0.314700	0.894500	0.711900
C3251	C325	0.291600	0.826800	0.726240
H1401	H140	0.270100	0.845300	0.735000
C3261	C326	0.362680	0.649190	0.700950
C3271	C327	0.337580	0.605750	0.692000
H1411	H141	0.300900	0.597600	0.694500
C3281	C328	0.366750	0.574430	0.679370
H1421	H142	0.349800	0.545100	0.673300
C3291	C329	0.421030	0.586550	0.675690
C3301	C330	0.446130	0.629990	0.684650
H1431	H143	0.482800	0.638200	0.682200
C3311	C331	0.416960	0.661310	0.697280
H1441	H144	0.433900	0.690700	0.703300
O591	O59	0.498200	0.570710	0.656620
C3321	C332	0.451900	0.553300	0.660720
O601	O60	0.248500	0.659200	0.756870
C3331	C333	0.268300	0.601200	0.760400
C3341	C334	0.231500	0.572700	0.775300
C3351	C335	0.226500	0.604800	0.753100
C3361	C336	0.176000	0.607800	0.740600
O611	O61	0.507540	0.429800	0.383190
O621	O62	0.572680	0.495690	0.381860
O631	O63	0.988310	0.426100	0.405300
C3371	C337	0.551100	0.449600	0.387900
C3381	C338	0.641390	0.373780	0.432440
C3391	C339	0.594010	0.350300	0.425510
H1451	H145	0.581300	0.317200	0.430400
C3401	C340	0.565380	0.375800	0.411330
H1461	H146	0.533300	0.360000	0.406600
C3411	C341	0.584120	0.424870	0.404070
C3421	C342	0.631490	0.448340	0.410990
H1471	H147	0.644200	0.481500	0.406100
C3431	C343	0.660120	0.422800	0.425170
H1481	H148	0.692200	0.438700	0.429900
Cu131	Cu13	0.464110	0.460260	0.363330
C3441	C344	0.759000	0.326400	0.464190
C3451	C345	0.815540	0.329230	0.464920
C3461	C346	0.843640	0.303000	0.479090
H1491	H149	0.881900	0.305000	0.479600
C3471	C347	0.815220	0.274050	0.492530
C3481	C348	0.758680	0.271230	0.491800
C3491	C349	0.730570	0.297400	0.477630
C3501	C350	0.729000	0.349600	0.449200
H1501	H150	0.748100	0.367200	0.439600
C3511	C351	0.673100	0.347100	0.448250
C3521	C352	0.643800	0.317100	0.462230
H1511	H151	0.605500	0.314700	0.461900
C3531	C353	0.673200	0.291600	0.476240
H1521	H152	0.654700	0.270100	0.485000
C3541	C354	0.850810	0.362680	0.450950
C3551	C355	0.894250	0.337580	0.442000
H1531	H153	0.902400	0.300900	0.444500
C3561	C356	0.925570	0.366750	0.429370
H1541	H154	0.954900	0.349800	0.423300
C3571	C357	0.913450	0.421030	0.425690
C3581	C358	0.870010	0.446130	0.434650
H1551	H155	0.861800	0.482800	0.432200
C3591	C359	0.838690	0.416960	0.447280
H1561	H156	0.809300	0.433900	0.453300
O641	O64	0.929290	0.498200	0.406620
C3601	C360	0.946700	0.451900	0.410720
O651	O65	0.840800	0.248500	0.506870
C3611	C361	0.898800	0.268300	0.510400
C3621	C362	0.927300	0.231500	0.525300
C3631	C363	0.895200	0.226500	0.503100
C3641	C364	0.892200	0.176000	0.490600
O661	O66	0.007540	0.929800	0.883190
O671	O67	0.072680	0.995690	0.881860
O681	O68	0.488310	0.926100	0.905300
C3651	C365	0.051100	0.949600	0.887900
C3661	C366	0.141390	0.873780	0.932440
C3671	C367	0.094010	0.850300	0.925510
H1571	H157	0.081300	0.817200	0.930400
C3681	C368	0.065380	0.875800	0.911330
H1581	H158	0.033300	0.860000	0.906600
C3691	C369	0.084120	0.924870	0.904070
C3701	C370	0.131490	0.948340	0.910990
H1591	H159	0.144200	0.981500	0.906100
C3711	C371	0.160120	0.922800	0.925170
H1601	H160	0.192200	0.938700	0.929900
Cu141	Cu14	0.964110	0.960260	0.863330
C3721	C372	0.259000	0.826400	0.964190
C3731	C373	0.315540	0.829230	0.964920
C3741	C374	0.343640	0.803000	0.979090
H1611	H161	0.381900	0.805000	0.979600
C3751	C375	0.315220	0.774050	0.992530
C3761	C376	0.258680	0.771230	0.991800
C3771	C377	0.230570	0.797400	0.977630
C3781	C378	0.229000	0.849600	0.949200
H1621	H162	0.248100	0.867200	0.939600
C3791	C379	0.173100	0.847100	0.948250
C3801	C380	0.143800	0.817100	0.962230
H1631	H163	0.105500	0.814700	0.961900
C3811	C381	0.173200	0.791600	0.976240
H1641	H164	0.154700	0.770100	0.985000
C3821	C382	0.350810	0.862680	0.950950
C3831	C383	0.394250	0.837580	0.942000
H1651	H165	0.402400	0.800900	0.944500
C3841	C384	0.425570	0.866750	0.929370
H1661	H166	0.454900	0.849800	0.923300
C3851	C385	0.413450	0.921030	0.925690
C3861	C386	0.370010	0.946130	0.934650
H1671	H167	0.361800	0.982800	0.932200
C3871	C387	0.338690	0.916960	0.947280
H1681	H168	0.309300	0.933900	0.953300
O691	O69	0.429290	0.998200	0.906620
C3881	C388	0.446700	0.951900	0.910720
O701	O70	0.340800	0.748500	0.006870
C3891	C389	0.398800	0.768300	0.010400
C3901	C390	0.427300	0.731500	0.025300
C3911	C391	0.395200	0.726500	0.003100
C3921	C392	0.392200	0.676000	0.990600
O711	O71	0.992460	0.070200	0.883190
O721	O72	0.927320	0.004310	0.881860
O731	O73	0.511690	0.073900	0.905300
C3931	C393	0.948900	0.050400	0.887900
C3941	C394	0.858610	0.126220	0.932440
C3951	C395	0.905990	0.149700	0.925510
H1691	H169	0.918700	0.182800	0.930400
C3961	C396	0.934620	0.124200	0.911330
H1701	H170	0.966700	0.140000	0.906600
C3971	C397	0.915880	0.075130	0.904070
C3981	C398	0.868510	0.051660	0.910990
H1711	H171	0.855800	0.018500	0.906100
C3991	C399	0.839880	0.077200	0.925170
H1721	H172	0.807800	0.061300	0.929900
Cu151	Cu15	0.035890	0.039740	0.863330
C4001	C400	0.741000	0.173600	0.964190
C4011	C401	0.684460	0.170770	0.964920
C4021	C402	0.656360	0.197000	0.979090
H1731	H173	0.618100	0.195000	0.979600
C4031	C403	0.684780	0.225950	0.992530
C4041	C404	0.741320	0.228770	0.991800
C4051	C405	0.769430	0.202600	0.977630
C4061	C406	0.771000	0.150400	0.949200
H1741	H174	0.751900	0.132800	0.939600
C4071	C407	0.826900	0.152900	0.948250
C4081	C408	0.856200	0.182900	0.962230
H1751	H175	0.894500	0.185300	0.961900
C4091	C409	0.826800	0.208400	0.976240
H1761	H176	0.845300	0.229900	0.985000
C4101	C410	0.649190	0.137320	0.950950
C4111	C411	0.605750	0.162420	0.942000
H1771	H177	0.597600	0.199100	0.944500
C4121	C412	0.574430	0.133250	0.929370
H1781	H178	0.545100	0.150200	0.923300
C4131	C413	0.586550	0.078970	0.925690
C4141	C414	0.629990	0.053870	0.934650
H1791	H179	0.638200	0.017200	0.932200
C4151	C415	0.661310	0.083040	0.947280
H1801	H180	0.690700	0.066100	0.953300
O741	O74	0.570710	0.001800	0.906620
C4161	C416	0.553300	0.048100	0.910720
O751	O75	0.659200	0.251500	0.006870
C4171	C417	0.601200	0.231700	0.010400
C4181	C418	0.572700	0.268500	0.025300
C4191	C419	0.604800	0.273500	0.003100
C4201	C420	0.607800	0.324000	0.990600
O761	O76	0.492460	0.570200	0.383190
O771	O77	0.427320	0.504310	0.381860
O781	O78	0.011690	0.573900	0.405300
C4211	C421	0.448900	0.550400	0.387900
C4221	C422	0.358610	0.626220	0.432440
C4231	C423	0.405990	0.649700	0.425510
H1811	H181	0.418700	0.682800	0.430400
C4241	C424	0.434620	0.624200	0.411330
H1821	H182	0.466700	0.640000	0.406600
C4251	C425	0.415880	0.575130	0.404070
C4261	C426	0.368510	0.551660	0.410990
H1831	H183	0.355800	0.518500	0.406100
C4271	C427	0.339880	0.577200	0.425170
H1841	H184	0.307800	0.561300	0.429900
Cu161	Cu16	0.535890	0.539740	0.363330
C4281	C428	0.241000	0.673600	0.464190
C4291	C429	0.184460	0.670770	0.464920
C4301	C430	0.156360	0.697000	0.479090
H1851	H185	0.118100	0.695000	0.479600
C4311	C431	0.184780	0.725950	0.492530
C4321	C432	0.241320	0.728770	0.491800
C4331	C433	0.269430	0.702600	0.477630
C4341	C434	0.271000	0.650400	0.449200
H1861	H186	0.251900	0.632800	0.439600
C4351	C435	0.326900	0.652900	0.448250
C4361	C436	0.356200	0.682900	0.462230
H1871	H187	0.394500	0.685300	0.461900
C4371	C437	0.326800	0.708400	0.476240
H1881	H188	0.345300	0.729900	0.485000
C4381	C438	0.149190	0.637320	0.450950
C4391	C439	0.105750	0.662420	0.442000
H1891	H189	0.097600	0.699100	0.444500
C4401	C440	0.074430	0.633250	0.429370
H1901	H190	0.045100	0.650200	0.423300
C4411	C441	0.086550	0.578970	0.425690
C4421	C442	0.129990	0.553870	0.434650
H1911	H191	0.138200	0.517200	0.432200
C4431	C443	0.161310	0.583040	0.447280
H1921	H192	0.190700	0.566100	0.453300
O791	O79	0.070710	0.501800	0.406620
C4441	C444	0.053300	0.548100	0.410720
O801	O80	0.159200	0.751500	0.506870
C4451	C445	0.101200	0.731700	0.510400
C4461	C446	0.072700	0.768500	0.525300
C4471	C447	0.104800	0.773500	0.503100
C4481	C448	0.107800	0.824000	0.490600
