data_XOPKOD_clean_PM
_symmetry_space_group_name_H-M	'P1'
_cell_length_a	13.834000
_cell_length_b	13.834000
_cell_length_c	6.162000
_cell_angle_alpha	90.000000
_cell_angle_beta	90.000000
_cell_angle_gamma	90.000000
_symmetry_Int_Tables_number 1

loop_
_symmetry_equiv_pos_as_xyz
'x,y,z'

loop_
_atom_site_label
_atom_site_type_symbol
_atom_site_fract_x
_atom_site_fract_y
_atom_site_fract_z
S11	S1	0.472980	0.601960	0.238560
N11	N1	0.323190	0.651230	0.747300
C11	C1	0.377970	0.558800	0.086200
C21	C2	0.343110	0.472690	0.163900
H11	H1	0.292100	0.438800	0.101700
C31	C3	0.393970	0.441880	0.349100
H21	H2	0.379800	0.385100	0.423200
C41	C4	0.466360	0.503660	0.409300
C51	C5	0.346900	0.609500	0.898600
S21	S2	0.027020	0.898040	0.238560
N21	N2	0.176810	0.848770	0.747300
C61	C6	0.122030	0.941200	0.086200
C71	C7	0.156890	0.027310	0.163900
H31	H3	0.207900	0.061200	0.101700
C81	C8	0.106030	0.058120	0.349100
H41	H4	0.120200	0.114900	0.423200
C91	C9	0.033640	0.996340	0.409300
C101	C10	0.153100	0.890500	0.898600
S31	S3	0.898040	0.472980	0.238560
N31	N3	0.848770	0.323190	0.747300
C111	C11	0.941200	0.377970	0.086200
C121	C12	0.027310	0.343110	0.163900
H51	H5	0.061200	0.292100	0.101700
C131	C13	0.058120	0.393970	0.349100
H61	H6	0.114900	0.379800	0.423200
C141	C14	0.996340	0.466360	0.409300
C151	C15	0.890500	0.346900	0.898600
S41	S4	0.601960	0.027020	0.238560
N41	N4	0.651230	0.176810	0.747300
C161	C16	0.558800	0.122030	0.086200
C171	C17	0.472690	0.156890	0.163900
H71	H7	0.438800	0.207900	0.101700
C181	C18	0.441880	0.106030	0.349100
H81	H8	0.385100	0.120200	0.423200
C191	C19	0.503660	0.033640	0.409300
C201	C20	0.609500	0.153100	0.898600
S51	S5	0.527020	0.398040	0.761440
N51	N5	0.676810	0.348770	0.252700
C211	C21	0.622030	0.441200	0.913800
C221	C22	0.656890	0.527310	0.836100
H91	H9	0.707900	0.561200	0.898300
C231	C23	0.606030	0.558120	0.650900
H101	H10	0.620200	0.614900	0.576800
C241	C24	0.533640	0.496340	0.590700
C251	C25	0.653100	0.390500	0.101400
S61	S6	0.972980	0.101960	0.761440
N61	N6	0.823190	0.151230	0.252700
C261	C26	0.877970	0.058800	0.913800
C271	C27	0.843110	0.972690	0.836100
H111	H11	0.792100	0.938800	0.898300
C281	C28	0.893970	0.941880	0.650900
H121	H12	0.879800	0.885100	0.576800
C291	C29	0.966360	0.003660	0.590700
C301	C30	0.846900	0.109500	0.101400
S71	S7	0.101960	0.527020	0.761440
N71	N7	0.151230	0.676810	0.252700
C311	C31	0.058800	0.622030	0.913800
C321	C32	0.972690	0.656890	0.836100
H131	H13	0.938800	0.707900	0.898300
C331	C33	0.941880	0.606030	0.650900
H141	H14	0.885100	0.620200	0.576800
C341	C34	0.003660	0.533640	0.590700
C351	C35	0.109500	0.653100	0.101400
S81	S8	0.398040	0.972980	0.761440
N81	N8	0.348770	0.823190	0.252700
C361	C36	0.441200	0.877970	0.913800
C371	C37	0.527310	0.843110	0.836100
H151	H15	0.561200	0.792100	0.898300
C381	C38	0.558120	0.893970	0.650900
H161	H16	0.614900	0.879800	0.576800
C391	C39	0.496340	0.966360	0.590700
C401	C40	0.390500	0.846900	0.101400
Ag11	Ag1	0.250000	0.750000	0.500000
Ag21	Ag2	0.750000	0.250000	0.500000
