data_XOPLUL_clean_PM
_symmetry_space_group_name_H-M	'P1'
_cell_length_a	9.432700
_cell_length_b	10.195400
_cell_length_c	11.245200
_cell_angle_alpha	63.983000
_cell_angle_beta	73.212000
_cell_angle_gamma	83.220000
_symmetry_Int_Tables_number 1

loop_
_symmetry_equiv_pos_as_xyz
'x,y,z'

loop_
_atom_site_label
_atom_site_type_symbol
_atom_site_fract_x
_atom_site_fract_y
_atom_site_fract_z
Cd11	Cd1	0.014200	0.341200	0.186800
O11	O1	0.016300	0.995200	0.291300
O21	O2	0.129100	0.188400	0.103300
O31	O3	0.997100	0.557700	0.204300
O41	O4	0.784700	0.260800	0.305300
O51	O5	0.780700	0.108500	0.522400
O61	O6	0.488400	0.242700	0.364400
O71	O7	0.076100	0.831900	0.146300
O81	O8	0.106900	0.231700	0.383900
C11	C1	0.089500	0.056700	0.170200
C21	C2	0.077800	0.630200	0.085100
O91	O9	0.122300	0.581800	0.996000
C31	C3	0.124500	0.778100	0.048400
C41	C4	0.242500	0.275400	0.331700
C51	C5	0.340300	0.219200	0.424700
O101	O10	0.290700	0.362400	0.211000
C61	C6	0.721700	0.182700	0.429000
C71	C7	0.556900	0.180700	0.466500
C81	C8	0.314100	0.144000	0.563000
H11	H1	0.222500	0.115300	0.626700
C91	C9	0.454900	0.118100	0.590600
H21	H2	0.474000	0.068500	0.676100
C101	C10	0.133600	0.969600	0.088200
C111	C11	0.210900	0.878600	0.932100
H31	H3	0.259200	0.867800	0.852200
C121	C12	0.213200	0.003800	0.956000
H41	H4	0.260100	0.092400	0.893300
Cd21	Cd2	0.985800	0.658800	0.813200
O111	O11	0.983700	0.004800	0.708700
O121	O12	0.870900	0.811600	0.896700
O131	O13	0.002900	0.442300	0.795700
O141	O14	0.215300	0.739200	0.694700
O151	O15	0.219300	0.891500	0.477600
O161	O16	0.511600	0.757300	0.635600
O171	O17	0.923900	0.168100	0.853700
O181	O18	0.893100	0.768300	0.616100
C131	C13	0.910500	0.943300	0.829800
C141	C14	0.922200	0.369800	0.914900
O191	O19	0.877700	0.418200	0.004000
C151	C15	0.875500	0.221900	0.951600
C161	C16	0.757500	0.724600	0.668300
C171	C17	0.659700	0.780800	0.575300
O201	O20	0.709300	0.637600	0.789000
C181	C18	0.278300	0.817300	0.571000
C191	C19	0.443100	0.819300	0.533500
C201	C20	0.685900	0.856000	0.437000
H51	H5	0.777500	0.884700	0.373300
C211	C21	0.545100	0.881900	0.409400
H61	H6	0.526000	0.931500	0.323900
C221	C22	0.866400	0.030400	0.911800
C231	C23	0.789100	0.121400	0.067900
H71	H7	0.740800	0.132200	0.147800
C241	C24	0.786800	0.996200	0.044000
H81	H8	0.739900	0.907600	0.106700
Cd31	Cd3	0.000000	0.000000	0.500000
