data_XOPMIA_clean_PM
_symmetry_space_group_name_H-M	'P1'
_cell_length_a	9.072000
_cell_length_b	13.140000
_cell_length_c	30.700000
_cell_angle_alpha	92.720000
_cell_angle_beta	90.200000
_cell_angle_gamma	90.010000
_symmetry_Int_Tables_number 1

loop_
_symmetry_equiv_pos_as_xyz
'x,y,z'

loop_
_atom_site_label
_atom_site_type_symbol
_atom_site_fract_x
_atom_site_fract_y
_atom_site_fract_z
Cd11	Cd1	0.135570	0.421520	0.036960
Cd21	Cd2	0.364970	0.421460	0.537110
Cd31	Cd3	0.635030	0.578540	0.462890
Cd41	Cd4	0.864430	0.578480	0.963040
H11	H1	0.696100	0.842700	0.159200
H21	H2	0.937600	0.784500	0.363300
H31	H3	0.992400	0.433900	0.872300
H41	H4	0.750100	0.379500	0.411000
H51	H5	0.641000	0.077700	0.497100
H61	H6	0.492300	0.218200	0.488100
H71	H7	0.562100	0.785900	0.862700
H81	H8	0.135300	0.970400	0.409300
H91	H9	0.249900	0.620500	0.589000
H101	H10	0.705300	0.769400	0.088100
H111	H11	0.196100	0.155300	0.341300
H121	H12	0.107300	0.172600	0.512600
H131	H13	0.156200	0.524800	0.468500
H141	H14	0.795100	0.768800	0.588000
H151	H15	0.494200	0.565700	0.627800
H161	H16	0.204900	0.231200	0.412000
H171	H17	0.512700	0.330500	0.041600
H181	H18	0.994400	0.355700	0.802400
H191	H19	0.012000	0.147500	0.704500
H201	H20	0.485100	0.147000	0.204900
H211	H21	0.294700	0.230600	0.911900
H221	H22	0.260700	0.800000	0.885500
H231	H23	0.507700	0.781800	0.511900
H241	H24	0.759900	0.198400	0.615000
H251	H25	0.308700	0.345500	0.760900
H261	H26	0.505800	0.434300	0.372200
H271	H27	0.803900	0.844700	0.658700
H281	H28	0.655700	0.474800	0.031700
H291	H29	0.139900	0.922500	0.003500
H301	H30	0.189900	0.344500	0.260600
H311	H31	0.739300	0.200000	0.114500
H321	H32	0.010400	0.217100	0.988700
H331	H33	0.635700	0.593200	0.307500
H341	H34	0.303900	0.157300	0.840800
H351	H35	0.240100	0.801600	0.385000
H361	H36	0.493200	0.646800	0.697400
H371	H37	0.860100	0.077500	0.996500
H381	H38	0.608000	0.826000	0.987300
H391	H39	0.253200	0.619600	0.088700
H401	H40	0.062400	0.215500	0.636700
H411	H41	0.746800	0.380400	0.911300
H421	H42	0.988000	0.852500	0.295500
H431	H43	0.604500	0.234100	0.917300
H441	H44	0.993500	0.331600	0.541100
H451	H45	0.506800	0.353200	0.302600
H461	H46	0.886700	0.341300	0.101600
H471	H47	0.007600	0.566100	0.127700
H481	H48	0.005600	0.644300	0.197600
H491	H49	0.863600	0.593400	0.807800
H501	H50	0.364200	0.968800	0.909700
H511	H51	0.395500	0.765900	0.082700
H521	H52	0.810100	0.655500	0.739400
H531	H53	0.843800	0.475200	0.531500
H541	H54	0.989600	0.782900	0.011300
H551	H55	0.344300	0.525200	0.968300
H561	H56	0.635800	0.031200	0.090300
H571	H57	0.136400	0.406600	0.192200
H581	H58	0.615200	0.343200	0.601500
H591	H59	0.514900	0.853000	0.795100
H601	H60	0.892700	0.827400	0.487400
H611	H61	0.384800	0.656800	0.398500
H621	H62	0.691300	0.654500	0.239100
H631	H63	0.437900	0.214100	0.137300
H641	H64	0.106800	0.766200	0.583000
H651	H65	0.359000	0.922300	0.502900
H661	H66	0.006500	0.668400	0.458900
H671	H67	0.113300	0.658700	0.898400
H681	H68	0.487300	0.669500	0.958400
H691	H69	0.864700	0.029600	0.590700
H701	H70	0.364300	0.406800	0.692500
H711	H71	0.392000	0.174000	0.012700
H721	H72	0.893200	0.233800	0.417000
C11	C1	0.738600	0.789600	0.652100
C21	C2	0.207600	0.354100	0.194700
C31	C3	0.548500	0.214300	0.514100
C41	C4	0.292900	0.354500	0.695000
C51	C5	0.945200	0.669800	0.175200
C61	C6	0.738400	0.682500	0.264600
C71	C7	0.118000	0.713600	0.919600
C81	C8	0.781100	0.123400	0.056600
C91	C9	0.291900	0.797900	0.411800
C101	C10	0.637300	0.617600	0.554900
C111	C11	0.855300	0.425800	0.508200
C121	C12	0.445400	0.376200	0.366300
C131	C13	0.362800	0.869500	0.480700
C141	C14	0.446500	0.178200	0.986500
C151	C15	0.316800	0.962500	0.937000
C161	C16	0.257100	0.353500	0.613800
C171	C17	0.144700	0.574200	0.491800
C181	C18	0.720300	0.123600	0.556600
C191	C19	0.140200	0.339300	0.899200
C201	C20	0.362700	0.382400	0.445100
C211	C21	0.261400	0.210400	0.347900
C221	C22	0.355100	0.574900	0.991600
C231	C23	0.218900	0.876600	0.943400
C241	C24	0.553500	0.821800	0.013500
C251	C25	0.614700	0.760600	0.837800
C261	C26	0.219600	0.315000	0.657600
C271	C27	0.683200	0.037500	0.063000
C281	C28	0.357400	0.338900	0.399300
C291	C29	0.867300	0.617300	0.054800
C301	C30	0.792400	0.645900	0.805300
C311	C31	0.755900	0.646000	0.886300
C321	C32	0.662400	0.760900	0.761500
C331	C33	0.864300	0.130100	0.018800
C341	C34	0.947100	0.822400	0.513700
C351	C35	0.244100	0.354000	0.113700
C361	C36	0.441000	0.660500	0.985700
C371	C37	0.237700	0.211600	0.847700
C381	C38	0.644900	0.425100	0.008400
C391	C39	0.052900	0.177600	0.486300
C401	C40	0.838500	0.760300	0.261900
C411	C41	0.916700	0.800200	0.298100
C421	C42	0.855000	0.753300	0.183800
C431	C43	0.302500	0.630300	0.062000
C441	C44	0.337600	0.239100	0.238500
C451	C45	0.762300	0.788400	0.152300
C461	C46	0.734400	0.743500	0.610200
C471	C47	0.114500	0.717800	0.559100
C481	C48	0.233900	0.256300	0.889700
C491	C49	0.952600	0.214000	0.014300
C501	C50	0.800600	0.369100	0.437600
C511	C51	0.742900	0.646500	0.386200
C521	C52	0.780400	0.685000	0.342400
C531	C53	0.554600	0.623800	0.633700
C541	C54	0.145000	0.246700	0.816200
C551	C55	0.959200	0.267200	0.479900
C561	C56	0.451500	0.785700	0.485900
C571	C57	0.885500	0.282200	0.440900
C581	C58	0.792400	0.202600	0.088000
C591	C59	0.047400	0.786000	0.985700
C601	C60	0.054800	0.330200	0.824800
C611	C61	0.280600	0.315700	0.157600
C621	C62	0.719400	0.684300	0.842400
C631	C63	0.381600	0.712500	0.419400
C641	C64	0.199400	0.630900	0.562400
C651	C65	0.237900	0.316700	0.235300
C661	C66	0.946500	0.623800	0.133700
C671	C67	0.182200	0.963200	0.436700
C681	C68	0.944300	0.339900	0.514200
C691	C69	0.642600	0.661100	0.600700
C701	C70	0.114800	0.240200	0.661900
C711	C71	0.554900	0.670900	0.675100
C721	C72	0.637200	0.130500	0.519300
C731	C73	0.458900	0.733300	0.019900
C741	C74	0.708100	0.202100	0.588200
C751	C75	0.161500	0.239700	0.738100
C761	C76	0.385300	0.239400	0.162200
C771	C77	0.207600	0.797400	0.912000
C781	C78	0.387100	0.717800	0.058800
C791	C79	0.083300	0.199800	0.701900
C801	C80	0.885200	0.759800	0.338100
C811	C81	0.352300	0.245500	0.316600
C821	C82	0.265600	0.256500	0.389800
C831	C83	0.559000	0.339500	0.014300
C841	C84	0.135700	0.869900	0.981200
C851	C85	0.647700	0.754500	0.683400
C861	C86	0.612900	0.282200	0.941200
C871	C87	0.618400	0.287500	0.580600
C881	C88	0.132700	0.382700	0.945200
C891	C89	0.414500	0.199800	0.202200
C901	C90	0.766100	0.743700	0.110300
C911	C91	0.697500	0.369700	0.938000
C921	C92	0.817800	0.036800	0.563300
C931	C93	0.445100	0.329100	0.324900
C941	C94	0.055700	0.660100	0.485800
C951	C95	0.882000	0.286400	0.080400
C961	C96	0.261600	0.317500	0.735400
C971	C97	0.859800	0.660700	0.100800
C981	C98	0.707100	0.645500	0.305000
C991	C99	0.279700	0.876400	0.443400
C1001	C100	0.585500	0.800200	0.797800
C1011	C101	0.762100	0.683300	0.764700
C1021	C102	0.541100	0.266700	0.980100
C1031	C103	0.053500	0.376200	0.866300
C1041	C104	0.040800	0.732800	0.520100
N11	N1	0.160400	0.029700	0.468200
N21	N2	0.287800	0.560800	0.029100
N31	N3	0.538800	0.290200	0.544400
N41	N4	0.961300	0.291200	0.044000
N51	N5	0.938700	0.894200	0.543800
N61	N6	0.436700	0.106000	0.956600
N71	N7	0.339600	0.030000	0.968300
N81	N8	0.712200	0.439200	0.970900
N91	N9	0.787100	0.439300	0.470700
N101	N10	0.038700	0.708800	0.956000
N111	N11	0.563300	0.894000	0.043400
N121	N12	0.212900	0.560700	0.529300
N131	N13	0.061300	0.105800	0.456200
N141	N14	0.660400	0.970000	0.031700
N151	N15	0.461200	0.709800	0.455600
N161	N16	0.839600	0.970300	0.531800
O11	O1	0.637300	0.809400	0.723100
O21	O2	0.702800	0.690200	0.919990
O31	O3	0.052900	0.459300	0.954100
O41	O4	0.796000	0.690400	0.420090
O51	O5	0.135000	0.191600	0.776700
O61	O6	0.655300	0.569900	0.388120
O71	O7	0.344700	0.430100	0.611880
O81	O8	0.212600	0.341900	0.973500
O91	O9	0.288700	0.341600	0.473540
O101	O10	0.444900	0.459100	0.454400
O111	O11	0.947100	0.540700	0.045900
O121	O12	0.297200	0.309800	0.080010
O131	O13	0.865000	0.808400	0.223300
O141	O14	0.204000	0.309600	0.579910
O151	O15	0.711300	0.658400	0.526460
O161	O16	0.362700	0.190600	0.276900
O171	O17	0.843600	0.569600	0.888320
O181	O18	0.787400	0.658100	0.026500
O191	O19	0.156400	0.430400	0.111680
O201	O20	0.555100	0.540900	0.545600
