data_XOQXOR_SL_PM
_symmetry_space_group_name_H-M	'P1'
_cell_length_a	27.081800
_cell_length_b	12.089100
_cell_length_c	36.315600
_cell_angle_alpha	90.000000
_cell_angle_beta	130.029700
_cell_angle_gamma	90.000000
_symmetry_Int_Tables_number 1

loop_
_symmetry_equiv_pos_as_xyz
'x,y,z'

loop_
_atom_site_label
_atom_site_type_symbol
_atom_site_fract_x
_atom_site_fract_y
_atom_site_fract_z
Zn11	Zn1	0.296860	0.462320	0.257950
Zn21	Zn2	0.206320	0.686830	0.235210
Si31	Si3	0.081270	0.525620	0.951150
H41	H4	0.205100	0.466900	0.044200
H51	H5	0.252000	0.486600	0.124100
H61	H6	0.104700	0.675700	0.086100
H71	H7	0.056500	0.654800	0.006300
H81	H8	0.088300	0.343900	0.008200
H91	H9	0.041000	0.177800	0.996900
H101	H10	0.943900	0.201500	0.856800
H111	H11	0.986200	0.376600	0.866900
H121	H12	0.904200	0.067800	0.889400
H131	H13	0.967900	0.004100	0.910600
H141	H14	0.954200	0.041600	0.944600
H151	H15	0.944700	0.535700	0.905700
H161	H16	0.857900	0.651300	0.852500
H171	H17	0.974500	0.859500	0.854000
H181	H18	0.060700	0.741900	0.906300
H191	H19	0.079200	0.484400	0.871200
H201	H20	0.641400	0.022100	0.850800
H211	H21	0.772200	0.163400	0.977700
H221	H22	0.207800	0.627200	0.997000
H231	H23	0.730700	0.157500	0.867600
H241	H24	0.786200	0.188800	0.921600
H251	H25	0.781600	0.068300	0.903700
H261	H26	0.136800	0.150800	0.292100
H271	H27	0.204400	0.266500	0.292100
H281	H28	0.059800	0.482300	0.210400
H291	H29	0.992100	0.364800	0.209700
H301	H30	0.384800	0.682200	0.149600
H311	H31	0.834300	0.090200	0.078100
H321	H32	0.965700	0.855900	0.145900
H331	H33	0.016800	0.946000	0.218000
H341	H34	0.849400	0.963700	0.033100
H351	H35	0.894600	0.860700	0.059400
H361	H36	0.826600	0.862100	0.045600
C371	C37	0.125350	0.559300	0.015860
C381	C38	0.184410	0.508600	0.052270
C391	C39	0.212550	0.520000	0.100330
C401	C40	0.182150	0.580700	0.112890
C411	C41	0.124460	0.632600	0.077620
C421	C42	0.096010	0.621000	0.029750
C431	C43	0.210240	0.586800	0.164250
C441	C44	0.046510	0.382800	0.940210
C451	C45	0.058500	0.317800	0.976900
C461	C46	0.029000	0.216300	0.970000
C471	C47	0.983300	0.171400	0.925500
C481	C48	0.971400	0.231800	0.887600
C491	C49	0.999200	0.337000	0.893800
C501	C50	0.949200	0.060900	0.916700
C511	C51	0.011990	0.624600	0.911160
C521	C52	0.950920	0.600000	0.895080
C531	C53	0.898730	0.669600	0.863370
C541	C54	0.908050	0.766100	0.848180
C551	C55	0.968460	0.794100	0.864130
C561	C56	0.020010	0.723200	0.895500
C571	C57	0.851180	0.838200	0.811690
C581	C58	0.137400	0.544700	0.937500
C591	C59	0.118700	0.519300	0.893600
C601	C60	0.656000	0.043100	0.881000
C611	C61	0.714500	0.097600	0.912200
C621	C62	0.733100	0.126900	0.955600
C631	C63	0.194500	0.602900	0.967500
C641	C64	0.757200	0.131200	0.900100
C651	C65	0.057130	0.245900	0.251740
C661	C66	0.121060	0.217900	0.275790
C671	C67	0.161930	0.287500	0.276110
C681	C68	0.139560	0.388900	0.252600
C691	C69	0.075730	0.416100	0.227310
C701	C70	0.035030	0.345200	0.226940
C711	C71	0.183680	0.465000	0.253320
C721	C72	0.954390	0.069500	0.193470
C731	C73	0.900710	0.113800	0.149750
C741	C74	0.870300	0.058800	0.106500
C751	C75	0.892800	0.958900	0.105100
C761	C76	0.947700	0.920700	0.146500
C771	C77	0.978700	0.975100	0.190300
C781	C78	0.863000	0.906400	0.056200
O791	O79	0.250370	0.512000	0.192130
O801	O80	0.192330	0.664400	0.176060
O811	O81	0.862180	0.928800	0.801510
O821	O82	0.796370	0.802300	0.794030
O831	O83	0.237680	0.427500	0.269790
O841	O84	0.163080	0.560800	0.237200
O851	O85	0.332450	0.319860	0.265360
H861	H86	0.380670	0.319860	0.288490
Zn871	Zn87	0.796860	0.962320	0.257950
Zn881	Zn88	0.706320	0.186830	0.235210
Si891	Si89	0.581270	0.025620	0.951150
H901	H90	0.705100	0.966900	0.044200
H911	H91	0.752000	0.986600	0.124100
H921	H92	0.604700	0.175700	0.086100
H931	H93	0.556500	0.154800	0.006300
H941	H94	0.588300	0.843900	0.008200
H951	H95	0.541000	0.677800	0.996900
H961	H96	0.443900	0.701500	0.856800
H971	H97	0.486200	0.876600	0.866900
H981	H98	0.404200	0.567800	0.889400
H991	H99	0.467900	0.504100	0.910600
H1001	H100	0.454200	0.541600	0.944600
H1011	H101	0.444700	0.035700	0.905700
H1021	H102	0.357900	0.151300	0.852500
H1031	H103	0.474500	0.359500	0.854000
H1041	H104	0.560700	0.241900	0.906300
H1051	H105	0.579200	0.984400	0.871200
H1061	H106	0.141400	0.522100	0.850800
H1071	H107	0.272200	0.663400	0.977700
H1081	H108	0.707800	0.127200	0.997000
H1091	H109	0.230700	0.657500	0.867600
H1101	H110	0.286200	0.688800	0.921600
H1111	H111	0.281600	0.568300	0.903700
H1121	H112	0.636800	0.650800	0.292100
H1131	H113	0.704400	0.766500	0.292100
H1141	H114	0.559800	0.982300	0.210400
H1151	H115	0.492100	0.864800	0.209700
H1161	H116	0.884800	0.182200	0.149600
H1171	H117	0.334300	0.590200	0.078100
H1181	H118	0.465700	0.355900	0.145900
H1191	H119	0.516800	0.446000	0.218000
H1201	H120	0.349400	0.463700	0.033100
H1211	H121	0.394600	0.360700	0.059400
H1221	H122	0.326600	0.362100	0.045600
C1231	C123	0.625350	0.059300	0.015860
C1241	C124	0.684410	0.008600	0.052270
C1251	C125	0.712550	0.020000	0.100330
C1261	C126	0.682150	0.080700	0.112890
C1271	C127	0.624460	0.132600	0.077620
C1281	C128	0.596010	0.121000	0.029750
C1291	C129	0.710240	0.086800	0.164250
C1301	C130	0.546510	0.882800	0.940210
C1311	C131	0.558500	0.817800	0.976900
C1321	C132	0.529000	0.716300	0.970000
C1331	C133	0.483300	0.671400	0.925500
C1341	C134	0.471400	0.731800	0.887600
C1351	C135	0.499200	0.837000	0.893800
C1361	C136	0.449200	0.560900	0.916700
C1371	C137	0.511990	0.124600	0.911160
C1381	C138	0.450920	0.100000	0.895080
C1391	C139	0.398730	0.169600	0.863370
C1401	C140	0.408050	0.266100	0.848180
C1411	C141	0.468460	0.294100	0.864130
C1421	C142	0.520010	0.223200	0.895500
C1431	C143	0.351180	0.338200	0.811690
C1441	C144	0.637400	0.044700	0.937500
C1451	C145	0.618700	0.019300	0.893600
C1461	C146	0.156000	0.543100	0.881000
C1471	C147	0.214500	0.597600	0.912200
C1481	C148	0.233100	0.626900	0.955600
C1491	C149	0.694500	0.102900	0.967500
C1501	C150	0.257200	0.631200	0.900100
C1511	C151	0.557130	0.745900	0.251740
C1521	C152	0.621060	0.717900	0.275790
C1531	C153	0.661930	0.787500	0.276110
C1541	C154	0.639560	0.888900	0.252600
C1551	C155	0.575730	0.916100	0.227310
C1561	C156	0.535030	0.845200	0.226940
C1571	C157	0.683680	0.965000	0.253320
C1581	C158	0.454390	0.569500	0.193470
C1591	C159	0.400710	0.613800	0.149750
C1601	C160	0.370300	0.558800	0.106500
C1611	C161	0.392800	0.458900	0.105100
C1621	C162	0.447700	0.420700	0.146500
C1631	C163	0.478700	0.475100	0.190300
C1641	C164	0.363000	0.406400	0.056200
O1651	O165	0.750370	0.012000	0.192130
O1661	O166	0.692330	0.164400	0.176060
O1671	O167	0.362180	0.428800	0.801510
O1681	O168	0.296370	0.302300	0.794030
O1691	O169	0.737680	0.927500	0.269790
O1701	O170	0.663080	0.060800	0.237200
O1711	O171	0.832450	0.819860	0.265360
H1721	H172	0.880670	0.819860	0.288490
Zn1731	Zn173	0.703140	0.462320	0.242050
Zn1741	Zn174	0.793680	0.686830	0.264790
Si1751	Si175	0.918730	0.525620	0.548850
H1761	H176	0.794900	0.466900	0.455800
H1771	H177	0.748000	0.486600	0.375900
H1781	H178	0.895300	0.675700	0.413900
H1791	H179	0.943500	0.654800	0.493700
H1801	H180	0.911700	0.343900	0.491800
H1811	H181	0.959000	0.177800	0.503100
H1821	H182	0.056100	0.201500	0.643200
H1831	H183	0.013800	0.376600	0.633100
H1841	H184	0.095800	0.067800	0.610600
H1851	H185	0.032100	0.004100	0.589400
H1861	H186	0.045800	0.041600	0.555400
H1871	H187	0.055300	0.535700	0.594300
H1881	H188	0.142100	0.651300	0.647500
H1891	H189	0.025500	0.859500	0.646000
H1901	H190	0.939300	0.741900	0.593700
H1911	H191	0.920800	0.484400	0.628800
H1921	H192	0.358600	0.022100	0.649200
H1931	H193	0.227800	0.163400	0.522300
H1941	H194	0.792200	0.627200	0.503000
H1951	H195	0.269300	0.157500	0.632400
H1961	H196	0.213800	0.188800	0.578400
H1971	H197	0.218400	0.068300	0.596300
H1981	H198	0.863200	0.150800	0.207900
H1991	H199	0.795600	0.266500	0.207900
H2001	H200	0.940200	0.482300	0.289600
H2011	H201	0.007900	0.364800	0.290300
H2021	H202	0.615200	0.682200	0.350400
H2031	H203	0.165700	0.090200	0.421900
H2041	H204	0.034300	0.855900	0.354100
H2051	H205	0.983200	0.946000	0.282000
H2061	H206	0.150600	0.963700	0.466900
H2071	H207	0.105400	0.860700	0.440600
H2081	H208	0.173400	0.862100	0.454400
C2091	C209	0.874650	0.559300	0.484140
C2101	C210	0.815590	0.508600	0.447730
C2111	C211	0.787450	0.520000	0.399670
C2121	C212	0.817850	0.580700	0.387110
C2131	C213	0.875540	0.632600	0.422380
C2141	C214	0.903990	0.621000	0.470250
C2151	C215	0.789760	0.586800	0.335750
C2161	C216	0.953490	0.382800	0.559790
C2171	C217	0.941500	0.317800	0.523100
C2181	C218	0.971000	0.216300	0.530000
C2191	C219	0.016700	0.171400	0.574500
C2201	C220	0.028600	0.231800	0.612400
C2211	C221	0.000800	0.337000	0.606200
C2221	C222	0.050800	0.060900	0.583300
C2231	C223	0.988010	0.624600	0.588840
C2241	C224	0.049080	0.600000	0.604920
C2251	C225	0.101270	0.669600	0.636630
C2261	C226	0.091950	0.766100	0.651820
C2271	C227	0.031540	0.794100	0.635870
C2281	C228	0.979990	0.723200	0.604500
C2291	C229	0.148820	0.838200	0.688310
C2301	C230	0.862600	0.544700	0.562500
C2311	C231	0.881300	0.519300	0.606400
C2321	C232	0.344000	0.043100	0.619000
C2331	C233	0.285500	0.097600	0.587800
C2341	C234	0.266900	0.126900	0.544400
C2351	C235	0.805500	0.602900	0.532500
C2361	C236	0.242800	0.131200	0.599900
C2371	C237	0.942870	0.245900	0.248260
C2381	C238	0.878940	0.217900	0.224210
C2391	C239	0.838070	0.287500	0.223890
C2401	C240	0.860440	0.388900	0.247400
C2411	C241	0.924270	0.416100	0.272690
C2421	C242	0.964970	0.345200	0.273060
C2431	C243	0.816320	0.465000	0.246680
C2441	C244	0.045610	0.069500	0.306530
C2451	C245	0.099290	0.113800	0.350250
C2461	C246	0.129700	0.058800	0.393500
C2471	C247	0.107200	0.958900	0.394900
C2481	C248	0.052300	0.920700	0.353500
C2491	C249	0.021300	0.975100	0.309700
C2501	C250	0.137000	0.906400	0.443800
O2511	O251	0.749630	0.512000	0.307870
O2521	O252	0.807670	0.664400	0.323940
O2531	O253	0.137820	0.928800	0.698490
O2541	O254	0.203630	0.802300	0.705970
O2551	O255	0.762320	0.427500	0.230210
O2561	O256	0.836920	0.560800	0.262800
O2571	O257	0.667550	0.319860	0.234640
H2581	H258	0.619330	0.319860	0.211510
Zn2591	Zn259	0.203140	0.962320	0.242050
Zn2601	Zn260	0.293680	0.186830	0.264790
Si2611	Si261	0.418730	0.025620	0.548850
H2621	H262	0.294900	0.966900	0.455800
H2631	H263	0.248000	0.986600	0.375900
H2641	H264	0.395300	0.175700	0.413900
H2651	H265	0.443500	0.154800	0.493700
H2661	H266	0.411700	0.843900	0.491800
H2671	H267	0.459000	0.677800	0.503100
H2681	H268	0.556100	0.701500	0.643200
H2691	H269	0.513800	0.876600	0.633100
H2701	H270	0.595800	0.567800	0.610600
H2711	H271	0.532100	0.504100	0.589400
H2721	H272	0.545800	0.541600	0.555400
H2731	H273	0.555300	0.035700	0.594300
H2741	H274	0.642100	0.151300	0.647500
H2751	H275	0.525500	0.359500	0.646000
H2761	H276	0.439300	0.241900	0.593700
H2771	H277	0.420800	0.984400	0.628800
H2781	H278	0.858600	0.522100	0.649200
H2791	H279	0.727800	0.663400	0.522300
H2801	H280	0.292200	0.127200	0.503000
H2811	H281	0.769300	0.657500	0.632400
H2821	H282	0.713800	0.688800	0.578400
H2831	H283	0.718400	0.568300	0.596300
H2841	H284	0.363200	0.650800	0.207900
H2851	H285	0.295600	0.766500	0.207900
H2861	H286	0.440200	0.982300	0.289600
H2871	H287	0.507900	0.864800	0.290300
H2881	H288	0.115200	0.182200	0.350400
H2891	H289	0.665700	0.590200	0.421900
H2901	H290	0.534300	0.355900	0.354100
H2911	H291	0.483200	0.446000	0.282000
H2921	H292	0.650600	0.463700	0.466900
H2931	H293	0.605400	0.360700	0.440600
H2941	H294	0.673400	0.362100	0.454400
C2951	C295	0.374650	0.059300	0.484140
C2961	C296	0.315590	0.008600	0.447730
C2971	C297	0.287450	0.020000	0.399670
C2981	C298	0.317850	0.080700	0.387110
C2991	C299	0.375540	0.132600	0.422380
C3001	C300	0.403990	0.121000	0.470250
C3011	C301	0.289760	0.086800	0.335750
C3021	C302	0.453490	0.882800	0.559790
C3031	C303	0.441500	0.817800	0.523100
C3041	C304	0.471000	0.716300	0.530000
C3051	C305	0.516700	0.671400	0.574500
C3061	C306	0.528600	0.731800	0.612400
C3071	C307	0.500800	0.837000	0.606200
C3081	C308	0.550800	0.560900	0.583300
C3091	C309	0.488010	0.124600	0.588840
C3101	C310	0.549080	0.100000	0.604920
C3111	C311	0.601270	0.169600	0.636630
C3121	C312	0.591950	0.266100	0.651820
C3131	C313	0.531540	0.294100	0.635870
C3141	C314	0.479990	0.223200	0.604500
C3151	C315	0.648820	0.338200	0.688310
C3161	C316	0.362600	0.044700	0.562500
C3171	C317	0.381300	0.019300	0.606400
C3181	C318	0.844000	0.543100	0.619000
C3191	C319	0.785500	0.597600	0.587800
C3201	C320	0.766900	0.626900	0.544400
C3211	C321	0.305500	0.102900	0.532500
C3221	C322	0.742800	0.631200	0.599900
C3231	C323	0.442870	0.745900	0.248260
C3241	C324	0.378940	0.717900	0.224210
C3251	C325	0.338070	0.787500	0.223890
C3261	C326	0.360440	0.888900	0.247400
C3271	C327	0.424270	0.916100	0.272690
C3281	C328	0.464970	0.845200	0.273060
C3291	C329	0.316320	0.965000	0.246680
C3301	C330	0.545610	0.569500	0.306530
C3311	C331	0.599290	0.613800	0.350250
C3321	C332	0.629700	0.558800	0.393500
C3331	C333	0.607200	0.458900	0.394900
C3341	C334	0.552300	0.420700	0.353500
C3351	C335	0.521300	0.475100	0.309700
C3361	C336	0.637000	0.406400	0.443800
O3371	O337	0.249630	0.012000	0.307870
O3381	O338	0.307670	0.164400	0.323940
O3391	O339	0.637820	0.428800	0.698490
O3401	O340	0.703630	0.302300	0.705970
O3411	O341	0.262320	0.927500	0.230210
O3421	O342	0.336920	0.060800	0.262800
O3431	O343	0.167550	0.819860	0.234640
H3441	H344	0.119330	0.819860	0.211510
Zn3451	Zn345	0.703140	0.537680	0.742050
Zn3461	Zn346	0.793680	0.313170	0.764790
Si3471	Si347	0.918730	0.474380	0.048850
H3481	H348	0.794900	0.533100	0.955800
H3491	H349	0.748000	0.513400	0.875900
H3501	H350	0.895300	0.324300	0.913900
H3511	H351	0.943500	0.345200	0.993700
H3521	H352	0.911700	0.656100	0.991800
H3531	H353	0.959000	0.822200	0.003100
H3541	H354	0.056100	0.798500	0.143200
H3551	H355	0.013800	0.623400	0.133100
H3561	H356	0.095800	0.932200	0.110600
H3571	H357	0.032100	0.995900	0.089400
H3581	H358	0.045800	0.958400	0.055400
H3591	H359	0.055300	0.464300	0.094300
H3601	H360	0.142100	0.348700	0.147500
H3611	H361	0.025500	0.140500	0.146000
H3621	H362	0.939300	0.258100	0.093700
H3631	H363	0.920800	0.515600	0.128800
H3641	H364	0.358600	0.977900	0.149200
H3651	H365	0.227800	0.836600	0.022300
H3661	H366	0.792200	0.372800	0.003000
H3671	H367	0.269300	0.842500	0.132400
H3681	H368	0.213800	0.811200	0.078400
H3691	H369	0.218400	0.931700	0.096300
H3701	H370	0.863200	0.849200	0.707900
H3711	H371	0.795600	0.733500	0.707900
H3721	H372	0.940200	0.517700	0.789600
H3731	H373	0.007900	0.635200	0.790300
H3741	H374	0.615200	0.317800	0.850400
H3751	H375	0.165700	0.909800	0.921900
H3761	H376	0.034300	0.144100	0.854100
H3771	H377	0.983200	0.054000	0.782000
H3781	H378	0.150600	0.036300	0.966900
H3791	H379	0.105400	0.139300	0.940600
H3801	H380	0.173400	0.137900	0.954400
C3811	C381	0.874650	0.440700	0.984140
C3821	C382	0.815590	0.491400	0.947730
C3831	C383	0.787450	0.480000	0.899670
C3841	C384	0.817850	0.419300	0.887110
C3851	C385	0.875540	0.367400	0.922380
C3861	C386	0.903990	0.379000	0.970250
C3871	C387	0.789760	0.413200	0.835750
C3881	C388	0.953490	0.617200	0.059790
C3891	C389	0.941500	0.682200	0.023100
C3901	C390	0.971000	0.783700	0.030000
C3911	C391	0.016700	0.828600	0.074500
C3921	C392	0.028600	0.768200	0.112400
C3931	C393	0.000800	0.663000	0.106200
C3941	C394	0.050800	0.939100	0.083300
C3951	C395	0.988010	0.375400	0.088840
C3961	C396	0.049080	0.400000	0.104920
C3971	C397	0.101270	0.330400	0.136630
C3981	C398	0.091950	0.233900	0.151820
C3991	C399	0.031540	0.205900	0.135870
C4001	C400	0.979990	0.276800	0.104500
C4011	C401	0.148820	0.161800	0.188310
C4021	C402	0.862600	0.455300	0.062500
C4031	C403	0.881300	0.480700	0.106400
C4041	C404	0.344000	0.956900	0.119000
C4051	C405	0.285500	0.902400	0.087800
C4061	C406	0.266900	0.873100	0.044400
C4071	C407	0.805500	0.397100	0.032500
C4081	C408	0.242800	0.868800	0.099900
C4091	C409	0.942870	0.754100	0.748260
C4101	C410	0.878940	0.782100	0.724210
C4111	C411	0.838070	0.712500	0.723890
C4121	C412	0.860440	0.611100	0.747400
C4131	C413	0.924270	0.583900	0.772690
C4141	C414	0.964970	0.654800	0.773060
C4151	C415	0.816320	0.535000	0.746680
C4161	C416	0.045610	0.930500	0.806530
C4171	C417	0.099290	0.886200	0.850250
C4181	C418	0.129700	0.941200	0.893500
C4191	C419	0.107200	0.041100	0.894900
C4201	C420	0.052300	0.079300	0.853500
C4211	C421	0.021300	0.024900	0.809700
C4221	C422	0.137000	0.093600	0.943800
O4231	O423	0.749630	0.488000	0.807870
O4241	O424	0.807670	0.335600	0.823940
O4251	O425	0.137820	0.071200	0.198490
O4261	O426	0.203630	0.197700	0.205970
O4271	O427	0.762320	0.572500	0.730210
O4281	O428	0.836920	0.439200	0.762800
O4291	O429	0.667550	0.680140	0.734640
H4301	H430	0.619330	0.680140	0.711510
Zn4311	Zn431	0.203140	0.037680	0.742050
Zn4321	Zn432	0.293680	0.813170	0.764790
Si4331	Si433	0.418730	0.974380	0.048850
H4341	H434	0.294900	0.033100	0.955800
H4351	H435	0.248000	0.013400	0.875900
H4361	H436	0.395300	0.824300	0.913900
H4371	H437	0.443500	0.845200	0.993700
H4381	H438	0.411700	0.156100	0.991800
H4391	H439	0.459000	0.322200	0.003100
H4401	H440	0.556100	0.298500	0.143200
H4411	H441	0.513800	0.123400	0.133100
H4421	H442	0.595800	0.432200	0.110600
H4431	H443	0.532100	0.495900	0.089400
H4441	H444	0.545800	0.458400	0.055400
H4451	H445	0.555300	0.964300	0.094300
H4461	H446	0.642100	0.848700	0.147500
H4471	H447	0.525500	0.640500	0.146000
H4481	H448	0.439300	0.758100	0.093700
H4491	H449	0.420800	0.015600	0.128800
H4501	H450	0.858600	0.477900	0.149200
H4511	H451	0.727800	0.336600	0.022300
H4521	H452	0.292200	0.872800	0.003000
H4531	H453	0.769300	0.342500	0.132400
H4541	H454	0.713800	0.311200	0.078400
H4551	H455	0.718400	0.431700	0.096300
H4561	H456	0.363200	0.349200	0.707900
H4571	H457	0.295600	0.233500	0.707900
H4581	H458	0.440200	0.017700	0.789600
H4591	H459	0.507900	0.135200	0.790300
H4601	H460	0.115200	0.817800	0.850400
H4611	H461	0.665700	0.409800	0.921900
H4621	H462	0.534300	0.644100	0.854100
H4631	H463	0.483200	0.554000	0.782000
H4641	H464	0.650600	0.536300	0.966900
H4651	H465	0.605400	0.639300	0.940600
H4661	H466	0.673400	0.637900	0.954400
C4671	C467	0.374650	0.940700	0.984140
C4681	C468	0.315590	0.991400	0.947730
C4691	C469	0.287450	0.980000	0.899670
C4701	C470	0.317850	0.919300	0.887110
C4711	C471	0.375540	0.867400	0.922380
C4721	C472	0.403990	0.879000	0.970250
C4731	C473	0.289760	0.913200	0.835750
C4741	C474	0.453490	0.117200	0.059790
C4751	C475	0.441500	0.182200	0.023100
C4761	C476	0.471000	0.283700	0.030000
C4771	C477	0.516700	0.328600	0.074500
C4781	C478	0.528600	0.268200	0.112400
C4791	C479	0.500800	0.163000	0.106200
C4801	C480	0.550800	0.439100	0.083300
C4811	C481	0.488010	0.875400	0.088840
C4821	C482	0.549080	0.900000	0.104920
C4831	C483	0.601270	0.830400	0.136630
C4841	C484	0.591950	0.733900	0.151820
C4851	C485	0.531540	0.705900	0.135870
C4861	C486	0.479990	0.776800	0.104500
C4871	C487	0.648820	0.661800	0.188310
C4881	C488	0.362600	0.955300	0.062500
C4891	C489	0.381300	0.980700	0.106400
C4901	C490	0.844000	0.456900	0.119000
C4911	C491	0.785500	0.402400	0.087800
C4921	C492	0.766900	0.373100	0.044400
C4931	C493	0.305500	0.897100	0.032500
C4941	C494	0.742800	0.368800	0.099900
C4951	C495	0.442870	0.254100	0.748260
C4961	C496	0.378940	0.282100	0.724210
C4971	C497	0.338070	0.212500	0.723890
C4981	C498	0.360440	0.111100	0.747400
C4991	C499	0.424270	0.083900	0.772690
C5001	C500	0.464970	0.154800	0.773060
C5011	C501	0.316320	0.035000	0.746680
C5021	C502	0.545610	0.430500	0.806530
C5031	C503	0.599290	0.386200	0.850250
C5041	C504	0.629700	0.441200	0.893500
C5051	C505	0.607200	0.541100	0.894900
C5061	C506	0.552300	0.579300	0.853500
C5071	C507	0.521300	0.524900	0.809700
C5081	C508	0.637000	0.593600	0.943800
O5091	O509	0.249630	0.988000	0.807870
O5101	O510	0.307670	0.835600	0.823940
O5111	O511	0.637820	0.571200	0.198490
O5121	O512	0.703630	0.697700	0.205970
O5131	O513	0.262320	0.072500	0.730210
O5141	O514	0.336920	0.939200	0.762800
O5151	O515	0.167550	0.180140	0.734640
H5161	H516	0.119330	0.180140	0.711510
Zn5171	Zn517	0.296860	0.537680	0.757950
Zn5181	Zn518	0.206320	0.313170	0.735210
Si5191	Si519	0.081270	0.474380	0.451150
H5201	H520	0.205100	0.533100	0.544200
H5211	H521	0.252000	0.513400	0.624100
H5221	H522	0.104700	0.324300	0.586100
H5231	H523	0.056500	0.345200	0.506300
H5241	H524	0.088300	0.656100	0.508200
H5251	H525	0.041000	0.822200	0.496900
H5261	H526	0.943900	0.798500	0.356800
H5271	H527	0.986200	0.623400	0.366900
H5281	H528	0.904200	0.932200	0.389400
H5291	H529	0.967900	0.995900	0.410600
H5301	H530	0.954200	0.958400	0.444600
H5311	H531	0.944700	0.464300	0.405700
H5321	H532	0.857900	0.348700	0.352500
H5331	H533	0.974500	0.140500	0.354000
H5341	H534	0.060700	0.258100	0.406300
H5351	H535	0.079200	0.515600	0.371200
H5361	H536	0.641400	0.977900	0.350800
H5371	H537	0.772200	0.836600	0.477700
H5381	H538	0.207800	0.372800	0.497000
H5391	H539	0.730700	0.842500	0.367600
H5401	H540	0.786200	0.811200	0.421600
H5411	H541	0.781600	0.931700	0.403700
H5421	H542	0.136800	0.849200	0.792100
H5431	H543	0.204400	0.733500	0.792100
H5441	H544	0.059800	0.517700	0.710400
H5451	H545	0.992100	0.635200	0.709700
H5461	H546	0.384800	0.317800	0.649600
H5471	H547	0.834300	0.909800	0.578100
H5481	H548	0.965700	0.144100	0.645900
H5491	H549	0.016800	0.054000	0.718000
H5501	H550	0.849400	0.036300	0.533100
H5511	H551	0.894600	0.139300	0.559400
H5521	H552	0.826600	0.137900	0.545600
C5531	C553	0.125350	0.440700	0.515860
C5541	C554	0.184410	0.491400	0.552270
C5551	C555	0.212550	0.480000	0.600330
C5561	C556	0.182150	0.419300	0.612890
C5571	C557	0.124460	0.367400	0.577620
C5581	C558	0.096010	0.379000	0.529750
C5591	C559	0.210240	0.413200	0.664250
C5601	C560	0.046510	0.617200	0.440210
C5611	C561	0.058500	0.682200	0.476900
C5621	C562	0.029000	0.783700	0.470000
C5631	C563	0.983300	0.828600	0.425500
C5641	C564	0.971400	0.768200	0.387600
C5651	C565	0.999200	0.663000	0.393800
C5661	C566	0.949200	0.939100	0.416700
C5671	C567	0.011990	0.375400	0.411160
C5681	C568	0.950920	0.400000	0.395080
C5691	C569	0.898730	0.330400	0.363370
C5701	C570	0.908050	0.233900	0.348180
C5711	C571	0.968460	0.205900	0.364130
C5721	C572	0.020010	0.276800	0.395500
C5731	C573	0.851180	0.161800	0.311690
C5741	C574	0.137400	0.455300	0.437500
C5751	C575	0.118700	0.480700	0.393600
C5761	C576	0.656000	0.956900	0.381000
C5771	C577	0.714500	0.902400	0.412200
C5781	C578	0.733100	0.873100	0.455600
C5791	C579	0.194500	0.397100	0.467500
C5801	C580	0.757200	0.868800	0.400100
C5811	C581	0.057130	0.754100	0.751740
C5821	C582	0.121060	0.782100	0.775790
C5831	C583	0.161930	0.712500	0.776110
C5841	C584	0.139560	0.611100	0.752600
C5851	C585	0.075730	0.583900	0.727310
C5861	C586	0.035030	0.654800	0.726940
C5871	C587	0.183680	0.535000	0.753320
C5881	C588	0.954390	0.930500	0.693470
C5891	C589	0.900710	0.886200	0.649750
C5901	C590	0.870300	0.941200	0.606500
C5911	C591	0.892800	0.041100	0.605100
C5921	C592	0.947700	0.079300	0.646500
C5931	C593	0.978700	0.024900	0.690300
C5941	C594	0.863000	0.093600	0.556200
O5951	O595	0.250370	0.488000	0.692130
O5961	O596	0.192330	0.335600	0.676060
O5971	O597	0.862180	0.071200	0.301510
O5981	O598	0.796370	0.197700	0.294030
O5991	O599	0.237680	0.572500	0.769790
O6001	O600	0.163080	0.439200	0.737200
O6011	O601	0.332450	0.680140	0.765360
H6021	H602	0.380670	0.680140	0.788490
Zn6031	Zn603	0.796860	0.037680	0.757950
Zn6041	Zn604	0.706320	0.813170	0.735210
Si6051	Si605	0.581270	0.974380	0.451150
H6061	H606	0.705100	0.033100	0.544200
H6071	H607	0.752000	0.013400	0.624100
H6081	H608	0.604700	0.824300	0.586100
H6091	H609	0.556500	0.845200	0.506300
H6101	H610	0.588300	0.156100	0.508200
H6111	H611	0.541000	0.322200	0.496900
H6121	H612	0.443900	0.298500	0.356800
H6131	H613	0.486200	0.123400	0.366900
H6141	H614	0.404200	0.432200	0.389400
H6151	H615	0.467900	0.495900	0.410600
H6161	H616	0.454200	0.458400	0.444600
H6171	H617	0.444700	0.964300	0.405700
H6181	H618	0.357900	0.848700	0.352500
H6191	H619	0.474500	0.640500	0.354000
H6201	H620	0.560700	0.758100	0.406300
H6211	H621	0.579200	0.015600	0.371200
H6221	H622	0.141400	0.477900	0.350800
H6231	H623	0.272200	0.336600	0.477700
H6241	H624	0.707800	0.872800	0.497000
H6251	H625	0.230700	0.342500	0.367600
H6261	H626	0.286200	0.311200	0.421600
H6271	H627	0.281600	0.431700	0.403700
H6281	H628	0.636800	0.349200	0.792100
H6291	H629	0.704400	0.233500	0.792100
H6301	H630	0.559800	0.017700	0.710400
H6311	H631	0.492100	0.135200	0.709700
H6321	H632	0.884800	0.817800	0.649600
H6331	H633	0.334300	0.409800	0.578100
H6341	H634	0.465700	0.644100	0.645900
H6351	H635	0.516800	0.554000	0.718000
H6361	H636	0.349400	0.536300	0.533100
H6371	H637	0.394600	0.639300	0.559400
H6381	H638	0.326600	0.637900	0.545600
C6391	C639	0.625350	0.940700	0.515860
C6401	C640	0.684410	0.991400	0.552270
C6411	C641	0.712550	0.980000	0.600330
C6421	C642	0.682150	0.919300	0.612890
C6431	C643	0.624460	0.867400	0.577620
C6441	C644	0.596010	0.879000	0.529750
C6451	C645	0.710240	0.913200	0.664250
C6461	C646	0.546510	0.117200	0.440210
C6471	C647	0.558500	0.182200	0.476900
C6481	C648	0.529000	0.283700	0.470000
C6491	C649	0.483300	0.328600	0.425500
C6501	C650	0.471400	0.268200	0.387600
C6511	C651	0.499200	0.163000	0.393800
C6521	C652	0.449200	0.439100	0.416700
C6531	C653	0.511990	0.875400	0.411160
C6541	C654	0.450920	0.900000	0.395080
C6551	C655	0.398730	0.830400	0.363370
C6561	C656	0.408050	0.733900	0.348180
C6571	C657	0.468460	0.705900	0.364130
C6581	C658	0.520010	0.776800	0.395500
C6591	C659	0.351180	0.661800	0.311690
C6601	C660	0.637400	0.955300	0.437500
C6611	C661	0.618700	0.980700	0.393600
C6621	C662	0.156000	0.456900	0.381000
C6631	C663	0.214500	0.402400	0.412200
C6641	C664	0.233100	0.373100	0.455600
C6651	C665	0.694500	0.897100	0.467500
C6661	C666	0.257200	0.368800	0.400100
C6671	C667	0.557130	0.254100	0.751740
C6681	C668	0.621060	0.282100	0.775790
C6691	C669	0.661930	0.212500	0.776110
C6701	C670	0.639560	0.111100	0.752600
C6711	C671	0.575730	0.083900	0.727310
C6721	C672	0.535030	0.154800	0.726940
C6731	C673	0.683680	0.035000	0.753320
C6741	C674	0.454390	0.430500	0.693470
C6751	C675	0.400710	0.386200	0.649750
C6761	C676	0.370300	0.441200	0.606500
C6771	C677	0.392800	0.541100	0.605100
C6781	C678	0.447700	0.579300	0.646500
C6791	C679	0.478700	0.524900	0.690300
C6801	C680	0.363000	0.593600	0.556200
O6811	O681	0.750370	0.988000	0.692130
O6821	O682	0.692330	0.835600	0.676060
O6831	O683	0.362180	0.571200	0.301510
O6841	O684	0.296370	0.697700	0.294030
O6851	O685	0.737680	0.072500	0.769790
O6861	O686	0.663080	0.939200	0.737200
O6871	O687	0.832450	0.180140	0.765360
H6881	H688	0.880670	0.180140	0.788490
Si6891	Si689	0.000000	0.152890	0.250000
Si6901	Si690	0.500000	0.652890	0.250000
Si6911	Si691	0.000000	0.847110	0.750000
Si6921	Si692	0.500000	0.347110	0.750000
