data_XOQXEH_clean_PM
_symmetry_space_group_name_H-M	'P1'
_cell_length_a	7.528000
_cell_length_b	17.853000
_cell_length_c	23.757000
_cell_angle_alpha	92.534000
_cell_angle_beta	90.000000
_cell_angle_gamma	90.000000
_symmetry_Int_Tables_number 1

loop_
_symmetry_equiv_pos_as_xyz
'x,y,z'

loop_
_atom_site_label
_atom_site_type_symbol
_atom_site_fract_x
_atom_site_fract_y
_atom_site_fract_z
Zn11	Zn1	0.973740	0.421690	0.968430
Zn21	Zn2	0.294990	0.490590	0.912700
Zn31	Zn3	0.973740	0.078310	0.531570
Zn41	Zn4	0.294990	0.009410	0.587300
Zn51	Zn5	0.026260	0.578310	0.031570
Zn61	Zn6	0.705010	0.509410	0.087300
Zn71	Zn7	0.026260	0.921690	0.468430
Zn81	Zn8	0.705010	0.990590	0.412700
H11	H1	0.066800	0.504700	0.758100
H21	H2	0.934600	0.509400	0.669700
H31	H3	0.494800	0.410800	0.730800
H41	H4	0.624300	0.410000	0.819500
H51	H5	0.164800	0.298400	0.570900
H61	H6	0.275800	0.418200	0.592000
H71	H7	0.740900	0.326600	0.640500
H81	H8	0.630400	0.207400	0.617700
H91	H9	0.556000	0.609200	0.785700
H101	H10	0.745600	0.675800	0.728900
H111	H11	0.078300	0.713400	0.860700
H121	H12	0.888600	0.647600	0.917400
H131	H13	0.066800	0.995300	0.741900
H141	H14	0.934600	0.990600	0.830300
H151	H15	0.494800	0.089200	0.769200
H161	H16	0.624300	0.090000	0.680500
H171	H17	0.164800	0.201600	0.929100
H181	H18	0.275800	0.081800	0.908000
H191	H19	0.740900	0.173400	0.859500
H201	H20	0.630400	0.292600	0.882300
H211	H21	0.556000	0.890800	0.714300
H221	H22	0.745600	0.824200	0.771100
H231	H23	0.078300	0.786600	0.639300
H241	H24	0.888600	0.852400	0.582600
H251	H25	0.933200	0.495300	0.241900
H261	H26	0.065400	0.490600	0.330300
H271	H27	0.505200	0.589200	0.269200
H281	H28	0.375700	0.590000	0.180500
H291	H29	0.835200	0.701600	0.429100
H301	H30	0.724200	0.581800	0.408000
H311	H31	0.259100	0.673400	0.359500
H321	H32	0.369600	0.792600	0.382300
H331	H33	0.444000	0.390800	0.214300
H341	H34	0.254400	0.324200	0.271100
H351	H35	0.921700	0.286600	0.139300
H361	H36	0.111400	0.352400	0.082600
H371	H37	0.933200	0.004700	0.258100
H381	H38	0.065400	0.009400	0.169700
H391	H39	0.505200	0.910800	0.230800
H401	H40	0.375700	0.910000	0.319500
H411	H41	0.835200	0.798400	0.070900
H421	H42	0.724200	0.918200	0.092000
H431	H43	0.259100	0.826600	0.140500
H441	H44	0.369600	0.707400	0.117700
H451	H45	0.444000	0.109200	0.285700
H461	H46	0.254400	0.175800	0.228900
H471	H47	0.921700	0.213400	0.360700
H481	H48	0.111400	0.147600	0.417400
C11	C1	0.945900	0.457150	0.854150
C21	C2	0.858700	0.457220	0.797250
C31	C3	0.949500	0.486100	0.752580
C41	C4	0.871800	0.488360	0.699840
C51	C5	0.701400	0.459760	0.691140
C61	C6	0.611100	0.430430	0.736310
C71	C7	0.688100	0.429550	0.788900
C81	C8	0.603200	0.461630	0.633940
C91	C9	0.728500	0.479970	0.584840
C101	C10	0.464400	0.525070	0.640250
C111	C11	0.308900	0.163900	0.580390
C121	C12	0.384700	0.241130	0.593260
C131	C13	0.282000	0.304140	0.585200
C141	C14	0.347700	0.375510	0.597770
C151	C15	0.519800	0.384360	0.618840
C161	C16	0.623500	0.321050	0.626280
C171	C17	0.557500	0.250100	0.613140
C181	C18	0.575200	0.583210	0.894980
C191	C19	0.700500	0.623700	0.857770
C201	C20	0.660900	0.631320	0.801260
C211	C21	0.773700	0.671030	0.767550
C221	C22	0.927700	0.704110	0.789510
C231	C23	0.970700	0.693430	0.845540
C241	C24	0.858100	0.654100	0.879120
C251	C25	0.164800	0.807170	0.782340
C261	C26	0.945900	0.042850	0.645850
C271	C27	0.858700	0.042780	0.702750
C281	C28	0.949500	0.013900	0.747420
C291	C29	0.871800	0.011640	0.800160
C301	C30	0.701400	0.040240	0.808860
C311	C31	0.611100	0.069570	0.763690
C321	C32	0.688100	0.070450	0.711100
C331	C33	0.603200	0.038370	0.866060
C341	C34	0.728500	0.020030	0.915160
C351	C35	0.464400	0.974930	0.859750
C361	C36	0.308900	0.336100	0.919610
C371	C37	0.384700	0.258870	0.906740
C381	C38	0.282000	0.195860	0.914800
C391	C39	0.347700	0.124490	0.902230
C401	C40	0.519800	0.115640	0.881160
C411	C41	0.623500	0.178950	0.873720
C421	C42	0.557500	0.249900	0.886860
C431	C43	0.575200	0.916790	0.605020
C441	C44	0.700500	0.876300	0.642230
C451	C45	0.660900	0.868680	0.698740
C461	C46	0.773700	0.828970	0.732450
C471	C47	0.927700	0.795890	0.710490
C481	C48	0.970700	0.806570	0.654460
C491	C49	0.858100	0.845900	0.620880
C501	C50	0.164800	0.692830	0.717660
C511	C51	0.054100	0.542850	0.145850
C521	C52	0.141300	0.542780	0.202750
C531	C53	0.050500	0.513900	0.247420
C541	C54	0.128200	0.511640	0.300160
C551	C55	0.298600	0.540240	0.308860
C561	C56	0.388900	0.569570	0.263690
C571	C57	0.311900	0.570450	0.211100
C581	C58	0.396800	0.538370	0.366060
C591	C59	0.271500	0.520030	0.415160
C601	C60	0.535600	0.474930	0.359750
C611	C61	0.691100	0.836100	0.419610
C621	C62	0.615300	0.758870	0.406740
C631	C63	0.718000	0.695860	0.414800
C641	C64	0.652300	0.624490	0.402230
C651	C65	0.480200	0.615640	0.381160
C661	C66	0.376500	0.678950	0.373720
C671	C67	0.442500	0.749900	0.386860
C681	C68	0.424800	0.416790	0.105020
C691	C69	0.299500	0.376300	0.142230
C701	C70	0.339100	0.368680	0.198740
C711	C71	0.226300	0.328970	0.232450
C721	C72	0.072300	0.295890	0.210490
C731	C73	0.029300	0.306570	0.154460
C741	C74	0.141900	0.345900	0.120880
C751	C75	0.835200	0.192830	0.217660
C761	C76	0.054100	0.957150	0.354150
C771	C77	0.141300	0.957220	0.297250
C781	C78	0.050500	0.986100	0.252580
C791	C79	0.128200	0.988360	0.199840
C801	C80	0.298600	0.959760	0.191140
C811	C81	0.388900	0.930430	0.236310
C821	C82	0.311900	0.929550	0.288900
C831	C83	0.396800	0.961630	0.133940
C841	C84	0.271500	0.979970	0.084840
C851	C85	0.535600	0.025070	0.140250
C861	C86	0.691100	0.663900	0.080390
C871	C87	0.615300	0.741130	0.093260
C881	C88	0.718000	0.804140	0.085200
C891	C89	0.652300	0.875510	0.097770
C901	C90	0.480200	0.884360	0.118840
C911	C91	0.376500	0.821050	0.126280
C921	C92	0.442500	0.750100	0.113140
C931	C93	0.424800	0.083210	0.394980
C941	C94	0.299500	0.123700	0.357770
C951	C95	0.339100	0.131320	0.301260
C961	C96	0.226300	0.171030	0.267550
C971	C97	0.072300	0.204110	0.289510
C981	C98	0.029300	0.193430	0.345540
C991	C99	0.141900	0.154100	0.379120
C1001	C100	0.835200	0.307170	0.282340
C1011	C101	0.044500	0.750000	0.750000
C1021	C102	0.955500	0.250000	0.250000
O11	O1	0.101500	0.482200	0.857040
O21	O2	0.859200	0.432740	0.894740
O31	O3	0.407500	0.108860	0.590300
O41	O4	0.153900	0.160160	0.561920
O51	O5	0.431400	0.560450	0.871730
O61	O6	0.611000	0.575320	0.945250
O71	O7	0.174700	0.497120	0.986210
O81	O8	0.101500	0.017800	0.642960
O91	O9	0.859200	0.067260	0.605260
O101	O10	0.407500	0.391140	0.909700
O111	O11	0.153900	0.339840	0.938080
O121	O12	0.431400	0.939550	0.628270
O131	O13	0.611000	0.924680	0.554750
O141	O14	0.174700	0.002880	0.513790
O151	O15	0.898500	0.517800	0.142960
O161	O16	0.140800	0.567260	0.105260
O171	O17	0.592500	0.891140	0.409700
O181	O18	0.846100	0.839840	0.438080
O191	O19	0.568600	0.439550	0.128270
O201	O20	0.389000	0.424680	0.054750
O211	O21	0.825300	0.502880	0.013790
O221	O22	0.898500	0.982200	0.357040
O231	O23	0.140800	0.932740	0.394740
O241	O24	0.592500	0.608860	0.090300
O251	O25	0.846100	0.660160	0.061920
O261	O26	0.568600	0.060450	0.371730
O271	O27	0.389000	0.075320	0.445250
O281	O28	0.825300	0.997120	0.486210
F11	F1	0.870200	0.435290	0.582470
F21	F2	0.788400	0.550980	0.587800
F31	F3	0.646200	0.470840	0.535010
F41	F4	0.388500	0.541950	0.590900
F51	F5	0.535700	0.588560	0.661330
F61	F6	0.331600	0.507250	0.674510
F71	F7	0.239200	0.854900	0.748360
F81	F8	0.297600	0.774800	0.810430
F91	F9	0.070800	0.848030	0.820810
F101	F10	0.870200	0.064710	0.917530
F111	F11	0.788400	0.949020	0.912200
F121	F12	0.646200	0.029160	0.964990
F131	F13	0.388500	0.958050	0.909100
F141	F14	0.535700	0.911440	0.838670
F151	F15	0.331600	0.992750	0.825490
F161	F16	0.239200	0.645100	0.751640
F171	F17	0.297600	0.725200	0.689570
F181	F18	0.070800	0.651970	0.679190
F191	F19	0.129800	0.564710	0.417530
F201	F20	0.211600	0.449020	0.412200
F211	F21	0.353800	0.529160	0.464990
F221	F22	0.611500	0.458050	0.409100
F231	F23	0.464300	0.411440	0.338670
F241	F24	0.668400	0.492750	0.325490
F251	F25	0.760800	0.145100	0.251640
F261	F26	0.702400	0.225200	0.189570
F271	F27	0.929200	0.151970	0.179190
F281	F28	0.129800	0.935290	0.082470
F291	F29	0.211600	0.050980	0.087800
F301	F30	0.353800	0.970840	0.035010
F311	F31	0.611500	0.041950	0.090900
F321	F32	0.464300	0.088560	0.161330
F331	F33	0.668400	0.007250	0.174510
F341	F34	0.760800	0.354900	0.248360
F351	F35	0.702400	0.274800	0.310430
F361	F36	0.929200	0.348030	0.320810
