data_XORHET_clean_PM
_symmetry_space_group_name_H-M	'P1'
_cell_length_a	17.503000
_cell_length_b	18.341000
_cell_length_c	18.341000
_cell_angle_alpha	90.000000
_cell_angle_beta	90.000000
_cell_angle_gamma	90.000000
_symmetry_Int_Tables_number 1

loop_
_symmetry_equiv_pos_as_xyz
'x,y,z'

loop_
_atom_site_label
_atom_site_type_symbol
_atom_site_fract_x
_atom_site_fract_y
_atom_site_fract_z
Co11	Co1	0.336230	0.432610	0.846360
Co21	Co2	0.500000	0.840100	0.840100
Co31	Co3	0.750000	0.056080	0.943920
Co41	Co4	0.836230	0.567390	0.153640
Co51	Co5	0.413770	0.932610	0.653640
Co61	Co6	0.913770	0.067390	0.346360
Co71	Co7	0.163770	0.153640	0.567390
Co81	Co8	0.250000	0.340100	0.659900
Co91	Co9	0.000000	0.556080	0.556080
Co101	Co10	0.500000	0.443920	0.443920
Co111	Co11	0.000000	0.159900	0.159900
Co121	Co12	0.586230	0.653640	0.932610
Co131	Co13	0.086230	0.346360	0.067390
Co141	Co14	0.750000	0.659900	0.340100
Co151	Co15	0.663770	0.846360	0.432610
Co161	Co16	0.250000	0.943920	0.056080
H11	H1	0.476300	0.814500	0.164500
H21	H2	0.156600	0.469200	0.316700
H31	H3	0.980500	0.558000	0.737600
H41	H4	0.535300	0.347400	0.023900
H51	H5	0.480500	0.442000	0.262400
H61	H6	0.846200	0.114600	0.683200
H71	H7	0.096200	0.816800	0.614600
H81	H8	0.403800	0.385400	0.183200
H91	H9	0.773700	0.685500	0.664500
H101	H10	0.892200	0.761500	0.277800
H111	H11	0.607800	0.722200	0.238500
H121	H12	0.464700	0.023900	0.347400
H131	H13	0.343400	0.683300	0.530800
H141	H14	0.842200	0.743900	0.112300
H151	H15	0.499000	0.453000	0.756400
H161	H16	0.657800	0.887700	0.256100
H171	H17	0.092200	0.387700	0.243900
H181	H18	0.906600	0.816700	0.030800
H191	H19	0.019500	0.737600	0.558000
H201	H20	0.907800	0.243900	0.387700
H211	H21	0.392200	0.238500	0.722200
H221	H22	0.653800	0.316800	0.885400
H231	H23	0.157800	0.112300	0.743900
H241	H24	0.107800	0.277800	0.761500
H251	H25	0.642200	0.777800	0.738500
H261	H26	0.501000	0.756400	0.453000
H271	H27	0.964700	0.976100	0.652600
H281	H28	0.273700	0.314500	0.335500
H291	H29	0.903800	0.614600	0.816800
H301	H30	0.769500	0.058000	0.762400
H311	H31	0.593400	0.969200	0.183300
H321	H32	0.001000	0.243600	0.547000
H331	H33	0.407800	0.756100	0.612300
H341	H34	0.857800	0.261500	0.222200
H351	H35	0.843400	0.316700	0.469200
H361	H36	0.342200	0.256100	0.887700
H371	H37	0.093400	0.030800	0.816700
H381	H38	0.249000	0.256400	0.047000
H391	H39	0.406600	0.183300	0.969200
H401	H40	0.153800	0.683200	0.114600
H411	H41	0.749000	0.743600	0.953000
H421	H42	0.230500	0.762400	0.058000
H431	H43	0.035300	0.652600	0.976100
H441	H44	0.142200	0.222200	0.261500
H451	H45	0.251000	0.953000	0.743600
H461	H46	0.357800	0.738500	0.777800
H471	H47	0.726300	0.335500	0.314500
H481	H48	0.785300	0.476100	0.847400
H491	H49	0.999000	0.547000	0.243600
H501	H50	0.596200	0.183200	0.385400
H511	H51	0.523700	0.164500	0.814500
H521	H52	0.519500	0.262400	0.442000
H531	H53	0.592200	0.612300	0.756100
H541	H54	0.023700	0.835500	0.185500
H551	H55	0.285300	0.523900	0.152600
H561	H56	0.751000	0.047000	0.256400
H571	H57	0.976300	0.185500	0.835500
H581	H58	0.730500	0.237600	0.942000
H591	H59	0.714700	0.152600	0.523900
H601	H60	0.226300	0.664500	0.685500
H611	H61	0.346200	0.885400	0.316800
H621	H62	0.269500	0.942000	0.237600
H631	H63	0.656600	0.530800	0.683300
H641	H64	0.214700	0.847400	0.476100
C11	C1	0.441710	0.620980	0.858260
C21	C2	0.060300	0.720400	0.585600
C31	C3	0.939700	0.585600	0.720400
C41	C4	0.683200	0.320300	0.340000
C51	C5	0.793700	0.128180	0.448500
C61	C6	0.461700	0.433700	0.725800
C71	C7	0.366000	0.370200	0.373400
C81	C8	0.560300	0.279600	0.414400
C91	C9	0.858400	0.790100	0.304500
C101	C10	0.538370	0.895030	0.553880
C111	C11	0.723750	0.563960	0.949150
C121	C12	0.670800	0.535500	0.731900
C131	C13	0.461630	0.553880	0.895030
C141	C14	0.381500	0.276200	0.915300
C151	C15	0.808290	0.879020	0.358260
C161	C16	0.353900	0.365000	0.449700
C171	C17	0.376730	0.379870	0.561520
C181	C18	0.933200	0.160000	0.820300
C191	C19	0.608300	0.232400	0.382200
C201	C20	0.108300	0.767600	0.617800
C211	C21	0.384000	0.870200	0.126600
C221	C22	0.788370	0.946120	0.395030
C231	C23	0.616000	0.126600	0.870200
C241	C24	0.103900	0.949700	0.135000
C251	C25	0.439700	0.414400	0.279600
C261	C26	0.891700	0.617800	0.767600
C271	C27	0.134000	0.626600	0.629800
C281	C28	0.141600	0.304500	0.790100
C291	C29	0.191710	0.358260	0.879020
C301	C30	0.276250	0.949150	0.563960
C311	C31	0.310300	0.914400	0.220400
C321	C32	0.634000	0.373400	0.370200
C331	C33	0.183200	0.679700	0.660000
C341	C34	0.626730	0.938480	0.879870
C351	C35	0.096560	0.366110	0.601060
C361	C36	0.403440	0.398940	0.633890
C371	C37	0.043700	0.051500	0.628180
C381	C38	0.631500	0.584700	0.776200
C391	C39	0.118500	0.084700	0.723800
C401	C40	0.891600	0.290100	0.195500
C411	C41	0.079200	0.035500	0.768100
C421	C42	0.961630	0.446120	0.104970
C431	C43	0.316800	0.340000	0.320300
C441	C44	0.433200	0.840000	0.179700
C451	C45	0.358300	0.882200	0.267600
C461	C46	0.346560	0.898940	0.866110
C471	C47	0.941710	0.379020	0.141740
C481	C48	0.538300	0.725800	0.433700
C491	C49	0.608400	0.804500	0.709900
C501	C50	0.853900	0.635000	0.550300
C511	C51	0.391700	0.382200	0.232400
C521	C52	0.206300	0.448500	0.128180
C531	C53	0.691710	0.641740	0.120980
C541	C54	0.473750	0.449150	0.936040
C551	C55	0.711630	0.604970	0.053880
C561	C56	0.189700	0.779600	0.085600
C571	C57	0.881500	0.723800	0.084700
C581	C58	0.245500	0.496400	0.171900
C591	C59	0.653440	0.866110	0.898940
C601	C60	0.543700	0.948500	0.371820
C611	C61	0.391600	0.709900	0.804500
C621	C62	0.903440	0.601060	0.366110
C631	C63	0.495500	0.328100	0.996400
C641	C64	0.308290	0.120980	0.641740
C651	C65	0.866000	0.629800	0.626600
C661	C66	0.596560	0.633890	0.398940
C671	C67	0.108400	0.195500	0.290100
C681	C68	0.754500	0.171900	0.496400
C691	C69	0.504500	0.996400	0.328100
C701	C70	0.329200	0.731900	0.535500
C711	C71	0.689700	0.220400	0.914400
C721	C72	0.396100	0.865000	0.050300
C731	C73	0.961700	0.566300	0.274200
C741	C74	0.956300	0.628180	0.051500
C751	C75	0.973750	0.550850	0.063960
C761	C76	0.829200	0.268100	0.464500
C771	C77	0.368500	0.776200	0.584700
C781	C78	0.641600	0.695500	0.209900
C791	C79	0.618500	0.915300	0.276200
C801	C80	0.004500	0.003600	0.671900
C811	C81	0.558290	0.858260	0.620980
C821	C82	0.456300	0.371820	0.948500
C831	C83	0.706300	0.551500	0.871820
C841	C84	0.526250	0.936040	0.449150
C851	C85	0.288300	0.933700	0.774200
C861	C86	0.170800	0.464500	0.268100
C871	C87	0.995500	0.671900	0.003600
C881	C88	0.776250	0.050850	0.436040
C891	C89	0.579200	0.964500	0.231900
C901	C90	0.868500	0.223800	0.415300
C911	C91	0.566800	0.179700	0.840000
C921	C92	0.116000	0.873400	0.129800
C931	C93	0.810300	0.085600	0.779600
C941	C94	0.420800	0.231900	0.964500
C951	C95	0.788300	0.066300	0.225800
C961	C96	0.066800	0.820300	0.160000
C971	C97	0.126730	0.061520	0.120130
C981	C98	0.358400	0.209900	0.695500
C991	C99	0.846560	0.101060	0.133890
C1001	C100	0.211700	0.225800	0.066300
C1011	C101	0.745500	0.503600	0.828100
C1021	C102	0.641700	0.267600	0.882200
C1031	C103	0.623270	0.561520	0.379870
C1041	C104	0.873270	0.120130	0.061520
C1051	C105	0.223750	0.436040	0.050850
C1061	C106	0.123270	0.438480	0.620130
C1071	C107	0.858300	0.117800	0.732400
C1081	C108	0.141700	0.732400	0.117800
C1091	C109	0.131500	0.415300	0.223800
C1101	C110	0.153440	0.133890	0.101060
C1111	C111	0.211630	0.395030	0.946120
C1121	C112	0.026250	0.063960	0.550850
C1131	C113	0.038370	0.104970	0.446120
C1141	C114	0.816800	0.660000	0.679700
C1151	C115	0.288370	0.053880	0.604970
C1161	C116	0.146100	0.550300	0.635000
C1171	C117	0.254500	0.828100	0.503600
C1181	C118	0.920800	0.768100	0.035500
C1191	C119	0.293700	0.871820	0.551500
C1201	C120	0.058290	0.141740	0.379020
C1211	C121	0.711700	0.774200	0.933700
C1221	C122	0.646100	0.449700	0.365000
C1231	C123	0.373270	0.879870	0.938480
C1241	C124	0.884000	0.129800	0.873400
C1251	C125	0.038300	0.274200	0.566300
C1261	C126	0.896100	0.135000	0.949700
C1271	C127	0.876730	0.620130	0.438480
C1281	C128	0.603900	0.050300	0.865000
N11	N1	0.218840	0.985620	0.535330
N21	N2	0.261600	0.177610	0.631400
N31	N3	0.178380	0.852620	0.093300
N41	N4	0.393860	0.888520	0.811010
N51	N5	0.369990	0.137140	0.681160
N61	N6	0.178820	0.391200	0.010770
N71	N7	0.544010	0.832610	0.735140
N81	N8	0.976300	0.743300	0.996300
N91	N9	0.523700	0.003700	0.256700
N101	N10	0.307100	0.351990	0.557110
N111	N11	0.957770	0.159280	0.983620
N121	N12	0.511600	0.868600	0.677610
N131	N13	0.272390	0.437640	0.945670
N141	N14	0.643860	0.688990	0.388520
N151	N15	0.330200	0.347000	0.249300
N161	N16	0.928380	0.593300	0.647380
N171	N17	0.968840	0.035330	0.514380
N181	N18	0.988400	0.322390	0.131400
N191	N19	0.772390	0.562360	0.054330
N201	N20	0.042230	0.983620	0.159280
N211	N21	0.455990	0.735140	0.832610
N221	N22	0.476300	0.256700	0.003700
N231	N23	0.080200	0.749300	0.153000
N241	N24	0.106140	0.188990	0.111480
N251	N25	0.528200	0.654620	0.426100
N261	N26	0.571620	0.352620	0.406700
N271	N27	0.778200	0.073900	0.154620
N281	N28	0.605990	0.750030	0.411580
N291	N29	0.869990	0.862860	0.318840
N301	N30	0.792230	0.659280	0.516380
N311	N31	0.522390	0.554330	0.937640
N321	N32	0.705990	0.667390	0.235140
N331	N33	0.119990	0.181160	0.362860
N341	N34	0.692900	0.557110	0.351990
N351	N35	0.380010	0.637140	0.818840
N361	N36	0.442900	0.851990	0.942890
N371	N37	0.226300	0.503700	0.243300
N381	N38	0.942900	0.148010	0.057110
N391	N39	0.071620	0.647380	0.593300
N401	N40	0.022390	0.445670	0.062360
N411	N41	0.227610	0.054330	0.562360
N421	N42	0.678820	0.608800	0.989230
N431	N43	0.090900	0.504200	0.610330
N441	N44	0.273700	0.756700	0.496300
N451	N45	0.821180	0.010770	0.391200
N461	N46	0.919800	0.153000	0.749300
N471	N47	0.169800	0.750700	0.653000
N481	N48	0.321620	0.906700	0.147380
N491	N49	0.355990	0.911580	0.749970
N501	N50	0.340900	0.889670	0.004200
N511	N51	0.071180	0.108800	0.510770
N521	N52	0.023700	0.996300	0.743300
N531	N53	0.143860	0.311010	0.611480
N541	N54	0.794010	0.764860	0.332610
N551	N55	0.238400	0.368600	0.822390
N561	N56	0.669800	0.249300	0.347000
N571	N57	0.192900	0.442890	0.648010
N581	N58	0.101400	0.093090	0.654000
N591	N59	0.619990	0.818840	0.637140
N601	N60	0.477610	0.937640	0.554330
N611	N61	0.718840	0.014380	0.464670
N621	N62	0.738400	0.631400	0.177610
N631	N63	0.601400	0.906910	0.346000
N641	N64	0.044010	0.167390	0.264860
N651	N65	0.590900	0.495800	0.389670
N661	N66	0.356140	0.388520	0.688990
N671	N67	0.644010	0.749970	0.911580
N681	N68	0.851400	0.154000	0.406910
N691	N69	0.531160	0.485620	0.964670
N701	N70	0.398600	0.346000	0.906910
N711	N71	0.471800	0.426100	0.654620
N721	N72	0.159100	0.995800	0.110330
N731	N73	0.542230	0.016380	0.840720
N741	N74	0.148600	0.406910	0.154000
N751	N75	0.761600	0.822390	0.368600
N761	N76	0.807100	0.648010	0.442890
N771	N77	0.928820	0.510770	0.108800
N781	N78	0.292230	0.340720	0.483620
N791	N79	0.281160	0.464670	0.014380
N801	N80	0.557100	0.942890	0.851990
N811	N81	0.409100	0.389670	0.495800
N821	N82	0.428380	0.406700	0.352620
N831	N83	0.781160	0.535330	0.985620
N841	N84	0.294010	0.235140	0.667390
N851	N85	0.105990	0.249970	0.588420
N861	N86	0.205990	0.332610	0.764860
N871	N87	0.419800	0.847000	0.250700
N881	N88	0.955990	0.264860	0.167390
N891	N89	0.571180	0.891200	0.489230
N901	N90	0.130010	0.318840	0.862860
N911	N91	0.830200	0.653000	0.750700
N921	N92	0.894010	0.588420	0.249970
N931	N93	0.468840	0.964670	0.485620
N941	N94	0.351400	0.846000	0.593090
N951	N95	0.394010	0.411580	0.750030
N961	N96	0.457770	0.840720	0.016380
N971	N97	0.721800	0.845380	0.926100
N981	N98	0.057100	0.057110	0.148010
N991	N99	0.659100	0.004200	0.889670
N1001	N100	0.488400	0.677610	0.868600
N1011	N101	0.880010	0.362860	0.181160
N1021	N102	0.028200	0.345380	0.573900
N1031	N103	0.428820	0.489230	0.891200
N1041	N104	0.727610	0.945670	0.437640
N1051	N105	0.630010	0.681160	0.137140
N1061	N106	0.893860	0.111480	0.188990
N1071	N107	0.648600	0.593090	0.846000
N1081	N108	0.855990	0.088420	0.250030
N1091	N109	0.773700	0.243300	0.503700
N1101	N110	0.971800	0.573900	0.345380
N1111	N111	0.011600	0.131400	0.322390
N1121	N112	0.678380	0.147380	0.906700
N1131	N113	0.221800	0.154620	0.073900
N1141	N114	0.909100	0.610330	0.504200
N1151	N115	0.207770	0.516380	0.659280
N1161	N116	0.321180	0.989230	0.608800
N1171	N117	0.977610	0.062360	0.445670
N1181	N118	0.580200	0.250700	0.847000
N1191	N119	0.278200	0.926100	0.845380
N1201	N120	0.031160	0.514380	0.035330
N1211	N121	0.821620	0.093300	0.852620
N1221	N122	0.606140	0.811010	0.888520
N1231	N123	0.898600	0.654000	0.093090
N1241	N124	0.840900	0.110330	0.995800
N1251	N125	0.707770	0.483620	0.340720
N1261	N126	0.856140	0.611480	0.311010
N1271	N127	0.144010	0.250030	0.088420
N1281	N128	0.726300	0.496300	0.756700
