data_XOSPUQ_clean_PM
_symmetry_space_group_name_H-M	'P1'
_cell_length_a	20.794000
_cell_length_b	5.227200
_cell_length_c	17.962800
_cell_angle_alpha	90.000000
_cell_angle_beta	90.000000
_cell_angle_gamma	90.000000
_symmetry_Int_Tables_number 1

loop_
_symmetry_equiv_pos_as_xyz
'x,y,z'

loop_
_atom_site_label
_atom_site_type_symbol
_atom_site_fract_x
_atom_site_fract_y
_atom_site_fract_z
Zn11	Zn1	0.648890	0.284340	0.466520
Zn21	Zn2	0.746440	0.772330	0.497510
Zn31	Zn3	0.500640	0.726300	0.449900
Zn41	Zn4	0.749870	0.613300	0.262700
Zn51	Zn5	0.371150	0.348580	0.483630
P11	P1	0.757300	0.263500	0.587050
P21	P2	0.639300	0.769800	0.369210
P31	P3	0.511690	0.251100	0.544280
P41	P4	0.858880	0.648400	0.385790
O11	O1	0.680900	0.624800	0.429000
O21	O2	0.719800	0.122100	0.522000
O31	O3	0.576400	0.365100	0.525200
O41	O4	0.649400	0.060300	0.379400
O51	O5	0.742800	0.547100	0.579900
O61	O6	0.569900	0.690500	0.378300
O71	O7	0.463400	0.399800	0.492800
O81	O8	0.930400	0.692900	0.380600
O91	O9	0.506700	0.966900	0.527600
O101	O10	0.662000	0.694600	0.291500
O111	O11	0.826900	0.730900	0.313100
O121	O12	0.731700	0.163200	0.660500
O131	O13	0.832000	0.815900	0.451700
O141	O14	0.841800	0.368800	0.402100
O151	O15	0.828700	0.205000	0.576400
O161	O16	0.495500	0.302200	0.623600
Zn61	Zn6	0.351110	0.715660	0.966520
Zn71	Zn7	0.253560	0.227670	0.997510
Zn81	Zn8	0.499360	0.273700	0.949900
Zn91	Zn9	0.250130	0.386700	0.762700
Zn101	Zn10	0.628850	0.651420	0.983630
P51	P5	0.242700	0.736500	0.087050
P61	P6	0.360700	0.230200	0.869210
P71	P7	0.488310	0.748900	0.044280
P81	P8	0.141120	0.351600	0.885790
O171	O17	0.319100	0.375200	0.929000
O181	O18	0.280200	0.877900	0.022000
O191	O19	0.423600	0.634900	0.025200
O201	O20	0.350600	0.939700	0.879400
O211	O21	0.257200	0.452900	0.079900
O221	O22	0.430100	0.309500	0.878300
O231	O23	0.536600	0.600200	0.992800
O241	O24	0.069600	0.307100	0.880600
O251	O25	0.493300	0.033100	0.027600
O261	O26	0.338000	0.305400	0.791500
O271	O27	0.173100	0.269100	0.813100
O281	O28	0.268300	0.836800	0.160500
O291	O29	0.168000	0.184100	0.951700
O301	O30	0.158200	0.631200	0.902100
O311	O31	0.171300	0.795000	0.076400
O321	O32	0.504500	0.697800	0.123600
Zn111	Zn11	0.148890	0.215660	0.466520
Zn121	Zn12	0.246440	0.727670	0.497510
Zn131	Zn13	0.000640	0.773700	0.449900
Zn141	Zn14	0.249870	0.886700	0.262700
Zn151	Zn15	0.871150	0.151420	0.483630
P91	P9	0.257300	0.236500	0.587050
P101	P10	0.139300	0.730200	0.369210
P111	P11	0.011690	0.248900	0.544280
P121	P12	0.358880	0.851600	0.385790
O331	O33	0.180900	0.875200	0.429000
O341	O34	0.219800	0.377900	0.522000
O351	O35	0.076400	0.134900	0.525200
O361	O36	0.149400	0.439700	0.379400
O371	O37	0.242800	0.952900	0.579900
O381	O38	0.069900	0.809500	0.378300
O391	O39	0.963400	0.100200	0.492800
O401	O40	0.430400	0.807100	0.380600
O411	O41	0.006700	0.533100	0.527600
O421	O42	0.162000	0.805400	0.291500
O431	O43	0.326900	0.769100	0.313100
O441	O44	0.231700	0.336800	0.660500
O451	O45	0.332000	0.684100	0.451700
O461	O46	0.341800	0.131200	0.402100
O471	O47	0.328700	0.295000	0.576400
O481	O48	0.995500	0.197800	0.623600
Zn161	Zn16	0.851110	0.784340	0.966520
Zn171	Zn17	0.753560	0.272330	0.997510
Zn181	Zn18	0.999360	0.226300	0.949900
Zn191	Zn19	0.750130	0.113300	0.762700
Zn201	Zn20	0.128850	0.848580	0.983630
P131	P13	0.742700	0.763500	0.087050
P141	P14	0.860700	0.269800	0.869210
P151	P15	0.988310	0.751100	0.044280
P161	P16	0.641120	0.148400	0.885790
O491	O49	0.819100	0.124800	0.929000
O501	O50	0.780200	0.622100	0.022000
O511	O51	0.923600	0.865100	0.025200
O521	O52	0.850600	0.560300	0.879400
O531	O53	0.757200	0.047100	0.079900
O541	O54	0.930100	0.190500	0.878300
O551	O55	0.036600	0.899800	0.992800
O561	O56	0.569600	0.192900	0.880600
O571	O57	0.993300	0.466900	0.027600
O581	O58	0.838000	0.194600	0.791500
O591	O59	0.673100	0.230900	0.813100
O601	O60	0.768300	0.663200	0.160500
O611	O61	0.668000	0.315900	0.951700
O621	O62	0.658200	0.868800	0.902100
O631	O63	0.671300	0.705000	0.076400
O641	O64	0.004500	0.802200	0.123600
