data_XOSPUQ02_clean_PM
_symmetry_space_group_name_H-M	'P1'
_cell_length_a	20.723000
_cell_length_b	5.209500
_cell_length_c	17.874100
_cell_angle_alpha	90.000000
_cell_angle_beta	90.000000
_cell_angle_gamma	90.000000
_symmetry_Int_Tables_number 1

loop_
_symmetry_equiv_pos_as_xyz
'x,y,z'

loop_
_atom_site_label
_atom_site_type_symbol
_atom_site_fract_x
_atom_site_fract_y
_atom_site_fract_z
Zn11	Zn1	0.148990	0.784670	0.425110
Zn21	Zn2	0.246570	0.272870	0.394000
Zn31	Zn3	0.371540	0.650910	0.407470
Zn41	Zn4	0.001020	0.225230	0.441150
Zn51	Zn5	0.249910	0.615160	0.128790
P11	P1	0.257490	0.764600	0.303880
P21	P2	0.139430	0.269400	0.521740
P31	P3	0.012070	0.750000	0.346100
P41	P4	0.359270	0.148800	0.504690
O11	O1	0.220730	0.623300	0.369100
O21	O2	0.328750	0.704100	0.313560
O31	O3	0.231780	0.661800	0.230780
O41	O4	0.243080	0.047600	0.311300
O51	O5	0.162510	0.193900	0.600050
O61	O6	0.181450	0.124900	0.462300
O71	O7	0.149480	0.559400	0.511570
O81	O8	0.070170	0.188300	0.513220
O91	O9	0.963700	0.900400	0.397900
O101	O10	0.077550	0.865700	0.364800
O111	O11	0.007200	0.465000	0.362100
O121	O12	0.996160	0.801400	0.265000
O131	O13	0.331780	0.317100	0.439840
O141	O14	0.342000	0.867800	0.489010
O151	O15	0.327330	0.231600	0.577760
O161	O16	0.430960	0.192000	0.510100
Zn61	Zn6	0.851010	0.215330	0.925110
Zn71	Zn7	0.753430	0.727130	0.894000
Zn81	Zn8	0.628460	0.349090	0.907470
Zn91	Zn9	0.998980	0.774770	0.941150
Zn101	Zn10	0.750090	0.384840	0.628790
P51	P5	0.742510	0.235400	0.803880
P61	P6	0.860570	0.730600	0.021740
P71	P7	0.987930	0.250000	0.846100
P81	P8	0.640730	0.851200	0.004690
O171	O17	0.779270	0.376700	0.869100
O181	O18	0.671250	0.295900	0.813560
O191	O19	0.768220	0.338200	0.730780
O201	O20	0.756920	0.952400	0.811300
O211	O21	0.837490	0.806100	0.100050
O221	O22	0.818550	0.875100	0.962300
O231	O23	0.850520	0.440600	0.011570
O241	O24	0.929830	0.811700	0.013220
O251	O25	0.036300	0.099600	0.897900
O261	O26	0.922450	0.134300	0.864800
O271	O27	0.992800	0.535000	0.862100
O281	O28	0.003840	0.198600	0.765000
O291	O29	0.668220	0.682900	0.939840
O301	O30	0.658000	0.132200	0.989010
O311	O31	0.672670	0.768400	0.077760
O321	O32	0.569040	0.808000	0.010100
Zn111	Zn11	0.648990	0.715330	0.425110
Zn121	Zn12	0.746570	0.227130	0.394000
Zn131	Zn13	0.871540	0.849090	0.407470
Zn141	Zn14	0.501020	0.274770	0.441150
Zn151	Zn15	0.749910	0.884840	0.128790
P91	P9	0.757490	0.735400	0.303880
P101	P10	0.639430	0.230600	0.521740
P111	P11	0.512070	0.750000	0.346100
P121	P12	0.859270	0.351200	0.504690
O331	O33	0.720730	0.876700	0.369100
O341	O34	0.828750	0.795900	0.313560
O351	O35	0.731780	0.838200	0.230780
O361	O36	0.743080	0.452400	0.311300
O371	O37	0.662510	0.306100	0.600050
O381	O38	0.681450	0.375100	0.462300
O391	O39	0.649480	0.940600	0.511570
O401	O40	0.570170	0.311700	0.513220
O411	O41	0.463700	0.599600	0.397900
O421	O42	0.577550	0.634300	0.364800
O431	O43	0.507200	0.035000	0.362100
O441	O44	0.496160	0.698600	0.265000
O451	O45	0.831780	0.182900	0.439840
O461	O46	0.842000	0.632200	0.489010
O471	O47	0.827330	0.268400	0.577760
O481	O48	0.930960	0.308000	0.510100
Zn161	Zn16	0.351010	0.284670	0.925110
Zn171	Zn17	0.253430	0.772870	0.894000
Zn181	Zn18	0.128460	0.150910	0.907470
Zn191	Zn19	0.498980	0.725230	0.941150
Zn201	Zn20	0.250090	0.115160	0.628790
P131	P13	0.242510	0.264600	0.803880
P141	P14	0.360570	0.769400	0.021740
P151	P15	0.487930	0.250000	0.846100
P161	P16	0.140730	0.648800	0.004690
O491	O49	0.279270	0.123300	0.869100
O501	O50	0.171250	0.204100	0.813560
O511	O51	0.268220	0.161800	0.730780
O521	O52	0.256920	0.547600	0.811300
O531	O53	0.337490	0.693900	0.100050
O541	O54	0.318550	0.624900	0.962300
O551	O55	0.350520	0.059400	0.011570
O561	O56	0.429830	0.688300	0.013220
O571	O57	0.536300	0.400400	0.897900
O581	O58	0.422450	0.365700	0.864800
O591	O59	0.492800	0.965000	0.862100
O601	O60	0.503840	0.301400	0.765000
O611	O61	0.168220	0.817100	0.939840
O621	O62	0.158000	0.367800	0.989010
O631	O63	0.172670	0.731600	0.077760
O641	O64	0.069040	0.692000	0.010100
