data_XOSPEB_clean_PM
_symmetry_space_group_name_H-M	'P1'
_cell_length_a	13.788300
_cell_length_b	13.788300
_cell_length_c	9.345000
_cell_angle_alpha	90.000000
_cell_angle_beta	90.000000
_cell_angle_gamma	120.000000
_symmetry_Int_Tables_number 1

loop_
_symmetry_equiv_pos_as_xyz
'x,y,z'

loop_
_atom_site_label
_atom_site_type_symbol
_atom_site_fract_x
_atom_site_fract_y
_atom_site_fract_z
O11	O1	0.929300	0.075500	0.628800
O21	O2	0.831400	0.385100	0.085700
O31	O3	0.712800	0.144600	0.998200
O41	O4	0.999500	0.432900	0.844400
O51	O5	0.759900	0.312600	0.760600
O61	O6	0.027900	0.140500	0.872100
O71	O7	0.876300	0.181100	0.791500
In11	In1	0.853800	0.293000	0.924220
P11	P1	0.876160	0.506380	0.118500
P21	P2	0.971970	0.163730	0.746590
H11	H1	0.821000	0.516000	0.235000
H21	H2	0.062000	0.268000	0.706000
O81	O8	0.924500	0.853800	0.628800
O91	O9	0.614900	0.446300	0.085700
O101	O10	0.855400	0.568200	0.998200
O111	O11	0.567100	0.566600	0.844400
O121	O12	0.687400	0.447300	0.760600
O131	O13	0.859500	0.887400	0.872100
O141	O14	0.818900	0.695200	0.791500
In21	In2	0.707000	0.560800	0.924220
P31	P3	0.493620	0.369780	0.118500
P41	P4	0.836270	0.808240	0.746590
H31	H3	0.484000	0.305000	0.235000
H41	H4	0.732000	0.794000	0.706000
O151	O15	0.146200	0.070700	0.628800
O161	O16	0.553700	0.168600	0.085700
O171	O17	0.431800	0.287200	0.998200
O181	O18	0.433400	0.000500	0.844400
O191	O19	0.552700	0.240100	0.760600
O201	O20	0.112600	0.972100	0.872100
O211	O21	0.304800	0.123700	0.791500
In31	In3	0.439200	0.146200	0.924220
P51	P5	0.630220	0.123840	0.118500
P61	P6	0.191760	0.028030	0.746590
H51	H5	0.695000	0.179000	0.235000
H61	H6	0.206000	0.938000	0.706000
O221	O22	0.070700	0.924500	0.371200
O231	O23	0.168600	0.614900	0.914300
O241	O24	0.287200	0.855400	0.001800
O251	O25	0.000500	0.567100	0.155600
O261	O26	0.240100	0.687400	0.239400
O271	O27	0.972100	0.859500	0.127900
O281	O28	0.123700	0.818900	0.208500
In41	In4	0.146200	0.707000	0.075780
P71	P7	0.123840	0.493620	0.881500
P81	P8	0.028030	0.836270	0.253410
H71	H7	0.179000	0.484000	0.765000
H81	H8	0.938000	0.732000	0.294000
O291	O29	0.075500	0.146200	0.371200
O301	O30	0.385100	0.553700	0.914300
O311	O31	0.144600	0.431800	0.001800
O321	O32	0.432900	0.433400	0.155600
O331	O33	0.312600	0.552700	0.239400
O341	O34	0.140500	0.112600	0.127900
O351	O35	0.181100	0.304800	0.208500
In51	In5	0.293000	0.439200	0.075780
P91	P9	0.506380	0.630220	0.881500
P101	P10	0.163730	0.191760	0.253410
H91	H9	0.516000	0.695000	0.765000
H101	H10	0.268000	0.206000	0.294000
O361	O36	0.853800	0.929300	0.371200
O371	O37	0.446300	0.831400	0.914300
O381	O38	0.568200	0.712800	0.001800
O391	O39	0.566600	0.999500	0.155600
O401	O40	0.447300	0.759900	0.239400
O411	O41	0.887400	0.027900	0.127900
O421	O42	0.695200	0.876300	0.208500
In61	In6	0.560800	0.853800	0.075780
P111	P11	0.369780	0.876160	0.881500
P121	P12	0.808240	0.971970	0.253410
H111	H11	0.305000	0.821000	0.765000
H121	H12	0.794000	0.062000	0.294000
In71	In7	0.000000	0.000000	0.500000
In81	In8	0.000000	0.000000	0.000000
P131	P13	0.666670	0.333330	0.720000
H131	H13	0.666670	0.333330	0.572000
P141	P14	0.333330	0.666670	0.280000
H141	H14	0.333330	0.666670	0.428000
