data_XOTGUI_clean_PM
_symmetry_space_group_name_H-M	'P1'
_cell_length_a	9.027900
_cell_length_b	18.136200
_cell_length_c	8.563100
_cell_angle_alpha	90.000000
_cell_angle_beta	102.735000
_cell_angle_gamma	90.000000
_symmetry_Int_Tables_number 1

loop_
_symmetry_equiv_pos_as_xyz
'x,y,z'

loop_
_atom_site_label
_atom_site_type_symbol
_atom_site_fract_x
_atom_site_fract_y
_atom_site_fract_z
Nd11	Nd1	0.268540	0.119240	0.064260
O11	O1	0.487900	0.040900	0.180600
O21	O2	0.416400	0.186600	0.302700
O31	O3	0.147600	0.325500	0.302800
O41	O4	0.143300	0.232400	0.134600
O51	O5	0.420700	0.281400	0.471200
O61	O6	0.189900	0.987100	0.995900
O71	O7	0.009900	0.904000	0.996200
O81	O8	0.596900	0.935300	0.135700
C11	C1	0.203600	0.269000	0.253600
C21	C2	0.362100	0.243000	0.351200
C31	C3	0.524900	0.993000	0.091300
C41	C4	0.057400	0.968700	0.997300
Nd21	Nd2	0.731460	0.619240	0.435740
O91	O9	0.512100	0.540900	0.319400
O101	O10	0.583600	0.686600	0.197300
O111	O11	0.852400	0.825500	0.197200
O121	O12	0.856700	0.732400	0.365400
O131	O13	0.579300	0.781400	0.028800
O141	O14	0.810100	0.487100	0.504100
O151	O15	0.990100	0.404000	0.503800
O161	O16	0.403100	0.435300	0.364300
C51	C5	0.796400	0.769000	0.246400
C61	C6	0.637900	0.743000	0.148800
C71	C7	0.475100	0.493000	0.408700
C81	C8	0.942600	0.468700	0.502700
Nd31	Nd3	0.731460	0.880770	0.935740
O171	O17	0.512100	0.959100	0.819400
O181	O18	0.583600	0.813400	0.697300
O191	O19	0.852400	0.674500	0.697200
O201	O20	0.856700	0.767600	0.865400
O211	O21	0.579300	0.718600	0.528800
O221	O22	0.810100	0.012900	0.004100
O231	O23	0.990100	0.096000	0.003800
O241	O24	0.403100	0.064700	0.864300
C91	C9	0.796400	0.731000	0.746400
C101	C10	0.637900	0.757000	0.648800
C111	C11	0.475100	0.007000	0.908700
C121	C12	0.942600	0.031300	0.002700
Nd41	Nd4	0.268540	0.380770	0.564260
O251	O25	0.487900	0.459100	0.680600
O261	O26	0.416400	0.313400	0.802700
O271	O27	0.147600	0.174500	0.802800
O281	O28	0.143300	0.267600	0.634600
O291	O29	0.420700	0.218600	0.971200
O301	O30	0.189900	0.512900	0.495900
O311	O31	0.009900	0.596000	0.496200
O321	O32	0.596900	0.564700	0.635700
C131	C13	0.203600	0.231000	0.753600
C141	C14	0.362100	0.257000	0.851200
C151	C15	0.524900	0.507000	0.591300
C161	C16	0.057400	0.531300	0.497300
