data_XOTHAP_clean_PM
_symmetry_space_group_name_H-M	'P1'
_cell_length_a	8.622200
_cell_length_b	9.568300
_cell_length_c	9.571200
_cell_angle_alpha	109.388000
_cell_angle_beta	98.508000
_cell_angle_gamma	102.361000
_symmetry_Int_Tables_number 1

loop_
_symmetry_equiv_pos_as_xyz
'x,y,z'

loop_
_atom_site_label
_atom_site_type_symbol
_atom_site_fract_x
_atom_site_fract_y
_atom_site_fract_z
Nd11	Nd1	0.161400	0.228340	0.349850
O11	O1	0.097600	0.198900	0.079500
O21	O2	0.203900	0.067800	0.498500
O31	O3	0.344000	0.465100	0.345300
O41	O4	0.982400	0.392000	0.310300
O51	O5	0.568500	0.659700	0.456000
O61	O6	0.861800	0.572000	0.411800
O71	O7	0.083600	0.878000	0.568000
O81	O8	0.001300	0.040000	0.834700
C11	C1	0.028600	0.069900	0.976700
C21	C2	0.082600	0.983600	0.519300
C31	C3	0.474900	0.535600	0.442000
C41	C4	0.955200	0.487700	0.419500
Nd21	Nd2	0.838600	0.771660	0.650150
O91	O9	0.902400	0.801100	0.920500
O101	O10	0.796100	0.932200	0.501500
O111	O11	0.656000	0.534900	0.654700
O121	O12	0.017600	0.608000	0.689700
O131	O13	0.431500	0.340300	0.544000
O141	O14	0.138200	0.428000	0.588200
O151	O15	0.916400	0.122000	0.432000
O161	O16	0.998700	0.960000	0.165300
C51	C5	0.971400	0.930100	0.023300
C61	C6	0.917400	0.016400	0.480700
C71	C7	0.525100	0.464400	0.558000
C81	C8	0.044800	0.512300	0.580500
