data_XOTSEG_clean_PM
_symmetry_space_group_name_H-M	'P1'
_cell_length_a	13.878300
_cell_length_b	20.367400
_cell_length_c	21.034400
_cell_angle_alpha	62.572000
_cell_angle_beta	82.489000
_cell_angle_gamma	73.850000
_symmetry_Int_Tables_number 1

loop_
_symmetry_equiv_pos_as_xyz
'x,y,z'

loop_
_atom_site_label
_atom_site_type_symbol
_atom_site_fract_x
_atom_site_fract_y
_atom_site_fract_z
Mn11	Mn1	0.087360	0.317570	0.339840
Mn21	Mn2	0.314240	0.291900	0.423290
Mn31	Mn3	0.876940	0.249080	0.441510
H11	H1	0.325400	0.097300	0.186900
H21	H2	0.042500	0.065500	0.701400
H31	H3	0.284100	0.870400	0.929300
H41	H4	0.630900	0.142800	0.932200
H51	H5	0.204000	0.926400	0.869400
H61	H6	0.789300	0.120000	0.595400
H71	H7	0.097200	0.541500	0.174600
H81	H8	0.663800	0.842200	0.962100
H91	H9	0.187200	0.267800	0.568200
H101	H10	0.068000	0.165200	0.963800
H111	H11	0.316200	0.524500	0.291700
H121	H12	0.201400	0.208000	0.692600
H131	H13	0.008300	0.161200	0.907800
H141	H14	0.629200	0.617500	0.211100
H151	H15	0.032900	0.123000	0.579000
H161	H16	0.960800	0.527900	0.284400
H171	H17	0.691300	0.490100	0.285300
H181	H18	0.875700	0.141700	0.298200
H191	H19	0.914900	0.077700	0.227500
H201	H20	0.179300	0.853500	0.933500
H211	H21	0.057500	0.275100	0.178200
H221	H22	0.484100	0.206400	0.277600
H231	H23	0.187800	0.868900	0.175800
H241	H24	0.546400	0.146400	0.988700
H251	H25	0.785300	0.027700	0.726400
H261	H26	0.523500	0.138400	0.921900
H271	H27	0.237100	0.151400	0.259200
H281	H28	0.098700	0.664900	0.100200
H291	H29	0.120600	0.165700	0.893000
H301	H30	0.651100	0.909800	0.214300
H311	H31	0.640900	0.835200	0.214000
H321	H32	0.318100	0.649900	0.216500
H331	H33	0.094700	0.214300	0.106200
H341	H34	0.077800	0.866100	0.169600
H351	H35	0.545000	0.900600	0.207400
H361	H36	0.558900	0.270000	0.620700
H371	H37	0.097100	0.934900	0.176300
H381	H38	0.554500	0.193300	0.741200
H391	H39	0.769700	0.820600	0.995000
H401	H40	0.901000	0.654300	0.210300
H411	H41	0.740800	0.891600	0.920600
H421	H42	0.572200	0.149100	0.206500
C11	C1	0.965800	0.213400	0.246800
C21	C2	0.126800	0.127500	0.711400
C31	C3	0.733000	0.523300	0.270600
C41	C4	0.141900	0.563200	0.183000
C51	C5	0.600700	0.175600	0.712900
C61	C6	0.172500	0.938200	0.961700
C71	C7	0.573500	0.124300	0.956500
C81	C8	0.142600	0.636800	0.138800
C91	C9	0.601500	0.221400	0.641200
C101	C10	0.101300	0.020000	0.041200
C111	C11	0.208900	0.671500	0.150400
C121	C12	0.739500	0.130600	0.625800
C131	C13	0.509600	0.082400	0.145900
C141	C14	0.644900	0.992300	0.963900
C151	C15	0.304100	0.152000	0.248300
C161	C16	0.073500	0.105100	0.674900
C171	C17	0.858600	0.621500	0.225100
C181	C18	0.009200	0.140200	0.158800
C191	C19	0.357700	0.119300	0.205200
C201	C20	0.106000	0.060400	0.966000
C211	C21	0.873000	0.411100	0.346300
C221	C22	0.664700	0.879900	0.078500
C231	C23	0.549000	0.049200	0.110100
C241	C24	0.168200	0.190400	0.670300
C251	C25	0.204500	0.750700	0.107000
C261	C26	0.625400	0.925500	0.114000
C271	C27	0.352300	0.186000	0.275200
C281	C28	0.739500	0.075100	0.707100
C291	C29	0.051300	0.198900	0.144900
C301	C30	0.665800	0.193600	0.601600
C311	C31	0.604100	0.038900	0.998100
C321	C32	0.504600	0.150200	0.216400
C331	C33	0.066200	0.140200	0.601600
C341	C34	0.122200	0.899000	0.156800
C351	C35	0.656500	0.027200	0.887700
C361	C36	0.456800	0.118400	0.189000
C371	C37	0.920800	0.155400	0.260400
C381	C38	0.695900	0.599200	0.225700
C391	C39	0.191800	0.819000	0.072600
C401	C40	0.063700	0.062900	0.083000
C411	C41	0.951900	0.248800	0.298000
C421	C42	0.760900	0.649800	0.201500
C431	C43	0.140100	0.017400	0.927300
C441	C44	0.721800	0.730000	0.156100
C451	C45	0.292200	0.224300	0.320800
C461	C46	0.100600	0.240100	0.481900
C471	C47	0.943300	0.117700	0.217500
C481	C48	0.164300	0.901100	0.036500
C491	C49	0.159100	0.226600	0.595400
C501	C50	0.108300	0.201100	0.561600
C511	C51	0.451400	0.184500	0.259500
C521	C52	0.831800	0.495000	0.294700
C531	C53	0.072800	0.145800	0.929400
C541	C54	0.029100	0.235000	0.188400
C551	C55	0.660800	0.246400	0.515900
C561	C56	0.670500	0.098300	0.748300
C571	C57	0.614600	0.889400	0.194800
C581	C58	0.272700	0.553100	0.252900
C591	C59	0.213700	0.893000	0.919600
C601	C60	0.663300	0.058200	0.824400
C611	C61	0.273500	0.628200	0.207900
C621	C62	0.206800	0.438000	0.289800
C631	C63	0.716000	0.862100	0.967100
C641	C64	0.894100	0.546000	0.269900
C651	C65	0.140100	0.057200	0.850500
C661	C66	0.695400	0.798300	0.119900
C671	C67	0.135900	0.088600	0.788100
C681	C68	0.593000	0.003800	0.074500
C691	C69	0.038300	0.097200	0.116300
C701	C70	0.206400	0.520400	0.239800
C711	C71	0.674500	0.912200	0.004300
C721	C72	0.128500	0.941400	0.076200
O11	O1	0.813400	0.368900	0.370100
O21	O2	0.201200	0.232500	0.324600
O31	O3	0.149800	0.409800	0.274200
O41	O4	0.042400	0.226600	0.451200
O51	O5	0.342300	0.244200	0.350400
O61	O6	0.582300	0.302200	0.494600
O71	O7	0.725800	0.230600	0.478700
O81	O8	0.900600	0.221700	0.353400
O91	O9	0.155700	0.286700	0.445800
O101	O10	0.262300	0.405400	0.343200
O111	O11	0.990300	0.304200	0.280200
O121	O12	0.962800	0.392100	0.363700
Mn41	Mn4	0.912640	0.682430	0.660160
Mn51	Mn5	0.685760	0.708100	0.576710
Mn61	Mn6	0.123060	0.750920	0.558490
H431	H43	0.905300	0.785700	0.893800
H441	H44	0.967100	0.877000	0.421000
H451	H45	0.085100	0.922300	0.772500
H461	H46	0.230300	0.179400	0.005000
H471	H47	0.674600	0.902700	0.813100
H481	H48	0.445500	0.806700	0.258800
H491	H49	0.336200	0.157800	0.037900
H501	H50	0.820700	0.146500	0.066500
H511	H51	0.308700	0.509900	0.714700
H521	H52	0.762900	0.848600	0.740800
H531	H53	0.259200	0.108400	0.079400
H541	H54	0.902800	0.458500	0.825400
H551	H55	0.812200	0.131100	0.824200
H561	H56	0.798600	0.792000	0.307400
H571	H57	0.369100	0.857200	0.067800
H581	H58	0.099000	0.345700	0.789700
H591	H59	0.348900	0.090200	0.785700
H601	H60	0.453600	0.853600	0.011300
H611	H61	0.214700	0.972300	0.273600
H621	H62	0.441100	0.730000	0.379300
H631	H63	0.942500	0.724900	0.821800
H641	H64	0.124300	0.858300	0.701800
H651	H65	0.359100	0.164800	0.786000
H661	H66	0.796000	0.073600	0.130600
H671	H67	0.427800	0.850900	0.793500
H681	H68	0.039200	0.472100	0.715600
H691	H69	0.922200	0.133900	0.830400
H701	H70	0.901300	0.335100	0.899800
H711	H71	0.715900	0.129600	0.070700
H721	H72	0.515900	0.793600	0.722400
H731	H73	0.991700	0.838800	0.092200
H741	H74	0.683800	0.475500	0.708300
H751	H75	0.902900	0.065100	0.823700
H761	H76	0.455000	0.099400	0.792600
H771	H77	0.932000	0.834800	0.036200
H781	H78	0.476500	0.861600	0.078100
H791	H79	0.957500	0.934500	0.298600
H801	H80	0.879400	0.834300	0.107000
H811	H81	0.681900	0.350100	0.783500
H821	H82	0.812800	0.732200	0.431800
H831	H83	0.210700	0.880000	0.404600
H841	H84	0.370800	0.382500	0.788900
C731	C73	0.864100	0.911400	0.211900
C741	C74	0.898700	0.980000	0.958800
C751	C75	0.336700	0.941800	0.175600
C761	C76	0.304100	0.400800	0.774300
C771	C77	0.791100	0.328500	0.849600
C781	C78	0.325500	0.087800	0.995700
C791	C79	0.786300	0.107000	0.080400
C801	C80	0.793600	0.479600	0.760200
C811	C81	0.239100	0.350200	0.798500
C821	C82	0.835700	0.098900	0.963500
C831	C83	0.543200	0.881600	0.811000
C841	C84	0.168200	0.505000	0.705300
C851	C85	0.329500	0.901700	0.251700
C861	C86	0.899400	0.759900	0.518100
C871	C87	0.926500	0.894900	0.325100
C881	C88	0.927200	0.854200	0.070600
C891	C89	0.034200	0.786600	0.753200
C901	C90	0.894000	0.939600	0.034000
C911	C91	0.873200	0.872500	0.288600
C921	C92	0.793200	0.562000	0.710200
C931	C93	0.278200	0.270000	0.843900
C941	C94	0.695900	0.848000	0.751700
C951	C95	0.877800	0.101000	0.843200
C961	C96	0.495400	0.849800	0.783600
C971	C97	0.548600	0.815500	0.740500
C981	C98	0.871500	0.058600	0.923800
C991	C99	0.267000	0.476700	0.729400
C1001	C100	0.355100	0.007700	0.036100
C1011	C101	0.127000	0.588900	0.653700
C1021	C102	0.642300	0.880700	0.794800
C1031	C103	0.808200	0.181000	0.927400
C1041	C104	0.795500	0.249300	0.893000
C1051	C105	0.933800	0.859800	0.398400
C1061	C106	0.970900	0.765000	0.811600
C1071	C107	0.831800	0.809600	0.329700
C1081	C108	0.260500	0.869400	0.374200
C1091	C109	0.339200	0.753600	0.484100
C1101	C110	0.284000	0.137900	0.032900
C1111	C111	0.056700	0.882300	0.782500
C1121	C112	0.260500	0.924900	0.292900
C1131	C113	0.048100	0.751200	0.702000
C1141	C114	0.990800	0.859800	0.841200
C1151	C115	0.827500	0.061800	0.038300
C1161	C116	0.141400	0.378500	0.774900
C1171	C117	0.859900	0.942800	0.149500
C1181	C118	0.343500	0.972800	0.112300
C1191	C119	0.490400	0.917600	0.854100
C1201	C120	0.399300	0.824400	0.287100
C1211	C121	0.647700	0.814000	0.724800
C1221	C122	0.407000	0.996200	0.925500
C1231	C123	0.335300	0.120100	0.921500
C1241	C124	0.374600	0.074500	0.886000
C1251	C125	0.334200	0.806400	0.398400
C1261	C126	0.395900	0.961100	0.001900
C1271	C127	0.426500	0.875700	0.043500
C1281	C128	0.859900	0.982600	0.072700
C1291	C129	0.079200	0.844600	0.739600
C1301	C130	0.304600	0.201700	0.880100
C1311	C131	0.398500	0.778600	0.358800
C1321	C132	0.385400	0.110600	0.805200
C1331	C133	0.948700	0.801100	0.855100
C1341	C134	0.105900	0.454000	0.730100
C1351	C135	0.727300	0.446900	0.747100
C1361	C136	0.936300	0.937100	0.917000
C1371	C137	0.840900	0.773400	0.404600
C1381	C138	0.726500	0.371800	0.792100
C1391	C139	0.857400	0.363200	0.861200
C1401	C140	0.707800	0.775700	0.679200
C1411	C141	0.451000	0.950800	0.889900
C1421	C142	0.961700	0.902800	0.883700
C1431	C143	0.858100	0.436800	0.817000
C1441	C144	0.891700	0.798900	0.438400
O131	O13	0.657700	0.755800	0.649600
O141	O14	0.274200	0.769400	0.521300
O151	O15	0.099400	0.778300	0.646600
O161	O16	0.037200	0.607900	0.636300
O171	O17	0.737700	0.594600	0.656800
O181	O18	0.844300	0.713300	0.554200
O191	O19	0.957600	0.773400	0.548800
O201	O20	0.417700	0.697800	0.505400
O211	O21	0.850200	0.590200	0.725800
O221	O22	0.009700	0.695800	0.719800
O231	O23	0.186600	0.631100	0.629900
O241	O24	0.798800	0.767500	0.675400
