data_XOTXAG_clean_PM
_symmetry_space_group_name_H-M	'P1'
_cell_length_a	6.446700
_cell_length_b	16.648500
_cell_length_c	21.697400
_cell_angle_alpha	90.000000
_cell_angle_beta	90.000000
_cell_angle_gamma	91.283000
_symmetry_Int_Tables_number 1

loop_
_symmetry_equiv_pos_as_xyz
'x,y,z'

loop_
_atom_site_label
_atom_site_type_symbol
_atom_site_fract_x
_atom_site_fract_y
_atom_site_fract_z
Na11	Na1	0.611700	0.538040	0.925830
Na21	Na2	0.388300	0.961960	0.425830
Na31	Na3	0.388300	0.461960	0.074170
Na41	Na4	0.611700	0.038040	0.574170
La11	La1	0.562460	0.780690	0.922270
La21	La2	0.437540	0.719310	0.422270
La31	La3	0.437540	0.219310	0.077730
La41	La4	0.562460	0.280690	0.577730
H11	H1	0.543500	0.645000	0.707200
H21	H2	0.597000	0.646400	0.601300
H31	H3	0.403400	0.846700	0.745400
H41	H4	0.457600	0.846300	0.639900
H51	H5	0.456500	0.855000	0.207200
H61	H6	0.403000	0.853600	0.101300
H71	H7	0.596600	0.653300	0.245400
H81	H8	0.542400	0.653700	0.139900
H91	H9	0.456500	0.355000	0.292800
H101	H10	0.403000	0.353600	0.398700
H111	H11	0.596600	0.153300	0.254600
H121	H12	0.542400	0.153700	0.360100
H131	H13	0.543500	0.145000	0.792800
H141	H14	0.597000	0.146400	0.898700
H151	H15	0.403400	0.346700	0.754600
H161	H16	0.457600	0.346300	0.860100
C11	C1	0.794100	0.712880	0.729820
C21	C2	0.657400	0.672900	0.690910
C31	C3	0.689400	0.674000	0.626990
C41	C4	0.854600	0.715160	0.602070
C51	C5	0.018500	0.745620	0.641470
C61	C6	0.986700	0.744450	0.706260
C71	C7	0.148900	0.776000	0.745680
C81	C8	0.312200	0.817870	0.720040
C91	C9	0.344400	0.818100	0.656250
C101	C10	0.211300	0.777190	0.617630
C111	C11	0.714500	0.734250	0.792490
C121	C12	0.835700	0.740820	0.535820
C131	C13	0.166800	0.752140	0.812520
C141	C14	0.290200	0.756700	0.554430
C151	C15	0.205900	0.787120	0.229820
C161	C16	0.342600	0.827100	0.190910
C171	C17	0.310600	0.826000	0.126990
C181	C18	0.145400	0.784840	0.102070
C191	C19	0.981500	0.754380	0.141470
C201	C20	0.013300	0.755550	0.206260
C211	C21	0.851100	0.724000	0.245680
C221	C22	0.687800	0.682130	0.220040
C231	C23	0.655600	0.681900	0.156250
C241	C24	0.788700	0.722810	0.117630
C251	C25	0.285500	0.765750	0.292490
C261	C26	0.164300	0.759180	0.035820
C271	C27	0.833200	0.747860	0.312520
C281	C28	0.709800	0.743300	0.054430
C291	C29	0.205900	0.287120	0.270180
C301	C30	0.342600	0.327100	0.309090
C311	C31	0.310600	0.326000	0.373010
C321	C32	0.145400	0.284840	0.397930
C331	C33	0.981500	0.254380	0.358530
C341	C34	0.013300	0.255550	0.293740
C351	C35	0.851100	0.224000	0.254320
C361	C36	0.687800	0.182130	0.279960
C371	C37	0.655600	0.181900	0.343750
C381	C38	0.788700	0.222810	0.382370
C391	C39	0.285500	0.265750	0.207510
C401	C40	0.164300	0.259180	0.464180
C411	C41	0.833200	0.247860	0.187480
C421	C42	0.709800	0.243300	0.445570
C431	C43	0.794100	0.212880	0.770180
C441	C44	0.657400	0.172900	0.809090
C451	C45	0.689400	0.174000	0.873010
C461	C46	0.854600	0.215160	0.897930
C471	C47	0.018500	0.245620	0.858530
C481	C48	0.986700	0.244450	0.793740
C491	C49	0.148900	0.276000	0.754320
C501	C50	0.312200	0.317870	0.779960
C511	C51	0.344400	0.318100	0.843750
C521	C52	0.211300	0.277190	0.882370
C531	C53	0.714500	0.234250	0.707510
C541	C54	0.835700	0.240820	0.964180
C551	C55	0.166800	0.252140	0.687480
C561	C56	0.290200	0.256700	0.945570
O11	O1	0.594500	0.685790	0.820680
O21	O2	0.755900	0.803020	0.814120
O31	O3	0.101900	0.681850	0.826130
O41	O4	0.256900	0.799560	0.849430
O51	O5	0.406500	0.806770	0.526630
O61	O6	0.248300	0.688180	0.532080
O71	O7	0.898500	0.810760	0.522140
O81	O8	0.744300	0.693580	0.497900
O91	O9	0.354500	0.645110	0.924820
O101	O10	0.838700	0.667000	0.923870
O111	O11	0.312200	0.463370	0.963300
O121	O12	0.405500	0.814210	0.320680
O131	O13	0.244100	0.696980	0.314120
O141	O14	0.898100	0.818150	0.326130
O151	O15	0.743100	0.700440	0.349430
O161	O16	0.593500	0.693230	0.026630
O171	O17	0.751700	0.811820	0.032080
O181	O18	0.101500	0.689240	0.022140
O191	O19	0.255700	0.806420	0.997900
O201	O20	0.645500	0.854890	0.424820
O211	O21	0.161300	0.833000	0.423870
O221	O22	0.687800	0.036630	0.463300
O231	O23	0.405500	0.314210	0.179320
O241	O24	0.244100	0.196980	0.185880
O251	O25	0.898100	0.318150	0.173870
O261	O26	0.743100	0.200440	0.150570
O271	O27	0.593500	0.193230	0.473370
O281	O28	0.751700	0.311820	0.467920
O291	O29	0.101500	0.189240	0.477860
O301	O30	0.255700	0.306420	0.502100
O311	O31	0.645500	0.354890	0.075180
O321	O32	0.161300	0.333000	0.076130
O331	O33	0.687800	0.536630	0.036700
O341	O34	0.594500	0.185790	0.679320
O351	O35	0.755900	0.303020	0.685880
O361	O36	0.101900	0.181850	0.673870
O371	O37	0.256900	0.299560	0.650570
O381	O38	0.406500	0.306770	0.973370
O391	O39	0.248300	0.188180	0.967920
O401	O40	0.898500	0.310760	0.977860
O411	O41	0.744300	0.193580	0.002100
O421	O42	0.354500	0.145110	0.575180
O431	O43	0.838700	0.167000	0.576130
O441	O44	0.312200	0.963370	0.536700
