data_XOVQAB_clean_PM
_symmetry_space_group_name_H-M	'P1'
_cell_length_a	41.511200
_cell_length_b	41.455600
_cell_length_c	31.167700
_cell_angle_alpha	90.000000
_cell_angle_beta	109.408000
_cell_angle_gamma	90.000000
_symmetry_Int_Tables_number 1

loop_
_symmetry_equiv_pos_as_xyz
'x,y,z'

loop_
_atom_site_label
_atom_site_type_symbol
_atom_site_fract_x
_atom_site_fract_y
_atom_site_fract_z
Cu11	Cu1	0.988360	0.981850	0.526290
Cu21	Cu2	0.738470	0.268190	0.026310
Cu31	Cu3	0.649820	0.856820	0.026370
Cu41	Cu4	0.600280	0.893170	0.973760
C11	C1	0.006770	0.812510	0.275590
C21	C2	0.000590	0.838980	0.299100
C31	C3	0.012270	0.839060	0.346380
C41	C4	0.030140	0.812660	0.370160
H11	H1	0.038000	0.812700	0.402100
C51	C5	0.036320	0.786180	0.346660
C61	C6	0.024630	0.786100	0.299370
C71	C7	0.001000	0.951400	0.452300
C81	C8	0.052720	0.756260	0.373000
C91	C9	0.039510	0.725660	0.359620
H21	H2	0.020100	0.723100	0.333600
C101	C10	0.054990	0.698790	0.384700
H31	H3	0.046100	0.678100	0.375700
C111	C11	0.083690	0.702510	0.423200
C121	C12	0.096910	0.733110	0.436590
H41	H4	0.116300	0.735600	0.462600
C131	C13	0.081420	0.759990	0.411500
H51	H5	0.090400	0.780700	0.420600
C141	C14	0.099000	0.673300	0.451300
C151	C15	0.008740	0.868370	0.373000
C161	C16	0.015420	0.898900	0.359520
H61	H6	0.021700	0.901300	0.333400
C171	C17	0.012830	0.925840	0.384700
H71	H7	0.017300	0.946500	0.375600
C181	C18	0.003560	0.922250	0.423400
C191	C19	0.996880	0.891720	0.436890
H81	H8	0.990600	0.889300	0.463100
C201	C20	0.999470	0.864780	0.411700
H91	H9	0.995000	0.844100	0.420800
C211	C21	0.650500	0.922700	0.048100
C221	C22	0.736950	0.089190	0.153000
C231	C23	0.720000	0.062280	0.129570
H101	H10	0.712000	0.062200	0.097600
C241	C24	0.714940	0.035490	0.153400
C251	C25	0.726820	0.035620	0.200700
C261	C26	0.743770	0.062530	0.224140
C271	C27	0.748840	0.089320	0.200300
C281	C28	0.749000	0.201000	0.047800
C291	C29	0.740770	0.118980	0.126580
C301	C30	0.750060	0.115290	0.087900
H111	H11	0.754300	0.094600	0.078700
C311	C31	0.753110	0.142210	0.062970
H121	H12	0.759400	0.139700	0.036800
C321	C32	0.746880	0.172820	0.076700
C331	C33	0.737590	0.176500	0.115300
H131	H13	0.733400	0.197200	0.124600
C341	C34	0.734540	0.149580	0.140280
H141	H14	0.728300	0.152100	0.166400
C351	C35	0.661000	0.111200	0.451300
C361	C36	0.697660	0.006270	0.126500
C371	C37	0.669060	0.009940	0.087900
H151	H15	0.660100	0.030600	0.078700
C381	C38	0.653630	0.983020	0.062860
H161	H16	0.634300	0.985500	0.036700
C391	C39	0.666810	0.952430	0.076400
C401	C40	0.695420	0.948770	0.115100
H171	H17	0.704300	0.928100	0.124300
C411	C41	0.710850	0.975690	0.140090
H181	H18	0.730200	0.973200	0.166200
C421	C42	0.411400	0.138000	0.950900
C431	C43	0.756450	0.062900	0.275800
C441	C44	0.735640	0.074100	0.299520
C451	C45	0.747340	0.073710	0.346800
C461	C46	0.779850	0.062130	0.370360
H191	H19	0.787800	0.061900	0.402300
C471	C47	0.800650	0.050930	0.346640
C481	C48	0.788950	0.051310	0.299360
C491	C49	0.939700	0.013100	0.451800
C501	C50	0.837200	0.040850	0.372850
C511	C51	0.842960	0.021890	0.411500
H201	H20	0.824500	0.015300	0.420400
C521	C52	0.876030	0.012740	0.436830
H211	H21	0.879900	0.999900	0.462900
C531	C53	0.903340	0.022550	0.423570
C541	C54	0.897580	0.041510	0.385000
H221	H22	0.916000	0.048100	0.376000
C551	C55	0.864510	0.050660	0.359600
H231	H23	0.860600	0.063500	0.333500
C561	C56	0.689100	0.236700	0.951700
C571	C57	0.587210	0.209410	0.873600
C581	C58	0.593280	0.228380	0.912300
H241	H24	0.575000	0.235100	0.921500
C591	C59	0.626450	0.237490	0.937250
H251	H25	0.630600	0.250300	0.963400
C601	C60	0.653540	0.227620	0.923600
C611	C61	0.647470	0.208650	0.884900
H261	H26	0.665800	0.202000	0.875700
C621	C62	0.614310	0.199540	0.859940
H271	H27	0.610200	0.186700	0.833800
O11	O1	0.665200	0.896660	0.060000
C631	C63	0.506420	0.187770	0.775740
C641	C64	0.485970	0.175500	0.799300
C651	C65	0.497760	0.175340	0.846600
C661	C66	0.530000	0.187440	0.870310
H281	H28	0.538000	0.187300	0.902300
C671	C67	0.550450	0.199710	0.846800
C681	C68	0.538660	0.199870	0.799500
O21	O2	0.623550	0.927650	0.015000
C691	C69	0.724500	0.084240	0.373010
C701	C70	0.737870	0.103100	0.411700
H291	H29	0.760800	0.109800	0.420900
C711	C71	0.717330	0.112110	0.437000
H301	H30	0.726400	0.124900	0.463200
C721	C72	0.683420	0.102260	0.423510
C731	C73	0.670040	0.083400	0.384800
H311	H31	0.647100	0.076700	0.375600
C741	C74	0.690590	0.074390	0.359520
H321	H32	0.681500	0.061600	0.333300
O31	O3	0.084340	0.646520	0.440000
C751	C75	0.474340	0.165710	0.873020
C761	C76	0.440460	0.175660	0.859740
H331	H33	0.431400	0.188600	0.833700
C771	C77	0.419950	0.166540	0.885000
H341	H34	0.397000	0.173300	0.876000
C781	C78	0.433310	0.147460	0.923510
C791	C79	0.467190	0.137510	0.936790
H351	H35	0.476200	0.124600	0.962800
C801	C80	0.487700	0.146630	0.911600
H361	H36	0.510600	0.139900	0.920500
O41	O4	0.126550	0.677620	0.484000
O51	O5	0.630820	0.099770	0.439400
O61	O6	0.673890	0.130440	0.484600
O71	O7	0.423610	0.119460	0.984000
O81	O8	0.382050	0.150030	0.940100
O91	O9	0.693340	0.255590	0.984300
O101	O10	0.713400	0.224600	0.939700
O111	O11	0.740130	0.228180	0.060400
O121	O12	0.759480	0.197470	0.015700
O131	O13	0.943550	0.994530	0.485000
O141	O14	0.963940	0.025110	0.439400
O151	O15	0.990360	0.947260	0.484300
O161	O16	0.010140	0.978340	0.439310
O171	O17	0.809100	0.038100	0.276200
O181	O18	0.767400	0.115600	0.225200
O191	O19	0.703500	0.085700	0.275300
O201	O20	0.719400	0.009600	0.224200
O211	O21	0.982900	0.866000	0.276200
O221	O22	0.026600	0.758300	0.274800
O231	O23	0.560000	0.210600	0.775700
O241	O24	0.046900	0.335600	0.224100
O251	O25	0.076000	0.415300	0.242000
O261	O26	0.036800	0.482800	0.231400
O271	O27	0.559300	0.289400	0.705100
O281	O28	0.549000	0.373600	0.755300
O291	O29	0.093200	0.733300	0.255900
O301	O30	0.938400	0.915200	0.239000
O311	O31	0.848400	0.008600	0.235900
O321	O32	0.875300	0.103100	0.251600
O331	O33	0.714600	0.184000	0.244700
O341	O34	0.650300	0.118200	0.281900
O351	O35	0.634700	0.021000	0.261700
O361	O36	0.695400	0.949400	0.240600
O371	O37	0.783600	0.935600	0.243100
C811	C81	0.808900	0.004900	0.279200
C821	C82	0.801300	0.117000	0.227500
C831	C83	0.702500	0.119100	0.273800
C841	C84	0.686600	0.009700	0.228000
C851	C85	0.948800	0.861900	0.274700
C861	C86	0.060400	0.757600	0.275400
C871	C87	0.559300	0.244000	0.764800
C881	C88	0.048600	0.369100	0.220400
C891	C89	0.080200	0.379400	0.250900
C901	C90	0.043800	0.427300	0.248200
C911	C91	0.033400	0.450400	0.208600
C921	C92	0.999300	0.477700	0.225800
C931	C93	0.555400	0.255300	0.719700
C941	C94	0.556000	0.317200	0.733600
C951	C95	0.534200	0.347000	0.720300
C961	C96	0.517300	0.393500	0.747200
C971	C97	0.094900	0.764800	0.281300
C981	C98	0.931700	0.891600	0.267000
C991	C99	0.823600	0.989100	0.250600
C1001	C100	0.872300	0.039400	0.251900
C1011	C101	0.892100	0.070200	0.264500
C1021	C102	0.857200	0.132300	0.259700
C1031	C103	0.820800	0.144700	0.242800
C1041	C104	0.676600	0.170900	0.241900
C1051	C105	0.670100	0.132900	0.256500
C1061	C106	0.626700	0.087300	0.273500
C1071	C107	0.642900	0.053600	0.283900
C1081	C108	0.653200	0.991000	0.262000
C1091	C109	0.678000	0.979100	0.240800
C1101	C110	0.726600	0.928600	0.250700
C1111	C111	0.755700	0.928500	0.257900
C1121	C112	0.804000	0.959600	0.229400
C1131	C113	0.758700	0.143500	0.249400
C1141	C114	0.725300	0.156100	0.234500
C1151	C115	0.676300	0.060800	0.259000
C1161	C116	0.669900	0.030100	0.275300
C1171	C117	0.765900	0.965900	0.240000
C1181	C118	0.737600	0.980800	0.249900
C1191	C119	0.832900	0.058100	0.260700
C1201	C120	0.853200	0.087200	0.272800
Cu51	Cu5	0.488360	0.481850	0.526290
Cu61	Cu6	0.238470	0.768190	0.026310
Cu71	Cu7	0.149820	0.356820	0.026370
Cu81	Cu8	0.100280	0.393170	0.973760
C1211	C121	0.506770	0.312510	0.275590
C1221	C122	0.500590	0.338980	0.299100
C1231	C123	0.512270	0.339060	0.346380
C1241	C124	0.530140	0.312660	0.370160
H371	H37	0.538000	0.312700	0.402100
C1251	C125	0.536320	0.286180	0.346660
C1261	C126	0.524630	0.286100	0.299370
C1271	C127	0.501000	0.451400	0.452300
C1281	C128	0.552720	0.256260	0.373000
C1291	C129	0.539510	0.225660	0.359620
H381	H38	0.520100	0.223100	0.333600
C1301	C130	0.554990	0.198790	0.384700
H391	H39	0.546100	0.178100	0.375700
C1311	C131	0.583690	0.202510	0.423200
C1321	C132	0.596910	0.233110	0.436590
H401	H40	0.616300	0.235600	0.462600
C1331	C133	0.581420	0.259990	0.411500
H411	H41	0.590400	0.280700	0.420600
C1341	C134	0.599000	0.173300	0.451300
C1351	C135	0.508740	0.368370	0.373000
C1361	C136	0.515420	0.398900	0.359520
H421	H42	0.521700	0.401300	0.333400
C1371	C137	0.512830	0.425840	0.384700
H431	H43	0.517300	0.446500	0.375600
C1381	C138	0.503560	0.422250	0.423400
C1391	C139	0.496880	0.391720	0.436890
H441	H44	0.490600	0.389300	0.463100
C1401	C140	0.499470	0.364780	0.411700
H451	H45	0.495000	0.344100	0.420800
C1411	C141	0.150500	0.422700	0.048100
C1421	C142	0.236950	0.589190	0.153000
C1431	C143	0.220000	0.562280	0.129570
H461	H46	0.212000	0.562200	0.097600
C1441	C144	0.214940	0.535490	0.153400
C1451	C145	0.226820	0.535620	0.200700
C1461	C146	0.243770	0.562530	0.224140
C1471	C147	0.248840	0.589320	0.200300
C1481	C148	0.249000	0.701000	0.047800
C1491	C149	0.240770	0.618980	0.126580
C1501	C150	0.250060	0.615290	0.087900
H471	H47	0.254300	0.594600	0.078700
C1511	C151	0.253110	0.642210	0.062970
H481	H48	0.259400	0.639700	0.036800
C1521	C152	0.246880	0.672820	0.076700
C1531	C153	0.237590	0.676500	0.115300
H491	H49	0.233400	0.697200	0.124600
C1541	C154	0.234540	0.649580	0.140280
H501	H50	0.228300	0.652100	0.166400
C1551	C155	0.161000	0.611200	0.451300
C1561	C156	0.197660	0.506270	0.126500
C1571	C157	0.169060	0.509940	0.087900
H511	H51	0.160100	0.530600	0.078700
C1581	C158	0.153630	0.483020	0.062860
H521	H52	0.134300	0.485500	0.036700
C1591	C159	0.166810	0.452430	0.076400
C1601	C160	0.195420	0.448770	0.115100
H531	H53	0.204300	0.428100	0.124300
C1611	C161	0.210850	0.475690	0.140090
H541	H54	0.230200	0.473200	0.166200
C1621	C162	0.911400	0.638000	0.950900
C1631	C163	0.256450	0.562900	0.275800
C1641	C164	0.235640	0.574100	0.299520
C1651	C165	0.247340	0.573710	0.346800
C1661	C166	0.279850	0.562130	0.370360
H551	H55	0.287800	0.561900	0.402300
C1671	C167	0.300650	0.550930	0.346640
C1681	C168	0.288950	0.551310	0.299360
C1691	C169	0.439700	0.513100	0.451800
C1701	C170	0.337200	0.540850	0.372850
C1711	C171	0.342960	0.521890	0.411500
H561	H56	0.324500	0.515300	0.420400
C1721	C172	0.376030	0.512740	0.436830
H571	H57	0.379900	0.499900	0.462900
C1731	C173	0.403340	0.522550	0.423570
C1741	C174	0.397580	0.541510	0.385000
H581	H58	0.416000	0.548100	0.376000
C1751	C175	0.364510	0.550660	0.359600
H591	H59	0.360600	0.563500	0.333500
C1761	C176	0.189100	0.736700	0.951700
C1771	C177	0.087210	0.709410	0.873600
C1781	C178	0.093280	0.728380	0.912300
H601	H60	0.075000	0.735100	0.921500
C1791	C179	0.126450	0.737490	0.937250
H611	H61	0.130600	0.750300	0.963400
C1801	C180	0.153540	0.727620	0.923600
C1811	C181	0.147470	0.708650	0.884900
H621	H62	0.165800	0.702000	0.875700
C1821	C182	0.114310	0.699540	0.859940
H631	H63	0.110200	0.686700	0.833800
O381	O38	0.165200	0.396660	0.060000
C1831	C183	0.006420	0.687770	0.775740
C1841	C184	0.985970	0.675500	0.799300
C1851	C185	0.997760	0.675340	0.846600
C1861	C186	0.030000	0.687440	0.870310
H641	H64	0.038000	0.687300	0.902300
C1871	C187	0.050450	0.699710	0.846800
C1881	C188	0.038660	0.699870	0.799500
O391	O39	0.123550	0.427650	0.015000
C1891	C189	0.224500	0.584240	0.373010
C1901	C190	0.237870	0.603100	0.411700
H651	H65	0.260800	0.609800	0.420900
C1911	C191	0.217330	0.612110	0.437000
H661	H66	0.226400	0.624900	0.463200
C1921	C192	0.183420	0.602260	0.423510
C1931	C193	0.170040	0.583400	0.384800
H671	H67	0.147100	0.576700	0.375600
C1941	C194	0.190590	0.574390	0.359520
H681	H68	0.181500	0.561600	0.333300
O401	O40	0.584340	0.146520	0.440000
C1951	C195	0.974340	0.665710	0.873020
C1961	C196	0.940460	0.675660	0.859740
H691	H69	0.931400	0.688600	0.833700
C1971	C197	0.919950	0.666540	0.885000
H701	H70	0.897000	0.673300	0.876000
C1981	C198	0.933310	0.647460	0.923510
C1991	C199	0.967190	0.637510	0.936790
H711	H71	0.976200	0.624600	0.962800
C2001	C200	0.987700	0.646630	0.911600
H721	H72	0.010600	0.639900	0.920500
O411	O41	0.626550	0.177620	0.484000
O421	O42	0.130820	0.599770	0.439400
O431	O43	0.173890	0.630440	0.484600
O441	O44	0.923610	0.619460	0.984000
O451	O45	0.882050	0.650030	0.940100
O461	O46	0.193340	0.755590	0.984300
O471	O47	0.213400	0.724600	0.939700
O481	O48	0.240130	0.728180	0.060400
O491	O49	0.259480	0.697470	0.015700
O501	O50	0.443550	0.494530	0.485000
O511	O51	0.463940	0.525110	0.439400
O521	O52	0.490360	0.447260	0.484300
O531	O53	0.510140	0.478340	0.439310
O541	O54	0.309100	0.538100	0.276200
O551	O55	0.267400	0.615600	0.225200
O561	O56	0.203500	0.585700	0.275300
O571	O57	0.219400	0.509600	0.224200
O581	O58	0.482900	0.366000	0.276200
O591	O59	0.526600	0.258300	0.274800
O601	O60	0.060000	0.710600	0.775700
O611	O61	0.546900	0.835600	0.224100
O621	O62	0.576000	0.915300	0.242000
O631	O63	0.536800	0.982800	0.231400
O641	O64	0.059300	0.789400	0.705100
O651	O65	0.049000	0.873600	0.755300
O661	O66	0.593200	0.233300	0.255900
O671	O67	0.438400	0.415200	0.239000
O681	O68	0.348400	0.508600	0.235900
O691	O69	0.375300	0.603100	0.251600
O701	O70	0.214600	0.684000	0.244700
O711	O71	0.150300	0.618200	0.281900
O721	O72	0.134700	0.521000	0.261700
O731	O73	0.195400	0.449400	0.240600
O741	O74	0.283600	0.435600	0.243100
C2011	C201	0.308900	0.504900	0.279200
C2021	C202	0.301300	0.617000	0.227500
C2031	C203	0.202500	0.619100	0.273800
C2041	C204	0.186600	0.509700	0.228000
C2051	C205	0.448800	0.361900	0.274700
C2061	C206	0.560400	0.257600	0.275400
C2071	C207	0.059300	0.744000	0.764800
C2081	C208	0.548600	0.869100	0.220400
C2091	C209	0.580200	0.879400	0.250900
C2101	C210	0.543800	0.927300	0.248200
C2111	C211	0.533400	0.950400	0.208600
C2121	C212	0.499300	0.977700	0.225800
C2131	C213	0.055400	0.755300	0.719700
C2141	C214	0.056000	0.817200	0.733600
C2151	C215	0.034200	0.847000	0.720300
C2161	C216	0.017300	0.893500	0.747200
C2171	C217	0.594900	0.264800	0.281300
C2181	C218	0.431700	0.391600	0.267000
C2191	C219	0.323600	0.489100	0.250600
C2201	C220	0.372300	0.539400	0.251900
C2211	C221	0.392100	0.570200	0.264500
C2221	C222	0.357200	0.632300	0.259700
C2231	C223	0.320800	0.644700	0.242800
C2241	C224	0.176600	0.670900	0.241900
C2251	C225	0.170100	0.632900	0.256500
C2261	C226	0.126700	0.587300	0.273500
C2271	C227	0.142900	0.553600	0.283900
C2281	C228	0.153200	0.491000	0.262000
C2291	C229	0.178000	0.479100	0.240800
C2301	C230	0.226600	0.428600	0.250700
C2311	C231	0.255700	0.428500	0.257900
C2321	C232	0.304000	0.459600	0.229400
C2331	C233	0.258700	0.643500	0.249400
C2341	C234	0.225300	0.656100	0.234500
C2351	C235	0.176300	0.560800	0.259000
C2361	C236	0.169900	0.530100	0.275300
C2371	C237	0.265900	0.465900	0.240000
C2381	C238	0.237600	0.480800	0.249900
C2391	C239	0.332900	0.558100	0.260700
C2401	C240	0.353200	0.587200	0.272800
Cu91	Cu9	0.011640	0.981850	0.973710
Cu101	Cu10	0.261530	0.268190	0.473690
Cu111	Cu11	0.350180	0.856820	0.473630
Cu121	Cu12	0.399720	0.893170	0.526240
C2411	C241	0.993230	0.812510	0.224410
C2421	C242	0.999410	0.838980	0.200900
C2431	C243	0.987730	0.839060	0.153620
C2441	C244	0.969860	0.812660	0.129840
H731	H73	0.962000	0.812700	0.097900
C2451	C245	0.963680	0.786180	0.153340
C2461	C246	0.975370	0.786100	0.200630
C2471	C247	0.999000	0.951400	0.047700
C2481	C248	0.947280	0.756260	0.127000
C2491	C249	0.960490	0.725660	0.140380
H741	H74	0.979900	0.723100	0.166400
C2501	C250	0.945010	0.698790	0.115300
H751	H75	0.953900	0.678100	0.124300
C2511	C251	0.916310	0.702510	0.076800
C2521	C252	0.903090	0.733110	0.063410
H761	H76	0.883700	0.735600	0.037400
C2531	C253	0.918580	0.759990	0.088500
H771	H77	0.909600	0.780700	0.079400
C2541	C254	0.901000	0.673300	0.048700
C2551	C255	0.991260	0.868370	0.127000
C2561	C256	0.984580	0.898900	0.140480
H781	H78	0.978300	0.901300	0.166600
C2571	C257	0.987170	0.925840	0.115300
H791	H79	0.982700	0.946500	0.124400
C2581	C258	0.996440	0.922250	0.076600
C2591	C259	0.003120	0.891720	0.063110
H801	H80	0.009400	0.889300	0.036900
C2601	C260	0.000530	0.864780	0.088300
H811	H81	0.005000	0.844100	0.079200
C2611	C261	0.349500	0.922700	0.451900
C2621	C262	0.263050	0.089190	0.347000
C2631	C263	0.280000	0.062280	0.370430
H821	H82	0.288000	0.062200	0.402400
C2641	C264	0.285060	0.035490	0.346600
C2651	C265	0.273180	0.035620	0.299300
C2661	C266	0.256230	0.062530	0.275860
C2671	C267	0.251160	0.089320	0.299700
C2681	C268	0.251000	0.201000	0.452200
C2691	C269	0.259230	0.118980	0.373420
C2701	C270	0.249940	0.115290	0.412100
H831	H83	0.245700	0.094600	0.421300
C2711	C271	0.246890	0.142210	0.437030
H841	H84	0.240600	0.139700	0.463200
C2721	C272	0.253120	0.172820	0.423300
C2731	C273	0.262410	0.176500	0.384700
H851	H85	0.266600	0.197200	0.375400
C2741	C274	0.265460	0.149580	0.359720
H861	H86	0.271700	0.152100	0.333600
C2751	C275	0.339000	0.111200	0.048700
C2761	C276	0.302340	0.006270	0.373500
C2771	C277	0.330940	0.009940	0.412100
H871	H87	0.339900	0.030600	0.421300
C2781	C278	0.346370	0.983020	0.437140
H881	H88	0.365700	0.985500	0.463300
C2791	C279	0.333190	0.952430	0.423600
C2801	C280	0.304580	0.948770	0.384900
H891	H89	0.295700	0.928100	0.375700
C2811	C281	0.289150	0.975690	0.359910
H901	H90	0.269800	0.973200	0.333800
C2821	C282	0.588600	0.138000	0.549100
C2831	C283	0.243550	0.062900	0.224200
C2841	C284	0.264360	0.074100	0.200480
C2851	C285	0.252660	0.073710	0.153200
C2861	C286	0.220150	0.062130	0.129640
H911	H91	0.212200	0.061900	0.097700
C2871	C287	0.199350	0.050930	0.153360
C2881	C288	0.211050	0.051310	0.200640
C2891	C289	0.060300	0.013100	0.048200
C2901	C290	0.162800	0.040850	0.127150
C2911	C291	0.157040	0.021890	0.088500
H921	H92	0.175500	0.015300	0.079600
C2921	C292	0.123970	0.012740	0.063170
H931	H93	0.120100	0.999900	0.037100
C2931	C293	0.096660	0.022550	0.076430
C2941	C294	0.102420	0.041510	0.115000
H941	H94	0.084000	0.048100	0.124000
C2951	C295	0.135490	0.050660	0.140400
H951	H95	0.139400	0.063500	0.166500
C2961	C296	0.310900	0.236700	0.548300
C2971	C297	0.412790	0.209410	0.626400
C2981	C298	0.406720	0.228380	0.587700
H961	H96	0.425000	0.235100	0.578500
C2991	C299	0.373550	0.237490	0.562750
H971	H97	0.369400	0.250300	0.536600
C3001	C300	0.346460	0.227620	0.576400
C3011	C301	0.352530	0.208650	0.615100
H981	H98	0.334200	0.202000	0.624300
C3021	C302	0.385690	0.199540	0.640060
H991	H99	0.389800	0.186700	0.666200
O751	O75	0.334800	0.896660	0.440000
C3031	C303	0.493580	0.187770	0.724260
C3041	C304	0.514030	0.175500	0.700700
C3051	C305	0.502240	0.175340	0.653400
C3061	C306	0.470000	0.187440	0.629690
H1001	H100	0.462000	0.187300	0.597700
C3071	C307	0.449550	0.199710	0.653200
C3081	C308	0.461340	0.199870	0.700500
O761	O76	0.376450	0.927650	0.485000
C3091	C309	0.275500	0.084240	0.126990
C3101	C310	0.262130	0.103100	0.088300
H1011	H101	0.239200	0.109800	0.079100
C3111	C311	0.282670	0.112110	0.063000
H1021	H102	0.273600	0.124900	0.036800
C3121	C312	0.316580	0.102260	0.076490
C3131	C313	0.329960	0.083400	0.115200
H1031	H103	0.352900	0.076700	0.124400
C3141	C314	0.309410	0.074390	0.140480
H1041	H104	0.318500	0.061600	0.166700
O771	O77	0.915660	0.646520	0.060000
C3151	C315	0.525660	0.165710	0.626980
C3161	C316	0.559540	0.175660	0.640260
H1051	H105	0.568600	0.188600	0.666300
C3171	C317	0.580050	0.166540	0.615000
H1061	H106	0.603000	0.173300	0.624000
C3181	C318	0.566690	0.147460	0.576490
C3191	C319	0.532810	0.137510	0.563210
H1071	H107	0.523800	0.124600	0.537200
C3201	C320	0.512300	0.146630	0.588400
H1081	H108	0.489400	0.139900	0.579500
O781	O78	0.873450	0.677620	0.016000
O791	O79	0.369180	0.099770	0.060600
O801	O80	0.326110	0.130440	0.015400
O811	O81	0.576390	0.119460	0.516000
O821	O82	0.617950	0.150030	0.559900
O831	O83	0.306660	0.255590	0.515700
O841	O84	0.286600	0.224600	0.560300
O851	O85	0.259870	0.228180	0.439600
O861	O86	0.240520	0.197470	0.484300
O871	O87	0.056450	0.994530	0.015000
O881	O88	0.036060	0.025110	0.060600
O891	O89	0.009640	0.947260	0.015700
O901	O90	0.989860	0.978340	0.060690
O911	O91	0.190900	0.038100	0.223800
O921	O92	0.232600	0.115600	0.274800
O931	O93	0.296500	0.085700	0.224700
O941	O94	0.280600	0.009600	0.275800
O951	O95	0.017100	0.866000	0.223800
O961	O96	0.973400	0.758300	0.225200
O971	O97	0.440000	0.210600	0.724300
O981	O98	0.953100	0.335600	0.275900
O991	O99	0.924000	0.415300	0.258000
O1001	O100	0.963200	0.482800	0.268600
O1011	O101	0.440700	0.289400	0.794900
O1021	O102	0.451000	0.373600	0.744700
O1031	O103	0.906800	0.733300	0.244100
O1041	O104	0.061600	0.915200	0.261000
O1051	O105	0.151600	0.008600	0.264100
O1061	O106	0.124700	0.103100	0.248400
O1071	O107	0.285400	0.184000	0.255300
O1081	O108	0.349700	0.118200	0.218100
O1091	O109	0.365300	0.021000	0.238300
O1101	O110	0.304600	0.949400	0.259400
O1111	O111	0.216400	0.935600	0.256900
C3211	C321	0.191100	0.004900	0.220800
C3221	C322	0.198700	0.117000	0.272500
C3231	C323	0.297500	0.119100	0.226200
C3241	C324	0.313400	0.009700	0.272000
C3251	C325	0.051200	0.861900	0.225300
C3261	C326	0.939600	0.757600	0.224600
C3271	C327	0.440700	0.244000	0.735200
C3281	C328	0.951400	0.369100	0.279600
C3291	C329	0.919800	0.379400	0.249100
C3301	C330	0.956200	0.427300	0.251800
C3311	C331	0.966600	0.450400	0.291400
C3321	C332	0.000700	0.477700	0.274200
C3331	C333	0.444600	0.255300	0.780300
C3341	C334	0.444000	0.317200	0.766400
C3351	C335	0.465800	0.347000	0.779700
C3361	C336	0.482700	0.393500	0.752800
C3371	C337	0.905100	0.764800	0.218700
C3381	C338	0.068300	0.891600	0.233000
C3391	C339	0.176400	0.989100	0.249400
C3401	C340	0.127700	0.039400	0.248100
C3411	C341	0.107900	0.070200	0.235500
C3421	C342	0.142800	0.132300	0.240300
C3431	C343	0.179200	0.144700	0.257200
C3441	C344	0.323400	0.170900	0.258100
C3451	C345	0.329900	0.132900	0.243500
C3461	C346	0.373300	0.087300	0.226500
C3471	C347	0.357100	0.053600	0.216100
C3481	C348	0.346800	0.991000	0.238000
C3491	C349	0.322000	0.979100	0.259200
C3501	C350	0.273400	0.928600	0.249300
C3511	C351	0.244300	0.928500	0.242100
C3521	C352	0.196000	0.959600	0.270600
C3531	C353	0.241300	0.143500	0.250600
C3541	C354	0.274700	0.156100	0.265500
C3551	C355	0.323700	0.060800	0.241000
C3561	C356	0.330100	0.030100	0.224700
C3571	C357	0.234100	0.965900	0.260000
C3581	C358	0.262400	0.980800	0.250100
C3591	C359	0.167100	0.058100	0.239300
C3601	C360	0.146800	0.087200	0.227200
Cu131	Cu13	0.511640	0.481850	0.973710
Cu141	Cu14	0.761530	0.768190	0.473690
Cu151	Cu15	0.850180	0.356820	0.473630
Cu161	Cu16	0.899720	0.393170	0.526240
C3611	C361	0.493230	0.312510	0.224410
C3621	C362	0.499410	0.338980	0.200900
C3631	C363	0.487730	0.339060	0.153620
C3641	C364	0.469860	0.312660	0.129840
H1091	H109	0.462000	0.312700	0.097900
C3651	C365	0.463680	0.286180	0.153340
C3661	C366	0.475370	0.286100	0.200630
C3671	C367	0.499000	0.451400	0.047700
C3681	C368	0.447280	0.256260	0.127000
C3691	C369	0.460490	0.225660	0.140380
H1101	H110	0.479900	0.223100	0.166400
C3701	C370	0.445010	0.198790	0.115300
H1111	H111	0.453900	0.178100	0.124300
C3711	C371	0.416310	0.202510	0.076800
C3721	C372	0.403090	0.233110	0.063410
H1121	H112	0.383700	0.235600	0.037400
C3731	C373	0.418580	0.259990	0.088500
H1131	H113	0.409600	0.280700	0.079400
C3741	C374	0.401000	0.173300	0.048700
C3751	C375	0.491260	0.368370	0.127000
C3761	C376	0.484580	0.398900	0.140480
H1141	H114	0.478300	0.401300	0.166600
C3771	C377	0.487170	0.425840	0.115300
H1151	H115	0.482700	0.446500	0.124400
C3781	C378	0.496440	0.422250	0.076600
C3791	C379	0.503120	0.391720	0.063110
H1161	H116	0.509400	0.389300	0.036900
C3801	C380	0.500530	0.364780	0.088300
H1171	H117	0.505000	0.344100	0.079200
C3811	C381	0.849500	0.422700	0.451900
C3821	C382	0.763050	0.589190	0.347000
C3831	C383	0.780000	0.562280	0.370430
H1181	H118	0.788000	0.562200	0.402400
C3841	C384	0.785060	0.535490	0.346600
C3851	C385	0.773180	0.535620	0.299300
C3861	C386	0.756230	0.562530	0.275860
C3871	C387	0.751160	0.589320	0.299700
C3881	C388	0.751000	0.701000	0.452200
C3891	C389	0.759230	0.618980	0.373420
C3901	C390	0.749940	0.615290	0.412100
H1191	H119	0.745700	0.594600	0.421300
C3911	C391	0.746890	0.642210	0.437030
H1201	H120	0.740600	0.639700	0.463200
C3921	C392	0.753120	0.672820	0.423300
C3931	C393	0.762410	0.676500	0.384700
H1211	H121	0.766600	0.697200	0.375400
C3941	C394	0.765460	0.649580	0.359720
H1221	H122	0.771700	0.652100	0.333600
C3951	C395	0.839000	0.611200	0.048700
C3961	C396	0.802340	0.506270	0.373500
C3971	C397	0.830940	0.509940	0.412100
H1231	H123	0.839900	0.530600	0.421300
C3981	C398	0.846370	0.483020	0.437140
H1241	H124	0.865700	0.485500	0.463300
C3991	C399	0.833190	0.452430	0.423600
C4001	C400	0.804580	0.448770	0.384900
H1251	H125	0.795700	0.428100	0.375700
C4011	C401	0.789150	0.475690	0.359910
H1261	H126	0.769800	0.473200	0.333800
C4021	C402	0.088600	0.638000	0.549100
C4031	C403	0.743550	0.562900	0.224200
C4041	C404	0.764360	0.574100	0.200480
C4051	C405	0.752660	0.573710	0.153200
C4061	C406	0.720150	0.562130	0.129640
H1271	H127	0.712200	0.561900	0.097700
C4071	C407	0.699350	0.550930	0.153360
C4081	C408	0.711050	0.551310	0.200640
C4091	C409	0.560300	0.513100	0.048200
C4101	C410	0.662800	0.540850	0.127150
C4111	C411	0.657040	0.521890	0.088500
H1281	H128	0.675500	0.515300	0.079600
C4121	C412	0.623970	0.512740	0.063170
H1291	H129	0.620100	0.499900	0.037100
C4131	C413	0.596660	0.522550	0.076430
C4141	C414	0.602420	0.541510	0.115000
H1301	H130	0.584000	0.548100	0.124000
C4151	C415	0.635490	0.550660	0.140400
H1311	H131	0.639400	0.563500	0.166500
C4161	C416	0.810900	0.736700	0.548300
C4171	C417	0.912790	0.709410	0.626400
C4181	C418	0.906720	0.728380	0.587700
H1321	H132	0.925000	0.735100	0.578500
C4191	C419	0.873550	0.737490	0.562750
H1331	H133	0.869400	0.750300	0.536600
C4201	C420	0.846460	0.727620	0.576400
C4211	C421	0.852530	0.708650	0.615100
H1341	H134	0.834200	0.702000	0.624300
C4221	C422	0.885690	0.699540	0.640060
H1351	H135	0.889800	0.686700	0.666200
O1121	O112	0.834800	0.396660	0.440000
C4231	C423	0.993580	0.687770	0.724260
C4241	C424	0.014030	0.675500	0.700700
C4251	C425	0.002240	0.675340	0.653400
C4261	C426	0.970000	0.687440	0.629690
H1361	H136	0.962000	0.687300	0.597700
C4271	C427	0.949550	0.699710	0.653200
C4281	C428	0.961340	0.699870	0.700500
O1131	O113	0.876450	0.427650	0.485000
C4291	C429	0.775500	0.584240	0.126990
C4301	C430	0.762130	0.603100	0.088300
H1371	H137	0.739200	0.609800	0.079100
C4311	C431	0.782670	0.612110	0.063000
H1381	H138	0.773600	0.624900	0.036800
C4321	C432	0.816580	0.602260	0.076490
C4331	C433	0.829960	0.583400	0.115200
H1391	H139	0.852900	0.576700	0.124400
C4341	C434	0.809410	0.574390	0.140480
H1401	H140	0.818500	0.561600	0.166700
O1141	O114	0.415660	0.146520	0.060000
C4351	C435	0.025660	0.665710	0.626980
C4361	C436	0.059540	0.675660	0.640260
H1411	H141	0.068600	0.688600	0.666300
C4371	C437	0.080050	0.666540	0.615000
H1421	H142	0.103000	0.673300	0.624000
C4381	C438	0.066690	0.647460	0.576490
C4391	C439	0.032810	0.637510	0.563210
H1431	H143	0.023800	0.624600	0.537200
C4401	C440	0.012300	0.646630	0.588400
H1441	H144	0.989400	0.639900	0.579500
O1151	O115	0.373450	0.177620	0.016000
O1161	O116	0.869180	0.599770	0.060600
O1171	O117	0.826110	0.630440	0.015400
O1181	O118	0.076390	0.619460	0.516000
O1191	O119	0.117950	0.650030	0.559900
O1201	O120	0.806660	0.755590	0.515700
O1211	O121	0.786600	0.724600	0.560300
O1221	O122	0.759870	0.728180	0.439600
O1231	O123	0.740520	0.697470	0.484300
O1241	O124	0.556450	0.494530	0.015000
O1251	O125	0.536060	0.525110	0.060600
O1261	O126	0.509640	0.447260	0.015700
O1271	O127	0.489860	0.478340	0.060690
O1281	O128	0.690900	0.538100	0.223800
O1291	O129	0.732600	0.615600	0.274800
O1301	O130	0.796500	0.585700	0.224700
O1311	O131	0.780600	0.509600	0.275800
O1321	O132	0.517100	0.366000	0.223800
O1331	O133	0.473400	0.258300	0.225200
O1341	O134	0.940000	0.710600	0.724300
O1351	O135	0.453100	0.835600	0.275900
O1361	O136	0.424000	0.915300	0.258000
O1371	O137	0.463200	0.982800	0.268600
O1381	O138	0.940700	0.789400	0.794900
O1391	O139	0.951000	0.873600	0.744700
O1401	O140	0.406800	0.233300	0.244100
O1411	O141	0.561600	0.415200	0.261000
O1421	O142	0.651600	0.508600	0.264100
O1431	O143	0.624700	0.603100	0.248400
O1441	O144	0.785400	0.684000	0.255300
O1451	O145	0.849700	0.618200	0.218100
O1461	O146	0.865300	0.521000	0.238300
O1471	O147	0.804600	0.449400	0.259400
O1481	O148	0.716400	0.435600	0.256900
C4411	C441	0.691100	0.504900	0.220800
C4421	C442	0.698700	0.617000	0.272500
C4431	C443	0.797500	0.619100	0.226200
C4441	C444	0.813400	0.509700	0.272000
C4451	C445	0.551200	0.361900	0.225300
C4461	C446	0.439600	0.257600	0.224600
C4471	C447	0.940700	0.744000	0.735200
C4481	C448	0.451400	0.869100	0.279600
C4491	C449	0.419800	0.879400	0.249100
C4501	C450	0.456200	0.927300	0.251800
C4511	C451	0.466600	0.950400	0.291400
C4521	C452	0.500700	0.977700	0.274200
C4531	C453	0.944600	0.755300	0.780300
C4541	C454	0.944000	0.817200	0.766400
C4551	C455	0.965800	0.847000	0.779700
C4561	C456	0.982700	0.893500	0.752800
C4571	C457	0.405100	0.264800	0.218700
C4581	C458	0.568300	0.391600	0.233000
C4591	C459	0.676400	0.489100	0.249400
C4601	C460	0.627700	0.539400	0.248100
C4611	C461	0.607900	0.570200	0.235500
C4621	C462	0.642800	0.632300	0.240300
C4631	C463	0.679200	0.644700	0.257200
C4641	C464	0.823400	0.670900	0.258100
C4651	C465	0.829900	0.632900	0.243500
C4661	C466	0.873300	0.587300	0.226500
C4671	C467	0.857100	0.553600	0.216100
C4681	C468	0.846800	0.491000	0.238000
C4691	C469	0.822000	0.479100	0.259200
C4701	C470	0.773400	0.428600	0.249300
C4711	C471	0.744300	0.428500	0.242100
C4721	C472	0.696000	0.459600	0.270600
C4731	C473	0.741300	0.643500	0.250600
C4741	C474	0.774700	0.656100	0.265500
C4751	C475	0.823700	0.560800	0.241000
C4761	C476	0.830100	0.530100	0.224700
C4771	C477	0.734100	0.465900	0.260000
C4781	C478	0.762400	0.480800	0.250100
C4791	C479	0.667100	0.558100	0.239300
C4801	C480	0.646800	0.587200	0.227200
Cu171	Cu17	0.011640	0.018150	0.473710
Cu181	Cu18	0.261530	0.731810	0.973690
Cu191	Cu19	0.350180	0.143180	0.973630
Cu201	Cu20	0.399720	0.106830	0.026240
C4811	C481	0.993230	0.187490	0.724410
C4821	C482	0.999410	0.161020	0.700900
C4831	C483	0.987730	0.160940	0.653620
C4841	C484	0.969860	0.187340	0.629840
H1451	H145	0.962000	0.187300	0.597900
C4851	C485	0.963680	0.213820	0.653340
C4861	C486	0.975370	0.213900	0.700630
C4871	C487	0.999000	0.048600	0.547700
C4881	C488	0.947280	0.243740	0.627000
C4891	C489	0.960490	0.274340	0.640380
H1461	H146	0.979900	0.276900	0.666400
C4901	C490	0.945010	0.301210	0.615300
H1471	H147	0.953900	0.321900	0.624300
C4911	C491	0.916310	0.297490	0.576800
C4921	C492	0.903090	0.266890	0.563410
H1481	H148	0.883700	0.264400	0.537400
C4931	C493	0.918580	0.240010	0.588500
H1491	H149	0.909600	0.219300	0.579400
C4941	C494	0.901000	0.326700	0.548700
C4951	C495	0.991260	0.131630	0.627000
C4961	C496	0.984580	0.101100	0.640480
H1501	H150	0.978300	0.098700	0.666600
C4971	C497	0.987170	0.074160	0.615300
H1511	H151	0.982700	0.053500	0.624400
C4981	C498	0.996440	0.077750	0.576600
C4991	C499	0.003120	0.108280	0.563110
H1521	H152	0.009400	0.110700	0.536900
C5001	C500	0.000530	0.135220	0.588300
H1531	H153	0.005000	0.155900	0.579200
C5011	C501	0.349500	0.077300	0.951900
C5021	C502	0.263050	0.910810	0.847000
C5031	C503	0.280000	0.937720	0.870430
H1541	H154	0.288000	0.937800	0.902400
C5041	C504	0.285060	0.964510	0.846600
C5051	C505	0.273180	0.964380	0.799300
C5061	C506	0.256230	0.937470	0.775860
C5071	C507	0.251160	0.910680	0.799700
C5081	C508	0.251000	0.799000	0.952200
C5091	C509	0.259230	0.881020	0.873420
C5101	C510	0.249940	0.884710	0.912100
H1551	H155	0.245700	0.905400	0.921300
C5111	C511	0.246890	0.857790	0.937030
H1561	H156	0.240600	0.860300	0.963200
C5121	C512	0.253120	0.827180	0.923300
C5131	C513	0.262410	0.823500	0.884700
H1571	H157	0.266600	0.802800	0.875400
C5141	C514	0.265460	0.850420	0.859720
H1581	H158	0.271700	0.847900	0.833600
C5151	C515	0.339000	0.888800	0.548700
C5161	C516	0.302340	0.993730	0.873500
C5171	C517	0.330940	0.990060	0.912100
H1591	H159	0.339900	0.969400	0.921300
C5181	C518	0.346370	0.016980	0.937140
H1601	H160	0.365700	0.014500	0.963300
C5191	C519	0.333190	0.047570	0.923600
C5201	C520	0.304580	0.051230	0.884900
H1611	H161	0.295700	0.071900	0.875700
C5211	C521	0.289150	0.024310	0.859910
H1621	H162	0.269800	0.026800	0.833800
C5221	C522	0.588600	0.862000	0.049100
C5231	C523	0.243550	0.937100	0.724200
C5241	C524	0.264360	0.925900	0.700480
C5251	C525	0.252660	0.926290	0.653200
C5261	C526	0.220150	0.937870	0.629640
H1631	H163	0.212200	0.938100	0.597700
C5271	C527	0.199350	0.949070	0.653360
C5281	C528	0.211050	0.948690	0.700640
C5291	C529	0.060300	0.986900	0.548200
C5301	C530	0.162800	0.959150	0.627150
C5311	C531	0.157040	0.978110	0.588500
H1641	H164	0.175500	0.984700	0.579600
C5321	C532	0.123970	0.987260	0.563170
H1651	H165	0.120100	0.000100	0.537100
C5331	C533	0.096660	0.977450	0.576430
C5341	C534	0.102420	0.958490	0.615000
H1661	H166	0.084000	0.951900	0.624000
C5351	C535	0.135490	0.949340	0.640400
H1671	H167	0.139400	0.936500	0.666500
C5361	C536	0.310900	0.763300	0.048300
C5371	C537	0.412790	0.790590	0.126400
C5381	C538	0.406720	0.771620	0.087700
H1681	H168	0.425000	0.764900	0.078500
C5391	C539	0.373550	0.762510	0.062750
H1691	H169	0.369400	0.749700	0.036600
C5401	C540	0.346460	0.772380	0.076400
C5411	C541	0.352530	0.791350	0.115100
H1701	H170	0.334200	0.798000	0.124300
C5421	C542	0.385690	0.800460	0.140060
H1711	H171	0.389800	0.813300	0.166200
O1491	O149	0.334800	0.103340	0.940000
C5431	C543	0.493580	0.812230	0.224260
C5441	C544	0.514030	0.824500	0.200700
C5451	C545	0.502240	0.824660	0.153400
C5461	C546	0.470000	0.812560	0.129690
H1721	H172	0.462000	0.812700	0.097700
C5471	C547	0.449550	0.800290	0.153200
C5481	C548	0.461340	0.800130	0.200500
O1501	O150	0.376450	0.072350	0.985000
C5491	C549	0.275500	0.915760	0.626990
C5501	C550	0.262130	0.896900	0.588300
H1731	H173	0.239200	0.890200	0.579100
C5511	C551	0.282670	0.887890	0.563000
H1741	H174	0.273600	0.875100	0.536800
C5521	C552	0.316580	0.897740	0.576490
C5531	C553	0.329960	0.916600	0.615200
H1751	H175	0.352900	0.923300	0.624400
C5541	C554	0.309410	0.925610	0.640480
H1761	H176	0.318500	0.938400	0.666700
O1511	O151	0.915660	0.353480	0.560000
C5551	C555	0.525660	0.834290	0.126980
C5561	C556	0.559540	0.824340	0.140260
H1771	H177	0.568600	0.811400	0.166300
C5571	C557	0.580050	0.833460	0.115000
H1781	H178	0.603000	0.826700	0.124000
C5581	C558	0.566690	0.852540	0.076490
C5591	C559	0.532810	0.862490	0.063210
H1791	H179	0.523800	0.875400	0.037200
C5601	C560	0.512300	0.853370	0.088400
H1801	H180	0.489400	0.860100	0.079500
O1521	O152	0.873450	0.322380	0.516000
O1531	O153	0.369180	0.900230	0.560600
O1541	O154	0.326110	0.869560	0.515400
O1551	O155	0.576390	0.880540	0.016000
O1561	O156	0.617950	0.849970	0.059900
O1571	O157	0.306660	0.744410	0.015700
O1581	O158	0.286600	0.775400	0.060300
O1591	O159	0.259870	0.771820	0.939600
O1601	O160	0.240520	0.802530	0.984300
O1611	O161	0.056450	0.005470	0.515000
O1621	O162	0.036060	0.974890	0.560600
O1631	O163	0.009640	0.052740	0.515700
O1641	O164	0.989860	0.021660	0.560690
O1651	O165	0.190900	0.961900	0.723800
O1661	O166	0.232600	0.884400	0.774800
O1671	O167	0.296500	0.914300	0.724700
O1681	O168	0.280600	0.990400	0.775800
O1691	O169	0.017100	0.134000	0.723800
O1701	O170	0.973400	0.241700	0.725200
O1711	O171	0.440000	0.789400	0.224300
O1721	O172	0.953100	0.664400	0.775900
O1731	O173	0.924000	0.584700	0.758000
O1741	O174	0.963200	0.517200	0.768600
O1751	O175	0.440700	0.710600	0.294900
O1761	O176	0.451000	0.626400	0.244700
O1771	O177	0.906800	0.266700	0.744100
O1781	O178	0.061600	0.084800	0.761000
O1791	O179	0.151600	0.991400	0.764100
O1801	O180	0.124700	0.896900	0.748400
O1811	O181	0.285400	0.816000	0.755300
O1821	O182	0.349700	0.881800	0.718100
O1831	O183	0.365300	0.979000	0.738300
O1841	O184	0.304600	0.050600	0.759400
O1851	O185	0.216400	0.064400	0.756900
C5611	C561	0.191100	0.995100	0.720800
C5621	C562	0.198700	0.883000	0.772500
C5631	C563	0.297500	0.880900	0.726200
C5641	C564	0.313400	0.990300	0.772000
C5651	C565	0.051200	0.138100	0.725300
C5661	C566	0.939600	0.242400	0.724600
C5671	C567	0.440700	0.756000	0.235200
C5681	C568	0.951400	0.630900	0.779600
C5691	C569	0.919800	0.620600	0.749100
C5701	C570	0.956200	0.572700	0.751800
C5711	C571	0.966600	0.549600	0.791400
C5721	C572	0.000700	0.522300	0.774200
C5731	C573	0.444600	0.744700	0.280300
C5741	C574	0.444000	0.682800	0.266400
C5751	C575	0.465800	0.653000	0.279700
C5761	C576	0.482700	0.606500	0.252800
C5771	C577	0.905100	0.235200	0.718700
C5781	C578	0.068300	0.108400	0.733000
C5791	C579	0.176400	0.010900	0.749400
C5801	C580	0.127700	0.960600	0.748100
C5811	C581	0.107900	0.929800	0.735500
C5821	C582	0.142800	0.867700	0.740300
C5831	C583	0.179200	0.855300	0.757200
C5841	C584	0.323400	0.829100	0.758100
C5851	C585	0.329900	0.867100	0.743500
C5861	C586	0.373300	0.912700	0.726500
C5871	C587	0.357100	0.946400	0.716100
C5881	C588	0.346800	0.009000	0.738000
C5891	C589	0.322000	0.020900	0.759200
C5901	C590	0.273400	0.071400	0.749300
C5911	C591	0.244300	0.071500	0.742100
C5921	C592	0.196000	0.040400	0.770600
C5931	C593	0.241300	0.856500	0.750600
C5941	C594	0.274700	0.843900	0.765500
C5951	C595	0.323700	0.939200	0.741000
C5961	C596	0.330100	0.969900	0.724700
C5971	C597	0.234100	0.034100	0.760000
C5981	C598	0.262400	0.019200	0.750100
C5991	C599	0.167100	0.941900	0.739300
C6001	C600	0.146800	0.912800	0.727200
Cu211	Cu21	0.511640	0.518150	0.473710
Cu221	Cu22	0.761530	0.231810	0.973690
Cu231	Cu23	0.850180	0.643180	0.973630
Cu241	Cu24	0.899720	0.606830	0.026240
C6011	C601	0.493230	0.687490	0.724410
C6021	C602	0.499410	0.661020	0.700900
C6031	C603	0.487730	0.660940	0.653620
C6041	C604	0.469860	0.687340	0.629840
H1811	H181	0.462000	0.687300	0.597900
C6051	C605	0.463680	0.713820	0.653340
C6061	C606	0.475370	0.713900	0.700630
C6071	C607	0.499000	0.548600	0.547700
C6081	C608	0.447280	0.743740	0.627000
C6091	C609	0.460490	0.774340	0.640380
H1821	H182	0.479900	0.776900	0.666400
C6101	C610	0.445010	0.801210	0.615300
H1831	H183	0.453900	0.821900	0.624300
C6111	C611	0.416310	0.797490	0.576800
C6121	C612	0.403090	0.766890	0.563410
H1841	H184	0.383700	0.764400	0.537400
C6131	C613	0.418580	0.740010	0.588500
H1851	H185	0.409600	0.719300	0.579400
C6141	C614	0.401000	0.826700	0.548700
C6151	C615	0.491260	0.631630	0.627000
C6161	C616	0.484580	0.601100	0.640480
H1861	H186	0.478300	0.598700	0.666600
C6171	C617	0.487170	0.574160	0.615300
H1871	H187	0.482700	0.553500	0.624400
C6181	C618	0.496440	0.577750	0.576600
C6191	C619	0.503120	0.608280	0.563110
H1881	H188	0.509400	0.610700	0.536900
C6201	C620	0.500530	0.635220	0.588300
H1891	H189	0.505000	0.655900	0.579200
C6211	C621	0.849500	0.577300	0.951900
C6221	C622	0.763050	0.410810	0.847000
C6231	C623	0.780000	0.437720	0.870430
H1901	H190	0.788000	0.437800	0.902400
C6241	C624	0.785060	0.464510	0.846600
C6251	C625	0.773180	0.464380	0.799300
C6261	C626	0.756230	0.437470	0.775860
C6271	C627	0.751160	0.410680	0.799700
C6281	C628	0.751000	0.299000	0.952200
C6291	C629	0.759230	0.381020	0.873420
C6301	C630	0.749940	0.384710	0.912100
H1911	H191	0.745700	0.405400	0.921300
C6311	C631	0.746890	0.357790	0.937030
H1921	H192	0.740600	0.360300	0.963200
C6321	C632	0.753120	0.327180	0.923300
C6331	C633	0.762410	0.323500	0.884700
H1931	H193	0.766600	0.302800	0.875400
C6341	C634	0.765460	0.350420	0.859720
H1941	H194	0.771700	0.347900	0.833600
C6351	C635	0.839000	0.388800	0.548700
C6361	C636	0.802340	0.493730	0.873500
C6371	C637	0.830940	0.490060	0.912100
H1951	H195	0.839900	0.469400	0.921300
C6381	C638	0.846370	0.516980	0.937140
H1961	H196	0.865700	0.514500	0.963300
C6391	C639	0.833190	0.547570	0.923600
C6401	C640	0.804580	0.551230	0.884900
H1971	H197	0.795700	0.571900	0.875700
C6411	C641	0.789150	0.524310	0.859910
H1981	H198	0.769800	0.526800	0.833800
C6421	C642	0.088600	0.362000	0.049100
C6431	C643	0.743550	0.437100	0.724200
C6441	C644	0.764360	0.425900	0.700480
C6451	C645	0.752660	0.426290	0.653200
C6461	C646	0.720150	0.437870	0.629640
H1991	H199	0.712200	0.438100	0.597700
C6471	C647	0.699350	0.449070	0.653360
C6481	C648	0.711050	0.448690	0.700640
C6491	C649	0.560300	0.486900	0.548200
C6501	C650	0.662800	0.459150	0.627150
C6511	C651	0.657040	0.478110	0.588500
H2001	H200	0.675500	0.484700	0.579600
C6521	C652	0.623970	0.487260	0.563170
H2011	H201	0.620100	0.500100	0.537100
C6531	C653	0.596660	0.477450	0.576430
C6541	C654	0.602420	0.458490	0.615000
H2021	H202	0.584000	0.451900	0.624000
C6551	C655	0.635490	0.449340	0.640400
H2031	H203	0.639400	0.436500	0.666500
C6561	C656	0.810900	0.263300	0.048300
C6571	C657	0.912790	0.290590	0.126400
C6581	C658	0.906720	0.271620	0.087700
H2041	H204	0.925000	0.264900	0.078500
C6591	C659	0.873550	0.262510	0.062750
H2051	H205	0.869400	0.249700	0.036600
C6601	C660	0.846460	0.272380	0.076400
C6611	C661	0.852530	0.291350	0.115100
H2061	H206	0.834200	0.298000	0.124300
C6621	C662	0.885690	0.300460	0.140060
H2071	H207	0.889800	0.313300	0.166200
O1861	O186	0.834800	0.603340	0.940000
C6631	C663	0.993580	0.312230	0.224260
C6641	C664	0.014030	0.324500	0.200700
C6651	C665	0.002240	0.324660	0.153400
C6661	C666	0.970000	0.312560	0.129690
H2081	H208	0.962000	0.312700	0.097700
C6671	C667	0.949550	0.300290	0.153200
C6681	C668	0.961340	0.300130	0.200500
O1871	O187	0.876450	0.572350	0.985000
C6691	C669	0.775500	0.415760	0.626990
C6701	C670	0.762130	0.396900	0.588300
H2091	H209	0.739200	0.390200	0.579100
C6711	C671	0.782670	0.387890	0.563000
H2101	H210	0.773600	0.375100	0.536800
C6721	C672	0.816580	0.397740	0.576490
C6731	C673	0.829960	0.416600	0.615200
H2111	H211	0.852900	0.423300	0.624400
C6741	C674	0.809410	0.425610	0.640480
H2121	H212	0.818500	0.438400	0.666700
O1881	O188	0.415660	0.853480	0.560000
C6751	C675	0.025660	0.334290	0.126980
C6761	C676	0.059540	0.324340	0.140260
H2131	H213	0.068600	0.311400	0.166300
C6771	C677	0.080050	0.333460	0.115000
H2141	H214	0.103000	0.326700	0.124000
C6781	C678	0.066690	0.352540	0.076490
C6791	C679	0.032810	0.362490	0.063210
H2151	H215	0.023800	0.375400	0.037200
C6801	C680	0.012300	0.353370	0.088400
H2161	H216	0.989400	0.360100	0.079500
O1891	O189	0.373450	0.822380	0.516000
O1901	O190	0.869180	0.400230	0.560600
O1911	O191	0.826110	0.369560	0.515400
O1921	O192	0.076390	0.380540	0.016000
O1931	O193	0.117950	0.349970	0.059900
O1941	O194	0.806660	0.244410	0.015700
O1951	O195	0.786600	0.275400	0.060300
O1961	O196	0.759870	0.271820	0.939600
O1971	O197	0.740520	0.302530	0.984300
O1981	O198	0.556450	0.505470	0.515000
O1991	O199	0.536060	0.474890	0.560600
O2001	O200	0.509640	0.552740	0.515700
O2011	O201	0.489860	0.521660	0.560690
O2021	O202	0.690900	0.461900	0.723800
O2031	O203	0.732600	0.384400	0.774800
O2041	O204	0.796500	0.414300	0.724700
O2051	O205	0.780600	0.490400	0.775800
O2061	O206	0.517100	0.634000	0.723800
O2071	O207	0.473400	0.741700	0.725200
O2081	O208	0.940000	0.289400	0.224300
O2091	O209	0.453100	0.164400	0.775900
O2101	O210	0.424000	0.084700	0.758000
O2111	O211	0.463200	0.017200	0.768600
O2121	O212	0.940700	0.210600	0.294900
O2131	O213	0.951000	0.126400	0.244700
O2141	O214	0.406800	0.766700	0.744100
O2151	O215	0.561600	0.584800	0.761000
O2161	O216	0.651600	0.491400	0.764100
O2171	O217	0.624700	0.396900	0.748400
O2181	O218	0.785400	0.316000	0.755300
O2191	O219	0.849700	0.381800	0.718100
O2201	O220	0.865300	0.479000	0.738300
O2211	O221	0.804600	0.550600	0.759400
O2221	O222	0.716400	0.564400	0.756900
C6811	C681	0.691100	0.495100	0.720800
C6821	C682	0.698700	0.383000	0.772500
C6831	C683	0.797500	0.380900	0.726200
C6841	C684	0.813400	0.490300	0.772000
C6851	C685	0.551200	0.638100	0.725300
C6861	C686	0.439600	0.742400	0.724600
C6871	C687	0.940700	0.256000	0.235200
C6881	C688	0.451400	0.130900	0.779600
C6891	C689	0.419800	0.120600	0.749100
C6901	C690	0.456200	0.072700	0.751800
C6911	C691	0.466600	0.049600	0.791400
C6921	C692	0.500700	0.022300	0.774200
C6931	C693	0.944600	0.244700	0.280300
C6941	C694	0.944000	0.182800	0.266400
C6951	C695	0.965800	0.153000	0.279700
C6961	C696	0.982700	0.106500	0.252800
C6971	C697	0.405100	0.735200	0.718700
C6981	C698	0.568300	0.608400	0.733000
C6991	C699	0.676400	0.510900	0.749400
C7001	C700	0.627700	0.460600	0.748100
C7011	C701	0.607900	0.429800	0.735500
C7021	C702	0.642800	0.367700	0.740300
C7031	C703	0.679200	0.355300	0.757200
C7041	C704	0.823400	0.329100	0.758100
C7051	C705	0.829900	0.367100	0.743500
C7061	C706	0.873300	0.412700	0.726500
C7071	C707	0.857100	0.446400	0.716100
C7081	C708	0.846800	0.509000	0.738000
C7091	C709	0.822000	0.520900	0.759200
C7101	C710	0.773400	0.571400	0.749300
C7111	C711	0.744300	0.571500	0.742100
C7121	C712	0.696000	0.540400	0.770600
C7131	C713	0.741300	0.356500	0.750600
C7141	C714	0.774700	0.343900	0.765500
C7151	C715	0.823700	0.439200	0.741000
C7161	C716	0.830100	0.469900	0.724700
C7171	C717	0.734100	0.534100	0.760000
C7181	C718	0.762400	0.519200	0.750100
C7191	C719	0.667100	0.441900	0.739300
C7201	C720	0.646800	0.412800	0.727200
Cu251	Cu25	0.988360	0.018150	0.026290
Cu261	Cu26	0.738470	0.731810	0.526310
Cu271	Cu27	0.649820	0.143180	0.526370
Cu281	Cu28	0.600280	0.106830	0.473760
C7211	C721	0.006770	0.187490	0.775590
C7221	C722	0.000590	0.161020	0.799100
C7231	C723	0.012270	0.160940	0.846380
C7241	C724	0.030140	0.187340	0.870160
H2171	H217	0.038000	0.187300	0.902100
C7251	C725	0.036320	0.213820	0.846660
C7261	C726	0.024630	0.213900	0.799370
C7271	C727	0.001000	0.048600	0.952300
C7281	C728	0.052720	0.243740	0.873000
C7291	C729	0.039510	0.274340	0.859620
H2181	H218	0.020100	0.276900	0.833600
C7301	C730	0.054990	0.301210	0.884700
H2191	H219	0.046100	0.321900	0.875700
C7311	C731	0.083690	0.297490	0.923200
C7321	C732	0.096910	0.266890	0.936590
H2201	H220	0.116300	0.264400	0.962600
C7331	C733	0.081420	0.240010	0.911500
H2211	H221	0.090400	0.219300	0.920600
C7341	C734	0.099000	0.326700	0.951300
C7351	C735	0.008740	0.131630	0.873000
C7361	C736	0.015420	0.101100	0.859520
H2221	H222	0.021700	0.098700	0.833400
C7371	C737	0.012830	0.074160	0.884700
H2231	H223	0.017300	0.053500	0.875600
C7381	C738	0.003560	0.077750	0.923400
C7391	C739	0.996880	0.108280	0.936890
H2241	H224	0.990600	0.110700	0.963100
C7401	C740	0.999470	0.135220	0.911700
H2251	H225	0.995000	0.155900	0.920800
C7411	C741	0.650500	0.077300	0.548100
C7421	C742	0.736950	0.910810	0.653000
C7431	C743	0.720000	0.937720	0.629570
H2261	H226	0.712000	0.937800	0.597600
C7441	C744	0.714940	0.964510	0.653400
C7451	C745	0.726820	0.964380	0.700700
C7461	C746	0.743770	0.937470	0.724140
C7471	C747	0.748840	0.910680	0.700300
C7481	C748	0.749000	0.799000	0.547800
C7491	C749	0.740770	0.881020	0.626580
C7501	C750	0.750060	0.884710	0.587900
H2271	H227	0.754300	0.905400	0.578700
C7511	C751	0.753110	0.857790	0.562970
H2281	H228	0.759400	0.860300	0.536800
C7521	C752	0.746880	0.827180	0.576700
C7531	C753	0.737590	0.823500	0.615300
H2291	H229	0.733400	0.802800	0.624600
C7541	C754	0.734540	0.850420	0.640280
H2301	H230	0.728300	0.847900	0.666400
C7551	C755	0.661000	0.888800	0.951300
C7561	C756	0.697660	0.993730	0.626500
C7571	C757	0.669060	0.990060	0.587900
H2311	H231	0.660100	0.969400	0.578700
C7581	C758	0.653630	0.016980	0.562860
H2321	H232	0.634300	0.014500	0.536700
C7591	C759	0.666810	0.047570	0.576400
C7601	C760	0.695420	0.051230	0.615100
H2331	H233	0.704300	0.071900	0.624300
C7611	C761	0.710850	0.024310	0.640090
H2341	H234	0.730200	0.026800	0.666200
C7621	C762	0.411400	0.862000	0.450900
C7631	C763	0.756450	0.937100	0.775800
C7641	C764	0.735640	0.925900	0.799520
C7651	C765	0.747340	0.926290	0.846800
C7661	C766	0.779850	0.937870	0.870360
H2351	H235	0.787800	0.938100	0.902300
C7671	C767	0.800650	0.949070	0.846640
C7681	C768	0.788950	0.948690	0.799360
C7691	C769	0.939700	0.986900	0.951800
C7701	C770	0.837200	0.959150	0.872850
C7711	C771	0.842960	0.978110	0.911500
H2361	H236	0.824500	0.984700	0.920400
C7721	C772	0.876030	0.987260	0.936830
H2371	H237	0.879900	0.000100	0.962900
C7731	C773	0.903340	0.977450	0.923570
C7741	C774	0.897580	0.958490	0.885000
H2381	H238	0.916000	0.951900	0.876000
C7751	C775	0.864510	0.949340	0.859600
H2391	H239	0.860600	0.936500	0.833500
C7761	C776	0.689100	0.763300	0.451700
C7771	C777	0.587210	0.790590	0.373600
C7781	C778	0.593280	0.771620	0.412300
H2401	H240	0.575000	0.764900	0.421500
C7791	C779	0.626450	0.762510	0.437250
H2411	H241	0.630600	0.749700	0.463400
C7801	C780	0.653540	0.772380	0.423600
C7811	C781	0.647470	0.791350	0.384900
H2421	H242	0.665800	0.798000	0.375700
C7821	C782	0.614310	0.800460	0.359940
H2431	H243	0.610200	0.813300	0.333800
O2231	O223	0.665200	0.103340	0.560000
C7831	C783	0.506420	0.812230	0.275740
C7841	C784	0.485970	0.824500	0.299300
C7851	C785	0.497760	0.824660	0.346600
C7861	C786	0.530000	0.812560	0.370310
H2441	H244	0.538000	0.812700	0.402300
C7871	C787	0.550450	0.800290	0.346800
C7881	C788	0.538660	0.800130	0.299500
O2241	O224	0.623550	0.072350	0.515000
C7891	C789	0.724500	0.915760	0.873010
C7901	C790	0.737870	0.896900	0.911700
H2451	H245	0.760800	0.890200	0.920900
C7911	C791	0.717330	0.887890	0.937000
H2461	H246	0.726400	0.875100	0.963200
C7921	C792	0.683420	0.897740	0.923510
C7931	C793	0.670040	0.916600	0.884800
H2471	H247	0.647100	0.923300	0.875600
C7941	C794	0.690590	0.925610	0.859520
H2481	H248	0.681500	0.938400	0.833300
O2251	O225	0.084340	0.353480	0.940000
C7951	C795	0.474340	0.834290	0.373020
C7961	C796	0.440460	0.824340	0.359740
H2491	H249	0.431400	0.811400	0.333700
C7971	C797	0.419950	0.833460	0.385000
H2501	H250	0.397000	0.826700	0.376000
C7981	C798	0.433310	0.852540	0.423510
C7991	C799	0.467190	0.862490	0.436790
H2511	H251	0.476200	0.875400	0.462800
C8001	C800	0.487700	0.853370	0.411600
H2521	H252	0.510600	0.860100	0.420500
O2261	O226	0.126550	0.322380	0.984000
O2271	O227	0.630820	0.900230	0.939400
O2281	O228	0.673890	0.869560	0.984600
O2291	O229	0.423610	0.880540	0.484000
O2301	O230	0.382050	0.849970	0.440100
O2311	O231	0.693340	0.744410	0.484300
O2321	O232	0.713400	0.775400	0.439700
O2331	O233	0.740130	0.771820	0.560400
O2341	O234	0.759480	0.802530	0.515700
O2351	O235	0.943550	0.005470	0.985000
O2361	O236	0.963940	0.974890	0.939400
O2371	O237	0.990360	0.052740	0.984300
O2381	O238	0.010140	0.021660	0.939310
O2391	O239	0.809100	0.961900	0.776200
O2401	O240	0.767400	0.884400	0.725200
O2411	O241	0.703500	0.914300	0.775300
O2421	O242	0.719400	0.990400	0.724200
O2431	O243	0.982900	0.134000	0.776200
O2441	O244	0.026600	0.241700	0.774800
O2451	O245	0.560000	0.789400	0.275700
O2461	O246	0.046900	0.664400	0.724100
O2471	O247	0.076000	0.584700	0.742000
O2481	O248	0.036800	0.517200	0.731400
O2491	O249	0.559300	0.710600	0.205100
O2501	O250	0.549000	0.626400	0.255300
O2511	O251	0.093200	0.266700	0.755900
O2521	O252	0.938400	0.084800	0.739000
O2531	O253	0.848400	0.991400	0.735900
O2541	O254	0.875300	0.896900	0.751600
O2551	O255	0.714600	0.816000	0.744700
O2561	O256	0.650300	0.881800	0.781900
O2571	O257	0.634700	0.979000	0.761700
O2581	O258	0.695400	0.050600	0.740600
O2591	O259	0.783600	0.064400	0.743100
C8011	C801	0.808900	0.995100	0.779200
C8021	C802	0.801300	0.883000	0.727500
C8031	C803	0.702500	0.880900	0.773800
C8041	C804	0.686600	0.990300	0.728000
C8051	C805	0.948800	0.138100	0.774700
C8061	C806	0.060400	0.242400	0.775400
C8071	C807	0.559300	0.756000	0.264800
C8081	C808	0.048600	0.630900	0.720400
C8091	C809	0.080200	0.620600	0.750900
C8101	C810	0.043800	0.572700	0.748200
C8111	C811	0.033400	0.549600	0.708600
C8121	C812	0.999300	0.522300	0.725800
C8131	C813	0.555400	0.744700	0.219700
C8141	C814	0.556000	0.682800	0.233600
C8151	C815	0.534200	0.653000	0.220300
C8161	C816	0.517300	0.606500	0.247200
C8171	C817	0.094900	0.235200	0.781300
C8181	C818	0.931700	0.108400	0.767000
C8191	C819	0.823600	0.010900	0.750600
C8201	C820	0.872300	0.960600	0.751900
C8211	C821	0.892100	0.929800	0.764500
C8221	C822	0.857200	0.867700	0.759700
C8231	C823	0.820800	0.855300	0.742800
C8241	C824	0.676600	0.829100	0.741900
C8251	C825	0.670100	0.867100	0.756500
C8261	C826	0.626700	0.912700	0.773500
C8271	C827	0.642900	0.946400	0.783900
C8281	C828	0.653200	0.009000	0.762000
C8291	C829	0.678000	0.020900	0.740800
C8301	C830	0.726600	0.071400	0.750700
C8311	C831	0.755700	0.071500	0.757900
C8321	C832	0.804000	0.040400	0.729400
C8331	C833	0.758700	0.856500	0.749400
C8341	C834	0.725300	0.843900	0.734500
C8351	C835	0.676300	0.939200	0.759000
C8361	C836	0.669900	0.969900	0.775300
C8371	C837	0.765900	0.034100	0.740000
C8381	C838	0.737600	0.019200	0.749900
C8391	C839	0.832900	0.941900	0.760700
C8401	C840	0.853200	0.912800	0.772800
Cu291	Cu29	0.488360	0.518150	0.026290
Cu301	Cu30	0.238470	0.231810	0.526310
Cu311	Cu31	0.149820	0.643180	0.526370
Cu321	Cu32	0.100280	0.606830	0.473760
C8411	C841	0.506770	0.687490	0.775590
C8421	C842	0.500590	0.661020	0.799100
C8431	C843	0.512270	0.660940	0.846380
C8441	C844	0.530140	0.687340	0.870160
H2531	H253	0.538000	0.687300	0.902100
C8451	C845	0.536320	0.713820	0.846660
C8461	C846	0.524630	0.713900	0.799370
C8471	C847	0.501000	0.548600	0.952300
C8481	C848	0.552720	0.743740	0.873000
C8491	C849	0.539510	0.774340	0.859620
H2541	H254	0.520100	0.776900	0.833600
C8501	C850	0.554990	0.801210	0.884700
H2551	H255	0.546100	0.821900	0.875700
C8511	C851	0.583690	0.797490	0.923200
C8521	C852	0.596910	0.766890	0.936590
H2561	H256	0.616300	0.764400	0.962600
C8531	C853	0.581420	0.740010	0.911500
H2571	H257	0.590400	0.719300	0.920600
C8541	C854	0.599000	0.826700	0.951300
C8551	C855	0.508740	0.631630	0.873000
C8561	C856	0.515420	0.601100	0.859520
H2581	H258	0.521700	0.598700	0.833400
C8571	C857	0.512830	0.574160	0.884700
H2591	H259	0.517300	0.553500	0.875600
C8581	C858	0.503560	0.577750	0.923400
C8591	C859	0.496880	0.608280	0.936890
H2601	H260	0.490600	0.610700	0.963100
C8601	C860	0.499470	0.635220	0.911700
H2611	H261	0.495000	0.655900	0.920800
C8611	C861	0.150500	0.577300	0.548100
C8621	C862	0.236950	0.410810	0.653000
C8631	C863	0.220000	0.437720	0.629570
H2621	H262	0.212000	0.437800	0.597600
C8641	C864	0.214940	0.464510	0.653400
C8651	C865	0.226820	0.464380	0.700700
C8661	C866	0.243770	0.437470	0.724140
C8671	C867	0.248840	0.410680	0.700300
C8681	C868	0.249000	0.299000	0.547800
C8691	C869	0.240770	0.381020	0.626580
C8701	C870	0.250060	0.384710	0.587900
H2631	H263	0.254300	0.405400	0.578700
C8711	C871	0.253110	0.357790	0.562970
H2641	H264	0.259400	0.360300	0.536800
C8721	C872	0.246880	0.327180	0.576700
C8731	C873	0.237590	0.323500	0.615300
H2651	H265	0.233400	0.302800	0.624600
C8741	C874	0.234540	0.350420	0.640280
H2661	H266	0.228300	0.347900	0.666400
C8751	C875	0.161000	0.388800	0.951300
C8761	C876	0.197660	0.493730	0.626500
C8771	C877	0.169060	0.490060	0.587900
H2671	H267	0.160100	0.469400	0.578700
C8781	C878	0.153630	0.516980	0.562860
H2681	H268	0.134300	0.514500	0.536700
C8791	C879	0.166810	0.547570	0.576400
C8801	C880	0.195420	0.551230	0.615100
H2691	H269	0.204300	0.571900	0.624300
C8811	C881	0.210850	0.524310	0.640090
H2701	H270	0.230200	0.526800	0.666200
C8821	C882	0.911400	0.362000	0.450900
C8831	C883	0.256450	0.437100	0.775800
C8841	C884	0.235640	0.425900	0.799520
C8851	C885	0.247340	0.426290	0.846800
C8861	C886	0.279850	0.437870	0.870360
H2711	H271	0.287800	0.438100	0.902300
C8871	C887	0.300650	0.449070	0.846640
C8881	C888	0.288950	0.448690	0.799360
C8891	C889	0.439700	0.486900	0.951800
C8901	C890	0.337200	0.459150	0.872850
C8911	C891	0.342960	0.478110	0.911500
H2721	H272	0.324500	0.484700	0.920400
C8921	C892	0.376030	0.487260	0.936830
H2731	H273	0.379900	0.500100	0.962900
C8931	C893	0.403340	0.477450	0.923570
C8941	C894	0.397580	0.458490	0.885000
H2741	H274	0.416000	0.451900	0.876000
C8951	C895	0.364510	0.449340	0.859600
H2751	H275	0.360600	0.436500	0.833500
C8961	C896	0.189100	0.263300	0.451700
C8971	C897	0.087210	0.290590	0.373600
C8981	C898	0.093280	0.271620	0.412300
H2761	H276	0.075000	0.264900	0.421500
C8991	C899	0.126450	0.262510	0.437250
H2771	H277	0.130600	0.249700	0.463400
C9001	C900	0.153540	0.272380	0.423600
C9011	C901	0.147470	0.291350	0.384900
H2781	H278	0.165800	0.298000	0.375700
C9021	C902	0.114310	0.300460	0.359940
H2791	H279	0.110200	0.313300	0.333800
O2601	O260	0.165200	0.603340	0.560000
C9031	C903	0.006420	0.312230	0.275740
C9041	C904	0.985970	0.324500	0.299300
C9051	C905	0.997760	0.324660	0.346600
C9061	C906	0.030000	0.312560	0.370310
H2801	H280	0.038000	0.312700	0.402300
C9071	C907	0.050450	0.300290	0.346800
C9081	C908	0.038660	0.300130	0.299500
O2611	O261	0.123550	0.572350	0.515000
C9091	C909	0.224500	0.415760	0.873010
C9101	C910	0.237870	0.396900	0.911700
H2811	H281	0.260800	0.390200	0.920900
C9111	C911	0.217330	0.387890	0.937000
H2821	H282	0.226400	0.375100	0.963200
C9121	C912	0.183420	0.397740	0.923510
C9131	C913	0.170040	0.416600	0.884800
H2831	H283	0.147100	0.423300	0.875600
C9141	C914	0.190590	0.425610	0.859520
H2841	H284	0.181500	0.438400	0.833300
O2621	O262	0.584340	0.853480	0.940000
C9151	C915	0.974340	0.334290	0.373020
C9161	C916	0.940460	0.324340	0.359740
H2851	H285	0.931400	0.311400	0.333700
C9171	C917	0.919950	0.333460	0.385000
H2861	H286	0.897000	0.326700	0.376000
C9181	C918	0.933310	0.352540	0.423510
C9191	C919	0.967190	0.362490	0.436790
H2871	H287	0.976200	0.375400	0.462800
C9201	C920	0.987700	0.353370	0.411600
H2881	H288	0.010600	0.360100	0.420500
O2631	O263	0.626550	0.822380	0.984000
O2641	O264	0.130820	0.400230	0.939400
O2651	O265	0.173890	0.369560	0.984600
O2661	O266	0.923610	0.380540	0.484000
O2671	O267	0.882050	0.349970	0.440100
O2681	O268	0.193340	0.244410	0.484300
O2691	O269	0.213400	0.275400	0.439700
O2701	O270	0.240130	0.271820	0.560400
O2711	O271	0.259480	0.302530	0.515700
O2721	O272	0.443550	0.505470	0.985000
O2731	O273	0.463940	0.474890	0.939400
O2741	O274	0.490360	0.552740	0.984300
O2751	O275	0.510140	0.521660	0.939310
O2761	O276	0.309100	0.461900	0.776200
O2771	O277	0.267400	0.384400	0.725200
O2781	O278	0.203500	0.414300	0.775300
O2791	O279	0.219400	0.490400	0.724200
O2801	O280	0.482900	0.634000	0.776200
O2811	O281	0.526600	0.741700	0.774800
O2821	O282	0.060000	0.289400	0.275700
O2831	O283	0.546900	0.164400	0.724100
O2841	O284	0.576000	0.084700	0.742000
O2851	O285	0.536800	0.017200	0.731400
O2861	O286	0.059300	0.210600	0.205100
O2871	O287	0.049000	0.126400	0.255300
O2881	O288	0.593200	0.766700	0.755900
O2891	O289	0.438400	0.584800	0.739000
O2901	O290	0.348400	0.491400	0.735900
O2911	O291	0.375300	0.396900	0.751600
O2921	O292	0.214600	0.316000	0.744700
O2931	O293	0.150300	0.381800	0.781900
O2941	O294	0.134700	0.479000	0.761700
O2951	O295	0.195400	0.550600	0.740600
O2961	O296	0.283600	0.564400	0.743100
C9211	C921	0.308900	0.495100	0.779200
C9221	C922	0.301300	0.383000	0.727500
C9231	C923	0.202500	0.380900	0.773800
C9241	C924	0.186600	0.490300	0.728000
C9251	C925	0.448800	0.638100	0.774700
C9261	C926	0.560400	0.742400	0.775400
C9271	C927	0.059300	0.256000	0.264800
C9281	C928	0.548600	0.130900	0.720400
C9291	C929	0.580200	0.120600	0.750900
C9301	C930	0.543800	0.072700	0.748200
C9311	C931	0.533400	0.049600	0.708600
C9321	C932	0.499300	0.022300	0.725800
C9331	C933	0.055400	0.244700	0.219700
C9341	C934	0.056000	0.182800	0.233600
C9351	C935	0.034200	0.153000	0.220300
C9361	C936	0.017300	0.106500	0.247200
C9371	C937	0.594900	0.735200	0.781300
C9381	C938	0.431700	0.608400	0.767000
C9391	C939	0.323600	0.510900	0.750600
C9401	C940	0.372300	0.460600	0.751900
C9411	C941	0.392100	0.429800	0.764500
C9421	C942	0.357200	0.367700	0.759700
C9431	C943	0.320800	0.355300	0.742800
C9441	C944	0.176600	0.329100	0.741900
C9451	C945	0.170100	0.367100	0.756500
C9461	C946	0.126700	0.412700	0.773500
C9471	C947	0.142900	0.446400	0.783900
C9481	C948	0.153200	0.509000	0.762000
C9491	C949	0.178000	0.520900	0.740800
C9501	C950	0.226600	0.571400	0.750700
C9511	C951	0.255700	0.571500	0.757900
C9521	C952	0.304000	0.540400	0.729400
C9531	C953	0.258700	0.356500	0.749400
C9541	C954	0.225300	0.343900	0.734500
C9551	C955	0.176300	0.439200	0.759000
C9561	C956	0.169900	0.469900	0.775300
C9571	C957	0.265900	0.534100	0.740000
C9581	C958	0.237600	0.519200	0.749900
C9591	C959	0.332900	0.441900	0.760700
C9601	C960	0.353200	0.412800	0.772800
