data_XOVVOU_clean_PM
_symmetry_space_group_name_H-M	'P1'
_cell_length_a	13.732600
_cell_length_b	13.732600
_cell_length_c	14.082200
_cell_angle_alpha	87.481000
_cell_angle_beta	87.481000
_cell_angle_gamma	60.137900
_symmetry_Int_Tables_number 1

loop_
_symmetry_equiv_pos_as_xyz
'x,y,z'

loop_
_atom_site_label
_atom_site_type_symbol
_atom_site_fract_x
_atom_site_fract_y
_atom_site_fract_z
Zn11	Zn1	0.537970	0.846350	0.012790
Zn21	Zn2	0.561120	0.023320	0.389880
Zn31	Zn3	0.153650	0.462030	0.487210
Zn41	Zn4	0.976680	0.438880	0.110120
Zn51	Zn5	0.462030	0.153650	0.987210
Zn61	Zn6	0.438880	0.976680	0.610120
Zn71	Zn7	0.846350	0.537970	0.512790
Zn81	Zn8	0.023320	0.561120	0.889880
H11	H1	0.558800	0.851800	0.236200
H21	H2	0.454200	0.170600	0.207600
H31	H3	0.381500	0.285500	0.384500
H41	H4	0.240500	0.230900	0.608700
H51	H5	0.892100	0.949700	0.311300
H61	H6	0.148200	0.441200	0.263800
H71	H7	0.829400	0.545800	0.292400
H81	H8	0.714500	0.618500	0.115500
H91	H9	0.769100	0.759500	0.891300
H101	H10	0.050300	0.107900	0.188700
H111	H11	0.441200	0.148200	0.763800
H121	H12	0.545800	0.829400	0.792400
H131	H13	0.618500	0.714500	0.615500
H141	H14	0.759500	0.769100	0.391300
H151	H15	0.107900	0.050300	0.688700
H161	H16	0.851800	0.558800	0.736200
H171	H17	0.170600	0.454200	0.707600
H181	H18	0.285500	0.381500	0.884500
H191	H19	0.230900	0.240500	0.108700
H201	H20	0.949700	0.892100	0.811300
H211	H21	0.719700	0.280300	0.250000
H221	H22	0.280300	0.719700	0.750000
C11	C1	0.533100	0.923500	0.210000
C21	C2	0.476900	0.096500	0.194000
C31	C3	0.367800	0.250200	0.437000
C41	C4	0.291000	0.221000	0.558700
C51	C5	0.788700	0.116300	0.284400
C61	C6	0.889200	0.015000	0.286400
C71	C7	0.682900	0.118500	0.320300
C81	C8	0.076500	0.466900	0.290000
C91	C9	0.903500	0.523100	0.306000
C101	C10	0.749800	0.632200	0.063000
C111	C11	0.779000	0.709000	0.941300
C121	C12	0.883700	0.211300	0.215600
C131	C13	0.985000	0.110800	0.213600
C141	C14	0.881500	0.317100	0.179700
C151	C15	0.466900	0.076500	0.790000
C161	C16	0.523100	0.903500	0.806000
C171	C17	0.632200	0.749800	0.563000
C181	C18	0.709000	0.779000	0.441300
C191	C19	0.211300	0.883700	0.715600
C201	C20	0.110800	0.985000	0.713600
C211	C21	0.317100	0.881500	0.679700
C221	C22	0.923500	0.533100	0.710000
C231	C23	0.096500	0.476900	0.694000
C241	C24	0.250200	0.367800	0.937000
C251	C25	0.221000	0.291000	0.058700
C261	C26	0.116300	0.788700	0.784400
C271	C27	0.015000	0.889200	0.786400
C281	C28	0.118500	0.682900	0.820300
C291	C29	0.787200	0.212800	0.250000
C301	C30	0.985600	0.014400	0.250000
C311	C31	0.212800	0.787200	0.750000
C321	C32	0.014400	0.985600	0.750000
N11	N1	0.513000	0.949200	0.118100
N21	N2	0.477900	0.061900	0.107500
N31	N3	0.512300	0.012700	0.260500
N41	N4	0.433670	0.143870	0.461700
N51	N5	0.384400	0.123800	0.541400
N61	N6	0.278200	0.301400	0.496700
N71	N7	0.050800	0.487000	0.381900
N81	N8	0.938100	0.522100	0.392500
N91	N9	0.987300	0.487700	0.239500
N101	N10	0.856130	0.566330	0.038300
N111	N11	0.876200	0.615600	0.958600
N121	N12	0.698600	0.721800	0.003300
N131	N13	0.487000	0.050800	0.881900
N141	N14	0.522100	0.938100	0.892500
N151	N15	0.487700	0.987300	0.739500
N161	N16	0.566330	0.856130	0.538300
N171	N17	0.615600	0.876200	0.458600
N181	N18	0.721800	0.698600	0.503300
N191	N19	0.949200	0.513000	0.618100
N201	N20	0.061900	0.477900	0.607500
N211	N21	0.012700	0.512300	0.760500
N221	N22	0.143870	0.433670	0.961700
N231	N23	0.123800	0.384400	0.041400
N241	N24	0.301400	0.278200	0.996700
N251	N25	0.092300	0.907700	0.250000
N261	N26	0.907700	0.092300	0.750000
O11	O1	0.697880	0.029680	0.364800
O21	O2	0.590330	0.199130	0.305900
O31	O3	0.177800	0.909800	0.227500
O41	O4	0.970320	0.302120	0.135200
O51	O5	0.800870	0.409670	0.194100
O61	O6	0.090200	0.822200	0.272500
O71	O7	0.302120	0.970320	0.635200
O81	O8	0.409670	0.800870	0.694100
O91	O9	0.822200	0.090200	0.772500
O101	O10	0.029680	0.697880	0.864800
O111	O11	0.199130	0.590330	0.805900
O121	O12	0.909800	0.177800	0.727500
