data_XOVVEK_clean_PM
_symmetry_space_group_name_H-M	'P1'
_cell_length_a	9.758000
_cell_length_b	11.890000
_cell_length_c	15.220000
_cell_angle_alpha	95.544000
_cell_angle_beta	99.068000
_cell_angle_gamma	112.874000
_symmetry_Int_Tables_number 1

loop_
_symmetry_equiv_pos_as_xyz
'x,y,z'

loop_
_atom_site_label
_atom_site_type_symbol
_atom_site_fract_x
_atom_site_fract_y
_atom_site_fract_z
Zn11	Zn1	0.009860	0.928100	0.205490
Zn21	Zn2	0.557130	0.890770	0.431420
Zn31	Zn3	0.108840	0.811870	0.830790
Zn41	Zn4	0.990140	0.071900	0.794510
Zn51	Zn5	0.442870	0.109230	0.568580
Zn61	Zn6	0.891160	0.188130	0.169210
Zn71	Zn7	0.500000	0.000000	0.000000
H11	H1	0.316300	0.033800	0.143500
H21	H2	0.927000	0.823300	0.987100
H31	H3	0.822600	0.863400	0.355800
H41	H4	0.650500	0.096200	0.297000
H51	H5	0.276800	0.835200	0.272000
H61	H6	0.180100	0.078300	0.404600
H71	H7	0.802300	0.510400	0.165500
H81	H8	0.456100	0.611200	0.100300
H91	H9	0.284000	0.405300	0.075300
H101	H10	0.375100	0.250400	0.085400
H111	H11	0.307300	0.494800	0.324000
H121	H12	0.723300	0.538300	0.444500
H131	H13	0.665400	0.334400	0.391500
H141	H14	0.430500	0.211100	0.301300
H151	H15	0.683700	0.966200	0.856500
H161	H16	0.073000	0.176700	0.012900
H171	H17	0.177400	0.136600	0.644200
H181	H18	0.349500	0.903800	0.703000
H191	H19	0.723200	0.164800	0.728000
H201	H20	0.819900	0.921700	0.595400
H211	H21	0.197700	0.489600	0.834500
H221	H22	0.543900	0.388800	0.899700
H231	H23	0.716000	0.594700	0.924700
H241	H24	0.624900	0.749600	0.914600
H251	H25	0.692700	0.505200	0.676000
H261	H26	0.276700	0.461700	0.555500
H271	H27	0.334600	0.665600	0.608500
H281	H28	0.569500	0.788900	0.698700
C11	C1	0.242400	0.984500	0.093000
C21	C2	0.030700	0.870400	0.008600
C31	C3	0.803200	0.925300	0.330500
C41	C4	0.710400	0.051500	0.298600
C51	C5	0.279900	0.895500	0.316900
C61	C6	0.227300	0.027000	0.389100
C71	C7	0.656900	0.267500	0.135600
C81	C8	0.759900	0.713700	0.147900
C91	C9	0.598700	0.366500	0.126800
C101	C10	0.699000	0.489400	0.145300
C111	C11	0.648700	0.582600	0.134300
C121	C12	0.491300	0.549600	0.107400
C131	C13	0.388000	0.426300	0.091100
C141	C14	0.442700	0.333500	0.098800
C151	C15	0.189200	0.258800	0.246200
C161	C16	0.566700	0.673500	0.417100
C171	C17	0.343600	0.341200	0.303400
C181	C18	0.380100	0.462900	0.336000
C191	C19	0.523900	0.539400	0.386800
C201	C20	0.628100	0.488700	0.408200
C211	C21	0.593800	0.367000	0.376900
C221	C22	0.453300	0.293300	0.323900
C231	C23	0.757600	0.015500	0.907000
C241	C24	0.969300	0.129600	0.991400
C251	C25	0.196800	0.074700	0.669500
C261	C26	0.289600	0.948500	0.701400
C271	C27	0.720100	0.104500	0.683100
C281	C28	0.772700	0.973000	0.610900
C291	C29	0.343100	0.732500	0.864400
C301	C30	0.240100	0.286300	0.852100
C311	C31	0.401300	0.633500	0.873200
C321	C32	0.301000	0.510600	0.854700
C331	C33	0.351300	0.417400	0.865700
C341	C34	0.508700	0.450400	0.892600
C351	C35	0.612000	0.573700	0.908900
C361	C36	0.557300	0.666500	0.901200
C371	C37	0.810800	0.741200	0.753800
C381	C38	0.433300	0.326500	0.582900
C391	C39	0.656400	0.658800	0.696600
C401	C40	0.619900	0.537100	0.664000
C411	C41	0.476100	0.460600	0.613200
C421	C42	0.371900	0.511300	0.591800
C431	C43	0.406200	0.633000	0.623100
C441	C44	0.546700	0.706700	0.676100
N11	N1	0.274600	0.961000	0.014200
N21	N2	0.134100	0.885400	0.958500
N31	N3	0.092900	0.930800	0.093800
N41	N4	0.877700	0.985200	0.271500
N51	N5	0.816000	0.067800	0.251400
N61	N6	0.698200	0.963200	0.349600
N71	N7	0.381900	0.938100	0.393900
N81	N8	0.345700	0.023800	0.441900
N91	N9	0.182200	0.948400	0.310600
N101	N10	0.725400	0.039000	0.985800
N111	N11	0.865900	0.114600	0.041500
N121	N12	0.907100	0.069200	0.906200
N131	N13	0.122300	0.014800	0.728500
N141	N14	0.184000	0.932200	0.748600
N151	N15	0.301800	0.036800	0.650400
N161	N16	0.618100	0.061900	0.606100
N171	N17	0.654300	0.976200	0.558100
N181	N18	0.817800	0.051600	0.689400
O11	O1	0.572400	0.156300	0.111200
O21	O2	0.800200	0.307500	0.167600
O31	O3	0.891800	0.743200	0.196900
O41	O4	0.727900	0.791300	0.108500
O51	O5	0.157300	0.150300	0.217400
O61	O6	0.095900	0.309500	0.227400
O71	O7	0.460700	0.711700	0.394700
O81	O8	0.693800	0.744200	0.460300
O91	O9	0.427600	0.843700	0.888800
O101	O10	0.199800	0.692500	0.832400
O111	O11	0.108200	0.256800	0.803100
O121	O12	0.272100	0.208700	0.891500
O131	O13	0.842700	0.849700	0.782600
O141	O14	0.904100	0.690500	0.772600
O151	O15	0.539300	0.288300	0.605300
O161	O16	0.306200	0.255800	0.539700
