data_XOVXAI_clean_PM
_symmetry_space_group_name_H-M	'P1'
_cell_length_a	11.098000
_cell_length_b	11.194000
_cell_length_c	16.587000
_cell_angle_alpha	99.085000
_cell_angle_beta	109.296000
_cell_angle_gamma	91.098000
_symmetry_Int_Tables_number 1

loop_
_symmetry_equiv_pos_as_xyz
'x,y,z'

loop_
_atom_site_label
_atom_site_type_symbol
_atom_site_fract_x
_atom_site_fract_y
_atom_site_fract_z
Co11	Co1	0.177740	0.866590	0.250960
Co21	Co2	0.201190	0.708160	0.048740
Co31	Co3	0.920640	0.767260	0.035970
Co41	Co4	0.241460	0.081150	0.456320
Co51	Co5	0.172490	0.809430	0.460570
Co61	Co6	0.822260	0.133410	0.749040
Co71	Co7	0.798810	0.291840	0.951260
Co81	Co8	0.079360	0.232740	0.964030
Co91	Co9	0.758540	0.918850	0.543680
Co101	Co10	0.827510	0.190570	0.539430
H11	H1	0.568600	0.055100	0.358400
H21	H2	0.496100	0.027000	0.204700
H31	H3	0.635100	0.972400	0.137300
H41	H4	0.890800	0.660800	0.366100
H51	H5	0.803200	0.619300	0.218300
H61	H6	0.593700	0.671100	0.154000
H71	H7	0.977300	0.174100	0.142100
H81	H8	0.003700	0.217100	0.289500
H91	H9	0.067000	0.415400	0.365000
H101	H10	0.365200	0.500500	0.151200
H111	H11	0.431600	0.522900	0.302700
H121	H12	0.382100	0.360400	0.360700
H131	H13	0.326900	0.895500	0.404600
H141	H14	0.122600	0.898000	0.095700
H151	H15	0.431400	0.944900	0.641600
H161	H16	0.503900	0.973000	0.795300
H171	H17	0.364900	0.027600	0.862700
H181	H18	0.109200	0.339200	0.633900
H191	H19	0.196800	0.380700	0.781700
H201	H20	0.406300	0.328900	0.846000
H211	H21	0.022700	0.825900	0.857900
H221	H22	0.996300	0.782900	0.710500
H231	H23	0.933000	0.584600	0.635000
H241	H24	0.634800	0.499500	0.848800
H251	H25	0.568400	0.477100	0.697300
H261	H26	0.617900	0.639600	0.639300
H271	H27	0.673100	0.104500	0.595400
H281	H28	0.877400	0.102000	0.904300
C11	C1	0.622700	0.032500	0.327100
C21	C2	0.580200	0.015700	0.236500
C31	C3	0.664500	0.983000	0.197600
C41	C4	0.788900	0.963400	0.236200
C51	C5	0.836500	0.987000	0.324700
C61	C6	0.967500	0.973600	0.379900
C71	C7	0.879100	0.913000	0.190800
C81	C8	0.805900	0.676300	0.340100
C91	C9	0.755900	0.653200	0.252000
C101	C10	0.629600	0.682700	0.214100
C111	C11	0.557700	0.728200	0.263300
C121	C12	0.612400	0.741600	0.353400
C131	C13	0.545500	0.777200	0.418700
C141	C14	0.421600	0.755600	0.220600
C151	C15	0.994700	0.253600	0.172000
C161	C16	0.014000	0.278800	0.260300
C171	C17	0.049400	0.399300	0.305300
C181	C18	0.057900	0.488500	0.265100
C191	C19	0.034700	0.462200	0.171300
C201	C20	0.041300	0.555300	0.115600
C211	C21	0.102300	0.617100	0.305200
C221	C22	0.355800	0.435000	0.177400
C231	C23	0.391200	0.450600	0.267200
C241	C24	0.362700	0.351300	0.300900
C251	C25	0.308100	0.242100	0.252000
C261	C26	0.282600	0.226200	0.159800
C271	C27	0.239800	0.116300	0.094900
C281	C28	0.275100	0.141500	0.289700
C291	C29	0.377300	0.967500	0.672900
C301	C30	0.419800	0.984300	0.763500
C311	C31	0.335500	0.017000	0.802400
C321	C32	0.211100	0.036600	0.763800
C331	C33	0.163500	0.013000	0.675300
C341	C34	0.032500	0.026400	0.620100
C351	C35	0.120900	0.087000	0.809200
C361	C36	0.194100	0.323700	0.659900
C371	C37	0.244100	0.346800	0.748000
C381	C38	0.370400	0.317300	0.785900
C391	C39	0.442300	0.271800	0.736700
C401	C40	0.387600	0.258400	0.646600
C411	C41	0.454500	0.222800	0.581300
C421	C42	0.578400	0.244400	0.779400
C431	C43	0.005300	0.746400	0.828000
C441	C44	0.986000	0.721200	0.739700
C451	C45	0.950600	0.600700	0.694700
C461	C46	0.942100	0.511500	0.734900
C471	C47	0.965300	0.537800	0.828700
C481	C48	0.958700	0.444700	0.884400
C491	C49	0.897700	0.382900	0.694800
C501	C50	0.644200	0.565000	0.822600
C511	C51	0.608800	0.549400	0.732800
C521	C52	0.637300	0.648700	0.699100
C531	C53	0.691900	0.757900	0.748000
C541	C54	0.717400	0.773800	0.840200
C551	C55	0.760200	0.883700	0.905100
C561	C56	0.724900	0.858500	0.710300
N11	N1	0.747600	0.013900	0.366900
N21	N2	0.737800	0.721600	0.393400
N31	N3	0.001700	0.345200	0.130700
N41	N4	0.306900	0.323800	0.127100
N51	N5	0.252400	0.986100	0.633100
N61	N6	0.262200	0.278400	0.606600
N71	N7	0.998300	0.654800	0.869300
N81	N8	0.693100	0.676200	0.872900
O11	O1	0.792300	0.027300	0.453500
O21	O2	0.040100	0.069000	0.401700
O31	O3	0.996000	0.872400	0.399700
O41	O4	0.998500	0.931000	0.235000
O51	O5	0.831900	0.855600	0.114100
O61	O6	0.785800	0.743900	0.477200
O71	O7	0.473700	0.693800	0.425100
O81	O8	0.565100	0.887500	0.458700
O91	O9	0.363200	0.808000	0.265600
O101	O10	0.377900	0.721200	0.137100
O111	O11	0.973500	0.320700	0.044000
O121	O12	0.141400	0.567400	0.102500
O131	O13	0.939600	0.611700	0.091600
O141	O14	0.117200	0.691100	0.259500
O151	O15	0.120700	0.641300	0.385700
O161	O16	0.271900	0.317800	0.041500
O171	O17	0.121400	0.101900	0.047900
O181	O18	0.323100	0.046500	0.086300
O191	O19	0.243400	0.039200	0.241900
O201	O20	0.275400	0.166400	0.367800
O211	O21	0.248000	0.908500	0.389700
O221	O22	0.110700	0.830700	0.110600
O231	O23	0.207700	0.972700	0.546500
O241	O24	0.959900	0.931000	0.598300
O251	O25	0.004000	0.127600	0.600300
O261	O26	0.001500	0.069000	0.765000
O271	O27	0.168100	0.144400	0.885900
O281	O28	0.214200	0.256100	0.522800
O291	O29	0.526300	0.306200	0.574900
O301	O30	0.434900	0.112500	0.541300
O311	O31	0.636800	0.192000	0.734400
O321	O32	0.622100	0.278800	0.862900
O331	O33	0.026500	0.679300	0.956000
O341	O34	0.858600	0.432600	0.897500
O351	O35	0.060400	0.388300	0.908400
O361	O36	0.882800	0.308900	0.740500
O371	O37	0.879300	0.358700	0.614300
O381	O38	0.728100	0.682200	0.958500
O391	O39	0.878600	0.898100	0.952100
O401	O40	0.676900	0.953500	0.913700
O411	O41	0.756600	0.960800	0.758100
O421	O42	0.724600	0.833600	0.632200
O431	O43	0.752000	0.091500	0.610300
O441	O44	0.889300	0.169300	0.889400
