data_XOVXEM_clean_PM
_symmetry_space_group_name_H-M	'P1'
_cell_length_a	11.232000
_cell_length_b	11.361000
_cell_length_c	17.072000
_cell_angle_alpha	97.950000
_cell_angle_beta	108.889000
_cell_angle_gamma	91.409000
_symmetry_Int_Tables_number 1

loop_
_symmetry_equiv_pos_as_xyz
'x,y,z'

loop_
_atom_site_label
_atom_site_type_symbol
_atom_site_fract_x
_atom_site_fract_y
_atom_site_fract_z
Cd11	Cd1	0.084870	0.225710	0.460800
Cd21	Cd2	0.784990	0.285700	0.451400
Cd31	Cd3	0.175710	0.794050	0.956100
Cd41	Cd4	0.182500	0.866960	0.750100
Cd51	Cd5	0.250230	0.087660	0.956240
Cd61	Cd6	0.915130	0.774290	0.539200
Cd71	Cd7	0.215010	0.714300	0.548600
Cd81	Cd8	0.824290	0.205950	0.043900
Cd91	Cd9	0.817500	0.133040	0.249900
Cd101	Cd10	0.749770	0.912340	0.043760
H11	H1	0.363400	0.382300	0.848800
H21	H2	0.437400	0.530300	0.783000
H31	H3	0.356700	0.497800	0.635800
H41	H4	0.066800	0.393700	0.858800
H51	H5	0.003300	0.203100	0.781300
H61	H6	0.984700	0.170800	0.638900
H71	H7	0.100600	0.333800	0.119200
H81	H8	0.167800	0.373800	0.263700
H91	H9	0.375100	0.330900	0.337600
H101	H10	0.374500	0.031800	0.361900
H111	H11	0.504500	0.971000	0.284000
H121	H12	0.425700	0.943200	0.140100
H131	H13	0.877400	0.076400	0.407800
H141	H14	0.354900	0.891600	0.905000
H151	H15	0.636600	0.617700	0.151200
H161	H16	0.562600	0.469700	0.217000
H171	H17	0.643300	0.502200	0.364200
H181	H18	0.933200	0.606300	0.141200
H191	H19	0.996700	0.796900	0.218700
H201	H20	0.015300	0.829200	0.361100
H211	H21	0.899400	0.666200	0.880800
H221	H22	0.832200	0.626200	0.736300
H231	H23	0.624900	0.669100	0.662400
H241	H24	0.625500	0.968200	0.638100
H251	H25	0.495500	0.029000	0.716000
H261	H26	0.574300	0.056800	0.859900
H271	H27	0.122600	0.923600	0.592200
H281	H28	0.645100	0.108400	0.095000
C11	C1	0.298300	0.233700	0.660300
C21	C2	0.252900	0.117600	0.600700
C31	C3	0.323600	0.251700	0.747700
C41	C4	0.289900	0.154200	0.789500
C51	C5	0.360400	0.366200	0.793300
C61	C6	0.393400	0.459100	0.752700
C71	C7	0.355600	0.435900	0.666000
C81	C8	0.045300	0.553100	0.625500
C91	C9	0.039600	0.456700	0.676300
C101	C10	0.061900	0.476900	0.762000
C111	C11	0.050900	0.382000	0.801200
C121	C12	0.015700	0.266500	0.755000
C131	C13	0.999300	0.247400	0.669100
C141	C14	0.100600	0.597000	0.806900
C151	C15	0.558200	0.252300	0.285400
C161	C16	0.427100	0.278500	0.236200
C171	C17	0.462600	0.235400	0.093700
C181	C18	0.384700	0.266200	0.150600
C191	C19	0.183500	0.323100	0.149900
C201	C20	0.221700	0.344300	0.235500
C211	C21	0.346600	0.319600	0.279400
C221	C22	0.129200	0.078100	0.309400
C231	C23	0.210300	0.027500	0.258300
C241	C24	0.343000	0.016600	0.303700
C251	C25	0.420300	0.982700	0.257000
C261	C26	0.373500	0.966200	0.171200
C271	C27	0.169400	0.005800	0.175800
C281	C28	0.037700	0.023200	0.123100
C291	C29	0.701700	0.766300	0.339700
C301	C30	0.747100	0.882400	0.399300
C311	C31	0.676400	0.748300	0.252300
C321	C32	0.710100	0.845800	0.210500
C331	C33	0.639600	0.633800	0.206700
C341	C34	0.606600	0.540900	0.247300
C351	C35	0.644400	0.564100	0.334000
C361	C36	0.954700	0.446900	0.374500
C371	C37	0.960400	0.543300	0.323700
C381	C38	0.938100	0.523100	0.238000
C391	C39	0.949100	0.618000	0.198800
C401	C40	0.984300	0.733500	0.245000
C411	C41	0.000700	0.752600	0.330900
C421	C42	0.899400	0.403000	0.193100
C431	C43	0.441800	0.747700	0.714600
C441	C44	0.572900	0.721500	0.763800
C451	C45	0.537400	0.764600	0.906300
C461	C46	0.615300	0.733800	0.849400
C471	C47	0.816500	0.676900	0.850100
C481	C48	0.778300	0.655700	0.764500
C491	C49	0.653400	0.680400	0.720600
C501	C50	0.870800	0.921900	0.690600
C511	C51	0.789700	0.972500	0.741700
C521	C52	0.657000	0.983400	0.696300
C531	C53	0.579700	0.017300	0.743000
C541	C54	0.626500	0.033800	0.828800
C551	C55	0.830600	0.994200	0.824200
C561	C56	0.962300	0.976800	0.876900
N11	N1	0.317400	0.324700	0.625200
N21	N2	0.005400	0.343700	0.631500
N31	N3	0.260800	0.288300	0.110700
N41	N4	0.254100	0.983100	0.132800
N51	N5	0.682600	0.675300	0.374800
N61	N6	0.994600	0.656300	0.368500
N71	N7	0.739200	0.711700	0.889300
N81	N8	0.745900	0.016900	0.867200
O11	O1	0.288700	0.308900	0.539400
O21	O2	0.138900	0.098000	0.564300
O31	O3	0.334700	0.050100	0.594000
O41	O4	0.256400	0.051300	0.744300
O51	O5	0.297300	0.183200	0.862600
O61	O6	0.986200	0.330600	0.550400
O71	O7	0.940200	0.604500	0.596300
O81	O8	0.140600	0.569600	0.608600
O91	O9	0.111100	0.679800	0.768800
O101	O10	0.113700	0.614100	0.888100
O111	O11	0.889300	0.154200	0.391600
O121	O12	0.225100	0.272400	0.027800
O131	O13	0.453600	0.126500	0.058300
O141	O14	0.528900	0.316900	0.086700
O151	O15	0.625400	0.207000	0.245800
O161	O16	0.591100	0.286200	0.361500
O171	O17	0.265300	0.906600	0.889400
O181	O18	0.967700	0.924200	0.100500
O191	O19	0.009800	0.121400	0.106000
O201	O20	0.014400	0.063700	0.271000
O211	O21	0.185500	0.133700	0.381400
O221	O22	0.209700	0.970400	0.047200
O231	O23	0.711300	0.691100	0.460600
O241	O24	0.861100	0.902000	0.435700
O251	O25	0.665300	0.949900	0.406000
O261	O26	0.743600	0.948700	0.255700
O271	O27	0.702700	0.816800	0.137400
O281	O28	0.013800	0.669400	0.449600
O291	O29	0.059800	0.395500	0.403700
O301	O30	0.859400	0.430400	0.391400
O311	O31	0.888900	0.320200	0.231200
O321	O32	0.886300	0.385900	0.111900
O331	O33	0.110700	0.845800	0.608400
O341	O34	0.774900	0.727600	0.972200
O351	O35	0.546400	0.873500	0.941700
O361	O36	0.471100	0.683100	0.913300
O371	O37	0.374600	0.793000	0.754200
O381	O38	0.408900	0.713800	0.638500
O391	O39	0.734700	0.093400	0.110600
O401	O40	0.032300	0.075800	0.899500
O411	O41	0.990200	0.878600	0.894000
O421	O42	0.985600	0.936300	0.729000
O431	O43	0.814500	0.866300	0.618600
O441	O44	0.790300	0.029600	0.952800
