data_XOVYIR_clean_PM
_symmetry_space_group_name_H-M	'P1'
_cell_length_a	11.140000
_cell_length_b	11.249000
_cell_length_c	16.815000
_cell_angle_alpha	98.141000
_cell_angle_beta	108.842000
_cell_angle_gamma	91.333000
_symmetry_Int_Tables_number 1

loop_
_symmetry_equiv_pos_as_xyz
'x,y,z'

loop_
_atom_site_label
_atom_site_type_symbol
_atom_site_fract_x
_atom_site_fract_y
_atom_site_fract_z
Mn11	Mn1	0.582060	0.729380	0.962450
Mn21	Mn2	0.672740	0.301540	0.458030
Mn31	Mn3	0.746180	0.583990	0.456500
Mn41	Mn4	0.680380	0.365850	0.250450
Mn51	Mn5	0.292260	0.789960	0.951560
Mn61	Mn6	0.417940	0.270620	0.037550
Mn71	Mn7	0.327260	0.698460	0.541970
Mn81	Mn8	0.253820	0.416010	0.543500
Mn91	Mn9	0.319620	0.634150	0.749550
Mn101	Mn10	0.707740	0.210040	0.048440
H11	H1	0.874500	0.998700	0.145800
H21	H2	0.924000	0.024200	0.290200
H31	H3	0.874400	0.867900	0.354600
H41	H4	0.562900	0.904500	0.361100
H51	H5	0.500500	0.711800	0.287200
H61	H6	0.468300	0.675700	0.141000
H71	H7	0.867600	0.533500	0.865400
H81	H8	0.002400	0.473500	0.791800
H91	H9	0.928500	0.440900	0.643900
H101	H10	0.603600	0.839600	0.627500
H111	H11	0.691700	0.884500	0.776200
H121	H12	0.876400	0.799400	0.831800
H131	H13	0.834100	0.394600	0.406100
H141	H14	0.377000	0.597800	0.907200
H151	H15	0.125500	0.001300	0.854200
H161	H16	0.076000	0.975800	0.709800
H171	H17	0.125600	0.132100	0.645400
H181	H18	0.437100	0.095500	0.638900
H191	H19	0.499500	0.288200	0.712800
H201	H20	0.531700	0.324300	0.859000
H211	H21	0.132400	0.466500	0.134600
H221	H22	0.997600	0.526500	0.208200
H231	H23	0.071500	0.559100	0.356100
H241	H24	0.396400	0.160400	0.372500
H251	H25	0.308300	0.115500	0.223800
H261	H26	0.123600	0.200600	0.168200
H271	H27	0.165900	0.605400	0.593900
H281	H28	0.623000	0.402200	0.092800
C11	C1	0.859700	0.935400	0.172400
C21	C2	0.887500	0.950600	0.257400
C31	C3	0.861600	0.856000	0.296500
C41	C4	0.816900	0.745200	0.247900
C51	C5	0.780100	0.644700	0.288000
C61	C6	0.791300	0.728500	0.161300
C71	C7	0.746600	0.613900	0.096800
C81	C8	0.538900	0.959600	0.172900
C91	C9	0.540700	0.053100	0.118000
C101	C10	0.600500	0.110100	0.305400
C111	C11	0.559400	0.985000	0.258900
C121	C12	0.546900	0.889500	0.302600
C131	C13	0.511200	0.774500	0.259000
C141	C14	0.491200	0.753100	0.171500
C151	C15	0.532200	0.523700	0.618800
C161	C16	0.667300	0.511300	0.673900
C171	C17	0.620200	0.584000	0.807300
C181	C18	0.710200	0.535400	0.762800
C191	C19	0.837500	0.519800	0.806300
C201	C20	0.918100	0.484600	0.762400
C211	C21	0.874600	0.465400	0.674300
C221	C22	0.687200	0.824800	0.655900
C231	C23	0.735400	0.846400	0.742400
C241	C24	0.852400	0.807500	0.774600
C251	C25	0.937800	0.779200	0.737700
C261	C26	0.071200	0.749000	0.781800
C271	C27	0.888300	0.760700	0.649100
C281	C28	0.958600	0.726500	0.587900
C291	C29	0.140300	0.064600	0.827600
C301	C30	0.112500	0.049400	0.742600
C311	C31	0.138400	0.144000	0.703500
C321	C32	0.183100	0.254800	0.752100
C331	C33	0.219900	0.355300	0.712000
C341	C34	0.208700	0.271500	0.838700
C351	C35	0.253400	0.386100	0.903200
C361	C36	0.461100	0.040400	0.827100
C371	C37	0.459300	0.946900	0.882000
C381	C38	0.399500	0.889900	0.694600
C391	C39	0.440600	0.015000	0.741100
C401	C40	0.453100	0.110500	0.697400
C411	C41	0.488800	0.225500	0.741000
C421	C42	0.508800	0.246900	0.828500
C431	C43	0.467800	0.476300	0.381200
C441	C44	0.332700	0.488700	0.326100
C451	C45	0.379800	0.416000	0.192700
C461	C46	0.289800	0.464600	0.237200
C471	C47	0.162500	0.480200	0.193700
C481	C48	0.081900	0.515400	0.237600
C491	C49	0.125400	0.534600	0.325700
C501	C50	0.312800	0.175200	0.344100
C511	C51	0.264600	0.153600	0.257600
C521	C52	0.147600	0.192500	0.225400
C531	C53	0.062200	0.220800	0.262300
C541	C54	0.928800	0.251000	0.218200
C551	C55	0.111700	0.239300	0.350900
C561	C56	0.041400	0.273500	0.412100
N11	N1	0.809400	0.825500	0.125680
N21	N2	0.505400	0.845100	0.132400
N31	N3	0.751100	0.483100	0.633400
N41	N4	0.765100	0.780300	0.611400
N51	N5	0.190600	0.174500	0.874320
N61	N6	0.494600	0.154900	0.867600
N71	N7	0.248900	0.516900	0.366600
N81	N8	0.234900	0.219700	0.388600
O11	O1	0.778300	0.813000	0.041070
O21	O2	0.630200	0.599200	0.055130
O31	O3	0.830600	0.547500	0.089790
O41	O4	0.748000	0.545100	0.242400
O51	O5	0.788000	0.672800	0.364260
O61	O6	0.481700	0.824300	0.048900
O71	O7	0.638100	0.069300	0.100800
O81	O8	0.440900	0.106800	0.092640
O91	O9	0.618500	0.187500	0.264020
O101	O10	0.613500	0.129700	0.382370
O111	O11	0.709400	0.470400	0.547540
O121	O12	0.461200	0.427700	0.596290
O131	O13	0.505400	0.626300	0.601140
O141	O14	0.504600	0.569700	0.764730
O151	O15	0.671800	0.637500	0.882430
O161	O16	0.717500	0.761900	0.525730
O171	O17	0.112400	0.784100	0.860350
O181	O18	0.128400	0.691800	0.737740
O191	O19	0.025800	0.813000	0.580400
O201	O20	0.940800	0.621400	0.548580
O211	O21	0.755900	0.408200	0.391550
O221	O22	0.388600	0.665100	0.892300
O231	O23	0.221700	0.187000	0.958930
O241	O24	0.369800	0.400800	0.944870
O251	O25	0.169400	0.452500	0.910210
O261	O26	0.252000	0.454900	0.757600
O271	O27	0.212000	0.327200	0.635740
O281	O28	0.518300	0.175700	0.951100
O291	O29	0.361900	0.930700	0.899200
O301	O30	0.559100	0.893200	0.907360
O311	O31	0.381500	0.812500	0.735980
O321	O32	0.386500	0.870300	0.617630
O331	O33	0.290600	0.529600	0.452460
O341	O34	0.538800	0.572300	0.403710
O351	O35	0.494600	0.373700	0.398860
O361	O36	0.495400	0.430300	0.235270
O371	O37	0.328200	0.362500	0.117570
O381	O38	0.282500	0.238100	0.474270
O391	O39	0.887600	0.215900	0.139650
O401	O40	0.871600	0.308200	0.262260
O411	O41	0.974200	0.187000	0.419600
O421	O42	0.059200	0.378600	0.451420
O431	O43	0.244100	0.591800	0.608450
O441	O44	0.611400	0.334900	0.107700
