data_XOXMED_clean_PM
_symmetry_space_group_name_H-M	'P1'
_cell_length_a	23.275000
_cell_length_b	25.486000
_cell_length_c	43.964500
_cell_angle_alpha	90.000000
_cell_angle_beta	90.623700
_cell_angle_gamma	90.000000
_symmetry_Int_Tables_number 1

loop_
_symmetry_equiv_pos_as_xyz
'x,y,z'

loop_
_atom_site_label
_atom_site_type_symbol
_atom_site_fract_x
_atom_site_fract_y
_atom_site_fract_z
Zn11	Zn1	0.686500	0.215850	0.835570
Zn21	Zn2	0.762470	0.122380	0.801950
Zn31	Zn3	0.822200	0.222780	0.833940
Zn41	Zn4	0.767210	0.134710	0.872420
Zn51	Zn5	0.186500	0.284150	0.335570
Zn61	Zn6	0.262470	0.377620	0.301950
Zn71	Zn7	0.322200	0.277220	0.333940
Zn81	Zn8	0.267210	0.365290	0.372420
H11	H1	0.669400	0.137600	0.953800
H21	H2	0.631000	0.285200	0.922200
H31	H3	0.639600	0.106900	0.998400
H41	H4	0.574700	0.125000	0.003900
H51	H5	0.625400	0.147500	0.025100
H61	H6	0.526700	0.323400	0.967400
H71	H7	0.568900	0.339600	0.940500
H81	H8	0.587400	0.349900	0.975100
H91	H9	0.418700	0.211400	0.042100
H101	H10	0.386600	0.220200	0.093000
H111	H11	0.629100	0.325400	0.134200
H121	H12	0.656500	0.314700	0.080200
H131	H13	0.425600	0.233900	0.257900
H141	H14	0.367900	0.371300	0.229400
H151	H15	0.477200	0.186300	0.188100
H161	H16	0.475500	0.173700	0.223800
H171	H17	0.528300	0.205800	0.210100
H181	H18	0.457700	0.389400	0.168300
H191	H19	0.398200	0.409300	0.182100
H201	H20	0.398100	0.367800	0.154800
H211	H21	0.614200	0.263800	0.751600
H221	H22	0.629600	0.107700	0.732000
H231	H23	0.609100	0.315300	0.686000
H241	H24	0.569800	0.324000	0.715200
H251	H25	0.541600	0.303500	0.684000
H261	H26	0.545100	0.097500	0.673900
H271	H27	0.606900	0.073500	0.681800
H281	H28	0.599600	0.114000	0.654200
H291	H29	0.662200	0.250900	0.587800
H301	H30	0.633000	0.263100	0.537400
H311	H31	0.374900	0.182200	0.571500
H321	H32	0.404500	0.180500	0.625300
H331	H33	0.420900	0.216800	0.407800
H341	H34	0.385700	0.357500	0.444000
H351	H35	0.513400	0.167700	0.463100
H361	H36	0.475400	0.152700	0.433900
H371	H37	0.448900	0.147600	0.467200
H381	H38	0.436500	0.387600	0.488400
H391	H39	0.474300	0.347700	0.508400
H401	H40	0.405800	0.347700	0.511200
H411	H41	0.664900	0.378500	0.831800
H421	H42	0.827300	0.385600	0.854400
H431	H43	0.603400	0.455300	0.830400
H441	H44	0.637900	0.504400	0.817100
H451	H45	0.622300	0.502400	0.852400
H461	H46	0.856000	0.511600	0.847500
H471	H47	0.874000	0.463600	0.869100
H481	H48	0.835500	0.510400	0.882100
H491	H49	0.753600	0.631600	0.776600
H501	H50	0.749900	0.724200	0.776600
H511	H51	0.706100	0.721700	0.921500
H521	H52	0.715900	0.630300	0.921400
H531	H53	0.630900	0.889300	0.802300
H541	H54	0.604600	0.876900	0.835000
H551	H55	0.647100	0.835700	0.819400
H561	H56	0.665100	0.974700	0.826900
H571	H57	0.814200	0.842900	0.893800
H581	H58	0.857700	0.889500	0.885900
H591	H59	0.845900	0.843800	0.861700
H601	H60	0.810300	0.968800	0.873600
H611	H61	0.169400	0.362400	0.453800
H621	H62	0.131000	0.214800	0.422200
H631	H63	0.139600	0.393100	0.498400
H641	H64	0.074700	0.375000	0.503900
H651	H65	0.125400	0.352500	0.525100
H661	H66	0.026700	0.176600	0.467400
H671	H67	0.068900	0.160400	0.440500
H681	H68	0.087400	0.150100	0.475100
H691	H69	0.918700	0.288600	0.542100
H701	H70	0.886600	0.279800	0.593000
H711	H71	0.129100	0.174600	0.634200
H721	H72	0.156500	0.185300	0.580200
H731	H73	0.925600	0.266100	0.757900
H741	H74	0.867900	0.128700	0.729400
H751	H75	0.977200	0.313700	0.688100
H761	H76	0.975500	0.326300	0.723800
H771	H77	0.028300	0.294200	0.710100
H781	H78	0.957700	0.110600	0.668300
H791	H79	0.898200	0.090700	0.682100
H801	H80	0.898100	0.132200	0.654800
H811	H81	0.114200	0.236200	0.251600
H821	H82	0.129600	0.392300	0.232000
H831	H83	0.109100	0.184700	0.186000
H841	H84	0.069800	0.176000	0.215200
H851	H85	0.041600	0.196500	0.184000
H861	H86	0.045100	0.402500	0.173900
H871	H87	0.106900	0.426500	0.181800
H881	H88	0.099600	0.386000	0.154200
H891	H89	0.162200	0.249100	0.087800
H901	H90	0.133000	0.236900	0.037400
H911	H91	0.874900	0.317800	0.071500
H921	H92	0.904500	0.319500	0.125300
H931	H93	0.920900	0.283200	0.907800
H941	H94	0.885700	0.142500	0.944000
H951	H95	0.013400	0.332300	0.963100
H961	H96	0.975400	0.347300	0.933900
H971	H97	0.948900	0.352400	0.967200
H981	H98	0.936500	0.112400	0.988400
H991	H99	0.974300	0.152300	0.008400
H1001	H100	0.905800	0.152300	0.011200
H1011	H101	0.164900	0.121500	0.331800
H1021	H102	0.327300	0.114400	0.354400
H1031	H103	0.103400	0.044700	0.330400
H1041	H104	0.137900	0.995600	0.317100
H1051	H105	0.122300	0.997600	0.352400
H1061	H106	0.356000	0.988400	0.347500
H1071	H107	0.374000	0.036400	0.369100
H1081	H108	0.335500	0.989600	0.382100
H1091	H109	0.253600	0.868400	0.276600
H1101	H110	0.249900	0.775800	0.276600
H1111	H111	0.206100	0.778300	0.421500
H1121	H112	0.215900	0.869700	0.421400
H1131	H113	0.130900	0.610700	0.302300
H1141	H114	0.104600	0.623100	0.335000
H1151	H115	0.147100	0.664300	0.319400
H1161	H116	0.165100	0.525300	0.326900
H1171	H117	0.314200	0.657100	0.393800
H1181	H118	0.357700	0.610500	0.385900
H1191	H119	0.345900	0.656200	0.361700
H1201	H120	0.310300	0.531200	0.373600
C11	C1	0.675860	0.190600	0.901160
C21	C2	0.647210	0.206900	0.929610
C31	C3	0.649750	0.170100	0.955450
C41	C4	0.623420	0.183600	0.981620
C51	C5	0.599800	0.233000	0.985700
C61	C6	0.597210	0.267100	0.962810
C71	C7	0.625620	0.257500	0.936320
C81	C8	0.615030	0.136300	0.004430
C91	C9	0.566970	0.326100	0.961270
C101	C10	0.520120	0.233300	0.020320
C111	C11	0.496320	0.241700	0.050820
C121	C12	0.535070	0.264800	0.074070
C131	C13	0.586200	0.278800	0.065500
C141	C14	0.613400	0.270300	0.034400
C151	C15	0.443190	0.226100	0.057390
C161	C16	0.424030	0.231800	0.087730
C171	C17	0.459020	0.253600	0.109320
C181	C18	0.514360	0.271400	0.103160
C191	C19	0.550330	0.292600	0.125430
C201	C20	0.604160	0.310000	0.119360
C211	C21	0.620100	0.302200	0.086500
C221	C22	0.439410	0.258500	0.140910
C231	C23	0.527780	0.300600	0.157580
C241	C24	0.448550	0.288920	0.192750
C251	C25	0.455520	0.249600	0.213820
C261	C26	0.422840	0.258840	0.241940
C271	C27	0.389860	0.300620	0.245660
C281	C28	0.388520	0.340040	0.225320
C291	C29	0.419910	0.333720	0.196610
C301	C30	0.486790	0.199600	0.208490
C311	C31	0.418330	0.379240	0.173330
C321	C32	0.660720	0.177910	0.775120
C331	C33	0.628670	0.184290	0.744870
C341	C34	0.610740	0.235970	0.737340
C351	C35	0.586970	0.245100	0.707070
C361	C36	0.581900	0.200920	0.687800
C371	C37	0.598380	0.151450	0.696880
C381	C38	0.620330	0.142350	0.725630
C391	C39	0.575890	0.302170	0.697190
C401	C40	0.586430	0.104750	0.674630
C411	C41	0.601090	0.227300	0.636990
C421	C42	0.582590	0.232220	0.604190
C431	C43	0.525980	0.219500	0.596380
C441	C44	0.485510	0.205200	0.617710
C451	C45	0.505750	0.199500	0.650950
C461	C46	0.623050	0.246200	0.582150
C471	C47	0.606150	0.253000	0.552450
C481	C48	0.550970	0.245100	0.545070
C491	C49	0.507400	0.226600	0.565500
C501	C50	0.450530	0.215600	0.558030
C511	C51	0.411590	0.194400	0.577990
C521	C52	0.430430	0.191600	0.610030
C531	C53	0.529660	0.252300	0.512160
C541	C54	0.432660	0.219600	0.525960
C551	C55	0.451020	0.263000	0.475620
C561	C56	0.453000	0.224800	0.452300
C571	C57	0.424580	0.240870	0.424180
C581	C58	0.403230	0.290650	0.421330
C591	C59	0.404930	0.324720	0.445730
C601	C60	0.433960	0.312800	0.472660
C611	C61	0.474590	0.168100	0.454290
C621	C62	0.437930	0.352300	0.497230
C631	C63	0.752330	0.316250	0.837230
C641	C64	0.746310	0.373430	0.842410
C651	C65	0.697170	0.398960	0.837870
C661	C66	0.688050	0.454410	0.841250
C671	C67	0.735440	0.480750	0.848240
C681	C68	0.788690	0.459300	0.854490
C691	C69	0.791680	0.402670	0.850780
C701	C70	0.633360	0.481360	0.834760
C711	C71	0.843600	0.488900	0.864200
C721	C72	0.744430	0.564480	0.821030
C731	C73	0.742700	0.622340	0.821000
C741	C74	0.735290	0.649270	0.848890
C751	C75	0.727110	0.621330	0.876610
C761	C76	0.728050	0.563850	0.876950
C771	C77	0.748290	0.649790	0.795190
C781	C78	0.746500	0.705320	0.795100
C791	C79	0.740100	0.730890	0.821400
C801	C80	0.730980	0.704120	0.847680
C811	C81	0.723630	0.732300	0.876330
C821	C82	0.714830	0.703900	0.903130
C831	C83	0.718940	0.648940	0.902740
C841	C84	0.744610	0.788240	0.820810
C851	C85	0.721920	0.789010	0.876220
C861	C86	0.733680	0.872440	0.850480
C871	C87	0.638460	0.873070	0.822160
C881	C88	0.693620	0.954600	0.837220
C891	C89	0.828660	0.865540	0.877560
C901	C90	0.778940	0.951250	0.864040
C911	C91	0.779630	0.896810	0.864130
C921	C92	0.689720	0.900090	0.837420
C931	C93	0.738920	0.979910	0.851920
C941	C94	0.738470	0.038140	0.854370
C951	C95	0.354010	0.305850	0.274010
C961	C96	0.367570	0.305200	0.392970
C971	C97	0.175860	0.309400	0.401160
C981	C98	0.147210	0.293100	0.429610
C991	C99	0.149750	0.329900	0.455450
C1001	C100	0.123420	0.316400	0.481620
C1011	C101	0.099800	0.267000	0.485700
C1021	C102	0.097210	0.232900	0.462810
C1031	C103	0.125620	0.242500	0.436320
C1041	C104	0.115030	0.363700	0.504430
C1051	C105	0.066970	0.173900	0.461270
C1061	C106	0.020120	0.266700	0.520320
C1071	C107	0.996320	0.258300	0.550820
C1081	C108	0.035070	0.235200	0.574070
C1091	C109	0.086200	0.221200	0.565500
C1101	C110	0.113400	0.229700	0.534400
C1111	C111	0.943190	0.273900	0.557390
C1121	C112	0.924030	0.268200	0.587730
C1131	C113	0.959020	0.246400	0.609320
C1141	C114	0.014360	0.228600	0.603160
C1151	C115	0.050330	0.207400	0.625430
C1161	C116	0.104160	0.190000	0.619360
C1171	C117	0.120100	0.197800	0.586500
C1181	C118	0.939410	0.241500	0.640910
C1191	C119	0.027780	0.199400	0.657580
C1201	C120	0.948550	0.211080	0.692750
C1211	C121	0.955520	0.250400	0.713820
C1221	C122	0.922840	0.241160	0.741940
C1231	C123	0.889860	0.199380	0.745660
C1241	C124	0.888520	0.159960	0.725320
C1251	C125	0.919910	0.166280	0.696610
C1261	C126	0.986790	0.300400	0.708490
C1271	C127	0.918330	0.120760	0.673330
C1281	C128	0.160720	0.322090	0.275120
C1291	C129	0.128670	0.315710	0.244870
C1301	C130	0.110740	0.264030	0.237340
C1311	C131	0.086970	0.254900	0.207070
C1321	C132	0.081900	0.299080	0.187800
C1331	C133	0.098380	0.348550	0.196880
C1341	C134	0.120330	0.357650	0.225630
C1351	C135	0.075890	0.197830	0.197190
C1361	C136	0.086430	0.395250	0.174630
C1371	C137	0.101090	0.272700	0.136990
C1381	C138	0.082590	0.267780	0.104190
C1391	C139	0.025980	0.280500	0.096380
C1401	C140	0.985510	0.294800	0.117710
C1411	C141	0.005750	0.300500	0.150950
C1421	C142	0.123050	0.253800	0.082150
C1431	C143	0.106150	0.247000	0.052450
C1441	C144	0.050970	0.254900	0.045070
C1451	C145	0.007400	0.273400	0.065500
C1461	C146	0.950530	0.284400	0.058030
C1471	C147	0.911590	0.305600	0.077990
C1481	C148	0.930430	0.308400	0.110030
C1491	C149	0.029660	0.247700	0.012160
C1501	C150	0.932660	0.280400	0.025960
C1511	C151	0.951020	0.237000	0.975620
C1521	C152	0.953000	0.275200	0.952300
C1531	C153	0.924580	0.259130	0.924180
C1541	C154	0.903230	0.209350	0.921330
C1551	C155	0.904930	0.175280	0.945730
C1561	C156	0.933960	0.187200	0.972660
C1571	C157	0.974590	0.331900	0.954290
C1581	C158	0.937930	0.147700	0.997230
C1591	C159	0.252330	0.183750	0.337230
C1601	C160	0.246310	0.126570	0.342410
C1611	C161	0.197170	0.101040	0.337870
C1621	C162	0.188050	0.045590	0.341250
C1631	C163	0.235440	0.019250	0.348240
C1641	C164	0.288690	0.040700	0.354490
C1651	C165	0.291680	0.097330	0.350780
C1661	C166	0.133360	0.018640	0.334760
C1671	C167	0.343600	0.011100	0.364200
C1681	C168	0.244430	0.935520	0.321030
C1691	C169	0.242700	0.877660	0.321000
C1701	C170	0.235290	0.850730	0.348890
C1711	C171	0.227110	0.878670	0.376610
C1721	C172	0.228050	0.936150	0.376950
C1731	C173	0.248290	0.850210	0.295190
C1741	C174	0.246500	0.794680	0.295100
C1751	C175	0.240100	0.769110	0.321400
C1761	C176	0.230980	0.795880	0.347680
C1771	C177	0.223630	0.767700	0.376330
C1781	C178	0.214830	0.796100	0.403130
C1791	C179	0.218940	0.851060	0.402740
C1801	C180	0.244610	0.711760	0.320810
C1811	C181	0.221920	0.710990	0.376220
C1821	C182	0.233680	0.627560	0.350480
C1831	C183	0.138460	0.626930	0.322160
C1841	C184	0.193620	0.545400	0.337220
C1851	C185	0.328660	0.634460	0.377560
C1861	C186	0.278940	0.548750	0.364040
C1871	C187	0.279630	0.603190	0.364130
C1881	C188	0.189720	0.599910	0.337420
C1891	C189	0.238920	0.520090	0.351920
C1901	C190	0.238470	0.461860	0.354370
C1911	C191	0.854010	0.194150	0.774010
C1921	C192	0.867570	0.194800	0.892970
N11	N1	0.574860	0.247900	0.014460
N21	N2	0.475270	0.280610	0.162670
N31	N3	0.561900	0.209700	0.657300
N41	N4	0.472360	0.242440	0.505260
N51	N5	0.734870	0.538420	0.848670
N61	N6	0.731500	0.814870	0.849220
N71	N7	0.074860	0.252100	0.514460
N81	N8	0.975270	0.219390	0.662670
N91	N9	0.061900	0.290300	0.157300
N101	N10	0.972360	0.257560	0.005260
N111	N11	0.234870	0.961580	0.348670
N121	N12	0.231500	0.685130	0.349220
O11	O1	0.758690	0.176070	0.835840
O21	O2	0.663420	0.220610	0.877090
O31	O3	0.707280	0.151600	0.900520
O41	O4	0.488900	0.215800	0.999600
O51	O5	0.664010	0.281000	0.028210
O61	O6	0.390170	0.242620	0.148670
O71	O7	0.557240	0.320600	0.176040
O81	O8	0.652850	0.213620	0.795130
O91	O9	0.688990	0.135870	0.778480
O101	O10	0.649820	0.238140	0.644520
O111	O11	0.471290	0.186210	0.669790
O121	O12	0.563650	0.268790	0.492250
O131	O13	0.386440	0.215600	0.517440
O141	O14	0.801330	0.295290	0.837530
O151	O15	0.705340	0.291460	0.834060
O161	O16	0.716790	0.537230	0.899290
O171	O17	0.756040	0.538940	0.797680
O181	O18	0.710610	0.815330	0.899130
O191	O19	0.755500	0.814790	0.798560
O201	O20	0.373300	0.277470	0.370150
O211	O21	0.334510	0.345470	0.395610
O221	O22	0.312540	0.337520	0.273060
O231	O23	0.369690	0.278750	0.297840
O241	O24	0.712570	0.064280	0.833080
O251	O25	0.767850	0.059150	0.874480
O261	O26	0.258690	0.323930	0.335840
O271	O27	0.163420	0.279390	0.377090
O281	O28	0.207280	0.348400	0.400520
O291	O29	0.988900	0.284200	0.499600
O301	O30	0.164010	0.219000	0.528210
O311	O31	0.890170	0.257380	0.648670
O321	O32	0.057240	0.179400	0.676040
O331	O33	0.152850	0.286380	0.295130
O341	O34	0.188990	0.364130	0.278480
O351	O35	0.149820	0.261860	0.144520
O361	O36	0.971290	0.313790	0.169790
O371	O37	0.063650	0.231210	0.992250
O381	O38	0.886440	0.284400	0.017440
O391	O39	0.301330	0.204710	0.337530
O401	O40	0.205340	0.208540	0.334060
O411	O41	0.216790	0.962770	0.399290
O421	O42	0.256040	0.961060	0.297680
O431	O43	0.210610	0.684670	0.399130
O441	O44	0.255500	0.685210	0.298560
O451	O45	0.873300	0.222530	0.870150
O461	O46	0.834510	0.154530	0.895610
O471	O47	0.812540	0.162480	0.773060
O481	O48	0.869690	0.221250	0.797840
O491	O49	0.212570	0.435720	0.333080
O501	O50	0.267850	0.440850	0.374480
Zn91	Zn9	0.813500	0.715850	0.664430
Zn101	Zn10	0.737530	0.622380	0.698050
Zn111	Zn11	0.677800	0.722780	0.666060
Zn121	Zn12	0.732790	0.634710	0.627580
Zn131	Zn13	0.313500	0.784150	0.164430
Zn141	Zn14	0.237530	0.877620	0.198050
Zn151	Zn15	0.177800	0.777220	0.166060
Zn161	Zn16	0.232790	0.865290	0.127580
H1211	H121	0.830600	0.637600	0.546200
H1221	H122	0.869000	0.785200	0.577800
H1231	H123	0.860400	0.606900	0.501600
H1241	H124	0.925300	0.625000	0.496100
H1251	H125	0.874600	0.647500	0.474900
H1261	H126	0.973300	0.823400	0.532600
H1271	H127	0.931100	0.839600	0.559500
H1281	H128	0.912600	0.849900	0.524900
H1291	H129	0.081300	0.711400	0.457900
H1301	H130	0.113400	0.720200	0.407000
H1311	H131	0.870900	0.825400	0.365800
H1321	H132	0.843500	0.814700	0.419800
H1331	H133	0.074400	0.733900	0.242100
H1341	H134	0.132100	0.871300	0.270600
H1351	H135	0.022800	0.686300	0.311900
H1361	H136	0.024500	0.673700	0.276200
H1371	H137	0.971700	0.705800	0.289900
H1381	H138	0.042300	0.889400	0.331700
H1391	H139	0.101800	0.909300	0.317900
H1401	H140	0.101900	0.867800	0.345200
H1411	H141	0.885800	0.763800	0.748400
H1421	H142	0.870400	0.607700	0.768000
H1431	H143	0.890900	0.815300	0.814000
H1441	H144	0.930200	0.824000	0.784800
H1451	H145	0.958400	0.803500	0.816000
H1461	H146	0.954900	0.597500	0.826100
H1471	H147	0.893100	0.573500	0.818200
H1481	H148	0.900400	0.614000	0.845800
H1491	H149	0.837800	0.750900	0.912200
H1501	H150	0.867000	0.763100	0.962600
H1511	H151	0.125100	0.682200	0.928500
H1521	H152	0.095500	0.680500	0.874700
H1531	H153	0.079100	0.716800	0.092200
H1541	H154	0.114300	0.857500	0.056000
H1551	H155	0.986600	0.667700	0.036900
H1561	H156	0.024600	0.652700	0.066100
H1571	H157	0.051100	0.647600	0.032800
H1581	H158	0.063500	0.887600	0.011600
H1591	H159	0.025700	0.847700	0.991600
H1601	H160	0.094200	0.847700	0.988800
H1611	H161	0.835100	0.878500	0.668200
H1621	H162	0.672700	0.885600	0.645600
H1631	H163	0.896600	0.955300	0.669600
H1641	H164	0.862100	0.004400	0.682900
H1651	H165	0.877700	0.002400	0.647600
H1661	H166	0.644000	0.011600	0.652500
H1671	H167	0.626000	0.963600	0.630900
H1681	H168	0.664500	0.010400	0.617900
H1691	H169	0.746400	0.131600	0.723400
H1701	H170	0.750100	0.224200	0.723400
H1711	H171	0.793900	0.221700	0.578500
H1721	H172	0.784100	0.130300	0.578600
H1731	H173	0.869100	0.389300	0.697700
H1741	H174	0.895400	0.376900	0.665000
H1751	H175	0.852900	0.335700	0.680600
H1761	H176	0.834900	0.474700	0.673100
H1771	H177	0.685800	0.342900	0.606200
H1781	H178	0.642300	0.389500	0.614100
H1791	H179	0.654100	0.343800	0.638300
H1801	H180	0.689700	0.468800	0.626400
H1811	H181	0.330600	0.862400	0.046200
H1821	H182	0.369000	0.714800	0.077800
H1831	H183	0.360400	0.893100	0.001600
H1841	H184	0.425300	0.875000	0.996100
H1851	H185	0.374600	0.852500	0.974900
H1861	H186	0.473300	0.676600	0.032600
H1871	H187	0.431100	0.660400	0.059500
H1881	H188	0.412600	0.650100	0.024900
H1891	H189	0.581300	0.788600	0.957900
H1901	H190	0.613400	0.779800	0.907000
H1911	H191	0.370900	0.674600	0.865800
H1921	H192	0.343500	0.685300	0.919800
H1931	H193	0.574400	0.766100	0.742100
H1941	H194	0.632100	0.628700	0.770600
H1951	H195	0.522800	0.813700	0.811900
H1961	H196	0.524500	0.826300	0.776200
H1971	H197	0.471700	0.794200	0.789900
H1981	H198	0.542300	0.610600	0.831700
H1991	H199	0.601800	0.590700	0.817900
H2001	H200	0.601900	0.632200	0.845200
H2011	H201	0.385800	0.736200	0.248400
H2021	H202	0.370400	0.892300	0.268000
H2031	H203	0.390900	0.684700	0.314000
H2041	H204	0.430200	0.676000	0.284800
H2051	H205	0.458400	0.696500	0.316000
H2061	H206	0.454900	0.902500	0.326100
H2071	H207	0.393100	0.926500	0.318200
H2081	H208	0.400400	0.886000	0.345800
H2091	H209	0.337800	0.749100	0.412200
H2101	H210	0.367000	0.736900	0.462600
H2111	H211	0.625100	0.817800	0.428500
H2121	H212	0.595500	0.819500	0.374700
H2131	H213	0.579100	0.783200	0.592200
H2141	H214	0.614300	0.642500	0.556000
H2151	H215	0.486600	0.832300	0.536900
H2161	H216	0.524600	0.847300	0.566100
H2171	H217	0.551100	0.852400	0.532800
H2181	H218	0.563500	0.612400	0.511600
H2191	H219	0.525700	0.652300	0.491600
H2201	H220	0.594200	0.652300	0.488800
H2211	H221	0.335100	0.621500	0.168200
H2221	H222	0.172700	0.614400	0.145600
H2231	H223	0.396600	0.544700	0.169600
H2241	H224	0.362100	0.495600	0.182900
H2251	H225	0.377700	0.497600	0.147600
H2261	H226	0.144000	0.488400	0.152500
H2271	H227	0.126000	0.536400	0.130900
H2281	H228	0.164500	0.489600	0.117900
H2291	H229	0.246400	0.368400	0.223400
H2301	H230	0.250100	0.275800	0.223400
H2311	H231	0.293900	0.278300	0.078500
H2321	H232	0.284100	0.369700	0.078600
H2331	H233	0.369100	0.110700	0.197700
H2341	H234	0.395400	0.123100	0.165000
H2351	H235	0.352900	0.164300	0.180600
H2361	H236	0.334900	0.025300	0.173100
H2371	H237	0.185800	0.157100	0.106200
H2381	H238	0.142300	0.110500	0.114100
H2391	H239	0.154100	0.156200	0.138300
H2401	H240	0.189700	0.031200	0.126400
C1931	C193	0.824140	0.690600	0.598840
C1941	C194	0.852790	0.706900	0.570390
C1951	C195	0.850250	0.670100	0.544550
C1961	C196	0.876580	0.683600	0.518380
C1971	C197	0.900200	0.733000	0.514300
C1981	C198	0.902790	0.767100	0.537190
C1991	C199	0.874380	0.757500	0.563680
C2001	C200	0.884970	0.636300	0.495570
C2011	C201	0.933030	0.826100	0.538730
C2021	C202	0.979880	0.733300	0.479680
C2031	C203	0.003680	0.741700	0.449180
C2041	C204	0.964930	0.764800	0.425930
C2051	C205	0.913800	0.778800	0.434500
C2061	C206	0.886600	0.770300	0.465600
C2071	C207	0.056810	0.726100	0.442610
C2081	C208	0.075970	0.731800	0.412270
C2091	C209	0.040980	0.753600	0.390680
C2101	C210	0.985640	0.771400	0.396840
C2111	C211	0.949670	0.792600	0.374570
C2121	C212	0.895840	0.810000	0.380640
C2131	C213	0.879900	0.802200	0.413500
C2141	C214	0.060590	0.758500	0.359090
C2151	C215	0.972220	0.800600	0.342420
C2161	C216	0.051450	0.788920	0.307250
C2171	C217	0.044480	0.749600	0.286180
C2181	C218	0.077160	0.758840	0.258060
C2191	C219	0.110140	0.800620	0.254340
C2201	C220	0.111480	0.840040	0.274680
C2211	C221	0.080090	0.833720	0.303390
C2221	C222	0.013210	0.699600	0.291510
C2231	C223	0.081670	0.879240	0.326670
C2241	C224	0.839280	0.677910	0.724880
C2251	C225	0.871330	0.684290	0.755130
C2261	C226	0.889260	0.735970	0.762660
C2271	C227	0.913030	0.745100	0.792930
C2281	C228	0.918100	0.700920	0.812200
C2291	C229	0.901620	0.651450	0.803120
C2301	C230	0.879670	0.642350	0.774370
C2311	C231	0.924110	0.802170	0.802810
C2321	C232	0.913570	0.604750	0.825370
C2331	C233	0.898910	0.727300	0.863010
C2341	C234	0.917410	0.732220	0.895810
C2351	C235	0.974020	0.719500	0.903620
C2361	C236	0.014490	0.705200	0.882290
C2371	C237	0.994250	0.699500	0.849050
C2381	C238	0.876950	0.746200	0.917850
C2391	C239	0.893850	0.753000	0.947550
C2401	C240	0.949030	0.745100	0.954930
C2411	C241	0.992600	0.726600	0.934500
C2421	C242	0.049470	0.715600	0.941970
C2431	C243	0.088410	0.694400	0.922010
C2441	C244	0.069570	0.691600	0.889970
C2451	C245	0.970340	0.752300	0.987840
C2461	C246	0.067340	0.719600	0.974040
C2471	C247	0.048980	0.763000	0.024380
C2481	C248	0.047000	0.724800	0.047700
C2491	C249	0.075420	0.740870	0.075820
C2501	C250	0.096770	0.790650	0.078670
C2511	C251	0.095070	0.824720	0.054270
C2521	C252	0.066040	0.812800	0.027340
C2531	C253	0.025410	0.668100	0.045710
C2541	C254	0.062070	0.852300	0.002770
C2551	C255	0.747670	0.816250	0.662770
C2561	C256	0.753690	0.873430	0.657590
C2571	C257	0.802830	0.898960	0.662130
C2581	C258	0.811950	0.954410	0.658750
C2591	C259	0.764560	0.980750	0.651760
C2601	C260	0.711310	0.959300	0.645510
C2611	C261	0.708320	0.902670	0.649220
C2621	C262	0.866640	0.981360	0.665240
C2631	C263	0.656400	0.988900	0.635800
C2641	C264	0.755570	0.064480	0.678970
C2651	C265	0.757300	0.122340	0.679000
C2661	C266	0.764710	0.149270	0.651110
C2671	C267	0.772890	0.121330	0.623390
C2681	C268	0.771950	0.063850	0.623050
C2691	C269	0.751710	0.149790	0.704810
C2701	C270	0.753500	0.205320	0.704900
C2711	C271	0.759900	0.230890	0.678600
C2721	C272	0.769020	0.204120	0.652320
C2731	C273	0.776370	0.232300	0.623670
C2741	C274	0.785170	0.203900	0.596870
C2751	C275	0.781060	0.148940	0.597260
C2761	C276	0.755390	0.288240	0.679190
C2771	C277	0.778080	0.289010	0.623780
C2781	C278	0.766320	0.372440	0.649520
C2791	C279	0.861540	0.373070	0.677840
C2801	C280	0.806380	0.454600	0.662780
C2811	C281	0.671340	0.365540	0.622440
C2821	C282	0.721060	0.451250	0.635960
C2831	C283	0.720370	0.396810	0.635870
C2841	C284	0.810280	0.400090	0.662580
C2851	C285	0.761080	0.479910	0.648080
C2861	C286	0.761530	0.538140	0.645630
C2871	C287	0.145990	0.805850	0.225990
C2881	C288	0.132430	0.805200	0.107030
C2891	C289	0.324140	0.809400	0.098840
C2901	C290	0.352790	0.793100	0.070390
C2911	C291	0.350250	0.829900	0.044550
C2921	C292	0.376580	0.816400	0.018380
C2931	C293	0.400200	0.767000	0.014300
C2941	C294	0.402790	0.732900	0.037190
C2951	C295	0.374380	0.742500	0.063680
C2961	C296	0.384970	0.863700	0.995570
C2971	C297	0.433030	0.673900	0.038730
C2981	C298	0.479880	0.766700	0.979680
C2991	C299	0.503680	0.758300	0.949180
C3001	C300	0.464930	0.735200	0.925930
C3011	C301	0.413800	0.721200	0.934500
C3021	C302	0.386600	0.729700	0.965600
C3031	C303	0.556810	0.773900	0.942610
C3041	C304	0.575970	0.768200	0.912270
C3051	C305	0.540980	0.746400	0.890680
C3061	C306	0.485640	0.728600	0.896840
C3071	C307	0.449670	0.707400	0.874570
C3081	C308	0.395840	0.690000	0.880640
C3091	C309	0.379900	0.697800	0.913500
C3101	C310	0.560590	0.741500	0.859090
C3111	C311	0.472220	0.699400	0.842420
C3121	C312	0.551450	0.711080	0.807250
C3131	C313	0.544480	0.750400	0.786180
C3141	C314	0.577160	0.741160	0.758060
C3151	C315	0.610140	0.699380	0.754340
C3161	C316	0.611480	0.659960	0.774680
C3171	C317	0.580090	0.666280	0.803390
C3181	C318	0.513210	0.800400	0.791510
C3191	C319	0.581670	0.620760	0.826670
C3201	C320	0.339280	0.822090	0.224880
C3211	C321	0.371330	0.815710	0.255130
C3221	C322	0.389260	0.764030	0.262660
C3231	C323	0.413030	0.754900	0.292930
C3241	C324	0.418100	0.799080	0.312200
C3251	C325	0.401620	0.848550	0.303120
C3261	C326	0.379670	0.857650	0.274370
C3271	C327	0.424110	0.697830	0.302810
C3281	C328	0.413570	0.895250	0.325370
C3291	C329	0.398910	0.772700	0.363010
C3301	C330	0.417410	0.767780	0.395810
C3311	C331	0.474020	0.780500	0.403620
C3321	C332	0.514490	0.794800	0.382290
C3331	C333	0.494250	0.800500	0.349050
C3341	C334	0.376950	0.753800	0.417850
C3351	C335	0.393850	0.747000	0.447550
C3361	C336	0.449030	0.754900	0.454930
C3371	C337	0.492600	0.773400	0.434500
C3381	C338	0.549470	0.784400	0.441970
C3391	C339	0.588410	0.805600	0.422010
C3401	C340	0.569570	0.808400	0.389970
C3411	C341	0.470340	0.747700	0.487840
C3421	C342	0.567340	0.780400	0.474040
C3431	C343	0.548980	0.737000	0.524380
C3441	C344	0.547000	0.775200	0.547700
C3451	C345	0.575420	0.759130	0.575820
C3461	C346	0.596770	0.709350	0.578670
C3471	C347	0.595070	0.675280	0.554270
C3481	C348	0.566040	0.687200	0.527340
C3491	C349	0.525410	0.831900	0.545710
C3501	C350	0.562070	0.647700	0.502770
C3511	C351	0.247670	0.683750	0.162770
C3521	C352	0.253690	0.626570	0.157590
C3531	C353	0.302830	0.601040	0.162130
C3541	C354	0.311950	0.545590	0.158750
C3551	C355	0.264560	0.519250	0.151760
C3561	C356	0.211310	0.540700	0.145510
C3571	C357	0.208320	0.597330	0.149220
C3581	C358	0.366640	0.518640	0.165240
C3591	C359	0.156400	0.511100	0.135800
C3601	C360	0.255570	0.435520	0.178970
C3611	C361	0.257300	0.377660	0.179000
C3621	C362	0.264710	0.350730	0.151110
C3631	C363	0.272890	0.378670	0.123390
C3641	C364	0.271950	0.436150	0.123050
C3651	C365	0.251710	0.350210	0.204810
C3661	C366	0.253500	0.294680	0.204900
C3671	C367	0.259900	0.269110	0.178600
C3681	C368	0.269020	0.295880	0.152320
C3691	C369	0.276370	0.267700	0.123670
C3701	C370	0.285170	0.296100	0.096870
C3711	C371	0.281060	0.351060	0.097260
C3721	C372	0.255390	0.211760	0.179190
C3731	C373	0.278080	0.210990	0.123780
C3741	C374	0.266320	0.127560	0.149520
C3751	C375	0.361540	0.126930	0.177840
C3761	C376	0.306380	0.045400	0.162780
C3771	C377	0.171340	0.134460	0.122440
C3781	C378	0.221060	0.048750	0.135960
C3791	C379	0.220370	0.103190	0.135870
C3801	C380	0.310280	0.099910	0.162580
C3811	C381	0.261080	0.020090	0.148080
C3821	C382	0.261530	0.961860	0.145630
C3831	C383	0.645990	0.694150	0.725990
C3841	C384	0.632430	0.694800	0.607030
N131	N13	0.925140	0.747900	0.485540
N141	N14	0.024730	0.780610	0.337330
N151	N15	0.938100	0.709700	0.842700
N161	N16	0.027640	0.742440	0.994740
N171	N17	0.765130	0.038420	0.651330
N181	N18	0.768500	0.314870	0.650780
N191	N19	0.425140	0.752100	0.985540
N201	N20	0.524730	0.719390	0.837330
N211	N21	0.438100	0.790300	0.342700
N221	N22	0.527640	0.757560	0.494740
N231	N23	0.265130	0.461580	0.151330
N241	N24	0.268500	0.185130	0.150780
O511	O51	0.741310	0.676070	0.664160
O521	O52	0.836580	0.720610	0.622910
O531	O53	0.792720	0.651600	0.599480
O541	O54	0.011100	0.715800	0.500400
O551	O55	0.835990	0.781000	0.471790
O561	O56	0.109830	0.742620	0.351330
O571	O57	0.942760	0.820600	0.323960
O581	O58	0.847150	0.713620	0.704870
O591	O59	0.811010	0.635870	0.721520
O601	O60	0.850180	0.738140	0.855480
O611	O61	0.028710	0.686210	0.830210
O621	O62	0.936350	0.768790	0.007750
O631	O63	0.113560	0.715600	0.982560
O641	O64	0.698670	0.795290	0.662470
O651	O65	0.794660	0.791460	0.665940
O661	O66	0.783210	0.037230	0.600710
O671	O67	0.743960	0.038940	0.702320
O681	O68	0.789390	0.315330	0.600870
O691	O69	0.744500	0.314790	0.701440
O701	O70	0.126700	0.777470	0.129850
O711	O71	0.165490	0.845470	0.104390
O721	O72	0.187460	0.837520	0.226940
O731	O73	0.130310	0.778750	0.202160
O741	O74	0.787430	0.564280	0.666920
O751	O75	0.732150	0.559150	0.625520
O761	O76	0.241310	0.823930	0.164160
O771	O77	0.336580	0.779390	0.122910
O781	O78	0.292720	0.848400	0.099480
O791	O79	0.511100	0.784200	0.000400
O801	O80	0.335990	0.719000	0.971790
O811	O81	0.609830	0.757380	0.851330
O821	O82	0.442760	0.679400	0.823960
O831	O83	0.347150	0.786380	0.204870
O841	O84	0.311010	0.864130	0.221520
O851	O85	0.350180	0.761860	0.355480
O861	O86	0.528710	0.813790	0.330210
O871	O87	0.436350	0.731210	0.507750
O881	O88	0.613560	0.784400	0.482560
O891	O89	0.198670	0.704710	0.162470
O901	O90	0.294660	0.708540	0.165940
O911	O91	0.283210	0.462770	0.100710
O921	O92	0.243960	0.461060	0.202320
O931	O93	0.289390	0.184670	0.100870
O941	O94	0.244500	0.185210	0.201440
O951	O95	0.626700	0.722530	0.629850
O961	O96	0.665490	0.654530	0.604390
O971	O97	0.687460	0.662480	0.726940
O981	O98	0.630310	0.721250	0.702160
O991	O99	0.287430	0.935720	0.166920
O1001	O100	0.232150	0.940850	0.125520
