data_XUCLIS_clean_PM
_symmetry_space_group_name_H-M	'P1'
_cell_length_a	28.566000
_cell_length_b	9.264000
_cell_length_c	26.188000
_cell_angle_alpha	90.000000
_cell_angle_beta	117.254000
_cell_angle_gamma	90.000000
_symmetry_Int_Tables_number 1

loop_
_symmetry_equiv_pos_as_xyz
'x,y,z'

loop_
_atom_site_label
_atom_site_type_symbol
_atom_site_fract_x
_atom_site_fract_y
_atom_site_fract_z
Zn11	Zn1	0.733030	0.138390	0.028230
O11	O1	0.710760	0.065700	0.946450
O21	O2	0.736690	0.228700	0.902750
O31	O3	0.307650	0.434300	0.550820
O41	O4	0.331710	0.269000	0.505590
N11	N1	0.704380	0.963800	0.051490
C11	C1	0.689720	0.024500	0.850300
C21	C2	0.701120	0.052500	0.805400
H11	H1	0.723900	0.127600	0.808500
C31	C3	0.655720	0.913100	0.844700
H21	H2	0.648100	0.892500	0.874900
C41	C4	0.679020	0.969800	0.755830
H31	H3	0.687500	0.989200	0.726200
C51	C5	0.632660	0.831500	0.795090
H41	H4	0.609200	0.758400	0.791900
C61	C6	0.644440	0.858400	0.749760
C71	C7	0.620850	0.770200	0.696000
C81	C8	0.647960	0.750800	0.663760
H51	H5	0.681400	0.790300	0.676500
C91	C9	0.625640	0.673100	0.612860
H61	H6	0.643600	0.663000	0.591000
C101	C10	0.571520	0.707400	0.676740
H71	H7	0.553300	0.719200	0.698100
C111	C11	0.576730	0.611100	0.594770
H81	H8	0.562100	0.557700	0.561000
C121	C12	0.548720	0.627000	0.626260
C131	C13	0.495520	0.563100	0.605030
C141	C14	0.482530	0.436300	0.572790
H91	H9	0.507900	0.390500	0.565600
C151	C15	0.455970	0.627300	0.614800
H101	H10	0.463500	0.711500	0.636400
C161	C16	0.432260	0.377000	0.551190
H111	H11	0.424400	0.292200	0.529900
C171	C17	0.406230	0.568700	0.593060
H121	H12	0.380600	0.614000	0.599900
C181	C18	0.394210	0.442700	0.561140
C191	C19	0.341040	0.375900	0.539070
C201	C20	0.723220	0.831500	0.050200
H131	H13	0.751800	0.822900	0.042400
C211	C21	0.663290	0.974400	0.062140
H141	H14	0.649800	0.065800	0.062200
C221	C22	0.701600	0.709400	0.059900
H151	H15	0.715500	0.619100	0.059000
C231	C23	0.658900	0.722000	0.071000
H161	H16	0.643400	0.639900	0.077000
C241	C24	0.639500	0.857100	0.073090
C251	C25	0.713260	0.114800	0.903950
C261	C26	0.593500	0.881300	0.085700
H171	H17	0.591600	0.845300	0.117800
C271	C27	0.552690	0.967800	0.041370
H181	H18	0.569200	0.055200	0.036000
C281	C28	0.527410	0.892900	0.986600
H191	H19	0.510600	0.805700	0.990700
H201	H20	0.553700	0.865300	0.974700
C291	C29	0.486940	0.988400	0.941670
H211	H21	0.504000	0.073300	0.936200
H221	H22	0.470200	0.936900	0.905400
Zn21	Zn2	0.233030	0.638390	0.028230
O51	O5	0.210760	0.565700	0.946450
O61	O6	0.236690	0.728700	0.902750
O71	O7	0.807650	0.934300	0.550820
O81	O8	0.831710	0.769000	0.505590
N21	N2	0.204380	0.463800	0.051490
C301	C30	0.189720	0.524500	0.850300
C311	C31	0.201120	0.552500	0.805400
H231	H23	0.223900	0.627600	0.808500
C321	C32	0.155720	0.413100	0.844700
H241	H24	0.148100	0.392500	0.874900
C331	C33	0.179020	0.469800	0.755830
H251	H25	0.187500	0.489200	0.726200
C341	C34	0.132660	0.331500	0.795090
H261	H26	0.109200	0.258400	0.791900
C351	C35	0.144440	0.358400	0.749760
C361	C36	0.120850	0.270200	0.696000
C371	C37	0.147960	0.250800	0.663760
H271	H27	0.181400	0.290300	0.676500
C381	C38	0.125640	0.173100	0.612860
H281	H28	0.143600	0.163000	0.591000
C391	C39	0.071520	0.207400	0.676740
H291	H29	0.053300	0.219200	0.698100
C401	C40	0.076730	0.111100	0.594770
H301	H30	0.062100	0.057700	0.561000
C411	C41	0.048720	0.127000	0.626260
C421	C42	0.995520	0.063100	0.605030
C431	C43	0.982530	0.936300	0.572790
H311	H31	0.007900	0.890500	0.565600
C441	C44	0.955970	0.127300	0.614800
H321	H32	0.963500	0.211500	0.636400
C451	C45	0.932260	0.877000	0.551190
H331	H33	0.924400	0.792200	0.529900
C461	C46	0.906230	0.068700	0.593060
H341	H34	0.880600	0.114000	0.599900
C471	C47	0.894210	0.942700	0.561140
C481	C48	0.841040	0.875900	0.539070
C491	C49	0.223220	0.331500	0.050200
H351	H35	0.251800	0.322900	0.042400
C501	C50	0.163290	0.474400	0.062140
H361	H36	0.149800	0.565800	0.062200
C511	C51	0.201600	0.209400	0.059900
H371	H37	0.215500	0.119100	0.059000
C521	C52	0.158900	0.222000	0.071000
H381	H38	0.143400	0.139900	0.077000
C531	C53	0.139500	0.357100	0.073090
C541	C54	0.213260	0.614800	0.903950
C551	C55	0.093500	0.381300	0.085700
H391	H39	0.091600	0.345300	0.117800
C561	C56	0.052690	0.467800	0.041370
H401	H40	0.069200	0.555200	0.036000
C571	C57	0.027410	0.392900	0.986600
H411	H41	0.010600	0.305700	0.990700
H421	H42	0.053700	0.365300	0.974700
C581	C58	0.986940	0.488400	0.941670
H431	H43	0.004000	0.573300	0.936200
H441	H44	0.970200	0.436900	0.905400
Zn31	Zn3	0.266970	0.138390	0.471770
O91	O9	0.289240	0.065700	0.553550
O101	O10	0.263310	0.228700	0.597250
O111	O11	0.692350	0.434300	0.949180
O121	O12	0.668290	0.269000	0.994410
N31	N3	0.295620	0.963800	0.448510
C591	C59	0.310280	0.024500	0.649700
C601	C60	0.298880	0.052500	0.694600
H451	H45	0.276100	0.127600	0.691500
C611	C61	0.344280	0.913100	0.655300
H461	H46	0.351900	0.892500	0.625100
C621	C62	0.320980	0.969800	0.744170
H471	H47	0.312500	0.989200	0.773800
C631	C63	0.367340	0.831500	0.704910
H481	H48	0.390800	0.758400	0.708100
C641	C64	0.355560	0.858400	0.750240
C651	C65	0.379150	0.770200	0.804000
C661	C66	0.352040	0.750800	0.836240
H491	H49	0.318600	0.790300	0.823500
C671	C67	0.374360	0.673100	0.887140
H501	H50	0.356400	0.663000	0.909000
C681	C68	0.428480	0.707400	0.823260
H511	H51	0.446700	0.719200	0.801900
C691	C69	0.423270	0.611100	0.905230
H521	H52	0.437900	0.557700	0.939000
C701	C70	0.451280	0.627000	0.873740
C711	C71	0.504480	0.563100	0.894970
C721	C72	0.517470	0.436300	0.927210
H531	H53	0.492100	0.390500	0.934400
C731	C73	0.544030	0.627300	0.885200
H541	H54	0.536500	0.711500	0.863600
C741	C74	0.567740	0.377000	0.948810
H551	H55	0.575600	0.292200	0.970100
C751	C75	0.593770	0.568700	0.906940
H561	H56	0.619400	0.614000	0.900100
C761	C76	0.605790	0.442700	0.938860
C771	C77	0.658960	0.375900	0.960930
C781	C78	0.276780	0.831500	0.449800
H571	H57	0.248200	0.822900	0.457600
C791	C79	0.336710	0.974400	0.437860
H581	H58	0.350200	0.065800	0.437800
C801	C80	0.298400	0.709400	0.440100
H591	H59	0.284500	0.619100	0.441000
C811	C81	0.341100	0.722000	0.429000
H601	H60	0.356600	0.639900	0.423000
C821	C82	0.360500	0.857100	0.426910
C831	C83	0.286740	0.114800	0.596050
C841	C84	0.406500	0.881300	0.414300
H611	H61	0.408400	0.845300	0.382200
C851	C85	0.447310	0.967800	0.458630
H621	H62	0.430800	0.055200	0.464000
C861	C86	0.472590	0.892900	0.513400
H631	H63	0.489400	0.805700	0.509300
H641	H64	0.446300	0.865300	0.525300
C871	C87	0.513060	0.988400	0.558330
H651	H65	0.496000	0.073300	0.563800
H661	H66	0.529800	0.936900	0.594600
Zn41	Zn4	0.766980	0.638390	0.471770
O131	O13	0.789240	0.565700	0.553550
O141	O14	0.763310	0.728700	0.597250
O151	O15	0.192350	0.934300	0.949180
O161	O16	0.168290	0.769000	0.994410
N41	N4	0.795620	0.463800	0.448510
C881	C88	0.810280	0.524500	0.649700
C891	C89	0.798880	0.552500	0.694600
H671	H67	0.776100	0.627600	0.691500
C901	C90	0.844280	0.413100	0.655300
H681	H68	0.851900	0.392500	0.625100
C911	C91	0.820980	0.469800	0.744170
H691	H69	0.812500	0.489200	0.773800
C921	C92	0.867340	0.331500	0.704910
H701	H70	0.890800	0.258400	0.708100
C931	C93	0.855560	0.358400	0.750240
C941	C94	0.879150	0.270200	0.804000
C951	C95	0.852040	0.250800	0.836240
H711	H71	0.818600	0.290300	0.823500
C961	C96	0.874360	0.173100	0.887140
H721	H72	0.856400	0.163000	0.909000
C971	C97	0.928480	0.207400	0.823260
H731	H73	0.946700	0.219200	0.801900
C981	C98	0.923270	0.111100	0.905230
H741	H74	0.937900	0.057700	0.939000
C991	C99	0.951280	0.127000	0.873740
C1001	C100	0.004480	0.063100	0.894970
C1011	C101	0.017470	0.936300	0.927210
H751	H75	0.992100	0.890500	0.934400
C1021	C102	0.044030	0.127300	0.885200
H761	H76	0.036500	0.211500	0.863600
C1031	C103	0.067740	0.877000	0.948810
H771	H77	0.075600	0.792200	0.970100
C1041	C104	0.093770	0.068700	0.906940
H781	H78	0.119400	0.114000	0.900100
C1051	C105	0.105790	0.942700	0.938860
C1061	C106	0.158960	0.875900	0.960930
C1071	C107	0.776780	0.331500	0.449800
H791	H79	0.748200	0.322900	0.457600
C1081	C108	0.836710	0.474400	0.437860
H801	H80	0.850200	0.565800	0.437800
C1091	C109	0.798400	0.209400	0.440100
H811	H81	0.784500	0.119100	0.441000
C1101	C110	0.841100	0.222000	0.429000
H821	H82	0.856600	0.139900	0.423000
C1111	C111	0.860500	0.357100	0.426910
C1121	C112	0.786740	0.614800	0.596050
C1131	C113	0.906500	0.381300	0.414300
H831	H83	0.908400	0.345300	0.382200
C1141	C114	0.947310	0.467800	0.458630
H841	H84	0.930800	0.555200	0.464000
C1151	C115	0.972590	0.392900	0.513400
H851	H85	0.989400	0.305700	0.509300
H861	H86	0.946300	0.365300	0.525300
C1161	C116	0.013060	0.488400	0.558330
H871	H87	0.996000	0.573300	0.563800
H881	H88	0.029800	0.436900	0.594600
Zn51	Zn5	0.266970	0.861610	0.971770
O171	O17	0.289240	0.934300	0.053550
O181	O18	0.263310	0.771300	0.097250
O191	O19	0.692350	0.565700	0.449180
O201	O20	0.668290	0.731000	0.494410
N51	N5	0.295620	0.036200	0.948510
C1171	C117	0.310280	0.975500	0.149700
C1181	C118	0.298880	0.947500	0.194600
H891	H89	0.276100	0.872400	0.191500
C1191	C119	0.344280	0.086900	0.155300
H901	H90	0.351900	0.107500	0.125100
C1201	C120	0.320980	0.030200	0.244170
H911	H91	0.312500	0.010800	0.273800
C1211	C121	0.367340	0.168500	0.204910
H921	H92	0.390800	0.241600	0.208100
C1221	C122	0.355560	0.141600	0.250240
C1231	C123	0.379150	0.229800	0.304000
C1241	C124	0.352040	0.249200	0.336240
H931	H93	0.318600	0.209700	0.323500
C1251	C125	0.374360	0.326900	0.387140
H941	H94	0.356400	0.337000	0.409000
C1261	C126	0.428480	0.292600	0.323260
H951	H95	0.446700	0.280800	0.301900
C1271	C127	0.423270	0.388900	0.405230
H961	H96	0.437900	0.442300	0.439000
C1281	C128	0.451280	0.373000	0.373740
C1291	C129	0.504480	0.436900	0.394970
C1301	C130	0.517470	0.563700	0.427210
H971	H97	0.492100	0.609500	0.434400
C1311	C131	0.544030	0.372700	0.385200
H981	H98	0.536500	0.288500	0.363600
C1321	C132	0.567740	0.623000	0.448810
H991	H99	0.575600	0.707800	0.470100
C1331	C133	0.593770	0.431300	0.406940
H1001	H100	0.619400	0.386000	0.400100
C1341	C134	0.605790	0.557300	0.438860
C1351	C135	0.658960	0.624100	0.460930
C1361	C136	0.276780	0.168500	0.949800
H1011	H101	0.248200	0.177100	0.957600
C1371	C137	0.336710	0.025600	0.937860
H1021	H102	0.350200	0.934200	0.937800
C1381	C138	0.298400	0.290600	0.940100
H1031	H103	0.284500	0.380900	0.941000
C1391	C139	0.341100	0.278000	0.929000
H1041	H104	0.356600	0.360100	0.923000
C1401	C140	0.360500	0.142900	0.926910
C1411	C141	0.286740	0.885200	0.096050
C1421	C142	0.406500	0.118700	0.914300
H1051	H105	0.408400	0.154700	0.882200
C1431	C143	0.447310	0.032200	0.958630
H1061	H106	0.430800	0.944800	0.964000
C1441	C144	0.472590	0.107100	0.013400
H1071	H107	0.489400	0.194300	0.009300
H1081	H108	0.446300	0.134700	0.025300
C1451	C145	0.513060	0.011600	0.058330
H1091	H109	0.496000	0.926700	0.063800
H1101	H110	0.529800	0.063100	0.094600
Zn61	Zn6	0.766980	0.361610	0.971770
O211	O21	0.789240	0.434300	0.053550
O221	O22	0.763310	0.271300	0.097250
O231	O23	0.192350	0.065700	0.449180
O241	O24	0.168290	0.231000	0.494410
N61	N6	0.795620	0.536200	0.948510
C1461	C146	0.810280	0.475500	0.149700
C1471	C147	0.798880	0.447500	0.194600
H1111	H111	0.776100	0.372400	0.191500
C1481	C148	0.844280	0.586900	0.155300
H1121	H112	0.851900	0.607500	0.125100
C1491	C149	0.820980	0.530200	0.244170
H1131	H113	0.812500	0.510800	0.273800
C1501	C150	0.867340	0.668500	0.204910
H1141	H114	0.890800	0.741600	0.208100
C1511	C151	0.855560	0.641600	0.250240
C1521	C152	0.879150	0.729800	0.304000
C1531	C153	0.852040	0.749200	0.336240
H1151	H115	0.818600	0.709700	0.323500
C1541	C154	0.874360	0.826900	0.387140
H1161	H116	0.856400	0.837000	0.409000
C1551	C155	0.928480	0.792600	0.323260
H1171	H117	0.946700	0.780800	0.301900
C1561	C156	0.923270	0.888900	0.405230
H1181	H118	0.937900	0.942300	0.439000
C1571	C157	0.951280	0.873000	0.373740
C1581	C158	0.004480	0.936900	0.394970
C1591	C159	0.017470	0.063700	0.427210
H1191	H119	0.992100	0.109500	0.434400
C1601	C160	0.044030	0.872700	0.385200
H1201	H120	0.036500	0.788500	0.363600
C1611	C161	0.067740	0.123000	0.448810
H1211	H121	0.075600	0.207800	0.470100
C1621	C162	0.093770	0.931300	0.406940
H1221	H122	0.119400	0.886000	0.400100
C1631	C163	0.105790	0.057300	0.438860
C1641	C164	0.158960	0.124100	0.460930
C1651	C165	0.776780	0.668500	0.949800
H1231	H123	0.748200	0.677100	0.957600
C1661	C166	0.836710	0.525600	0.937860
H1241	H124	0.850200	0.434200	0.937800
C1671	C167	0.798400	0.790600	0.940100
H1251	H125	0.784500	0.880900	0.941000
C1681	C168	0.841100	0.778000	0.929000
H1261	H126	0.856600	0.860100	0.923000
C1691	C169	0.860500	0.642900	0.926910
C1701	C170	0.786740	0.385200	0.096050
C1711	C171	0.906500	0.618700	0.914300
H1271	H127	0.908400	0.654700	0.882200
C1721	C172	0.947310	0.532200	0.958630
H1281	H128	0.930800	0.444800	0.964000
C1731	C173	0.972590	0.607100	0.013400
H1291	H129	0.989400	0.694300	0.009300
H1301	H130	0.946300	0.634700	0.025300
C1741	C174	0.013060	0.511600	0.058330
H1311	H131	0.996000	0.426700	0.063800
H1321	H132	0.029800	0.563100	0.094600
Zn71	Zn7	0.733030	0.861610	0.528230
O251	O25	0.710760	0.934300	0.446450
O261	O26	0.736690	0.771300	0.402750
O271	O27	0.307650	0.565700	0.050820
O281	O28	0.331710	0.731000	0.005590
N71	N7	0.704380	0.036200	0.551490
C1751	C175	0.689720	0.975500	0.350300
C1761	C176	0.701120	0.947500	0.305400
H1331	H133	0.723900	0.872400	0.308500
C1771	C177	0.655720	0.086900	0.344700
H1341	H134	0.648100	0.107500	0.374900
C1781	C178	0.679020	0.030200	0.255830
H1351	H135	0.687500	0.010800	0.226200
C1791	C179	0.632660	0.168500	0.295090
H1361	H136	0.609200	0.241600	0.291900
C1801	C180	0.644440	0.141600	0.249760
C1811	C181	0.620850	0.229800	0.196000
C1821	C182	0.647960	0.249200	0.163760
H1371	H137	0.681400	0.209700	0.176500
C1831	C183	0.625640	0.326900	0.112860
H1381	H138	0.643600	0.337000	0.091000
C1841	C184	0.571520	0.292600	0.176740
H1391	H139	0.553300	0.280800	0.198100
C1851	C185	0.576730	0.388900	0.094770
H1401	H140	0.562100	0.442300	0.061000
C1861	C186	0.548720	0.373000	0.126260
C1871	C187	0.495520	0.436900	0.105030
C1881	C188	0.482530	0.563700	0.072790
H1411	H141	0.507900	0.609500	0.065600
C1891	C189	0.455970	0.372700	0.114800
H1421	H142	0.463500	0.288500	0.136400
C1901	C190	0.432260	0.623000	0.051190
H1431	H143	0.424400	0.707800	0.029900
C1911	C191	0.406230	0.431300	0.093060
H1441	H144	0.380600	0.386000	0.099900
C1921	C192	0.394210	0.557300	0.061140
C1931	C193	0.341040	0.624100	0.039070
C1941	C194	0.723220	0.168500	0.550200
H1451	H145	0.751800	0.177100	0.542400
C1951	C195	0.663290	0.025600	0.562140
H1461	H146	0.649800	0.934200	0.562200
C1961	C196	0.701600	0.290600	0.559900
H1471	H147	0.715500	0.380900	0.559000
C1971	C197	0.658900	0.278000	0.571000
H1481	H148	0.643400	0.360100	0.577000
C1981	C198	0.639500	0.142900	0.573090
C1991	C199	0.713260	0.885200	0.403950
C2001	C200	0.593500	0.118700	0.585700
H1491	H149	0.591600	0.154700	0.617800
C2011	C201	0.552690	0.032200	0.541370
H1501	H150	0.569200	0.944800	0.536000
C2021	C202	0.527410	0.107100	0.486600
H1511	H151	0.510600	0.194300	0.490700
H1521	H152	0.553700	0.134700	0.474700
C2031	C203	0.486940	0.011600	0.441670
H1531	H153	0.504000	0.926700	0.436200
H1541	H154	0.470200	0.063100	0.405400
Zn81	Zn8	0.233030	0.361610	0.528230
O291	O29	0.210760	0.434300	0.446450
O301	O30	0.236690	0.271300	0.402750
O311	O31	0.807650	0.065700	0.050820
O321	O32	0.831710	0.231000	0.005590
N81	N8	0.204380	0.536200	0.551490
C2041	C204	0.189720	0.475500	0.350300
C2051	C205	0.201120	0.447500	0.305400
H1551	H155	0.223900	0.372400	0.308500
C2061	C206	0.155720	0.586900	0.344700
H1561	H156	0.148100	0.607500	0.374900
C2071	C207	0.179020	0.530200	0.255830
H1571	H157	0.187500	0.510800	0.226200
C2081	C208	0.132660	0.668500	0.295090
H1581	H158	0.109200	0.741600	0.291900
C2091	C209	0.144440	0.641600	0.249760
C2101	C210	0.120850	0.729800	0.196000
C2111	C211	0.147960	0.749200	0.163760
H1591	H159	0.181400	0.709700	0.176500
C2121	C212	0.125640	0.826900	0.112860
H1601	H160	0.143600	0.837000	0.091000
C2131	C213	0.071520	0.792600	0.176740
H1611	H161	0.053300	0.780800	0.198100
C2141	C214	0.076730	0.888900	0.094770
H1621	H162	0.062100	0.942300	0.061000
C2151	C215	0.048720	0.873000	0.126260
C2161	C216	0.995520	0.936900	0.105030
C2171	C217	0.982530	0.063700	0.072790
H1631	H163	0.007900	0.109500	0.065600
C2181	C218	0.955970	0.872700	0.114800
H1641	H164	0.963500	0.788500	0.136400
C2191	C219	0.932260	0.123000	0.051190
H1651	H165	0.924400	0.207800	0.029900
C2201	C220	0.906230	0.931300	0.093060
H1661	H166	0.880600	0.886000	0.099900
C2211	C221	0.894210	0.057300	0.061140
C2221	C222	0.841040	0.124100	0.039070
C2231	C223	0.223220	0.668500	0.550200
H1671	H167	0.251800	0.677100	0.542400
C2241	C224	0.163290	0.525600	0.562140
H1681	H168	0.149800	0.434200	0.562200
C2251	C225	0.201600	0.790600	0.559900
H1691	H169	0.215500	0.880900	0.559000
C2261	C226	0.158900	0.778000	0.571000
H1701	H170	0.143400	0.860100	0.577000
C2271	C227	0.139500	0.642900	0.573090
C2281	C228	0.213260	0.385200	0.403950
C2291	C229	0.093500	0.618700	0.585700
H1711	H171	0.091600	0.654700	0.617800
C2301	C230	0.052690	0.532200	0.541370
H1721	H172	0.069200	0.444800	0.536000
C2311	C231	0.027410	0.607100	0.486600
H1731	H173	0.010600	0.694300	0.490700
H1741	H174	0.053700	0.634700	0.474700
C2321	C232	0.986940	0.511600	0.441670
H1751	H175	0.004000	0.426700	0.436200
H1761	H176	0.970200	0.563100	0.405400
