data_XUCSOF_clean_PM
_symmetry_space_group_name_H-M	'P1'
_cell_length_a	12.002000
_cell_length_b	15.372000
_cell_length_c	18.018000
_cell_angle_alpha	90.150000
_cell_angle_beta	96.901000
_cell_angle_gamma	92.013000
_symmetry_Int_Tables_number 1

loop_
_symmetry_equiv_pos_as_xyz
'x,y,z'

loop_
_atom_site_label
_atom_site_type_symbol
_atom_site_fract_x
_atom_site_fract_y
_atom_site_fract_z
Y11	Y1	0.306640	0.417350	0.772430
Y21	Y2	0.191660	0.212790	0.467250
Y31	Y3	0.704130	0.311850	0.468550
Y41	Y4	0.401600	0.228090	0.070690
Y51	Y5	0.901270	0.265270	0.069990
Y61	Y6	0.792830	0.088370	0.763120
N11	N1	0.451500	0.296400	0.760100
C11	C1	0.500500	0.265700	0.823800
C21	C2	0.594800	0.223400	0.830100
H11	H1	0.625400	0.205800	0.877300
N21	N2	0.648900	0.204600	0.770700
C31	C3	0.608900	0.240100	0.704700
C41	C4	0.505300	0.285000	0.700500
H21	H2	0.474900	0.306900	0.654700
C51	C5	0.674600	0.229100	0.638600
O11	O1	0.744900	0.173700	0.648700
O21	O2	0.653100	0.280400	0.586400
C61	C6	0.430600	0.285500	0.888900
O31	O3	0.347600	0.329800	0.876500
O41	O4	0.469700	0.252000	0.952800
N31	N3	0.144800	0.304500	0.771300
C71	C7	0.098200	0.275400	0.705400
C81	C8	0.991000	0.236600	0.696400
H31	H3	0.958000	0.221600	0.648500
N41	N4	0.933400	0.220100	0.754700
C91	C9	0.985300	0.247300	0.823400
C101	C10	0.088300	0.287800	0.828400
H41	H4	0.121500	0.305200	0.875600
C111	C11	0.169300	0.286000	0.643500
O51	O5	0.254100	0.339500	0.657400
O61	O6	0.141900	0.242000	0.584900
C121	C12	0.921300	0.221800	0.887700
O71	O7	0.842800	0.167500	0.874700
O81	O8	0.958600	0.254000	0.947700
N51	N5	0.065500	0.076900	0.492900
C131	C13	0.057300	0.014600	0.441800
C141	C14	0.991900	0.938300	0.449400
H51	H5	0.988500	0.896000	0.412000
C151	C15	0.123100	0.027900	0.377600
O91	O9	0.168800	0.100000	0.374900
O101	O10	0.125100	0.965500	0.334700
N61	N6	0.116800	0.278200	0.341100
C161	C16	0.008100	0.294600	0.332400
C171	C17	0.955700	0.317300	0.261600
H61	H6	0.884000	0.339200	0.258200
N71	N7	0.002800	0.309400	0.200000
C181	C18	0.108600	0.293600	0.207000
C191	C19	0.169000	0.281100	0.276900
H71	H7	0.246200	0.274500	0.280400
C201	C20	0.952600	0.282200	0.400900
O111	O11	0.008600	0.250700	0.456900
O121	O12	0.849600	0.305800	0.393900
C211	C21	0.165200	0.270600	0.139600
O131	O13	0.098900	0.263400	0.080700
O141	O14	0.268200	0.258600	0.147900
N81	N8	0.621600	0.226500	0.346700
C221	C22	0.510200	0.214400	0.336300
C231	C23	0.450700	0.191300	0.268000
H81	H8	0.375900	0.172100	0.265400
N91	N9	0.500800	0.196800	0.206000
C241	C24	0.614400	0.206900	0.216100
C251	C25	0.672500	0.217800	0.284500
H91	H9	0.750600	0.219400	0.288900
C261	C26	0.450200	0.232500	0.404700
O151	O15	0.514300	0.267600	0.459600
O161	O16	0.348200	0.218700	0.400100
C271	C27	0.666000	0.223000	0.143400
O171	O17	0.600800	0.233400	0.084600
O181	O18	0.769500	0.230200	0.151200
N101	N10	0.578400	0.434600	0.495500
C281	C28	0.546400	0.488400	0.436900
C291	C29	0.470500	0.550600	0.442800
H101	H10	0.451200	0.585300	0.401300
C301	C30	0.603300	0.471000	0.368700
O191	O19	0.652000	0.403200	0.364900
O201	O20	0.596500	0.530600	0.322200
N111	N11	0.470700	0.081000	0.024100
C311	C31	0.427000	0.009600	0.050100
C321	C32	0.456800	0.927800	0.024900
H111	H11	0.424200	0.877900	0.043500
C331	C33	0.354700	0.020500	0.110000
O211	O21	0.330800	0.097100	0.123000
O221	O22	0.317100	0.954700	0.143100
N121	N12	0.975400	0.417800	0.029000
C341	C34	0.924100	0.488400	0.048500
C351	C35	0.947000	0.566400	0.017700
H121	H12	0.905400	0.613100	0.030000
C361	C36	0.839400	0.474600	0.102800
O231	O23	0.822400	0.398300	0.120600
O241	O24	0.795200	0.539200	0.126900
O251	O25	0.866000	0.351300	0.560600
N131	N13	0.878400	0.432000	0.541900
O261	O26	0.807300	0.455400	0.487700
O271	O27	0.953200	0.480600	0.573800
Y71	Y7	0.693360	0.582650	0.227570
Y81	Y8	0.808340	0.787210	0.532750
Y91	Y9	0.295870	0.688150	0.531450
Y101	Y10	0.598400	0.771910	0.929310
Y111	Y11	0.098730	0.734730	0.930010
Y121	Y12	0.207170	0.911630	0.236880
N141	N14	0.548500	0.703600	0.239900
C371	C37	0.499500	0.734300	0.176200
C381	C38	0.405200	0.776600	0.169900
H131	H13	0.374600	0.794200	0.122700
N151	N15	0.351100	0.795400	0.229300
C391	C39	0.391100	0.759900	0.295300
C401	C40	0.494700	0.715000	0.299500
H141	H14	0.525100	0.693100	0.345300
C411	C41	0.325400	0.770900	0.361400
O281	O28	0.255100	0.826300	0.351300
O291	O29	0.346900	0.719600	0.413600
C421	C42	0.569400	0.714500	0.111100
O301	O30	0.652400	0.670200	0.123500
O311	O31	0.530300	0.748000	0.047200
N161	N16	0.855200	0.695500	0.228700
C431	C43	0.901800	0.724600	0.294600
C441	C44	0.009000	0.763400	0.303600
H151	H15	0.042000	0.778400	0.351500
N171	N17	0.066600	0.779900	0.245300
C451	C45	0.014700	0.752700	0.176600
C461	C46	0.911700	0.712200	0.171600
H161	H16	0.878500	0.694800	0.124400
C471	C47	0.830700	0.714000	0.356500
O321	O32	0.745900	0.660500	0.342600
O331	O33	0.858100	0.758000	0.415100
C481	C48	0.078700	0.778200	0.112300
O341	O34	0.157200	0.832500	0.125300
O351	O35	0.041400	0.746000	0.052300
N181	N18	0.934500	0.923100	0.507100
C491	C49	0.942700	0.985400	0.558200
C501	C50	0.008100	0.061700	0.550600
H171	H17	0.011500	0.104000	0.588000
C511	C51	0.876900	0.972100	0.622400
O361	O36	0.831200	0.900000	0.625100
O371	O37	0.874900	0.034500	0.665300
N191	N19	0.883200	0.721800	0.658900
C521	C52	0.991900	0.705400	0.667600
C531	C53	0.044300	0.682700	0.738400
H181	H18	0.116000	0.660800	0.741800
N201	N20	0.997200	0.690600	0.800000
C541	C54	0.891400	0.706400	0.793000
C551	C55	0.831000	0.718900	0.723100
H191	H19	0.753800	0.725500	0.719600
C561	C56	0.047400	0.717800	0.599100
O381	O38	0.991400	0.749300	0.543100
O391	O39	0.150400	0.694200	0.606100
C571	C57	0.834800	0.729400	0.860400
O401	O40	0.901100	0.736600	0.919300
O411	O41	0.731800	0.741400	0.852100
N211	N21	0.378400	0.773500	0.653300
C581	C58	0.489800	0.785600	0.663700
C591	C59	0.549300	0.808700	0.732000
H201	H20	0.624100	0.827900	0.734600
N221	N22	0.499200	0.803200	0.794000
C601	C60	0.385600	0.793100	0.783900
C611	C61	0.327500	0.782200	0.715500
H211	H21	0.249400	0.780600	0.711100
C621	C62	0.549800	0.767500	0.595300
O421	O42	0.485700	0.732400	0.540400
O431	O43	0.651800	0.781300	0.599900
C631	C63	0.334000	0.777000	0.856600
O441	O44	0.399200	0.766600	0.915400
O451	O45	0.230500	0.769800	0.848800
N231	N23	0.421600	0.565400	0.504500
C641	C64	0.453600	0.511600	0.563100
C651	C65	0.529500	0.449400	0.557200
H221	H22	0.548800	0.414700	0.598700
C661	C66	0.396700	0.529000	0.631300
O461	O46	0.348000	0.596800	0.635100
O471	O47	0.403500	0.469400	0.677800
N241	N24	0.529300	0.919000	0.975900
C671	C67	0.573000	0.990400	0.949900
C681	C68	0.543200	0.072200	0.975100
H231	H23	0.575800	0.122100	0.956500
C691	C69	0.645300	0.979500	0.890000
O481	O48	0.669200	0.902900	0.877000
O491	O49	0.682900	0.045300	0.856900
N251	N25	0.024600	0.582200	0.971000
C701	C70	0.075900	0.511600	0.951500
C711	C71	0.053000	0.433600	0.982300
H241	H24	0.094600	0.386900	0.970000
C721	C72	0.160600	0.525400	0.897200
O501	O50	0.177600	0.601700	0.879400
O511	O51	0.204800	0.460800	0.873100
O521	O52	0.134000	0.648700	0.439400
N261	N26	0.121600	0.568000	0.458100
O531	O53	0.192700	0.544600	0.512300
O541	O54	0.046800	0.519400	0.426200
