data_XUDPIX_clean_PM
_symmetry_space_group_name_H-M	'P1'
_cell_length_a	37.441000
_cell_length_b	37.449000
_cell_length_c	27.250000
_cell_angle_alpha	90.000000
_cell_angle_beta	90.000000
_cell_angle_gamma	90.000000
_symmetry_Int_Tables_number 1

loop_
_symmetry_equiv_pos_as_xyz
'x,y,z'

loop_
_atom_site_label
_atom_site_type_symbol
_atom_site_fract_x
_atom_site_fract_y
_atom_site_fract_z
Cu11	Cu1	0.001020	0.003350	0.149580
Cu21	Cu2	0.990890	0.997950	0.246130
Cu31	Cu3	0.238560	0.283670	0.039990
N11	N1	0.093410	0.301350	0.341800
N21	N2	0.091820	0.196750	0.236000
N31	N3	0.194450	0.908880	0.224600
O11	O1	0.025200	0.047600	0.170540
O21	O2	0.044970	0.976010	0.164700
O31	O3	0.266160	0.794920	0.081200
O41	O4	0.209910	0.775510	0.081700
O51	O5	0.038890	0.975700	0.245780
O61	O6	0.014570	0.045530	0.251010
O71	O7	0.445500	0.978110	0.271840
O81	O8	0.232720	0.794430	0.480200
O91	O9	0.288870	0.776460	0.478900
O101	O10	0.455330	0.971110	0.352040
O111	O11	0.204980	0.266650	0.089100
O121	O12	0.225130	0.210200	0.090300
O131	O13	0.025280	0.457070	0.356800
O141	O14	0.029900	0.451430	0.275130
O151	O15	0.224720	0.291590	0.490500
O161	O16	0.205820	0.234820	0.490200
C11	C1	0.073910	0.274660	0.314700
C21	C2	0.091560	0.248680	0.288400
H11	H1	0.116400	0.248700	0.287300
C31	C3	0.072970	0.223080	0.263900
C41	C4	0.075970	0.162520	0.229000
C51	C5	0.073100	0.146300	0.184300
H21	H2	0.082200	0.157900	0.156800
C61	C6	0.057400	0.113550	0.178400
H31	H3	0.055600	0.103500	0.147300
C71	C7	0.043990	0.095130	0.218900
C81	C8	0.027140	0.060060	0.212900
C91	C9	0.055580	0.969240	0.207100
C101	C10	0.090800	0.951640	0.212500
C111	C11	0.110100	0.942300	0.172000
H41	H4	0.099700	0.945300	0.141300
C121	C12	0.144500	0.928400	0.174300
H51	H5	0.157500	0.923600	0.146100
C131	C13	0.158580	0.922100	0.221200
C141	C14	0.218860	0.927000	0.253400
C151	C15	0.245380	0.908700	0.279700
H61	H6	0.246100	0.883900	0.279000
C161	C16	0.270000	0.927200	0.306300
C171	C17	0.268500	0.964400	0.309100
H71	H7	0.285200	0.976900	0.327500
C181	C18	0.242500	0.982000	0.284800
H81	H8	0.240700	0.006700	0.287500
C191	C19	0.218200	0.963000	0.255400
H91	H9	0.201400	0.975500	0.237000
C201	C20	0.204300	0.880200	0.193300
C211	C21	0.237600	0.879000	0.172800
H101	H10	0.253600	0.897300	0.180100
C221	C22	0.248700	0.852100	0.142000
H111	H11	0.271600	0.852000	0.128900
C231	C23	0.224000	0.824000	0.130600
C241	C24	0.235800	0.795800	0.095700
C251	C25	0.189900	0.825100	0.150800
H121	H12	0.173500	0.807400	0.143100
C261	C26	0.180300	0.852700	0.182700
H131	H13	0.157800	0.852800	0.196900
C271	C27	0.139750	0.930700	0.261800
H141	H14	0.149500	0.926700	0.292700
C281	C28	0.105940	0.945700	0.257500
H151	H15	0.093400	0.951800	0.285700
C291	C29	0.436550	0.968240	0.313500
C301	C30	0.400940	0.950710	0.319200
C311	C31	0.388090	0.940500	0.364200
H161	H16	0.402400	0.943100	0.391900
C321	C32	0.354190	0.926600	0.368700
H171	H17	0.345700	0.920000	0.399400
C331	C33	0.332900	0.922300	0.328100
C341	C34	0.345810	0.932300	0.282400
H181	H18	0.331400	0.929600	0.254900
C351	C35	0.379090	0.946000	0.277500
H191	H19	0.387600	0.952300	0.246600
N41	N4	0.297660	0.908200	0.332400
C361	C36	0.289290	0.879400	0.364600
C371	C37	0.255880	0.877700	0.387600
H201	H20	0.239200	0.895400	0.380900
C381	C38	0.247200	0.852500	0.417800
H211	H21	0.224300	0.852000	0.431100
C391	C39	0.272600	0.825400	0.431000
C401	C40	0.263600	0.796600	0.466800
C411	C41	0.306160	0.826700	0.408500
H221	H22	0.323400	0.809700	0.416100
C421	C42	0.313900	0.853800	0.374600
H231	H23	0.335900	0.854100	0.358800
C431	C43	0.048600	0.110050	0.265200
H241	H24	0.041200	0.097600	0.293000
C441	C44	0.064400	0.143800	0.270200
H251	H25	0.067200	0.153700	0.301200
C451	C45	0.119540	0.207240	0.204300
C461	C46	0.147600	0.183390	0.193900
H261	H26	0.147900	0.161000	0.208700
C471	C47	0.174500	0.192790	0.162300
H271	H27	0.192400	0.176500	0.155000
C481	C48	0.175100	0.225300	0.141800
C491	C49	0.204500	0.234300	0.104500
C501	C50	0.148200	0.249400	0.152000
H281	H28	0.149100	0.272200	0.138300
C511	C51	0.120600	0.240550	0.181600
H291	H29	0.102300	0.256800	0.186900
C521	C52	0.036400	0.223200	0.265500
H301	H30	0.023400	0.205700	0.249100
C531	C53	0.018900	0.249800	0.291700
H311	H31	0.994100	0.250200	0.291900
C541	C54	0.036600	0.274500	0.316500
H321	H32	0.024400	0.291500	0.334900
C551	C55	0.080750	0.337530	0.336900
C561	C56	0.073600	0.351060	0.289700
H331	H33	0.079200	0.337400	0.262200
C571	C57	0.058600	0.384450	0.283700
H341	H34	0.053300	0.392900	0.252400
C581	C58	0.051260	0.405270	0.324400
C591	C59	0.034440	0.440740	0.317000
C601	C60	0.059200	0.392590	0.371700
H351	H35	0.054400	0.406600	0.399100
C611	C61	0.074500	0.358480	0.377200
H361	H36	0.080300	0.350100	0.408300
C621	C62	0.120780	0.293010	0.374600
C631	C63	0.147200	0.317750	0.386400
H371	H37	0.146200	0.340500	0.372900
C641	C64	0.174100	0.309250	0.417000
H381	H38	0.191900	0.325900	0.423400
C651	C65	0.175260	0.275780	0.439000
C661	C66	0.204200	0.266800	0.475700
C671	C67	0.150600	0.252000	0.427900
H391	H39	0.152100	0.229200	0.441500
C681	C68	0.122200	0.260060	0.396200
H401	H40	0.104600	0.243200	0.390000
N51	N5	0.975430	0.989610	0.318000
C691	C69	0.992300	0.000400	0.362200
H411	H41	0.013100	0.014000	0.364600
N61	N6	0.972000	0.987000	0.402060
C701	C70	0.942500	0.967800	0.382500
H421	H42	0.924900	0.956200	0.400500
C711	C71	0.944600	0.969500	0.330500
H431	H43	0.928700	0.959100	0.308500
N71	N7	0.218200	0.337850	0.040500
C721	C72	0.189900	0.350200	0.070900
H441	H44	0.180500	0.338200	0.097900
N81	N8	0.178700	0.383900	0.052900
C731	C73	0.199900	0.392500	0.011400
H451	H45	0.198100	0.413100	0.992500
C741	C74	0.224300	0.364000	0.003700
H461	H46	0.241300	0.362700	0.978900
C751	C75	0.988100	0.995300	0.453200
C761	C76	0.965500	0.991400	0.490500
H471	H47	0.942000	0.985100	0.484000
C771	C77	0.144900	0.402200	0.075100
C781	C78	0.024300	0.003700	0.462900
H481	H48	0.040700	0.005800	0.437400
Cu41	Cu4	0.283400	0.761090	0.030720
Cu51	Cu5	0.498980	0.496650	0.149580
Cu61	Cu6	0.509110	0.502050	0.246130
Cu71	Cu7	0.261440	0.216330	0.039990
N91	N9	0.406590	0.198650	0.341800
N101	N10	0.408180	0.303250	0.236000
N111	N11	0.305550	0.591120	0.224600
O171	O17	0.474800	0.452400	0.170540
O181	O18	0.455030	0.523990	0.164700
O191	O19	0.233840	0.705080	0.081200
O201	O20	0.290090	0.724490	0.081700
O211	O21	0.461110	0.524300	0.245780
O221	O22	0.485430	0.454470	0.251010
O231	O23	0.054500	0.521890	0.271840
O241	O24	0.267280	0.705570	0.480200
O251	O25	0.211130	0.723540	0.478900
O261	O26	0.044670	0.528890	0.352040
O271	O27	0.295020	0.233350	0.089100
O281	O28	0.274870	0.289800	0.090300
O291	O29	0.474720	0.042930	0.356800
O301	O30	0.470100	0.048570	0.275130
O311	O31	0.275280	0.208410	0.490500
O321	O32	0.294180	0.265180	0.490200
C791	C79	0.426090	0.225340	0.314700
C801	C80	0.408440	0.251320	0.288400
H491	H49	0.383600	0.251300	0.287300
C811	C81	0.427030	0.276920	0.263900
C821	C82	0.424030	0.337480	0.229000
C831	C83	0.426900	0.353700	0.184300
H501	H50	0.417800	0.342100	0.156800
C841	C84	0.442600	0.386450	0.178400
H511	H51	0.444400	0.396500	0.147300
C851	C85	0.456010	0.404870	0.218900
C861	C86	0.472860	0.439940	0.212900
C871	C87	0.444420	0.530760	0.207100
C881	C88	0.409200	0.548360	0.212500
C891	C89	0.389900	0.557700	0.172000
H521	H52	0.400300	0.554700	0.141300
C901	C90	0.355500	0.571600	0.174300
H531	H53	0.342500	0.576400	0.146100
C911	C91	0.341420	0.577900	0.221200
C921	C92	0.281140	0.573000	0.253400
C931	C93	0.254620	0.591300	0.279700
H541	H54	0.253900	0.616100	0.279000
C941	C94	0.230000	0.572800	0.306300
C951	C95	0.231500	0.535600	0.309100
H551	H55	0.214800	0.523100	0.327500
C961	C96	0.257500	0.518000	0.284800
H561	H56	0.259300	0.493300	0.287500
C971	C97	0.281800	0.537000	0.255400
H571	H57	0.298600	0.524500	0.237000
C981	C98	0.295700	0.619800	0.193300
C991	C99	0.262400	0.621000	0.172800
H581	H58	0.246400	0.602700	0.180100
C1001	C100	0.251300	0.647900	0.142000
H591	H59	0.228400	0.648000	0.128900
C1011	C101	0.276000	0.676000	0.130600
C1021	C102	0.264200	0.704200	0.095700
C1031	C103	0.310100	0.674900	0.150800
H601	H60	0.326500	0.692600	0.143100
C1041	C104	0.319700	0.647300	0.182700
H611	H61	0.342200	0.647200	0.196900
C1051	C105	0.360250	0.569300	0.261800
H621	H62	0.350500	0.573300	0.292700
C1061	C106	0.394060	0.554300	0.257500
H631	H63	0.406600	0.548200	0.285700
C1071	C107	0.063450	0.531760	0.313500
C1081	C108	0.099060	0.549290	0.319200
C1091	C109	0.111910	0.559500	0.364200
H641	H64	0.097600	0.556900	0.391900
C1101	C110	0.145810	0.573400	0.368700
H651	H65	0.154300	0.580000	0.399400
C1111	C111	0.167100	0.577700	0.328100
C1121	C112	0.154190	0.567700	0.282400
H661	H66	0.168600	0.570400	0.254900
C1131	C113	0.120910	0.554000	0.277500
H671	H67	0.112400	0.547700	0.246600
N121	N12	0.202340	0.591800	0.332400
C1141	C114	0.210710	0.620600	0.364600
C1151	C115	0.244120	0.622300	0.387600
H681	H68	0.260800	0.604600	0.380900
C1161	C116	0.252800	0.647500	0.417800
H691	H69	0.275700	0.648000	0.431100
C1171	C117	0.227400	0.674600	0.431000
C1181	C118	0.236400	0.703400	0.466800
C1191	C119	0.193840	0.673300	0.408500
H701	H70	0.176600	0.690300	0.416100
C1201	C120	0.186100	0.646200	0.374600
H711	H71	0.164100	0.645900	0.358800
C1211	C121	0.451400	0.389950	0.265200
H721	H72	0.458800	0.402400	0.293000
C1221	C122	0.435600	0.356200	0.270200
H731	H73	0.432800	0.346300	0.301200
C1231	C123	0.380460	0.292760	0.204300
C1241	C124	0.352400	0.316610	0.193900
H741	H74	0.352100	0.339000	0.208700
C1251	C125	0.325500	0.307210	0.162300
H751	H75	0.307600	0.323500	0.155000
C1261	C126	0.324900	0.274700	0.141800
C1271	C127	0.295500	0.265700	0.104500
C1281	C128	0.351800	0.250600	0.152000
H761	H76	0.350900	0.227800	0.138300
C1291	C129	0.379400	0.259450	0.181600
H771	H77	0.397700	0.243200	0.186900
C1301	C130	0.463600	0.276800	0.265500
H781	H78	0.476600	0.294300	0.249100
C1311	C131	0.481100	0.250200	0.291700
H791	H79	0.505900	0.249800	0.291900
C1321	C132	0.463400	0.225500	0.316500
H801	H80	0.475600	0.208500	0.334900
C1331	C133	0.419250	0.162470	0.336900
C1341	C134	0.426400	0.148940	0.289700
H811	H81	0.420800	0.162600	0.262200
C1351	C135	0.441400	0.115550	0.283700
H821	H82	0.446700	0.107100	0.252400
C1361	C136	0.448740	0.094730	0.324400
C1371	C137	0.465560	0.059260	0.317000
C1381	C138	0.440800	0.107410	0.371700
H831	H83	0.445600	0.093400	0.399100
C1391	C139	0.425500	0.141520	0.377200
H841	H84	0.419700	0.149900	0.408300
C1401	C140	0.379220	0.206990	0.374600
C1411	C141	0.352800	0.182250	0.386400
H851	H85	0.353800	0.159500	0.372900
C1421	C142	0.325900	0.190750	0.417000
H861	H86	0.308100	0.174100	0.423400
C1431	C143	0.324740	0.224220	0.439000
C1441	C144	0.295800	0.233200	0.475700
C1451	C145	0.349400	0.248000	0.427900
H871	H87	0.347900	0.270800	0.441500
C1461	C146	0.377800	0.239940	0.396200
H881	H88	0.395400	0.256800	0.390000
N131	N13	0.524570	0.510390	0.318000
C1471	C147	0.507700	0.499600	0.362200
H891	H89	0.486900	0.486000	0.364600
N141	N14	0.528000	0.513000	0.402060
C1481	C148	0.557500	0.532200	0.382500
H901	H90	0.575100	0.543800	0.400500
C1491	C149	0.555400	0.530500	0.330500
H911	H91	0.571300	0.540900	0.308500
N151	N15	0.281800	0.162150	0.040500
C1501	C150	0.310100	0.149800	0.070900
H921	H92	0.319500	0.161800	0.097900
N161	N16	0.321300	0.116100	0.052900
C1511	C151	0.300100	0.107500	0.011400
H931	H93	0.301900	0.086900	0.992500
C1521	C152	0.275700	0.136000	0.003700
H941	H94	0.258700	0.137300	0.978900
C1531	C153	0.511900	0.504700	0.453200
C1541	C154	0.534500	0.508600	0.490500
H951	H95	0.558000	0.514900	0.484000
C1551	C155	0.355100	0.097800	0.075100
C1561	C156	0.475700	0.496300	0.462900
H961	H96	0.459300	0.494200	0.437400
Cu81	Cu8	0.216600	0.738910	0.030720
Cu91	Cu9	0.998980	0.503350	0.350420
Cu101	Cu10	0.009110	0.497950	0.253870
Cu111	Cu11	0.761440	0.783670	0.460010
N171	N17	0.906590	0.801350	0.158200
N181	N18	0.908180	0.696750	0.264000
N191	N19	0.805550	0.408880	0.275400
O331	O33	0.974800	0.547600	0.329460
O341	O34	0.955030	0.476010	0.335300
O351	O35	0.733840	0.294920	0.418800
O361	O36	0.790090	0.275510	0.418300
O371	O37	0.961110	0.475700	0.254220
O381	O38	0.985430	0.545530	0.248990
O391	O39	0.554500	0.478110	0.228160
O401	O40	0.767280	0.294430	0.019800
O411	O41	0.711130	0.276460	0.021100
O421	O42	0.544670	0.471110	0.147960
O431	O43	0.795020	0.766650	0.410900
O441	O44	0.774870	0.710200	0.409700
O451	O45	0.974720	0.957070	0.143200
O461	O46	0.970100	0.951430	0.224870
O471	O47	0.775280	0.791590	0.009500
O481	O48	0.794180	0.734820	0.009800
C1571	C157	0.926090	0.774660	0.185300
C1581	C158	0.908440	0.748680	0.211600
H971	H97	0.883600	0.748700	0.212700
C1591	C159	0.927030	0.723080	0.236100
C1601	C160	0.924030	0.662520	0.271000
C1611	C161	0.926900	0.646300	0.315700
H981	H98	0.917800	0.657900	0.343200
C1621	C162	0.942600	0.613550	0.321600
H991	H99	0.944400	0.603500	0.352700
C1631	C163	0.956010	0.595130	0.281100
C1641	C164	0.972860	0.560060	0.287100
C1651	C165	0.944420	0.469240	0.292900
C1661	C166	0.909200	0.451640	0.287500
C1671	C167	0.889900	0.442300	0.328000
H1001	H100	0.900300	0.445300	0.358700
C1681	C168	0.855500	0.428400	0.325700
H1011	H101	0.842500	0.423600	0.353900
C1691	C169	0.841420	0.422100	0.278800
C1701	C170	0.781140	0.427000	0.246600
C1711	C171	0.754620	0.408700	0.220300
H1021	H102	0.753900	0.383900	0.221000
C1721	C172	0.730000	0.427200	0.193700
C1731	C173	0.731500	0.464400	0.190900
H1031	H103	0.714800	0.476900	0.172500
C1741	C174	0.757500	0.482000	0.215200
H1041	H104	0.759300	0.506700	0.212500
C1751	C175	0.781800	0.463000	0.244600
H1051	H105	0.798600	0.475500	0.263000
C1761	C176	0.795700	0.380200	0.306700
C1771	C177	0.762400	0.379000	0.327200
H1061	H106	0.746400	0.397300	0.319900
C1781	C178	0.751300	0.352100	0.358000
H1071	H107	0.728400	0.352000	0.371100
C1791	C179	0.776000	0.324000	0.369400
C1801	C180	0.764200	0.295800	0.404300
C1811	C181	0.810100	0.325100	0.349200
H1081	H108	0.826500	0.307400	0.356900
C1821	C182	0.819700	0.352700	0.317300
H1091	H109	0.842200	0.352800	0.303100
C1831	C183	0.860250	0.430700	0.238200
H1101	H110	0.850500	0.426700	0.207300
C1841	C184	0.894060	0.445700	0.242500
H1111	H111	0.906600	0.451800	0.214300
C1851	C185	0.563450	0.468240	0.186500
C1861	C186	0.599060	0.450710	0.180800
C1871	C187	0.611910	0.440500	0.135800
H1121	H112	0.597600	0.443100	0.108100
C1881	C188	0.645810	0.426600	0.131300
H1131	H113	0.654300	0.420000	0.100600
C1891	C189	0.667100	0.422300	0.171900
C1901	C190	0.654190	0.432300	0.217600
H1141	H114	0.668600	0.429600	0.245100
C1911	C191	0.620910	0.446000	0.222500
H1151	H115	0.612400	0.452300	0.253400
N201	N20	0.702340	0.408200	0.167600
C1921	C192	0.710710	0.379400	0.135400
C1931	C193	0.744120	0.377700	0.112400
H1161	H116	0.760800	0.395400	0.119100
C1941	C194	0.752800	0.352500	0.082200
H1171	H117	0.775700	0.352000	0.068900
C1951	C195	0.727400	0.325400	0.069000
C1961	C196	0.736400	0.296600	0.033200
C1971	C197	0.693840	0.326700	0.091500
H1181	H118	0.676600	0.309700	0.083900
C1981	C198	0.686100	0.353800	0.125400
H1191	H119	0.664100	0.354100	0.141200
C1991	C199	0.951400	0.610050	0.234800
H1201	H120	0.958800	0.597600	0.207000
C2001	C200	0.935600	0.643800	0.229800
H1211	H121	0.932800	0.653700	0.198800
C2011	C201	0.880460	0.707240	0.295700
C2021	C202	0.852400	0.683390	0.306100
H1221	H122	0.852100	0.661000	0.291300
C2031	C203	0.825500	0.692790	0.337700
H1231	H123	0.807600	0.676500	0.345000
C2041	C204	0.824900	0.725300	0.358200
C2051	C205	0.795500	0.734300	0.395500
C2061	C206	0.851800	0.749400	0.348000
H1241	H124	0.850900	0.772200	0.361700
C2071	C207	0.879400	0.740550	0.318400
H1251	H125	0.897700	0.756800	0.313100
C2081	C208	0.963600	0.723200	0.234500
H1261	H126	0.976600	0.705700	0.250900
C2091	C209	0.981100	0.749800	0.208300
H1271	H127	0.005900	0.750200	0.208100
C2101	C210	0.963400	0.774500	0.183500
H1281	H128	0.975600	0.791500	0.165100
C2111	C211	0.919250	0.837530	0.163100
C2121	C212	0.926400	0.851060	0.210300
H1291	H129	0.920800	0.837400	0.237800
C2131	C213	0.941400	0.884450	0.216300
H1301	H130	0.946700	0.892900	0.247600
C2141	C214	0.948740	0.905270	0.175600
C2151	C215	0.965560	0.940740	0.183000
C2161	C216	0.940800	0.892590	0.128300
H1311	H131	0.945600	0.906600	0.100900
C2171	C217	0.925500	0.858480	0.122800
H1321	H132	0.919700	0.850100	0.091700
C2181	C218	0.879220	0.793010	0.125400
C2191	C219	0.852800	0.817750	0.113600
H1331	H133	0.853800	0.840500	0.127100
C2201	C220	0.825900	0.809250	0.083000
H1341	H134	0.808100	0.825900	0.076600
C2211	C221	0.824740	0.775780	0.061000
C2221	C222	0.795800	0.766800	0.024300
C2231	C223	0.849400	0.752000	0.072100
H1351	H135	0.847900	0.729200	0.058500
C2241	C224	0.877800	0.760060	0.103800
H1361	H136	0.895400	0.743200	0.110000
N211	N21	0.024570	0.489610	0.182000
C2251	C225	0.007700	0.500400	0.137800
H1371	H137	0.986900	0.514000	0.135400
N221	N22	0.028000	0.487000	0.097940
C2261	C226	0.057500	0.467800	0.117500
H1381	H138	0.075100	0.456200	0.099500
C2271	C227	0.055400	0.469500	0.169500
H1391	H139	0.071300	0.459100	0.191500
N231	N23	0.781800	0.837850	0.459500
C2281	C228	0.810100	0.850200	0.429100
H1401	H140	0.819500	0.838200	0.402100
N241	N24	0.821300	0.883900	0.447100
C2291	C229	0.800100	0.892500	0.488600
H1411	H141	0.801900	0.913100	0.507500
C2301	C230	0.775700	0.864000	0.496300
H1421	H142	0.758700	0.862700	0.521100
C2311	C231	0.011900	0.495300	0.046800
C2321	C232	0.034500	0.491400	0.009500
H1431	H143	0.058000	0.485100	0.016000
C2331	C233	0.855100	0.902200	0.424900
C2341	C234	0.975700	0.503700	0.037100
H1441	H144	0.959300	0.505800	0.062600
Cu121	Cu12	0.716600	0.261090	0.469280
Cu131	Cu13	0.501020	0.996650	0.350420
Cu141	Cu14	0.490890	0.002050	0.253870
Cu151	Cu15	0.738560	0.716330	0.460010
N251	N25	0.593410	0.698650	0.158200
N261	N26	0.591820	0.803250	0.264000
N271	N27	0.694450	0.091120	0.275400
O491	O49	0.525200	0.952400	0.329460
O501	O50	0.544970	0.023990	0.335300
O511	O51	0.766160	0.205080	0.418800
O521	O52	0.709910	0.224490	0.418300
O531	O53	0.538890	0.024300	0.254220
O541	O54	0.514570	0.954470	0.248990
O551	O55	0.945500	0.021890	0.228160
O561	O56	0.732720	0.205570	0.019800
O571	O57	0.788870	0.223540	0.021100
O581	O58	0.955330	0.028890	0.147960
O591	O59	0.704980	0.733350	0.410900
O601	O60	0.725130	0.789800	0.409700
O611	O61	0.525280	0.542930	0.143200
O621	O62	0.529900	0.548570	0.224870
O631	O63	0.724720	0.708410	0.009500
O641	O64	0.705820	0.765180	0.009800
C2351	C235	0.573910	0.725340	0.185300
C2361	C236	0.591560	0.751320	0.211600
H1451	H145	0.616400	0.751300	0.212700
C2371	C237	0.572970	0.776920	0.236100
C2381	C238	0.575970	0.837480	0.271000
C2391	C239	0.573100	0.853700	0.315700
H1461	H146	0.582200	0.842100	0.343200
C2401	C240	0.557400	0.886450	0.321600
H1471	H147	0.555600	0.896500	0.352700
C2411	C241	0.543990	0.904870	0.281100
C2421	C242	0.527140	0.939940	0.287100
C2431	C243	0.555580	0.030760	0.292900
C2441	C244	0.590800	0.048360	0.287500
C2451	C245	0.610100	0.057700	0.328000
H1481	H148	0.599700	0.054700	0.358700
C2461	C246	0.644500	0.071600	0.325700
H1491	H149	0.657500	0.076400	0.353900
C2471	C247	0.658580	0.077900	0.278800
C2481	C248	0.718860	0.073000	0.246600
C2491	C249	0.745380	0.091300	0.220300
H1501	H150	0.746100	0.116100	0.221000
C2501	C250	0.770000	0.072800	0.193700
C2511	C251	0.768500	0.035600	0.190900
H1511	H151	0.785200	0.023100	0.172500
C2521	C252	0.742500	0.018000	0.215200
H1521	H152	0.740700	0.993300	0.212500
C2531	C253	0.718200	0.037000	0.244600
H1531	H153	0.701400	0.024500	0.263000
C2541	C254	0.704300	0.119800	0.306700
C2551	C255	0.737600	0.121000	0.327200
H1541	H154	0.753600	0.102700	0.319900
C2561	C256	0.748700	0.147900	0.358000
H1551	H155	0.771600	0.148000	0.371100
C2571	C257	0.724000	0.176000	0.369400
C2581	C258	0.735800	0.204200	0.404300
C2591	C259	0.689900	0.174900	0.349200
H1561	H156	0.673500	0.192600	0.356900
C2601	C260	0.680300	0.147300	0.317300
H1571	H157	0.657800	0.147200	0.303100
C2611	C261	0.639750	0.069300	0.238200
H1581	H158	0.649500	0.073300	0.207300
C2621	C262	0.605940	0.054300	0.242500
H1591	H159	0.593400	0.048200	0.214300
C2631	C263	0.936550	0.031760	0.186500
C2641	C264	0.900940	0.049290	0.180800
C2651	C265	0.888090	0.059500	0.135800
H1601	H160	0.902400	0.056900	0.108100
C2661	C266	0.854190	0.073400	0.131300
H1611	H161	0.845700	0.080000	0.100600
C2671	C267	0.832900	0.077700	0.171900
C2681	C268	0.845810	0.067700	0.217600
H1621	H162	0.831400	0.070400	0.245100
C2691	C269	0.879090	0.054000	0.222500
H1631	H163	0.887600	0.047700	0.253400
N281	N28	0.797660	0.091800	0.167600
C2701	C270	0.789290	0.120600	0.135400
C2711	C271	0.755880	0.122300	0.112400
H1641	H164	0.739200	0.104600	0.119100
C2721	C272	0.747200	0.147500	0.082200
H1651	H165	0.724300	0.148000	0.068900
C2731	C273	0.772600	0.174600	0.069000
C2741	C274	0.763600	0.203400	0.033200
C2751	C275	0.806160	0.173300	0.091500
H1661	H166	0.823400	0.190300	0.083900
C2761	C276	0.813900	0.146200	0.125400
H1671	H167	0.835900	0.145900	0.141200
C2771	C277	0.548600	0.889950	0.234800
H1681	H168	0.541200	0.902400	0.207000
C2781	C278	0.564400	0.856200	0.229800
H1691	H169	0.567200	0.846300	0.198800
C2791	C279	0.619540	0.792760	0.295700
C2801	C280	0.647600	0.816610	0.306100
H1701	H170	0.647900	0.839000	0.291300
C2811	C281	0.674500	0.807210	0.337700
H1711	H171	0.692400	0.823500	0.345000
C2821	C282	0.675100	0.774700	0.358200
C2831	C283	0.704500	0.765700	0.395500
C2841	C284	0.648200	0.750600	0.348000
H1721	H172	0.649100	0.727800	0.361700
C2851	C285	0.620600	0.759450	0.318400
H1731	H173	0.602300	0.743200	0.313100
C2861	C286	0.536400	0.776800	0.234500
H1741	H174	0.523400	0.794300	0.250900
C2871	C287	0.518900	0.750200	0.208300
H1751	H175	0.494100	0.749800	0.208100
C2881	C288	0.536600	0.725500	0.183500
H1761	H176	0.524400	0.708500	0.165100
C2891	C289	0.580750	0.662470	0.163100
C2901	C290	0.573600	0.648940	0.210300
H1771	H177	0.579200	0.662600	0.237800
C2911	C291	0.558600	0.615550	0.216300
H1781	H178	0.553300	0.607100	0.247600
C2921	C292	0.551260	0.594730	0.175600
C2931	C293	0.534440	0.559260	0.183000
C2941	C294	0.559200	0.607410	0.128300
H1791	H179	0.554400	0.593400	0.100900
C2951	C295	0.574500	0.641520	0.122800
H1801	H180	0.580300	0.649900	0.091700
C2961	C296	0.620780	0.706990	0.125400
C2971	C297	0.647200	0.682250	0.113600
H1811	H181	0.646200	0.659500	0.127100
C2981	C298	0.674100	0.690750	0.083000
H1821	H182	0.691900	0.674100	0.076600
C2991	C299	0.675260	0.724220	0.061000
C3001	C300	0.704200	0.733200	0.024300
C3011	C301	0.650600	0.748000	0.072100
H1831	H183	0.652100	0.770800	0.058500
C3021	C302	0.622200	0.739940	0.103800
H1841	H184	0.604600	0.756800	0.110000
N291	N29	0.475430	0.010390	0.182000
C3031	C303	0.492300	0.999600	0.137800
H1851	H185	0.513100	0.986000	0.135400
N301	N30	0.472000	0.013000	0.097940
C3041	C304	0.442500	0.032200	0.117500
H1861	H186	0.424900	0.043800	0.099500
C3051	C305	0.444600	0.030500	0.169500
H1871	H187	0.428700	0.040900	0.191500
N311	N31	0.718200	0.662150	0.459500
C3061	C306	0.689900	0.649800	0.429100
H1881	H188	0.680500	0.661800	0.402100
N321	N32	0.678700	0.616100	0.447100
C3071	C307	0.699900	0.607500	0.488600
H1891	H189	0.698100	0.586900	0.507500
C3081	C308	0.724300	0.636000	0.496300
H1901	H190	0.741300	0.637300	0.521100
C3091	C309	0.488100	0.004700	0.046800
C3101	C310	0.465500	0.008600	0.009500
H1911	H191	0.442000	0.014900	0.016000
C3111	C311	0.644900	0.597800	0.424900
C3121	C312	0.524300	0.996300	0.037100
H1921	H192	0.540700	0.994200	0.062600
Cu161	Cu16	0.783400	0.238910	0.469280
Cu171	Cu17	0.998980	0.996650	0.850420
Cu181	Cu18	0.009110	0.002050	0.753870
Cu191	Cu19	0.761440	0.716330	0.960010
N331	N33	0.906590	0.698650	0.658200
N341	N34	0.908180	0.803250	0.764000
N351	N35	0.805550	0.091120	0.775400
O651	O65	0.974800	0.952400	0.829460
O661	O66	0.955030	0.023990	0.835300
O671	O67	0.733840	0.205080	0.918800
O681	O68	0.790090	0.224490	0.918300
O691	O69	0.961110	0.024300	0.754220
O701	O70	0.985430	0.954470	0.748990
O711	O71	0.554500	0.021890	0.728160
O721	O72	0.767280	0.205570	0.519800
O731	O73	0.711130	0.223540	0.521100
O741	O74	0.544670	0.028890	0.647960
O751	O75	0.795020	0.733350	0.910900
O761	O76	0.774870	0.789800	0.909700
O771	O77	0.974720	0.542930	0.643200
O781	O78	0.970100	0.548570	0.724870
O791	O79	0.775280	0.708410	0.509500
O801	O80	0.794180	0.765180	0.509800
C3131	C313	0.926090	0.725340	0.685300
C3141	C314	0.908440	0.751320	0.711600
H1931	H193	0.883600	0.751300	0.712700
C3151	C315	0.927030	0.776920	0.736100
C3161	C316	0.924030	0.837480	0.771000
C3171	C317	0.926900	0.853700	0.815700
H1941	H194	0.917800	0.842100	0.843200
C3181	C318	0.942600	0.886450	0.821600
H1951	H195	0.944400	0.896500	0.852700
C3191	C319	0.956010	0.904870	0.781100
C3201	C320	0.972860	0.939940	0.787100
C3211	C321	0.944420	0.030760	0.792900
C3221	C322	0.909200	0.048360	0.787500
C3231	C323	0.889900	0.057700	0.828000
H1961	H196	0.900300	0.054700	0.858700
C3241	C324	0.855500	0.071600	0.825700
H1971	H197	0.842500	0.076400	0.853900
C3251	C325	0.841420	0.077900	0.778800
C3261	C326	0.781140	0.073000	0.746600
C3271	C327	0.754620	0.091300	0.720300
H1981	H198	0.753900	0.116100	0.721000
C3281	C328	0.730000	0.072800	0.693700
C3291	C329	0.731500	0.035600	0.690900
H1991	H199	0.714800	0.023100	0.672500
C3301	C330	0.757500	0.018000	0.715200
H2001	H200	0.759300	0.993300	0.712500
C3311	C331	0.781800	0.037000	0.744600
H2011	H201	0.798600	0.024500	0.763000
C3321	C332	0.795700	0.119800	0.806700
C3331	C333	0.762400	0.121000	0.827200
H2021	H202	0.746400	0.102700	0.819900
C3341	C334	0.751300	0.147900	0.858000
H2031	H203	0.728400	0.148000	0.871100
C3351	C335	0.776000	0.176000	0.869400
C3361	C336	0.764200	0.204200	0.904300
C3371	C337	0.810100	0.174900	0.849200
H2041	H204	0.826500	0.192600	0.856900
C3381	C338	0.819700	0.147300	0.817300
H2051	H205	0.842200	0.147200	0.803100
C3391	C339	0.860250	0.069300	0.738200
H2061	H206	0.850500	0.073300	0.707300
C3401	C340	0.894060	0.054300	0.742500
H2071	H207	0.906600	0.048200	0.714300
C3411	C341	0.563450	0.031760	0.686500
C3421	C342	0.599060	0.049290	0.680800
C3431	C343	0.611910	0.059500	0.635800
H2081	H208	0.597600	0.056900	0.608100
C3441	C344	0.645810	0.073400	0.631300
H2091	H209	0.654300	0.080000	0.600600
C3451	C345	0.667100	0.077700	0.671900
C3461	C346	0.654190	0.067700	0.717600
H2101	H210	0.668600	0.070400	0.745100
C3471	C347	0.620910	0.054000	0.722500
H2111	H211	0.612400	0.047700	0.753400
N361	N36	0.702340	0.091800	0.667600
C3481	C348	0.710710	0.120600	0.635400
C3491	C349	0.744120	0.122300	0.612400
H2121	H212	0.760800	0.104600	0.619100
C3501	C350	0.752800	0.147500	0.582200
H2131	H213	0.775700	0.148000	0.568900
C3511	C351	0.727400	0.174600	0.569000
C3521	C352	0.736400	0.203400	0.533200
C3531	C353	0.693840	0.173300	0.591500
H2141	H214	0.676600	0.190300	0.583900
C3541	C354	0.686100	0.146200	0.625400
H2151	H215	0.664100	0.145900	0.641200
C3551	C355	0.951400	0.889950	0.734800
H2161	H216	0.958800	0.902400	0.707000
C3561	C356	0.935600	0.856200	0.729800
H2171	H217	0.932800	0.846300	0.698800
C3571	C357	0.880460	0.792760	0.795700
C3581	C358	0.852400	0.816610	0.806100
H2181	H218	0.852100	0.839000	0.791300
C3591	C359	0.825500	0.807210	0.837700
H2191	H219	0.807600	0.823500	0.845000
C3601	C360	0.824900	0.774700	0.858200
C3611	C361	0.795500	0.765700	0.895500
C3621	C362	0.851800	0.750600	0.848000
H2201	H220	0.850900	0.727800	0.861700
C3631	C363	0.879400	0.759450	0.818400
H2211	H221	0.897700	0.743200	0.813100
C3641	C364	0.963600	0.776800	0.734500
H2221	H222	0.976600	0.794300	0.750900
C3651	C365	0.981100	0.750200	0.708300
H2231	H223	0.005900	0.749800	0.708100
C3661	C366	0.963400	0.725500	0.683500
H2241	H224	0.975600	0.708500	0.665100
C3671	C367	0.919250	0.662470	0.663100
C3681	C368	0.926400	0.648940	0.710300
H2251	H225	0.920800	0.662600	0.737800
C3691	C369	0.941400	0.615550	0.716300
H2261	H226	0.946700	0.607100	0.747600
C3701	C370	0.948740	0.594730	0.675600
C3711	C371	0.965560	0.559260	0.683000
C3721	C372	0.940800	0.607410	0.628300
H2271	H227	0.945600	0.593400	0.600900
C3731	C373	0.925500	0.641520	0.622800
H2281	H228	0.919700	0.649900	0.591700
C3741	C374	0.879220	0.706990	0.625400
C3751	C375	0.852800	0.682250	0.613600
H2291	H229	0.853800	0.659500	0.627100
C3761	C376	0.825900	0.690750	0.583000
H2301	H230	0.808100	0.674100	0.576600
C3771	C377	0.824740	0.724220	0.561000
C3781	C378	0.795800	0.733200	0.524300
C3791	C379	0.849400	0.748000	0.572100
H2311	H231	0.847900	0.770800	0.558500
C3801	C380	0.877800	0.739940	0.603800
H2321	H232	0.895400	0.756800	0.610000
N371	N37	0.024570	0.010390	0.682000
C3811	C381	0.007700	0.999600	0.637800
H2331	H233	0.986900	0.986000	0.635400
N381	N38	0.028000	0.013000	0.597940
C3821	C382	0.057500	0.032200	0.617500
H2341	H234	0.075100	0.043800	0.599500
C3831	C383	0.055400	0.030500	0.669500
H2351	H235	0.071300	0.040900	0.691500
N391	N39	0.781800	0.662150	0.959500
C3841	C384	0.810100	0.649800	0.929100
H2361	H236	0.819500	0.661800	0.902100
N401	N40	0.821300	0.616100	0.947100
C3851	C385	0.800100	0.607500	0.988600
H2371	H237	0.801900	0.586900	0.007500
C3861	C386	0.775700	0.636000	0.996300
H2381	H238	0.758700	0.637300	0.021100
C3871	C387	0.011900	0.004700	0.546800
C3881	C388	0.034500	0.008600	0.509500
H2391	H239	0.058000	0.014900	0.516000
C3891	C389	0.855100	0.597800	0.924900
C3901	C390	0.975700	0.996300	0.537100
H2401	H240	0.959300	0.994200	0.562600
Cu201	Cu20	0.716600	0.238910	0.969280
Cu211	Cu21	0.501020	0.503350	0.850420
Cu221	Cu22	0.490890	0.497950	0.753870
Cu231	Cu23	0.738560	0.783670	0.960010
N411	N41	0.593410	0.801350	0.658200
N421	N42	0.591820	0.696750	0.764000
N431	N43	0.694450	0.408880	0.775400
O811	O81	0.525200	0.547600	0.829460
O821	O82	0.544970	0.476010	0.835300
O831	O83	0.766160	0.294920	0.918800
O841	O84	0.709910	0.275510	0.918300
O851	O85	0.538890	0.475700	0.754220
O861	O86	0.514570	0.545530	0.748990
O871	O87	0.945500	0.478110	0.728160
O881	O88	0.732720	0.294430	0.519800
O891	O89	0.788870	0.276460	0.521100
O901	O90	0.955330	0.471110	0.647960
O911	O91	0.704980	0.766650	0.910900
O921	O92	0.725130	0.710200	0.909700
O931	O93	0.525280	0.957070	0.643200
O941	O94	0.529900	0.951430	0.724870
O951	O95	0.724720	0.791590	0.509500
O961	O96	0.705820	0.734820	0.509800
C3911	C391	0.573910	0.774660	0.685300
C3921	C392	0.591560	0.748680	0.711600
H2411	H241	0.616400	0.748700	0.712700
C3931	C393	0.572970	0.723080	0.736100
C3941	C394	0.575970	0.662520	0.771000
C3951	C395	0.573100	0.646300	0.815700
H2421	H242	0.582200	0.657900	0.843200
C3961	C396	0.557400	0.613550	0.821600
H2431	H243	0.555600	0.603500	0.852700
C3971	C397	0.543990	0.595130	0.781100
C3981	C398	0.527140	0.560060	0.787100
C3991	C399	0.555580	0.469240	0.792900
C4001	C400	0.590800	0.451640	0.787500
C4011	C401	0.610100	0.442300	0.828000
H2441	H244	0.599700	0.445300	0.858700
C4021	C402	0.644500	0.428400	0.825700
H2451	H245	0.657500	0.423600	0.853900
C4031	C403	0.658580	0.422100	0.778800
C4041	C404	0.718860	0.427000	0.746600
C4051	C405	0.745380	0.408700	0.720300
H2461	H246	0.746100	0.383900	0.721000
C4061	C406	0.770000	0.427200	0.693700
C4071	C407	0.768500	0.464400	0.690900
H2471	H247	0.785200	0.476900	0.672500
C4081	C408	0.742500	0.482000	0.715200
H2481	H248	0.740700	0.506700	0.712500
C4091	C409	0.718200	0.463000	0.744600
H2491	H249	0.701400	0.475500	0.763000
C4101	C410	0.704300	0.380200	0.806700
C4111	C411	0.737600	0.379000	0.827200
H2501	H250	0.753600	0.397300	0.819900
C4121	C412	0.748700	0.352100	0.858000
H2511	H251	0.771600	0.352000	0.871100
C4131	C413	0.724000	0.324000	0.869400
C4141	C414	0.735800	0.295800	0.904300
C4151	C415	0.689900	0.325100	0.849200
H2521	H252	0.673500	0.307400	0.856900
C4161	C416	0.680300	0.352700	0.817300
H2531	H253	0.657800	0.352800	0.803100
C4171	C417	0.639750	0.430700	0.738200
H2541	H254	0.649500	0.426700	0.707300
C4181	C418	0.605940	0.445700	0.742500
H2551	H255	0.593400	0.451800	0.714300
C4191	C419	0.936550	0.468240	0.686500
C4201	C420	0.900940	0.450710	0.680800
C4211	C421	0.888090	0.440500	0.635800
H2561	H256	0.902400	0.443100	0.608100
C4221	C422	0.854190	0.426600	0.631300
H2571	H257	0.845700	0.420000	0.600600
C4231	C423	0.832900	0.422300	0.671900
C4241	C424	0.845810	0.432300	0.717600
H2581	H258	0.831400	0.429600	0.745100
C4251	C425	0.879090	0.446000	0.722500
H2591	H259	0.887600	0.452300	0.753400
N441	N44	0.797660	0.408200	0.667600
C4261	C426	0.789290	0.379400	0.635400
C4271	C427	0.755880	0.377700	0.612400
H2601	H260	0.739200	0.395400	0.619100
C4281	C428	0.747200	0.352500	0.582200
H2611	H261	0.724300	0.352000	0.568900
C4291	C429	0.772600	0.325400	0.569000
C4301	C430	0.763600	0.296600	0.533200
C4311	C431	0.806160	0.326700	0.591500
H2621	H262	0.823400	0.309700	0.583900
C4321	C432	0.813900	0.353800	0.625400
H2631	H263	0.835900	0.354100	0.641200
C4331	C433	0.548600	0.610050	0.734800
H2641	H264	0.541200	0.597600	0.707000
C4341	C434	0.564400	0.643800	0.729800
H2651	H265	0.567200	0.653700	0.698800
C4351	C435	0.619540	0.707240	0.795700
C4361	C436	0.647600	0.683390	0.806100
H2661	H266	0.647900	0.661000	0.791300
C4371	C437	0.674500	0.692790	0.837700
H2671	H267	0.692400	0.676500	0.845000
C4381	C438	0.675100	0.725300	0.858200
C4391	C439	0.704500	0.734300	0.895500
C4401	C440	0.648200	0.749400	0.848000
H2681	H268	0.649100	0.772200	0.861700
C4411	C441	0.620600	0.740550	0.818400
H2691	H269	0.602300	0.756800	0.813100
C4421	C442	0.536400	0.723200	0.734500
H2701	H270	0.523400	0.705700	0.750900
C4431	C443	0.518900	0.749800	0.708300
H2711	H271	0.494100	0.750200	0.708100
C4441	C444	0.536600	0.774500	0.683500
H2721	H272	0.524400	0.791500	0.665100
C4451	C445	0.580750	0.837530	0.663100
C4461	C446	0.573600	0.851060	0.710300
H2731	H273	0.579200	0.837400	0.737800
C4471	C447	0.558600	0.884450	0.716300
H2741	H274	0.553300	0.892900	0.747600
C4481	C448	0.551260	0.905270	0.675600
C4491	C449	0.534440	0.940740	0.683000
C4501	C450	0.559200	0.892590	0.628300
H2751	H275	0.554400	0.906600	0.600900
C4511	C451	0.574500	0.858480	0.622800
H2761	H276	0.580300	0.850100	0.591700
C4521	C452	0.620780	0.793010	0.625400
C4531	C453	0.647200	0.817750	0.613600
H2771	H277	0.646200	0.840500	0.627100
C4541	C454	0.674100	0.809250	0.583000
H2781	H278	0.691900	0.825900	0.576600
C4551	C455	0.675260	0.775780	0.561000
C4561	C456	0.704200	0.766800	0.524300
C4571	C457	0.650600	0.752000	0.572100
H2791	H279	0.652100	0.729200	0.558500
C4581	C458	0.622200	0.760060	0.603800
H2801	H280	0.604600	0.743200	0.610000
N451	N45	0.475430	0.489610	0.682000
C4591	C459	0.492300	0.500400	0.637800
H2811	H281	0.513100	0.514000	0.635400
N461	N46	0.472000	0.487000	0.597940
C4601	C460	0.442500	0.467800	0.617500
H2821	H282	0.424900	0.456200	0.599500
C4611	C461	0.444600	0.469500	0.669500
H2831	H283	0.428700	0.459100	0.691500
N471	N47	0.718200	0.837850	0.959500
C4621	C462	0.689900	0.850200	0.929100
H2841	H284	0.680500	0.838200	0.902100
N481	N48	0.678700	0.883900	0.947100
C4631	C463	0.699900	0.892500	0.988600
H2851	H285	0.698100	0.913100	0.007500
C4641	C464	0.724300	0.864000	0.996300
H2861	H286	0.741300	0.862700	0.021100
C4651	C465	0.488100	0.495300	0.546800
C4661	C466	0.465500	0.491400	0.509500
H2871	H287	0.442000	0.485100	0.516000
C4671	C467	0.644900	0.902200	0.924900
C4681	C468	0.524300	0.503700	0.537100
H2881	H288	0.540700	0.505800	0.562600
Cu241	Cu24	0.783400	0.261090	0.969280
Cu251	Cu25	0.001020	0.496650	0.649580
Cu261	Cu26	0.990890	0.502050	0.746130
Cu271	Cu27	0.238560	0.216330	0.539990
N491	N49	0.093410	0.198650	0.841800
N501	N50	0.091820	0.303250	0.736000
N511	N51	0.194450	0.591120	0.724600
O971	O97	0.025200	0.452400	0.670540
O981	O98	0.044970	0.523990	0.664700
O991	O99	0.266160	0.705080	0.581200
O1001	O100	0.209910	0.724490	0.581700
O1011	O101	0.038890	0.524300	0.745780
O1021	O102	0.014570	0.454470	0.751010
O1031	O103	0.445500	0.521890	0.771840
O1041	O104	0.232720	0.705570	0.980200
O1051	O105	0.288870	0.723540	0.978900
O1061	O106	0.455330	0.528890	0.852040
O1071	O107	0.204980	0.233350	0.589100
O1081	O108	0.225130	0.289800	0.590300
O1091	O109	0.025280	0.042930	0.856800
O1101	O110	0.029900	0.048570	0.775130
O1111	O111	0.224720	0.208410	0.990500
O1121	O112	0.205820	0.265180	0.990200
C4691	C469	0.073910	0.225340	0.814700
C4701	C470	0.091560	0.251320	0.788400
H2891	H289	0.116400	0.251300	0.787300
C4711	C471	0.072970	0.276920	0.763900
C4721	C472	0.075970	0.337480	0.729000
C4731	C473	0.073100	0.353700	0.684300
H2901	H290	0.082200	0.342100	0.656800
C4741	C474	0.057400	0.386450	0.678400
H2911	H291	0.055600	0.396500	0.647300
C4751	C475	0.043990	0.404870	0.718900
C4761	C476	0.027140	0.439940	0.712900
C4771	C477	0.055580	0.530760	0.707100
C4781	C478	0.090800	0.548360	0.712500
C4791	C479	0.110100	0.557700	0.672000
H2921	H292	0.099700	0.554700	0.641300
C4801	C480	0.144500	0.571600	0.674300
H2931	H293	0.157500	0.576400	0.646100
C4811	C481	0.158580	0.577900	0.721200
C4821	C482	0.218860	0.573000	0.753400
C4831	C483	0.245380	0.591300	0.779700
H2941	H294	0.246100	0.616100	0.779000
C4841	C484	0.270000	0.572800	0.806300
C4851	C485	0.268500	0.535600	0.809100
H2951	H295	0.285200	0.523100	0.827500
C4861	C486	0.242500	0.518000	0.784800
H2961	H296	0.240700	0.493300	0.787500
C4871	C487	0.218200	0.537000	0.755400
H2971	H297	0.201400	0.524500	0.737000
C4881	C488	0.204300	0.619800	0.693300
C4891	C489	0.237600	0.621000	0.672800
H2981	H298	0.253600	0.602700	0.680100
C4901	C490	0.248700	0.647900	0.642000
H2991	H299	0.271600	0.648000	0.628900
C4911	C491	0.224000	0.676000	0.630600
C4921	C492	0.235800	0.704200	0.595700
C4931	C493	0.189900	0.674900	0.650800
H3001	H300	0.173500	0.692600	0.643100
C4941	C494	0.180300	0.647300	0.682700
H3011	H301	0.157800	0.647200	0.696900
C4951	C495	0.139750	0.569300	0.761800
H3021	H302	0.149500	0.573300	0.792700
C4961	C496	0.105940	0.554300	0.757500
H3031	H303	0.093400	0.548200	0.785700
C4971	C497	0.436550	0.531760	0.813500
C4981	C498	0.400940	0.549290	0.819200
C4991	C499	0.388090	0.559500	0.864200
H3041	H304	0.402400	0.556900	0.891900
C5001	C500	0.354190	0.573400	0.868700
H3051	H305	0.345700	0.580000	0.899400
C5011	C501	0.332900	0.577700	0.828100
C5021	C502	0.345810	0.567700	0.782400
H3061	H306	0.331400	0.570400	0.754900
C5031	C503	0.379090	0.554000	0.777500
H3071	H307	0.387600	0.547700	0.746600
N521	N52	0.297660	0.591800	0.832400
C5041	C504	0.289290	0.620600	0.864600
C5051	C505	0.255880	0.622300	0.887600
H3081	H308	0.239200	0.604600	0.880900
C5061	C506	0.247200	0.647500	0.917800
H3091	H309	0.224300	0.648000	0.931100
C5071	C507	0.272600	0.674600	0.931000
C5081	C508	0.263600	0.703400	0.966800
C5091	C509	0.306160	0.673300	0.908500
H3101	H310	0.323400	0.690300	0.916100
C5101	C510	0.313900	0.646200	0.874600
H3111	H311	0.335900	0.645900	0.858800
C5111	C511	0.048600	0.389950	0.765200
H3121	H312	0.041200	0.402400	0.793000
C5121	C512	0.064400	0.356200	0.770200
H3131	H313	0.067200	0.346300	0.801200
C5131	C513	0.119540	0.292760	0.704300
C5141	C514	0.147600	0.316610	0.693900
H3141	H314	0.147900	0.339000	0.708700
C5151	C515	0.174500	0.307210	0.662300
H3151	H315	0.192400	0.323500	0.655000
C5161	C516	0.175100	0.274700	0.641800
C5171	C517	0.204500	0.265700	0.604500
C5181	C518	0.148200	0.250600	0.652000
H3161	H316	0.149100	0.227800	0.638300
C5191	C519	0.120600	0.259450	0.681600
H3171	H317	0.102300	0.243200	0.686900
C5201	C520	0.036400	0.276800	0.765500
H3181	H318	0.023400	0.294300	0.749100
C5211	C521	0.018900	0.250200	0.791700
H3191	H319	0.994100	0.249800	0.791900
C5221	C522	0.036600	0.225500	0.816500
H3201	H320	0.024400	0.208500	0.834900
C5231	C523	0.080750	0.162470	0.836900
C5241	C524	0.073600	0.148940	0.789700
H3211	H321	0.079200	0.162600	0.762200
C5251	C525	0.058600	0.115550	0.783700
H3221	H322	0.053300	0.107100	0.752400
C5261	C526	0.051260	0.094730	0.824400
C5271	C527	0.034440	0.059260	0.817000
C5281	C528	0.059200	0.107410	0.871700
H3231	H323	0.054400	0.093400	0.899100
C5291	C529	0.074500	0.141520	0.877200
H3241	H324	0.080300	0.149900	0.908300
C5301	C530	0.120780	0.206990	0.874600
C5311	C531	0.147200	0.182250	0.886400
H3251	H325	0.146200	0.159500	0.872900
C5321	C532	0.174100	0.190750	0.917000
H3261	H326	0.191900	0.174100	0.923400
C5331	C533	0.175260	0.224220	0.939000
C5341	C534	0.204200	0.233200	0.975700
C5351	C535	0.150600	0.248000	0.927900
H3271	H327	0.152100	0.270800	0.941500
C5361	C536	0.122200	0.239940	0.896200
H3281	H328	0.104600	0.256800	0.890000
N531	N53	0.975430	0.510390	0.818000
C5371	C537	0.992300	0.499600	0.862200
H3291	H329	0.013100	0.486000	0.864600
N541	N54	0.972000	0.513000	0.902060
C5381	C538	0.942500	0.532200	0.882500
H3301	H330	0.924900	0.543800	0.900500
C5391	C539	0.944600	0.530500	0.830500
H3311	H331	0.928700	0.540900	0.808500
N551	N55	0.218200	0.162150	0.540500
C5401	C540	0.189900	0.149800	0.570900
H3321	H332	0.180500	0.161800	0.597900
N561	N56	0.178700	0.116100	0.552900
C5411	C541	0.199900	0.107500	0.511400
H3331	H333	0.198100	0.086900	0.492500
C5421	C542	0.224300	0.136000	0.503700
H3341	H334	0.241300	0.137300	0.478900
C5431	C543	0.988100	0.504700	0.953200
C5441	C544	0.965500	0.508600	0.990500
H3351	H335	0.942000	0.514900	0.984000
C5451	C545	0.144900	0.097800	0.575100
C5461	C546	0.024300	0.496300	0.962900
H3361	H336	0.040700	0.494200	0.937400
Cu281	Cu28	0.283400	0.738910	0.530720
Cu291	Cu29	0.498980	0.003350	0.649580
Cu301	Cu30	0.509110	0.997950	0.746130
Cu311	Cu31	0.261440	0.283670	0.539990
N571	N57	0.406590	0.301350	0.841800
N581	N58	0.408180	0.196750	0.736000
N591	N59	0.305550	0.908880	0.724600
O1131	O113	0.474800	0.047600	0.670540
O1141	O114	0.455030	0.976010	0.664700
O1151	O115	0.233840	0.794920	0.581200
O1161	O116	0.290090	0.775510	0.581700
O1171	O117	0.461110	0.975700	0.745780
O1181	O118	0.485430	0.045530	0.751010
O1191	O119	0.054500	0.978110	0.771840
O1201	O120	0.267280	0.794430	0.980200
O1211	O121	0.211130	0.776460	0.978900
O1221	O122	0.044670	0.971110	0.852040
O1231	O123	0.295020	0.266650	0.589100
O1241	O124	0.274870	0.210200	0.590300
O1251	O125	0.474720	0.457070	0.856800
O1261	O126	0.470100	0.451430	0.775130
O1271	O127	0.275280	0.291590	0.990500
O1281	O128	0.294180	0.234820	0.990200
C5471	C547	0.426090	0.274660	0.814700
C5481	C548	0.408440	0.248680	0.788400
H3371	H337	0.383600	0.248700	0.787300
C5491	C549	0.427030	0.223080	0.763900
C5501	C550	0.424030	0.162520	0.729000
C5511	C551	0.426900	0.146300	0.684300
H3381	H338	0.417800	0.157900	0.656800
C5521	C552	0.442600	0.113550	0.678400
H3391	H339	0.444400	0.103500	0.647300
C5531	C553	0.456010	0.095130	0.718900
C5541	C554	0.472860	0.060060	0.712900
C5551	C555	0.444420	0.969240	0.707100
C5561	C556	0.409200	0.951640	0.712500
C5571	C557	0.389900	0.942300	0.672000
H3401	H340	0.400300	0.945300	0.641300
C5581	C558	0.355500	0.928400	0.674300
H3411	H341	0.342500	0.923600	0.646100
C5591	C559	0.341420	0.922100	0.721200
C5601	C560	0.281140	0.927000	0.753400
C5611	C561	0.254620	0.908700	0.779700
H3421	H342	0.253900	0.883900	0.779000
C5621	C562	0.230000	0.927200	0.806300
C5631	C563	0.231500	0.964400	0.809100
H3431	H343	0.214800	0.976900	0.827500
C5641	C564	0.257500	0.982000	0.784800
H3441	H344	0.259300	0.006700	0.787500
C5651	C565	0.281800	0.963000	0.755400
H3451	H345	0.298600	0.975500	0.737000
C5661	C566	0.295700	0.880200	0.693300
C5671	C567	0.262400	0.879000	0.672800
H3461	H346	0.246400	0.897300	0.680100
C5681	C568	0.251300	0.852100	0.642000
H3471	H347	0.228400	0.852000	0.628900
C5691	C569	0.276000	0.824000	0.630600
C5701	C570	0.264200	0.795800	0.595700
C5711	C571	0.310100	0.825100	0.650800
H3481	H348	0.326500	0.807400	0.643100
C5721	C572	0.319700	0.852700	0.682700
H3491	H349	0.342200	0.852800	0.696900
C5731	C573	0.360250	0.930700	0.761800
H3501	H350	0.350500	0.926700	0.792700
C5741	C574	0.394060	0.945700	0.757500
H3511	H351	0.406600	0.951800	0.785700
C5751	C575	0.063450	0.968240	0.813500
C5761	C576	0.099060	0.950710	0.819200
C5771	C577	0.111910	0.940500	0.864200
H3521	H352	0.097600	0.943100	0.891900
C5781	C578	0.145810	0.926600	0.868700
H3531	H353	0.154300	0.920000	0.899400
C5791	C579	0.167100	0.922300	0.828100
C5801	C580	0.154190	0.932300	0.782400
H3541	H354	0.168600	0.929600	0.754900
C5811	C581	0.120910	0.946000	0.777500
H3551	H355	0.112400	0.952300	0.746600
N601	N60	0.202340	0.908200	0.832400
C5821	C582	0.210710	0.879400	0.864600
C5831	C583	0.244120	0.877700	0.887600
H3561	H356	0.260800	0.895400	0.880900
C5841	C584	0.252800	0.852500	0.917800
H3571	H357	0.275700	0.852000	0.931100
C5851	C585	0.227400	0.825400	0.931000
C5861	C586	0.236400	0.796600	0.966800
C5871	C587	0.193840	0.826700	0.908500
H3581	H358	0.176600	0.809700	0.916100
C5881	C588	0.186100	0.853800	0.874600
H3591	H359	0.164100	0.854100	0.858800
C5891	C589	0.451400	0.110050	0.765200
H3601	H360	0.458800	0.097600	0.793000
C5901	C590	0.435600	0.143800	0.770200
H3611	H361	0.432800	0.153700	0.801200
C5911	C591	0.380460	0.207240	0.704300
C5921	C592	0.352400	0.183390	0.693900
H3621	H362	0.352100	0.161000	0.708700
C5931	C593	0.325500	0.192790	0.662300
H3631	H363	0.307600	0.176500	0.655000
C5941	C594	0.324900	0.225300	0.641800
C5951	C595	0.295500	0.234300	0.604500
C5961	C596	0.351800	0.249400	0.652000
H3641	H364	0.350900	0.272200	0.638300
C5971	C597	0.379400	0.240550	0.681600
H3651	H365	0.397700	0.256800	0.686900
C5981	C598	0.463600	0.223200	0.765500
H3661	H366	0.476600	0.205700	0.749100
C5991	C599	0.481100	0.249800	0.791700
H3671	H367	0.505900	0.250200	0.791900
C6001	C600	0.463400	0.274500	0.816500
H3681	H368	0.475600	0.291500	0.834900
C6011	C601	0.419250	0.337530	0.836900
C6021	C602	0.426400	0.351060	0.789700
H3691	H369	0.420800	0.337400	0.762200
C6031	C603	0.441400	0.384450	0.783700
H3701	H370	0.446700	0.392900	0.752400
C6041	C604	0.448740	0.405270	0.824400
C6051	C605	0.465560	0.440740	0.817000
C6061	C606	0.440800	0.392590	0.871700
H3711	H371	0.445600	0.406600	0.899100
C6071	C607	0.425500	0.358480	0.877200
H3721	H372	0.419700	0.350100	0.908300
C6081	C608	0.379220	0.293010	0.874600
C6091	C609	0.352800	0.317750	0.886400
H3731	H373	0.353800	0.340500	0.872900
C6101	C610	0.325900	0.309250	0.917000
H3741	H374	0.308100	0.325900	0.923400
C6111	C611	0.324740	0.275780	0.939000
C6121	C612	0.295800	0.266800	0.975700
C6131	C613	0.349400	0.252000	0.927900
H3751	H375	0.347900	0.229200	0.941500
C6141	C614	0.377800	0.260060	0.896200
H3761	H376	0.395400	0.243200	0.890000
N611	N61	0.524570	0.989610	0.818000
C6151	C615	0.507700	0.000400	0.862200
H3771	H377	0.486900	0.014000	0.864600
N621	N62	0.528000	0.987000	0.902060
C6161	C616	0.557500	0.967800	0.882500
H3781	H378	0.575100	0.956200	0.900500
C6171	C617	0.555400	0.969500	0.830500
H3791	H379	0.571300	0.959100	0.808500
N631	N63	0.281800	0.337850	0.540500
C6181	C618	0.310100	0.350200	0.570900
H3801	H380	0.319500	0.338200	0.597900
N641	N64	0.321300	0.383900	0.552900
C6191	C619	0.300100	0.392500	0.511400
H3811	H381	0.301900	0.413100	0.492500
C6201	C620	0.275700	0.364000	0.503700
H3821	H382	0.258700	0.362700	0.478900
C6211	C621	0.511900	0.995300	0.953200
C6221	C622	0.534500	0.991400	0.990500
H3831	H383	0.558000	0.985100	0.984000
C6231	C623	0.355100	0.402200	0.575100
C6241	C624	0.475700	0.003700	0.962900
H3841	H384	0.459300	0.005800	0.937400
Cu321	Cu32	0.216600	0.761090	0.530720
