data_XUDYOM_clean_PM
_symmetry_space_group_name_H-M	'P1'
_cell_length_a	9.336600
_cell_length_b	21.917000
_cell_length_c	24.057000
_cell_angle_alpha	90.000000
_cell_angle_beta	90.000000
_cell_angle_gamma	90.000000
_symmetry_Int_Tables_number 1

loop_
_symmetry_equiv_pos_as_xyz
'x,y,z'

loop_
_atom_site_label
_atom_site_type_symbol
_atom_site_fract_x
_atom_site_fract_y
_atom_site_fract_z
In11	In1	0.159520	0.109850	0.025020
In21	In2	0.824460	0.263980	0.178200
O11	O1	0.965700	0.112500	0.076700
O21	O2	0.175600	0.195900	0.079800
O31	O3	0.037400	0.254600	0.133500
O41	O4	0.837600	0.169300	0.134800
O51	O5	0.854800	0.988800	0.955700
O61	O6	0.992200	0.070700	0.966900
O71	O7	0.934700	0.209600	0.242600
O81	O8	0.983300	0.328400	0.223700
O91	O9	0.184400	0.324000	0.274300
O101	O10	0.140200	0.204500	0.290900
O111	O11	0.663600	0.265300	0.107800
O121	O12	0.855700	0.352200	0.128400
O131	O13	0.794500	0.400800	0.050500
O141	O14	0.603800	0.311500	0.028000
N11	N1	0.368100	0.098300	0.064400
N21	N2	0.582700	0.115200	0.099900
C11	C1	0.944600	0.158900	0.105800
C21	C2	0.065200	0.207000	0.106000
C31	C3	0.957200	0.017100	0.978200
C41	C4	0.047400	0.231600	0.263200
C51	C5	0.073200	0.301000	0.251900
C61	C6	0.674200	0.307400	0.072300
C71	C7	0.784500	0.358100	0.084700
C81	C8	0.451000	0.046600	0.058400
H11	H1	0.421300	0.010100	0.042400
C91	C9	0.454100	0.137900	0.089600
H21	H2	0.426900	0.177400	0.099000
C101	C10	0.582600	0.057600	0.079600
H31	H3	0.659300	0.030500	0.080200
In31	In3	0.340480	0.890150	0.525020
In41	In4	0.675540	0.736020	0.678200
O151	O15	0.534300	0.887500	0.576700
O161	O16	0.324400	0.804100	0.579800
O171	O17	0.462600	0.745400	0.633500
O181	O18	0.662400	0.830700	0.634800
O191	O19	0.645200	0.011200	0.455700
O201	O20	0.507800	0.929300	0.466900
O211	O21	0.565300	0.790400	0.742600
O221	O22	0.516700	0.671600	0.723700
O231	O23	0.315600	0.676000	0.774300
O241	O24	0.359800	0.795500	0.790900
O251	O25	0.836400	0.734700	0.607800
O261	O26	0.644300	0.647800	0.628400
O271	O27	0.705500	0.599200	0.550500
O281	O28	0.896200	0.688500	0.528000
N31	N3	0.131900	0.901700	0.564400
N41	N4	0.917300	0.884800	0.599900
C111	C11	0.555400	0.841100	0.605800
C121	C12	0.434800	0.793000	0.606000
C131	C13	0.542800	0.982900	0.478200
C141	C14	0.452600	0.768400	0.763200
C151	C15	0.426800	0.699000	0.751900
C161	C16	0.825800	0.692600	0.572300
C171	C17	0.715500	0.641900	0.584700
C181	C18	0.049000	0.953400	0.558400
H41	H4	0.078700	0.989900	0.542400
C191	C19	0.045900	0.862100	0.589600
H51	H5	0.073100	0.822600	0.599000
C201	C20	0.917400	0.942400	0.579600
H61	H6	0.840700	0.969500	0.580200
In51	In5	0.840480	0.609850	0.474980
In61	In6	0.175540	0.763980	0.321800
O291	O29	0.034300	0.612500	0.423300
O301	O30	0.824400	0.695900	0.420200
O311	O31	0.962600	0.754600	0.366500
O321	O32	0.162400	0.669300	0.365200
O331	O33	0.145200	0.488800	0.544300
O341	O34	0.007800	0.570700	0.533100
O351	O35	0.065300	0.709600	0.257400
O361	O36	0.016700	0.828400	0.276300
O371	O37	0.815600	0.824000	0.225700
O381	O38	0.859800	0.704500	0.209100
O391	O39	0.336400	0.765300	0.392200
O401	O40	0.144300	0.852200	0.371600
O411	O41	0.205500	0.900800	0.449500
O421	O42	0.396200	0.811500	0.472000
N51	N5	0.631900	0.598300	0.435600
N61	N6	0.417300	0.615200	0.400100
C211	C21	0.055400	0.658900	0.394200
C221	C22	0.934800	0.707000	0.394000
C231	C23	0.042800	0.517100	0.521800
C241	C24	0.952600	0.731600	0.236800
C251	C25	0.926800	0.801000	0.248100
C261	C26	0.325800	0.807400	0.427700
C271	C27	0.215500	0.858100	0.415300
C281	C28	0.549000	0.546600	0.441600
H71	H7	0.578700	0.510100	0.457600
C291	C29	0.545900	0.637900	0.410400
H81	H8	0.573100	0.677400	0.401000
C301	C30	0.417400	0.557600	0.420400
H91	H9	0.340700	0.530500	0.419800
In71	In7	0.659520	0.390150	0.974980
In81	In8	0.324460	0.236020	0.821800
O431	O43	0.465700	0.387500	0.923300
O441	O44	0.675600	0.304100	0.920200
O451	O45	0.537400	0.245400	0.866500
O461	O46	0.337600	0.330700	0.865200
O471	O47	0.354800	0.511200	0.044300
O481	O48	0.492200	0.429300	0.033100
O491	O49	0.434700	0.290400	0.757400
O501	O50	0.483300	0.171600	0.776300
O511	O51	0.684400	0.176000	0.725700
O521	O52	0.640200	0.295500	0.709100
O531	O53	0.163600	0.234700	0.892200
O541	O54	0.355700	0.147800	0.871600
O551	O55	0.294500	0.099200	0.949500
O561	O56	0.103800	0.188500	0.972000
N71	N7	0.868100	0.401700	0.935600
N81	N8	0.082700	0.384800	0.900100
C311	C31	0.444600	0.341100	0.894200
C321	C32	0.565200	0.293000	0.894000
C331	C33	0.457200	0.482900	0.021800
C341	C34	0.547400	0.268400	0.736800
C351	C35	0.573200	0.199000	0.748100
C361	C36	0.174200	0.192600	0.927700
C371	C37	0.284500	0.141900	0.915300
C381	C38	0.951000	0.453400	0.941600
H101	H10	0.921300	0.489900	0.957600
C391	C39	0.954100	0.362100	0.910400
H111	H11	0.926900	0.322600	0.901000
C401	C40	0.082600	0.442400	0.920400
H121	H12	0.159300	0.469500	0.919800
In91	In9	0.840480	0.890150	0.974980
In101	In10	0.175540	0.736020	0.821800
O571	O57	0.034300	0.887500	0.923300
O581	O58	0.824400	0.804100	0.920200
O591	O59	0.962600	0.745400	0.866500
O601	O60	0.162400	0.830700	0.865200
O611	O61	0.145200	0.011200	0.044300
O621	O62	0.007800	0.929300	0.033100
O631	O63	0.065300	0.790400	0.757400
O641	O64	0.016700	0.671600	0.776300
O651	O65	0.815600	0.676000	0.725700
O661	O66	0.859800	0.795500	0.709100
O671	O67	0.336400	0.734700	0.892200
O681	O68	0.144300	0.647800	0.871600
O691	O69	0.205500	0.599200	0.949500
O701	O70	0.396200	0.688500	0.972000
N91	N9	0.631900	0.901700	0.935600
N101	N10	0.417300	0.884800	0.900100
C411	C41	0.055400	0.841100	0.894200
C421	C42	0.934800	0.793000	0.894000
C431	C43	0.042800	0.982900	0.021800
C441	C44	0.952600	0.768400	0.736800
C451	C45	0.926800	0.699000	0.748100
C461	C46	0.325800	0.692600	0.927700
C471	C47	0.215500	0.641900	0.915300
C481	C48	0.549000	0.953400	0.941600
H131	H13	0.578700	0.989900	0.957600
C491	C49	0.545900	0.862100	0.910400
H141	H14	0.573100	0.822600	0.901000
C501	C50	0.417400	0.942400	0.920400
H151	H15	0.340700	0.969500	0.919800
In111	In11	0.659520	0.109850	0.474980
In121	In12	0.324460	0.263980	0.321800
O711	O71	0.465700	0.112500	0.423300
O721	O72	0.675600	0.195900	0.420200
O731	O73	0.537400	0.254600	0.366500
O741	O74	0.337600	0.169300	0.365200
O751	O75	0.354800	0.988800	0.544300
O761	O76	0.492200	0.070700	0.533100
O771	O77	0.434700	0.209600	0.257400
O781	O78	0.483300	0.328400	0.276300
O791	O79	0.684400	0.324000	0.225700
O801	O80	0.640200	0.204500	0.209100
O811	O81	0.163600	0.265300	0.392200
O821	O82	0.355700	0.352200	0.371600
O831	O83	0.294500	0.400800	0.449500
O841	O84	0.103800	0.311500	0.472000
N111	N11	0.868100	0.098300	0.435600
N121	N12	0.082700	0.115200	0.400100
C511	C51	0.444600	0.158900	0.394200
C521	C52	0.565200	0.207000	0.394000
C531	C53	0.457200	0.017100	0.521800
C541	C54	0.547400	0.231600	0.236800
C551	C55	0.573200	0.301000	0.248100
C561	C56	0.174200	0.307400	0.427700
C571	C57	0.284500	0.358100	0.415300
C581	C58	0.951000	0.046600	0.441600
H161	H16	0.921300	0.010100	0.457600
C591	C59	0.954100	0.137900	0.410400
H171	H17	0.926900	0.177400	0.401000
C601	C60	0.082600	0.057600	0.420400
H181	H18	0.159300	0.030500	0.419800
In131	In13	0.159520	0.390150	0.525020
In141	In14	0.824460	0.236020	0.678200
O851	O85	0.965700	0.387500	0.576700
O861	O86	0.175600	0.304100	0.579800
O871	O87	0.037400	0.245400	0.633500
O881	O88	0.837600	0.330700	0.634800
O891	O89	0.854800	0.511200	0.455700
O901	O90	0.992200	0.429300	0.466900
O911	O91	0.934700	0.290400	0.742600
O921	O92	0.983300	0.171600	0.723700
O931	O93	0.184400	0.176000	0.774300
O941	O94	0.140200	0.295500	0.790900
O951	O95	0.663600	0.234700	0.607800
O961	O96	0.855700	0.147800	0.628400
O971	O97	0.794500	0.099200	0.550500
O981	O98	0.603800	0.188500	0.528000
N131	N13	0.368100	0.401700	0.564400
N141	N14	0.582700	0.384800	0.599900
C611	C61	0.944600	0.341100	0.605800
C621	C62	0.065200	0.293000	0.606000
C631	C63	0.957200	0.482900	0.478200
C641	C64	0.047400	0.268400	0.763200
C651	C65	0.073200	0.199000	0.751900
C661	C66	0.674200	0.192600	0.572300
C671	C67	0.784500	0.141900	0.584700
C681	C68	0.451000	0.453400	0.558400
H191	H19	0.421300	0.489900	0.542400
C691	C69	0.454100	0.362100	0.589600
H201	H20	0.426900	0.322600	0.599000
C701	C70	0.582600	0.442400	0.579600
H211	H21	0.659300	0.469500	0.580200
In151	In15	0.340480	0.609850	0.025020
In161	In16	0.675540	0.763980	0.178200
O991	O99	0.534300	0.612500	0.076700
O1001	O100	0.324400	0.695900	0.079800
O1011	O101	0.462600	0.754600	0.133500
O1021	O102	0.662400	0.669300	0.134800
O1031	O103	0.645200	0.488800	0.955700
O1041	O104	0.507800	0.570700	0.966900
O1051	O105	0.565300	0.709600	0.242600
O1061	O106	0.516700	0.828400	0.223700
O1071	O107	0.315600	0.824000	0.274300
O1081	O108	0.359800	0.704500	0.290900
O1091	O109	0.836400	0.765300	0.107800
O1101	O110	0.644300	0.852200	0.128400
O1111	O111	0.705500	0.900800	0.050500
O1121	O112	0.896200	0.811500	0.028000
N151	N15	0.131900	0.598300	0.064400
N161	N16	0.917300	0.615200	0.099900
C711	C71	0.555400	0.658900	0.105800
C721	C72	0.434800	0.707000	0.106000
C731	C73	0.542800	0.517100	0.978200
C741	C74	0.452600	0.731600	0.263200
C751	C75	0.426800	0.801000	0.251900
C761	C76	0.825800	0.807400	0.072300
C771	C77	0.715500	0.858100	0.084700
C781	C78	0.049000	0.546600	0.058400
H221	H22	0.078700	0.510100	0.042400
C791	C79	0.045900	0.637900	0.089600
H231	H23	0.073100	0.677400	0.099000
C801	C80	0.917400	0.557600	0.079600
H241	H24	0.840700	0.530500	0.080200
